[H]OC1([H])C([H])([H])C([H])([H])C([H])(n2c([H])c(-c3c([H])c([H])c(F)c(F)c3[H])c3c([H])nc(N([H])C([H])([H])C([H])([H])C([H])([H])C([H])([H])[H])nc32)C([H])([H])C1([H])[H]


 31 34  0  0  0  0  0  0  0  0999 V2000
    3.0373    0.2398   18.7448 C   0  0  0  0  0  0  0  0  0  0  0  0
    2.5838   -0.1211   17.5268 N   0  0  0  0  0  0  0  0  0  0  0  0
    2.6641    0.6213   16.4265 C   0  0  0  0  0  0  0  0  0  0  0  0
    3.2654    1.8730   16.5403 C   0  0  0  0  0  0  0  0  0  0  0  0
    3.5248    2.8872   15.6765 C   0  0  0  0  0  0  0  0  0  0  0  0
    4.1446    3.8878   16.3631 C   0  0  0  0  0  0  0  0  0  0  0  0
    4.2710    3.5006   17.6448 N   0  0  0  0  0  0  0  0  0  0  0  0
    3.7362    2.2516   17.7974 C   0  0  0  0  0  0  0  0  0  0  0  0
    3.6199    1.4466   18.8674 N   0  0  0  0  0  0  0  0  0  0  0  0
    4.8667    4.2472   18.7189 C   0  0  0  0  0  0  0  0  0  0  0  0
    5.8565    5.2847   18.2125 C   0  0  0  0  0  0  0  0  0  0  0  0
    6.2831    6.1292   19.3689 C   0  0  0  0  0  0  0  0  0  0  0  0
    6.0419    5.4959   20.7079 C   0  0  0  0  0  0  0  0  0  0  0  0
    6.5119    6.4035   21.6770 O   0  0  0  0  0  0  0  0  0  0  0  0
    4.5687    5.2713   20.9080 C   0  0  0  0  0  0  0  0  0  0  0  0
    3.8642    4.9378   19.5935 C   0  0  0  0  0  0  0  0  0  0  0  0
    7.5003    6.5081   21.5450 H   0  0  0  0  0  0  0  0  0  0  0  0
    3.1976    2.8964   14.2459 C   0  0  0  0  0  0  0  0  0  0  0  0
    3.8416    3.7501   13.3848 C   0  0  0  0  0  0  0  0  0  0  0  0
    3.5568    3.7761   12.0368 C   0  0  0  0  0  0  0  0  0  0  0  0
    2.5895    2.9153   11.5261 C   0  0  0  0  0  0  0  0  0  0  0  0
    2.2821    2.9124   10.2051 F   0  0  0  0  0  0  0  0  0  0  0  0
    1.9525    2.0647   12.4053 C   0  0  0  0  0  0  0  0  0  0  0  0
    1.0104    1.2293   11.8955 F   0  0  0  0  0  0  0  0  0  0  0  0
    2.2268    2.0295   13.7468 C   0  0  0  0  0  0  0  0  0  0  0  0
    2.8864   -0.6522   19.8368 N   0  0  0  0  0  0  0  0  0  0  0  0
    2.2462   -1.4556   19.7425 H   0  0  0  0  0  0  0  0  0  0  0  0
    3.6077   -0.4543   21.0642 C   0  0  0  0  0  0  0  0  0  0  0  0
    2.9442    0.5757   21.9530 C   0  0  0  0  0  0  0  0  0  0  0  0
    5.2623    1.5014   21.8467 C   0  0  0  0  0  0  0  0  0  0  0  0
    3.9102    1.5733   22.5019 C   0  0  0  0  0  0  0  0  0  0  0  0
 30 31  1  0  0  0
 31 29  1  0  0  0
 29 28  1  0  0  0
 28 26  1  0  0  0
 26  1  1  0  0  0
  1  2  2  0  0  0
  2  3  1  0  0  0
  3  4  2  0  0  0
  4  5  1  0  0  0
  5  6  2  0  0  0
  6  7  1  0  0  0
  7 10  1  0  0  0
 10 11  1  0  0  0
 11 12  1  0  0  0
 12 13  1  0  0  0
 13 14  1  0  0  0
 13 15  1  0  0  0
 15 16  1  0  0  0
  7  8  1  0  0  0
  8  9  2  0  0  0
  5 18  1  0  0  0
 18 19  2  0  0  0
 19 20  1  0  0  0
 20 21  2  0  0  0
 21 22  1  0  0  0
 21 23  1  0  0  0
 23 24  1  0  0  0
 23 25  2  0  0  0
  9  1  1  0  0  0
 25 18  1  0  0  0
  8  4  1  0  0  0
 16 10  1  0  0  0
 26 27  1  0  0  0
 14 17  1  0  0  0
M  END
> <minimizedAffinity>
-8.44743

> <CNNscore>
0.9518788457

> <CNNaffinity>
7.5200281143

> <CNN_VS>
7.1581559181

> <CNNaffinity_variance>
0.0688202456

$$$$
[H]OC1([H])C([H])([H])C([H])([H])C([H])(n2c([H])c(-c3c([H])c([H])c(F)c(F)c3[H])c3c([H])nc(N([H])C([H])([H])C([H])([H])C([H])([H])C([H])([H])[H])nc32)C([H])([H])C1([H])[H]


 31 34  0  0  0  0  0  0  0  0999 V2000
    2.8085    2.0022   16.2036 C   0  0  0  0  0  0  0  0  0  0  0  0
    3.0505    1.2187   17.2747 N   0  0  0  0  0  0  0  0  0  0  0  0
    3.5799    1.6300   18.4230 C   0  0  0  0  0  0  0  0  0  0  0  0
    3.9115    2.9791   18.5292 C   0  0  0  0  0  0  0  0  0  0  0  0
    4.4538    3.7529   19.5035 C   0  0  0  0  0  0  0  0  0  0  0  0
    4.5505    5.0286   19.0343 C   0  0  0  0  0  0  0  0  0  0  0  0
    4.0720    5.0503   17.7776 N   0  0  0  0  0  0  0  0  0  0  0  0
    3.6637    3.7940   17.4248 C   0  0  0  0  0  0  0  0  0  0  0  0
    3.1247    3.3070   16.2939 N   0  0  0  0  0  0  0  0  0  0  0  0
    3.9839    6.1893   16.9055 C   0  0  0  0  0  0  0  0  0  0  0  0
    5.1058    7.1856   17.1527 C   0  0  0  0  0  0  0  0  0  0  0  0
    5.0439    8.2344   16.0905 C   0  0  0  0  0  0  0  0  0  0  0  0
    3.7155    8.3227   15.3977 C   0  0  0  0  0  0  0  0  0  0  0  0
    3.8193    9.3602   14.4508 O   0  0  0  0  0  0  0  0  0  0  0  0
    3.4225    7.0289   14.6896 C   0  0  0  0  0  0  0  0  0  0  0  0
    3.9842    5.8285   15.4506 C   0  0  0  0  0  0  0  0  0  0  0  0
    3.9784   10.2154   14.9496 H   0  0  0  0  0  0  0  0  0  0  0  0
    4.8588    3.2906   20.8361 C   0  0  0  0  0  0  0  0  0  0  0  0
    4.2934    3.8274   21.9663 C   0  0  0  0  0  0  0  0  0  0  0  0
    4.6522    3.4085   23.2291 C   0  0  0  0  0  0  0  0  0  0  0  0
    5.6148    2.4131   23.3711 C   0  0  0  0  0  0  0  0  0  0  0  0
    5.9936    1.9753   24.5975 F   0  0  0  0  0  0  0  0  0  0  0  0
    6.1723    1.8853   22.2252 C   0  0  0  0  0  0  0  0  0  0  0  0
    7.1106    0.9147   22.3761 F   0  0  0  0  0  0  0  0  0  0  0  0
    5.8240    2.2932   20.9649 C   0  0  0  0  0  0  0  0  0  0  0  0
    2.2379    1.4313   15.0377 N   0  0  0  0  0  0  0  0  0  0  0  0
    1.6366    0.5982   15.1306 H   0  0  0  0  0  0  0  0  0  0  0  0
    2.4836    1.9931   13.7377 C   0  0  0  0  0  0  0  0  0  0  0  0
    1.2019    2.2184   12.9648 C   0  0  0  0  0  0  0  0  0  0  0  0
    2.6283    1.7448   10.9691 C   0  0  0  0  0  0  0  0  0  0  0  0
    1.2564    1.6614   11.5804 C   0  0  0  0  0  0  0  0  0  0  0  0
 30 31  1  0  0  0
 31 29  1  0  0  0
 29 28  1  0  0  0
 28 26  1  0  0  0
 26  1  1  0  0  0
  1  2  2  0  0  0
  2  3  1  0  0  0
  3  4  2  0  0  0
  4  5  1  0  0  0
  5  6  2  0  0  0
  6  7  1  0  0  0
  7 10  1  0  0  0
 10 11  1  0  0  0
 11 12  1  0  0  0
 12 13  1  0  0  0
 13 14  1  0  0  0
 13 15  1  0  0  0
 15 16  1  0  0  0
  7  8  1  0  0  0
  8  9  2  0  0  0
  5 18  1  0  0  0
 18 19  2  0  0  0
 19 20  1  0  0  0
 20 21  2  0  0  0
 21 22  1  0  0  0
 21 23  1  0  0  0
 23 24  1  0  0  0
 23 25  2  0  0  0
  9  1  1  0  0  0
 25 18  1  0  0  0
  8  4  1  0  0  0
 16 10  1  0  0  0
 26 27  1  0  0  0
 14 17  1  0  0  0
M  END
> <minimizedAffinity>
-7.64320

> <CNNscore>
0.6963761449

> <CNNaffinity>
7.0175566673

> <CNN_VS>
4.8868589401

> <CNNaffinity_variance>
0.2851143777

$$$$
[H]OC1([H])C([H])([H])C([H])([H])C([H])(n2c([H])c(-c3c([H])c([H])c(F)c(F)c3[H])c3c([H])nc(N([H])C([H])([H])C([H])([H])C([H])([H])C([H])([H])[H])nc32)C([H])([H])C1([H])[H]


 31 34  0  0  0  0  0  0  0  0999 V2000
    3.6863    2.3194   15.9949 C   0  0  0  0  0  0  0  0  0  0  0  0
    3.6659    1.5136   17.0766 N   0  0  0  0  0  0  0  0  0  0  0  0
    4.0440    1.8641   18.3023 C   0  0  0  0  0  0  0  0  0  0  0  0
    4.4976    3.1688   18.4848 C   0  0  0  0  0  0  0  0  0  0  0  0
    4.9556    3.8782   19.5474 C   0  0  0  0  0  0  0  0  0  0  0  0
    5.2640    5.1358   19.1230 C   0  0  0  0  0  0  0  0  0  0  0  0
    5.0002    5.2102   17.8064 N   0  0  0  0  0  0  0  0  0  0  0  0
    4.5211    4.0064   17.3699 C   0  0  0  0  0  0  0  0  0  0  0  0
    4.1227    3.5817   16.1585 N   0  0  0  0  0  0  0  0  0  0  0  0
    5.1776    6.3525   16.9522 C   0  0  0  0  0  0  0  0  0  0  0  0
    3.8583    6.8492   16.3821 C   0  0  0  0  0  0  0  0  0  0  0  0
    4.1123    8.1347   15.6642 C   0  0  0  0  0  0  0  0  0  0  0  0
    5.5489    8.3483   15.2862 C   0  0  0  0  0  0  0  0  0  0  0  0
    5.6116    9.5816   14.6088 O   0  0  0  0  0  0  0  0  0  0  0  0
    6.3977    8.4163   16.5255 C   0  0  0  0  0  0  0  0  0  0  0  0
    5.8635    7.5017   17.6272 C   0  0  0  0  0  0  0  0  0  0  0  0
    5.0682    9.4986   13.7703 H   0  0  0  0  0  0  0  0  0  0  0  0
    5.0875    3.3737   20.9192 C   0  0  0  0  0  0  0  0  0  0  0  0
    5.9976    2.3908   21.2204 C   0  0  0  0  0  0  0  0  0  0  0  0
    6.1449    1.9025   22.5005 C   0  0  0  0  0  0  0  0  0  0  0  0
    5.3516    2.4153   23.5229 C   0  0  0  0  0  0  0  0  0  0  0  0
    5.4680    1.9595   24.7950 F   0  0  0  0  0  0  0  0  0  0  0  0
    4.4427    3.4020   23.2024 C   0  0  0  0  0  0  0  0  0  0  0  0
    3.6740    3.8947   24.2083 F   0  0  0  0  0  0  0  0  0  0  0  0
    4.2871    3.8954   21.9342 C   0  0  0  0  0  0  0  0  0  0  0  0
    3.2535    1.8149   14.7423 N   0  0  0  0  0  0  0  0  0  0  0  0
    3.8307    1.1088   14.2601 H   0  0  0  0  0  0  0  0  0  0  0  0
    2.0308    2.2702   14.1393 C   0  0  0  0  0  0  0  0  0  0  0  0
    2.2780    3.0067   12.8404 C   0  0  0  0  0  0  0  0  0  0  0  0
    3.8796    4.9239   12.8074 C   0  0  0  0  0  0  0  0  0  0  0  0
    2.4618    4.4758   13.0351 C   0  0  0  0  0  0  0  0  0  0  0  0
 30 31  1  0  0  0
 31 29  1  0  0  0
 29 28  1  0  0  0
 28 26  1  0  0  0
 26  1  1  0  0  0
  1  2  2  0  0  0
  2  3  1  0  0  0
  3  4  2  0  0  0
  4  5  1  0  0  0
  5  6  2  0  0  0
  6  7  1  0  0  0
  7 10  1  0  0  0
 10 11  1  0  0  0
 11 12  1  0  0  0
 12 13  1  0  0  0
 13 14  1  0  0  0
 13 15  1  0  0  0
 15 16  1  0  0  0
  7  8  1  0  0  0
  8  9  2  0  0  0
  5 18  1  0  0  0
 18 19  2  0  0  0
 19 20  1  0  0  0
 20 21  2  0  0  0
 21 22  1  0  0  0
 21 23  1  0  0  0
 23 24  1  0  0  0
 23 25  2  0  0  0
  9  1  1  0  0  0
 25 18  1  0  0  0
  8  4  1  0  0  0
 16 10  1  0  0  0
 26 27  1  0  0  0
 14 17  1  0  0  0
M  END
> <minimizedAffinity>
-7.85882

> <CNNscore>
0.4187577069

> <CNNaffinity>
6.5143599510

> <CNN_VS>
2.7279384136

> <CNNaffinity_variance>
0.3534916043

$$$$
[H]OC1([H])C([H])([H])C([H])([H])C([H])(n2c([H])c(-c3c([H])c([H])c(F)c(F)c3[H])c3c([H])nc(N([H])C([H])([H])C([H])([H])C([H])([H])C([H])([H])[H])nc32)C([H])([H])C1([H])[H]


 31 34  0  0  0  0  0  0  0  0999 V2000
    4.0960    1.4204   20.1891 C   0  0  0  0  0  0  0  0  0  0  0  0
    3.5937    0.8121   19.0949 N   0  0  0  0  0  0  0  0  0  0  0  0
    3.5196    1.3523   17.8821 C   0  0  0  0  0  0  0  0  0  0  0  0
    3.9997    2.6512   17.7284 C   0  0  0  0  0  0  0  0  0  0  0  0
    4.0932    3.5151   16.6858 C   0  0  0  0  0  0  0  0  0  0  0  0
    4.6582    4.6708   17.1354 C   0  0  0  0  0  0  0  0  0  0  0  0
    4.9151    4.5287   18.4478 N   0  0  0  0  0  0  0  0  0  0  0  0
    4.5201    3.2852   18.8565 C   0  0  0  0  0  0  0  0  0  0  0  0
    4.5625    2.6752   20.0534 N   0  0  0  0  0  0  0  0  0  0  0  0
    5.5095    5.5018   19.3228 C   0  0  0  0  0  0  0  0  0  0  0  0
    6.4419    6.4446   18.5784 C   0  0  0  0  0  0  0  0  0  0  0  0
    6.8657    7.5247   19.5197 C   0  0  0  0  0  0  0  0  0  0  0  0
    6.6877    7.1753   20.9683 C   0  0  0  0  0  0  0  0  0  0  0  0
    7.1471    8.2798   21.7119 O   0  0  0  0  0  0  0  0  0  0  0  0
    5.2309    6.9472   21.2627 C   0  0  0  0  0  0  0  0  0  0  0  0
    4.5043    6.3244   20.0711 C   0  0  0  0  0  0  0  0  0  0  0  0
    8.1264    8.3883   21.5261 H   0  0  0  0  0  0  0  0  0  0  0  0
    3.6640    3.2430   15.3090 C   0  0  0  0  0  0  0  0  0  0  0  0
    2.9530    2.1077   15.0077 C   0  0  0  0  0  0  0  0  0  0  0  0
    2.5340    1.8303   13.7246 C   0  0  0  0  0  0  0  0  0  0  0  0
    2.8367    2.7216   12.6992 C   0  0  0  0  0  0  0  0  0  0  0  0
    2.4414    2.4823   11.4241 F   0  0  0  0  0  0  0  0  0  0  0  0
    3.5517    3.8567   13.0199 C   0  0  0  0  0  0  0  0  0  0  0  0
    3.8413    4.7191   12.0111 F   0  0  0  0  0  0  0  0  0  0  0  0
    3.9735    4.1434   14.2910 C   0  0  0  0  0  0  0  0  0  0  0  0
    4.1144    0.7260   21.4254 N   0  0  0  0  0  0  0  0  0  0  0  0
    4.6221   -0.1698   21.4893 H   0  0  0  0  0  0  0  0  0  0  0  0
    3.4405    1.2488   22.5824 C   0  0  0  0  0  0  0  0  0  0  0  0
    4.4127    1.6800   23.6593 C   0  0  0  0  0  0  0  0  0  0  0  0
    3.5652    4.0055   23.3189 C   0  0  0  0  0  0  0  0  0  0  0  0
    4.7609    3.1297   23.5765 C   0  0  0  0  0  0  0  0  0  0  0  0
 30 31  1  0  0  0
 31 29  1  0  0  0
 29 28  1  0  0  0
 28 26  1  0  0  0
 26  1  1  0  0  0
  1  2  2  0  0  0
  2  3  1  0  0  0
  3  4  2  0  0  0
  4  5  1  0  0  0
  5  6  2  0  0  0
  6  7  1  0  0  0
  7 10  1  0  0  0
 10 11  1  0  0  0
 11 12  1  0  0  0
 12 13  1  0  0  0
 13 14  1  0  0  0
 13 15  1  0  0  0
 15 16  1  0  0  0
  7  8  1  0  0  0
  8  9  2  0  0  0
  5 18  1  0  0  0
 18 19  2  0  0  0
 19 20  1  0  0  0
 20 21  2  0  0  0
 21 22  1  0  0  0
 21 23  1  0  0  0
 23 24  1  0  0  0
 23 25  2  0  0  0
  9  1  1  0  0  0
 25 18  1  0  0  0
  8  4  1  0  0  0
 16 10  1  0  0  0
 26 27  1  0  0  0
 14 17  1  0  0  0
M  END
> <minimizedAffinity>
-8.34927

> <CNNscore>
0.4054893851

> <CNNaffinity>
6.8210768700

> <CNN_VS>
2.7658741474

> <CNNaffinity_variance>
0.2941774726

$$$$
[H]OC1([H])C([H])([H])C([H])([H])C([H])(n2c([H])c(-c3c([H])c([H])c(F)c(F)c3[H])c3c([H])nc(N([H])C([H])([H])C([H])([H])C([H])([H])C([H])([H])[H])nc32)C([H])([H])C1([H])[H]


 31 34  0  0  0  0  0  0  0  0999 V2000
    4.4613    3.3662    9.5519 C   0  0  0  0  0  0  0  0  0  0  0  0
    3.6702    3.1330   10.6193 N   0  0  0  0  0  0  0  0  0  0  0  0
    2.7436    3.9654   11.0847 C   0  0  0  0  0  0  0  0  0  0  0  0
    2.5758    5.1763   10.4163 C   0  0  0  0  0  0  0  0  0  0  0  0
    1.7636    6.2510   10.5818 C   0  0  0  0  0  0  0  0  0  0  0  0
    2.0523    7.1609    9.6093 C   0  0  0  0  0  0  0  0  0  0  0  0
    3.0364    6.6575    8.8433 N   0  0  0  0  0  0  0  0  0  0  0  0
    3.3912    5.4230    9.3120 C   0  0  0  0  0  0  0  0  0  0  0  0
    4.3088    4.5324    8.8982 N   0  0  0  0  0  0  0  0  0  0  0  0
    3.6495    7.2813    7.7028 C   0  0  0  0  0  0  0  0  0  0  0  0
    2.7092    8.2559    7.0112 C   0  0  0  0  0  0  0  0  0  0  0  0
    3.4810    8.9871    5.9615 C   0  0  0  0  0  0  0  0  0  0  0  0
    4.7466    8.2971    5.5438 C   0  0  0  0  0  0  0  0  0  0  0  0
    5.3363    9.0986    4.5470 O   0  0  0  0  0  0  0  0  0  0  0  0
    5.6814    8.1921    6.7169 C   0  0  0  0  0  0  0  0  0  0  0  0
    4.9219    8.0032    8.0296 C   0  0  0  0  0  0  0  0  0  0  0  0
    4.7108    9.1231    3.7637 H   0  0  0  0  0  0  0  0  0  0  0  0
    0.7447    6.3997   11.6275 C   0  0  0  0  0  0  0  0  0  0  0  0
    1.0858    6.8461   12.8803 C   0  0  0  0  0  0  0  0  0  0  0  0
    0.1486    6.9989   13.8789 C   0  0  0  0  0  0  0  0  0  0  0  0
   -1.1841    6.6937   13.6176 C   0  0  0  0  0  0  0  0  0  0  0  0
   -2.1346    6.8314   14.5752 F   0  0  0  0  0  0  0  0  0  0  0  0
   -1.5088    6.2465   12.3540 C   0  0  0  0  0  0  0  0  0  0  0  0
   -2.8123    5.9516   12.1107 F   0  0  0  0  0  0  0  0  0  0  0  0
   -0.5865    6.0906   11.3534 C   0  0  0  0  0  0  0  0  0  0  0  0
    5.4117    2.3884    9.1623 N   0  0  0  0  0  0  0  0  0  0  0  0
    6.1699    2.1385    9.8157 H   0  0  0  0  0  0  0  0  0  0  0  0
    5.3341    1.7454    7.8792 C   0  0  0  0  0  0  0  0  0  0  0  0
    4.9648    0.2824    7.9985 C   0  0  0  0  0  0  0  0  0  0  0  0
    4.6879   -1.1586   10.0206 C   0  0  0  0  0  0  0  0  0  0  0  0
    5.6420   -0.3928    9.1453 C   0  0  0  0  0  0  0  0  0  0  0  0
 30 31  1  0  0  0
 31 29  1  0  0  0
 29 28  1  0  0  0
 28 26  1  0  0  0
 26  1  1  0  0  0
  1  2  2  0  0  0
  2  3  1  0  0  0
  3  4  2  0  0  0
  4  5  1  0  0  0
  5  6  2  0  0  0
  6  7  1  0  0  0
  7 10  1  0  0  0
 10 11  1  0  0  0
 11 12  1  0  0  0
 12 13  1  0  0  0
 13 14  1  0  0  0
 13 15  1  0  0  0
 15 16  1  0  0  0
  7  8  1  0  0  0
  8  9  2  0  0  0
  5 18  1  0  0  0
 18 19  2  0  0  0
 19 20  1  0  0  0
 20 21  2  0  0  0
 21 22  1  0  0  0
 21 23  1  0  0  0
 23 24  1  0  0  0
 23 25  2  0  0  0
  9  1  1  0  0  0
 25 18  1  0  0  0
  8  4  1  0  0  0
 16 10  1  0  0  0
 26 27  1  0  0  0
 14 17  1  0  0  0
M  END
> <minimizedAffinity>
-5.24657

> <CNNscore>
0.4036301374

> <CNNaffinity>
5.7050809860

> <CNN_VS>
2.3027427197

> <CNNaffinity_variance>
0.5102105737

$$$$
[H]OC1([H])C([H])([H])C([H])([H])C([H])(n2c([H])c(-c3c([H])c([H])c(F)c(F)c3[H])c3c([H])nc(N([H])C([H])([H])C([H])([H])C([H])([H])C([H])([H])[H])nc32)C([H])([H])C1([H])[H]


 31 34  0  0  0  0  0  0  0  0999 V2000
    4.3398    2.0183   19.9999 C   0  0  0  0  0  0  0  0  0  0  0  0
    4.0295    1.2390   18.9435 N   0  0  0  0  0  0  0  0  0  0  0  0
    3.7617    1.6787   17.7174 C   0  0  0  0  0  0  0  0  0  0  0  0
    3.8051    3.0552   17.5063 C   0  0  0  0  0  0  0  0  0  0  0  0
    3.5984    3.8614   16.4342 C   0  0  0  0  0  0  0  0  0  0  0  0
    3.7812    5.1533   16.8271 C   0  0  0  0  0  0  0  0  0  0  0  0
    4.0996    5.1528   18.1337 N   0  0  0  0  0  0  0  0  0  0  0  0
    4.1252    3.8659   18.5950 C   0  0  0  0  0  0  0  0  0  0  0  0
    4.3846    3.3495   19.8085 N   0  0  0  0  0  0  0  0  0  0  0  0
    4.3775    6.2981   18.9565 C   0  0  0  0  0  0  0  0  0  0  0  0
    5.8322    6.3449   19.3970 C   0  0  0  0  0  0  0  0  0  0  0  0
    6.0720    7.6493   20.0849 C   0  0  0  0  0  0  0  0  0  0  0  0
    4.8211    8.3206   20.5718 C   0  0  0  0  0  0  0  0  0  0  0  0
    5.2206    9.5133   21.2056 O   0  0  0  0  0  0  0  0  0  0  0  0
    3.9316    8.6497   19.4050 C   0  0  0  0  0  0  0  0  0  0  0  0
    4.0409    7.6018   18.2979 C   0  0  0  0  0  0  0  0  0  0  0  0
    5.7814    9.2657   21.9990 H   0  0  0  0  0  0  0  0  0  0  0  0
    3.2452    3.4123   15.0823 C   0  0  0  0  0  0  0  0  0  0  0  0
    3.9162    3.8944   13.9858 C   0  0  0  0  0  0  0  0  0  0  0  0
    3.6079    3.4862   12.7062 C   0  0  0  0  0  0  0  0  0  0  0  0
    2.5879    2.5592   12.5119 C   0  0  0  0  0  0  0  0  0  0  0  0
    2.2560    2.1341   11.2675 F   0  0  0  0  0  0  0  0  0  0  0  0
    1.9244    2.0858   13.6245 C   0  0  0  0  0  0  0  0  0  0  0  0
    0.9309    1.1817   13.4226 F   0  0  0  0  0  0  0  0  0  0  0  0
    2.2217    2.4836   14.9010 C   0  0  0  0  0  0  0  0  0  0  0  0
    4.6039    1.4159   21.2562 N   0  0  0  0  0  0  0  0  0  0  0  0
    5.4085    0.7765   21.3459 H   0  0  0  0  0  0  0  0  0  0  0  0
    3.7723    1.6815   22.3981 C   0  0  0  0  0  0  0  0  0  0  0  0
    4.4400    2.6189   23.3811 C   0  0  0  0  0  0  0  0  0  0  0  0
    4.5283    5.0443   22.7883 C   0  0  0  0  0  0  0  0  0  0  0  0
    3.7592    3.9450   23.4686 C   0  0  0  0  0  0  0  0  0  0  0  0
 30 31  1  0  0  0
 31 29  1  0  0  0
 29 28  1  0  0  0
 28 26  1  0  0  0
 26  1  1  0  0  0
  1  2  2  0  0  0
  2  3  1  0  0  0
  3  4  2  0  0  0
  4  5  1  0  0  0
  5  6  2  0  0  0
  6  7  1  0  0  0
  7 10  1  0  0  0
 10 11  1  0  0  0
 11 12  1  0  0  0
 12 13  1  0  0  0
 13 14  1  0  0  0
 13 15  1  0  0  0
 15 16  1  0  0  0
  7  8  1  0  0  0
  8  9  2  0  0  0
  5 18  1  0  0  0
 18 19  2  0  0  0
 19 20  1  0  0  0
 20 21  2  0  0  0
 21 22  1  0  0  0
 21 23  1  0  0  0
 23 24  1  0  0  0
 23 25  2  0  0  0
  9  1  1  0  0  0
 25 18  1  0  0  0
  8  4  1  0  0  0
 16 10  1  0  0  0
 26 27  1  0  0  0
 14 17  1  0  0  0
M  END
> <minimizedAffinity>
-8.35671

> <CNNscore>
0.3039810658

> <CNNaffinity>
6.6781282425

> <CNN_VS>
2.0300245285

> <CNNaffinity_variance>
0.4180052876

$$$$
[H]OC1([H])C([H])([H])C([H])([H])C([H])(n2c([H])c(-c3c([H])c([H])c(F)c(F)c3[H])c3c([H])nc(N([H])C([H])([H])C([H])([H])C([H])([H])C([H])([H])[H])nc32)C([H])([H])C1([H])[H]


 31 34  0  0  0  0  0  0  0  0999 V2000
    4.3774    1.9991   20.1359 C   0  0  0  0  0  0  0  0  0  0  0  0
    4.0585    1.1952   19.1006 N   0  0  0  0  0  0  0  0  0  0  0  0
    3.7753    1.6063   17.8682 C   0  0  0  0  0  0  0  0  0  0  0  0
    3.8109    2.9779   17.6259 C   0  0  0  0  0  0  0  0  0  0  0  0
    3.5891    3.7592   16.5384 C   0  0  0  0  0  0  0  0  0  0  0  0
    3.7711    5.0602   16.9004 C   0  0  0  0  0  0  0  0  0  0  0  0
    4.1040    5.0901   18.2030 N   0  0  0  0  0  0  0  0  0  0  0  0
    4.1399    3.8140   18.6926 C   0  0  0  0  0  0  0  0  0  0  0  0
    4.4148    3.3258   19.9143 N   0  0  0  0  0  0  0  0  0  0  0  0
    4.3865    6.2545   18.9969 C   0  0  0  0  0  0  0  0  0  0  0  0
    5.8458    6.3168   19.4196 C   0  0  0  0  0  0  0  0  0  0  0  0
    6.0879    7.6372   20.0755 C   0  0  0  0  0  0  0  0  0  0  0  0
    4.8399    8.3143   20.5616 C   0  0  0  0  0  0  0  0  0  0  0  0
    5.2416    9.5224   21.1641 O   0  0  0  0  0  0  0  0  0  0  0  0
    3.9358    8.6138   19.3980 C   0  0  0  0  0  0  0  0  0  0  0  0
    4.0369    7.5420   18.3133 C   0  0  0  0  0  0  0  0  0  0  0  0
    5.8124    9.2948   21.9563 H   0  0  0  0  0  0  0  0  0  0  0  0
    3.2228    3.2787   15.2010 C   0  0  0  0  0  0  0  0  0  0  0  0
    2.2692    2.3035   15.0432 C   0  0  0  0  0  0  0  0  0  0  0  0
    1.9034    1.8377   13.7990 C   0  0  0  0  0  0  0  0  0  0  0  0
    2.5138    2.3658   12.6650 C   0  0  0  0  0  0  0  0  0  0  0  0
    2.1800    1.9323   11.4240 F   0  0  0  0  0  0  0  0  0  0  0  0
    3.4695    3.3444   12.8421 C   0  0  0  0  0  0  0  0  0  0  0  0
    4.0584    3.8523   11.7283 F   0  0  0  0  0  0  0  0  0  0  0  0
    3.8415    3.8156   14.0732 C   0  0  0  0  0  0  0  0  0  0  0  0
    4.6578    1.4258   21.4023 N   0  0  0  0  0  0  0  0  0  0  0  0
    5.4766    0.8061   21.5014 H   0  0  0  0  0  0  0  0  0  0  0  0
    3.8234    1.6941   22.5414 C   0  0  0  0  0  0  0  0  0  0  0  0
    4.4602    2.6862   23.4908 C   0  0  0  0  0  0  0  0  0  0  0  0
    4.4928    5.0866   22.7989 C   0  0  0  0  0  0  0  0  0  0  0  0
    3.7467    3.9976   23.5202 C   0  0  0  0  0  0  0  0  0  0  0  0
 30 31  1  0  0  0
 31 29  1  0  0  0
 29 28  1  0  0  0
 28 26  1  0  0  0
 26  1  1  0  0  0
  1  2  2  0  0  0
  2  3  1  0  0  0
  3  4  2  0  0  0
  4  5  1  0  0  0
  5  6  2  0  0  0
  6  7  1  0  0  0
  7 10  1  0  0  0
 10 11  1  0  0  0
 11 12  1  0  0  0
 12 13  1  0  0  0
 13 14  1  0  0  0
 13 15  1  0  0  0
 15 16  1  0  0  0
  7  8  1  0  0  0
  8  9  2  0  0  0
  5 18  1  0  0  0
 18 19  2  0  0  0
 19 20  1  0  0  0
 20 21  2  0  0  0
 21 22  1  0  0  0
 21 23  1  0  0  0
 23 24  1  0  0  0
 23 25  2  0  0  0
  9  1  1  0  0  0
 25 18  1  0  0  0
  8  4  1  0  0  0
 16 10  1  0  0  0
 26 27  1  0  0  0
 14 17  1  0  0  0
M  END
> <minimizedAffinity>
-8.35908

> <CNNscore>
0.2938466370

> <CNNaffinity>
6.7663450241

> <CNN_VS>
1.9882677794

> <CNNaffinity_variance>
0.4073158205

$$$$
[H]OC1([H])C([H])([H])C([H])([H])C([H])(n2c([H])c(-c3c([H])c([H])c(F)c(F)c3[H])c3c([H])nc(N([H])C([H])([H])C([H])([H])C([H])([H])C([H])([H])[H])nc32)C([H])([H])C1([H])[H]


 31 34  0  0  0  0  0  0  0  0999 V2000
    4.3818    1.8052   19.1601 C   0  0  0  0  0  0  0  0  0  0  0  0
    3.9733    1.3303   17.9654 N   0  0  0  0  0  0  0  0  0  0  0  0
    3.6757    2.0745   16.9044 C   0  0  0  0  0  0  0  0  0  0  0  0
    3.7955    3.4563   17.0366 C   0  0  0  0  0  0  0  0  0  0  0  0
    3.5892    4.5136   16.2110 C   0  0  0  0  0  0  0  0  0  0  0  0
    3.8713    5.6560   16.8981 C   0  0  0  0  0  0  0  0  0  0  0  0
    4.2508    5.3140   18.1421 N   0  0  0  0  0  0  0  0  0  0  0  0
    4.2173    3.9531   18.2696 C   0  0  0  0  0  0  0  0  0  0  0  0
    4.5011    3.1382   19.3001 N   0  0  0  0  0  0  0  0  0  0  0  0
    4.6389    6.2028   19.2029 C   0  0  0  0  0  0  0  0  0  0  0  0
    4.3236    7.6539   18.8756 C   0  0  0  0  0  0  0  0  0  0  0  0
    4.5865    8.4771   20.0944 C   0  0  0  0  0  0  0  0  0  0  0  0
    5.4871    7.8140   21.0952 C   0  0  0  0  0  0  0  0  0  0  0  0
    5.6463    8.7203   22.1616 O   0  0  0  0  0  0  0  0  0  0  0  0
    4.8439    6.5536   21.6039 C   0  0  0  0  0  0  0  0  0  0  0  0
    4.0102    5.8682   20.5218 C   0  0  0  0  0  0  0  0  0  0  0  0
    6.1086    9.5353   21.8046 H   0  0  0  0  0  0  0  0  0  0  0  0
    3.1447    4.4339   14.8146 C   0  0  0  0  0  0  0  0  0  0  0  0
    4.0169    4.0629   13.8212 C   0  0  0  0  0  0  0  0  0  0  0  0
    3.6246    3.9758   12.5032 C   0  0  0  0  0  0  0  0  0  0  0  0
    2.3080    4.2710   12.1612 C   0  0  0  0  0  0  0  0  0  0  0  0
    1.8854    4.1965   10.8746 F   0  0  0  0  0  0  0  0  0  0  0  0
    1.4457    4.6420   13.1716 C   0  0  0  0  0  0  0  0  0  0  0  0
    0.1634    4.9278   12.8259 F   0  0  0  0  0  0  0  0  0  0  0  0
    1.8236    4.7321   14.4850 C   0  0  0  0  0  0  0  0  0  0  0  0
    4.6668    0.8962   20.2105 N   0  0  0  0  0  0  0  0  0  0  0  0
    4.4478   -0.1036   20.0810 H   0  0  0  0  0  0  0  0  0  0  0  0
    5.2523    1.3449   21.4442 C   0  0  0  0  0  0  0  0  0  0  0  0
    4.2053    1.8057   22.4352 C   0  0  0  0  0  0  0  0  0  0  0  0
    3.4770    3.8502   23.6727 C   0  0  0  0  0  0  0  0  0  0  0  0
    4.6342    3.0064   23.2125 C   0  0  0  0  0  0  0  0  0  0  0  0
 30 31  1  0  0  0
 31 29  1  0  0  0
 29 28  1  0  0  0
 28 26  1  0  0  0
 26  1  1  0  0  0
  1  2  2  0  0  0
  2  3  1  0  0  0
  3  4  2  0  0  0
  4  5  1  0  0  0
  5  6  2  0  0  0
  6  7  1  0  0  0
  7 10  1  0  0  0
 10 11  1  0  0  0
 11 12  1  0  0  0
 12 13  1  0  0  0
 13 14  1  0  0  0
 13 15  1  0  0  0
 15 16  1  0  0  0
  7  8  1  0  0  0
  8  9  2  0  0  0
  5 18  1  0  0  0
 18 19  2  0  0  0
 19 20  1  0  0  0
 20 21  2  0  0  0
 21 22  1  0  0  0
 21 23  1  0  0  0
 23 24  1  0  0  0
 23 25  2  0  0  0
  9  1  1  0  0  0
 25 18  1  0  0  0
  8  4  1  0  0  0
 16 10  1  0  0  0
 26 27  1  0  0  0
 14 17  1  0  0  0
M  END
> <minimizedAffinity>
-7.71146

> <CNNscore>
0.2905291021

> <CNNaffinity>
6.6094408035

> <CNN_VS>
1.9202349186

> <CNNaffinity_variance>
0.3892402053

$$$$
[H]OC1([H])C([H])([H])C([H])([H])C([H])(n2c([H])c(-c3c([H])c([H])c(F)c(F)c3[H])c3c([H])nc(N([H])C([H])([H])C([H])([H])C([H])([H])C([H])([H])[H])nc32)C([H])([H])C1([H])[H]


 31 34  0  0  0  0  0  0  0  0999 V2000
    4.0562    1.9551   17.9733 C   0  0  0  0  0  0  0  0  0  0  0  0
    3.5926    1.4191   16.8255 N   0  0  0  0  0  0  0  0  0  0  0  0
    3.3890    2.0866   15.6937 C   0  0  0  0  0  0  0  0  0  0  0  0
    3.6778    3.4496   15.6924 C   0  0  0  0  0  0  0  0  0  0  0  0
    3.6033    4.4383   14.7656 C   0  0  0  0  0  0  0  0  0  0  0  0
    4.0237    5.5994   15.3418 C   0  0  0  0  0  0  0  0  0  0  0  0
    4.3580    5.3369   16.6177 N   0  0  0  0  0  0  0  0  0  0  0  0
    4.1574    4.0094   16.8765 C   0  0  0  0  0  0  0  0  0  0  0  0
    4.3386    3.2707   17.9846 N   0  0  0  0  0  0  0  0  0  0  0  0
    4.8524    6.2710   17.5918 C   0  0  0  0  0  0  0  0  0  0  0  0
    5.6081    7.4220   16.9465 C   0  0  0  0  0  0  0  0  0  0  0  0
    5.9220    8.4287   18.0050 C   0  0  0  0  0  0  0  0  0  0  0  0
    5.8636    7.8828   19.4018 C   0  0  0  0  0  0  0  0  0  0  0  0
    6.1999    8.9426   20.2664 O   0  0  0  0  0  0  0  0  0  0  0  0
    4.4683    7.4131   19.7079 C   0  0  0  0  0  0  0  0  0  0  0  0
    3.7795    6.8426   18.4688 C   0  0  0  0  0  0  0  0  0  0  0  0
    7.1446    9.2128   20.0669 H   0  0  0  0  0  0  0  0  0  0  0  0
    3.1526    4.2773   13.3782 C   0  0  0  0  0  0  0  0  0  0  0  0
    1.8138    4.2437   13.0754 C   0  0  0  0  0  0  0  0  0  0  0  0
    1.3637    4.0980   11.7812 C   0  0  0  0  0  0  0  0  0  0  0  0
    2.2866    3.9806   10.7458 C   0  0  0  0  0  0  0  0  0  0  0  0
    1.8813    3.8356    9.4597 F   0  0  0  0  0  0  0  0  0  0  0  0
    3.6272    4.0162   11.0682 C   0  0  0  0  0  0  0  0  0  0  0  0
    4.5186    3.9006   10.0497 F   0  0  0  0  0  0  0  0  0  0  0  0
    4.0869    4.1606   12.3503 C   0  0  0  0  0  0  0  0  0  0  0  0
    4.2271    1.1253   19.1105 N   0  0  0  0  0  0  0  0  0  0  0  0
    4.4495    0.1273   18.9734 H   0  0  0  0  0  0  0  0  0  0  0  0
    4.0958    1.6512   20.4416 C   0  0  0  0  0  0  0  0  0  0  0  0
    3.4000    0.6794   21.3702 C   0  0  0  0  0  0  0  0  0  0  0  0
    4.1195    2.4367   22.9938 C   0  0  0  0  0  0  0  0  0  0  0  0
    3.5024    1.0778   22.8057 C   0  0  0  0  0  0  0  0  0  0  0  0
 30 31  1  0  0  0
 31 29  1  0  0  0
 29 28  1  0  0  0
 28 26  1  0  0  0
 26  1  1  0  0  0
  1  2  2  0  0  0
  2  3  1  0  0  0
  3  4  2  0  0  0
  4  5  1  0  0  0
  5  6  2  0  0  0
  6  7  1  0  0  0
  7 10  1  0  0  0
 10 11  1  0  0  0
 11 12  1  0  0  0
 12 13  1  0  0  0
 13 14  1  0  0  0
 13 15  1  0  0  0
 15 16  1  0  0  0
  7  8  1  0  0  0
  8  9  2  0  0  0
  5 18  1  0  0  0
 18 19  2  0  0  0
 19 20  1  0  0  0
 20 21  2  0  0  0
 21 22  1  0  0  0
 21 23  1  0  0  0
 23 24  1  0  0  0
 23 25  2  0  0  0
  9  1  1  0  0  0
 25 18  1  0  0  0
  8  4  1  0  0  0
 16 10  1  0  0  0
 26 27  1  0  0  0
 14 17  1  0  0  0
M  END
> <minimizedAffinity>
-6.79792

> <CNNscore>
0.2811821103

> <CNNaffinity>
6.4663133621

> <CNN_VS>
1.8182116747

> <CNNaffinity_variance>
0.4642012715

$$$$
[H]O[C@]1([H])C([H])([H])C([H])([H])[C@@]([H])(N([H])c2nc(N([H])C([H])([H])C([H])([H])C([H])([H])C([H])([H])[H])nc([H])c2C(=O)N([H])c2c([H])c(OC([H])([H])[H])c([H])c([H])c2OC([H])([H])[H])C([H])([H])C1([H])[H]


 36 38  0  0  0  0  0  0  0  0999 V2000
    2.9743    0.1016   18.9296 C   0  0  0  0  0  0  0  0  0  0  0  0
    2.3319   -0.3290   17.8455 N   0  0  0  0  0  0  0  0  0  0  0  0
    2.4095    0.3329   16.6550 C   0  0  0  0  0  0  0  0  0  0  0  0
    3.1632    1.4844   16.5259 C   0  0  0  0  0  0  0  0  0  0  0  0
    3.8190    1.9210   17.6393 C   0  0  0  0  0  0  0  0  0  0  0  0
    3.6980    1.2067   18.8077 N   0  0  0  0  0  0  0  0  0  0  0  0
    3.2518    2.1831   15.2548 C   0  0  0  0  0  0  0  0  0  0  0  0
    4.1838    2.9826   15.0187 O   0  0  0  0  0  0  0  0  0  0  0  0
    2.3018    1.9901   14.2488 N   0  0  0  0  0  0  0  0  0  0  0  0
    1.5207    1.3059   14.4799 H   0  0  0  0  0  0  0  0  0  0  0  0
    2.2135    2.5636   12.9663 C   0  0  0  0  0  0  0  0  0  0  0  0
    2.6065    1.9603   11.7978 C   0  0  0  0  0  0  0  0  0  0  0  0
    2.5056    2.5531   10.5407 C   0  0  0  0  0  0  0  0  0  0  0  0
    1.9771    3.8215   10.4856 C   0  0  0  0  0  0  0  0  0  0  0  0
    1.5732    4.4540   11.6412 C   0  0  0  0  0  0  0  0  0  0  0  0
    1.6800    3.8533   12.8769 C   0  0  0  0  0  0  0  0  0  0  0  0
    2.9050    1.9370    9.3680 O   0  0  0  0  0  0  0  0  0  0  0  0
    2.5610    0.5856    9.1344 C   0  0  0  0  0  0  0  0  0  0  0  0
    1.2501    4.5598   13.9914 O   0  0  0  0  0  0  0  0  0  0  0  0
    1.8519    5.7604   14.3695 C   0  0  0  0  0  0  0  0  0  0  0  0
    2.8578   -0.6318   20.1404 N   0  0  0  0  0  0  0  0  0  0  0  0
    2.1344   -1.3796   20.1599 H   0  0  0  0  0  0  0  0  0  0  0  0
    3.6648   -0.3885   21.2801 C   0  0  0  0  0  0  0  0  0  0  0  0
    3.3536    0.7942   22.1178 C   0  0  0  0  0  0  0  0  0  0  0  0
    5.7558    1.3948   21.7585 C   0  0  0  0  0  0  0  0  0  0  0  0
    4.4170    1.8084   22.3003 C   0  0  0  0  0  0  0  0  0  0  0  0
    4.6294    3.0921   17.6760 N   0  0  0  0  0  0  0  0  0  0  0  0
    5.4498    3.3163   17.1284 H   0  0  0  0  0  0  0  0  0  0  0  0
    4.2207    4.1261   18.6451 C   0  0  0  0  0  0  0  0  0  0  0  0
    5.2580    4.3741   19.6923 C   0  0  0  0  0  0  0  0  0  0  0  0
    5.6987    5.8212   19.6248 C   0  0  0  0  0  0  0  0  0  0  0  0
    4.5278    6.7657   19.7350 C   0  0  0  0  0  0  0  0  0  0  0  0
    4.1461    6.7884   21.0952 O   0  0  0  0  0  0  0  0  0  0  0  0
    3.3632    6.3808   18.8773 C   0  0  0  0  0  0  0  0  0  0  0  0
    3.8344    5.3543   17.8688 C   0  0  0  0  0  0  0  0  0  0  0  0
    4.8081    7.3643   21.5582 H   0  0  0  0  0  0  0  0  0  0  0  0
 25 26  1  0  0  0
 26 24  1  0  0  0
 24 23  1  0  0  0
 23 21  1  0  0  0
 21  1  1  0  0  0
  1  2  2  0  0  0
  2  3  1  0  0  0
  3  4  2  0  0  0
  4  7  1  0  0  0
  7  8  2  0  0  0
  7  9  1  0  0  0
  9 11  1  0  0  0
 11 12  2  0  0  0
 12 13  1  0  0  0
 13 17  1  0  0  0
 17 18  1  0  0  0
 13 14  2  0  0  0
 14 15  1  0  0  0
 15 16  2  0  0  0
 16 19  1  0  0  0
 19 20  1  0  0  0
  4  5  1  0  0  0
  5 27  1  0  0  0
 27 29  1  0  0  0
 29 30  1  0  0  0
 30 31  1  0  0  0
 31 32  1  0  0  0
 32 33  1  0  0  0
 32 34  1  0  0  0
 34 35  1  0  0  0
  5  6  2  0  0  0
  6  1  1  0  0  0
 16 11  1  0  0  0
 35 29  1  0  0  0
 21 22  1  0  0  0
  9 10  1  0  0  0
 27 28  1  0  0  0
 33 36  1  0  0  0
M  END
> <minimizedAffinity>
-7.57248

> <CNNscore>
0.9650760293

> <CNNaffinity>
7.2303953171

> <CNN_VS>
6.9778814316

> <CNNaffinity_variance>
0.0987568572

$$$$
[H]O[C@]1([H])C([H])([H])C([H])([H])[C@@]([H])(N([H])c2nc(N([H])C([H])([H])C([H])([H])C([H])([H])C([H])([H])[H])nc([H])c2C(=O)N([H])c2c([H])c(OC([H])([H])[H])c([H])c([H])c2OC([H])([H])[H])C([H])([H])C1([H])[H]


 36 38  0  0  0  0  0  0  0  0999 V2000
    3.0035    0.4418   18.3488 C   0  0  0  0  0  0  0  0  0  0  0  0
    2.2215    0.3748   17.2730 N   0  0  0  0  0  0  0  0  0  0  0  0
    2.2219    1.3542   16.3233 C   0  0  0  0  0  0  0  0  0  0  0  0
    3.0397    2.4625   16.4406 C   0  0  0  0  0  0  0  0  0  0  0  0
    3.8385    2.5260   17.5443 C   0  0  0  0  0  0  0  0  0  0  0  0
    3.7889    1.5048   18.4633 N   0  0  0  0  0  0  0  0  0  0  0  0
    3.0453    3.5004   15.4235 C   0  0  0  0  0  0  0  0  0  0  0  0
    4.0487    3.6964   14.7036 O   0  0  0  0  0  0  0  0  0  0  0  0
    1.9330    4.3184   15.2103 N   0  0  0  0  0  0  0  0  0  0  0  0
    1.0961    4.1287   15.8389 H   0  0  0  0  0  0  0  0  0  0  0  0
    1.7431    5.3639   14.2870 C   0  0  0  0  0  0  0  0  0  0  0  0
    2.0467    6.6839   14.5085 C   0  0  0  0  0  0  0  0  0  0  0  0
    1.8485    7.6982   13.5736 C   0  0  0  0  0  0  0  0  0  0  0  0
    1.3150    7.3364   12.3589 C   0  0  0  0  0  0  0  0  0  0  0  0
    0.9997    6.0192   12.1058 C   0  0  0  0  0  0  0  0  0  0  0  0
    1.2020    5.0281   13.0418 C   0  0  0  0  0  0  0  0  0  0  0  0
    2.1573    9.0267   13.8063 O   0  0  0  0  0  0  0  0  0  0  0  0
    3.4797    9.3881   14.1525 C   0  0  0  0  0  0  0  0  0  0  0  0
    0.8569    3.7263   12.7069 O   0  0  0  0  0  0  0  0  0  0  0  0
    1.6329    2.9703   11.8277 C   0  0  0  0  0  0  0  0  0  0  0  0
    2.9615   -0.6104   19.3020 N   0  0  0  0  0  0  0  0  0  0  0  0
    3.1232   -1.5714   18.9369 H   0  0  0  0  0  0  0  0  0  0  0  0
    2.7167   -0.4024   20.6827 C   0  0  0  0  0  0  0  0  0  0  0  0
    3.7713    0.2582   21.4881 C   0  0  0  0  0  0  0  0  0  0  0  0
    4.4796    1.8831   23.2540 C   0  0  0  0  0  0  0  0  0  0  0  0
    3.3502    1.2983   22.4544 C   0  0  0  0  0  0  0  0  0  0  0  0
    4.7314    3.6020   17.8180 N   0  0  0  0  0  0  0  0  0  0  0  0
    5.6177    3.8206   17.3822 H   0  0  0  0  0  0  0  0  0  0  0  0
    4.3107    4.5308   18.8836 C   0  0  0  0  0  0  0  0  0  0  0  0
    4.9102    4.1924   20.2103 C   0  0  0  0  0  0  0  0  0  0  0  0
    5.7426    5.3610   20.6941 C   0  0  0  0  0  0  0  0  0  0  0  0
    4.9413    6.6385   20.7301 C   0  0  0  0  0  0  0  0  0  0  0  0
    4.1072    6.5672   21.8683 O   0  0  0  0  0  0  0  0  0  0  0  0
    4.1196    6.8667   19.5001 C   0  0  0  0  0  0  0  0  0  0  0  0
    4.6122    5.9283   18.4186 C   0  0  0  0  0  0  0  0  0  0  0  0
    4.6867    6.7676   22.6483 H   0  0  0  0  0  0  0  0  0  0  0  0
 25 26  1  0  0  0
 26 24  1  0  0  0
 24 23  1  0  0  0
 23 21  1  0  0  0
 21  1  1  0  0  0
  1  2  2  0  0  0
  2  3  1  0  0  0
  3  4  2  0  0  0
  4  7  1  0  0  0
  7  8  2  0  0  0
  7  9  1  0  0  0
  9 11  1  0  0  0
 11 12  2  0  0  0
 12 13  1  0  0  0
 13 17  1  0  0  0
 17 18  1  0  0  0
 13 14  2  0  0  0
 14 15  1  0  0  0
 15 16  2  0  0  0
 16 19  1  0  0  0
 19 20  1  0  0  0
  4  5  1  0  0  0
  5 27  1  0  0  0
 27 29  1  0  0  0
 29 30  1  0  0  0
 30 31  1  0  0  0
 31 32  1  0  0  0
 32 33  1  0  0  0
 32 34  1  0  0  0
 34 35  1  0  0  0
  5  6  2  0  0  0
  6  1  1  0  0  0
 16 11  1  0  0  0
 35 29  1  0  0  0
 21 22  1  0  0  0
  9 10  1  0  0  0
 27 28  1  0  0  0
 33 36  1  0  0  0
M  END
> <minimizedAffinity>
-7.56899

> <CNNscore>
0.5977410078

> <CNNaffinity>
6.8428511620

> <CNN_VS>
4.0902528763

> <CNNaffinity_variance>
0.2701594234

$$$$
[H]O[C@]1([H])C([H])([H])C([H])([H])[C@@]([H])(N([H])c2nc(N([H])C([H])([H])C([H])([H])C([H])([H])C([H])([H])[H])nc([H])c2C(=O)N([H])c2c([H])c(OC([H])([H])[H])c([H])c([H])c2OC([H])([H])[H])C([H])([H])C1([H])[H]


 36 38  0  0  0  0  0  0  0  0999 V2000
    3.0448    0.7662   17.8902 C   0  0  0  0  0  0  0  0  0  0  0  0
    2.3376    0.8293   16.7637 N   0  0  0  0  0  0  0  0  0  0  0  0
    2.4531    1.8805   15.9017 C   0  0  0  0  0  0  0  0  0  0  0  0
    3.3148    2.9287   16.1651 C   0  0  0  0  0  0  0  0  0  0  0  0
    4.0367    2.8590   17.3203 C   0  0  0  0  0  0  0  0  0  0  0  0
    3.8723    1.7714   18.1449 N   0  0  0  0  0  0  0  0  0  0  0  0
    3.4432    4.0432   15.2414 C   0  0  0  0  0  0  0  0  0  0  0  0
    4.0933    3.9324   14.1790 O   0  0  0  0  0  0  0  0  0  0  0  0
    2.8473    5.2794   15.5029 N   0  0  0  0  0  0  0  0  0  0  0  0
    2.3029    5.3432   16.4146 H   0  0  0  0  0  0  0  0  0  0  0  0
    2.8539    6.4651   14.7441 C   0  0  0  0  0  0  0  0  0  0  0  0
    3.9253    7.3110   14.6019 C   0  0  0  0  0  0  0  0  0  0  0  0
    3.9025    8.4789   13.8419 C   0  0  0  0  0  0  0  0  0  0  0  0
    2.7256    8.7877   13.2012 C   0  0  0  0  0  0  0  0  0  0  0  0
    1.6321    7.9585   13.3242 C   0  0  0  0  0  0  0  0  0  0  0  0
    1.6714    6.8069   14.0801 C   0  0  0  0  0  0  0  0  0  0  0  0
    4.9880    9.3259   13.7049 O   0  0  0  0  0  0  0  0  0  0  0  0
    6.2500    8.7956   13.3511 C   0  0  0  0  0  0  0  0  0  0  0  0
    0.5255    6.0273   14.1519 O   0  0  0  0  0  0  0  0  0  0  0  0
   -0.6590    6.4140   13.5241 C   0  0  0  0  0  0  0  0  0  0  0  0
    2.8840   -0.3554   18.7469 N   0  0  0  0  0  0  0  0  0  0  0  0
    2.9637   -1.2924   18.3012 H   0  0  0  0  0  0  0  0  0  0  0  0
    2.6289   -0.2446   20.1368 C   0  0  0  0  0  0  0  0  0  0  0  0
    3.7693   -0.3974   21.0714 C   0  0  0  0  0  0  0  0  0  0  0  0
    5.8954    0.9185   21.1660 C   0  0  0  0  0  0  0  0  0  0  0  0
    4.4436    0.8338   21.5429 C   0  0  0  0  0  0  0  0  0  0  0  0
    4.9607    3.8584   17.7413 N   0  0  0  0  0  0  0  0  0  0  0  0
    5.8952    4.0452   17.4022 H   0  0  0  0  0  0  0  0  0  0  0  0
    4.4962    4.7485   18.8216 C   0  0  0  0  0  0  0  0  0  0  0  0
    5.0965    4.4054   20.1467 C   0  0  0  0  0  0  0  0  0  0  0  0
    5.8802    5.5941   20.6620 C   0  0  0  0  0  0  0  0  0  0  0  0
    5.0312    6.8398   20.7164 C   0  0  0  0  0  0  0  0  0  0  0  0
    4.1904    6.7138   21.8450 O   0  0  0  0  0  0  0  0  0  0  0  0
    4.2121    7.0624   19.4836 C   0  0  0  0  0  0  0  0  0  0  0  0
    4.7490    6.1657   18.3880 C   0  0  0  0  0  0  0  0  0  0  0  0
    4.7552    6.9195   22.6343 H   0  0  0  0  0  0  0  0  0  0  0  0
 25 26  1  0  0  0
 26 24  1  0  0  0
 24 23  1  0  0  0
 23 21  1  0  0  0
 21  1  1  0  0  0
  1  2  2  0  0  0
  2  3  1  0  0  0
  3  4  2  0  0  0
  4  7  1  0  0  0
  7  8  2  0  0  0
  7  9  1  0  0  0
  9 11  1  0  0  0
 11 12  2  0  0  0
 12 13  1  0  0  0
 13 17  1  0  0  0
 17 18  1  0  0  0
 13 14  2  0  0  0
 14 15  1  0  0  0
 15 16  2  0  0  0
 16 19  1  0  0  0
 19 20  1  0  0  0
  4  5  1  0  0  0
  5 27  1  0  0  0
 27 29  1  0  0  0
 29 30  1  0  0  0
 30 31  1  0  0  0
 31 32  1  0  0  0
 32 33  1  0  0  0
 32 34  1  0  0  0
 34 35  1  0  0  0
  5  6  2  0  0  0
  6  1  1  0  0  0
 16 11  1  0  0  0
 35 29  1  0  0  0
 21 22  1  0  0  0
  9 10  1  0  0  0
 27 28  1  0  0  0
 33 36  1  0  0  0
M  END
> <minimizedAffinity>
-7.55611

> <CNNscore>
0.3390005231

> <CNNaffinity>
6.4811453819

> <CNN_VS>
2.1971116066

> <CNNaffinity_variance>
0.2387958467

$$$$
[H]O[C@]1([H])C([H])([H])C([H])([H])[C@@]([H])(N([H])c2nc(N([H])C([H])([H])C([H])([H])C([H])([H])C([H])([H])[H])nc([H])c2C(=O)N([H])c2c([H])c(OC([H])([H])[H])c([H])c([H])c2OC([H])([H])[H])C([H])([H])C1([H])[H]


 36 38  0  0  0  0  0  0  0  0999 V2000
    3.8425    1.7094   18.6618 C   0  0  0  0  0  0  0  0  0  0  0  0
    4.2774    2.9133   19.0288 N   0  0  0  0  0  0  0  0  0  0  0  0
    3.9470    4.0389   18.3323 C   0  0  0  0  0  0  0  0  0  0  0  0
    3.1420    3.9740   17.2104 C   0  0  0  0  0  0  0  0  0  0  0  0
    2.6994    2.7384   16.8389 C   0  0  0  0  0  0  0  0  0  0  0  0
    3.0700    1.6450   17.5852 N   0  0  0  0  0  0  0  0  0  0  0  0
    2.7837    5.1750   16.4750 C   0  0  0  0  0  0  0  0  0  0  0  0
    1.5917    5.5363   16.3657 O   0  0  0  0  0  0  0  0  0  0  0  0
    3.7542    5.9715   15.8621 N   0  0  0  0  0  0  0  0  0  0  0  0
    4.7584    5.6375   15.9711 H   0  0  0  0  0  0  0  0  0  0  0  0
    3.6121    7.1567   15.1159 C   0  0  0  0  0  0  0  0  0  0  0  0
    3.2628    7.2234   13.7903 C   0  0  0  0  0  0  0  0  0  0  0  0
    3.1284    8.4132   13.0773 C   0  0  0  0  0  0  0  0  0  0  0  0
    3.3639    9.5837   13.7596 C   0  0  0  0  0  0  0  0  0  0  0  0
    3.7161    9.5500   15.0912 C   0  0  0  0  0  0  0  0  0  0  0  0
    3.8449    8.3643   15.7818 C   0  0  0  0  0  0  0  0  0  0  0  0
    2.7762    8.4705   11.7404 O   0  0  0  0  0  0  0  0  0  0  0  0
    2.9262    7.3239   10.9268 C   0  0  0  0  0  0  0  0  0  0  0  0
    4.2037    8.4186   17.1213 O   0  0  0  0  0  0  0  0  0  0  0  0
    5.4568    8.8836   17.5215 C   0  0  0  0  0  0  0  0  0  0  0  0
    4.2176    0.5742   19.4287 N   0  0  0  0  0  0  0  0  0  0  0  0
    4.0030   -0.3555   19.0132 H   0  0  0  0  0  0  0  0  0  0  0  0
    4.8516    0.6624   20.6934 C   0  0  0  0  0  0  0  0  0  0  0  0
    3.9957    0.7203   21.9023 C   0  0  0  0  0  0  0  0  0  0  0  0
    4.5438    2.2297   23.8211 C   0  0  0  0  0  0  0  0  0  0  0  0
    3.7877    2.0422   22.5366 C   0  0  0  0  0  0  0  0  0  0  0  0
    1.8703    2.4992   15.7053 N   0  0  0  0  0  0  0  0  0  0  0  0
    0.9771    2.0268   15.6579 H   0  0  0  0  0  0  0  0  0  0  0  0
    2.3788    3.0093   14.4183 C   0  0  0  0  0  0  0  0  0  0  0  0
    3.1730    1.9885   13.6692 C   0  0  0  0  0  0  0  0  0  0  0  0
    2.5126    1.7256   12.3323 C   0  0  0  0  0  0  0  0  0  0  0  0
    2.3191    2.9987   11.5467 C   0  0  0  0  0  0  0  0  0  0  0  0
    3.5826    3.3531   11.0228 O   0  0  0  0  0  0  0  0  0  0  0  0
    1.7610    4.1258   12.3580 C   0  0  0  0  0  0  0  0  0  0  0  0
    1.2092    3.5554   13.6476 C   0  0  0  0  0  0  0  0  0  0  0  0
    3.7368    2.7556   10.2459 H   0  0  0  0  0  0  0  0  0  0  0  0
 25 26  1  0  0  0
 26 24  1  0  0  0
 24 23  1  0  0  0
 23 21  1  0  0  0
 21  1  1  0  0  0
  1  2  2  0  0  0
  2  3  1  0  0  0
  3  4  2  0  0  0
  4  7  1  0  0  0
  7  8  2  0  0  0
  7  9  1  0  0  0
  9 11  1  0  0  0
 11 12  2  0  0  0
 12 13  1  0  0  0
 13 17  1  0  0  0
 17 18  1  0  0  0
 13 14  2  0  0  0
 14 15  1  0  0  0
 15 16  2  0  0  0
 16 19  1  0  0  0
 19 20  1  0  0  0
  4  5  1  0  0  0
  5 27  1  0  0  0
 27 29  1  0  0  0
 29 30  1  0  0  0
 30 31  1  0  0  0
 31 32  1  0  0  0
 32 33  1  0  0  0
 32 34  1  0  0  0
 34 35  1  0  0  0
  5  6  2  0  0  0
  6  1  1  0  0  0
 16 11  1  0  0  0
 35 29  1  0  0  0
 21 22  1  0  0  0
  9 10  1  0  0  0
 27 28  1  0  0  0
 33 36  1  0  0  0
M  END
> <minimizedAffinity>
-5.54025

> <CNNscore>
0.3331452310

> <CNNaffinity>
6.1753325462

> <CNN_VS>
2.0572826862

> <CNNaffinity_variance>
0.5785537958

$$$$
[H]O[C@]1([H])C([H])([H])C([H])([H])[C@@]([H])(N([H])c2nc(N([H])C([H])([H])C([H])([H])C([H])([H])C([H])([H])[H])nc([H])c2C(=O)N([H])c2c([H])c(OC([H])([H])[H])c([H])c([H])c2OC([H])([H])[H])C([H])([H])C1([H])[H]


 36 38  0  0  0  0  0  0  0  0999 V2000
    4.9657    2.3426   19.5727 C   0  0  0  0  0  0  0  0  0  0  0  0
    4.6077    1.7956   18.4125 N   0  0  0  0  0  0  0  0  0  0  0  0
    3.8731    2.4833   17.4912 C   0  0  0  0  0  0  0  0  0  0  0  0
    3.4688    3.7840   17.7268 C   0  0  0  0  0  0  0  0  0  0  0  0
    3.8382    4.3393   18.9165 C   0  0  0  0  0  0  0  0  0  0  0  0
    4.5784    3.5908   19.8007 N   0  0  0  0  0  0  0  0  0  0  0  0
    2.6941    4.5179   16.7404 C   0  0  0  0  0  0  0  0  0  0  0  0
    1.7115    5.2145   17.0761 O   0  0  0  0  0  0  0  0  0  0  0  0
    3.0153    4.4742   15.3814 N   0  0  0  0  0  0  0  0  0  0  0  0
    3.8545    3.8721   15.1269 H   0  0  0  0  0  0  0  0  0  0  0  0
    2.3978    5.1063   14.2855 C   0  0  0  0  0  0  0  0  0  0  0  0
    1.2257    5.8185   14.3366 C   0  0  0  0  0  0  0  0  0  0  0  0
    0.6383    6.4352   13.2336 C   0  0  0  0  0  0  0  0  0  0  0  0
    1.2865    6.3128   12.0270 C   0  0  0  0  0  0  0  0  0  0  0  0
    2.4653    5.6043   11.9431 C   0  0  0  0  0  0  0  0  0  0  0  0
    3.0329    5.0001   13.0440 C   0  0  0  0  0  0  0  0  0  0  0  0
   -0.5443    7.1510   13.2947 O   0  0  0  0  0  0  0  0  0  0  0  0
   -1.7711    6.5009   13.0273 C   0  0  0  0  0  0  0  0  0  0  0  0
    4.2219    4.3048   12.8732 O   0  0  0  0  0  0  0  0  0  0  0  0
    4.9379    4.3690   11.6775 C   0  0  0  0  0  0  0  0  0  0  0  0
    5.7334    1.5780   20.4911 N   0  0  0  0  0  0  0  0  0  0  0  0
    6.6331    1.1951   20.1349 H   0  0  0  0  0  0  0  0  0  0  0  0
    5.3301    1.3293   21.8271 C   0  0  0  0  0  0  0  0  0  0  0  0
    5.7081    2.3159   22.8668 C   0  0  0  0  0  0  0  0  0  0  0  0
    3.8875    3.8646   23.6068 C   0  0  0  0  0  0  0  0  0  0  0  0
    4.7046    2.6400   23.9064 C   0  0  0  0  0  0  0  0  0  0  0  0
    3.4965    5.6637   19.3153 N   0  0  0  0  0  0  0  0  0  0  0  0
    2.5861    6.1032   19.3509 H   0  0  0  0  0  0  0  0  0  0  0  0
    4.6222    6.5184   19.7366 C   0  0  0  0  0  0  0  0  0  0  0  0
    4.5948    7.8651   19.0888 C   0  0  0  0  0  0  0  0  0  0  0  0
    4.4956    8.9315   20.1592 C   0  0  0  0  0  0  0  0  0  0  0  0
    5.6000    8.8020   21.1785 C   0  0  0  0  0  0  0  0  0  0  0  0
    6.7752    9.3037   20.5754 O   0  0  0  0  0  0  0  0  0  0  0  0
    5.8195    7.3989   21.6508 C   0  0  0  0  0  0  0  0  0  0  0  0
    4.6236    6.5662   21.2393 C   0  0  0  0  0  0  0  0  0  0  0  0
    6.7003   10.2925   20.6053 H   0  0  0  0  0  0  0  0  0  0  0  0
 25 26  1  0  0  0
 26 24  1  0  0  0
 24 23  1  0  0  0
 23 21  1  0  0  0
 21  1  1  0  0  0
  1  2  2  0  0  0
  2  3  1  0  0  0
  3  4  2  0  0  0
  4  7  1  0  0  0
  7  8  2  0  0  0
  7  9  1  0  0  0
  9 11  1  0  0  0
 11 12  2  0  0  0
 12 13  1  0  0  0
 13 17  1  0  0  0
 17 18  1  0  0  0
 13 14  2  0  0  0
 14 15  1  0  0  0
 15 16  2  0  0  0
 16 19  1  0  0  0
 19 20  1  0  0  0
  4  5  1  0  0  0
  5 27  1  0  0  0
 27 29  1  0  0  0
 29 30  1  0  0  0
 30 31  1  0  0  0
 31 32  1  0  0  0
 32 33  1  0  0  0
 32 34  1  0  0  0
 34 35  1  0  0  0
  5  6  2  0  0  0
  6  1  1  0  0  0
 16 11  1  0  0  0
 35 29  1  0  0  0
 21 22  1  0  0  0
  9 10  1  0  0  0
 27 28  1  0  0  0
 33 36  1  0  0  0
M  END
> <minimizedAffinity>
-7.21231

> <CNNscore>
0.3192997575

> <CNNaffinity>
6.5066695213

> <CNN_VS>
2.0775780678

> <CNNaffinity_variance>
0.6061969399

$$$$
[H]O[C@]1([H])C([H])([H])C([H])([H])[C@@]([H])(N([H])c2nc(N([H])C([H])([H])C([H])([H])C([H])([H])C([H])([H])[H])nc([H])c2C(=O)N([H])c2c([H])c(OC([H])([H])[H])c([H])c([H])c2OC([H])([H])[H])C([H])([H])C1([H])[H]


 36 38  0  0  0  0  0  0  0  0999 V2000
    4.3560    1.9457   18.3949 C   0  0  0  0  0  0  0  0  0  0  0  0
    3.3177    1.5684   17.6514 N   0  0  0  0  0  0  0  0  0  0  0  0
    2.9270    2.2761   16.5524 C   0  0  0  0  0  0  0  0  0  0  0  0
    3.5980    3.4207   16.1643 C   0  0  0  0  0  0  0  0  0  0  0  0
    4.6607    3.8026   16.9293 C   0  0  0  0  0  0  0  0  0  0  0  0
    5.0012    3.0441   18.0242 N   0  0  0  0  0  0  0  0  0  0  0  0
    3.1859    4.1682   14.9882 C   0  0  0  0  0  0  0  0  0  0  0  0
    3.8369    4.1093   13.9223 O   0  0  0  0  0  0  0  0  0  0  0  0
    2.0493    4.9805   15.0018 N   0  0  0  0  0  0  0  0  0  0  0  0
    1.5179    5.0114   15.9228 H   0  0  0  0  0  0  0  0  0  0  0  0
    1.4914    5.7722   13.9803 C   0  0  0  0  0  0  0  0  0  0  0  0
    0.5106    5.3688   13.1090 C   0  0  0  0  0  0  0  0  0  0  0  0
   -0.0240    6.1765   12.1070 C   0  0  0  0  0  0  0  0  0  0  0  0
    0.4733    7.4540   11.9987 C   0  0  0  0  0  0  0  0  0  0  0  0
    1.4581    7.8888   12.8586 C   0  0  0  0  0  0  0  0  0  0  0  0
    1.9762    7.0770   13.8444 C   0  0  0  0  0  0  0  0  0  0  0  0
   -1.0125    5.7607   11.2328 O   0  0  0  0  0  0  0  0  0  0  0  0
   -2.3354    5.5890   11.7016 C   0  0  0  0  0  0  0  0  0  0  0  0
    2.9667    7.5926   14.6685 O   0  0  0  0  0  0  0  0  0  0  0  0
    4.2777    7.7532   14.2190 C   0  0  0  0  0  0  0  0  0  0  0  0
    4.7173    1.1663   19.5261 N   0  0  0  0  0  0  0  0  0  0  0  0
    5.1078    0.2217   19.3306 H   0  0  0  0  0  0  0  0  0  0  0  0
    4.5701    1.6162   20.8622 C   0  0  0  0  0  0  0  0  0  0  0  0
    5.7365    1.5048   21.7702 C   0  0  0  0  0  0  0  0  0  0  0  0
    5.7321    4.0059   21.8395 C   0  0  0  0  0  0  0  0  0  0  0  0
    6.5059    2.7369   22.0580 C   0  0  0  0  0  0  0  0  0  0  0  0
    5.4511    4.9592   16.6704 N   0  0  0  0  0  0  0  0  0  0  0  0
    6.1598    5.1009   15.9626 H   0  0  0  0  0  0  0  0  0  0  0  0
    5.2069    6.1151   17.5533 C   0  0  0  0  0  0  0  0  0  0  0  0
    3.7809    6.2131   17.9902 C   0  0  0  0  0  0  0  0  0  0  0  0
    3.7150    6.1277   19.5005 C   0  0  0  0  0  0  0  0  0  0  0  0
    4.5936    7.1641   20.1558 C   0  0  0  0  0  0  0  0  0  0  0  0
    3.9198    8.4012   20.0460 O   0  0  0  0  0  0  0  0  0  0  0  0
    5.9589    7.2632   19.5506 C   0  0  0  0  0  0  0  0  0  0  0  0
    6.1875    6.0383   18.6903 C   0  0  0  0  0  0  0  0  0  0  0  0
    3.2097    8.3912   20.7388 H   0  0  0  0  0  0  0  0  0  0  0  0
 25 26  1  0  0  0
 26 24  1  0  0  0
 24 23  1  0  0  0
 23 21  1  0  0  0
 21  1  1  0  0  0
  1  2  2  0  0  0
  2  3  1  0  0  0
  3  4  2  0  0  0
  4  7  1  0  0  0
  7  8  2  0  0  0
  7  9  1  0  0  0
  9 11  1  0  0  0
 11 12  2  0  0  0
 12 13  1  0  0  0
 13 17  1  0  0  0
 17 18  1  0  0  0
 13 14  2  0  0  0
 14 15  1  0  0  0
 15 16  2  0  0  0
 16 19  1  0  0  0
 19 20  1  0  0  0
  4  5  1  0  0  0
  5 27  1  0  0  0
 27 29  1  0  0  0
 29 30  1  0  0  0
 30 31  1  0  0  0
 31 32  1  0  0  0
 32 33  1  0  0  0
 32 34  1  0  0  0
 34 35  1  0  0  0
  5  6  2  0  0  0
  6  1  1  0  0  0
 16 11  1  0  0  0
 35 29  1  0  0  0
 21 22  1  0  0  0
  9 10  1  0  0  0
 27 28  1  0  0  0
 33 36  1  0  0  0
M  END
> <minimizedAffinity>
-7.16760

> <CNNscore>
0.2968496382

> <CNNaffinity>
6.1984639168

> <CNN_VS>
1.8400117159

> <CNNaffinity_variance>
0.6711933613

$$$$
[H]O[C@]1([H])C([H])([H])C([H])([H])[C@@]([H])(N([H])c2nc(N([H])C([H])([H])C([H])([H])C([H])([H])C([H])([H])[H])nc([H])c2C(=O)N([H])c2c([H])c(OC([H])([H])[H])c([H])c([H])c2OC([H])([H])[H])C([H])([H])C1([H])[H]


 36 38  0  0  0  0  0  0  0  0999 V2000
    1.8475    2.2419   14.5374 C   0  0  0  0  0  0  0  0  0  0  0  0
    2.6120    1.3166   15.1142 N   0  0  0  0  0  0  0  0  0  0  0  0
    3.4840    1.6288   16.1159 C   0  0  0  0  0  0  0  0  0  0  0  0
    3.6094    2.9265   16.5752 C   0  0  0  0  0  0  0  0  0  0  0  0
    2.8240    3.8702   15.9809 C   0  0  0  0  0  0  0  0  0  0  0  0
    1.9665    3.4881   14.9766 N   0  0  0  0  0  0  0  0  0  0  0  0
    4.5323    3.2555   17.6484 C   0  0  0  0  0  0  0  0  0  0  0  0
    5.6634    3.7308   17.4071 O   0  0  0  0  0  0  0  0  0  0  0  0
    4.1935    3.0541   18.9887 N   0  0  0  0  0  0  0  0  0  0  0  0
    3.2260    2.6471   19.1618 H   0  0  0  0  0  0  0  0  0  0  0  0
    4.9371    3.3062   20.1571 C   0  0  0  0  0  0  0  0  0  0  0  0
    5.2593    4.5497   20.6405 C   0  0  0  0  0  0  0  0  0  0  0  0
    5.9969    4.7687   21.8025 C   0  0  0  0  0  0  0  0  0  0  0  0
    6.4200    3.6589   22.4955 C   0  0  0  0  0  0  0  0  0  0  0  0
    6.1125    2.3968   22.0361 C   0  0  0  0  0  0  0  0  0  0  0  0
    5.3820    2.1977   20.8846 C   0  0  0  0  0  0  0  0  0  0  0  0
    6.3172    6.0265   22.2818 O   0  0  0  0  0  0  0  0  0  0  0  0
    5.8118    7.1744   21.6293 C   0  0  0  0  0  0  0  0  0  0  0  0
    5.1161    0.8937   20.4911 O   0  0  0  0  0  0  0  0  0  0  0  0
    4.1201    0.1357   21.1075 C   0  0  0  0  0  0  0  0  0  0  0  0
    0.9560    1.8559   13.5011 N   0  0  0  0  0  0  0  0  0  0  0  0
    0.1110    1.3233   13.7932 H   0  0  0  0  0  0  0  0  0  0  0  0
    1.1707    2.1615   12.1337 C   0  0  0  0  0  0  0  0  0  0  0  0
    2.5119    1.8975   11.5603 C   0  0  0  0  0  0  0  0  0  0  0  0
    3.5502    0.3412    9.8987 C   0  0  0  0  0  0  0  0  0  0  0  0
    2.5836    1.4644   10.1460 C   0  0  0  0  0  0  0  0  0  0  0  0
    2.8379    5.2509   16.3316 N   0  0  0  0  0  0  0  0  0  0  0  0
    2.1741    5.7733   16.8881 H   0  0  0  0  0  0  0  0  0  0  0  0
    3.9761    6.0336   15.8148 C   0  0  0  0  0  0  0  0  0  0  0  0
    3.6718    6.6977   14.5108 C   0  0  0  0  0  0  0  0  0  0  0  0
    3.8120    8.1969   14.6700 C   0  0  0  0  0  0  0  0  0  0  0  0
    5.1689    8.5754   15.2094 C   0  0  0  0  0  0  0  0  0  0  0  0
    6.0841    8.4518   14.1400 O   0  0  0  0  0  0  0  0  0  0  0  0
    5.6102    7.7359   16.3673 C   0  0  0  0  0  0  0  0  0  0  0  0
    4.4061    6.9854   16.8963 C   0  0  0  0  0  0  0  0  0  0  0  0
    5.9537    9.2541   13.5710 H   0  0  0  0  0  0  0  0  0  0  0  0
 25 26  1  0  0  0
 26 24  1  0  0  0
 24 23  1  0  0  0
 23 21  1  0  0  0
 21  1  1  0  0  0
  1  2  2  0  0  0
  2  3  1  0  0  0
  3  4  2  0  0  0
  4  7  1  0  0  0
  7  8  2  0  0  0
  7  9  1  0  0  0
  9 11  1  0  0  0
 11 12  2  0  0  0
 12 13  1  0  0  0
 13 17  1  0  0  0
 17 18  1  0  0  0
 13 14  2  0  0  0
 14 15  1  0  0  0
 15 16  2  0  0  0
 16 19  1  0  0  0
 19 20  1  0  0  0
  4  5  1  0  0  0
  5 27  1  0  0  0
 27 29  1  0  0  0
 29 30  1  0  0  0
 30 31  1  0  0  0
 31 32  1  0  0  0
 32 33  1  0  0  0
 32 34  1  0  0  0
 34 35  1  0  0  0
  5  6  2  0  0  0
  6  1  1  0  0  0
 16 11  1  0  0  0
 35 29  1  0  0  0
 21 22  1  0  0  0
  9 10  1  0  0  0
 27 28  1  0  0  0
 33 36  1  0  0  0
M  END
> <minimizedAffinity>
-7.12616

> <CNNscore>
0.2802219689

> <CNNaffinity>
6.2687954903

> <CNN_VS>
1.7566542625

> <CNNaffinity_variance>
0.2700976133

$$$$
[H]O[C@]1([H])C([H])([H])C([H])([H])[C@@]([H])(N([H])c2nc(N([H])C([H])([H])C([H])([H])C([H])([H])C([H])([H])[H])nc([H])c2C(=O)N([H])c2c([H])c(OC([H])([H])[H])c([H])c([H])c2OC([H])([H])[H])C([H])([H])C1([H])[H]


 36 38  0  0  0  0  0  0  0  0999 V2000
    4.3388    2.0946   19.1765 C   0  0  0  0  0  0  0  0  0  0  0  0
    4.4551    1.2634   18.1427 N   0  0  0  0  0  0  0  0  0  0  0  0
    4.1244    1.6441   16.8750 C   0  0  0  0  0  0  0  0  0  0  0  0
    3.6524    2.9164   16.6115 C   0  0  0  0  0  0  0  0  0  0  0  0
    3.5352    3.7636   17.6740 C   0  0  0  0  0  0  0  0  0  0  0  0
    3.8858    3.3161   18.9257 N   0  0  0  0  0  0  0  0  0  0  0  0
    3.3091    3.3229   15.2593 C   0  0  0  0  0  0  0  0  0  0  0  0
    4.0988    4.0013   14.5666 O   0  0  0  0  0  0  0  0  0  0  0  0
    2.0864    2.9732   14.6809 N   0  0  0  0  0  0  0  0  0  0  0  0
    1.4356    2.3979   15.2951 H   0  0  0  0  0  0  0  0  0  0  0  0
    1.5744    3.2650   13.4025 C   0  0  0  0  0  0  0  0  0  0  0  0
    1.5772    2.4072   12.3311 C   0  0  0  0  0  0  0  0  0  0  0  0
    1.0612    2.7239   11.0760 C   0  0  0  0  0  0  0  0  0  0  0  0
    0.5192    3.9779   10.9186 C   0  0  0  0  0  0  0  0  0  0  0  0
    0.5012    4.8620   11.9752 C   0  0  0  0  0  0  0  0  0  0  0  0
    1.0160    4.5328   13.2104 C   0  0  0  0  0  0  0  0  0  0  0  0
    1.0690    1.8523   10.0014 O   0  0  0  0  0  0  0  0  0  0  0  0
    0.5342    2.2664    8.7597 C   0  0  0  0  0  0  0  0  0  0  0  0
    0.9587    5.4818   14.2215 O   0  0  0  0  0  0  0  0  0  0  0  0
    0.3444    6.7190   14.0252 C   0  0  0  0  0  0  0  0  0  0  0  0
    4.7018    1.6421   20.4730 N   0  0  0  0  0  0  0  0  0  0  0  0
    5.7097    1.7133   20.7219 H   0  0  0  0  0  0  0  0  0  0  0  0
    3.7712    1.1173   21.4046 C   0  0  0  0  0  0  0  0  0  0  0  0
    3.5465    1.8643   22.6651 C   0  0  0  0  0  0  0  0  0  0  0  0
    3.7404    4.3067   23.1731 C   0  0  0  0  0  0  0  0  0  0  0  0
    4.4498    2.9990   22.9640 C   0  0  0  0  0  0  0  0  0  0  0  0
    3.0586    5.1024   17.5738 N   0  0  0  0  0  0  0  0  0  0  0  0
    2.1300    5.4324   17.3458 H   0  0  0  0  0  0  0  0  0  0  0  0
    4.0522    6.1597   17.8387 C   0  0  0  0  0  0  0  0  0  0  0  0
    3.9449    6.7153   19.2221 C   0  0  0  0  0  0  0  0  0  0  0  0
    5.2509    6.4876   19.9537 C   0  0  0  0  0  0  0  0  0  0  0  0
    6.4226    7.0548   19.1915 C   0  0  0  0  0  0  0  0  0  0  0  0
    6.3907    8.4556   19.3739 O   0  0  0  0  0  0  0  0  0  0  0  0
    6.4069    6.7228   17.7322 C   0  0  0  0  0  0  0  0  0  0  0  0
    5.4102    5.6047   17.5098 C   0  0  0  0  0  0  0  0  0  0  0  0
    6.7477    8.6236   20.2842 H   0  0  0  0  0  0  0  0  0  0  0  0
 25 26  1  0  0  0
 26 24  1  0  0  0
 24 23  1  0  0  0
 23 21  1  0  0  0
 21  1  1  0  0  0
  1  2  2  0  0  0
  2  3  1  0  0  0
  3  4  2  0  0  0
  4  7  1  0  0  0
  7  8  2  0  0  0
  7  9  1  0  0  0
  9 11  1  0  0  0
 11 12  2  0  0  0
 12 13  1  0  0  0
 13 17  1  0  0  0
 17 18  1  0  0  0
 13 14  2  0  0  0
 14 15  1  0  0  0
 15 16  2  0  0  0
 16 19  1  0  0  0
 19 20  1  0  0  0
  4  5  1  0  0  0
  5 27  1  0  0  0
 27 29  1  0  0  0
 29 30  1  0  0  0
 30 31  1  0  0  0
 31 32  1  0  0  0
 32 33  1  0  0  0
 32 34  1  0  0  0
 34 35  1  0  0  0
  5  6  2  0  0  0
  6  1  1  0  0  0
 16 11  1  0  0  0
 35 29  1  0  0  0
 21 22  1  0  0  0
  9 10  1  0  0  0
 27 28  1  0  0  0
 33 36  1  0  0  0
M  END
> <minimizedAffinity>
-6.55137

> <CNNscore>
0.2772989571

> <CNNaffinity>
6.4981279373

> <CNN_VS>
1.8019241095

> <CNNaffinity_variance>
0.7257314920

$$$$
[H]O[C@]1([H])C([H])([H])C([H])([H])[C@@]([H])(N([H])c2nc(N([H])C([H])([H])C([H])([H])C([H])([H])C([H])([H])[H])nc([H])c2C(=O)N([H])c2c([H])c(OC([H])([H])[H])c([H])c([H])c2OC([H])([H])[H])C([H])([H])C1([H])[H]


 36 38  0  0  0  0  0  0  0  0999 V2000
    4.7807    2.2353   19.8244 C   0  0  0  0  0  0  0  0  0  0  0  0
    4.6122    1.7470   18.5970 N   0  0  0  0  0  0  0  0  0  0  0  0
    4.0274    2.4809   17.6067 C   0  0  0  0  0  0  0  0  0  0  0  0
    3.5839    3.7693   17.8394 C   0  0  0  0  0  0  0  0  0  0  0  0
    3.7590    4.2644   19.0982 C   0  0  0  0  0  0  0  0  0  0  0  0
    4.3555    3.4716   20.0498 N   0  0  0  0  0  0  0  0  0  0  0  0
    2.9695    4.5527   16.7809 C   0  0  0  0  0  0  0  0  0  0  0  0
    1.8182    5.0237   16.9085 O   0  0  0  0  0  0  0  0  0  0  0  0
    3.6386    4.8098   15.5818 N   0  0  0  0  0  0  0  0  0  0  0  0
    4.6148    4.3947   15.5023 H   0  0  0  0  0  0  0  0  0  0  0  0
    3.2212    5.5376   14.4513 C   0  0  0  0  0  0  0  0  0  0  0  0
    3.2792    6.9025   14.3197 C   0  0  0  0  0  0  0  0  0  0  0  0
    2.8592    7.5961   13.1863 C   0  0  0  0  0  0  0  0  0  0  0  0
    2.3583    6.8512   12.1445 C   0  0  0  0  0  0  0  0  0  0  0  0
    2.2872    5.4789   12.2460 C   0  0  0  0  0  0  0  0  0  0  0  0
    2.7069    4.8084   13.3744 C   0  0  0  0  0  0  0  0  0  0  0  0
    2.9211    8.9728   13.0629 O   0  0  0  0  0  0  0  0  0  0  0  0
    3.1991    9.7661   14.1999 C   0  0  0  0  0  0  0  0  0  0  0  0
    2.6005    3.4248   13.3955 O   0  0  0  0  0  0  0  0  0  0  0  0
    1.3583    2.7900   13.4158 C   0  0  0  0  0  0  0  0  0  0  0  0
    5.3991    1.4246   20.8133 N   0  0  0  0  0  0  0  0  0  0  0  0
    6.4312    1.3132   20.7402 H   0  0  0  0  0  0  0  0  0  0  0  0
    4.6838    0.7869   21.8578 C   0  0  0  0  0  0  0  0  0  0  0  0
    3.7826    1.6143   22.6948 C   0  0  0  0  0  0  0  0  0  0  0  0
    3.7385    3.9668   23.5462 C   0  0  0  0  0  0  0  0  0  0  0  0
    4.4021    2.6196   23.5884 C   0  0  0  0  0  0  0  0  0  0  0  0
    3.3516    5.5682   19.5029 N   0  0  0  0  0  0  0  0  0  0  0  0
    2.4508    5.8766   19.8447 H   0  0  0  0  0  0  0  0  0  0  0  0
    4.3819    6.6198   19.4142 C   0  0  0  0  0  0  0  0  0  0  0  0
    3.9362    7.7938   18.6037 C   0  0  0  0  0  0  0  0  0  0  0  0
    3.9578    9.0353   19.4704 C   0  0  0  0  0  0  0  0  0  0  0  0
    5.3102    9.2490   20.1035 C   0  0  0  0  0  0  0  0  0  0  0  0
    6.1596    9.7557   19.0945 O   0  0  0  0  0  0  0  0  0  0  0  0
    5.8974    8.0076   20.6987 C   0  0  0  0  0  0  0  0  0  0  0  0
    4.7998    6.9711   20.8150 C   0  0  0  0  0  0  0  0  0  0  0  0
    5.9237   10.7138   18.9903 H   0  0  0  0  0  0  0  0  0  0  0  0
 25 26  1  0  0  0
 26 24  1  0  0  0
 24 23  1  0  0  0
 23 21  1  0  0  0
 21  1  1  0  0  0
  1  2  2  0  0  0
  2  3  1  0  0  0
  3  4  2  0  0  0
  4  7  1  0  0  0
  7  8  2  0  0  0
  7  9  1  0  0  0
  9 11  1  0  0  0
 11 12  2  0  0  0
 12 13  1  0  0  0
 13 17  1  0  0  0
 17 18  1  0  0  0
 13 14  2  0  0  0
 14 15  1  0  0  0
 15 16  2  0  0  0
 16 19  1  0  0  0
 19 20  1  0  0  0
  4  5  1  0  0  0
  5 27  1  0  0  0
 27 29  1  0  0  0
 29 30  1  0  0  0
 30 31  1  0  0  0
 31 32  1  0  0  0
 32 33  1  0  0  0
 32 34  1  0  0  0
 34 35  1  0  0  0
  5  6  2  0  0  0
  6  1  1  0  0  0
 16 11  1  0  0  0
 35 29  1  0  0  0
 21 22  1  0  0  0
  9 10  1  0  0  0
 27 28  1  0  0  0
 33 36  1  0  0  0
M  END
> <minimizedAffinity>
-7.24935

> <CNNscore>
0.2732070386

> <CNNaffinity>
6.4689354897

> <CNN_VS>
1.7673586607

> <CNNaffinity_variance>
0.5188492537

$$$$
[H]OC([H])([H])c1c([H])c([H])c(-c2c([H])nc(N([H])[H])c(C(=O)N([H])[C@@]3([H])C([H])([H])C([H])([H])C([H])([H])[C@]3([H])OC([H])([H])c3c([H])c([H])c(C([H])([H])[H])c(C([H])([H])[H])c3[H])c2[H])c([H])c1OC([H])([H])[H]


 39 42  0  0  0  0  0  0  0  0999 V2000
    3.0842    1.6205   16.3993 C   0  0  0  0  0  0  0  0  0  0  0  0
    2.3334    0.4353   16.3373 C   0  0  0  0  0  0  0  0  0  0  0  0
    2.2320   -0.3198   17.4335 N   0  0  0  0  0  0  0  0  0  0  0  0
    2.8293    0.0216   18.5925 C   0  0  0  0  0  0  0  0  0  0  0  0
    2.6240   -0.8578   19.7294 N   0  0  0  0  0  0  0  0  0  0  0  0
    3.5758    1.1750   18.6960 C   0  0  0  0  0  0  0  0  0  0  0  0
    3.6909    1.9691   17.5780 C   0  0  0  0  0  0  0  0  0  0  0  0
    1.9336   -0.6231   20.4782 H   0  0  0  0  0  0  0  0  0  0  0  0
    3.1894   -1.7239   19.7553 H   0  0  0  0  0  0  0  0  0  0  0  0
    2.9455    2.6566   12.8014 C   0  0  0  0  0  0  0  0  0  0  0  0
    2.7873    1.9387   13.9767 C   0  0  0  0  0  0  0  0  0  0  0  0
    3.2500    2.4572   15.2011 C   0  0  0  0  0  0  0  0  0  0  0  0
    3.8496    3.6730   15.1904 C   0  0  0  0  0  0  0  0  0  0  0  0
    4.0027    4.3793   14.0056 C   0  0  0  0  0  0  0  0  0  0  0  0
    3.5621    3.8974   12.7987 C   0  0  0  0  0  0  0  0  0  0  0  0
    3.7461    4.6843   11.5624 C   0  0  0  0  0  0  0  0  0  0  0  0
    4.0848    5.9909   11.8593 O   0  0  0  0  0  0  0  0  0  0  0  0
    3.3768    6.5135   12.2801 H   0  0  0  0  0  0  0  0  0  0  0  0
    1.1949    1.9114   11.2191 C   0  0  0  0  0  0  0  0  0  0  0  0
    2.5108    2.2035   11.5631 O   0  0  0  0  0  0  0  0  0  0  0  0
    4.2703    1.4470   19.9630 C   0  0  0  0  0  0  0  0  0  0  0  0
    5.0563    0.5528   20.3492 O   0  0  0  0  0  0  0  0  0  0  0  0
    4.0934    2.6086   20.7102 N   0  0  0  0  0  0  0  0  0  0  0  0
    3.3640    3.2922   20.2684 H   0  0  0  0  0  0  0  0  0  0  0  0
    4.6558    3.1140   21.9116 C   0  0  0  0  0  0  0  0  0  0  0  0
    3.6668    2.8839   23.0509 C   0  0  0  0  0  0  0  0  0  0  0  0
    4.4552    1.9509   24.0045 C   0  0  0  0  0  0  0  0  0  0  0  0
    5.8021    2.6664   23.9485 C   0  0  0  0  0  0  0  0  0  0  0  0
    5.9637    2.6282   22.3846 C   0  0  0  0  0  0  0  0  0  0  0  0
    7.0336    3.5251   22.1282 O   0  0  0  0  0  0  0  0  0  0  0  0
    6.5492    4.7990   22.0910 C   0  0  0  0  0  0  0  0  0  0  0  0
    7.6117    5.8381   22.1294 C   0  0  0  0  0  0  0  0  0  0  0  0
    7.2362    7.1209   21.9254 C   0  0  0  0  0  0  0  0  0  0  0  0
    8.1489    8.2021   21.9363 C   0  0  0  0  0  0  0  0  0  0  0  0
    9.4588    7.9094   22.1664 C   0  0  0  0  0  0  0  0  0  0  0  0
   10.4443    9.0283   22.1812 C   0  0  0  0  0  0  0  0  0  0  0  0
    9.8670    6.5892   22.3773 C   0  0  0  0  0  0  0  0  0  0  0  0
   11.3014    6.3559   22.6052 C   0  0  0  0  0  0  0  0  0  0  0  0
    8.9362    5.5526   22.3584 C   0  0  0  0  0  0  0  0  0  0  0  0
 19 20  1  0  0  0
 20 10  1  0  0  0
 10 11  2  0  0  0
 11 12  1  0  0  0
 12 13  2  0  0  0
 13 14  1  0  0  0
 14 15  2  0  0  0
 15 16  1  0  0  0
 16 17  1  0  0  0
 12  1  1  0  0  0
  1  2  2  0  0  0
  2  3  1  0  0  0
  3  4  2  0  0  0
  4  5  1  0  0  0
  4  6  1  0  0  0
  6  7  2  0  0  0
  6 21  1  0  0  0
 21 22  2  0  0  0
 21 23  1  0  0  0
 23 25  1  0  0  0
 25 26  1  0  0  0
 26 27  1  0  0  0
 27 28  1  0  0  0
 28 29  1  0  0  0
 29 30  1  0  0  0
 30 31  1  0  0  0
 31 32  1  0  0  0
 32 33  2  0  0  0
 33 34  1  0  0  0
 34 35  2  0  0  0
 35 36  1  0  0  0
 35 37  1  0  0  0
 37 38  1  0  0  0
 37 39  2  0  0  0
 15 10  1  0  0  0
  7  1  1  0  0  0
 29 25  1  0  0  0
 39 32  1  0  0  0
 17 18  1  0  0  0
  5  8  1  0  0  0
  5  9  1  0  0  0
 23 24  1  0  0  0
M  END
> <minimizedAffinity>
-8.71432

> <CNNscore>
0.9440892339

> <CNNaffinity>
7.4634222984

> <CNN_VS>
7.0461368561

> <CNNaffinity_variance>
0.1092592329

$$$$
[H]OC([H])([H])c1c([H])c([H])c(-c2c([H])nc(N([H])[H])c(C(=O)N([H])[C@@]3([H])C([H])([H])C([H])([H])C([H])([H])[C@]3([H])OC([H])([H])c3c([H])c([H])c(C([H])([H])[H])c(C([H])([H])[H])c3[H])c2[H])c([H])c1OC([H])([H])[H]


 39 42  0  0  0  0  0  0  0  0999 V2000
    2.9694    1.6888   16.2892 C   0  0  0  0  0  0  0  0  0  0  0  0
    2.3504    0.4294   16.2354 C   0  0  0  0  0  0  0  0  0  0  0  0
    2.3421   -0.3306   17.3329 N   0  0  0  0  0  0  0  0  0  0  0  0
    2.9106    0.0750   18.4857 C   0  0  0  0  0  0  0  0  0  0  0  0
    2.8129   -0.8196   19.6249 N   0  0  0  0  0  0  0  0  0  0  0  0
    3.5293    1.3024   18.5811 C   0  0  0  0  0  0  0  0  0  0  0  0
    3.5467    2.1026   17.4616 C   0  0  0  0  0  0  0  0  0  0  0  0
    2.1087   -0.6597   20.3806 H   0  0  0  0  0  0  0  0  0  0  0  0
    3.4687   -1.6196   19.6454 H   0  0  0  0  0  0  0  0  0  0  0  0
    3.0465    4.7910   14.1897 C   0  0  0  0  0  0  0  0  0  0  0  0
    3.0279    3.9318   15.2775 C   0  0  0  0  0  0  0  0  0  0  0  0
    3.0320    2.5367   15.0891 C   0  0  0  0  0  0  0  0  0  0  0  0
    3.0555    2.0672   13.8175 C   0  0  0  0  0  0  0  0  0  0  0  0
    3.0720    2.9396   12.7383 C   0  0  0  0  0  0  0  0  0  0  0  0
    3.0676    4.3030   12.8932 C   0  0  0  0  0  0  0  0  0  0  0  0
    3.0861    5.1936   11.7151 C   0  0  0  0  0  0  0  0  0  0  0  0
    4.3109    5.8227   11.5958 O   0  0  0  0  0  0  0  0  0  0  0  0
    4.5082    6.4740   12.2945 H   0  0  0  0  0  0  0  0  0  0  0  0
    4.0097    6.9371   14.9576 C   0  0  0  0  0  0  0  0  0  0  0  0
    3.0453    6.1745   14.3068 O   0  0  0  0  0  0  0  0  0  0  0  0
    4.2030    1.6497   19.8409 C   0  0  0  0  0  0  0  0  0  0  0  0
    5.0660    0.8325   20.2333 O   0  0  0  0  0  0  0  0  0  0  0  0
    3.9286    2.8006   20.5751 N   0  0  0  0  0  0  0  0  0  0  0  0
    3.1403    3.4123   20.1293 H   0  0  0  0  0  0  0  0  0  0  0  0
    4.4501    3.3680   21.7673 C   0  0  0  0  0  0  0  0  0  0  0  0
    3.7891    2.6890   22.9636 C   0  0  0  0  0  0  0  0  0  0  0  0
    4.9898    2.0307   23.6891 C   0  0  0  0  0  0  0  0  0  0  0  0
    5.9727    3.1938   23.5879 C   0  0  0  0  0  0  0  0  0  0  0  0
    5.9005    3.3578   22.0254 C   0  0  0  0  0  0  0  0  0  0  0  0
    6.5334    4.6046   21.7816 O   0  0  0  0  0  0  0  0  0  0  0  0
    5.6233    5.4717   21.2536 C   0  0  0  0  0  0  0  0  0  0  0  0
    6.0179    6.8988   21.3873 C   0  0  0  0  0  0  0  0  0  0  0  0
    5.0263    7.8148   21.4640 C   0  0  0  0  0  0  0  0  0  0  0  0
    5.2678    9.2030   21.5929 C   0  0  0  0  0  0  0  0  0  0  0  0
    6.5673    9.6076   21.6407 C   0  0  0  0  0  0  0  0  0  0  0  0
    6.8526   11.0650   21.7735 C   0  0  0  0  0  0  0  0  0  0  0  0
    7.6064    8.6760   21.5606 C   0  0  0  0  0  0  0  0  0  0  0  0
    8.9819    9.1957   21.6058 C   0  0  0  0  0  0  0  0  0  0  0  0
    7.3260    7.3171   21.4340 C   0  0  0  0  0  0  0  0  0  0  0  0
 19 20  1  0  0  0
 20 10  1  0  0  0
 10 11  2  0  0  0
 11 12  1  0  0  0
 12 13  2  0  0  0
 13 14  1  0  0  0
 14 15  2  0  0  0
 15 16  1  0  0  0
 16 17  1  0  0  0
 12  1  1  0  0  0
  1  2  2  0  0  0
  2  3  1  0  0  0
  3  4  2  0  0  0
  4  5  1  0  0  0
  4  6  1  0  0  0
  6  7  2  0  0  0
  6 21  1  0  0  0
 21 22  2  0  0  0
 21 23  1  0  0  0
 23 25  1  0  0  0
 25 26  1  0  0  0
 26 27  1  0  0  0
 27 28  1  0  0  0
 28 29  1  0  0  0
 29 30  1  0  0  0
 30 31  1  0  0  0
 31 32  1  0  0  0
 32 33  2  0  0  0
 33 34  1  0  0  0
 34 35  2  0  0  0
 35 36  1  0  0  0
 35 37  1  0  0  0
 37 38  1  0  0  0
 37 39  2  0  0  0
 15 10  1  0  0  0
  7  1  1  0  0  0
 29 25  1  0  0  0
 39 32  1  0  0  0
 17 18  1  0  0  0
  5  8  1  0  0  0
  5  9  1  0  0  0
 23 24  1  0  0  0
M  END
> <minimizedAffinity>
-8.62272

> <CNNscore>
0.7761882544

> <CNNaffinity>
7.1774034500

> <CNN_VS>
5.5710163116

> <CNNaffinity_variance>
0.1627552807

$$$$
[H]OC([H])([H])c1c([H])c([H])c(-c2c([H])nc(N([H])[H])c(C(=O)N([H])[C@@]3([H])C([H])([H])C([H])([H])C([H])([H])[C@]3([H])OC([H])([H])c3c([H])c([H])c(C([H])([H])[H])c(C([H])([H])[H])c3[H])c2[H])c([H])c1OC([H])([H])[H]


 39 42  0  0  0  0  0  0  0  0999 V2000
    3.0905    1.5285   16.5227 C   0  0  0  0  0  0  0  0  0  0  0  0
    2.3902    0.3114   16.5058 C   0  0  0  0  0  0  0  0  0  0  0  0
    2.3157   -0.4034   17.6307 N   0  0  0  0  0  0  0  0  0  0  0  0
    2.8932    0.0081   18.7769 C   0  0  0  0  0  0  0  0  0  0  0  0
    2.7200   -0.8336   19.9471 N   0  0  0  0  0  0  0  0  0  0  0  0
    3.5905    1.1950   18.8366 C   0  0  0  0  0  0  0  0  0  0  0  0
    3.6771    1.9484   17.6883 C   0  0  0  0  0  0  0  0  0  0  0  0
    2.0171   -0.5986   20.6842 H   0  0  0  0  0  0  0  0  0  0  0  0
    3.3209   -1.6735   20.0088 H   0  0  0  0  0  0  0  0  0  0  0  0
    2.8830    2.4320   12.8925 C   0  0  0  0  0  0  0  0  0  0  0  0
    2.7528    1.7549   14.0953 C   0  0  0  0  0  0  0  0  0  0  0  0
    3.2265    2.3235   15.2928 C   0  0  0  0  0  0  0  0  0  0  0  0
    3.8086    3.5462   15.2291 C   0  0  0  0  0  0  0  0  0  0  0  0
    3.9337    4.2112   14.0174 C   0  0  0  0  0  0  0  0  0  0  0  0
    3.4819    3.6801   12.8357 C   0  0  0  0  0  0  0  0  0  0  0  0
    3.6361    4.4242   11.5692 C   0  0  0  0  0  0  0  0  0  0  0  0
    4.9535    4.7946   11.3761 O   0  0  0  0  0  0  0  0  0  0  0  0
    5.2875    5.4658   12.0001 H   0  0  0  0  0  0  0  0  0  0  0  0
    1.1119    1.6644   11.3443 C   0  0  0  0  0  0  0  0  0  0  0  0
    2.4362    1.9284   11.6782 O   0  0  0  0  0  0  0  0  0  0  0  0
    4.2675    1.5455   20.0937 C   0  0  0  0  0  0  0  0  0  0  0  0
    5.0847    0.6986   20.5199 O   0  0  0  0  0  0  0  0  0  0  0  0
    4.0431    2.7298   20.7910 N   0  0  0  0  0  0  0  0  0  0  0  0
    3.2909    3.3663   20.3183 H   0  0  0  0  0  0  0  0  0  0  0  0
    4.5798    3.3057   21.9723 C   0  0  0  0  0  0  0  0  0  0  0  0
    4.2459    2.4005   23.1547 C   0  0  0  0  0  0  0  0  0  0  0  0
    5.6459    1.9805   23.6694 C   0  0  0  0  0  0  0  0  0  0  0  0
    6.3290    3.3425   23.5854 C   0  0  0  0  0  0  0  0  0  0  0  0
    6.0184    3.6087   22.0669 C   0  0  0  0  0  0  0  0  0  0  0  0
    6.3261    4.9830   21.8893 O   0  0  0  0  0  0  0  0  0  0  0  0
    5.2381    5.7316   22.2282 C   0  0  0  0  0  0  0  0  0  0  0  0
    4.8961    6.7695   21.2203 C   0  0  0  0  0  0  0  0  0  0  0  0
    4.2750    6.3606   20.0910 C   0  0  0  0  0  0  0  0  0  0  0  0
    3.8965    7.2472   19.0553 C   0  0  0  0  0  0  0  0  0  0  0  0
    4.1816    8.5674   19.2302 C   0  0  0  0  0  0  0  0  0  0  0  0
    3.7970    9.5253   18.1542 C   0  0  0  0  0  0  0  0  0  0  0  0
    4.8253    9.0093   20.3896 C   0  0  0  0  0  0  0  0  0  0  0  0
    5.1096   10.4488   20.4952 C   0  0  0  0  0  0  0  0  0  0  0  0
    5.1817    8.1034   21.3864 C   0  0  0  0  0  0  0  0  0  0  0  0
 19 20  1  0  0  0
 20 10  1  0  0  0
 10 11  2  0  0  0
 11 12  1  0  0  0
 12 13  2  0  0  0
 13 14  1  0  0  0
 14 15  2  0  0  0
 15 16  1  0  0  0
 16 17  1  0  0  0
 12  1  1  0  0  0
  1  2  2  0  0  0
  2  3  1  0  0  0
  3  4  2  0  0  0
  4  5  1  0  0  0
  4  6  1  0  0  0
  6  7  2  0  0  0
  6 21  1  0  0  0
 21 22  2  0  0  0
 21 23  1  0  0  0
 23 25  1  0  0  0
 25 26  1  0  0  0
 26 27  1  0  0  0
 27 28  1  0  0  0
 28 29  1  0  0  0
 29 30  1  0  0  0
 30 31  1  0  0  0
 31 32  1  0  0  0
 32 33  2  0  0  0
 33 34  1  0  0  0
 34 35  2  0  0  0
 35 36  1  0  0  0
 35 37  1  0  0  0
 37 38  1  0  0  0
 37 39  2  0  0  0
 15 10  1  0  0  0
  7  1  1  0  0  0
 29 25  1  0  0  0
 39 32  1  0  0  0
 17 18  1  0  0  0
  5  8  1  0  0  0
  5  9  1  0  0  0
 23 24  1  0  0  0
M  END
> <minimizedAffinity>
-9.34136

> <CNNscore>
0.7211748362

> <CNNaffinity>
7.2093567848

> <CNN_VS>
5.1992068291

> <CNNaffinity_variance>
0.3777624369

$$$$
[H]OC([H])([H])c1c([H])c([H])c(-c2c([H])nc(N([H])[H])c(C(=O)N([H])[C@@]3([H])C([H])([H])C([H])([H])C([H])([H])[C@]3([H])OC([H])([H])c3c([H])c([H])c(C([H])([H])[H])c(C([H])([H])[H])c3[H])c2[H])c([H])c1OC([H])([H])[H]


 39 42  0  0  0  0  0  0  0  0999 V2000
    3.3395    2.2424   15.7361 C   0  0  0  0  0  0  0  0  0  0  0  0
    2.9192    0.9215   15.9611 C   0  0  0  0  0  0  0  0  0  0  0  0
    2.9866    0.4273   17.1994 N   0  0  0  0  0  0  0  0  0  0  0  0
    3.4466    1.1573   18.2347 C   0  0  0  0  0  0  0  0  0  0  0  0
    3.4444    0.5285   19.5434 N   0  0  0  0  0  0  0  0  0  0  0  0
    3.8699    2.4564   18.0574 C   0  0  0  0  0  0  0  0  0  0  0  0
    3.8063    2.9860   16.7888 C   0  0  0  0  0  0  0  0  0  0  0  0
    2.6980    0.7387   20.2442 H   0  0  0  0  0  0  0  0  0  0  0  0
    4.2119   -0.1366   19.7409 H   0  0  0  0  0  0  0  0  0  0  0  0
    2.7221    2.4782   12.0482 C   0  0  0  0  0  0  0  0  0  0  0  0
    2.7436    2.0245   13.3580 C   0  0  0  0  0  0  0  0  0  0  0  0
    3.3162    2.8074   14.3784 C   0  0  0  0  0  0  0  0  0  0  0  0
    3.8402    4.0105   14.0381 C   0  0  0  0  0  0  0  0  0  0  0  0
    3.8131    4.4507   12.7222 C   0  0  0  0  0  0  0  0  0  0  0  0
    3.2625    3.7079   11.7083 C   0  0  0  0  0  0  0  0  0  0  0  0
    3.2556    4.2166   10.3217 C   0  0  0  0  0  0  0  0  0  0  0  0
    3.5239    5.5721   10.2960 O   0  0  0  0  0  0  0  0  0  0  0  0
    2.8267    6.1365   10.6792 H   0  0  0  0  0  0  0  0  0  0  0  0
    0.8383    1.3800   10.8785 C   0  0  0  0  0  0  0  0  0  0  0  0
    2.1721    1.7569   10.9971 O   0  0  0  0  0  0  0  0  0  0  0  0
    4.4389    3.1699   19.2101 C   0  0  0  0  0  0  0  0  0  0  0  0
    5.3458    2.5642   19.8244 O   0  0  0  0  0  0  0  0  0  0  0  0
    4.0250    4.4344   19.6206 N   0  0  0  0  0  0  0  0  0  0  0  0
    3.2131    4.8361   19.0090 H   0  0  0  0  0  0  0  0  0  0  0  0
    4.4273    5.3284   20.6473 C   0  0  0  0  0  0  0  0  0  0  0  0
    3.5778    5.0651   21.8875 C   0  0  0  0  0  0  0  0  0  0  0  0
    4.6319    4.6338   22.9383 C   0  0  0  0  0  0  0  0  0  0  0  0
    5.6930    5.6865   22.6304 C   0  0  0  0  0  0  0  0  0  0  0  0
    5.8297    5.3644   21.0972 C   0  0  0  0  0  0  0  0  0  0  0  0
    6.5678    6.4611   20.5805 O   0  0  0  0  0  0  0  0  0  0  0  0
    6.0635    7.6198   21.0924 C   0  0  0  0  0  0  0  0  0  0  0  0
    7.0940    8.4878   21.7207 C   0  0  0  0  0  0  0  0  0  0  0  0
    6.6609    9.5362   22.4566 C   0  0  0  0  0  0  0  0  0  0  0  0
    7.5381   10.4369   23.1057 C   0  0  0  0  0  0  0  0  0  0  0  0
    8.8745   10.2137   22.9675 C   0  0  0  0  0  0  0  0  0  0  0  0
    9.8233   11.1481   23.6381 C   0  0  0  0  0  0  0  0  0  0  0  0
    9.3417    9.1366   22.2089 C   0  0  0  0  0  0  0  0  0  0  0  0
   10.7995    8.9731   22.0978 C   0  0  0  0  0  0  0  0  0  0  0  0
    8.4444    8.2723   21.5852 C   0  0  0  0  0  0  0  0  0  0  0  0
 19 20  1  0  0  0
 20 10  1  0  0  0
 10 11  2  0  0  0
 11 12  1  0  0  0
 12 13  2  0  0  0
 13 14  1  0  0  0
 14 15  2  0  0  0
 15 16  1  0  0  0
 16 17  1  0  0  0
 12  1  1  0  0  0
  1  2  2  0  0  0
  2  3  1  0  0  0
  3  4  2  0  0  0
  4  5  1  0  0  0
  4  6  1  0  0  0
  6  7  2  0  0  0
  6 21  1  0  0  0
 21 22  2  0  0  0
 21 23  1  0  0  0
 23 25  1  0  0  0
 25 26  1  0  0  0
 26 27  1  0  0  0
 27 28  1  0  0  0
 28 29  1  0  0  0
 29 30  1  0  0  0
 30 31  1  0  0  0
 31 32  1  0  0  0
 32 33  2  0  0  0
 33 34  1  0  0  0
 34 35  2  0  0  0
 35 36  1  0  0  0
 35 37  1  0  0  0
 37 38  1  0  0  0
 37 39  2  0  0  0
 15 10  1  0  0  0
  7  1  1  0  0  0
 29 25  1  0  0  0
 39 32  1  0  0  0
 17 18  1  0  0  0
  5  8  1  0  0  0
  5  9  1  0  0  0
 23 24  1  0  0  0
M  END
> <minimizedAffinity>
-7.95800

> <CNNscore>
0.5228520036

> <CNNaffinity>
6.7295327187

> <CNN_VS>
3.5185496807

> <CNNaffinity_variance>
0.8065382838

$$$$
[H]OC([H])([H])c1c([H])c([H])c(-c2c([H])nc(N([H])[H])c(C(=O)N([H])[C@@]3([H])C([H])([H])C([H])([H])C([H])([H])[C@]3([H])OC([H])([H])c3c([H])c([H])c(C([H])([H])[H])c(C([H])([H])[H])c3[H])c2[H])c([H])c1OC([H])([H])[H]


 39 42  0  0  0  0  0  0  0  0999 V2000
    3.7364    2.2142   17.5682 C   0  0  0  0  0  0  0  0  0  0  0  0
    2.9278    1.0776   17.4052 C   0  0  0  0  0  0  0  0  0  0  0  0
    2.3107    0.8898   16.2364 N   0  0  0  0  0  0  0  0  0  0  0  0
    2.4401    1.7580   15.2138 C   0  0  0  0  0  0  0  0  0  0  0  0
    1.7495    1.4360   13.9779 N   0  0  0  0  0  0  0  0  0  0  0  0
    3.2225    2.8859   15.3321 C   0  0  0  0  0  0  0  0  0  0  0  0
    3.8697    3.0971   16.5282 C   0  0  0  0  0  0  0  0  0  0  0  0
    2.2586    1.0199   13.1654 H   0  0  0  0  0  0  0  0  0  0  0  0
    0.7345    1.6342   13.9473 H   0  0  0  0  0  0  0  0  0  0  0  0
    5.3745    4.1243   20.3441 C   0  0  0  0  0  0  0  0  0  0  0  0
    4.7143    3.8105   19.1662 C   0  0  0  0  0  0  0  0  0  0  0  0
    4.4004    2.4740   18.8546 C   0  0  0  0  0  0  0  0  0  0  0  0
    4.7623    1.5132   19.7399 C   0  0  0  0  0  0  0  0  0  0  0  0
    5.4245    1.8423   20.9143 C   0  0  0  0  0  0  0  0  0  0  0  0
    5.7435    3.1360   21.2423 C   0  0  0  0  0  0  0  0  0  0  0  0
    6.4489    3.4398   22.5039 C   0  0  0  0  0  0  0  0  0  0  0  0
    5.6784    3.0823   23.5941 O   0  0  0  0  0  0  0  0  0  0  0  0
    4.8753    3.6203   23.7239 H   0  0  0  0  0  0  0  0  0  0  0  0
    6.4361    6.3226   19.9391 C   0  0  0  0  0  0  0  0  0  0  0  0
    5.7114    5.4203   20.7111 O   0  0  0  0  0  0  0  0  0  0  0  0
    3.2548    3.8354   14.2101 C   0  0  0  0  0  0  0  0  0  0  0  0
    3.9539    3.4891   13.2313 O   0  0  0  0  0  0  0  0  0  0  0  0
    2.5668    5.0460   14.1989 N   0  0  0  0  0  0  0  0  0  0  0  0
    2.0152    5.2309   15.1241 H   0  0  0  0  0  0  0  0  0  0  0  0
    2.4082    6.0914   13.2517 C   0  0  0  0  0  0  0  0  0  0  0  0
    1.4384    7.1242   13.8190 C   0  0  0  0  0  0  0  0  0  0  0  0
    2.3110    8.4020   13.9035 C   0  0  0  0  0  0  0  0  0  0  0  0
    3.0034    8.2856   12.5485 C   0  0  0  0  0  0  0  0  0  0  0  0
    3.5801    6.8382   12.7624 C   0  0  0  0  0  0  0  0  0  0  0  0
    4.0089    6.4448   11.4678 O   0  0  0  0  0  0  0  0  0  0  0  0
    5.3624    6.5862   11.3835 C   0  0  0  0  0  0  0  0  0  0  0  0
    5.9963    5.6529   10.4155 C   0  0  0  0  0  0  0  0  0  0  0  0
    7.0401    6.1187    9.6932 C   0  0  0  0  0  0  0  0  0  0  0  0
    7.7296    5.3326    8.7398 C   0  0  0  0  0  0  0  0  0  0  0  0
    7.3026    4.0517    8.5625 C   0  0  0  0  0  0  0  0  0  0  0  0
    8.0083    3.2001    7.5625 C   0  0  0  0  0  0  0  0  0  0  0  0
    6.2238    3.5525    9.2981 C   0  0  0  0  0  0  0  0  0  0  0  0
    5.8160    2.1633    9.0374 C   0  0  0  0  0  0  0  0  0  0  0  0
    5.5714    4.3596   10.2277 C   0  0  0  0  0  0  0  0  0  0  0  0
 19 20  1  0  0  0
 20 10  1  0  0  0
 10 11  2  0  0  0
 11 12  1  0  0  0
 12 13  2  0  0  0
 13 14  1  0  0  0
 14 15  2  0  0  0
 15 16  1  0  0  0
 16 17  1  0  0  0
 12  1  1  0  0  0
  1  2  2  0  0  0
  2  3  1  0  0  0
  3  4  2  0  0  0
  4  5  1  0  0  0
  4  6  1  0  0  0
  6  7  2  0  0  0
  6 21  1  0  0  0
 21 22  2  0  0  0
 21 23  1  0  0  0
 23 25  1  0  0  0
 25 26  1  0  0  0
 26 27  1  0  0  0
 27 28  1  0  0  0
 28 29  1  0  0  0
 29 30  1  0  0  0
 30 31  1  0  0  0
 31 32  1  0  0  0
 32 33  2  0  0  0
 33 34  1  0  0  0
 34 35  2  0  0  0
 35 36  1  0  0  0
 35 37  1  0  0  0
 37 38  1  0  0  0
 37 39  2  0  0  0
 15 10  1  0  0  0
  7  1  1  0  0  0
 29 25  1  0  0  0
 39 32  1  0  0  0
 17 18  1  0  0  0
  5  8  1  0  0  0
  5  9  1  0  0  0
 23 24  1  0  0  0
M  END
> <minimizedAffinity>
-7.86743

> <CNNscore>
0.4757474661

> <CNNaffinity>
6.3018660545

> <CNN_VS>
2.9980967045

> <CNNaffinity_variance>
0.2047460824

$$$$
[H]OC([H])([H])c1c([H])c([H])c(-c2c([H])nc(N([H])[H])c(C(=O)N([H])[C@@]3([H])C([H])([H])C([H])([H])C([H])([H])[C@]3([H])OC([H])([H])c3c([H])c([H])c(C([H])([H])[H])c(C([H])([H])[H])c3[H])c2[H])c([H])c1OC([H])([H])[H]


 39 42  0  0  0  0  0  0  0  0999 V2000
    2.8430    2.6224   15.0920 C   0  0  0  0  0  0  0  0  0  0  0  0
    2.6971    1.3977   15.7635 C   0  0  0  0  0  0  0  0  0  0  0  0
    3.1988    1.2755   16.9946 N   0  0  0  0  0  0  0  0  0  0  0  0
    3.8404    2.2902   17.6073 C   0  0  0  0  0  0  0  0  0  0  0  0
    4.3161    2.0552   18.9587 N   0  0  0  0  0  0  0  0  0  0  0  0
    4.0063    3.5075   16.9837 C   0  0  0  0  0  0  0  0  0  0  0  0
    3.4942    3.6552   15.7149 C   0  0  0  0  0  0  0  0  0  0  0  0
    3.7910    2.4143   19.7880 H   0  0  0  0  0  0  0  0  0  0  0  0
    5.1924    1.5137   19.0555 H   0  0  0  0  0  0  0  0  0  0  0  0
    0.8706    4.0032   12.2214 C   0  0  0  0  0  0  0  0  0  0  0  0
    1.4172    3.8195   13.4821 C   0  0  0  0  0  0  0  0  0  0  0  0
    2.3374    2.7810   13.7200 C   0  0  0  0  0  0  0  0  0  0  0  0
    2.6680    1.9746   12.6816 C   0  0  0  0  0  0  0  0  0  0  0  0
    2.1111    2.1695   11.4254 C   0  0  0  0  0  0  0  0  0  0  0  0
    1.2116    3.1727   11.1661 C   0  0  0  0  0  0  0  0  0  0  0  0
    0.6446    3.3430    9.8130 C   0  0  0  0  0  0  0  0  0  0  0  0
    0.9105    4.6088    9.3262 O   0  0  0  0  0  0  0  0  0  0  0  0
    0.4475    5.3324    9.7881 H   0  0  0  0  0  0  0  0  0  0  0  0
   -1.3398    5.1003   12.4063 C   0  0  0  0  0  0  0  0  0  0  0  0
   -0.0395    5.0076   11.9204 O   0  0  0  0  0  0  0  0  0  0  0  0
    4.7881    4.5450   17.6722 C   0  0  0  0  0  0  0  0  0  0  0  0
    5.9229    4.1924   18.0652 O   0  0  0  0  0  0  0  0  0  0  0  0
    4.3323    5.8426   17.8899 N   0  0  0  0  0  0  0  0  0  0  0  0
    3.3188    6.0065   17.5150 H   0  0  0  0  0  0  0  0  0  0  0  0
    4.8907    7.0076   18.4781 C   0  0  0  0  0  0  0  0  0  0  0  0
    4.2486    8.2357   17.8388 C   0  0  0  0  0  0  0  0  0  0  0  0
    3.5519    8.9218   19.0410 C   0  0  0  0  0  0  0  0  0  0  0  0
    4.6758    8.7704   20.0623 C   0  0  0  0  0  0  0  0  0  0  0  0
    4.8277    7.2102   19.9359 C   0  0  0  0  0  0  0  0  0  0  0  0
    6.0473    6.9288   20.6054 O   0  0  0  0  0  0  0  0  0  0  0  0
    5.7868    6.6721   21.9189 C   0  0  0  0  0  0  0  0  0  0  0  0
    5.3923    5.2628   22.1800 C   0  0  0  0  0  0  0  0  0  0  0  0
    4.1909    5.0499   22.7630 C   0  0  0  0  0  0  0  0  0  0  0  0
    3.6987    3.7582   23.0648 C   0  0  0  0  0  0  0  0  0  0  0  0
    4.4907    2.6985   22.7416 C   0  0  0  0  0  0  0  0  0  0  0  0
    3.9994    1.3249   23.0501 C   0  0  0  0  0  0  0  0  0  0  0  0
    5.7368    2.8981   22.1405 C   0  0  0  0  0  0  0  0  0  0  0  0
    6.5370    1.7019   21.8357 C   0  0  0  0  0  0  0  0  0  0  0  0
    6.1852    4.1871   21.8599 C   0  0  0  0  0  0  0  0  0  0  0  0
 19 20  1  0  0  0
 20 10  1  0  0  0
 10 11  2  0  0  0
 11 12  1  0  0  0
 12 13  2  0  0  0
 13 14  1  0  0  0
 14 15  2  0  0  0
 15 16  1  0  0  0
 16 17  1  0  0  0
 12  1  1  0  0  0
  1  2  2  0  0  0
  2  3  1  0  0  0
  3  4  2  0  0  0
  4  5  1  0  0  0
  4  6  1  0  0  0
  6  7  2  0  0  0
  6 21  1  0  0  0
 21 22  2  0  0  0
 21 23  1  0  0  0
 23 25  1  0  0  0
 25 26  1  0  0  0
 26 27  1  0  0  0
 27 28  1  0  0  0
 28 29  1  0  0  0
 29 30  1  0  0  0
 30 31  1  0  0  0
 31 32  1  0  0  0
 32 33  2  0  0  0
 33 34  1  0  0  0
 34 35  2  0  0  0
 35 36  1  0  0  0
 35 37  1  0  0  0
 37 38  1  0  0  0
 37 39  2  0  0  0
 15 10  1  0  0  0
  7  1  1  0  0  0
 29 25  1  0  0  0
 39 32  1  0  0  0
 17 18  1  0  0  0
  5  8  1  0  0  0
  5  9  1  0  0  0
 23 24  1  0  0  0
M  END
> <minimizedAffinity>
-8.81966

> <CNNscore>
0.4478408098

> <CNNaffinity>
6.6921415329

> <CNN_VS>
2.9970140457

> <CNNaffinity_variance>
0.1943933964

$$$$
[H]OC([H])([H])c1c([H])c([H])c(-c2c([H])nc(N([H])[H])c(C(=O)N([H])[C@@]3([H])C([H])([H])C([H])([H])C([H])([H])[C@]3([H])OC([H])([H])c3c([H])c([H])c(C([H])([H])[H])c(C([H])([H])[H])c3[H])c2[H])c([H])c1OC([H])([H])[H]


 39 42  0  0  0  0  0  0  0  0999 V2000
    3.8932    2.0753   17.6547 C   0  0  0  0  0  0  0  0  0  0  0  0
    3.3050    0.9188   17.1174 C   0  0  0  0  0  0  0  0  0  0  0  0
    2.8603    0.9487   15.8591 N   0  0  0  0  0  0  0  0  0  0  0  0
    2.9583    2.0540   15.0940 C   0  0  0  0  0  0  0  0  0  0  0  0
    2.4711    1.9623   13.7294 N   0  0  0  0  0  0  0  0  0  0  0  0
    3.5273    3.2099   15.5825 C   0  0  0  0  0  0  0  0  0  0  0  0
    3.9945    3.1994   16.8769 C   0  0  0  0  0  0  0  0  0  0  0  0
    3.1284    1.8332   12.9270 H   0  0  0  0  0  0  0  0  0  0  0  0
    1.4471    2.0259   13.5961 H   0  0  0  0  0  0  0  0  0  0  0  0
    5.4214    3.3603   20.8251 C   0  0  0  0  0  0  0  0  0  0  0  0
    4.9268    3.2857   19.5322 C   0  0  0  0  0  0  0  0  0  0  0  0
    4.3590    2.0913   19.0497 C   0  0  0  0  0  0  0  0  0  0  0  0
    4.3124    1.0262   19.8871 C   0  0  0  0  0  0  0  0  0  0  0  0
    4.8132    1.1152   21.1784 C   0  0  0  0  0  0  0  0  0  0  0  0
    5.3725    2.2661   21.6737 C   0  0  0  0  0  0  0  0  0  0  0  0
    5.8928    2.3152   23.0551 C   0  0  0  0  0  0  0  0  0  0  0  0
    5.1141    3.1419   23.8427 O   0  0  0  0  0  0  0  0  0  0  0  0
    5.1630    4.0897   23.6174 H   0  0  0  0  0  0  0  0  0  0  0  0
    5.3931    5.7613   21.4231 C   0  0  0  0  0  0  0  0  0  0  0  0
    5.9914    4.5069   21.3618 O   0  0  0  0  0  0  0  0  0  0  0  0
    3.5277    4.4050   14.7261 C   0  0  0  0  0  0  0  0  0  0  0  0
    4.1052    4.2771   13.6231 O   0  0  0  0  0  0  0  0  0  0  0  0
    2.9354    5.6139   15.0820 N   0  0  0  0  0  0  0  0  0  0  0  0
    2.4872    5.5914   16.0786 H   0  0  0  0  0  0  0  0  0  0  0  0
    2.7698    6.8682   14.4382 C   0  0  0  0  0  0  0  0  0  0  0  0
    4.1420    7.3915   14.0233 C   0  0  0  0  0  0  0  0  0  0  0  0
    4.0235    7.4748   12.4804 C   0  0  0  0  0  0  0  0  0  0  0  0
    2.6282    8.0876   12.3996 C   0  0  0  0  0  0  0  0  0  0  0  0
    1.8975    6.9905   13.2573 C   0  0  0  0  0  0  0  0  0  0  0  0
    0.6300    7.5636   13.5397 O   0  0  0  0  0  0  0  0  0  0  0  0
   -0.1665    6.6217   14.1207 C   0  0  0  0  0  0  0  0  0  0  0  0
   -1.4525    6.4107   13.4055 C   0  0  0  0  0  0  0  0  0  0  0  0
   -2.5361    7.0784   13.8620 C   0  0  0  0  0  0  0  0  0  0  0  0
   -3.8168    6.9648   13.2712 C   0  0  0  0  0  0  0  0  0  0  0  0
   -3.9351    6.1397   12.1943 C   0  0  0  0  0  0  0  0  0  0  0  0
   -5.2733    5.9979   11.5522 C   0  0  0  0  0  0  0  0  0  0  0  0
   -2.8271    5.4391   11.7089 C   0  0  0  0  0  0  0  0  0  0  0  0
   -3.0418    4.5579   10.5507 C   0  0  0  0  0  0  0  0  0  0  0  0
   -1.5827    5.5785   12.3197 C   0  0  0  0  0  0  0  0  0  0  0  0
 19 20  1  0  0  0
 20 10  1  0  0  0
 10 11  2  0  0  0
 11 12  1  0  0  0
 12 13  2  0  0  0
 13 14  1  0  0  0
 14 15  2  0  0  0
 15 16  1  0  0  0
 16 17  1  0  0  0
 12  1  1  0  0  0
  1  2  2  0  0  0
  2  3  1  0  0  0
  3  4  2  0  0  0
  4  5  1  0  0  0
  4  6  1  0  0  0
  6  7  2  0  0  0
  6 21  1  0  0  0
 21 22  2  0  0  0
 21 23  1  0  0  0
 23 25  1  0  0  0
 25 26  1  0  0  0
 26 27  1  0  0  0
 27 28  1  0  0  0
 28 29  1  0  0  0
 29 30  1  0  0  0
 30 31  1  0  0  0
 31 32  1  0  0  0
 32 33  2  0  0  0
 33 34  1  0  0  0
 34 35  2  0  0  0
 35 36  1  0  0  0
 35 37  1  0  0  0
 37 38  1  0  0  0
 37 39  2  0  0  0
 15 10  1  0  0  0
  7  1  1  0  0  0
 29 25  1  0  0  0
 39 32  1  0  0  0
 17 18  1  0  0  0
  5  8  1  0  0  0
  5  9  1  0  0  0
 23 24  1  0  0  0
M  END
> <minimizedAffinity>
-9.55980

> <CNNscore>
0.4420445859

> <CNNaffinity>
6.3970484734

> <CNN_VS>
2.8277807236

> <CNNaffinity_variance>
0.3525662422

$$$$
[H]OC([H])([H])c1c([H])c([H])c(-c2c([H])nc(N([H])[H])c(C(=O)N([H])[C@@]3([H])C([H])([H])C([H])([H])C([H])([H])[C@]3([H])OC([H])([H])c3c([H])c([H])c(C([H])([H])[H])c(C([H])([H])[H])c3[H])c2[H])c([H])c1OC([H])([H])[H]


 39 42  0  0  0  0  0  0  0  0999 V2000
    3.6414    2.3145   17.3629 C   0  0  0  0  0  0  0  0  0  0  0  0
    3.0743    1.0611   17.0810 C   0  0  0  0  0  0  0  0  0  0  0  0
    2.4412    0.8884   15.9185 N   0  0  0  0  0  0  0  0  0  0  0  0
    2.3303    1.8801   15.0125 C   0  0  0  0  0  0  0  0  0  0  0  0
    1.6491    1.5699   13.7685 N   0  0  0  0  0  0  0  0  0  0  0  0
    2.8710    3.1250   15.2499 C   0  0  0  0  0  0  0  0  0  0  0  0
    3.5301    3.3233   16.4416 C   0  0  0  0  0  0  0  0  0  0  0  0
    2.1840    1.3701   12.8931 H   0  0  0  0  0  0  0  0  0  0  0  0
    0.6149    1.5524   13.7966 H   0  0  0  0  0  0  0  0  0  0  0  0
    5.3023    4.1769   20.1577 C   0  0  0  0  0  0  0  0  0  0  0  0
    4.6353    3.8831   18.9784 C   0  0  0  0  0  0  0  0  0  0  0  0
    4.3123    2.5528   18.6499 C   0  0  0  0  0  0  0  0  0  0  0  0
    4.6725    1.5779   19.5203 C   0  0  0  0  0  0  0  0  0  0  0  0
    5.3415    1.8870   20.6963 C   0  0  0  0  0  0  0  0  0  0  0  0
    5.6694    3.1741   21.0406 C   0  0  0  0  0  0  0  0  0  0  0  0
    6.3818    3.4565   22.3032 C   0  0  0  0  0  0  0  0  0  0  0  0
    5.5831    4.1853   23.1639 O   0  0  0  0  0  0  0  0  0  0  0  0
    5.3950    5.0982   22.8763 H   0  0  0  0  0  0  0  0  0  0  0  0
    6.3685    6.3769   19.7753 C   0  0  0  0  0  0  0  0  0  0  0  0
    5.6482    5.4657   20.5409 O   0  0  0  0  0  0  0  0  0  0  0  0
    2.6426    4.1869   14.2590 C   0  0  0  0  0  0  0  0  0  0  0  0
    1.4678    4.6125   14.1867 O   0  0  0  0  0  0  0  0  0  0  0  0
    3.6397    4.7105   13.4401 N   0  0  0  0  0  0  0  0  0  0  0  0
    4.6109    4.2332   13.5932 H   0  0  0  0  0  0  0  0  0  0  0  0
    3.6847    5.7347   12.4581 C   0  0  0  0  0  0  0  0  0  0  0  0
    3.5357    7.0859   13.1516 C   0  0  0  0  0  0  0  0  0  0  0  0
    4.8722    7.7932   12.8125 C   0  0  0  0  0  0  0  0  0  0  0  0
    4.9595    7.4040   11.3394 C   0  0  0  0  0  0  0  0  0  0  0  0
    4.8422    5.8505   11.5542 C   0  0  0  0  0  0  0  0  0  0  0  0
    4.6032    5.3409   10.2512 O   0  0  0  0  0  0  0  0  0  0  0  0
    3.5029    4.5364   10.2811 C   0  0  0  0  0  0  0  0  0  0  0  0
    3.8013    3.1129    9.9733 C   0  0  0  0  0  0  0  0  0  0  0  0
    2.9253    2.1829   10.4159 C   0  0  0  0  0  0  0  0  0  0  0  0
    3.0935    0.7963   10.1899 C   0  0  0  0  0  0  0  0  0  0  0  0
    4.1960    0.4083    9.4909 C   0  0  0  0  0  0  0  0  0  0  0  0
    4.4013   -1.0470    9.2396 C   0  0  0  0  0  0  0  0  0  0  0  0
    5.1144    1.3544    9.0270 C   0  0  0  0  0  0  0  0  0  0  0  0
    6.2858    0.8523    8.2924 C   0  0  0  0  0  0  0  0  0  0  0  0
    4.9120    2.7112    9.2710 C   0  0  0  0  0  0  0  0  0  0  0  0
 19 20  1  0  0  0
 20 10  1  0  0  0
 10 11  2  0  0  0
 11 12  1  0  0  0
 12 13  2  0  0  0
 13 14  1  0  0  0
 14 15  2  0  0  0
 15 16  1  0  0  0
 16 17  1  0  0  0
 12  1  1  0  0  0
  1  2  2  0  0  0
  2  3  1  0  0  0
  3  4  2  0  0  0
  4  5  1  0  0  0
  4  6  1  0  0  0
  6  7  2  0  0  0
  6 21  1  0  0  0
 21 22  2  0  0  0
 21 23  1  0  0  0
 23 25  1  0  0  0
 25 26  1  0  0  0
 26 27  1  0  0  0
 27 28  1  0  0  0
 28 29  1  0  0  0
 29 30  1  0  0  0
 30 31  1  0  0  0
 31 32  1  0  0  0
 32 33  2  0  0  0
 33 34  1  0  0  0
 34 35  2  0  0  0
 35 36  1  0  0  0
 35 37  1  0  0  0
 37 38  1  0  0  0
 37 39  2  0  0  0
 15 10  1  0  0  0
  7  1  1  0  0  0
 29 25  1  0  0  0
 39 32  1  0  0  0
 17 18  1  0  0  0
  5  8  1  0  0  0
  5  9  1  0  0  0
 23 24  1  0  0  0
M  END
> <minimizedAffinity>
-7.76452

> <CNNscore>
0.3570740521

> <CNNaffinity>
6.3756804466

> <CNN_VS>
2.2765901089

> <CNNaffinity_variance>
0.2831372619

$$$$
[H]OC([H])([H])c1c([H])c([H])c(-c2c([H])nc(N([H])[H])c(C(=O)N([H])[C@@]3([H])C([H])([H])C([H])([H])C([H])([H])[C@]3([H])OC([H])([H])c3c([H])c([H])c(C([H])([H])[H])c(C([H])([H])[H])c3[H])c2[H])c([H])c1OC([H])([H])[H]


 39 42  0  0  0  0  0  0  0  0999 V2000
    3.7025    2.2668   17.3831 C   0  0  0  0  0  0  0  0  0  0  0  0
    2.9888    1.0758   17.1721 C   0  0  0  0  0  0  0  0  0  0  0  0
    2.3766    0.8920   16.0002 N   0  0  0  0  0  0  0  0  0  0  0  0
    2.4227    1.8147   15.0188 C   0  0  0  0  0  0  0  0  0  0  0  0
    1.7476    1.4943   13.7740 N   0  0  0  0  0  0  0  0  0  0  0  0
    3.1105    2.9969   15.1849 C   0  0  0  0  0  0  0  0  0  0  0  0
    3.7510    3.2052   16.3851 C   0  0  0  0  0  0  0  0  0  0  0  0
    2.2804    1.1602   12.9392 H   0  0  0  0  0  0  0  0  0  0  0  0
    0.7194    1.6088   13.7599 H   0  0  0  0  0  0  0  0  0  0  0  0
    5.3323    4.1621   20.1740 C   0  0  0  0  0  0  0  0  0  0  0  0
    4.6803    3.8542   18.9899 C   0  0  0  0  0  0  0  0  0  0  0  0
    4.3567    2.5207   18.6756 C   0  0  0  0  0  0  0  0  0  0  0  0
    4.7012    1.5567   19.5644 C   0  0  0  0  0  0  0  0  0  0  0  0
    5.3553    1.8799   20.7450 C   0  0  0  0  0  0  0  0  0  0  0  0
    5.6835    3.1706   21.0757 C   0  0  0  0  0  0  0  0  0  0  0  0
    6.3797    3.4680   22.3439 C   0  0  0  0  0  0  0  0  0  0  0  0
    5.6233    4.3157   23.1308 O   0  0  0  0  0  0  0  0  0  0  0  0
    5.5260    5.2218   22.7830 H   0  0  0  0  0  0  0  0  0  0  0  0
    6.1340    6.4521   19.6877 C   0  0  0  0  0  0  0  0  0  0  0  0
    5.6780    5.4549   20.5438 O   0  0  0  0  0  0  0  0  0  0  0  0
    3.0519    3.9970   14.1088 C   0  0  0  0  0  0  0  0  0  0  0  0
    3.9045    3.8633   13.2022 O   0  0  0  0  0  0  0  0  0  0  0  0
    2.1253    5.0354   14.0651 N   0  0  0  0  0  0  0  0  0  0  0  0
    1.4560    5.0455   14.9291 H   0  0  0  0  0  0  0  0  0  0  0  0
    1.8430    6.0788   13.1449 C   0  0  0  0  0  0  0  0  0  0  0  0
    1.2076    7.2417   13.9019 C   0  0  0  0  0  0  0  0  0  0  0  0
    2.2234    8.3905   13.6785 C   0  0  0  0  0  0  0  0  0  0  0  0
    2.4914    8.1616   12.1937 C   0  0  0  0  0  0  0  0  0  0  0  0
    2.9172    6.6526   12.3160 C   0  0  0  0  0  0  0  0  0  0  0  0
    2.9161    6.1859   10.9754 O   0  0  0  0  0  0  0  0  0  0  0  0
    1.8872    6.7719   10.2995 C   0  0  0  0  0  0  0  0  0  0  0  0
    0.7321    5.8632   10.0752 C   0  0  0  0  0  0  0  0  0  0  0  0
   -0.5070    6.3772   10.2447 C   0  0  0  0  0  0  0  0  0  0  0  0
   -1.6875    5.6188   10.0627 C   0  0  0  0  0  0  0  0  0  0  0  0
   -1.5403    4.3147    9.6989 C   0  0  0  0  0  0  0  0  0  0  0  0
   -2.7667    3.4898    9.5022 C   0  0  0  0  0  0  0  0  0  0  0  0
   -0.2677    3.7644    9.5209 C   0  0  0  0  0  0  0  0  0  0  0  0
   -0.1947    2.3451    9.1413 C   0  0  0  0  0  0  0  0  0  0  0  0
    0.8703    4.5456    9.7104 C   0  0  0  0  0  0  0  0  0  0  0  0
 19 20  1  0  0  0
 20 10  1  0  0  0
 10 11  2  0  0  0
 11 12  1  0  0  0
 12 13  2  0  0  0
 13 14  1  0  0  0
 14 15  2  0  0  0
 15 16  1  0  0  0
 16 17  1  0  0  0
 12  1  1  0  0  0
  1  2  2  0  0  0
  2  3  1  0  0  0
  3  4  2  0  0  0
  4  5  1  0  0  0
  4  6  1  0  0  0
  6  7  2  0  0  0
  6 21  1  0  0  0
 21 22  2  0  0  0
 21 23  1  0  0  0
 23 25  1  0  0  0
 25 26  1  0  0  0
 26 27  1  0  0  0
 27 28  1  0  0  0
 28 29  1  0  0  0
 29 30  1  0  0  0
 30 31  1  0  0  0
 31 32  1  0  0  0
 32 33  2  0  0  0
 33 34  1  0  0  0
 34 35  2  0  0  0
 35 36  1  0  0  0
 35 37  1  0  0  0
 37 38  1  0  0  0
 37 39  2  0  0  0
 15 10  1  0  0  0
  7  1  1  0  0  0
 29 25  1  0  0  0
 39 32  1  0  0  0
 17 18  1  0  0  0
  5  8  1  0  0  0
  5  9  1  0  0  0
 23 24  1  0  0  0
M  END
> <minimizedAffinity>
-7.60591

> <CNNscore>
0.2839951515

> <CNNaffinity>
6.0891723633

> <CNN_VS>
1.7292953730

> <CNNaffinity_variance>
0.4552103877

$$$$
[H]O[C@]1([H])C([H])([H])C([H])([H])[C@@]([H])(N([H])c2nc(N([H])C([H])([H])C([H])([H])C([H])([H])C([H])([H])[H])nc([H])c2-c2nc([H])nc(N([H])c3c([H])c([H])c(OC([H])([H])[H])c([H])c3[H])c2[H])C([H])([H])C1([H])[H]


 38 41  0  0  0  0  0  0  0  0999 V2000
    2.9957    0.1349   18.7798 C   0  0  0  0  0  0  0  0  0  0  0  0
    2.4430   -0.2869   17.6357 N   0  0  0  0  0  0  0  0  0  0  0  0
    2.5364    0.4447   16.5164 C   0  0  0  0  0  0  0  0  0  0  0  0
    3.2037    1.6787   16.4590 C   0  0  0  0  0  0  0  0  0  0  0  0
    3.7567    2.0884   17.6318 C   0  0  0  0  0  0  0  0  0  0  0  0
    3.6320    1.2999   18.7487 N   0  0  0  0  0  0  0  0  0  0  0  0
    3.2034    2.3652   15.1944 C   0  0  0  0  0  0  0  0  0  0  0  0
    2.4042    1.9839   14.1240 C   0  0  0  0  0  0  0  0  0  0  0  0
    2.4002    2.6878   12.9051 C   0  0  0  0  0  0  0  0  0  0  0  0
    3.1937    3.7472   12.7983 N   0  0  0  0  0  0  0  0  0  0  0  0
    3.9671    4.1305   13.8110 C   0  0  0  0  0  0  0  0  0  0  0  0
    3.9518    3.4431   14.9591 N   0  0  0  0  0  0  0  0  0  0  0  0
    1.5522    2.2568   11.8625 N   0  0  0  0  0  0  0  0  0  0  0  0
    0.5923    2.7690   11.8636 H   0  0  0  0  0  0  0  0  0  0  0  0
    1.7699    1.3022   10.8786 C   0  0  0  0  0  0  0  0  0  0  0  0
    2.9563    0.9608   10.3079 C   0  0  0  0  0  0  0  0  0  0  0  0
    3.0763   -0.0089    9.2970 C   0  0  0  0  0  0  0  0  0  0  0  0
    1.9526   -0.6503    8.8550 C   0  0  0  0  0  0  0  0  0  0  0  0
    0.7303   -0.3352    9.4067 C   0  0  0  0  0  0  0  0  0  0  0  0
    0.6371    0.6183   10.3956 C   0  0  0  0  0  0  0  0  0  0  0  0
    2.0097   -1.6115    7.8648 O   0  0  0  0  0  0  0  0  0  0  0  0
    3.2282   -1.9583    7.2674 C   0  0  0  0  0  0  0  0  0  0  0  0
    2.8771   -0.6631   19.9372 N   0  0  0  0  0  0  0  0  0  0  0  0
    2.2218   -1.4709   19.9309 H   0  0  0  0  0  0  0  0  0  0  0  0
    3.6370   -0.3814   21.1085 C   0  0  0  0  0  0  0  0  0  0  0  0
    3.0301    0.5972   22.0553 C   0  0  0  0  0  0  0  0  0  0  0  0
    5.3879    1.3299   21.7861 C   0  0  0  0  0  0  0  0  0  0  0  0
    4.0254    1.7357   22.3208 C   0  0  0  0  0  0  0  0  0  0  0  0
    4.4266    3.3235   17.7311 N   0  0  0  0  0  0  0  0  0  0  0  0
    5.1405    3.6735   17.1108 H   0  0  0  0  0  0  0  0  0  0  0  0
    4.0550    4.2275   18.8402 C   0  0  0  0  0  0  0  0  0  0  0  0
    5.3041    4.8010   19.4359 C   0  0  0  0  0  0  0  0  0  0  0  0
    5.9331    5.7961   18.5102 C   0  0  0  0  0  0  0  0  0  0  0  0
    5.0221    6.9782   18.3605 C   0  0  0  0  0  0  0  0  0  0  0  0
    5.5105    8.0183   19.1584 O   0  0  0  0  0  0  0  0  0  0  0  0
    3.6372    6.6427   18.8074 C   0  0  0  0  0  0  0  0  0  0  0  0
    3.1506    5.2952   18.3097 C   0  0  0  0  0  0  0  0  0  0  0  0
    5.2160    7.8783   20.1064 H   0  0  0  0  0  0  0  0  0  0  0  0
 27 28  1  0  0  0
 28 26  1  0  0  0
 26 25  1  0  0  0
 25 23  1  0  0  0
 23  1  1  0  0  0
  1  2  2  0  0  0
  2  3  1  0  0  0
  3  4  2  0  0  0
  4  5  1  0  0  0
  5 29  1  0  0  0
 29 31  1  0  0  0
 31 32  1  0  0  0
 32 33  1  0  0  0
 33 34  1  0  0  0
 34 35  1  0  0  0
 34 36  1  0  0  0
 36 37  1  0  0  0
  5  6  2  0  0  0
  4  7  1  0  0  0
  7  8  2  0  0  0
  8  9  1  0  0  0
  9 13  1  0  0  0
 13 15  1  0  0  0
 15 16  2  0  0  0
 16 17  1  0  0  0
 17 18  2  0  0  0
 18 21  1  0  0  0
 21 22  1  0  0  0
 18 19  1  0  0  0
 19 20  2  0  0  0
  9 10  2  0  0  0
 10 11  1  0  0  0
 11 12  2  0  0  0
  6  1  1  0  0  0
 12  7  1  0  0  0
 37 31  1  0  0  0
 20 15  1  0  0  0
 23 24  1  0  0  0
 29 30  1  0  0  0
 35 38  1  0  0  0
 13 14  1  0  0  0
M  END
> <minimizedAffinity>
-7.73769

> <CNNscore>
0.9281584620

> <CNNaffinity>
7.5839600563

> <CNN_VS>
7.0391168594

> <CNNaffinity_variance>
0.0583609454

$$$$
[H]O[C@]1([H])C([H])([H])C([H])([H])[C@@]([H])(N([H])c2nc(N([H])C([H])([H])C([H])([H])C([H])([H])C([H])([H])[H])nc([H])c2-c2nc([H])nc(N([H])c3c([H])c([H])c(OC([H])([H])[H])c([H])c3[H])c2[H])C([H])([H])C1([H])[H]


 38 41  0  0  0  0  0  0  0  0999 V2000
    3.1181    1.9314   15.0956 C   0  0  0  0  0  0  0  0  0  0  0  0
    2.5191    0.9133   15.7259 N   0  0  0  0  0  0  0  0  0  0  0  0
    2.7180    0.7027   17.0347 C   0  0  0  0  0  0  0  0  0  0  0  0
    3.5490    1.5123   17.8254 C   0  0  0  0  0  0  0  0  0  0  0  0
    4.1478    2.5394   17.1652 C   0  0  0  0  0  0  0  0  0  0  0  0
    3.9090    2.7105   15.8241 N   0  0  0  0  0  0  0  0  0  0  0  0
    3.6870    1.1527   19.2117 C   0  0  0  0  0  0  0  0  0  0  0  0
    4.4335    1.8955   20.1178 C   0  0  0  0  0  0  0  0  0  0  0  0
    4.5315    1.5396   21.4761 C   0  0  0  0  0  0  0  0  0  0  0  0
    3.8807    0.4553   21.8814 N   0  0  0  0  0  0  0  0  0  0  0  0
    3.1595   -0.2706   21.0309 C   0  0  0  0  0  0  0  0  0  0  0  0
    3.0834    0.0901   19.7444 N   0  0  0  0  0  0  0  0  0  0  0  0
    5.2937    2.3469   22.3474 N   0  0  0  0  0  0  0  0  0  0  0  0
    5.6636    1.7987   23.2113 H   0  0  0  0  0  0  0  0  0  0  0  0
    5.6172    3.6935   22.2543 C   0  0  0  0  0  0  0  0  0  0  0  0
    6.8346    4.2327   21.9762 C   0  0  0  0  0  0  0  0  0  0  0  0
    7.0723    5.6173   21.9243 C   0  0  0  0  0  0  0  0  0  0  0  0
    6.0373    6.4784   22.1626 C   0  0  0  0  0  0  0  0  0  0  0  0
    4.7874    5.9744   22.4477 C   0  0  0  0  0  0  0  0  0  0  0  0
    4.5783    4.6142   22.4934 C   0  0  0  0  0  0  0  0  0  0  0  0
    6.2117    7.8480   22.1251 O   0  0  0  0  0  0  0  0  0  0  0  0
    5.1296    8.7055   21.8892 C   0  0  0  0  0  0  0  0  0  0  0  0
    2.8837    2.1217   13.7175 N   0  0  0  0  0  0  0  0  0  0  0  0
    3.6952    2.2171   13.0738 H   0  0  0  0  0  0  0  0  0  0  0  0
    1.5597    2.1850   13.1961 C   0  0  0  0  0  0  0  0  0  0  0  0
    1.3971    1.7369   11.7836 C   0  0  0  0  0  0  0  0  0  0  0  0
    2.6714    0.9408    9.8059 C   0  0  0  0  0  0  0  0  0  0  0  0
    2.7607    1.7650   11.0786 C   0  0  0  0  0  0  0  0  0  0  0  0
    5.0358    3.4119   17.8241 N   0  0  0  0  0  0  0  0  0  0  0  0
    5.6272    3.1895   18.6101 H   0  0  0  0  0  0  0  0  0  0  0  0
    5.1447    4.7990   17.3244 C   0  0  0  0  0  0  0  0  0  0  0  0
    3.7673    5.3691   17.1761 C   0  0  0  0  0  0  0  0  0  0  0  0
    3.1507    5.6392   18.5138 C   0  0  0  0  0  0  0  0  0  0  0  0
    3.9234    6.7227   19.2058 C   0  0  0  0  0  0  0  0  0  0  0  0
    3.2111    7.9208   19.0867 O   0  0  0  0  0  0  0  0  0  0  0  0
    5.2672    6.9012   18.5792 C   0  0  0  0  0  0  0  0  0  0  0  0
    5.9753    5.5930   18.2830 C   0  0  0  0  0  0  0  0  0  0  0  0
    3.3921    8.3289   18.1890 H   0  0  0  0  0  0  0  0  0  0  0  0
 27 28  1  0  0  0
 28 26  1  0  0  0
 26 25  1  0  0  0
 25 23  1  0  0  0
 23  1  1  0  0  0
  1  2  2  0  0  0
  2  3  1  0  0  0
  3  4  2  0  0  0
  4  5  1  0  0  0
  5 29  1  0  0  0
 29 31  1  0  0  0
 31 32  1  0  0  0
 32 33  1  0  0  0
 33 34  1  0  0  0
 34 35  1  0  0  0
 34 36  1  0  0  0
 36 37  1  0  0  0
  5  6  2  0  0  0
  4  7  1  0  0  0
  7  8  2  0  0  0
  8  9  1  0  0  0
  9 13  1  0  0  0
 13 15  1  0  0  0
 15 16  2  0  0  0
 16 17  1  0  0  0
 17 18  2  0  0  0
 18 21  1  0  0  0
 21 22  1  0  0  0
 18 19  1  0  0  0
 19 20  2  0  0  0
  9 10  2  0  0  0
 10 11  1  0  0  0
 11 12  2  0  0  0
  6  1  1  0  0  0
 12  7  1  0  0  0
 37 31  1  0  0  0
 20 15  1  0  0  0
 23 24  1  0  0  0
 29 30  1  0  0  0
 35 38  1  0  0  0
 13 14  1  0  0  0
M  END
> <minimizedAffinity>
-8.41699

> <CNNscore>
0.7047053576

> <CNNaffinity>
7.5484704971

> <CNN_VS>
5.3194475174

> <CNNaffinity_variance>
0.1076340675

$$$$
[H]O[C@]1([H])C([H])([H])C([H])([H])[C@@]([H])(N([H])c2nc(N([H])C([H])([H])C([H])([H])C([H])([H])C([H])([H])[H])nc([H])c2-c2nc([H])nc(N([H])c3c([H])c([H])c(OC([H])([H])[H])c([H])c3[H])c2[H])C([H])([H])C1([H])[H]


 38 41  0  0  0  0  0  0  0  0999 V2000
    2.8808    0.4281   18.2509 C   0  0  0  0  0  0  0  0  0  0  0  0
    2.4297    0.1107   17.0310 N   0  0  0  0  0  0  0  0  0  0  0  0
    2.4582    1.0054   16.0333 C   0  0  0  0  0  0  0  0  0  0  0  0
    2.9501    2.3115   16.1866 C   0  0  0  0  0  0  0  0  0  0  0  0
    3.4022    2.6128   17.4332 C   0  0  0  0  0  0  0  0  0  0  0  0
    3.3508    1.6586   18.4190 N   0  0  0  0  0  0  0  0  0  0  0  0
    2.8969    3.1711   15.0340 C   0  0  0  0  0  0  0  0  0  0  0  0
    1.9699    4.1963   14.8940 C   0  0  0  0  0  0  0  0  0  0  0  0
    1.9546    5.0428   13.7695 C   0  0  0  0  0  0  0  0  0  0  0  0
    2.8650    4.8359   12.8252 N   0  0  0  0  0  0  0  0  0  0  0  0
    3.7625    3.8602   12.9389 C   0  0  0  0  0  0  0  0  0  0  0  0
    3.7547    3.0695   14.0186 N   0  0  0  0  0  0  0  0  0  0  0  0
    0.9957    6.0759   13.6969 N   0  0  0  0  0  0  0  0  0  0  0  0
    1.3868    7.0354   14.0289 H   0  0  0  0  0  0  0  0  0  0  0  0
   -0.3272    6.0312   13.2792 C   0  0  0  0  0  0  0  0  0  0  0  0
   -0.8565    5.2550   12.2956 C   0  0  0  0  0  0  0  0  0  0  0  0
   -2.2123    5.2945   11.9261 C   0  0  0  0  0  0  0  0  0  0  0  0
   -3.0543    6.1509   12.5797 C   0  0  0  0  0  0  0  0  0  0  0  0
   -2.5595    6.9547   13.5830 C   0  0  0  0  0  0  0  0  0  0  0  0
   -1.2276    6.8990   13.9276 C   0  0  0  0  0  0  0  0  0  0  0  0
   -4.3954    6.2326   12.2596 O   0  0  0  0  0  0  0  0  0  0  0  0
   -5.0142    5.2383   11.4913 C   0  0  0  0  0  0  0  0  0  0  0  0
    2.8353   -0.5405   19.2756 N   0  0  0  0  0  0  0  0  0  0  0  0
    2.2813   -1.4085   19.1283 H   0  0  0  0  0  0  0  0  0  0  0  0
    3.5328   -0.3497   20.5027 C   0  0  0  0  0  0  0  0  0  0  0  0
    2.8175    0.4503   21.5374 C   0  0  0  0  0  0  0  0  0  0  0  0
    5.1524    1.2963   21.5706 C   0  0  0  0  0  0  0  0  0  0  0  0
    3.7340    1.5765   22.0363 C   0  0  0  0  0  0  0  0  0  0  0  0
    3.8914    3.8971   17.7419 N   0  0  0  0  0  0  0  0  0  0  0  0
    3.4172    4.7746   17.5930 H   0  0  0  0  0  0  0  0  0  0  0  0
    5.2290    3.9996   18.3630 C   0  0  0  0  0  0  0  0  0  0  0  0
    6.1118    4.8241   17.4770 C   0  0  0  0  0  0  0  0  0  0  0  0
    5.7138    6.2673   17.5150 C   0  0  0  0  0  0  0  0  0  0  0  0
    5.9615    6.8134   18.8899 C   0  0  0  0  0  0  0  0  0  0  0  0
    7.1451    7.5587   18.8645 O   0  0  0  0  0  0  0  0  0  0  0  0
    6.1139    5.7077   19.8822 C   0  0  0  0  0  0  0  0  0  0  0  0
    5.0838    4.6059   19.7233 C   0  0  0  0  0  0  0  0  0  0  0  0
    7.9306    6.9404   18.9402 H   0  0  0  0  0  0  0  0  0  0  0  0
 27 28  1  0  0  0
 28 26  1  0  0  0
 26 25  1  0  0  0
 25 23  1  0  0  0
 23  1  1  0  0  0
  1  2  2  0  0  0
  2  3  1  0  0  0
  3  4  2  0  0  0
  4  5  1  0  0  0
  5 29  1  0  0  0
 29 31  1  0  0  0
 31 32  1  0  0  0
 32 33  1  0  0  0
 33 34  1  0  0  0
 34 35  1  0  0  0
 34 36  1  0  0  0
 36 37  1  0  0  0
  5  6  2  0  0  0
  4  7  1  0  0  0
  7  8  2  0  0  0
  8  9  1  0  0  0
  9 13  1  0  0  0
 13 15  1  0  0  0
 15 16  2  0  0  0
 16 17  1  0  0  0
 17 18  2  0  0  0
 18 21  1  0  0  0
 21 22  1  0  0  0
 18 19  1  0  0  0
 19 20  2  0  0  0
  9 10  2  0  0  0
 10 11  1  0  0  0
 11 12  2  0  0  0
  6  1  1  0  0  0
 12  7  1  0  0  0
 37 31  1  0  0  0
 20 15  1  0  0  0
 23 24  1  0  0  0
 29 30  1  0  0  0
 35 38  1  0  0  0
 13 14  1  0  0  0
M  END
> <minimizedAffinity>
-7.55857

> <CNNscore>
0.7046493292

> <CNNaffinity>
7.2603011131

> <CNN_VS>
5.1159663200

> <CNNaffinity_variance>
0.1011548638

$$$$
[H]O[C@]1([H])C([H])([H])C([H])([H])[C@@]([H])(N([H])c2nc(N([H])C([H])([H])C([H])([H])C([H])([H])C([H])([H])[H])nc([H])c2-c2nc([H])nc(N([H])c3c([H])c([H])c(OC([H])([H])[H])c([H])c3[H])c2[H])C([H])([H])C1([H])[H]


 38 41  0  0  0  0  0  0  0  0999 V2000
    4.6652    6.8781   18.4738 C   0  0  0  0  0  0  0  0  0  0  0  0
    3.9336    6.6476   17.3765 N   0  0  0  0  0  0  0  0  0  0  0  0
    3.5747    5.4010   17.0389 C   0  0  0  0  0  0  0  0  0  0  0  0
    3.9299    4.2694   17.7903 C   0  0  0  0  0  0  0  0  0  0  0  0
    4.6734    4.5261   18.8996 C   0  0  0  0  0  0  0  0  0  0  0  0
    5.0128    5.8221   19.1999 N   0  0  0  0  0  0  0  0  0  0  0  0
    3.4944    2.9907   17.2946 C   0  0  0  0  0  0  0  0  0  0  0  0
    2.7298    2.8433   16.1441 C   0  0  0  0  0  0  0  0  0  0  0  0
    2.3387    1.5798   15.6626 C   0  0  0  0  0  0  0  0  0  0  0  0
    2.7250    0.5089   16.3462 N   0  0  0  0  0  0  0  0  0  0  0  0
    3.4580    0.6269   17.4503 C   0  0  0  0  0  0  0  0  0  0  0  0
    3.8161    1.8404   17.8865 N   0  0  0  0  0  0  0  0  0  0  0  0
    1.5752    1.4991   14.4782 N   0  0  0  0  0  0  0  0  0  0  0  0
    0.8510    0.6875   14.5004 H   0  0  0  0  0  0  0  0  0  0  0  0
    1.6266    2.2832   13.3340 C   0  0  0  0  0  0  0  0  0  0  0  0
    0.8056    3.3161   13.0035 C   0  0  0  0  0  0  0  0  0  0  0  0
    0.9219    4.0420   11.8053 C   0  0  0  0  0  0  0  0  0  0  0  0
    1.9054    3.7051   10.9172 C   0  0  0  0  0  0  0  0  0  0  0  0
    2.7594    2.6654   11.2129 C   0  0  0  0  0  0  0  0  0  0  0  0
    2.6262    1.9683   12.3928 C   0  0  0  0  0  0  0  0  0  0  0  0
    2.0673    4.3827    9.7246 O   0  0  0  0  0  0  0  0  0  0  0  0
    2.6041    5.6762    9.6984 C   0  0  0  0  0  0  0  0  0  0  0  0
    5.0229    8.2039   18.7971 N   0  0  0  0  0  0  0  0  0  0  0  0
    5.8160    8.6518   18.2948 H   0  0  0  0  0  0  0  0  0  0  0  0
    4.3183    8.9355   19.7958 C   0  0  0  0  0  0  0  0  0  0  0  0
    4.9217   10.2403   20.1903 C   0  0  0  0  0  0  0  0  0  0  0  0
    5.9274    9.5103   22.3407 C   0  0  0  0  0  0  0  0  0  0  0  0
    6.2412    9.9889   20.9338 C   0  0  0  0  0  0  0  0  0  0  0  0
    5.1311    3.4838   19.7291 N   0  0  0  0  0  0  0  0  0  0  0  0
    6.0058    2.9884   19.6475 H   0  0  0  0  0  0  0  0  0  0  0  0
    4.2685    3.0611   20.8528 C   0  0  0  0  0  0  0  0  0  0  0  0
    4.8177    1.7945   21.4344 C   0  0  0  0  0  0  0  0  0  0  0  0
    6.0870    2.0544   22.1855 C   0  0  0  0  0  0  0  0  0  0  0  0
    5.7886    2.9081   23.3821 C   0  0  0  0  0  0  0  0  0  0  0  0
    5.7612    2.0889   24.5157 O   0  0  0  0  0  0  0  0  0  0  0  0
    4.4598    3.5751   23.2419 C   0  0  0  0  0  0  0  0  0  0  0  0
    4.2201    4.1627   21.8644 C   0  0  0  0  0  0  0  0  0  0  0  0
    4.8675    1.6392   24.5809 H   0  0  0  0  0  0  0  0  0  0  0  0
 27 28  1  0  0  0
 28 26  1  0  0  0
 26 25  1  0  0  0
 25 23  1  0  0  0
 23  1  1  0  0  0
  1  2  2  0  0  0
  2  3  1  0  0  0
  3  4  2  0  0  0
  4  5  1  0  0  0
  5 29  1  0  0  0
 29 31  1  0  0  0
 31 32  1  0  0  0
 32 33  1  0  0  0
 33 34  1  0  0  0
 34 35  1  0  0  0
 34 36  1  0  0  0
 36 37  1  0  0  0
  5  6  2  0  0  0
  4  7  1  0  0  0
  7  8  2  0  0  0
  8  9  1  0  0  0
  9 13  1  0  0  0
 13 15  1  0  0  0
 15 16  2  0  0  0
 16 17  1  0  0  0
 17 18  2  0  0  0
 18 21  1  0  0  0
 21 22  1  0  0  0
 18 19  1  0  0  0
 19 20  2  0  0  0
  9 10  2  0  0  0
 10 11  1  0  0  0
 11 12  2  0  0  0
  6  1  1  0  0  0
 12  7  1  0  0  0
 37 31  1  0  0  0
 20 15  1  0  0  0
 23 24  1  0  0  0
 29 30  1  0  0  0
 35 38  1  0  0  0
 13 14  1  0  0  0
M  END
> <minimizedAffinity>
-7.60359

> <CNNscore>
0.4511328638

> <CNNaffinity>
7.2391190529

> <CNN_VS>
3.2658045292

> <CNNaffinity_variance>
0.2589924932

$$$$
[H]O[C@]1([H])C([H])([H])C([H])([H])[C@@]([H])(N([H])c2nc(N([H])C([H])([H])C([H])([H])C([H])([H])C([H])([H])[H])nc([H])c2-c2nc([H])nc(N([H])c3c([H])c([H])c(OC([H])([H])[H])c([H])c3[H])c2[H])C([H])([H])C1([H])[H]


 38 41  0  0  0  0  0  0  0  0999 V2000
    3.4390    1.5709   16.6876 C   0  0  0  0  0  0  0  0  0  0  0  0
    3.1796    0.8108   17.7587 N   0  0  0  0  0  0  0  0  0  0  0  0
    3.6383    1.1520   18.9712 C   0  0  0  0  0  0  0  0  0  0  0  0
    4.4073    2.3032   19.2054 C   0  0  0  0  0  0  0  0  0  0  0  0
    4.6596    3.0599   18.1040 C   0  0  0  0  0  0  0  0  0  0  0  0
    4.1650    2.6649   16.8858 N   0  0  0  0  0  0  0  0  0  0  0  0
    4.8515    2.5309   20.5549 C   0  0  0  0  0  0  0  0  0  0  0  0
    5.7836    3.5038   20.8932 C   0  0  0  0  0  0  0  0  0  0  0  0
    6.1824    3.7272   22.2244 C   0  0  0  0  0  0  0  0  0  0  0  0
    5.6365    2.9718   23.1704 N   0  0  0  0  0  0  0  0  0  0  0  0
    4.7415    2.0345   22.8690 C   0  0  0  0  0  0  0  0  0  0  0  0
    4.3800    1.8427   21.5948 N   0  0  0  0  0  0  0  0  0  0  0  0
    7.1223    4.7430   22.5017 N   0  0  0  0  0  0  0  0  0  0  0  0
    7.8856    4.4265   23.2094 H   0  0  0  0  0  0  0  0  0  0  0  0
    7.1964    6.0406   22.0144 C   0  0  0  0  0  0  0  0  0  0  0  0
    8.0875    6.5343   21.1132 C   0  0  0  0  0  0  0  0  0  0  0  0
    8.0986    7.8760   20.6935 C   0  0  0  0  0  0  0  0  0  0  0  0
    7.1726    8.7405   21.2079 C   0  0  0  0  0  0  0  0  0  0  0  0
    6.2510    8.2818   22.1231 C   0  0  0  0  0  0  0  0  0  0  0  0
    6.2595    6.9632   22.5196 C   0  0  0  0  0  0  0  0  0  0  0  0
    7.1355   10.0692   20.8325 O   0  0  0  0  0  0  0  0  0  0  0  0
    5.9154   10.7256   20.6269 C   0  0  0  0  0  0  0  0  0  0  0  0
    2.9384    1.1797   15.4280 N   0  0  0  0  0  0  0  0  0  0  0  0
    3.0626    0.1950   15.1168 H   0  0  0  0  0  0  0  0  0  0  0  0
    2.2686    2.1075   14.5797 C   0  0  0  0  0  0  0  0  0  0  0  0
    2.8064    2.2244   13.1943 C   0  0  0  0  0  0  0  0  0  0  0  0
    3.6633    4.4609   13.8517 C   0  0  0  0  0  0  0  0  0  0  0  0
    2.8746    3.7056   12.7961 C   0  0  0  0  0  0  0  0  0  0  0  0
    5.4481    4.2244   18.1833 N   0  0  0  0  0  0  0  0  0  0  0  0
    6.3256    4.3263   18.6697 H   0  0  0  0  0  0  0  0  0  0  0  0
    4.9730    5.4336   17.4778 C   0  0  0  0  0  0  0  0  0  0  0  0
    3.5727    5.7319   17.9186 C   0  0  0  0  0  0  0  0  0  0  0  0
    3.5501    6.2453   19.3253 C   0  0  0  0  0  0  0  0  0  0  0  0
    4.2424    7.5748   19.3786 C   0  0  0  0  0  0  0  0  0  0  0  0
    3.2700    8.5795   19.4255 O   0  0  0  0  0  0  0  0  0  0  0  0
    5.0876    7.7837   18.1653 C   0  0  0  0  0  0  0  0  0  0  0  0
    5.9043    6.5653   17.7798 C   0  0  0  0  0  0  0  0  0  0  0  0
    2.9340    8.7623   18.4988 H   0  0  0  0  0  0  0  0  0  0  0  0
 27 28  1  0  0  0
 28 26  1  0  0  0
 26 25  1  0  0  0
 25 23  1  0  0  0
 23  1  1  0  0  0
  1  2  2  0  0  0
  2  3  1  0  0  0
  3  4  2  0  0  0
  4  5  1  0  0  0
  5 29  1  0  0  0
 29 31  1  0  0  0
 31 32  1  0  0  0
 32 33  1  0  0  0
 33 34  1  0  0  0
 34 35  1  0  0  0
 34 36  1  0  0  0
 36 37  1  0  0  0
  5  6  2  0  0  0
  4  7  1  0  0  0
  7  8  2  0  0  0
  8  9  1  0  0  0
  9 13  1  0  0  0
 13 15  1  0  0  0
 15 16  2  0  0  0
 16 17  1  0  0  0
 17 18  2  0  0  0
 18 21  1  0  0  0
 21 22  1  0  0  0
 18 19  1  0  0  0
 19 20  2  0  0  0
  9 10  2  0  0  0
 10 11  1  0  0  0
 11 12  2  0  0  0
  6  1  1  0  0  0
 12  7  1  0  0  0
 37 31  1  0  0  0
 20 15  1  0  0  0
 23 24  1  0  0  0
 29 30  1  0  0  0
 35 38  1  0  0  0
 13 14  1  0  0  0
M  END
> <minimizedAffinity>
-7.97975

> <CNNscore>
0.4289189577

> <CNNaffinity>
7.0284967422

> <CNN_VS>
3.0146555901

> <CNNaffinity_variance>
0.1893277615

$$$$
[H]O[C@]1([H])C([H])([H])C([H])([H])[C@@]([H])(N([H])c2nc(N([H])C([H])([H])C([H])([H])C([H])([H])C([H])([H])[H])nc([H])c2-c2nc([H])nc(N([H])c3c([H])c([H])c(OC([H])([H])[H])c([H])c3[H])c2[H])C([H])([H])C1([H])[H]


 38 41  0  0  0  0  0  0  0  0999 V2000
    4.0639    1.7091   19.1009 C   0  0  0  0  0  0  0  0  0  0  0  0
    3.4242    1.2283   18.0276 N   0  0  0  0  0  0  0  0  0  0  0  0
    3.1791    2.0096   16.9663 C   0  0  0  0  0  0  0  0  0  0  0  0
    3.5638    3.3583   16.9002 C   0  0  0  0  0  0  0  0  0  0  0  0
    4.2109    3.8261   18.0009 C   0  0  0  0  0  0  0  0  0  0  0  0
    4.4371    2.9828   19.0604 N   0  0  0  0  0  0  0  0  0  0  0  0
    3.2131    4.0818   15.7070 C   0  0  0  0  0  0  0  0  0  0  0  0
    2.0848    4.8868   15.6116 C   0  0  0  0  0  0  0  0  0  0  0  0
    1.7766    5.6075   14.4425 C   0  0  0  0  0  0  0  0  0  0  0  0
    2.6056    5.4992   13.4107 N   0  0  0  0  0  0  0  0  0  0  0  0
    3.6921    4.7343   13.4803 C   0  0  0  0  0  0  0  0  0  0  0  0
    3.9616    4.0594   14.6040 N   0  0  0  0  0  0  0  0  0  0  0  0
    0.6228    6.4200   14.4171 N   0  0  0  0  0  0  0  0  0  0  0  0
    0.7114    7.2945   15.0583 H   0  0  0  0  0  0  0  0  0  0  0  0
   -0.5630    6.2559   13.7146 C   0  0  0  0  0  0  0  0  0  0  0  0
   -0.7788    5.4581   12.6343 C   0  0  0  0  0  0  0  0  0  0  0  0
   -2.0158    5.3731   11.9719 C   0  0  0  0  0  0  0  0  0  0  0  0
   -3.0649    6.1239   12.4249 C   0  0  0  0  0  0  0  0  0  0  0  0
   -2.8898    6.9452   13.5169 C   0  0  0  0  0  0  0  0  0  0  0  0
   -1.6688    7.0123   14.1496 C   0  0  0  0  0  0  0  0  0  0  0  0
   -4.3030    6.0811   11.8141 O   0  0  0  0  0  0  0  0  0  0  0  0
   -4.4169    5.9090   10.4287 C   0  0  0  0  0  0  0  0  0  0  0  0
    4.3046    0.8561   20.1986 N   0  0  0  0  0  0  0  0  0  0  0  0
    4.0528   -0.1503   20.1232 H   0  0  0  0  0  0  0  0  0  0  0  0
    4.8841    1.3490   21.4027 C   0  0  0  0  0  0  0  0  0  0  0  0
    3.9345    1.5991   22.5244 C   0  0  0  0  0  0  0  0  0  0  0  0
    3.8122    3.8941   23.4660 C   0  0  0  0  0  0  0  0  0  0  0  0
    4.5690    2.5784   23.5221 C   0  0  0  0  0  0  0  0  0  0  0  0
    4.6242    5.1698   18.0889 N   0  0  0  0  0  0  0  0  0  0  0  0
    5.5173    5.5453   17.8088 H   0  0  0  0  0  0  0  0  0  0  0  0
    3.6657    6.1568   18.6297 C   0  0  0  0  0  0  0  0  0  0  0  0
    3.5522    5.9598   20.1103 C   0  0  0  0  0  0  0  0  0  0  0  0
    4.7947    6.4174   20.8101 C   0  0  0  0  0  0  0  0  0  0  0  0
    4.9367    7.9018   20.6475 C   0  0  0  0  0  0  0  0  0  0  0  0
    4.5269    8.5191   21.8341 O   0  0  0  0  0  0  0  0  0  0  0  0
    4.0804    8.3990   19.5295 C   0  0  0  0  0  0  0  0  0  0  0  0
    4.1449    7.5323   18.2865 C   0  0  0  0  0  0  0  0  0  0  0  0
    3.5269    8.5896   21.8456 H   0  0  0  0  0  0  0  0  0  0  0  0
 27 28  1  0  0  0
 28 26  1  0  0  0
 26 25  1  0  0  0
 25 23  1  0  0  0
 23  1  1  0  0  0
  1  2  2  0  0  0
  2  3  1  0  0  0
  3  4  2  0  0  0
  4  5  1  0  0  0
  5 29  1  0  0  0
 29 31  1  0  0  0
 31 32  1  0  0  0
 32 33  1  0  0  0
 33 34  1  0  0  0
 34 35  1  0  0  0
 34 36  1  0  0  0
 36 37  1  0  0  0
  5  6  2  0  0  0
  4  7  1  0  0  0
  7  8  2  0  0  0
  8  9  1  0  0  0
  9 13  1  0  0  0
 13 15  1  0  0  0
 15 16  2  0  0  0
 16 17  1  0  0  0
 17 18  2  0  0  0
 18 21  1  0  0  0
 21 22  1  0  0  0
 18 19  1  0  0  0
 19 20  2  0  0  0
  9 10  2  0  0  0
 10 11  1  0  0  0
 11 12  2  0  0  0
  6  1  1  0  0  0
 12  7  1  0  0  0
 37 31  1  0  0  0
 20 15  1  0  0  0
 23 24  1  0  0  0
 29 30  1  0  0  0
 35 38  1  0  0  0
 13 14  1  0  0  0
M  END
> <minimizedAffinity>
-8.59815

> <CNNscore>
0.3596617579

> <CNNaffinity>
6.9830207825

> <CNN_VS>
2.5115256310

> <CNNaffinity_variance>
0.6035209894

$$$$
[H]O[C@]1([H])C([H])([H])C([H])([H])[C@@]([H])(N([H])c2nc(N([H])C([H])([H])C([H])([H])C([H])([H])C([H])([H])[H])nc([H])c2-c2nc([H])nc(N([H])c3c([H])c([H])c(OC([H])([H])[H])c([H])c3[H])c2[H])C([H])([H])C1([H])[H]


 38 41  0  0  0  0  0  0  0  0999 V2000
    4.2506    1.3032   19.7457 C   0  0  0  0  0  0  0  0  0  0  0  0
    3.4511    0.6472   18.8955 N   0  0  0  0  0  0  0  0  0  0  0  0
    3.2805    1.0810   17.6387 C   0  0  0  0  0  0  0  0  0  0  0  0
    3.9105    2.2281   17.1300 C   0  0  0  0  0  0  0  0  0  0  0  0
    4.7169    2.8793   18.0103 C   0  0  0  0  0  0  0  0  0  0  0  0
    4.8569    2.3914   19.2859 N   0  0  0  0  0  0  0  0  0  0  0  0
    3.6154    2.5881   15.7685 C   0  0  0  0  0  0  0  0  0  0  0  0
    3.9797    3.8068   15.2098 C   0  0  0  0  0  0  0  0  0  0  0  0
    3.7048    4.1261   13.8668 C   0  0  0  0  0  0  0  0  0  0  0  0
    3.0766    3.2177   13.1295 N   0  0  0  0  0  0  0  0  0  0  0  0
    2.7190    2.0439   13.6440 C   0  0  0  0  0  0  0  0  0  0  0  0
    2.9924    1.7658   14.9242 N   0  0  0  0  0  0  0  0  0  0  0  0
    4.1164    5.3762   13.3569 N   0  0  0  0  0  0  0  0  0  0  0  0
    4.2700    6.1179   14.1379 H   0  0  0  0  0  0  0  0  0  0  0  0
    4.3382    5.7698   12.0444 C   0  0  0  0  0  0  0  0  0  0  0  0
    3.7282    6.7828   11.3722 C   0  0  0  0  0  0  0  0  0  0  0  0
    4.0044    7.0951   10.0296 C   0  0  0  0  0  0  0  0  0  0  0  0
    4.9310    6.3524    9.3519 C   0  0  0  0  0  0  0  0  0  0  0  0
    5.5731    5.3173    9.9954 C   0  0  0  0  0  0  0  0  0  0  0  0
    5.2860    5.0297   11.3109 C   0  0  0  0  0  0  0  0  0  0  0  0
    5.2431    6.6132    8.0319 O   0  0  0  0  0  0  0  0  0  0  0  0
    6.4452    6.1609    7.4732 C   0  0  0  0  0  0  0  0  0  0  0  0
    4.4058    0.8156   21.0604 N   0  0  0  0  0  0  0  0  0  0  0  0
    5.1632    0.1314   21.2611 H   0  0  0  0  0  0  0  0  0  0  0  0
    3.5460    1.2433   22.1123 C   0  0  0  0  0  0  0  0  0  0  0  0
    3.8090    2.6087   22.6499 C   0  0  0  0  0  0  0  0  0  0  0  0
    5.5565    1.9851   24.3009 C   0  0  0  0  0  0  0  0  0  0  0  0
    5.2962    2.7388   23.0082 C   0  0  0  0  0  0  0  0  0  0  0  0
    5.3856    4.0650   17.6485 N   0  0  0  0  0  0  0  0  0  0  0  0
    5.9166    4.2246   16.8061 H   0  0  0  0  0  0  0  0  0  0  0  0
    5.3057    5.2165   18.5722 C   0  0  0  0  0  0  0  0  0  0  0  0
    6.1815    6.3151   18.0525 C   0  0  0  0  0  0  0  0  0  0  0  0
    5.5880    6.9421   16.8289 C   0  0  0  0  0  0  0  0  0  0  0  0
    4.3101    7.6355   17.1978 C   0  0  0  0  0  0  0  0  0  0  0  0
    4.5604    9.0089   17.2869 O   0  0  0  0  0  0  0  0  0  0  0  0
    3.8060    7.1547   18.5188 C   0  0  0  0  0  0  0  0  0  0  0  0
    3.8772    5.6485   18.6818 C   0  0  0  0  0  0  0  0  0  0  0  0
    4.9624    9.2176   18.1813 H   0  0  0  0  0  0  0  0  0  0  0  0
 27 28  1  0  0  0
 28 26  1  0  0  0
 26 25  1  0  0  0
 25 23  1  0  0  0
 23  1  1  0  0  0
  1  2  2  0  0  0
  2  3  1  0  0  0
  3  4  2  0  0  0
  4  5  1  0  0  0
  5 29  1  0  0  0
 29 31  1  0  0  0
 31 32  1  0  0  0
 32 33  1  0  0  0
 33 34  1  0  0  0
 34 35  1  0  0  0
 34 36  1  0  0  0
 36 37  1  0  0  0
  5  6  2  0  0  0
  4  7  1  0  0  0
  7  8  2  0  0  0
  8  9  1  0  0  0
  9 13  1  0  0  0
 13 15  1  0  0  0
 15 16  2  0  0  0
 16 17  1  0  0  0
 17 18  2  0  0  0
 18 21  1  0  0  0
 21 22  1  0  0  0
 18 19  1  0  0  0
 19 20  2  0  0  0
  9 10  2  0  0  0
 10 11  1  0  0  0
 11 12  2  0  0  0
  6  1  1  0  0  0
 12  7  1  0  0  0
 37 31  1  0  0  0
 20 15  1  0  0  0
 23 24  1  0  0  0
 29 30  1  0  0  0
 35 38  1  0  0  0
 13 14  1  0  0  0
M  END
> <minimizedAffinity>
-7.21569

> <CNNscore>
0.3457807302

> <CNNaffinity>
6.9118294716

> <CNN_VS>
2.3899774551

> <CNNaffinity_variance>
0.2411523759

$$$$
[H]O[C@]1([H])C([H])([H])C([H])([H])[C@@]([H])(N([H])c2nc(N([H])C([H])([H])C([H])([H])C([H])([H])C([H])([H])[H])nc([H])c2-c2nc([H])nc(N([H])c3c([H])c([H])c(OC([H])([H])[H])c([H])c3[H])c2[H])C([H])([H])C1([H])[H]


 38 41  0  0  0  0  0  0  0  0999 V2000
    4.1239    1.6947   17.9380 C   0  0  0  0  0  0  0  0  0  0  0  0
    3.4084    0.7841   17.2662 N   0  0  0  0  0  0  0  0  0  0  0  0
    2.9912    1.0243   16.0151 C   0  0  0  0  0  0  0  0  0  0  0  0
    3.2648    2.2191   15.3303 C   0  0  0  0  0  0  0  0  0  0  0  0
    3.9916    3.1299   16.0311 C   0  0  0  0  0  0  0  0  0  0  0  0
    4.3945    2.8327   17.3095 N   0  0  0  0  0  0  0  0  0  0  0  0
    2.7327    2.3479   13.9996 C   0  0  0  0  0  0  0  0  0  0  0  0
    3.4240    2.9606   12.9620 C   0  0  0  0  0  0  0  0  0  0  0  0
    2.8949    3.0503   11.6607 C   0  0  0  0  0  0  0  0  0  0  0  0
    1.6950    2.5252   11.4417 N   0  0  0  0  0  0  0  0  0  0  0  0
    1.0155    1.9334   12.4208 C   0  0  0  0  0  0  0  0  0  0  0  0
    1.5419    1.8619   13.6491 N   0  0  0  0  0  0  0  0  0  0  0  0
    3.6563    3.6719   10.6478 N   0  0  0  0  0  0  0  0  0  0  0  0
    3.4755    3.2432    9.6643 H   0  0  0  0  0  0  0  0  0  0  0  0
    4.5710    4.7121   10.7370 C   0  0  0  0  0  0  0  0  0  0  0  0
    5.9274    4.6251   10.6864 C   0  0  0  0  0  0  0  0  0  0  0  0
    6.7776    5.7381   10.8081 C   0  0  0  0  0  0  0  0  0  0  0  0
    6.2283    6.9774   10.9862 C   0  0  0  0  0  0  0  0  0  0  0  0
    4.8583    7.1105   11.0426 C   0  0  0  0  0  0  0  0  0  0  0  0
    4.0453    6.0059   10.9212 C   0  0  0  0  0  0  0  0  0  0  0  0
    7.0139    8.1064   11.1118 O   0  0  0  0  0  0  0  0  0  0  0  0
    8.2517    8.0534   11.7652 C   0  0  0  0  0  0  0  0  0  0  0  0
    4.5460    1.4056   19.2528 N   0  0  0  0  0  0  0  0  0  0  0  0
    5.0904    0.5374   19.4309 H   0  0  0  0  0  0  0  0  0  0  0  0
    4.2399    2.2798   20.3348 C   0  0  0  0  0  0  0  0  0  0  0  0
    5.4013    2.9889   20.9438 C   0  0  0  0  0  0  0  0  0  0  0  0
    5.8463    2.1955   23.2548 C   0  0  0  0  0  0  0  0  0  0  0  0
    6.2139    2.0020   21.7939 C   0  0  0  0  0  0  0  0  0  0  0  0
    4.3108    4.3874   15.4826 N   0  0  0  0  0  0  0  0  0  0  0  0
    5.1912    4.6607   15.0735 H   0  0  0  0  0  0  0  0  0  0  0  0
    3.2620    5.4293   15.4784 C   0  0  0  0  0  0  0  0  0  0  0  0
    3.0431    5.9008   16.8833 C   0  0  0  0  0  0  0  0  0  0  0  0
    4.2009    6.7218   17.3610 C   0  0  0  0  0  0  0  0  0  0  0  0
    4.2766    7.9861   16.5575 C   0  0  0  0  0  0  0  0  0  0  0  0
    3.7429    9.0296   17.3213 O   0  0  0  0  0  0  0  0  0  0  0  0
    3.4858    7.8635   15.2966 C   0  0  0  0  0  0  0  0  0  0  0  0
    3.6934    6.5441   14.5781 C   0  0  0  0  0  0  0  0  0  0  0  0
    2.7428    9.0154   17.2532 H   0  0  0  0  0  0  0  0  0  0  0  0
 27 28  1  0  0  0
 28 26  1  0  0  0
 26 25  1  0  0  0
 25 23  1  0  0  0
 23  1  1  0  0  0
  1  2  2  0  0  0
  2  3  1  0  0  0
  3  4  2  0  0  0
  4  5  1  0  0  0
  5 29  1  0  0  0
 29 31  1  0  0  0
 31 32  1  0  0  0
 32 33  1  0  0  0
 33 34  1  0  0  0
 34 35  1  0  0  0
 34 36  1  0  0  0
 36 37  1  0  0  0
  5  6  2  0  0  0
  4  7  1  0  0  0
  7  8  2  0  0  0
  8  9  1  0  0  0
  9 13  1  0  0  0
 13 15  1  0  0  0
 15 16  2  0  0  0
 16 17  1  0  0  0
 17 18  2  0  0  0
 18 21  1  0  0  0
 21 22  1  0  0  0
 18 19  1  0  0  0
 19 20  2  0  0  0
  9 10  2  0  0  0
 10 11  1  0  0  0
 11 12  2  0  0  0
  6  1  1  0  0  0
 12  7  1  0  0  0
 37 31  1  0  0  0
 20 15  1  0  0  0
 23 24  1  0  0  0
 29 30  1  0  0  0
 35 38  1  0  0  0
 13 14  1  0  0  0
M  END
> <minimizedAffinity>
-6.99939

> <CNNscore>
0.2474100739

> <CNNaffinity>
6.7117719650

> <CNN_VS>
1.6605600119

> <CNNaffinity_variance>
0.1813917160

$$$$
[H]O[C@]1([H])C([H])([H])C([H])([H])[C@@]([H])(N([H])c2nc(N([H])C([H])([H])C([H])([H])C([H])([H])C([H])([H])[H])nc([H])c2-c2nc([H])nc(N([H])c3c([H])c([H])c(OC([H])([H])[H])c([H])c3[H])c2[H])C([H])([H])C1([H])[H]


 38 41  0  0  0  0  0  0  0  0999 V2000
    4.0223    2.1446   17.7507 C   0  0  0  0  0  0  0  0  0  0  0  0
    2.9155    1.9814   17.0154 N   0  0  0  0  0  0  0  0  0  0  0  0
    2.5520    2.8981   16.1075 C   0  0  0  0  0  0  0  0  0  0  0  0
    3.2849    4.0707   15.8641 C   0  0  0  0  0  0  0  0  0  0  0  0
    4.4043    4.2167   16.6222 C   0  0  0  0  0  0  0  0  0  0  0  0
    4.7313    3.2469   17.5373 N   0  0  0  0  0  0  0  0  0  0  0  0
    2.7621    4.9767   14.8760 C   0  0  0  0  0  0  0  0  0  0  0  0
    1.5075    5.5652   14.9743 C   0  0  0  0  0  0  0  0  0  0  0  0
    1.0281    6.4706   14.0091 C   0  0  0  0  0  0  0  0  0  0  0  0
    1.8180    6.7564   12.9806 N   0  0  0  0  0  0  0  0  0  0  0  0
    3.0235    6.2047   12.8668 C   0  0  0  0  0  0  0  0  0  0  0  0
    3.4549    5.3467   13.7988 N   0  0  0  0  0  0  0  0  0  0  0  0
   -0.2500    7.0454   14.1772 N   0  0  0  0  0  0  0  0  0  0  0  0
   -0.2599    7.8343   14.9263 H   0  0  0  0  0  0  0  0  0  0  0  0
   -1.4478    6.7469   13.5425 C   0  0  0  0  0  0  0  0  0  0  0  0
   -2.6862    7.2150   13.8544 C   0  0  0  0  0  0  0  0  0  0  0  0
   -3.8510    6.8371   13.1639 C   0  0  0  0  0  0  0  0  0  0  0  0
   -3.7502    5.9558   12.1234 C   0  0  0  0  0  0  0  0  0  0  0  0
   -2.5144    5.4577   11.7737 C   0  0  0  0  0  0  0  0  0  0  0  0
   -1.3872    5.8419   12.4648 C   0  0  0  0  0  0  0  0  0  0  0  0
   -4.8600    5.5490   11.4090 O   0  0  0  0  0  0  0  0  0  0  0  0
   -5.2115    4.1952   11.3339 C   0  0  0  0  0  0  0  0  0  0  0  0
    4.3731    1.1576   18.6958 N   0  0  0  0  0  0  0  0  0  0  0  0
    4.2062    0.1564   18.4687 H   0  0  0  0  0  0  0  0  0  0  0  0
    4.9493    1.5090   19.9501 C   0  0  0  0  0  0  0  0  0  0  0  0
    4.0308    2.1635   20.9250 C   0  0  0  0  0  0  0  0  0  0  0  0
    4.2518    3.0441   23.2368 C   0  0  0  0  0  0  0  0  0  0  0  0
    4.8366    3.1004   21.8361 C   0  0  0  0  0  0  0  0  0  0  0  0
    5.2177    5.3613   16.5104 N   0  0  0  0  0  0  0  0  0  0  0  0
    5.6785    5.6943   15.6774 H   0  0  0  0  0  0  0  0  0  0  0  0
    5.4228    6.1878   17.7188 C   0  0  0  0  0  0  0  0  0  0  0  0
    6.1704    7.4281   17.3353 C   0  0  0  0  0  0  0  0  0  0  0  0
    5.2999    8.3584   16.5481 C   0  0  0  0  0  0  0  0  0  0  0  0
    4.1882    8.8562   17.4234 C   0  0  0  0  0  0  0  0  0  0  0  0
    4.5013   10.1534   17.8433 O   0  0  0  0  0  0  0  0  0  0  0  0
    4.0305    7.9885   18.6287 C   0  0  0  0  0  0  0  0  0  0  0  0
    4.0888    6.5051   18.3181 C   0  0  0  0  0  0  0  0  0  0  0  0
    5.1304   10.1092   18.6227 H   0  0  0  0  0  0  0  0  0  0  0  0
 27 28  1  0  0  0
 28 26  1  0  0  0
 26 25  1  0  0  0
 25 23  1  0  0  0
 23  1  1  0  0  0
  1  2  2  0  0  0
  2  3  1  0  0  0
  3  4  2  0  0  0
  4  5  1  0  0  0
  5 29  1  0  0  0
 29 31  1  0  0  0
 31 32  1  0  0  0
 32 33  1  0  0  0
 33 34  1  0  0  0
 34 35  1  0  0  0
 34 36  1  0  0  0
 36 37  1  0  0  0
  5  6  2  0  0  0
  4  7  1  0  0  0
  7  8  2  0  0  0
  8  9  1  0  0  0
  9 13  1  0  0  0
 13 15  1  0  0  0
 15 16  2  0  0  0
 16 17  1  0  0  0
 17 18  2  0  0  0
 18 21  1  0  0  0
 21 22  1  0  0  0
 18 19  1  0  0  0
 19 20  2  0  0  0
  9 10  2  0  0  0
 10 11  1  0  0  0
 11 12  2  0  0  0
  6  1  1  0  0  0
 12  7  1  0  0  0
 37 31  1  0  0  0
 20 15  1  0  0  0
 23 24  1  0  0  0
 29 30  1  0  0  0
 35 38  1  0  0  0
 13 14  1  0  0  0
M  END
> <minimizedAffinity>
-7.52644

> <CNNscore>
0.2343687266

> <CNNaffinity>
6.5419683456

> <CNN_VS>
1.5332328081

> <CNNaffinity_variance>
0.3092443347

$$$$
[H]c1nc(N([H])[H])c2c(-c3c([H])c([H])c(N([H])C(=O)c4c([H])n(C([H])(C([H])([H])[H])C([H])([H])[H])c(=O)n(-c5c([H])c([H])c([H])c([H])c5[H])c4=O)c([H])c3C([H])([H])[H])c([H])c(C3([H])C([H])([H])C([H])([H])N(C(=O)C([H])(C([H])([H])[H])C([H])([H])[H])C([H])([H])C3([H])[H])n2n1


 51 56  0  0  0  0  0  0  0  0999 V2000
    2.7155    6.3559   13.0152 C   0  0  0  0  0  0  0  0  0  0  0  0
    2.8258    7.5786   13.6169 C   0  0  0  0  0  0  0  0  0  0  0  0
    3.1475    7.6911   14.9793 C   0  0  0  0  0  0  0  0  0  0  0  0
    3.3579    6.5821   15.7366 C   0  0  0  0  0  0  0  0  0  0  0  0
    3.2493    5.3342   15.1378 C   0  0  0  0  0  0  0  0  0  0  0  0
    2.9312    5.2427   13.7920 C   0  0  0  0  0  0  0  0  0  0  0  0
    2.8218    3.9132   13.1774 C   0  0  0  0  0  0  0  0  0  0  0  0
    1.2325    5.8203    9.7139 C   0  0  0  0  0  0  0  0  0  0  0  0
    1.1521    6.0138   11.0620 C   0  0  0  0  0  0  0  0  0  0  0  0
    2.4426    6.1890   11.6077 C   0  0  0  0  0  0  0  0  0  0  0  0
    3.2907    6.0936   10.5284 C   0  0  0  0  0  0  0  0  0  0  0  0
    4.6651    6.2032   10.4568 C   0  0  0  0  0  0  0  0  0  0  0  0
    5.4961    6.4680   11.5908 N   0  0  0  0  0  0  0  0  0  0  0  0
    5.2333    6.0777    9.2288 N   0  0  0  0  0  0  0  0  0  0  0  0
    4.4840    5.8585    8.1395 C   0  0  0  0  0  0  0  0  0  0  0  0
    3.1503    5.7587    8.2428 N   0  0  0  0  0  0  0  0  0  0  0  0
    2.5608    5.8741    9.4115 N   0  0  0  0  0  0  0  0  0  0  0  0
    5.4763    7.4207   12.0085 H   0  0  0  0  0  0  0  0  0  0  0  0
    6.1228    5.7595   12.0250 H   0  0  0  0  0  0  0  0  0  0  0  0
   -3.8561    6.1285    7.6990 C   0  0  0  0  0  0  0  0  0  0  0  0
   -4.7499    5.4473    8.2618 O   0  0  0  0  0  0  0  0  0  0  0  0
   -2.5101    5.7332    7.7976 N   0  0  0  0  0  0  0  0  0  0  0  0
   -2.1599    4.5287    8.5299 C   0  0  0  0  0  0  0  0  0  0  0  0
   -0.9038    4.6656    9.3193 C   0  0  0  0  0  0  0  0  0  0  0  0
    0.1237    5.5839    8.7247 C   0  0  0  0  0  0  0  0  0  0  0  0
   -0.4865    6.8684    8.2719 C   0  0  0  0  0  0  0  0  0  0  0  0
   -1.4882    6.5585    7.1687 C   0  0  0  0  0  0  0  0  0  0  0  0
   -5.2032    6.9904    5.7922 C   0  0  0  0  0  0  0  0  0  0  0  0
   -4.2901    7.3235    6.9539 C   0  0  0  0  0  0  0  0  0  0  0  0
   -5.0159    8.3088    7.8495 C   0  0  0  0  0  0  0  0  0  0  0  0
    3.7088    6.5875   17.1200 N   0  0  0  0  0  0  0  0  0  0  0  0
    4.9750    6.8153   17.6440 C   0  0  0  0  0  0  0  0  0  0  0  0
    5.9432    7.0202   16.8207 O   0  0  0  0  0  0  0  0  0  0  0  0
    2.9372    6.3833   17.8296 H   0  0  0  0  0  0  0  0  0  0  0  0
    5.3487    6.8477   19.0449 C   0  0  0  0  0  0  0  0  0  0  0  0
    6.0357    7.9677   19.5473 C   0  0  0  0  0  0  0  0  0  0  0  0
    6.4251    8.0303   20.8427 N   0  0  0  0  0  0  0  0  0  0  0  0
    6.1350    6.9988   21.6182 C   0  0  0  0  0  0  0  0  0  0  0  0
    6.4698    6.9907   22.8455 O   0  0  0  0  0  0  0  0  0  0  0  0
    5.4810    5.9095   21.1805 N   0  0  0  0  0  0  0  0  0  0  0  0
    5.0763    5.8096   19.8966 C   0  0  0  0  0  0  0  0  0  0  0  0
    4.4603    4.7536   19.5543 O   0  0  0  0  0  0  0  0  0  0  0  0
    5.1976    4.8362   22.0591 C   0  0  0  0  0  0  0  0  0  0  0  0
    4.0442    4.7811   22.8174 C   0  0  0  0  0  0  0  0  0  0  0  0
    3.8683    3.6891   23.6386 C   0  0  0  0  0  0  0  0  0  0  0  0
    4.8009    2.6725   23.7171 C   0  0  0  0  0  0  0  0  0  0  0  0
    5.9387    2.7530   22.9521 C   0  0  0  0  0  0  0  0  0  0  0  0
    6.1443    3.8262   22.1242 C   0  0  0  0  0  0  0  0  0  0  0  0
    7.1194    9.2033   21.3135 C   0  0  0  0  0  0  0  0  0  0  0  0
    6.4663   10.4877   20.8850 C   0  0  0  0  0  0  0  0  0  0  0  0
    8.5557    9.2017   20.7771 C   0  0  0  0  0  0  0  0  0  0  0  0
 28 29  1  0  0  0
 29 30  1  0  0  0
 29 20  1  0  0  0
 20 21  2  0  0  0
 20 22  1  0  0  0
 22 23  1  0  0  0
 23 24  1  0  0  0
 24 25  1  0  0  0
 25 26  1  0  0  0
 26 27  1  0  0  0
 25  8  1  0  0  0
  8  9  2  0  0  0
  9 10  1  0  0  0
 10  1  1  0  0  0
  1  2  2  0  0  0
  2  3  1  0  0  0
  3  4  2  0  0  0
  4 31  1  0  0  0
 31 32  1  0  0  0
 32 33  2  0  0  0
 32 35  1  0  0  0
 35 36  2  0  0  0
 36 37  1  0  0  0
 37 49  1  0  0  0
 49 50  1  0  0  0
 49 51  1  0  0  0
 37 38  1  0  0  0
 38 39  2  0  0  0
 38 40  1  0  0  0
 40 43  1  0  0  0
 43 44  2  0  0  0
 44 45  1  0  0  0
 45 46  2  0  0  0
 46 47  1  0  0  0
 47 48  2  0  0  0
 40 41  1  0  0  0
 41 42  2  0  0  0
  4  5  1  0  0  0
  5  6  2  0  0  0
  6  7  1  0  0  0
 10 11  2  0  0  0
 11 12  1  0  0  0
 12 13  1  0  0  0
 12 14  2  0  0  0
 14 15  1  0  0  0
 15 16  2  0  0  0
 16 17  1  0  0  0
 27 22  1  0  0  0
 17  8  1  0  0  0
  6  1  1  0  0  0
 17 11  1  0  0  0
 41 35  1  0  0  0
 48 43  1  0  0  0
 31 34  1  0  0  0
 13 18  1  0  0  0
 13 19  1  0  0  0
M  END
> <minimizedAffinity>
-8.90971

> <CNNscore>
0.0785887018

> <CNNaffinity>
6.5137300491

> <CNN_VS>
0.5119056106

> <CNNaffinity_variance>
1.0895552635

$$$$
[H]c1nc(N([H])[H])c2c(-c3c([H])c([H])c(N([H])C(=O)c4c([H])n(C([H])(C([H])([H])[H])C([H])([H])[H])c(=O)n(-c5c([H])c([H])c([H])c([H])c5[H])c4=O)c([H])c3C([H])([H])[H])c([H])c(C3([H])C([H])([H])C([H])([H])N(C(=O)C([H])(C([H])([H])[H])C([H])([H])[H])C([H])([H])C3([H])[H])n2n1


 51 56  0  0  0  0  0  0  0  0999 V2000
    4.5573    4.6177   18.1677 C   0  0  0  0  0  0  0  0  0  0  0  0
    5.1922    4.2005   17.0311 C   0  0  0  0  0  0  0  0  0  0  0  0
    4.6250    4.4108   15.7637 C   0  0  0  0  0  0  0  0  0  0  0  0
    3.4254    5.0371   15.6354 C   0  0  0  0  0  0  0  0  0  0  0  0
    2.7702    5.4662   16.7817 C   0  0  0  0  0  0  0  0  0  0  0  0
    3.3454    5.2501   18.0241 C   0  0  0  0  0  0  0  0  0  0  0  0
    2.6364    5.7124   19.2244 C   0  0  0  0  0  0  0  0  0  0  0  0
    6.2570    5.0459   21.3790 C   0  0  0  0  0  0  0  0  0  0  0  0
    5.7790    5.5112   20.1889 C   0  0  0  0  0  0  0  0  0  0  0  0
    5.1239    4.4755   19.4876 C   0  0  0  0  0  0  0  0  0  0  0  0
    5.2313    3.3782   20.3109 C   0  0  0  0  0  0  0  0  0  0  0  0
    4.7606    2.0900   20.1525 C   0  0  0  0  0  0  0  0  0  0  0  0
    4.0113    1.6579   19.0130 N   0  0  0  0  0  0  0  0  0  0  0  0
    5.0099    1.2114   21.1586 N   0  0  0  0  0  0  0  0  0  0  0  0
    5.6833    1.5880   22.2544 C   0  0  0  0  0  0  0  0  0  0  0  0
    6.1259    2.8483   22.3784 N   0  0  0  0  0  0  0  0  0  0  0  0
    5.9060    3.7295   21.4288 N   0  0  0  0  0  0  0  0  0  0  0  0
    3.0316    1.9921   18.9077 H   0  0  0  0  0  0  0  0  0  0  0  0
    4.3909    1.0253   18.2788 H   0  0  0  0  0  0  0  0  0  0  0  0
    9.5707    8.9028   23.4268 C   0  0  0  0  0  0  0  0  0  0  0  0
   10.7961    8.8230   23.1591 O   0  0  0  0  0  0  0  0  0  0  0  0
    8.7721    7.7456   23.3973 N   0  0  0  0  0  0  0  0  0  0  0  0
    9.3694    6.4603   23.0795 C   0  0  0  0  0  0  0  0  0  0  0  0
    8.4979    5.6019   22.2289 C   0  0  0  0  0  0  0  0  0  0  0  0
    7.0235    5.7830   22.4434 C   0  0  0  0  0  0  0  0  0  0  0  0
    6.6495    7.2274   22.4838 C   0  0  0  0  0  0  0  0  0  0  0  0
    7.3477    7.8684   23.6745 C   0  0  0  0  0  0  0  0  0  0  0  0
   10.0102   11.0611   24.5853 C   0  0  0  0  0  0  0  0  0  0  0  0
    9.0412   10.2361   23.7638 C   0  0  0  0  0  0  0  0  0  0  0  0
    8.6909   11.0301   22.5203 C   0  0  0  0  0  0  0  0  0  0  0  0
    2.7744    5.3174   14.3967 N   0  0  0  0  0  0  0  0  0  0  0  0
    2.1048    4.4006   13.5961 C   0  0  0  0  0  0  0  0  0  0  0  0
    2.0764    3.1712   13.9771 O   0  0  0  0  0  0  0  0  0  0  0  0
    2.8109    6.3203   14.0315 H   0  0  0  0  0  0  0  0  0  0  0  0
    1.4180    4.6678   12.3471 C   0  0  0  0  0  0  0  0  0  0  0  0
    2.1654    5.0620   11.2224 C   0  0  0  0  0  0  0  0  0  0  0  0
    1.5636    5.3447   10.0428 N   0  0  0  0  0  0  0  0  0  0  0  0
    0.2466    5.2360    9.9875 C   0  0  0  0  0  0  0  0  0  0  0  0
   -0.3840    5.4852    8.9111 O   0  0  0  0  0  0  0  0  0  0  0  0
   -0.5061    4.8630   11.0364 N   0  0  0  0  0  0  0  0  0  0  0  0
    0.0563    4.5727   12.2286 C   0  0  0  0  0  0  0  0  0  0  0  0
   -0.7157    4.2235   13.1740 O   0  0  0  0  0  0  0  0  0  0  0  0
   -1.9132    4.7632   10.9159 C   0  0  0  0  0  0  0  0  0  0  0  0
   -2.5284    3.7495   10.2073 C   0  0  0  0  0  0  0  0  0  0  0  0
   -3.9051    3.7471   10.1558 C   0  0  0  0  0  0  0  0  0  0  0  0
   -4.6642    4.7161   10.7838 C   0  0  0  0  0  0  0  0  0  0  0  0
   -4.0264    5.7125   11.4814 C   0  0  0  0  0  0  0  0  0  0  0  0
   -2.6576    5.7436   11.5524 C   0  0  0  0  0  0  0  0  0  0  0  0
    2.3730    5.7367    8.9155 C   0  0  0  0  0  0  0  0  0  0  0  0
    3.1929    4.6076    8.3563 C   0  0  0  0  0  0  0  0  0  0  0  0
    3.3337    6.8554    9.3352 C   0  0  0  0  0  0  0  0  0  0  0  0
 28 29  1  0  0  0
 29 30  1  0  0  0
 29 20  1  0  0  0
 20 21  2  0  0  0
 20 22  1  0  0  0
 22 23  1  0  0  0
 23 24  1  0  0  0
 24 25  1  0  0  0
 25 26  1  0  0  0
 26 27  1  0  0  0
 25  8  1  0  0  0
  8  9  2  0  0  0
  9 10  1  0  0  0
 10  1  1  0  0  0
  1  2  2  0  0  0
  2  3  1  0  0  0
  3  4  2  0  0  0
  4 31  1  0  0  0
 31 32  1  0  0  0
 32 33  2  0  0  0
 32 35  1  0  0  0
 35 36  2  0  0  0
 36 37  1  0  0  0
 37 49  1  0  0  0
 49 50  1  0  0  0
 49 51  1  0  0  0
 37 38  1  0  0  0
 38 39  2  0  0  0
 38 40  1  0  0  0
 40 43  1  0  0  0
 43 44  2  0  0  0
 44 45  1  0  0  0
 45 46  2  0  0  0
 46 47  1  0  0  0
 47 48  2  0  0  0
 40 41  1  0  0  0
 41 42  2  0  0  0
  4  5  1  0  0  0
  5  6  2  0  0  0
  6  7  1  0  0  0
 10 11  2  0  0  0
 11 12  1  0  0  0
 12 13  1  0  0  0
 12 14  2  0  0  0
 14 15  1  0  0  0
 15 16  2  0  0  0
 16 17  1  0  0  0
 27 22  1  0  0  0
 17  8  1  0  0  0
  6  1  1  0  0  0
 17 11  1  0  0  0
 41 35  1  0  0  0
 48 43  1  0  0  0
 31 34  1  0  0  0
 13 18  1  0  0  0
 13 19  1  0  0  0
M  END
> <minimizedAffinity>
-8.90315

> <CNNscore>
0.0717042759

> <CNNaffinity>
6.7283835411

> <CNN_VS>
0.4824538827

> <CNNaffinity_variance>
0.4080654085

$$$$
[H]c1nc(N([H])[H])c2c(-c3c([H])c([H])c(N([H])C(=O)c4c([H])n(C([H])(C([H])([H])[H])C([H])([H])[H])c(=O)n(-c5c([H])c([H])c([H])c([H])c5[H])c4=O)c([H])c3C([H])([H])[H])c([H])c(C3([H])C([H])([H])C([H])([H])N(C(=O)C([H])(C([H])([H])[H])C([H])([H])[H])C([H])([H])C3([H])[H])n2n1


 51 56  0  0  0  0  0  0  0  0999 V2000
    2.4435    5.6696   12.9189 C   0  0  0  0  0  0  0  0  0  0  0  0
    3.3223    4.6418   13.1202 C   0  0  0  0  0  0  0  0  0  0  0  0
    3.9734    4.4742   14.3532 C   0  0  0  0  0  0  0  0  0  0  0  0
    3.7448    5.3335   15.3813 C   0  0  0  0  0  0  0  0  0  0  0  0
    2.8542    6.3813   15.1903 C   0  0  0  0  0  0  0  0  0  0  0  0
    2.2208    6.5309   13.9666 C   0  0  0  0  0  0  0  0  0  0  0  0
    1.2818    7.6456   13.7852 C   0  0  0  0  0  0  0  0  0  0  0  0
    0.1100    5.4999   10.1063 C   0  0  0  0  0  0  0  0  0  0  0  0
    0.5278    5.1516   11.3575 C   0  0  0  0  0  0  0  0  0  0  0  0
    1.7079    5.8519   11.6904 C   0  0  0  0  0  0  0  0  0  0  0  0
    1.9714    6.6305   10.5870 C   0  0  0  0  0  0  0  0  0  0  0  0
    2.9877    7.5347   10.3507 C   0  0  0  0  0  0  0  0  0  0  0  0
    4.0100    7.8400   11.3037 N   0  0  0  0  0  0  0  0  0  0  0  0
    2.9790    8.1773    9.1535 N   0  0  0  0  0  0  0  0  0  0  0  0
    2.0206    7.9386    8.2476 C   0  0  0  0  0  0  0  0  0  0  0  0
    1.0457    7.0550    8.5089 N   0  0  0  0  0  0  0  0  0  0  0  0
    1.0170    6.4120    9.6544 N   0  0  0  0  0  0  0  0  0  0  0  0
    3.7546    8.3989   12.1433 H   0  0  0  0  0  0  0  0  0  0  0  0
    5.0000    7.5340   11.2060 H   0  0  0  0  0  0  0  0  0  0  0  0
   -3.5307    1.8271    8.2882 C   0  0  0  0  0  0  0  0  0  0  0  0
   -3.1372    0.9817    7.4455 O   0  0  0  0  0  0  0  0  0  0  0  0
   -2.8632    3.0593    8.4060 N   0  0  0  0  0  0  0  0  0  0  0  0
   -1.7366    3.3594    7.5397 C   0  0  0  0  0  0  0  0  0  0  0  0
   -0.6398    4.0902    8.2345 C   0  0  0  0  0  0  0  0  0  0  0  0
   -1.0851    5.0063    9.3368 C   0  0  0  0  0  0  0  0  0  0  0  0
   -2.0755    4.3421   10.2343 C   0  0  0  0  0  0  0  0  0  0  0  0
   -3.3137    4.0081    9.4147 C   0  0  0  0  0  0  0  0  0  0  0  0
   -6.0088    1.6166    8.3772 C   0  0  0  0  0  0  0  0  0  0  0  0
   -4.6948    1.4616    9.1145 C   0  0  0  0  0  0  0  0  0  0  0  0
   -4.6036    0.0309    9.6087 C   0  0  0  0  0  0  0  0  0  0  0  0
    4.3372    5.2398   16.6763 N   0  0  0  0  0  0  0  0  0  0  0  0
    5.2123    6.1559   17.2461 C   0  0  0  0  0  0  0  0  0  0  0  0
    5.5531    7.1827   16.5482 O   0  0  0  0  0  0  0  0  0  0  0  0
    4.1061    4.3812   17.2679 H   0  0  0  0  0  0  0  0  0  0  0  0
    5.8074    6.0918   18.5670 C   0  0  0  0  0  0  0  0  0  0  0  0
    6.9309    6.8881   18.8542 C   0  0  0  0  0  0  0  0  0  0  0  0
    7.5331    6.8426   20.0662 N   0  0  0  0  0  0  0  0  0  0  0  0
    7.0252    6.0215   20.9702 C   0  0  0  0  0  0  0  0  0  0  0  0
    7.5400    5.9289   22.1298 O   0  0  0  0  0  0  0  0  0  0  0  0
    5.9542    5.2436   20.7390 N   0  0  0  0  0  0  0  0  0  0  0  0
    5.3263    5.2606   19.5442 C   0  0  0  0  0  0  0  0  0  0  0  0
    4.3186    4.5023   19.3982 O   0  0  0  0  0  0  0  0  0  0  0  0
    5.4548    4.3846   21.7476 C   0  0  0  0  0  0  0  0  0  0  0  0
    5.9674    3.1210   21.9686 C   0  0  0  0  0  0  0  0  0  0  0  0
    5.4074    2.3695   22.9783 C   0  0  0  0  0  0  0  0  0  0  0  0
    4.3675    2.8434   23.7551 C   0  0  0  0  0  0  0  0  0  0  0  0
    3.8772    4.1034   23.5135 C   0  0  0  0  0  0  0  0  0  0  0  0
    4.4123    4.8773   22.5165 C   0  0  0  0  0  0  0  0  0  0  0  0
    8.6773    7.6841   20.3160 C   0  0  0  0  0  0  0  0  0  0  0  0
    9.8957    6.9130   20.7413 C   0  0  0  0  0  0  0  0  0  0  0  0
    8.3446    8.6905   21.4237 C   0  0  0  0  0  0  0  0  0  0  0  0
 28 29  1  0  0  0
 29 30  1  0  0  0
 29 20  1  0  0  0
 20 21  2  0  0  0
 20 22  1  0  0  0
 22 23  1  0  0  0
 23 24  1  0  0  0
 24 25  1  0  0  0
 25 26  1  0  0  0
 26 27  1  0  0  0
 25  8  1  0  0  0
  8  9  2  0  0  0
  9 10  1  0  0  0
 10  1  1  0  0  0
  1  2  2  0  0  0
  2  3  1  0  0  0
  3  4  2  0  0  0
  4 31  1  0  0  0
 31 32  1  0  0  0
 32 33  2  0  0  0
 32 35  1  0  0  0
 35 36  2  0  0  0
 36 37  1  0  0  0
 37 49  1  0  0  0
 49 50  1  0  0  0
 49 51  1  0  0  0
 37 38  1  0  0  0
 38 39  2  0  0  0
 38 40  1  0  0  0
 40 43  1  0  0  0
 43 44  2  0  0  0
 44 45  1  0  0  0
 45 46  2  0  0  0
 46 47  1  0  0  0
 47 48  2  0  0  0
 40 41  1  0  0  0
 41 42  2  0  0  0
  4  5  1  0  0  0
  5  6  2  0  0  0
  6  7  1  0  0  0
 10 11  2  0  0  0
 11 12  1  0  0  0
 12 13  1  0  0  0
 12 14  2  0  0  0
 14 15  1  0  0  0
 15 16  2  0  0  0
 16 17  1  0  0  0
 27 22  1  0  0  0
 17  8  1  0  0  0
  6  1  1  0  0  0
 17 11  1  0  0  0
 41 35  1  0  0  0
 48 43  1  0  0  0
 31 34  1  0  0  0
 13 18  1  0  0  0
 13 19  1  0  0  0
M  END
> <minimizedAffinity>
-9.25877

> <CNNscore>
0.0534420535

> <CNNaffinity>
6.4797983170

> <CNN_VS>
0.3462937176

> <CNNaffinity_variance>
0.5782338381

$$$$
[H]c1nc(N([H])[H])c2c(-c3c([H])c([H])c(N([H])C(=O)c4c([H])n(C([H])(C([H])([H])[H])C([H])([H])[H])c(=O)n(-c5c([H])c([H])c([H])c([H])c5[H])c4=O)c([H])c3C([H])([H])[H])c([H])c(C3([H])C([H])([H])C([H])([H])N(C(=O)C([H])(C([H])([H])[H])C([H])([H])[H])C([H])([H])C3([H])[H])n2n1


 51 56  0  0  0  0  0  0  0  0999 V2000
    2.0286    5.0565   13.0562 C   0  0  0  0  0  0  0  0  0  0  0  0
    3.2518    4.5003   13.3083 C   0  0  0  0  0  0  0  0  0  0  0  0
    3.8298    4.5659   14.5865 C   0  0  0  0  0  0  0  0  0  0  0  0
    3.1845    5.1868   15.6090 C   0  0  0  0  0  0  0  0  0  0  0  0
    1.9413    5.7555   15.3667 C   0  0  0  0  0  0  0  0  0  0  0  0
    1.3865    5.6808   14.0988 C   0  0  0  0  0  0  0  0  0  0  0  0
    0.0701    6.2883   13.8634 C   0  0  0  0  0  0  0  0  0  0  0  0
    0.1914    4.0421   10.0595 C   0  0  0  0  0  0  0  0  0  0  0  0
    0.6385    3.8425   11.3329 C   0  0  0  0  0  0  0  0  0  0  0  0
    1.3680    4.9673   11.7760 C   0  0  0  0  0  0  0  0  0  0  0  0
    1.3335    5.8423   10.7146 C   0  0  0  0  0  0  0  0  0  0  0  0
    1.8632    7.1103   10.5814 C   0  0  0  0  0  0  0  0  0  0  0  0
    2.5847    7.7776   11.6210 N   0  0  0  0  0  0  0  0  0  0  0  0
    1.6504    7.7497    9.4014 N   0  0  0  0  0  0  0  0  0  0  0  0
    0.9540    7.1675    8.4154 C   0  0  0  0  0  0  0  0  0  0  0  0
    0.4508    5.9345    8.5773 N   0  0  0  0  0  0  0  0  0  0  0  0
    0.6335    5.2814    9.7027 N   0  0  0  0  0  0  0  0  0  0  0  0
    2.0568    8.1224   12.4486 H   0  0  0  0  0  0  0  0  0  0  0  0
    3.6127    7.9392   11.5979 H   0  0  0  0  0  0  0  0  0  0  0  0
   -2.3976    2.4198    5.5082 C   0  0  0  0  0  0  0  0  0  0  0  0
   -3.4738    2.9968    5.2107 O   0  0  0  0  0  0  0  0  0  0  0  0
   -1.9645    2.3952    6.8459 N   0  0  0  0  0  0  0  0  0  0  0  0
   -2.7720    3.0167    7.8811 C   0  0  0  0  0  0  0  0  0  0  0  0
   -1.9619    3.7223    8.9134 C   0  0  0  0  0  0  0  0  0  0  0  0
   -0.6141    3.1203    9.1847 C   0  0  0  0  0  0  0  0  0  0  0  0
    0.1078    2.8009    7.9180 C   0  0  0  0  0  0  0  0  0  0  0  0
   -0.6960    1.7532    7.1614 C   0  0  0  0  0  0  0  0  0  0  0  0
   -2.3977    0.6457    3.7629 C   0  0  0  0  0  0  0  0  0  0  0  0
   -1.6451    1.7910    4.4083 C   0  0  0  0  0  0  0  0  0  0  0  0
   -1.2991    2.7917    3.3227 C   0  0  0  0  0  0  0  0  0  0  0  0
    3.6737    5.2904   16.9457 N   0  0  0  0  0  0  0  0  0  0  0  0
    4.4961    6.2936   17.4427 C   0  0  0  0  0  0  0  0  0  0  0  0
    4.8850    7.2149   16.6319 O   0  0  0  0  0  0  0  0  0  0  0  0
    3.4016    4.5221   17.6358 H   0  0  0  0  0  0  0  0  0  0  0  0
    4.9857    6.4303   18.8008 C   0  0  0  0  0  0  0  0  0  0  0  0
    5.6550    7.6097   19.1749 C   0  0  0  0  0  0  0  0  0  0  0  0
    6.1496    7.7706   20.4251 N   0  0  0  0  0  0  0  0  0  0  0  0
    5.9797    6.7773   21.2817 C   0  0  0  0  0  0  0  0  0  0  0  0
    6.4178    6.8610   22.4731 O   0  0  0  0  0  0  0  0  0  0  0  0
    5.3472    5.6341   20.9674 N   0  0  0  0  0  0  0  0  0  0  0  0
    4.8401    5.4360   19.7322 C   0  0  0  0  0  0  0  0  0  0  0  0
    4.2518    4.3336   19.5075 O   0  0  0  0  0  0  0  0  0  0  0  0
    5.1947    4.6057   21.9284 C   0  0  0  0  0  0  0  0  0  0  0  0
    6.1133    3.5847   22.0765 C   0  0  0  0  0  0  0  0  0  0  0  0
    5.8672    2.6362   23.0449 C   0  0  0  0  0  0  0  0  0  0  0  0
    4.7461    2.6850   23.8512 C   0  0  0  0  0  0  0  0  0  0  0  0
    3.8492    3.7113   23.6823 C   0  0  0  0  0  0  0  0  0  0  0  0
    4.0646    4.6715   22.7279 C   0  0  0  0  0  0  0  0  0  0  0  0
    6.8209    9.0012   20.7638 C   0  0  0  0  0  0  0  0  0  0  0  0
    5.8723   10.1180   21.1000 C   0  0  0  0  0  0  0  0  0  0  0  0
    7.6878    9.4567   19.5843 C   0  0  0  0  0  0  0  0  0  0  0  0
 28 29  1  0  0  0
 29 30  1  0  0  0
 29 20  1  0  0  0
 20 21  2  0  0  0
 20 22  1  0  0  0
 22 23  1  0  0  0
 23 24  1  0  0  0
 24 25  1  0  0  0
 25 26  1  0  0  0
 26 27  1  0  0  0
 25  8  1  0  0  0
  8  9  2  0  0  0
  9 10  1  0  0  0
 10  1  1  0  0  0
  1  2  2  0  0  0
  2  3  1  0  0  0
  3  4  2  0  0  0
  4 31  1  0  0  0
 31 32  1  0  0  0
 32 33  2  0  0  0
 32 35  1  0  0  0
 35 36  2  0  0  0
 36 37  1  0  0  0
 37 49  1  0  0  0
 49 50  1  0  0  0
 49 51  1  0  0  0
 37 38  1  0  0  0
 38 39  2  0  0  0
 38 40  1  0  0  0
 40 43  1  0  0  0
 43 44  2  0  0  0
 44 45  1  0  0  0
 45 46  2  0  0  0
 46 47  1  0  0  0
 47 48  2  0  0  0
 40 41  1  0  0  0
 41 42  2  0  0  0
  4  5  1  0  0  0
  5  6  2  0  0  0
  6  7  1  0  0  0
 10 11  2  0  0  0
 11 12  1  0  0  0
 12 13  1  0  0  0
 12 14  2  0  0  0
 14 15  1  0  0  0
 15 16  2  0  0  0
 16 17  1  0  0  0
 27 22  1  0  0  0
 17  8  1  0  0  0
  6  1  1  0  0  0
 17 11  1  0  0  0
 41 35  1  0  0  0
 48 43  1  0  0  0
 31 34  1  0  0  0
 13 18  1  0  0  0
 13 19  1  0  0  0
M  END
> <minimizedAffinity>
-8.37656

> <CNNscore>
0.0532372445

> <CNNaffinity>
6.4685873985

> <CNN_VS>
0.3443697691

> <CNNaffinity_variance>
0.8779511452

$$$$
[H]c1nc(N([H])[H])c2c(-c3c([H])c([H])c(N([H])C(=O)c4c([H])n(C([H])(C([H])([H])[H])C([H])([H])[H])c(=O)n(-c5c([H])c([H])c([H])c([H])c5[H])c4=O)c([H])c3C([H])([H])[H])c([H])c(C3([H])C([H])([H])C([H])([H])N(C(=O)C([H])(C([H])([H])[H])C([H])([H])[H])C([H])([H])C3([H])[H])n2n1


 51 56  0  0  0  0  0  0  0  0999 V2000
    1.7621    5.4082   12.4103 C   0  0  0  0  0  0  0  0  0  0  0  0
    3.1051    5.5549   12.6203 C   0  0  0  0  0  0  0  0  0  0  0  0
    3.6080    5.9115   13.8821 C   0  0  0  0  0  0  0  0  0  0  0  0
    2.7681    6.1206   14.9302 C   0  0  0  0  0  0  0  0  0  0  0  0
    1.4020    5.9746   14.7306 C   0  0  0  0  0  0  0  0  0  0  0  0
    0.9239    5.6219   13.4784 C   0  0  0  0  0  0  0  0  0  0  0  0
   -0.5247    5.4719   13.2883 C   0  0  0  0  0  0  0  0  0  0  0  0
    0.2200    5.1726    9.1010 C   0  0  0  0  0  0  0  0  0  0  0  0
    0.7556    5.8736   10.1417 C   0  0  0  0  0  0  0  0  0  0  0  0
    1.2002    4.9891   11.1485 C   0  0  0  0  0  0  0  0  0  0  0  0
    0.9084    3.7357   10.6617 C   0  0  0  0  0  0  0  0  0  0  0  0
    1.1345    2.4877   11.2073 C   0  0  0  0  0  0  0  0  0  0  0  0
    1.7745    2.2825   12.4702 N   0  0  0  0  0  0  0  0  0  0  0  0
    0.7458    1.4116   10.4743 N   0  0  0  0  0  0  0  0  0  0  0  0
    0.1697    1.5642    9.2739 C   0  0  0  0  0  0  0  0  0  0  0  0
   -0.0344    2.7910    8.7710 N   0  0  0  0  0  0  0  0  0  0  0  0
    0.3267    3.8582    9.4472 N   0  0  0  0  0  0  0  0  0  0  0  0
    2.7967    2.4618   12.5432 H   0  0  0  0  0  0  0  0  0  0  0  0
    1.2746    1.9627   13.3253 H   0  0  0  0  0  0  0  0  0  0  0  0
   -0.4162    8.6000    4.8705 C   0  0  0  0  0  0  0  0  0  0  0  0
   -0.9282    9.7245    5.1011 O   0  0  0  0  0  0  0  0  0  0  0  0
   -0.6843    7.5205    5.7310 N   0  0  0  0  0  0  0  0  0  0  0  0
   -1.5681    7.7026    6.8692 C   0  0  0  0  0  0  0  0  0  0  0  0
   -1.1157    6.9726    8.0867 C   0  0  0  0  0  0  0  0  0  0  0  0
   -0.3826    5.6898    7.8230 C   0  0  0  0  0  0  0  0  0  0  0  0
    0.6525    5.8590    6.7611 C   0  0  0  0  0  0  0  0  0  0  0  0
   -0.0504    6.2366    5.4651 C   0  0  0  0  0  0  0  0  0  0  0  0
    0.1373    9.5258    2.6278 C   0  0  0  0  0  0  0  0  0  0  0  0
    0.4498    8.4858    3.6838 C   0  0  0  0  0  0  0  0  0  0  0  0
    1.9165    8.6159    4.0464 C   0  0  0  0  0  0  0  0  0  0  0  0
    3.1771    6.4649   16.2535 N   0  0  0  0  0  0  0  0  0  0  0  0
    4.0479    5.7403   17.0575 C   0  0  0  0  0  0  0  0  0  0  0  0
    4.5249    4.6381   16.5937 O   0  0  0  0  0  0  0  0  0  0  0  0
    2.7708    7.3537   16.6842 H   0  0  0  0  0  0  0  0  0  0  0  0
    4.4939    6.0830   18.3942 C   0  0  0  0  0  0  0  0  0  0  0  0
    5.0502    7.3536   18.6286 C   0  0  0  0  0  0  0  0  0  0  0  0
    5.5015    7.7076   19.8551 N   0  0  0  0  0  0  0  0  0  0  0  0
    5.3994    6.8140   20.8249 C   0  0  0  0  0  0  0  0  0  0  0  0
    5.8023    7.0796   22.0020 O   0  0  0  0  0  0  0  0  0  0  0  0
    4.8752    5.5897   20.6458 N   0  0  0  0  0  0  0  0  0  0  0  0
    4.4144    5.1996   19.4385 C   0  0  0  0  0  0  0  0  0  0  0  0
    3.9287    4.0304   19.3438 O   0  0  0  0  0  0  0  0  0  0  0  0
    4.7911    4.6757   21.7237 C   0  0  0  0  0  0  0  0  0  0  0  0
    3.7358    4.6726   22.6150 C   0  0  0  0  0  0  0  0  0  0  0  0
    3.7538    3.7380   23.6270 C   0  0  0  0  0  0  0  0  0  0  0  0
    4.7826    2.8259   23.7646 C   0  0  0  0  0  0  0  0  0  0  0  0
    5.8195    2.8514   22.8643 C   0  0  0  0  0  0  0  0  0  0  0  0
    5.8318    3.7686   21.8455 C   0  0  0  0  0  0  0  0  0  0  0  0
    6.0562    9.0246   20.0483 C   0  0  0  0  0  0  0  0  0  0  0  0
    5.0086   10.0799   20.2695 C   0  0  0  0  0  0  0  0  0  0  0  0
    6.8763    9.4241   18.8160 C   0  0  0  0  0  0  0  0  0  0  0  0
 28 29  1  0  0  0
 29 30  1  0  0  0
 29 20  1  0  0  0
 20 21  2  0  0  0
 20 22  1  0  0  0
 22 23  1  0  0  0
 23 24  1  0  0  0
 24 25  1  0  0  0
 25 26  1  0  0  0
 26 27  1  0  0  0
 25  8  1  0  0  0
  8  9  2  0  0  0
  9 10  1  0  0  0
 10  1  1  0  0  0
  1  2  2  0  0  0
  2  3  1  0  0  0
  3  4  2  0  0  0
  4 31  1  0  0  0
 31 32  1  0  0  0
 32 33  2  0  0  0
 32 35  1  0  0  0
 35 36  2  0  0  0
 36 37  1  0  0  0
 37 49  1  0  0  0
 49 50  1  0  0  0
 49 51  1  0  0  0
 37 38  1  0  0  0
 38 39  2  0  0  0
 38 40  1  0  0  0
 40 43  1  0  0  0
 43 44  2  0  0  0
 44 45  1  0  0  0
 45 46  2  0  0  0
 46 47  1  0  0  0
 47 48  2  0  0  0
 40 41  1  0  0  0
 41 42  2  0  0  0
  4  5  1  0  0  0
  5  6  2  0  0  0
  6  7  1  0  0  0
 10 11  2  0  0  0
 11 12  1  0  0  0
 12 13  1  0  0  0
 12 14  2  0  0  0
 14 15  1  0  0  0
 15 16  2  0  0  0
 16 17  1  0  0  0
 27 22  1  0  0  0
 17  8  1  0  0  0
  6  1  1  0  0  0
 17 11  1  0  0  0
 41 35  1  0  0  0
 48 43  1  0  0  0
 31 34  1  0  0  0
 13 18  1  0  0  0
 13 19  1  0  0  0
M  END
> <minimizedAffinity>
-9.04815

> <CNNscore>
0.0510102771

> <CNNaffinity>
6.3826689720

> <CNN_VS>
0.3255816996

> <CNNaffinity_variance>
0.6123198867

$$$$
[H]c1nc(N([H])[H])c2c(-c3c([H])c([H])c(N([H])C(=O)c4c([H])n(C([H])(C([H])([H])[H])C([H])([H])[H])c(=O)n(-c5c([H])c([H])c([H])c([H])c5[H])c4=O)c([H])c3C([H])([H])[H])c([H])c(C3([H])C([H])([H])C([H])([H])N(C(=O)C([H])(C([H])([H])[H])C([H])([H])[H])C([H])([H])C3([H])[H])n2n1


 51 56  0  0  0  0  0  0  0  0999 V2000
    1.4025    5.4221   12.7849 C   0  0  0  0  0  0  0  0  0  0  0  0
    1.6380    4.3163   13.5535 C   0  0  0  0  0  0  0  0  0  0  0  0
    2.0916    4.4352   14.8773 C   0  0  0  0  0  0  0  0  0  0  0  0
    2.3085    5.6583   15.4293 C   0  0  0  0  0  0  0  0  0  0  0  0
    2.0728    6.7896   14.6598 C   0  0  0  0  0  0  0  0  0  0  0  0
    1.6252    6.6527   13.3553 C   0  0  0  0  0  0  0  0  0  0  0  0
    1.3812    7.8620   12.5582 C   0  0  0  0  0  0  0  0  0  0  0  0
    0.9021    5.2465    9.1651 C   0  0  0  0  0  0  0  0  0  0  0  0
    1.6821    5.2152   10.2839 C   0  0  0  0  0  0  0  0  0  0  0  0
    0.8832    5.3543   11.4399 C   0  0  0  0  0  0  0  0  0  0  0  0
   -0.4017    5.4673   10.9610 C   0  0  0  0  0  0  0  0  0  0  0  0
   -1.5993    5.6072   11.6337 C   0  0  0  0  0  0  0  0  0  0  0  0
   -1.7034    5.6487   13.0599 N   0  0  0  0  0  0  0  0  0  0  0  0
   -2.7281    5.6785   10.8805 N   0  0  0  0  0  0  0  0  0  0  0  0
   -2.6721    5.6136    9.5431 C   0  0  0  0  0  0  0  0  0  0  0  0
   -1.4923    5.4757    8.9198 N   0  0  0  0  0  0  0  0  0  0  0  0
   -0.3769    5.4027    9.6106 N   0  0  0  0  0  0  0  0  0  0  0  0
   -1.5453    4.7703   13.5945 H   0  0  0  0  0  0  0  0  0  0  0  0
   -1.9293    6.5110   13.5972 H   0  0  0  0  0  0  0  0  0  0  0  0
    3.9458    3.6061    4.9113 C   0  0  0  0  0  0  0  0  0  0  0  0
    5.0972    4.0959    4.7930 O   0  0  0  0  0  0  0  0  0  0  0  0
    2.9544    4.3132    5.6148 N   0  0  0  0  0  0  0  0  0  0  0  0
    3.2576    5.6153    6.1826 C   0  0  0  0  0  0  0  0  0  0  0  0
    2.6312    5.8345    7.5166 C   0  0  0  0  0  0  0  0  0  0  0  0
    1.3144    5.1442    7.7216 C   0  0  0  0  0  0  0  0  0  0  0  0
    1.3647    3.7232    7.2680 C   0  0  0  0  0  0  0  0  0  0  0  0
    1.6386    3.7092    5.7710 C   0  0  0  0  0  0  0  0  0  0  0  0
    4.2842    2.1926    2.8912 C   0  0  0  0  0  0  0  0  0  0  0  0
    3.7062    2.2926    4.2877 C   0  0  0  0  0  0  0  0  0  0  0  0
    4.2907    1.1647    5.1159 C   0  0  0  0  0  0  0  0  0  0  0  0
    2.7476    5.8883   16.7677 N   0  0  0  0  0  0  0  0  0  0  0  0
    4.0556    6.1222   17.1729 C   0  0  0  0  0  0  0  0  0  0  0  0
    4.9786    6.1118   16.2755 O   0  0  0  0  0  0  0  0  0  0  0  0
    2.0133    5.8662   17.5427 H   0  0  0  0  0  0  0  0  0  0  0  0
    4.5201    6.3804   18.5222 C   0  0  0  0  0  0  0  0  0  0  0  0
    5.0906    7.6300   18.8256 C   0  0  0  0  0  0  0  0  0  0  0  0
    5.5592    7.9061   20.0656 N   0  0  0  0  0  0  0  0  0  0  0  0
    5.4602    6.9567   20.9813 C   0  0  0  0  0  0  0  0  0  0  0  0
    5.8791    7.1480   22.1672 O   0  0  0  0  0  0  0  0  0  0  0  0
    4.9229    5.7498   20.7355 N   0  0  0  0  0  0  0  0  0  0  0  0
    4.4447    5.4367   19.5127 C   0  0  0  0  0  0  0  0  0  0  0  0
    3.9475    4.2793   19.3539 O   0  0  0  0  0  0  0  0  0  0  0  0
    4.8432    4.7735   21.7577 C   0  0  0  0  0  0  0  0  0  0  0  0
    3.7945    4.7213   22.6554 C   0  0  0  0  0  0  0  0  0  0  0  0
    3.8162    3.7279   23.6096 C   0  0  0  0  0  0  0  0  0  0  0  0
    4.8422    2.8053   23.6848 C   0  0  0  0  0  0  0  0  0  0  0  0
    5.8723    2.8806   22.7796 C   0  0  0  0  0  0  0  0  0  0  0  0
    5.8808    3.8569   21.8171 C   0  0  0  0  0  0  0  0  0  0  0  0
    6.1279    9.2045   20.3306 C   0  0  0  0  0  0  0  0  0  0  0  0
    5.1102   10.3108   20.3068 C   0  0  0  0  0  0  0  0  0  0  0  0
    7.1968    9.5232   19.2788 C   0  0  0  0  0  0  0  0  0  0  0  0
 28 29  1  0  0  0
 29 30  1  0  0  0
 29 20  1  0  0  0
 20 21  2  0  0  0
 20 22  1  0  0  0
 22 23  1  0  0  0
 23 24  1  0  0  0
 24 25  1  0  0  0
 25 26  1  0  0  0
 26 27  1  0  0  0
 25  8  1  0  0  0
  8  9  2  0  0  0
  9 10  1  0  0  0
 10  1  1  0  0  0
  1  2  2  0  0  0
  2  3  1  0  0  0
  3  4  2  0  0  0
  4 31  1  0  0  0
 31 32  1  0  0  0
 32 33  2  0  0  0
 32 35  1  0  0  0
 35 36  2  0  0  0
 36 37  1  0  0  0
 37 49  1  0  0  0
 49 50  1  0  0  0
 49 51  1  0  0  0
 37 38  1  0  0  0
 38 39  2  0  0  0
 38 40  1  0  0  0
 40 43  1  0  0  0
 43 44  2  0  0  0
 44 45  1  0  0  0
 45 46  2  0  0  0
 46 47  1  0  0  0
 47 48  2  0  0  0
 40 41  1  0  0  0
 41 42  2  0  0  0
  4  5  1  0  0  0
  5  6  2  0  0  0
  6  7  1  0  0  0
 10 11  2  0  0  0
 11 12  1  0  0  0
 12 13  1  0  0  0
 12 14  2  0  0  0
 14 15  1  0  0  0
 15 16  2  0  0  0
 16 17  1  0  0  0
 27 22  1  0  0  0
 17  8  1  0  0  0
  6  1  1  0  0  0
 17 11  1  0  0  0
 41 35  1  0  0  0
 48 43  1  0  0  0
 31 34  1  0  0  0
 13 18  1  0  0  0
 13 19  1  0  0  0
M  END
> <minimizedAffinity>
-8.32926

> <CNNscore>
0.0486897193

> <CNNaffinity>
6.4673323631

> <CNN_VS>
0.3148925900

> <CNNaffinity_variance>
0.6139760613

$$$$
[H]c1nc(N([H])[H])c2c(-c3c([H])c([H])c(N([H])C(=O)c4c([H])n(C([H])(C([H])([H])[H])C([H])([H])[H])c(=O)n(-c5c([H])c([H])c([H])c([H])c5[H])c4=O)c([H])c3C([H])([H])[H])c([H])c(C3([H])C([H])([H])C([H])([H])N(C(=O)C([H])(C([H])([H])[H])C([H])([H])[H])C([H])([H])C3([H])[H])n2n1


 51 56  0  0  0  0  0  0  0  0999 V2000
    4.3248    3.5413   18.4985 C   0  0  0  0  0  0  0  0  0  0  0  0
    4.7169    2.4888   17.7189 C   0  0  0  0  0  0  0  0  0  0  0  0
    4.1251    2.2519   16.4676 C   0  0  0  0  0  0  0  0  0  0  0  0
    3.1434    3.0668   15.9987 C   0  0  0  0  0  0  0  0  0  0  0  0
    2.7360    4.1396   16.7802 C   0  0  0  0  0  0  0  0  0  0  0  0
    3.3317    4.3579   18.0125 C   0  0  0  0  0  0  0  0  0  0  0  0
    2.8869    5.4987   18.8236 C   0  0  0  0  0  0  0  0  0  0  0  0
    6.2459    4.9667   21.2665 C   0  0  0  0  0  0  0  0  0  0  0  0
    5.7708    4.9792   19.9877 C   0  0  0  0  0  0  0  0  0  0  0  0
    4.9397    3.8596   19.7649 C   0  0  0  0  0  0  0  0  0  0  0  0
    4.9399    3.1843   20.9638 C   0  0  0  0  0  0  0  0  0  0  0  0
    4.2867    2.0278   21.3407 C   0  0  0  0  0  0  0  0  0  0  0  0
    3.4216    1.2909   20.4717 N   0  0  0  0  0  0  0  0  0  0  0  0
    4.4679    1.6024   22.6184 N   0  0  0  0  0  0  0  0  0  0  0  0
    5.2478    2.2830   23.4697 C   0  0  0  0  0  0  0  0  0  0  0  0
    5.8674    3.4046   23.0726 N   0  0  0  0  0  0  0  0  0  0  0  0
    5.7189    3.8507   21.8457 N   0  0  0  0  0  0  0  0  0  0  0  0
    2.4935    1.6971   20.2347 H   0  0  0  0  0  0  0  0  0  0  0  0
    3.6676    0.3671   20.0601 H   0  0  0  0  0  0  0  0  0  0  0  0
    8.4799    9.8601   22.3216 C   0  0  0  0  0  0  0  0  0  0  0  0
    9.2388   10.3562   21.4512 O   0  0  0  0  0  0  0  0  0  0  0  0
    8.2962    8.4669   22.3765 N   0  0  0  0  0  0  0  0  0  0  0  0
    9.0001    7.6054   21.4427 C   0  0  0  0  0  0  0  0  0  0  0  0
    8.1731    6.4647   20.9582 C   0  0  0  0  0  0  0  0  0  0  0  0
    7.1662    5.9462   21.9431 C   0  0  0  0  0  0  0  0  0  0  0  0
    6.4039    7.0581   22.5835 C   0  0  0  0  0  0  0  0  0  0  0  0
    7.3834    7.9179   23.3695 C   0  0  0  0  0  0  0  0  0  0  0  0
    8.7025   11.1835   24.4175 C   0  0  0  0  0  0  0  0  0  0  0  0
    7.8194   10.7949   23.2497 C   0  0  0  0  0  0  0  0  0  0  0  0
    7.3870   12.0681   22.5486 C   0  0  0  0  0  0  0  0  0  0  0  0
    2.4936    2.9262   14.7359 N   0  0  0  0  0  0  0  0  0  0  0  0
    2.9633    3.3941   13.5151 C   0  0  0  0  0  0  0  0  0  0  0  0
    4.0774    4.0391   13.5020 O   0  0  0  0  0  0  0  0  0  0  0  0
    1.5485    2.4293   14.7155 H   0  0  0  0  0  0  0  0  0  0  0  0
    2.3312    3.2427   12.2188 C   0  0  0  0  0  0  0  0  0  0  0  0
    2.8867    2.3512   11.2830 C   0  0  0  0  0  0  0  0  0  0  0  0
    2.3437    2.1959   10.0523 N   0  0  0  0  0  0  0  0  0  0  0  0
    1.2710    2.9136    9.7630 C   0  0  0  0  0  0  0  0  0  0  0  0
    0.7087    2.8170    8.6260 O   0  0  0  0  0  0  0  0  0  0  0  0
    0.7076    3.7762   10.6256 N   0  0  0  0  0  0  0  0  0  0  0  0
    1.2191    3.9588   11.8614 C   0  0  0  0  0  0  0  0  0  0  0  0
    0.6325    4.7867   12.6246 O   0  0  0  0  0  0  0  0  0  0  0  0
   -0.4421    4.5165   10.2589 C   0  0  0  0  0  0  0  0  0  0  0  0
   -1.7226    4.1061   10.5754 C   0  0  0  0  0  0  0  0  0  0  0  0
   -2.7701    4.9040   10.1707 C   0  0  0  0  0  0  0  0  0  0  0  0
   -2.5697    6.0784    9.4706 C   0  0  0  0  0  0  0  0  0  0  0  0
   -1.2860    6.4625    9.1692 C   0  0  0  0  0  0  0  0  0  0  0  0
   -0.2212    5.6912    9.5576 C   0  0  0  0  0  0  0  0  0  0  0  0
    2.9441    1.2637    9.1303 C   0  0  0  0  0  0  0  0  0  0  0  0
    3.4562    0.0186    9.7992 C   0  0  0  0  0  0  0  0  0  0  0  0
    4.1225    1.9339    8.4142 C   0  0  0  0  0  0  0  0  0  0  0  0
 28 29  1  0  0  0
 29 30  1  0  0  0
 29 20  1  0  0  0
 20 21  2  0  0  0
 20 22  1  0  0  0
 22 23  1  0  0  0
 23 24  1  0  0  0
 24 25  1  0  0  0
 25 26  1  0  0  0
 26 27  1  0  0  0
 25  8  1  0  0  0
  8  9  2  0  0  0
  9 10  1  0  0  0
 10  1  1  0  0  0
  1  2  2  0  0  0
  2  3  1  0  0  0
  3  4  2  0  0  0
  4 31  1  0  0  0
 31 32  1  0  0  0
 32 33  2  0  0  0
 32 35  1  0  0  0
 35 36  2  0  0  0
 36 37  1  0  0  0
 37 49  1  0  0  0
 49 50  1  0  0  0
 49 51  1  0  0  0
 37 38  1  0  0  0
 38 39  2  0  0  0
 38 40  1  0  0  0
 40 43  1  0  0  0
 43 44  2  0  0  0
 44 45  1  0  0  0
 45 46  2  0  0  0
 46 47  1  0  0  0
 47 48  2  0  0  0
 40 41  1  0  0  0
 41 42  2  0  0  0
  4  5  1  0  0  0
  5  6  2  0  0  0
  6  7  1  0  0  0
 10 11  2  0  0  0
 11 12  1  0  0  0
 12 13  1  0  0  0
 12 14  2  0  0  0
 14 15  1  0  0  0
 15 16  2  0  0  0
 16 17  1  0  0  0
 27 22  1  0  0  0
 17  8  1  0  0  0
  6  1  1  0  0  0
 17 11  1  0  0  0
 41 35  1  0  0  0
 48 43  1  0  0  0
 31 34  1  0  0  0
 13 18  1  0  0  0
 13 19  1  0  0  0
M  END
> <minimizedAffinity>
-9.46584

> <CNNscore>
0.0467206873

> <CNNaffinity>
6.9183478355

> <CNN_VS>
0.3232299685

> <CNNaffinity_variance>
0.3801879287

$$$$
[H]c1nc(N([H])[H])c2c(-c3c([H])c([H])c(N([H])C(=O)c4c([H])n(C([H])(C([H])([H])[H])C([H])([H])[H])c(=O)n(-c5c([H])c([H])c([H])c([H])c5[H])c4=O)c([H])c3C([H])([H])[H])c([H])c(C3([H])C([H])([H])C([H])([H])N(C(=O)C([H])(C([H])([H])[H])C([H])([H])[H])C([H])([H])C3([H])[H])n2n1


 51 56  0  0  0  0  0  0  0  0999 V2000
    2.3696    5.5658   12.5312 C   0  0  0  0  0  0  0  0  0  0  0  0
    2.9251    4.4819   13.1524 C   0  0  0  0  0  0  0  0  0  0  0  0
    3.5383    4.6011   14.4101 C   0  0  0  0  0  0  0  0  0  0  0  0
    3.5949    5.8024   15.0436 C   0  0  0  0  0  0  0  0  0  0  0  0
    3.0342    6.9111   14.4240 C   0  0  0  0  0  0  0  0  0  0  0  0
    2.4331    6.7743   13.1827 C   0  0  0  0  0  0  0  0  0  0  0  0
    1.8453    7.9594   12.5445 C   0  0  0  0  0  0  0  0  0  0  0  0
   -0.0375    5.1529    9.8072 C   0  0  0  0  0  0  0  0  0  0  0  0
    0.2974    5.2319   11.1274 C   0  0  0  0  0  0  0  0  0  0  0  0
    1.6797    5.4845   11.2660 C   0  0  0  0  0  0  0  0  0  0  0  0
    2.1500    5.5540    9.9748 C   0  0  0  0  0  0  0  0  0  0  0  0
    3.4221    5.7976    9.4966 C   0  0  0  0  0  0  0  0  0  0  0  0
    4.5483    6.0499   10.3420 N   0  0  0  0  0  0  0  0  0  0  0  0
    3.5825    5.8225    8.1475 N   0  0  0  0  0  0  0  0  0  0  0  0
    2.5448    5.6197    7.3240 C   0  0  0  0  0  0  0  0  0  0  0  0
    1.3205    5.3872    7.8207 N   0  0  0  0  0  0  0  0  0  0  0  0
    1.1220    5.3548    9.1192 N   0  0  0  0  0  0  0  0  0  0  0  0
    4.5989    6.9609   10.8421 H   0  0  0  0  0  0  0  0  0  0  0  0
    5.3243    5.3717   10.4872 H   0  0  0  0  0  0  0  0  0  0  0  0
   -5.4756    4.4709    9.7000 C   0  0  0  0  0  0  0  0  0  0  0  0
   -5.9423    3.4154   10.1977 O   0  0  0  0  0  0  0  0  0  0  0  0
   -4.1509    4.4950    9.2286 N   0  0  0  0  0  0  0  0  0  0  0  0
   -3.3345    3.2956    9.2981 C   0  0  0  0  0  0  0  0  0  0  0  0
   -1.9161    3.5709    9.6614 C   0  0  0  0  0  0  0  0  0  0  0  0
   -1.3832    4.8913    9.1870 C   0  0  0  0  0  0  0  0  0  0  0  0
   -2.3396    6.0015    9.4703 C   0  0  0  0  0  0  0  0  0  0  0  0
   -3.6199    5.7396    8.6902 C   0  0  0  0  0  0  0  0  0  0  0  0
   -7.8122    5.2611    9.3693 C   0  0  0  0  0  0  0  0  0  0  0  0
   -6.3709    5.6399    9.6409 C   0  0  0  0  0  0  0  0  0  0  0  0
   -6.3339    6.4392   10.9290 C   0  0  0  0  0  0  0  0  0  0  0  0
    4.1749    6.0261   16.3283 N   0  0  0  0  0  0  0  0  0  0  0  0
    3.5629    5.8010   17.5550 C   0  0  0  0  0  0  0  0  0  0  0  0
    2.3491    5.3719   17.5564 O   0  0  0  0  0  0  0  0  0  0  0  0
    5.1677    6.4180   16.3643 H   0  0  0  0  0  0  0  0  0  0  0  0
    4.1408    5.9998   18.8701 C   0  0  0  0  0  0  0  0  0  0  0  0
    4.6023    7.2784   19.2321 C   0  0  0  0  0  0  0  0  0  0  0  0
    5.1705    7.5044   20.4402 N   0  0  0  0  0  0  0  0  0  0  0  0
    5.2751    6.4777   21.2676 C   0  0  0  0  0  0  0  0  0  0  0  0
    5.7975    6.6184   22.4190 O   0  0  0  0  0  0  0  0  0  0  0  0
    4.8481    5.2405   20.9633 N   0  0  0  0  0  0  0  0  0  0  0  0
    4.2763    4.9753   19.7697 C   0  0  0  0  0  0  0  0  0  0  0  0
    3.8930    3.7846   19.5524 O   0  0  0  0  0  0  0  0  0  0  0  0
    4.9863    4.1806   21.8917 C   0  0  0  0  0  0  0  0  0  0  0  0
    6.0305    3.2777   21.8390 C   0  0  0  0  0  0  0  0  0  0  0  0
    6.0689    2.2854   22.7938 C   0  0  0  0  0  0  0  0  0  0  0  0
    5.1061    2.1779   23.7791 C   0  0  0  0  0  0  0  0  0  0  0  0
    4.0789    3.0890   23.8078 C   0  0  0  0  0  0  0  0  0  0  0  0
    4.0114    4.0890   22.8725 C   0  0  0  0  0  0  0  0  0  0  0  0
    5.6207    8.8343   20.7690 C   0  0  0  0  0  0  0  0  0  0  0  0
    4.7506    9.9131   20.1865 C   0  0  0  0  0  0  0  0  0  0  0  0
    7.0456    9.0408   20.2421 C   0  0  0  0  0  0  0  0  0  0  0  0
 28 29  1  0  0  0
 29 30  1  0  0  0
 29 20  1  0  0  0
 20 21  2  0  0  0
 20 22  1  0  0  0
 22 23  1  0  0  0
 23 24  1  0  0  0
 24 25  1  0  0  0
 25 26  1  0  0  0
 26 27  1  0  0  0
 25  8  1  0  0  0
  8  9  2  0  0  0
  9 10  1  0  0  0
 10  1  1  0  0  0
  1  2  2  0  0  0
  2  3  1  0  0  0
  3  4  2  0  0  0
  4 31  1  0  0  0
 31 32  1  0  0  0
 32 33  2  0  0  0
 32 35  1  0  0  0
 35 36  2  0  0  0
 36 37  1  0  0  0
 37 49  1  0  0  0
 49 50  1  0  0  0
 49 51  1  0  0  0
 37 38  1  0  0  0
 38 39  2  0  0  0
 38 40  1  0  0  0
 40 43  1  0  0  0
 43 44  2  0  0  0
 44 45  1  0  0  0
 45 46  2  0  0  0
 46 47  1  0  0  0
 47 48  2  0  0  0
 40 41  1  0  0  0
 41 42  2  0  0  0
  4  5  1  0  0  0
  5  6  2  0  0  0
  6  7  1  0  0  0
 10 11  2  0  0  0
 11 12  1  0  0  0
 12 13  1  0  0  0
 12 14  2  0  0  0
 14 15  1  0  0  0
 15 16  2  0  0  0
 16 17  1  0  0  0
 27 22  1  0  0  0
 17  8  1  0  0  0
  6  1  1  0  0  0
 17 11  1  0  0  0
 41 35  1  0  0  0
 48 43  1  0  0  0
 31 34  1  0  0  0
 13 18  1  0  0  0
 13 19  1  0  0  0
M  END
> <minimizedAffinity>
-9.67492

> <CNNscore>
0.0463951118

> <CNNaffinity>
6.5996193886

> <CNN_VS>
0.3061900735

> <CNNaffinity_variance>
0.5846152306

$$$$
[H]c1nc(N([H])[H])c2c(-c3c([H])c([H])c(N([H])C(=O)c4c([H])n(C([H])(C([H])([H])[H])C([H])([H])[H])c(=O)n(-c5c([H])c([H])c([H])c([H])c5[H])c4=O)c([H])c3C([H])([H])[H])c([H])c(C3([H])C([H])([H])C([H])([H])N(C(=O)C([H])(C([H])([H])[H])C([H])([H])[H])C([H])([H])C3([H])[H])n2n1


 51 56  0  0  0  0  0  0  0  0999 V2000
    2.6568    7.5449   13.6754 C   0  0  0  0  0  0  0  0  0  0  0  0
    2.7302    8.8446   14.0931 C   0  0  0  0  0  0  0  0  0  0  0  0
    3.4219    9.1929   15.2647 C   0  0  0  0  0  0  0  0  0  0  0  0
    4.0381    8.2420   16.0154 C   0  0  0  0  0  0  0  0  0  0  0  0
    3.9717    6.9182   15.6023 C   0  0  0  0  0  0  0  0  0  0  0  0
    3.2846    6.5934   14.4432 C   0  0  0  0  0  0  0  0  0  0  0  0
    3.2267    5.1872   14.0231 C   0  0  0  0  0  0  0  0  0  0  0  0
    0.3789    6.3164   11.0896 C   0  0  0  0  0  0  0  0  0  0  0  0
    0.6771    6.6745   12.3718 C   0  0  0  0  0  0  0  0  0  0  0  0
    2.0067    7.1434   12.4509 C   0  0  0  0  0  0  0  0  0  0  0  0
    2.4836    7.0506   11.1635 C   0  0  0  0  0  0  0  0  0  0  0  0
    3.7156    7.3860   10.6383 C   0  0  0  0  0  0  0  0  0  0  0  0
    4.7800    7.9426   11.4154 N   0  0  0  0  0  0  0  0  0  0  0  0
    3.8931    7.1952    9.3047 N   0  0  0  0  0  0  0  0  0  0  0  0
    2.9089    6.7033    8.5396 C   0  0  0  0  0  0  0  0  0  0  0  0
    1.7223    6.3888    9.0807 N   0  0  0  0  0  0  0  0  0  0  0  0
    1.5089    6.5580   10.3661 N   0  0  0  0  0  0  0  0  0  0  0  0
    4.6916    8.9252   11.7458 H   0  0  0  0  0  0  0  0  0  0  0  0
    5.6424    7.4192   11.6713 H   0  0  0  0  0  0  0  0  0  0  0  0
   -4.8598    6.4117    9.4782 C   0  0  0  0  0  0  0  0  0  0  0  0
   -5.7435    6.4984   10.3677 O   0  0  0  0  0  0  0  0  0  0  0  0
   -3.5986    5.8767    9.7959 N   0  0  0  0  0  0  0  0  0  0  0  0
   -3.3290    5.4065   11.1436 C   0  0  0  0  0  0  0  0  0  0  0  0
   -1.9518    5.7273   11.6129 C   0  0  0  0  0  0  0  0  0  0  0  0
   -0.9051    5.7590   10.5377 C   0  0  0  0  0  0  0  0  0  0  0  0
   -1.3671    6.5302    9.3463 C   0  0  0  0  0  0  0  0  0  0  0  0
   -2.5783    5.8204    8.7583 C   0  0  0  0  0  0  0  0  0  0  0  0
   -6.4385    6.1930    7.5668 C   0  0  0  0  0  0  0  0  0  0  0  0
   -5.2146    6.8862    8.1290 C   0  0  0  0  0  0  0  0  0  0  0  0
   -5.4758    8.3799    8.1115 C   0  0  0  0  0  0  0  0  0  0  0  0
    4.7821    8.4921   17.2074 N   0  0  0  0  0  0  0  0  0  0  0  0
    6.1351    8.7983   17.2807 C   0  0  0  0  0  0  0  0  0  0  0  0
    6.8062    8.8429   16.1829 O   0  0  0  0  0  0  0  0  0  0  0  0
    4.2650    8.4260   18.1395 H   0  0  0  0  0  0  0  0  0  0  0  0
    6.9048    9.0779   18.4776 C   0  0  0  0  0  0  0  0  0  0  0  0
    7.0708   10.4119   18.8920 C   0  0  0  0  0  0  0  0  0  0  0  0
    7.8012   10.7210   19.9895 N   0  0  0  0  0  0  0  0  0  0  0  0
    8.3525    9.7215   20.6577 C   0  0  0  0  0  0  0  0  0  0  0  0
    9.0507    9.9391   21.6986 O   0  0  0  0  0  0  0  0  0  0  0  0
    8.2200    8.4335   20.2979 N   0  0  0  0  0  0  0  0  0  0  0  0
    7.4999    8.0851   19.2106 C   0  0  0  0  0  0  0  0  0  0  0  0
    7.4144    6.8492   18.9328 O   0  0  0  0  0  0  0  0  0  0  0  0
    8.8333    7.4060   21.0544 C   0  0  0  0  0  0  0  0  0  0  0  0
    8.2126    6.8051   22.1324 C   0  0  0  0  0  0  0  0  0  0  0  0
    8.9002    5.8137   22.7973 C   0  0  0  0  0  0  0  0  0  0  0  0
   10.1683    5.4185   22.4164 C   0  0  0  0  0  0  0  0  0  0  0  0
   10.7618    6.0329   21.3410 C   0  0  0  0  0  0  0  0  0  0  0  0
   10.1046    7.0230   20.6573 C   0  0  0  0  0  0  0  0  0  0  0  0
    7.9358   12.1028   20.3796 C   0  0  0  0  0  0  0  0  0  0  0  0
    6.7229   12.6368   21.0893 C   0  0  0  0  0  0  0  0  0  0  0  0
    8.1751   12.9680   19.1368 C   0  0  0  0  0  0  0  0  0  0  0  0
 28 29  1  0  0  0
 29 30  1  0  0  0
 29 20  1  0  0  0
 20 21  2  0  0  0
 20 22  1  0  0  0
 22 23  1  0  0  0
 23 24  1  0  0  0
 24 25  1  0  0  0
 25 26  1  0  0  0
 26 27  1  0  0  0
 25  8  1  0  0  0
  8  9  2  0  0  0
  9 10  1  0  0  0
 10  1  1  0  0  0
  1  2  2  0  0  0
  2  3  1  0  0  0
  3  4  2  0  0  0
  4 31  1  0  0  0
 31 32  1  0  0  0
 32 33  2  0  0  0
 32 35  1  0  0  0
 35 36  2  0  0  0
 36 37  1  0  0  0
 37 49  1  0  0  0
 49 50  1  0  0  0
 49 51  1  0  0  0
 37 38  1  0  0  0
 38 39  2  0  0  0
 38 40  1  0  0  0
 40 43  1  0  0  0
 43 44  2  0  0  0
 44 45  1  0  0  0
 45 46  2  0  0  0
 46 47  1  0  0  0
 47 48  2  0  0  0
 40 41  1  0  0  0
 41 42  2  0  0  0
  4  5  1  0  0  0
  5  6  2  0  0  0
  6  7  1  0  0  0
 10 11  2  0  0  0
 11 12  1  0  0  0
 12 13  1  0  0  0
 12 14  2  0  0  0
 14 15  1  0  0  0
 15 16  2  0  0  0
 16 17  1  0  0  0
 27 22  1  0  0  0
 17  8  1  0  0  0
  6  1  1  0  0  0
 17 11  1  0  0  0
 41 35  1  0  0  0
 48 43  1  0  0  0
 31 34  1  0  0  0
 13 18  1  0  0  0
 13 19  1  0  0  0
M  END
> <minimizedAffinity>
-8.74005

> <CNNscore>
0.0443231985

> <CNNaffinity>
6.1482658386

> <CNN_VS>
0.2725107968

> <CNNaffinity_variance>
0.2285131961

$$$$
[H]OC1([H])C([H])([H])C([H])([H])C([H])(N([H])c2nc(N([H])C([H])([H])C([H])([H])C([H])([H])C([H])([H])[H])nc([H])c2-c2oc(C([H])([H])N3C([H])([H])C(F)(F)C3([H])[H])c([H])c2[H])C([H])([H])C1([H])[H]


 34 37  0  0  0  0  0  0  0  0999 V2000
    2.9876    0.0253   19.0718 C   0  0  0  0  0  0  0  0  0  0  0  0
    2.3067   -0.3613   17.9832 N   0  0  0  0  0  0  0  0  0  0  0  0
    2.3393    0.3434   16.8479 C   0  0  0  0  0  0  0  0  0  0  0  0
    3.0969    1.5392   16.7341 C   0  0  0  0  0  0  0  0  0  0  0  0
    3.7633    1.9059   17.8341 C   0  0  0  0  0  0  0  0  0  0  0  0
    3.7026    1.1459   18.9849 N   0  0  0  0  0  0  0  0  0  0  0  0
    3.0913    2.2473   15.4917 C   0  0  0  0  0  0  0  0  0  0  0  0
    3.1736    1.9292   14.1849 C   0  0  0  0  0  0  0  0  0  0  0  0
    3.1002    3.0810   13.4245 C   0  0  0  0  0  0  0  0  0  0  0  0
    2.9684    4.1107   14.3179 C   0  0  0  0  0  0  0  0  0  0  0  0
    2.9680    3.5904   15.4784 O   0  0  0  0  0  0  0  0  0  0  0  0
    2.8535    5.5426   13.9197 C   0  0  0  0  0  0  0  0  0  0  0  0
    1.5424    6.0120   14.2630 N   0  0  0  0  0  0  0  0  0  0  0  0
    1.2677    7.3612   13.8007 C   0  0  0  0  0  0  0  0  0  0  0  0
   -0.1660    6.9013   13.5412 C   0  0  0  0  0  0  0  0  0  0  0  0
   -0.9409    6.9952   14.6767 F   0  0  0  0  0  0  0  0  0  0  0  0
   -0.7303    7.3944   12.3974 F   0  0  0  0  0  0  0  0  0  0  0  0
    0.4968    5.5515   13.3708 C   0  0  0  0  0  0  0  0  0  0  0  0
    2.9365   -0.7466   20.2892 N   0  0  0  0  0  0  0  0  0  0  0  0
    2.2936   -1.5436   20.2941 H   0  0  0  0  0  0  0  0  0  0  0  0
    3.7422   -0.3443   21.3699 C   0  0  0  0  0  0  0  0  0  0  0  0
    3.3223    0.8000   22.2041 C   0  0  0  0  0  0  0  0  0  0  0  0
    5.6731    1.6414   21.9430 C   0  0  0  0  0  0  0  0  0  0  0  0
    4.3229    1.8253   22.5579 C   0  0  0  0  0  0  0  0  0  0  0  0
    4.4456    3.1216   17.9542 N   0  0  0  0  0  0  0  0  0  0  0  0
    5.1414    3.4557   17.3081 H   0  0  0  0  0  0  0  0  0  0  0  0
    4.1381    4.0714   19.0569 C   0  0  0  0  0  0  0  0  0  0  0  0
    3.1136    5.0704   18.6427 C   0  0  0  0  0  0  0  0  0  0  0  0
    3.6476    6.4179   18.2678 C   0  0  0  0  0  0  0  0  0  0  0  0
    4.3133    6.9273   19.5559 C   0  0  0  0  0  0  0  0  0  0  0  0
    4.6922    8.2492   19.4010 O   0  0  0  0  0  0  0  0  0  0  0  0
    5.5300    6.0920   19.7301 C   0  0  0  0  0  0  0  0  0  0  0  0
    5.3743    4.6279   19.6637 C   0  0  0  0  0  0  0  0  0  0  0  0
    4.5021    8.5385   18.4806 H   0  0  0  0  0  0  0  0  0  0  0  0
 23 24  1  0  0  0
 24 22  1  0  0  0
 22 21  1  0  0  0
 21 19  1  0  0  0
 19  1  1  0  0  0
  1  2  2  0  0  0
  2  3  1  0  0  0
  3  4  2  0  0  0
  4  7  1  0  0  0
  7  8  2  0  0  0
  8  9  1  0  0  0
  9 10  2  0  0  0
 10 12  1  0  0  0
 12 13  1  0  0  0
 13 14  1  0  0  0
 14 15  1  0  0  0
 15 16  1  0  0  0
 15 17  1  0  0  0
 15 18  1  0  0  0
 10 11  1  0  0  0
  4  5  1  0  0  0
  5 25  1  0  0  0
 25 27  1  0  0  0
 27 28  1  0  0  0
 28 29  1  0  0  0
 29 30  1  0  0  0
 30 31  1  0  0  0
 30 32  1  0  0  0
 32 33  1  0  0  0
  5  6  2  0  0  0
  6  1  1  0  0  0
 11  7  1  0  0  0
 33 27  1  0  0  0
 18 13  1  0  0  0
 19 20  1  0  0  0
 25 26  1  0  0  0
 31 34  1  0  0  0
M  END
> <minimizedAffinity>
-8.27325

> <CNNscore>
0.9770585299

> <CNNaffinity>
7.4419670105

> <CNN_VS>
7.2712373734

> <CNNaffinity_variance>
0.1189363599

$$$$
[H]OC1([H])C([H])([H])C([H])([H])C([H])(N([H])c2nc(N([H])C([H])([H])C([H])([H])C([H])([H])C([H])([H])[H])nc([H])c2-c2oc(C([H])([H])N3C([H])([H])C(F)(F)C3([H])[H])c([H])c2[H])C([H])([H])C1([H])[H]


 34 37  0  0  0  0  0  0  0  0999 V2000
    2.8056    0.1366   18.2643 C   0  0  0  0  0  0  0  0  0  0  0  0
    2.2623   -0.1135   17.0641 N   0  0  0  0  0  0  0  0  0  0  0  0
    2.4542    0.7025   16.0230 C   0  0  0  0  0  0  0  0  0  0  0  0
    3.2439    1.8777   16.1325 C   0  0  0  0  0  0  0  0  0  0  0  0
    3.7709    2.1073   17.3399 C   0  0  0  0  0  0  0  0  0  0  0  0
    3.5480    1.2358   18.3870 N   0  0  0  0  0  0  0  0  0  0  0  0
    3.4118    2.7093   14.9813 C   0  0  0  0  0  0  0  0  0  0  0  0
    3.8987    3.9398   14.7268 C   0  0  0  0  0  0  0  0  0  0  0  0
    3.8009    4.2036   13.3737 C   0  0  0  0  0  0  0  0  0  0  0  0
    3.2381    3.0869   12.8151 C   0  0  0  0  0  0  0  0  0  0  0  0
    3.0348    2.2656   13.7646 O   0  0  0  0  0  0  0  0  0  0  0  0
    2.9518    2.9442   11.3591 C   0  0  0  0  0  0  0  0  0  0  0  0
    2.0047    1.8824   11.1783 N   0  0  0  0  0  0  0  0  0  0  0  0
    0.7939    2.2936   10.4894 C   0  0  0  0  0  0  0  0  0  0  0  0
    0.7980    0.9212    9.8178 C   0  0  0  0  0  0  0  0  0  0  0  0
    0.1818   -0.0284   10.6033 F   0  0  0  0  0  0  0  0  0  0  0  0
    0.4350    0.9247    8.4995 F   0  0  0  0  0  0  0  0  0  0  0  0
    2.2905    1.0210   10.0478 C   0  0  0  0  0  0  0  0  0  0  0  0
    2.5834   -0.7540   19.3770 N   0  0  0  0  0  0  0  0  0  0  0  0
    2.3393   -1.7205   19.1425 H   0  0  0  0  0  0  0  0  0  0  0  0
    2.6945   -0.2360   20.6801 C   0  0  0  0  0  0  0  0  0  0  0  0
    4.0011   -0.2714   21.3682 C   0  0  0  0  0  0  0  0  0  0  0  0
    3.7822    2.0279   22.3520 C   0  0  0  0  0  0  0  0  0  0  0  0
    4.6603    1.0049   21.7057 C   0  0  0  0  0  0  0  0  0  0  0  0
    4.4563    3.2809   17.6729 N   0  0  0  0  0  0  0  0  0  0  0  0
    5.2121    3.6757   17.1380 H   0  0  0  0  0  0  0  0  0  0  0  0
    4.0637    4.0925   18.8559 C   0  0  0  0  0  0  0  0  0  0  0  0
    3.1312    5.1902   18.4757 C   0  0  0  0  0  0  0  0  0  0  0  0
    3.7552    6.5450   18.3469 C   0  0  0  0  0  0  0  0  0  0  0  0
    4.2913    6.8448   19.7557 C   0  0  0  0  0  0  0  0  0  0  0  0
    4.7355    8.1536   19.8236 O   0  0  0  0  0  0  0  0  0  0  0  0
    5.4479    5.9304   19.9422 C   0  0  0  0  0  0  0  0  0  0  0  0
    5.2445    4.4981   19.6606 C   0  0  0  0  0  0  0  0  0  0  0  0
    4.6611    8.5710   18.9364 H   0  0  0  0  0  0  0  0  0  0  0  0
 23 24  1  0  0  0
 24 22  1  0  0  0
 22 21  1  0  0  0
 21 19  1  0  0  0
 19  1  1  0  0  0
  1  2  2  0  0  0
  2  3  1  0  0  0
  3  4  2  0  0  0
  4  7  1  0  0  0
  7  8  2  0  0  0
  8  9  1  0  0  0
  9 10  2  0  0  0
 10 12  1  0  0  0
 12 13  1  0  0  0
 13 14  1  0  0  0
 14 15  1  0  0  0
 15 16  1  0  0  0
 15 17  1  0  0  0
 15 18  1  0  0  0
 10 11  1  0  0  0
  4  5  1  0  0  0
  5 25  1  0  0  0
 25 27  1  0  0  0
 27 28  1  0  0  0
 28 29  1  0  0  0
 29 30  1  0  0  0
 30 31  1  0  0  0
 30 32  1  0  0  0
 32 33  1  0  0  0
  5  6  2  0  0  0
  6  1  1  0  0  0
 11  7  1  0  0  0
 33 27  1  0  0  0
 18 13  1  0  0  0
 19 20  1  0  0  0
 25 26  1  0  0  0
 31 34  1  0  0  0
M  END
> <minimizedAffinity>
-7.50354

> <CNNscore>
0.9650002122

> <CNNaffinity>
7.1577363014

> <CNN_VS>
6.9072170258

> <CNNaffinity_variance>
0.0454838611

$$$$
[H]OC1([H])C([H])([H])C([H])([H])C([H])(N([H])c2nc(N([H])C([H])([H])C([H])([H])C([H])([H])C([H])([H])[H])nc([H])c2-c2oc(C([H])([H])N3C([H])([H])C(F)(F)C3([H])[H])c([H])c2[H])C([H])([H])C1([H])[H]


 34 37  0  0  0  0  0  0  0  0999 V2000
    4.1607    1.5332   17.9440 C   0  0  0  0  0  0  0  0  0  0  0  0
    3.2477    0.7776   17.3166 N   0  0  0  0  0  0  0  0  0  0  0  0
    2.7370    1.1317   16.1333 C   0  0  0  0  0  0  0  0  0  0  0  0
    3.1342    2.3270   15.4773 C   0  0  0  0  0  0  0  0  0  0  0  0
    4.0421    3.0651   16.1249 C   0  0  0  0  0  0  0  0  0  0  0  0
    4.5443    2.6596   17.3451 N   0  0  0  0  0  0  0  0  0  0  0  0
    2.5512    2.6495   14.2120 C   0  0  0  0  0  0  0  0  0  0  0  0
    2.4678    2.0706   12.9980 C   0  0  0  0  0  0  0  0  0  0  0  0
    1.7437    2.8847   12.1477 C   0  0  0  0  0  0  0  0  0  0  0  0
    1.3884    3.9790   12.8908 C   0  0  0  0  0  0  0  0  0  0  0  0
    1.8680    3.8019   14.0553 O   0  0  0  0  0  0  0  0  0  0  0  0
    0.5892    5.1183   12.3566 C   0  0  0  0  0  0  0  0  0  0  0  0
   -0.7688    4.6888   12.1881 N   0  0  0  0  0  0  0  0  0  0  0  0
   -1.7438    5.7438   12.4026 C   0  0  0  0  0  0  0  0  0  0  0  0
   -2.5644    5.1128   11.2788 C   0  0  0  0  0  0  0  0  0  0  0  0
   -3.3692    4.0978   11.7484 F   0  0  0  0  0  0  0  0  0  0  0  0
   -3.1681    6.0049   10.4365 F   0  0  0  0  0  0  0  0  0  0  0  0
   -1.2066    4.6394   10.8070 C   0  0  0  0  0  0  0  0  0  0  0  0
    4.6971    1.1363   19.2229 N   0  0  0  0  0  0  0  0  0  0  0  0
    5.3733    0.3673   19.2120 H   0  0  0  0  0  0  0  0  0  0  0  0
    4.2455    1.8066   20.3742 C   0  0  0  0  0  0  0  0  0  0  0  0
    4.9314    3.0382   20.8152 C   0  0  0  0  0  0  0  0  0  0  0  0
    6.5929    1.5689   21.9912 C   0  0  0  0  0  0  0  0  0  0  0  0
    6.0006    2.9317   21.8265 C   0  0  0  0  0  0  0  0  0  0  0  0
    4.4464    4.3367   15.7034 N   0  0  0  0  0  0  0  0  0  0  0  0
    5.0215    4.5184   14.8975 H   0  0  0  0  0  0  0  0  0  0  0  0
    3.9897    5.5633   16.4099 C   0  0  0  0  0  0  0  0  0  0  0  0
    5.1216    6.2487   17.0941 C   0  0  0  0  0  0  0  0  0  0  0  0
    5.2191    6.0081   18.5686 C   0  0  0  0  0  0  0  0  0  0  0  0
    3.9084    6.5833   19.1282 C   0  0  0  0  0  0  0  0  0  0  0  0
    3.9482    6.5907   20.5115 O   0  0  0  0  0  0  0  0  0  0  0  0
    2.8427    5.6497   18.6794 C   0  0  0  0  0  0  0  0  0  0  0  0
    2.7920    5.3010   17.2484 C   0  0  0  0  0  0  0  0  0  0  0  0
    4.7826    6.1696   20.8172 H   0  0  0  0  0  0  0  0  0  0  0  0
 23 24  1  0  0  0
 24 22  1  0  0  0
 22 21  1  0  0  0
 21 19  1  0  0  0
 19  1  1  0  0  0
  1  2  2  0  0  0
  2  3  1  0  0  0
  3  4  2  0  0  0
  4  7  1  0  0  0
  7  8  2  0  0  0
  8  9  1  0  0  0
  9 10  2  0  0  0
 10 12  1  0  0  0
 12 13  1  0  0  0
 13 14  1  0  0  0
 14 15  1  0  0  0
 15 16  1  0  0  0
 15 17  1  0  0  0
 15 18  1  0  0  0
 10 11  1  0  0  0
  4  5  1  0  0  0
  5 25  1  0  0  0
 25 27  1  0  0  0
 27 28  1  0  0  0
 28 29  1  0  0  0
 29 30  1  0  0  0
 30 31  1  0  0  0
 30 32  1  0  0  0
 32 33  1  0  0  0
  5  6  2  0  0  0
  6  1  1  0  0  0
 11  7  1  0  0  0
 33 27  1  0  0  0
 18 13  1  0  0  0
 19 20  1  0  0  0
 25 26  1  0  0  0
 31 34  1  0  0  0
M  END
> <minimizedAffinity>
-7.68601

> <CNNscore>
0.7179898620

> <CNNaffinity>
6.8228988647

> <CNN_VS>
4.8987722397

> <CNNaffinity_variance>
0.3093152344

$$$$
[H]OC1([H])C([H])([H])C([H])([H])C([H])(N([H])c2nc(N([H])C([H])([H])C([H])([H])C([H])([H])C([H])([H])[H])nc([H])c2-c2oc(C([H])([H])N3C([H])([H])C(F)(F)C3([H])[H])c([H])c2[H])C([H])([H])C1([H])[H]


 34 37  0  0  0  0  0  0  0  0999 V2000
    2.7014    1.4715   15.9470 C   0  0  0  0  0  0  0  0  0  0  0  0
    2.5930    0.5742   16.9377 N   0  0  0  0  0  0  0  0  0  0  0  0
    3.2383    0.7283   18.0980 C   0  0  0  0  0  0  0  0  0  0  0  0
    4.0731    1.8507   18.3435 C   0  0  0  0  0  0  0  0  0  0  0  0
    4.1682    2.7286   17.3392 C   0  0  0  0  0  0  0  0  0  0  0  0
    3.4819    2.5302   16.1580 N   0  0  0  0  0  0  0  0  0  0  0  0
    4.7357    1.9583   19.6062 C   0  0  0  0  0  0  0  0  0  0  0  0
    5.4575    1.1467   20.4037 C   0  0  0  0  0  0  0  0  0  0  0  0
    5.8547    1.8415   21.5304 C   0  0  0  0  0  0  0  0  0  0  0  0
    5.3489    3.1062   21.3871 C   0  0  0  0  0  0  0  0  0  0  0  0
    4.7217    3.1262   20.2808 O   0  0  0  0  0  0  0  0  0  0  0  0
    5.5438    4.1940   22.3875 C   0  0  0  0  0  0  0  0  0  0  0  0
    6.4455    5.1661   21.8405 N   0  0  0  0  0  0  0  0  0  0  0  0
    6.3090    6.4850   22.4333 C   0  0  0  0  0  0  0  0  0  0  0  0
    7.8245    6.6224   22.2968 C   0  0  0  0  0  0  0  0  0  0  0  0
    8.1805    7.0804   21.0469 F   0  0  0  0  0  0  0  0  0  0  0  0
    8.4438    7.2359   23.3502 F   0  0  0  0  0  0  0  0  0  0  0  0
    7.7823    5.1130   22.3988 C   0  0  0  0  0  0  0  0  0  0  0  0
    2.0003    1.2854   14.7002 N   0  0  0  0  0  0  0  0  0  0  0  0
    1.7227    0.3257   14.4751 H   0  0  0  0  0  0  0  0  0  0  0  0
    1.7713    2.4107   13.8878 C   0  0  0  0  0  0  0  0  0  0  0  0
    2.6772    2.6862   12.7542 C   0  0  0  0  0  0  0  0  0  0  0  0
    1.1551    1.5262   11.1293 C   0  0  0  0  0  0  0  0  0  0  0  0
    2.5536    1.8686   11.5321 C   0  0  0  0  0  0  0  0  0  0  0  0
    5.0489    3.8160   17.3450 N   0  0  0  0  0  0  0  0  0  0  0  0
    6.0523    3.7418   17.3725 H   0  0  0  0  0  0  0  0  0  0  0  0
    4.5477    5.2131   17.2485 C   0  0  0  0  0  0  0  0  0  0  0  0
    5.6294    6.1982   17.5292 C   0  0  0  0  0  0  0  0  0  0  0  0
    5.6153    6.7907   18.9041 C   0  0  0  0  0  0  0  0  0  0  0  0
    4.2698    7.5296   18.9785 C   0  0  0  0  0  0  0  0  0  0  0  0
    4.2064    8.2800   20.1395 O   0  0  0  0  0  0  0  0  0  0  0  0
    3.2352    6.4641   19.0335 C   0  0  0  0  0  0  0  0  0  0  0  0
    3.2894    5.3999   18.0153 C   0  0  0  0  0  0  0  0  0  0  0  0
    5.0133    8.1187   20.6779 H   0  0  0  0  0  0  0  0  0  0  0  0
 23 24  1  0  0  0
 24 22  1  0  0  0
 22 21  1  0  0  0
 21 19  1  0  0  0
 19  1  1  0  0  0
  1  2  2  0  0  0
  2  3  1  0  0  0
  3  4  2  0  0  0
  4  7  1  0  0  0
  7  8  2  0  0  0
  8  9  1  0  0  0
  9 10  2  0  0  0
 10 12  1  0  0  0
 12 13  1  0  0  0
 13 14  1  0  0  0
 14 15  1  0  0  0
 15 16  1  0  0  0
 15 17  1  0  0  0
 15 18  1  0  0  0
 10 11  1  0  0  0
  4  5  1  0  0  0
  5 25  1  0  0  0
 25 27  1  0  0  0
 27 28  1  0  0  0
 28 29  1  0  0  0
 29 30  1  0  0  0
 30 31  1  0  0  0
 30 32  1  0  0  0
 32 33  1  0  0  0
  5  6  2  0  0  0
  6  1  1  0  0  0
 11  7  1  0  0  0
 33 27  1  0  0  0
 18 13  1  0  0  0
 19 20  1  0  0  0
 25 26  1  0  0  0
 31 34  1  0  0  0
M  END
> <minimizedAffinity>
-7.66925

> <CNNscore>
0.7122724652

> <CNNaffinity>
7.0509233475

> <CNN_VS>
5.0221786499

> <CNNaffinity_variance>
0.2126148194

$$$$
[H]OC1([H])C([H])([H])C([H])([H])C([H])(N([H])c2nc(N([H])C([H])([H])C([H])([H])C([H])([H])C([H])([H])[H])nc([H])c2-c2oc(C([H])([H])N3C([H])([H])C(F)(F)C3([H])[H])c([H])c2[H])C([H])([H])C1([H])[H]


 34 37  0  0  0  0  0  0  0  0999 V2000
    4.0050    1.3022   18.9795 C   0  0  0  0  0  0  0  0  0  0  0  0
    3.0988    0.7216   18.1796 N   0  0  0  0  0  0  0  0  0  0  0  0
    2.8887    1.1489   16.9308 C   0  0  0  0  0  0  0  0  0  0  0  0
    3.6142    2.2406   16.3844 C   0  0  0  0  0  0  0  0  0  0  0  0
    4.5086    2.8053   17.2027 C   0  0  0  0  0  0  0  0  0  0  0  0
    4.6941    2.3295   18.4852 N   0  0  0  0  0  0  0  0  0  0  0  0
    3.3434    2.6494   15.0410 C   0  0  0  0  0  0  0  0  0  0  0  0
    3.0154    2.0446   13.8824 C   0  0  0  0  0  0  0  0  0  0  0  0
    2.8690    2.9961   12.8908 C   0  0  0  0  0  0  0  0  0  0  0  0
    3.1184    4.2020   13.4904 C   0  0  0  0  0  0  0  0  0  0  0  0
    3.3829    3.9565   14.7100 O   0  0  0  0  0  0  0  0  0  0  0  0
    3.0681    5.5086   12.7746 C   0  0  0  0  0  0  0  0  0  0  0  0
    3.8077    6.4767   13.5315 N   0  0  0  0  0  0  0  0  0  0  0  0
    4.2532    7.6135   12.7448 C   0  0  0  0  0  0  0  0  0  0  0  0
    3.9910    8.4761   13.9783 C   0  0  0  0  0  0  0  0  0  0  0  0
    5.0724    8.4800   14.8323 F   0  0  0  0  0  0  0  0  0  0  0  0
    3.4382    9.6994   13.7181 F   0  0  0  0  0  0  0  0  0  0  0  0
    2.9790    7.3943   14.2884 C   0  0  0  0  0  0  0  0  0  0  0  0
    4.2144    0.8292   20.3260 N   0  0  0  0  0  0  0  0  0  0  0  0
    3.9449   -0.1410   20.5128 H   0  0  0  0  0  0  0  0  0  0  0  0
    4.7437    1.7237   21.2739 C   0  0  0  0  0  0  0  0  0  0  0  0
    3.9651    2.0419   22.4882 C   0  0  0  0  0  0  0  0  0  0  0  0
    5.6316    2.0564   24.3657 C   0  0  0  0  0  0  0  0  0  0  0  0
    4.6159    2.8091   23.5676 C   0  0  0  0  0  0  0  0  0  0  0  0
    5.2119    3.9737   16.8896 N   0  0  0  0  0  0  0  0  0  0  0  0
    5.9395    4.0376   16.1969 H   0  0  0  0  0  0  0  0  0  0  0  0
    4.8825    5.2690   17.5424 C   0  0  0  0  0  0  0  0  0  0  0  0
    5.9033    5.6374   18.5629 C   0  0  0  0  0  0  0  0  0  0  0  0
    5.5164    5.3652   19.9834 C   0  0  0  0  0  0  0  0  0  0  0  0
    4.2794    6.2489   20.2094 C   0  0  0  0  0  0  0  0  0  0  0  0
    3.9247    6.2320   21.5469 O   0  0  0  0  0  0  0  0  0  0  0  0
    3.1934    5.6212   19.4123 C   0  0  0  0  0  0  0  0  0  0  0  0
    3.4694    5.3111   17.9982 C   0  0  0  0  0  0  0  0  0  0  0  0
    4.5106    5.6097   22.0331 H   0  0  0  0  0  0  0  0  0  0  0  0
 23 24  1  0  0  0
 24 22  1  0  0  0
 22 21  1  0  0  0
 21 19  1  0  0  0
 19  1  1  0  0  0
  1  2  2  0  0  0
  2  3  1  0  0  0
  3  4  2  0  0  0
  4  7  1  0  0  0
  7  8  2  0  0  0
  8  9  1  0  0  0
  9 10  2  0  0  0
 10 12  1  0  0  0
 12 13  1  0  0  0
 13 14  1  0  0  0
 14 15  1  0  0  0
 15 16  1  0  0  0
 15 17  1  0  0  0
 15 18  1  0  0  0
 10 11  1  0  0  0
  4  5  1  0  0  0
  5 25  1  0  0  0
 25 27  1  0  0  0
 27 28  1  0  0  0
 28 29  1  0  0  0
 29 30  1  0  0  0
 30 31  1  0  0  0
 30 32  1  0  0  0
 32 33  1  0  0  0
  5  6  2  0  0  0
  6  1  1  0  0  0
 11  7  1  0  0  0
 33 27  1  0  0  0
 18 13  1  0  0  0
 19 20  1  0  0  0
 25 26  1  0  0  0
 31 34  1  0  0  0
M  END
> <minimizedAffinity>
-7.76889

> <CNNscore>
0.5576146245

> <CNNaffinity>
6.7483873367

> <CNN_VS>
3.7629995346

> <CNNaffinity_variance>
0.3034288287

$$$$
[H]OC1([H])C([H])([H])C([H])([H])C([H])(N([H])c2nc(N([H])C([H])([H])C([H])([H])C([H])([H])C([H])([H])[H])nc([H])c2-c2oc(C([H])([H])N3C([H])([H])C(F)(F)C3([H])[H])c([H])c2[H])C([H])([H])C1([H])[H]


 34 37  0  0  0  0  0  0  0  0999 V2000
    4.0679    2.0409   17.6552 C   0  0  0  0  0  0  0  0  0  0  0  0
    3.2267    1.1010   17.2004 N   0  0  0  0  0  0  0  0  0  0  0  0
    2.7097    1.1581   15.9691 C   0  0  0  0  0  0  0  0  0  0  0  0
    3.0242    2.2173   15.0769 C   0  0  0  0  0  0  0  0  0  0  0  0
    3.8614    3.1440   15.5551 C   0  0  0  0  0  0  0  0  0  0  0  0
    4.3732    3.0438   16.8333 N   0  0  0  0  0  0  0  0  0  0  0  0
    2.4389    2.2209   13.7721 C   0  0  0  0  0  0  0  0  0  0  0  0
    1.2747    1.8241   13.2219 C   0  0  0  0  0  0  0  0  0  0  0  0
    1.2840    2.1068   11.8690 C   0  0  0  0  0  0  0  0  0  0  0  0
    2.4966    2.6919   11.6181 C   0  0  0  0  0  0  0  0  0  0  0  0
    3.1181    2.7361   12.7268 O   0  0  0  0  0  0  0  0  0  0  0  0
    2.9269    3.1596   10.2696 C   0  0  0  0  0  0  0  0  0  0  0  0
    4.3336    2.9195   10.1264 N   0  0  0  0  0  0  0  0  0  0  0  0
    4.7638    2.7870    8.7455 C   0  0  0  0  0  0  0  0  0  0  0  0
    6.0478    3.5076    9.1535 C   0  0  0  0  0  0  0  0  0  0  0  0
    6.9805    2.6304    9.6625 F   0  0  0  0  0  0  0  0  0  0  0  0
    6.5192    4.4064    8.2372 F   0  0  0  0  0  0  0  0  0  0  0  0
    5.1492    4.1151   10.2089 C   0  0  0  0  0  0  0  0  0  0  0  0
    4.6121    1.9640   18.9889 N   0  0  0  0  0  0  0  0  0  0  0  0
    5.4699    2.4967   19.1600 H   0  0  0  0  0  0  0  0  0  0  0  0
    3.9504    1.1609   19.9354 C   0  0  0  0  0  0  0  0  0  0  0  0
    4.7206    0.5536   21.0399 C   0  0  0  0  0  0  0  0  0  0  0  0
    6.4018    2.0974   22.0850 C   0  0  0  0  0  0  0  0  0  0  0  0
    6.1407    0.9207   21.2006 C   0  0  0  0  0  0  0  0  0  0  0  0
    4.1730    4.3272   14.8761 N   0  0  0  0  0  0  0  0  0  0  0  0
    4.9286    4.4299   14.2190 H   0  0  0  0  0  0  0  0  0  0  0  0
    3.3423    5.5501   15.0391 C   0  0  0  0  0  0  0  0  0  0  0  0
    2.7649    5.9913   13.7387 C   0  0  0  0  0  0  0  0  0  0  0  0
    3.4721    7.1339   13.0785 C   0  0  0  0  0  0  0  0  0  0  0  0
    3.3266    8.2913   14.0790 C   0  0  0  0  0  0  0  0  0  0  0  0
    3.7814    9.4678   13.5098 O   0  0  0  0  0  0  0  0  0  0  0  0
    4.2040    7.9369   15.2249 C   0  0  0  0  0  0  0  0  0  0  0  0
    4.0516    6.5967   15.8188 C   0  0  0  0  0  0  0  0  0  0  0  0
    4.1489    9.2791   12.6175 H   0  0  0  0  0  0  0  0  0  0  0  0
 23 24  1  0  0  0
 24 22  1  0  0  0
 22 21  1  0  0  0
 21 19  1  0  0  0
 19  1  1  0  0  0
  1  2  2  0  0  0
  2  3  1  0  0  0
  3  4  2  0  0  0
  4  7  1  0  0  0
  7  8  2  0  0  0
  8  9  1  0  0  0
  9 10  2  0  0  0
 10 12  1  0  0  0
 12 13  1  0  0  0
 13 14  1  0  0  0
 14 15  1  0  0  0
 15 16  1  0  0  0
 15 17  1  0  0  0
 15 18  1  0  0  0
 10 11  1  0  0  0
  4  5  1  0  0  0
  5 25  1  0  0  0
 25 27  1  0  0  0
 27 28  1  0  0  0
 28 29  1  0  0  0
 29 30  1  0  0  0
 30 31  1  0  0  0
 30 32  1  0  0  0
 32 33  1  0  0  0
  5  6  2  0  0  0
  6  1  1  0  0  0
 11  7  1  0  0  0
 33 27  1  0  0  0
 18 13  1  0  0  0
 19 20  1  0  0  0
 25 26  1  0  0  0
 31 34  1  0  0  0
M  END
> <minimizedAffinity>
-6.76366

> <CNNscore>
0.5564833879

> <CNNaffinity>
6.4070229530

> <CNN_VS>
3.5654017925

> <CNNaffinity_variance>
0.2557633519

$$$$
[H]OC1([H])C([H])([H])C([H])([H])C([H])(N([H])c2nc(N([H])C([H])([H])C([H])([H])C([H])([H])C([H])([H])[H])nc([H])c2-c2oc(C([H])([H])N3C([H])([H])C(F)(F)C3([H])[H])c([H])c2[H])C([H])([H])C1([H])[H]


 34 37  0  0  0  0  0  0  0  0999 V2000
    4.1262    2.0593   17.8201 C   0  0  0  0  0  0  0  0  0  0  0  0
    3.2694    1.1029   17.4336 N   0  0  0  0  0  0  0  0  0  0  0  0
    2.7317    1.0950   16.2100 C   0  0  0  0  0  0  0  0  0  0  0  0
    3.0394    2.0990   15.2539 C   0  0  0  0  0  0  0  0  0  0  0  0
    3.8925    3.0435   15.6645 C   0  0  0  0  0  0  0  0  0  0  0  0
    4.4254    3.0111   16.9375 N   0  0  0  0  0  0  0  0  0  0  0  0
    2.4317    2.0341   13.9610 C   0  0  0  0  0  0  0  0  0  0  0  0
    1.1830    1.8964   13.4736 C   0  0  0  0  0  0  0  0  0  0  0  0
    1.2227    1.9139   12.0922 C   0  0  0  0  0  0  0  0  0  0  0  0
    2.5419    2.0693   11.7583 C   0  0  0  0  0  0  0  0  0  0  0  0
    3.1907    2.1331   12.8504 O   0  0  0  0  0  0  0  0  0  0  0  0
    3.0376    2.1403   10.3543 C   0  0  0  0  0  0  0  0  0  0  0  0
    2.7810    0.8841    9.7115 N   0  0  0  0  0  0  0  0  0  0  0  0
    2.9177    0.9311    8.2663 C   0  0  0  0  0  0  0  0  0  0  0  0
    3.4928   -0.4819    8.3484 C   0  0  0  0  0  0  0  0  0  0  0  0
    2.4970   -1.4342    8.3516 F   0  0  0  0  0  0  0  0  0  0  0  0
    4.5420   -0.7260    7.5063 F   0  0  0  0  0  0  0  0  0  0  0  0
    3.9042   -0.0321    9.7337 C   0  0  0  0  0  0  0  0  0  0  0  0
    4.6928    2.0530   19.1466 N   0  0  0  0  0  0  0  0  0  0  0  0
    5.4660    2.7036   19.3125 H   0  0  0  0  0  0  0  0  0  0  0  0
    4.1670    1.1555   20.0936 C   0  0  0  0  0  0  0  0  0  0  0  0
    4.9887    0.7598   21.2556 C   0  0  0  0  0  0  0  0  0  0  0  0
    6.3423    2.6271   22.2472 C   0  0  0  0  0  0  0  0  0  0  0  0
    6.3180    1.3768   21.4279 C   0  0  0  0  0  0  0  0  0  0  0  0
    4.2021    4.1833   14.9142 N   0  0  0  0  0  0  0  0  0  0  0  0
    4.9955    4.2687   14.3007 H   0  0  0  0  0  0  0  0  0  0  0  0
    3.3145    5.3768   14.9252 C   0  0  0  0  0  0  0  0  0  0  0  0
    2.8537    5.7231   13.5515 C   0  0  0  0  0  0  0  0  0  0  0  0
    3.5804    6.8578   12.8990 C   0  0  0  0  0  0  0  0  0  0  0  0
    3.2931    8.0598   13.8127 C   0  0  0  0  0  0  0  0  0  0  0  0
    3.7586    9.2225   13.2241 O   0  0  0  0  0  0  0  0  0  0  0  0
    4.0644    7.8046   15.0571 C   0  0  0  0  0  0  0  0  0  0  0  0
    3.9034    6.4927   15.7090 C   0  0  0  0  0  0  0  0  0  0  0  0
    4.2199    9.0022   12.3841 H   0  0  0  0  0  0  0  0  0  0  0  0
 23 24  1  0  0  0
 24 22  1  0  0  0
 22 21  1  0  0  0
 21 19  1  0  0  0
 19  1  1  0  0  0
  1  2  2  0  0  0
  2  3  1  0  0  0
  3  4  2  0  0  0
  4  7  1  0  0  0
  7  8  2  0  0  0
  8  9  1  0  0  0
  9 10  2  0  0  0
 10 12  1  0  0  0
 12 13  1  0  0  0
 13 14  1  0  0  0
 14 15  1  0  0  0
 15 16  1  0  0  0
 15 17  1  0  0  0
 15 18  1  0  0  0
 10 11  1  0  0  0
  4  5  1  0  0  0
  5 25  1  0  0  0
 25 27  1  0  0  0
 27 28  1  0  0  0
 28 29  1  0  0  0
 29 30  1  0  0  0
 30 31  1  0  0  0
 30 32  1  0  0  0
 32 33  1  0  0  0
  5  6  2  0  0  0
  6  1  1  0  0  0
 11  7  1  0  0  0
 33 27  1  0  0  0
 18 13  1  0  0  0
 19 20  1  0  0  0
 25 26  1  0  0  0
 31 34  1  0  0  0
M  END
> <minimizedAffinity>
-6.66842

> <CNNscore>
0.5202658176

> <CNNaffinity>
6.5956473351

> <CNN_VS>
3.4314899445

> <CNNaffinity_variance>
0.3214121461

$$$$
[H]OC1([H])C([H])([H])C([H])([H])C([H])(N([H])c2nc(N([H])C([H])([H])C([H])([H])C([H])([H])C([H])([H])[H])nc([H])c2-c2oc(C([H])([H])N3C([H])([H])C(F)(F)C3([H])[H])c([H])c2[H])C([H])([H])C1([H])[H]


 34 37  0  0  0  0  0  0  0  0999 V2000
    4.2606    1.4109   19.2352 C   0  0  0  0  0  0  0  0  0  0  0  0
    3.3630    0.7866   18.4590 N   0  0  0  0  0  0  0  0  0  0  0  0
    3.1117    1.1925   17.2105 C   0  0  0  0  0  0  0  0  0  0  0  0
    3.7823    2.3066   16.6396 C   0  0  0  0  0  0  0  0  0  0  0  0
    4.6692    2.9146   17.4347 C   0  0  0  0  0  0  0  0  0  0  0  0
    4.8984    2.4597   18.7177 N   0  0  0  0  0  0  0  0  0  0  0  0
    3.4695    2.6906   15.2981 C   0  0  0  0  0  0  0  0  0  0  0  0
    3.1731    2.0601   14.1447 C   0  0  0  0  0  0  0  0  0  0  0  0
    2.9495    2.9955   13.1521 C   0  0  0  0  0  0  0  0  0  0  0  0
    3.1191    4.2180   13.7458 C   0  0  0  0  0  0  0  0  0  0  0  0
    3.4128    3.9960   14.9632 O   0  0  0  0  0  0  0  0  0  0  0  0
    2.9689    5.5153   13.0271 C   0  0  0  0  0  0  0  0  0  0  0  0
    1.7082    5.5192   12.3431 N   0  0  0  0  0  0  0  0  0  0  0  0
    0.5629    5.5826   13.2340 C   0  0  0  0  0  0  0  0  0  0  0  0
   -0.1132    6.4614   12.1828 C   0  0  0  0  0  0  0  0  0  0  0  0
   -0.7427    5.7040   11.2191 F   0  0  0  0  0  0  0  0  0  0  0  0
   -0.8419    7.5031   12.6861 F   0  0  0  0  0  0  0  0  0  0  0  0
    1.3155    6.8185   11.8340 C   0  0  0  0  0  0  0  0  0  0  0  0
    4.5148    0.9603   20.5817 N   0  0  0  0  0  0  0  0  0  0  0  0
    3.6911    0.7870   21.1649 H   0  0  0  0  0  0  0  0  0  0  0  0
    5.8510    0.8146   20.9967 C   0  0  0  0  0  0  0  0  0  0  0  0
    6.3704    1.6627   22.0887 C   0  0  0  0  0  0  0  0  0  0  0  0
    4.9590    2.5077   23.9852 C   0  0  0  0  0  0  0  0  0  0  0  0
    5.5145    2.7424   22.6172 C   0  0  0  0  0  0  0  0  0  0  0  0
    5.3191    4.1069   17.0968 N   0  0  0  0  0  0  0  0  0  0  0  0
    6.0357    4.1910   16.3950 H   0  0  0  0  0  0  0  0  0  0  0  0
    4.9424    5.3967   17.7346 C   0  0  0  0  0  0  0  0  0  0  0  0
    5.9876    5.8543   18.6923 C   0  0  0  0  0  0  0  0  0  0  0  0
    5.6896    5.5973   20.1368 C   0  0  0  0  0  0  0  0  0  0  0  0
    4.4126    6.4094   20.4049 C   0  0  0  0  0  0  0  0  0  0  0  0
    4.1267    6.4069   21.7588 O   0  0  0  0  0  0  0  0  0  0  0  0
    3.3296    5.6952   19.6798 C   0  0  0  0  0  0  0  0  0  0  0  0
    3.5538    5.3646   18.2612 C   0  0  0  0  0  0  0  0  0  0  0  0
    4.7738    5.8350   22.2290 H   0  0  0  0  0  0  0  0  0  0  0  0
 23 24  1  0  0  0
 24 22  1  0  0  0
 22 21  1  0  0  0
 21 19  1  0  0  0
 19  1  1  0  0  0
  1  2  2  0  0  0
  2  3  1  0  0  0
  3  4  2  0  0  0
  4  7  1  0  0  0
  7  8  2  0  0  0
  8  9  1  0  0  0
  9 10  2  0  0  0
 10 12  1  0  0  0
 12 13  1  0  0  0
 13 14  1  0  0  0
 14 15  1  0  0  0
 15 16  1  0  0  0
 15 17  1  0  0  0
 15 18  1  0  0  0
 10 11  1  0  0  0
  4  5  1  0  0  0
  5 25  1  0  0  0
 25 27  1  0  0  0
 27 28  1  0  0  0
 28 29  1  0  0  0
 29 30  1  0  0  0
 30 31  1  0  0  0
 30 32  1  0  0  0
 32 33  1  0  0  0
  5  6  2  0  0  0
  6  1  1  0  0  0
 11  7  1  0  0  0
 33 27  1  0  0  0
 18 13  1  0  0  0
 19 20  1  0  0  0
 25 26  1  0  0  0
 31 34  1  0  0  0
M  END
> <minimizedAffinity>
-7.96756

> <CNNscore>
0.5137704611

> <CNNaffinity>
6.6929750443

> <CNN_VS>
3.4386529922

> <CNNaffinity_variance>
0.2885478735

$$$$
[H]OC1([H])C([H])([H])C([H])([H])C([H])(N([H])c2nc(N([H])C([H])([H])C([H])([H])C([H])([H])C([H])([H])[H])nc([H])c2-c2oc(C([H])([H])N3C([H])([H])C(F)(F)C3([H])[H])c([H])c2[H])C([H])([H])C1([H])[H]


 34 37  0  0  0  0  0  0  0  0999 V2000
    4.5779    1.5155   19.8671 C   0  0  0  0  0  0  0  0  0  0  0  0
    3.6361    0.8247   19.2084 N   0  0  0  0  0  0  0  0  0  0  0  0
    3.2934    1.1271   17.9524 C   0  0  0  0  0  0  0  0  0  0  0  0
    3.9086    2.1961   17.2485 C   0  0  0  0  0  0  0  0  0  0  0  0
    4.8411    2.8722   17.9280 C   0  0  0  0  0  0  0  0  0  0  0  0
    5.1650    2.5235   19.2239 N   0  0  0  0  0  0  0  0  0  0  0  0
    3.4982    2.4688   15.9061 C   0  0  0  0  0  0  0  0  0  0  0  0
    3.1980    1.7453   14.8096 C   0  0  0  0  0  0  0  0  0  0  0  0
    2.8479    2.5956   13.7777 C   0  0  0  0  0  0  0  0  0  0  0  0
    2.9447    3.8626   14.2886 C   0  0  0  0  0  0  0  0  0  0  0  0
    3.3164    3.7418   15.4989 O   0  0  0  0  0  0  0  0  0  0  0  0
    2.6513    5.0960   13.5045 C   0  0  0  0  0  0  0  0  0  0  0  0
    1.4354    5.6760   13.9968 N   0  0  0  0  0  0  0  0  0  0  0  0
    1.2771    7.0775   13.6501 C   0  0  0  0  0  0  0  0  0  0  0  0
   -0.2162    6.7943   13.4944 C   0  0  0  0  0  0  0  0  0  0  0  0
   -0.8770    6.8855   14.7001 F   0  0  0  0  0  0  0  0  0  0  0  0
   -0.8155    7.4288   12.4419 F   0  0  0  0  0  0  0  0  0  0  0  0
    0.2728    5.3978   13.1766 C   0  0  0  0  0  0  0  0  0  0  0  0
    4.9310    1.1765   21.2240 N   0  0  0  0  0  0  0  0  0  0  0  0
    4.3395    0.4797   21.6858 H   0  0  0  0  0  0  0  0  0  0  0  0
    6.0288    1.8306   21.8122 C   0  0  0  0  0  0  0  0  0  0  0  0
    5.8980    2.3919   23.1722 C   0  0  0  0  0  0  0  0  0  0  0  0
    3.8815    3.8507   23.5010 C   0  0  0  0  0  0  0  0  0  0  0  0
    4.5494    2.5372   23.7533 C   0  0  0  0  0  0  0  0  0  0  0  0
    5.4510    4.0378   17.4510 N   0  0  0  0  0  0  0  0  0  0  0  0
    6.1439    4.0658   16.7213 H   0  0  0  0  0  0  0  0  0  0  0  0
    5.0621    5.3771   17.9679 C   0  0  0  0  0  0  0  0  0  0  0  0
    6.1144    5.9419   18.8583 C   0  0  0  0  0  0  0  0  0  0  0  0
    5.8442    5.8213   20.3259 C   0  0  0  0  0  0  0  0  0  0  0  0
    4.5577    6.6352   20.5368 C   0  0  0  0  0  0  0  0  0  0  0  0
    4.2936    6.7593   21.8895 O   0  0  0  0  0  0  0  0  0  0  0  0
    3.4759    5.8370   19.9034 C   0  0  0  0  0  0  0  0  0  0  0  0
    3.6829    5.3742   18.5196 C   0  0  0  0  0  0  0  0  0  0  0  0
    4.9581    6.2459   22.4012 H   0  0  0  0  0  0  0  0  0  0  0  0
 23 24  1  0  0  0
 24 22  1  0  0  0
 22 21  1  0  0  0
 21 19  1  0  0  0
 19  1  1  0  0  0
  1  2  2  0  0  0
  2  3  1  0  0  0
  3  4  2  0  0  0
  4  7  1  0  0  0
  7  8  2  0  0  0
  8  9  1  0  0  0
  9 10  2  0  0  0
 10 12  1  0  0  0
 12 13  1  0  0  0
 13 14  1  0  0  0
 14 15  1  0  0  0
 15 16  1  0  0  0
 15 17  1  0  0  0
 15 18  1  0  0  0
 10 11  1  0  0  0
  4  5  1  0  0  0
  5 25  1  0  0  0
 25 27  1  0  0  0
 27 28  1  0  0  0
 28 29  1  0  0  0
 29 30  1  0  0  0
 30 31  1  0  0  0
 30 32  1  0  0  0
 32 33  1  0  0  0
  5  6  2  0  0  0
  6  1  1  0  0  0
 11  7  1  0  0  0
 33 27  1  0  0  0
 18 13  1  0  0  0
 19 20  1  0  0  0
 25 26  1  0  0  0
 31 34  1  0  0  0
M  END
> <minimizedAffinity>
-8.38367

> <CNNscore>
0.4772678912

> <CNNaffinity>
6.6883611679

> <CNN_VS>
3.1921401024

> <CNNaffinity_variance>
0.4095668197

$$$$
[H]OC1([H])C([H])([H])C([H])([H])C([H])(N([H])c2nc(N([H])C([H])([H])C([H])([H])C([H])([H])C([H])([H])[H])nc([H])c2-c2nc([H])c(C3(N4C([H])([H])C([H])([H])OC([H])([H])C4([H])[H])C([H])([H])C([H])([H])C([H])([H])C3([H])[H])c([H])c2[H])C([H])([H])C1([H])[H]


 39 43  0  0  0  0  0  0  0  0999 V2000
    3.0367    0.1737   18.8900 C   0  0  0  0  0  0  0  0  0  0  0  0
    2.2160   -0.0923   17.8681 N   0  0  0  0  0  0  0  0  0  0  0  0
    2.2439    0.6294   16.7608 C   0  0  0  0  0  0  0  0  0  0  0  0
    3.1280    1.7068   16.5954 C   0  0  0  0  0  0  0  0  0  0  0  0
    3.9725    1.9833   17.6275 C   0  0  0  0  0  0  0  0  0  0  0  0
    3.8813    1.1930   18.7392 N   0  0  0  0  0  0  0  0  0  0  0  0
    3.0762    2.4219   15.3472 C   0  0  0  0  0  0  0  0  0  0  0  0
    2.9016    1.8560   14.1176 C   0  0  0  0  0  0  0  0  0  0  0  0
    2.9501    2.6353   12.9938 C   0  0  0  0  0  0  0  0  0  0  0  0
    3.1713    3.9782   13.0500 C   0  0  0  0  0  0  0  0  0  0  0  0
    3.3499    4.5469   14.2936 C   0  0  0  0  0  0  0  0  0  0  0  0
    3.2990    3.7714   15.3883 N   0  0  0  0  0  0  0  0  0  0  0  0
    3.2095    4.8355   11.8142 C   0  0  0  0  0  0  0  0  0  0  0  0
    2.0401    5.7917   11.8100 C   0  0  0  0  0  0  0  0  0  0  0  0
    1.2716    5.5903   10.5406 C   0  0  0  0  0  0  0  0  0  0  0  0
    2.0011    4.5888    9.7157 C   0  0  0  0  0  0  0  0  0  0  0  0
    2.9096    3.8921   10.6710 C   0  0  0  0  0  0  0  0  0  0  0  0
    4.4166    5.5395   11.6932 N   0  0  0  0  0  0  0  0  0  0  0  0
    4.3944    6.9341   11.5368 C   0  0  0  0  0  0  0  0  0  0  0  0
    5.8103    7.5250   11.5482 C   0  0  0  0  0  0  0  0  0  0  0  0
    6.4435    6.9775   10.4341 O   0  0  0  0  0  0  0  0  0  0  0  0
    6.6888    5.6433   10.7560 C   0  0  0  0  0  0  0  0  0  0  0  0
    5.4448    4.8494   10.9676 C   0  0  0  0  0  0  0  0  0  0  0  0
    3.0108   -0.6052   20.0909 N   0  0  0  0  0  0  0  0  0  0  0  0
    2.3863   -1.4658   20.0802 H   0  0  0  0  0  0  0  0  0  0  0  0
    3.7633   -0.2776   21.2559 C   0  0  0  0  0  0  0  0  0  0  0  0
    3.2159    0.8973   22.0449 C   0  0  0  0  0  0  0  0  0  0  0  0
    5.5903    1.4070   21.7335 C   0  0  0  0  0  0  0  0  0  0  0  0
    4.3839    1.7306   22.5740 C   0  0  0  0  0  0  0  0  0  0  0  0
    5.0288    2.9491   17.5686 N   0  0  0  0  0  0  0  0  0  0  0  0
    5.7419    3.0105   16.8471 H   0  0  0  0  0  0  0  0  0  0  0  0
    5.1356    3.8996   18.6662 C   0  0  0  0  0  0  0  0  0  0  0  0
    3.8875    3.9620   19.4915 C   0  0  0  0  0  0  0  0  0  0  0  0
    3.8352    5.3211   20.1638 C   0  0  0  0  0  0  0  0  0  0  0  0
    3.4427    6.3609   19.1234 C   0  0  0  0  0  0  0  0  0  0  0  0
    3.7067    7.6538   19.5955 O   0  0  0  0  0  0  0  0  0  0  0  0
    4.2173    6.0981   17.8707 C   0  0  0  0  0  0  0  0  0  0  0  0
    5.4407    5.2668   18.1223 C   0  0  0  0  0  0  0  0  0  0  0  0
    3.9104    8.2114   18.8283 H   0  0  0  0  0  0  0  0  0  0  0  0
 28 29  1  0  0  0
 29 27  1  0  0  0
 27 26  1  0  0  0
 26 24  1  0  0  0
 24  1  1  0  0  0
  1  2  2  0  0  0
  2  3  1  0  0  0
  3  4  2  0  0  0
  4  5  1  0  0  0
  5 30  1  0  0  0
 30 32  1  0  0  0
 32 33  1  0  0  0
 33 34  1  0  0  0
 34 35  1  0  0  0
 35 36  1  0  0  0
 35 37  1  0  0  0
 37 38  1  0  0  0
  5  6  2  0  0  0
  4  7  1  0  0  0
  7  8  2  0  0  0
  8  9  1  0  0  0
  9 10  2  0  0  0
 10 11  1  0  0  0
 11 12  2  0  0  0
 10 13  1  0  0  0
 13 14  1  0  0  0
 14 15  1  0  0  0
 15 16  1  0  0  0
 16 17  1  0  0  0
 13 18  1  0  0  0
 18 19  1  0  0  0
 19 20  1  0  0  0
 20 21  1  0  0  0
 21 22  1  0  0  0
 22 23  1  0  0  0
  6  1  1  0  0  0
 12  7  1  0  0  0
 17 13  1  0  0  0
 23 18  1  0  0  0
 38 32  1  0  0  0
 24 25  1  0  0  0
 30 31  1  0  0  0
 36 39  1  0  0  0
M  END
> <minimizedAffinity>
-8.55866

> <CNNscore>
0.9604610205

> <CNNaffinity>
7.7984466553

> <CNN_VS>
7.4901041985

> <CNNaffinity_variance>
0.0672776178

$$$$
[H]OC1([H])C([H])([H])C([H])([H])C([H])(N([H])c2nc(N([H])C([H])([H])C([H])([H])C([H])([H])C([H])([H])[H])nc([H])c2-c2nc([H])c(C3(N4C([H])([H])C([H])([H])OC([H])([H])C4([H])[H])C([H])([H])C([H])([H])C([H])([H])C3([H])[H])c([H])c2[H])C([H])([H])C1([H])[H]


 39 43  0  0  0  0  0  0  0  0999 V2000
    3.8973    1.1850   20.1616 C   0  0  0  0  0  0  0  0  0  0  0  0
    3.3780    0.4054   19.2071 N   0  0  0  0  0  0  0  0  0  0  0  0
    3.1931    0.8571   17.9784 C   0  0  0  0  0  0  0  0  0  0  0  0
    3.5277    2.1690   17.6083 C   0  0  0  0  0  0  0  0  0  0  0  0
    4.0626    2.9702   18.5710 C   0  0  0  0  0  0  0  0  0  0  0  0
    4.2205    2.4307   19.8170 N   0  0  0  0  0  0  0  0  0  0  0  0
    3.2879    2.5545   16.2423 C   0  0  0  0  0  0  0  0  0  0  0  0
    3.1146    1.6952   15.1963 C   0  0  0  0  0  0  0  0  0  0  0  0
    2.9729    2.1847   13.9263 C   0  0  0  0  0  0  0  0  0  0  0  0
    2.9997    3.5193   13.6550 C   0  0  0  0  0  0  0  0  0  0  0  0
    3.1775    4.3851   14.7136 C   0  0  0  0  0  0  0  0  0  0  0  0
    3.3142    3.8920   15.9548 N   0  0  0  0  0  0  0  0  0  0  0  0
    2.8290    4.0561   12.2599 C   0  0  0  0  0  0  0  0  0  0  0  0
    2.4678    5.5221   12.3089 C   0  0  0  0  0  0  0  0  0  0  0  0
    1.1851    5.7164   11.5610 C   0  0  0  0  0  0  0  0  0  0  0  0
    0.7949    4.4072   10.9698 C   0  0  0  0  0  0  0  0  0  0  0  0
    1.5765    3.3923   11.7331 C   0  0  0  0  0  0  0  0  0  0  0  0
    3.9727    3.8608   11.4719 N   0  0  0  0  0  0  0  0  0  0  0  0
    4.9080    4.8984   11.3363 C   0  0  0  0  0  0  0  0  0  0  0  0
    6.1402    4.4461   10.5419 C   0  0  0  0  0  0  0  0  0  0  0  0
    5.6606    4.1310    9.2720 O   0  0  0  0  0  0  0  0  0  0  0  0
    4.9606    2.9342    9.4182 C   0  0  0  0  0  0  0  0  0  0  0  0
    3.7667    3.0536   10.3031 C   0  0  0  0  0  0  0  0  0  0  0  0
    4.1000    0.7004   21.4933 N   0  0  0  0  0  0  0  0  0  0  0  0
    4.5586   -0.2549   21.5818 H   0  0  0  0  0  0  0  0  0  0  0  0
    3.7208    1.4264   22.6595 C   0  0  0  0  0  0  0  0  0  0  0  0
    4.8832    2.0220   23.4318 C   0  0  0  0  0  0  0  0  0  0  0  0
    3.4174    3.9823   23.4891 C   0  0  0  0  0  0  0  0  0  0  0  0
    4.8448    3.5447   23.2956 C   0  0  0  0  0  0  0  0  0  0  0  0
    4.5898    4.2800   18.3287 N   0  0  0  0  0  0  0  0  0  0  0  0
    5.4875    4.4927   17.9025 H   0  0  0  0  0  0  0  0  0  0  0  0
    3.8026    5.4180   18.7812 C   0  0  0  0  0  0  0  0  0  0  0  0
    4.1815    6.6882   18.0841 C   0  0  0  0  0  0  0  0  0  0  0  0
    3.8075    7.8496   18.9857 C   0  0  0  0  0  0  0  0  0  0  0  0
    4.8220    7.9293   20.1180 C   0  0  0  0  0  0  0  0  0  0  0  0
    4.3447    8.7489   21.1499 O   0  0  0  0  0  0  0  0  0  0  0  0
    5.0754    6.5464   20.6295 C   0  0  0  0  0  0  0  0  0  0  0  0
    3.9752    5.5941   20.2635 C   0  0  0  0  0  0  0  0  0  0  0  0
    4.7204    8.4226   21.9826 H   0  0  0  0  0  0  0  0  0  0  0  0
 28 29  1  0  0  0
 29 27  1  0  0  0
 27 26  1  0  0  0
 26 24  1  0  0  0
 24  1  1  0  0  0
  1  2  2  0  0  0
  2  3  1  0  0  0
  3  4  2  0  0  0
  4  5  1  0  0  0
  5 30  1  0  0  0
 30 32  1  0  0  0
 32 33  1  0  0  0
 33 34  1  0  0  0
 34 35  1  0  0  0
 35 36  1  0  0  0
 35 37  1  0  0  0
 37 38  1  0  0  0
  5  6  2  0  0  0
  4  7  1  0  0  0
  7  8  2  0  0  0
  8  9  1  0  0  0
  9 10  2  0  0  0
 10 11  1  0  0  0
 11 12  2  0  0  0
 10 13  1  0  0  0
 13 14  1  0  0  0
 14 15  1  0  0  0
 15 16  1  0  0  0
 16 17  1  0  0  0
 13 18  1  0  0  0
 18 19  1  0  0  0
 19 20  1  0  0  0
 20 21  1  0  0  0
 21 22  1  0  0  0
 22 23  1  0  0  0
  6  1  1  0  0  0
 12  7  1  0  0  0
 17 13  1  0  0  0
 23 18  1  0  0  0
 38 32  1  0  0  0
 24 25  1  0  0  0
 30 31  1  0  0  0
 36 39  1  0  0  0
M  END
> <minimizedAffinity>
-8.52656

> <CNNscore>
0.4596698582

> <CNNaffinity>
7.3292045593

> <CNN_VS>
3.3690145016

> <CNNaffinity_variance>
0.6364408731

$$$$
[H]OC1([H])C([H])([H])C([H])([H])C([H])(N([H])c2nc(N([H])C([H])([H])C([H])([H])C([H])([H])C([H])([H])[H])nc([H])c2-c2nc([H])c(C3(N4C([H])([H])C([H])([H])OC([H])([H])C4([H])[H])C([H])([H])C([H])([H])C([H])([H])C3([H])[H])c([H])c2[H])C([H])([H])C1([H])[H]


 39 43  0  0  0  0  0  0  0  0999 V2000
    3.7906    1.5483   17.4895 C   0  0  0  0  0  0  0  0  0  0  0  0
    2.9631    0.9717   16.6112 N   0  0  0  0  0  0  0  0  0  0  0  0
    2.6393    1.5718   15.4786 C   0  0  0  0  0  0  0  0  0  0  0  0
    3.1405    2.8371   15.1357 C   0  0  0  0  0  0  0  0  0  0  0  0
    3.9887    3.4315   16.0201 C   0  0  0  0  0  0  0  0  0  0  0  0
    4.2731    2.7483   17.1694 N   0  0  0  0  0  0  0  0  0  0  0  0
    2.7254    3.3958   13.8756 C   0  0  0  0  0  0  0  0  0  0  0  0
    2.7311    2.7399   12.6789 C   0  0  0  0  0  0  0  0  0  0  0  0
    2.3876    3.4053   11.5335 C   0  0  0  0  0  0  0  0  0  0  0  0
    2.0350    4.7210   11.5356 C   0  0  0  0  0  0  0  0  0  0  0  0
    2.0327    5.3820   12.7460 C   0  0  0  0  0  0  0  0  0  0  0  0
    2.3707    4.7173   13.8625 N   0  0  0  0  0  0  0  0  0  0  0  0
    1.6436    5.4469   10.2773 C   0  0  0  0  0  0  0  0  0  0  0  0
    0.6766    6.5614   10.6010 C   0  0  0  0  0  0  0  0  0  0  0  0
   -0.5630    6.3613    9.7851 C   0  0  0  0  0  0  0  0  0  0  0  0
   -0.3413    5.1916    8.8915 C   0  0  0  0  0  0  0  0  0  0  0  0
    0.8076    4.4581    9.4961 C   0  0  0  0  0  0  0  0  0  0  0  0
    2.7556    5.9502    9.5865 N   0  0  0  0  0  0  0  0  0  0  0  0
    3.6462    5.0624    8.9634 C   0  0  0  0  0  0  0  0  0  0  0  0
    4.7188    5.8106    8.1611 C   0  0  0  0  0  0  0  0  0  0  0  0
    5.4341    6.5457    9.1045 O   0  0  0  0  0  0  0  0  0  0  0  0
    4.5907    7.5859    9.4922 C   0  0  0  0  0  0  0  0  0  0  0  0
    3.3507    7.1168   10.1740 C   0  0  0  0  0  0  0  0  0  0  0  0
    4.1447    0.9025   18.7170 N   0  0  0  0  0  0  0  0  0  0  0  0
    3.8649   -0.1193   18.8090 H   0  0  0  0  0  0  0  0  0  0  0  0
    4.8315    1.5581   19.7797 C   0  0  0  0  0  0  0  0  0  0  0  0
    5.1585    0.6627   20.9603 C   0  0  0  0  0  0  0  0  0  0  0  0
    3.1602    1.0528   22.3201 C   0  0  0  0  0  0  0  0  0  0  0  0
    3.8674    0.0260   21.4764 C   0  0  0  0  0  0  0  0  0  0  0  0
    4.6990    4.6485   15.7627 N   0  0  0  0  0  0  0  0  0  0  0  0
    5.0963    4.9306   14.8708 H   0  0  0  0  0  0  0  0  0  0  0  0
    4.9291    5.5456   16.8860 C   0  0  0  0  0  0  0  0  0  0  0  0
    5.6181    4.8655   18.0287 C   0  0  0  0  0  0  0  0  0  0  0  0
    5.2738    5.6172   19.3006 C   0  0  0  0  0  0  0  0  0  0  0  0
    3.8434    5.2745   19.6932 C   0  0  0  0  0  0  0  0  0  0  0  0
    3.3634    6.1829   20.6466 O   0  0  0  0  0  0  0  0  0  0  0  0
    2.9897    5.3123   18.4652 C   0  0  0  0  0  0  0  0  0  0  0  0
    3.6187    6.1081   17.3596 C   0  0  0  0  0  0  0  0  0  0  0  0
    2.4041    6.2587   20.5239 H   0  0  0  0  0  0  0  0  0  0  0  0
 28 29  1  0  0  0
 29 27  1  0  0  0
 27 26  1  0  0  0
 26 24  1  0  0  0
 24  1  1  0  0  0
  1  2  2  0  0  0
  2  3  1  0  0  0
  3  4  2  0  0  0
  4  5  1  0  0  0
  5 30  1  0  0  0
 30 32  1  0  0  0
 32 33  1  0  0  0
 33 34  1  0  0  0
 34 35  1  0  0  0
 35 36  1  0  0  0
 35 37  1  0  0  0
 37 38  1  0  0  0
  5  6  2  0  0  0
  4  7  1  0  0  0
  7  8  2  0  0  0
  8  9  1  0  0  0
  9 10  2  0  0  0
 10 11  1  0  0  0
 11 12  2  0  0  0
 10 13  1  0  0  0
 13 14  1  0  0  0
 14 15  1  0  0  0
 15 16  1  0  0  0
 16 17  1  0  0  0
 13 18  1  0  0  0
 18 19  1  0  0  0
 19 20  1  0  0  0
 20 21  1  0  0  0
 21 22  1  0  0  0
 22 23  1  0  0  0
  6  1  1  0  0  0
 12  7  1  0  0  0
 17 13  1  0  0  0
 23 18  1  0  0  0
 38 32  1  0  0  0
 24 25  1  0  0  0
 30 31  1  0  0  0
 36 39  1  0  0  0
M  END
> <minimizedAffinity>
-7.56178

> <CNNscore>
0.4469794929

> <CNNaffinity>
6.8229036331

> <CNN_VS>
3.0496981144

> <CNNaffinity_variance>
0.2168372869

$$$$
[H]OC1([H])C([H])([H])C([H])([H])C([H])(N([H])c2nc(N([H])C([H])([H])C([H])([H])C([H])([H])C([H])([H])[H])nc([H])c2-c2nc([H])c(C3(N4C([H])([H])C([H])([H])OC([H])([H])C4([H])[H])C([H])([H])C([H])([H])C([H])([H])C3([H])[H])c([H])c2[H])C([H])([H])C1([H])[H]


 39 43  0  0  0  0  0  0  0  0999 V2000
    3.9038    1.3465   19.0289 C   0  0  0  0  0  0  0  0  0  0  0  0
    3.2779    0.6687   18.0607 N   0  0  0  0  0  0  0  0  0  0  0  0
    3.0915    1.1981   16.8638 C   0  0  0  0  0  0  0  0  0  0  0  0
    3.5354    2.4903   16.5429 C   0  0  0  0  0  0  0  0  0  0  0  0
    4.1793    3.1878   17.5195 C   0  0  0  0  0  0  0  0  0  0  0  0
    4.3311    2.5727   18.7308 N   0  0  0  0  0  0  0  0  0  0  0  0
    3.2831    2.9660   15.2079 C   0  0  0  0  0  0  0  0  0  0  0  0
    4.1876    3.6073   14.4122 C   0  0  0  0  0  0  0  0  0  0  0  0
    3.8036    4.0840   13.1882 C   0  0  0  0  0  0  0  0  0  0  0  0
    2.5317    3.9451   12.7209 C   0  0  0  0  0  0  0  0  0  0  0  0
    1.6192    3.2990   13.5283 C   0  0  0  0  0  0  0  0  0  0  0  0
    2.0090    2.8351   14.7264 N   0  0  0  0  0  0  0  0  0  0  0  0
    2.1153    4.4569   11.3688 C   0  0  0  0  0  0  0  0  0  0  0  0
    3.2786    4.3885   10.4076 C   0  0  0  0  0  0  0  0  0  0  0  0
    3.5060    5.7576    9.8451 C   0  0  0  0  0  0  0  0  0  0  0  0
    2.4412    6.6539   10.3729 C   0  0  0  0  0  0  0  0  0  0  0  0
    1.8915    5.9401   11.5610 C   0  0  0  0  0  0  0  0  0  0  0  0
    1.0136    3.7590   10.8528 N   0  0  0  0  0  0  0  0  0  0  0  0
    1.2121    2.7757    9.8713 C   0  0  0  0  0  0  0  0  0  0  0  0
   -0.0944    2.0468    9.5313 C   0  0  0  0  0  0  0  0  0  0  0  0
   -0.9301    3.0254    8.9966 O   0  0  0  0  0  0  0  0  0  0  0  0
   -1.3191    3.8205   10.0738 C   0  0  0  0  0  0  0  0  0  0  0  0
   -0.1826    4.5404   10.7161 C   0  0  0  0  0  0  0  0  0  0  0  0
    4.1085    0.7775   20.3265 N   0  0  0  0  0  0  0  0  0  0  0  0
    4.5217   -0.2020   20.3509 H   0  0  0  0  0  0  0  0  0  0  0  0
    3.7878    1.4528   21.5396 C   0  0  0  0  0  0  0  0  0  0  0  0
    4.9843    2.0423   22.2632 C   0  0  0  0  0  0  0  0  0  0  0  0
    6.1685    4.1598   21.9332 C   0  0  0  0  0  0  0  0  0  0  0  0
    4.8385    3.5639   22.3108 C   0  0  0  0  0  0  0  0  0  0  0  0
    4.8193    4.4534   17.3182 N   0  0  0  0  0  0  0  0  0  0  0  0
    5.8096    4.6005   17.1433 H   0  0  0  0  0  0  0  0  0  0  0  0
    3.9972    5.6499   17.4279 C   0  0  0  0  0  0  0  0  0  0  0  0
    4.7459    6.8935   17.0592 C   0  0  0  0  0  0  0  0  0  0  0  0
    4.0838    8.0661   17.7579 C   0  0  0  0  0  0  0  0  0  0  0  0
    4.4647    8.0293   19.2314 C   0  0  0  0  0  0  0  0  0  0  0  0
    3.6263    8.8686   19.9778 O   0  0  0  0  0  0  0  0  0  0  0  0
    4.3526    6.6190   19.7179 C   0  0  0  0  0  0  0  0  0  0  0  0
    3.4792    5.7796   18.8324 C   0  0  0  0  0  0  0  0  0  0  0  0
    3.5510    8.4925   20.8687 H   0  0  0  0  0  0  0  0  0  0  0  0
 28 29  1  0  0  0
 29 27  1  0  0  0
 27 26  1  0  0  0
 26 24  1  0  0  0
 24  1  1  0  0  0
  1  2  2  0  0  0
  2  3  1  0  0  0
  3  4  2  0  0  0
  4  5  1  0  0  0
  5 30  1  0  0  0
 30 32  1  0  0  0
 32 33  1  0  0  0
 33 34  1  0  0  0
 34 35  1  0  0  0
 35 36  1  0  0  0
 35 37  1  0  0  0
 37 38  1  0  0  0
  5  6  2  0  0  0
  4  7  1  0  0  0
  7  8  2  0  0  0
  8  9  1  0  0  0
  9 10  2  0  0  0
 10 11  1  0  0  0
 11 12  2  0  0  0
 10 13  1  0  0  0
 13 14  1  0  0  0
 14 15  1  0  0  0
 15 16  1  0  0  0
 16 17  1  0  0  0
 13 18  1  0  0  0
 18 19  1  0  0  0
 19 20  1  0  0  0
 20 21  1  0  0  0
 21 22  1  0  0  0
 22 23  1  0  0  0
  6  1  1  0  0  0
 12  7  1  0  0  0
 17 13  1  0  0  0
 23 18  1  0  0  0
 38 32  1  0  0  0
 24 25  1  0  0  0
 30 31  1  0  0  0
 36 39  1  0  0  0
M  END
> <minimizedAffinity>
-7.20904

> <CNNscore>
0.4375234842

> <CNNaffinity>
7.2199773788

> <CNN_VS>
3.1589095592

> <CNNaffinity_variance>
0.5450721979

$$$$
[H]OC1([H])C([H])([H])C([H])([H])C([H])(N([H])c2nc(N([H])C([H])([H])C([H])([H])C([H])([H])C([H])([H])[H])nc([H])c2-c2nc([H])c(C3(N4C([H])([H])C([H])([H])OC([H])([H])C4([H])[H])C([H])([H])C([H])([H])C([H])([H])C3([H])[H])c([H])c2[H])C([H])([H])C1([H])[H]


 39 43  0  0  0  0  0  0  0  0999 V2000
    3.5869    1.4328   18.4079 C   0  0  0  0  0  0  0  0  0  0  0  0
    3.1820    1.0277   17.1994 N   0  0  0  0  0  0  0  0  0  0  0  0
    3.2077    1.8429   16.1590 C   0  0  0  0  0  0  0  0  0  0  0  0
    3.6570    3.1686   16.2618 C   0  0  0  0  0  0  0  0  0  0  0  0
    4.0772    3.5904   17.4866 C   0  0  0  0  0  0  0  0  0  0  0  0
    4.0180    2.6891   18.5127 N   0  0  0  0  0  0  0  0  0  0  0  0
    3.6462    3.9674   15.0643 C   0  0  0  0  0  0  0  0  0  0  0  0
    3.9233    3.5132   13.8075 C   0  0  0  0  0  0  0  0  0  0  0  0
    3.9587    4.3893   12.7569 C   0  0  0  0  0  0  0  0  0  0  0  0
    3.7265    5.7222   12.9143 C   0  0  0  0  0  0  0  0  0  0  0  0
    3.4493    6.1788   14.1858 C   0  0  0  0  0  0  0  0  0  0  0  0
    3.4165    5.3087   15.2078 N   0  0  0  0  0  0  0  0  0  0  0  0
    3.7514    6.6815   11.7555 C   0  0  0  0  0  0  0  0  0  0  0  0
    2.9994    7.9427   12.1101 C   0  0  0  0  0  0  0  0  0  0  0  0
    1.9291    8.1568   11.0850 C   0  0  0  0  0  0  0  0  0  0  0  0
    2.0670    7.0975   10.0483 C   0  0  0  0  0  0  0  0  0  0  0  0
    2.8931    6.0356   10.6911 C   0  0  0  0  0  0  0  0  0  0  0  0
    5.0579    6.9897   11.3489 N   0  0  0  0  0  0  0  0  0  0  0  0
    5.8938    5.9706   10.8668 C   0  0  0  0  0  0  0  0  0  0  0  0
    7.2296    6.5298   10.3600 C   0  0  0  0  0  0  0  0  0  0  0  0
    7.8389    7.0917   11.4803 O   0  0  0  0  0  0  0  0  0  0  0  0
    7.1264    8.2586   11.7531 C   0  0  0  0  0  0  0  0  0  0  0  0
    5.7050    8.0080   12.1264 C   0  0  0  0  0  0  0  0  0  0  0  0
    3.5616    0.5537   19.5375 N   0  0  0  0  0  0  0  0  0  0  0  0
    3.3278   -0.4640   19.3366 H   0  0  0  0  0  0  0  0  0  0  0  0
    3.8271    0.9805   20.8710 C   0  0  0  0  0  0  0  0  0  0  0  0
    5.2711    0.8133   21.3060 C   0  0  0  0  0  0  0  0  0  0  0  0
    5.8970    2.5147   22.9517 C   0  0  0  0  0  0  0  0  0  0  0  0
    5.9029    2.1951   21.4806 C   0  0  0  0  0  0  0  0  0  0  0  0
    4.6971    4.8579   17.7341 N   0  0  0  0  0  0  0  0  0  0  0  0
    5.6454    5.1187   17.4782 H   0  0  0  0  0  0  0  0  0  0  0  0
    3.9286    5.8525   18.4688 C   0  0  0  0  0  0  0  0  0  0  0  0
    4.3641    7.2521   18.1619 C   0  0  0  0  0  0  0  0  0  0  0  0
    3.9953    8.1296   19.3433 C   0  0  0  0  0  0  0  0  0  0  0  0
    4.9764    7.8553   20.4747 C   0  0  0  0  0  0  0  0  0  0  0  0
    4.4908    8.3721   21.6836 O   0  0  0  0  0  0  0  0  0  0  0  0
    5.1752    6.3766   20.5856 C   0  0  0  0  0  0  0  0  0  0  0  0
    4.0605    5.6032   19.9448 C   0  0  0  0  0  0  0  0  0  0  0  0
    4.8315    7.8141   22.4002 H   0  0  0  0  0  0  0  0  0  0  0  0
 28 29  1  0  0  0
 29 27  1  0  0  0
 27 26  1  0  0  0
 26 24  1  0  0  0
 24  1  1  0  0  0
  1  2  2  0  0  0
  2  3  1  0  0  0
  3  4  2  0  0  0
  4  5  1  0  0  0
  5 30  1  0  0  0
 30 32  1  0  0  0
 32 33  1  0  0  0
 33 34  1  0  0  0
 34 35  1  0  0  0
 35 36  1  0  0  0
 35 37  1  0  0  0
 37 38  1  0  0  0
  5  6  2  0  0  0
  4  7  1  0  0  0
  7  8  2  0  0  0
  8  9  1  0  0  0
  9 10  2  0  0  0
 10 11  1  0  0  0
 11 12  2  0  0  0
 10 13  1  0  0  0
 13 14  1  0  0  0
 14 15  1  0  0  0
 15 16  1  0  0  0
 16 17  1  0  0  0
 13 18  1  0  0  0
 18 19  1  0  0  0
 19 20  1  0  0  0
 20 21  1  0  0  0
 21 22  1  0  0  0
 22 23  1  0  0  0
  6  1  1  0  0  0
 12  7  1  0  0  0
 17 13  1  0  0  0
 23 18  1  0  0  0
 38 32  1  0  0  0
 24 25  1  0  0  0
 30 31  1  0  0  0
 36 39  1  0  0  0
M  END
> <minimizedAffinity>
-8.20742

> <CNNscore>
0.4258633852

> <CNNaffinity>
7.0654039383

> <CNN_VS>
3.0088968277

> <CNNaffinity_variance>
0.5010397434

$$$$
[H]OC1([H])C([H])([H])C([H])([H])C([H])(N([H])c2nc(N([H])C([H])([H])C([H])([H])C([H])([H])C([H])([H])[H])nc([H])c2-c2nc([H])c(C3(N4C([H])([H])C([H])([H])OC([H])([H])C4([H])[H])C([H])([H])C([H])([H])C([H])([H])C3([H])[H])c([H])c2[H])C([H])([H])C1([H])[H]


 39 43  0  0  0  0  0  0  0  0999 V2000
    4.0898    1.4617   20.0020 C   0  0  0  0  0  0  0  0  0  0  0  0
    3.6466    0.6739   19.0164 N   0  0  0  0  0  0  0  0  0  0  0  0
    3.4003    1.1572   17.8108 C   0  0  0  0  0  0  0  0  0  0  0  0
    3.5876    2.5126   17.4986 C   0  0  0  0  0  0  0  0  0  0  0  0
    4.0442    3.3233   18.4932 C   0  0  0  0  0  0  0  0  0  0  0  0
    4.2733    2.7491   19.7124 N   0  0  0  0  0  0  0  0  0  0  0  0
    3.2923    2.9304   16.1531 C   0  0  0  0  0  0  0  0  0  0  0  0
    2.2752    2.4497   15.3804 C   0  0  0  0  0  0  0  0  0  0  0  0
    2.1449    2.8692   14.0844 C   0  0  0  0  0  0  0  0  0  0  0  0
    3.0047    3.7622   13.5199 C   0  0  0  0  0  0  0  0  0  0  0  0
    4.0331    4.2443   14.3022 C   0  0  0  0  0  0  0  0  0  0  0  0
    4.1491    3.8255   15.5726 N   0  0  0  0  0  0  0  0  0  0  0  0
    2.8510    4.2332   12.0993 C   0  0  0  0  0  0  0  0  0  0  0  0
    2.4854    3.0723   11.2046 C   0  0  0  0  0  0  0  0  0  0  0  0
    3.4984    2.9878   10.1051 C   0  0  0  0  0  0  0  0  0  0  0  0
    4.4333    4.1367   10.2521 C   0  0  0  0  0  0  0  0  0  0  0  0
    4.2475    4.6066   11.6550 C   0  0  0  0  0  0  0  0  0  0  0  0
    1.9028    5.2597   11.9796 N   0  0  0  0  0  0  0  0  0  0  0  0
    0.7884    5.0819   11.1452 C   0  0  0  0  0  0  0  0  0  0  0  0
   -0.1869    6.2617   11.2483 C   0  0  0  0  0  0  0  0  0  0  0  0
    0.5253    7.3660   10.7847 O   0  0  0  0  0  0  0  0  0  0  0  0
    1.4467    7.6694   11.7861 C   0  0  0  0  0  0  0  0  0  0  0  0
    2.4466    6.5875   12.0149 C   0  0  0  0  0  0  0  0  0  0  0  0
    4.3585    0.9431   21.3090 N   0  0  0  0  0  0  0  0  0  0  0  0
    5.1747    0.2661   21.3880 H   0  0  0  0  0  0  0  0  0  0  0  0
    3.5972    1.2888   22.4630 C   0  0  0  0  0  0  0  0  0  0  0  0
    3.8183    2.7063   22.9573 C   0  0  0  0  0  0  0  0  0  0  0  0
    5.6155    1.9370   24.4314 C   0  0  0  0  0  0  0  0  0  0  0  0
    5.2956    2.8875   23.3086 C   0  0  0  0  0  0  0  0  0  0  0  0
    4.4246    4.6918   18.3073 N   0  0  0  0  0  0  0  0  0  0  0  0
    3.8646    5.4114   17.8585 H   0  0  0  0  0  0  0  0  0  0  0  0
    5.7551    5.0875   18.7462 C   0  0  0  0  0  0  0  0  0  0  0  0
    5.7156    6.1058   19.8435 C   0  0  0  0  0  0  0  0  0  0  0  0
    7.0163    6.8860   19.8088 C   0  0  0  0  0  0  0  0  0  0  0  0
    6.9696    7.8524   18.6334 C   0  0  0  0  0  0  0  0  0  0  0  0
    8.2507    8.3455   18.3503 O   0  0  0  0  0  0  0  0  0  0  0  0
    6.4173    7.1312   17.4446 C   0  0  0  0  0  0  0  0  0  0  0  0
    6.5270    5.6411   17.5819 C   0  0  0  0  0  0  0  0  0  0  0  0
    8.2899    8.5342   17.3996 H   0  0  0  0  0  0  0  0  0  0  0  0
 28 29  1  0  0  0
 29 27  1  0  0  0
 27 26  1  0  0  0
 26 24  1  0  0  0
 24  1  1  0  0  0
  1  2  2  0  0  0
  2  3  1  0  0  0
  3  4  2  0  0  0
  4  5  1  0  0  0
  5 30  1  0  0  0
 30 32  1  0  0  0
 32 33  1  0  0  0
 33 34  1  0  0  0
 34 35  1  0  0  0
 35 36  1  0  0  0
 35 37  1  0  0  0
 37 38  1  0  0  0
  5  6  2  0  0  0
  4  7  1  0  0  0
  7  8  2  0  0  0
  8  9  1  0  0  0
  9 10  2  0  0  0
 10 11  1  0  0  0
 11 12  2  0  0  0
 10 13  1  0  0  0
 13 14  1  0  0  0
 14 15  1  0  0  0
 15 16  1  0  0  0
 16 17  1  0  0  0
 13 18  1  0  0  0
 18 19  1  0  0  0
 19 20  1  0  0  0
 20 21  1  0  0  0
 21 22  1  0  0  0
 22 23  1  0  0  0
  6  1  1  0  0  0
 12  7  1  0  0  0
 17 13  1  0  0  0
 23 18  1  0  0  0
 38 32  1  0  0  0
 24 25  1  0  0  0
 30 31  1  0  0  0
 36 39  1  0  0  0
M  END
> <minimizedAffinity>
-7.86673

> <CNNscore>
0.4209669530

> <CNNaffinity>
7.2525200844

> <CNN_VS>
3.0530712605

> <CNNaffinity_variance>
0.2633559406

$$$$
[H]OC1([H])C([H])([H])C([H])([H])C([H])(N([H])c2nc(N([H])C([H])([H])C([H])([H])C([H])([H])C([H])([H])[H])nc([H])c2-c2nc([H])c(C3(N4C([H])([H])C([H])([H])OC([H])([H])C4([H])[H])C([H])([H])C([H])([H])C([H])([H])C3([H])[H])c([H])c2[H])C([H])([H])C1([H])[H]


 39 43  0  0  0  0  0  0  0  0999 V2000
    3.9501    1.7844   17.6580 C   0  0  0  0  0  0  0  0  0  0  0  0
    3.0417    1.1205   16.9351 N   0  0  0  0  0  0  0  0  0  0  0  0
    2.5411    1.6340   15.8245 C   0  0  0  0  0  0  0  0  0  0  0  0
    2.9303    2.8942   15.3445 C   0  0  0  0  0  0  0  0  0  0  0  0
    3.8591    3.5770   16.0697 C   0  0  0  0  0  0  0  0  0  0  0  0
    4.3270    2.9801   17.2070 N   0  0  0  0  0  0  0  0  0  0  0  0
    2.3243    3.3547   14.1226 C   0  0  0  0  0  0  0  0  0  0  0  0
    2.4705    2.7708   12.8978 C   0  0  0  0  0  0  0  0  0  0  0  0
    1.9072    3.3500   11.7933 C   0  0  0  0  0  0  0  0  0  0  0  0
    1.1940    4.5083   11.8644 C   0  0  0  0  0  0  0  0  0  0  0  0
    1.0501    5.0974   13.1030 C   0  0  0  0  0  0  0  0  0  0  0  0
    1.6068    4.5185   14.1788 N   0  0  0  0  0  0  0  0  0  0  0  0
    0.5630    5.1356   10.6512 C   0  0  0  0  0  0  0  0  0  0  0  0
   -0.6159    5.9866   11.0611 C   0  0  0  0  0  0  0  0  0  0  0  0
   -1.8236    5.5087   10.3158 C   0  0  0  0  0  0  0  0  0  0  0  0
   -1.3912    4.4348    9.3801 C   0  0  0  0  0  0  0  0  0  0  0  0
   -0.0658    3.9863    9.8956 C   0  0  0  0  0  0  0  0  0  0  0  0
    1.4789    5.8951    9.9086 N   0  0  0  0  0  0  0  0  0  0  0  0
    2.4803    5.2469    9.1692 C   0  0  0  0  0  0  0  0  0  0  0  0
    3.2963    6.2413    8.3330 C   0  0  0  0  0  0  0  0  0  0  0  0
    3.9182    7.0747    9.2607 O   0  0  0  0  0  0  0  0  0  0  0  0
    2.9101    7.8913    9.7711 C   0  0  0  0  0  0  0  0  0  0  0  0
    1.8615    7.1379   10.5163 C   0  0  0  0  0  0  0  0  0  0  0  0
    4.4956    1.2325   18.8610 N   0  0  0  0  0  0  0  0  0  0  0  0
    5.1824    0.4296   18.7412 H   0  0  0  0  0  0  0  0  0  0  0  0
    4.1606    1.7035   20.1636 C   0  0  0  0  0  0  0  0  0  0  0  0
    5.1047    2.7583   20.7099 C   0  0  0  0  0  0  0  0  0  0  0  0
    4.2186    4.5334   22.1448 C   0  0  0  0  0  0  0  0  0  0  0  0
    4.3938    4.1123   20.7100 C   0  0  0  0  0  0  0  0  0  0  0  0
    4.4690    4.8028   15.6486 N   0  0  0  0  0  0  0  0  0  0  0  0
    5.2708    4.8890   15.0300 H   0  0  0  0  0  0  0  0  0  0  0  0
    3.9370    6.0432   16.1944 C   0  0  0  0  0  0  0  0  0  0  0  0
    3.9622    7.1625   15.1998 C   0  0  0  0  0  0  0  0  0  0  0  0
    3.9958    8.4718   15.9653 C   0  0  0  0  0  0  0  0  0  0  0  0
    5.3971    8.6680   16.5272 C   0  0  0  0  0  0  0  0  0  0  0  0
    5.3980    9.6673   17.5100 O   0  0  0  0  0  0  0  0  0  0  0  0
    5.8646    7.3704   17.1068 C   0  0  0  0  0  0  0  0  0  0  0  0
    4.7269    6.4400   17.4095 C   0  0  0  0  0  0  0  0  0  0  0  0
    6.0993    9.4544   18.1455 H   0  0  0  0  0  0  0  0  0  0  0  0
 28 29  1  0  0  0
 29 27  1  0  0  0
 27 26  1  0  0  0
 26 24  1  0  0  0
 24  1  1  0  0  0
  1  2  2  0  0  0
  2  3  1  0  0  0
  3  4  2  0  0  0
  4  5  1  0  0  0
  5 30  1  0  0  0
 30 32  1  0  0  0
 32 33  1  0  0  0
 33 34  1  0  0  0
 34 35  1  0  0  0
 35 36  1  0  0  0
 35 37  1  0  0  0
 37 38  1  0  0  0
  5  6  2  0  0  0
  4  7  1  0  0  0
  7  8  2  0  0  0
  8  9  1  0  0  0
  9 10  2  0  0  0
 10 11  1  0  0  0
 11 12  2  0  0  0
 10 13  1  0  0  0
 13 14  1  0  0  0
 14 15  1  0  0  0
 15 16  1  0  0  0
 16 17  1  0  0  0
 13 18  1  0  0  0
 18 19  1  0  0  0
 19 20  1  0  0  0
 20 21  1  0  0  0
 21 22  1  0  0  0
 22 23  1  0  0  0
  6  1  1  0  0  0
 12  7  1  0  0  0
 17 13  1  0  0  0
 23 18  1  0  0  0
 38 32  1  0  0  0
 24 25  1  0  0  0
 30 31  1  0  0  0
 36 39  1  0  0  0
M  END
> <minimizedAffinity>
-6.49998

> <CNNscore>
0.4026353657

> <CNNaffinity>
6.9080634117

> <CNN_VS>
2.7814307213

> <CNNaffinity_variance>
0.3209208846

$$$$
[H]OC1([H])C([H])([H])C([H])([H])C([H])(N([H])c2nc(N([H])C([H])([H])C([H])([H])C([H])([H])C([H])([H])[H])nc([H])c2-c2nc([H])c(C3(N4C([H])([H])C([H])([H])OC([H])([H])C4([H])[H])C([H])([H])C([H])([H])C([H])([H])C3([H])[H])c([H])c2[H])C([H])([H])C1([H])[H]


 39 43  0  0  0  0  0  0  0  0999 V2000
    4.5965    2.0765   19.0209 C   0  0  0  0  0  0  0  0  0  0  0  0
    3.5493    1.5134   18.4088 N   0  0  0  0  0  0  0  0  0  0  0  0
    3.1138    1.9616   17.2438 C   0  0  0  0  0  0  0  0  0  0  0  0
    3.7197    3.0447   16.5882 C   0  0  0  0  0  0  0  0  0  0  0  0
    4.7908    3.6224   17.1996 C   0  0  0  0  0  0  0  0  0  0  0  0
    5.1791    3.1031   18.4030 N   0  0  0  0  0  0  0  0  0  0  0  0
    3.1664    3.4472   15.3217 C   0  0  0  0  0  0  0  0  0  0  0  0
    3.4649    4.6023   14.6590 C   0  0  0  0  0  0  0  0  0  0  0  0
    2.8113    4.9117   13.4971 C   0  0  0  0  0  0  0  0  0  0  0  0
    1.8551    4.1015   12.9636 C   0  0  0  0  0  0  0  0  0  0  0  0
    1.5537    2.9363   13.6369 C   0  0  0  0  0  0  0  0  0  0  0  0
    2.2029    2.6439   14.7751 N   0  0  0  0  0  0  0  0  0  0  0  0
    1.1482    4.4364   11.6784 C   0  0  0  0  0  0  0  0  0  0  0  0
    1.4168    5.8734   11.2980 C   0  0  0  0  0  0  0  0  0  0  0  0
    0.1019    6.5725   11.1400 C   0  0  0  0  0  0  0  0  0  0  0  0
   -0.9789    5.5660   11.3256 C   0  0  0  0  0  0  0  0  0  0  0  0
   -0.3240    4.4226   12.0237 C   0  0  0  0  0  0  0  0  0  0  0  0
    1.5137    3.5774   10.6316 N   0  0  0  0  0  0  0  0  0  0  0  0
    0.7517    2.4261   10.3799 C   0  0  0  0  0  0  0  0  0  0  0  0
    1.2386    1.6915    9.1240 C   0  0  0  0  0  0  0  0  0  0  0  0
    2.5403    1.2899    9.4172 O   0  0  0  0  0  0  0  0  0  0  0  0
    3.3108    2.4514    9.3849 C   0  0  0  0  0  0  0  0  0  0  0  0
    2.9285    3.4420   10.4313 C   0  0  0  0  0  0  0  0  0  0  0  0
    5.0723    1.5945   20.2821 N   0  0  0  0  0  0  0  0  0  0  0  0
    5.9451    0.9877   20.2551 H   0  0  0  0  0  0  0  0  0  0  0  0
    4.4387    1.8877   21.5245 C   0  0  0  0  0  0  0  0  0  0  0  0
    4.2003    3.3656   21.7723 C   0  0  0  0  0  0  0  0  0  0  0  0
    4.7875    2.3707   23.9310 C   0  0  0  0  0  0  0  0  0  0  0  0
    4.3839    3.6576   23.2622 C   0  0  0  0  0  0  0  0  0  0  0  0
    5.6089    4.6366   16.6044 N   0  0  0  0  0  0  0  0  0  0  0  0
    6.0687    4.5780   15.7000 H   0  0  0  0  0  0  0  0  0  0  0  0
    5.8585    5.8430   17.3801 C   0  0  0  0  0  0  0  0  0  0  0  0
    6.1186    5.5495   18.8254 C   0  0  0  0  0  0  0  0  0  0  0  0
    5.7588    6.7852   19.6288 C   0  0  0  0  0  0  0  0  0  0  0  0
    4.2418    6.8837   19.7116 C   0  0  0  0  0  0  0  0  0  0  0  0
    3.8541    8.1612   20.1382 O   0  0  0  0  0  0  0  0  0  0  0  0
    3.6705    6.5930   18.3598 C   0  0  0  0  0  0  0  0  0  0  0  0
    4.6813    6.7698   17.2651 C   0  0  0  0  0  0  0  0  0  0  0  0
    2.9893    8.3536   19.7430 H   0  0  0  0  0  0  0  0  0  0  0  0
 28 29  1  0  0  0
 29 27  1  0  0  0
 27 26  1  0  0  0
 26 24  1  0  0  0
 24  1  1  0  0  0
  1  2  2  0  0  0
  2  3  1  0  0  0
  3  4  2  0  0  0
  4  5  1  0  0  0
  5 30  1  0  0  0
 30 32  1  0  0  0
 32 33  1  0  0  0
 33 34  1  0  0  0
 34 35  1  0  0  0
 35 36  1  0  0  0
 35 37  1  0  0  0
 37 38  1  0  0  0
  5  6  2  0  0  0
  4  7  1  0  0  0
  7  8  2  0  0  0
  8  9  1  0  0  0
  9 10  2  0  0  0
 10 11  1  0  0  0
 11 12  2  0  0  0
 10 13  1  0  0  0
 13 14  1  0  0  0
 14 15  1  0  0  0
 15 16  1  0  0  0
 16 17  1  0  0  0
 13 18  1  0  0  0
 18 19  1  0  0  0
 19 20  1  0  0  0
 20 21  1  0  0  0
 21 22  1  0  0  0
 22 23  1  0  0  0
  6  1  1  0  0  0
 12  7  1  0  0  0
 17 13  1  0  0  0
 23 18  1  0  0  0
 38 32  1  0  0  0
 24 25  1  0  0  0
 30 31  1  0  0  0
 36 39  1  0  0  0
M  END
> <minimizedAffinity>
-7.35720

> <CNNscore>
0.3438559473

> <CNNaffinity>
7.0747833252

> <CNN_VS>
2.4327063560

> <CNNaffinity_variance>
0.5683594942

$$$$
[H]OC1([H])C([H])([H])C([H])([H])C([H])(N([H])c2nc(N([H])C([H])([H])C([H])([H])C([H])([H])C([H])([H])[H])nc([H])c2-c2nc([H])c(C3(N4C([H])([H])C([H])([H])OC([H])([H])C4([H])[H])C([H])([H])C([H])([H])C([H])([H])C3([H])[H])c([H])c2[H])C([H])([H])C1([H])[H]


 39 43  0  0  0  0  0  0  0  0999 V2000
    2.3838    2.3268   13.7480 C   0  0  0  0  0  0  0  0  0  0  0  0
    2.2188    1.5459   14.8210 N   0  0  0  0  0  0  0  0  0  0  0  0
    2.7100    1.8879   15.9998 C   0  0  0  0  0  0  0  0  0  0  0  0
    3.4267    3.0794   16.1914 C   0  0  0  0  0  0  0  0  0  0  0  0
    3.5960    3.8854   15.1068 C   0  0  0  0  0  0  0  0  0  0  0  0
    3.0603    3.4613   13.9228 N   0  0  0  0  0  0  0  0  0  0  0  0
    3.9132    3.3549   17.5179 C   0  0  0  0  0  0  0  0  0  0  0  0
    4.6306    2.4906   18.2931 C   0  0  0  0  0  0  0  0  0  0  0  0
    4.9687    2.8400   19.5723 C   0  0  0  0  0  0  0  0  0  0  0  0
    4.6117    4.0362   20.1172 C   0  0  0  0  0  0  0  0  0  0  0  0
    3.8845    4.9065   19.3324 C   0  0  0  0  0  0  0  0  0  0  0  0
    3.5601    4.5521   18.0787 N   0  0  0  0  0  0  0  0  0  0  0  0
    4.9971    4.4243   21.5187 C   0  0  0  0  0  0  0  0  0  0  0  0
    5.5009    3.2155   22.2717 C   0  0  0  0  0  0  0  0  0  0  0  0
    4.6813    3.0599   23.5152 C   0  0  0  0  0  0  0  0  0  0  0  0
    3.7382    4.2090   23.5909 C   0  0  0  0  0  0  0  0  0  0  0  0
    3.6933    4.7615   22.2066 C   0  0  0  0  0  0  0  0  0  0  0  0
    5.9551    5.4485   21.5420 N   0  0  0  0  0  0  0  0  0  0  0  0
    7.2195    5.2041   22.0998 C   0  0  0  0  0  0  0  0  0  0  0  0
    8.1578    6.4042   21.9166 C   0  0  0  0  0  0  0  0  0  0  0  0
    7.5658    7.4432   22.6321 O   0  0  0  0  0  0  0  0  0  0  0  0
    6.4554    7.8327   21.8843 C   0  0  0  0  0  0  0  0  0  0  0  0
    5.4236    6.7638   21.7601 C   0  0  0  0  0  0  0  0  0  0  0  0
    1.8534    1.9612   12.4696 N   0  0  0  0  0  0  0  0  0  0  0  0
    0.9465    1.4060   12.4777 H   0  0  0  0  0  0  0  0  0  0  0  0
    2.4769    2.3015   11.2342 C   0  0  0  0  0  0  0  0  0  0  0  0
    1.8840    3.5179   10.5478 C   0  0  0  0  0  0  0  0  0  0  0  0
   -0.3259    4.4646   10.0841 C   0  0  0  0  0  0  0  0  0  0  0  0
    0.5103    3.8118   11.1523 C   0  0  0  0  0  0  0  0  0  0  0  0
    4.1727    5.1957   15.1579 N   0  0  0  0  0  0  0  0  0  0  0  0
    5.1456    5.4123   15.3561 H   0  0  0  0  0  0  0  0  0  0  0  0
    3.2831    6.3320   14.9663 C   0  0  0  0  0  0  0  0  0  0  0  0
    1.8724    5.9129   14.6887 C   0  0  0  0  0  0  0  0  0  0  0  0
    1.1909    7.0316   13.9232 C   0  0  0  0  0  0  0  0  0  0  0  0
    1.6949    7.0119   12.4867 C   0  0  0  0  0  0  0  0  0  0  0  0
    1.3681    8.2083   11.8339 O   0  0  0  0  0  0  0  0  0  0  0  0
    3.1785    6.8194   12.5044 C   0  0  0  0  0  0  0  0  0  0  0  0
    3.7828    7.1786   13.8299 C   0  0  0  0  0  0  0  0  0  0  0  0
    2.0533    8.3770   11.1684 H   0  0  0  0  0  0  0  0  0  0  0  0
 28 29  1  0  0  0
 29 27  1  0  0  0
 27 26  1  0  0  0
 26 24  1  0  0  0
 24  1  1  0  0  0
  1  2  2  0  0  0
  2  3  1  0  0  0
  3  4  2  0  0  0
  4  5  1  0  0  0
  5 30  1  0  0  0
 30 32  1  0  0  0
 32 33  1  0  0  0
 33 34  1  0  0  0
 34 35  1  0  0  0
 35 36  1  0  0  0
 35 37  1  0  0  0
 37 38  1  0  0  0
  5  6  2  0  0  0
  4  7  1  0  0  0
  7  8  2  0  0  0
  8  9  1  0  0  0
  9 10  2  0  0  0
 10 11  1  0  0  0
 11 12  2  0  0  0
 10 13  1  0  0  0
 13 14  1  0  0  0
 14 15  1  0  0  0
 15 16  1  0  0  0
 16 17  1  0  0  0
 13 18  1  0  0  0
 18 19  1  0  0  0
 19 20  1  0  0  0
 20 21  1  0  0  0
 21 22  1  0  0  0
 22 23  1  0  0  0
  6  1  1  0  0  0
 12  7  1  0  0  0
 17 13  1  0  0  0
 23 18  1  0  0  0
 38 32  1  0  0  0
 24 25  1  0  0  0
 30 31  1  0  0  0
 36 39  1  0  0  0
M  END
> <minimizedAffinity>
-8.06049

> <CNNscore>
0.3425554633

> <CNNaffinity>
6.9582352638

> <CNN_VS>
2.3835813999

> <CNNaffinity_variance>
0.1796980351

$$$$
[H]O[C@]1([H])C([H])([H])C([H])([H])[C@@]([H])(N([H])c2nc(N([H])C([H])([H])C([H])([H])C([H])([H])C([H])([H])[H])nc([H])c2-c2nc([H])c(C([H])([H])[H])s2)C([H])([H])C1([H])[H]


 28 30  0  0  0  0  0  0  0  0999 V2000
    3.5334    0.8684   18.8800 C   0  0  0  0  0  0  0  0  0  0  0  0
    2.7215    0.3982   17.9190 N   0  0  0  0  0  0  0  0  0  0  0  0
    2.6896    0.9531   16.7024 C   0  0  0  0  0  0  0  0  0  0  0  0
    3.5300    2.0407   16.4615 C   0  0  0  0  0  0  0  0  0  0  0  0
    4.3421    2.5087   17.4274 C   0  0  0  0  0  0  0  0  0  0  0  0
    4.3334    1.9026   18.6528 N   0  0  0  0  0  0  0  0  0  0  0  0
    3.4238    2.5875   15.0852 C   0  0  0  0  0  0  0  0  0  0  0  0
    4.0525    3.6730   14.6260 N   0  0  0  0  0  0  0  0  0  0  0  0
    3.8893    4.0603   13.4129 C   0  0  0  0  0  0  0  0  0  0  0  0
    3.0529    3.3260   12.6099 C   0  0  0  0  0  0  0  0  0  0  0  0
    2.6989    3.5691   11.1683 C   0  0  0  0  0  0  0  0  0  0  0  0
    2.5626    2.1139   13.6963 S   0  0  0  0  0  0  0  0  0  0  0  0
    3.4897    0.2009   20.1486 N   0  0  0  0  0  0  0  0  0  0  0  0
    2.8433   -0.6350   20.2672 H   0  0  0  0  0  0  0  0  0  0  0  0
    4.2666    0.5856   21.2841 C   0  0  0  0  0  0  0  0  0  0  0  0
    3.5365    1.4133   22.2980 C   0  0  0  0  0  0  0  0  0  0  0  0
    4.2240    3.4158   23.6326 C   0  0  0  0  0  0  0  0  0  0  0  0
    4.4706    1.9512   23.3627 C   0  0  0  0  0  0  0  0  0  0  0  0
    5.1964    3.6000   17.2116 N   0  0  0  0  0  0  0  0  0  0  0  0
    6.0883    3.5705   16.7599 H   0  0  0  0  0  0  0  0  0  0  0  0
    4.7571    4.9183   17.6869 C   0  0  0  0  0  0  0  0  0  0  0  0
    3.3044    4.9280   18.0477 C   0  0  0  0  0  0  0  0  0  0  0  0
    3.0143    5.6196   19.3516 C   0  0  0  0  0  0  0  0  0  0  0  0
    3.8930    5.2025   20.4749 C   0  0  0  0  0  0  0  0  0  0  0  0
    4.0063    6.2972   21.3566 O   0  0  0  0  0  0  0  0  0  0  0  0
    5.2893    4.8287   20.0623 C   0  0  0  0  0  0  0  0  0  0  0  0
    5.6520    5.4671   18.7501 C   0  0  0  0  0  0  0  0  0  0  0  0
    4.4313    7.0708   20.8973 H   0  0  0  0  0  0  0  0  0  0  0  0
 17 18  1  0  0  0
 18 16  1  0  0  0
 16 15  1  0  0  0
 15 13  1  0  0  0
 13  1  1  0  0  0
  1  2  2  0  0  0
  2  3  1  0  0  0
  3  4  2  0  0  0
  4  7  1  0  0  0
  7  8  2  0  0  0
  8  9  1  0  0  0
  9 10  2  0  0  0
 10 11  1  0  0  0
 10 12  1  0  0  0
  4  5  1  0  0  0
  5 19  1  0  0  0
 19 21  1  0  0  0
 21 22  1  0  0  0
 22 23  1  0  0  0
 23 24  1  0  0  0
 24 25  1  0  0  0
 24 26  1  0  0  0
 26 27  1  0  0  0
  5  6  2  0  0  0
  6  1  1  0  0  0
 12  7  1  0  0  0
 27 21  1  0  0  0
 13 14  1  0  0  0
 19 20  1  0  0  0
 25 28  1  0  0  0
M  END
> <minimizedAffinity>
-7.32583

> <CNNscore>
0.8271008134

> <CNNaffinity>
6.9293379784

> <CNN_VS>
5.7312612534

> <CNNaffinity_variance>
0.1707433164

$$$$
[H]O[C@]1([H])C([H])([H])C([H])([H])[C@@]([H])(N([H])c2nc(N([H])C([H])([H])C([H])([H])C([H])([H])C([H])([H])[H])nc([H])c2-c2nc([H])c(C([H])([H])[H])s2)C([H])([H])C1([H])[H]


 28 30  0  0  0  0  0  0  0  0999 V2000
    2.8106    1.2225   16.9705 C   0  0  0  0  0  0  0  0  0  0  0  0
    2.7834    0.2547   17.9013 N   0  0  0  0  0  0  0  0  0  0  0  0
    3.3750    0.4161   19.0900 C   0  0  0  0  0  0  0  0  0  0  0  0
    4.0243    1.6269   19.3341 C   0  0  0  0  0  0  0  0  0  0  0  0
    4.0491    2.5941   18.3986 C   0  0  0  0  0  0  0  0  0  0  0  0
    3.4276    2.3746   17.2009 N   0  0  0  0  0  0  0  0  0  0  0  0
    4.6495    1.7119   20.6782 C   0  0  0  0  0  0  0  0  0  0  0  0
    5.9504    1.8896   20.9239 N   0  0  0  0  0  0  0  0  0  0  0  0
    6.3869    1.9488   22.1298 C   0  0  0  0  0  0  0  0  0  0  0  0
    5.4777    1.8244   23.1503 C   0  0  0  0  0  0  0  0  0  0  0  0
    5.7336    1.8585   24.6321 C   0  0  0  0  0  0  0  0  0  0  0  0
    4.0400    1.6281   22.2645 S   0  0  0  0  0  0  0  0  0  0  0  0
    2.1454    0.9470   15.7302 N   0  0  0  0  0  0  0  0  0  0  0  0
    1.8139   -0.0441   15.5342 H   0  0  0  0  0  0  0  0  0  0  0  0
    1.8915    1.9266   14.7217 C   0  0  0  0  0  0  0  0  0  0  0  0
    2.9558    2.0442   13.6732 C   0  0  0  0  0  0  0  0  0  0  0  0
    3.9590    4.2822   14.1722 C   0  0  0  0  0  0  0  0  0  0  0  0
    3.1280    3.4747   13.2047 C   0  0  0  0  0  0  0  0  0  0  0  0
    4.6944    3.8199   18.6183 N   0  0  0  0  0  0  0  0  0  0  0  0
    5.5279    4.1371   18.1654 H   0  0  0  0  0  0  0  0  0  0  0  0
    4.1057    4.7372   19.6025 C   0  0  0  0  0  0  0  0  0  0  0  0
    5.1456    5.5731   20.2810 C   0  0  0  0  0  0  0  0  0  0  0  0
    4.7716    7.0261   20.3886 C   0  0  0  0  0  0  0  0  0  0  0  0
    4.2736    7.6256   19.1235 C   0  0  0  0  0  0  0  0  0  0  0  0
    3.3773    8.6593   19.4655 O   0  0  0  0  0  0  0  0  0  0  0  0
    3.5206    6.6702   18.2405 C   0  0  0  0  0  0  0  0  0  0  0  0
    2.9665    5.5224   19.0384 C   0  0  0  0  0  0  0  0  0  0  0  0
    2.5992    8.2931   19.9660 H   0  0  0  0  0  0  0  0  0  0  0  0
 17 18  1  0  0  0
 18 16  1  0  0  0
 16 15  1  0  0  0
 15 13  1  0  0  0
 13  1  1  0  0  0
  1  2  2  0  0  0
  2  3  1  0  0  0
  3  4  2  0  0  0
  4  7  1  0  0  0
  7  8  2  0  0  0
  8  9  1  0  0  0
  9 10  2  0  0  0
 10 11  1  0  0  0
 10 12  1  0  0  0
  4  5  1  0  0  0
  5 19  1  0  0  0
 19 21  1  0  0  0
 21 22  1  0  0  0
 22 23  1  0  0  0
 23 24  1  0  0  0
 24 25  1  0  0  0
 24 26  1  0  0  0
 26 27  1  0  0  0
  5  6  2  0  0  0
  6  1  1  0  0  0
 12  7  1  0  0  0
 27 21  1  0  0  0
 13 14  1  0  0  0
 19 20  1  0  0  0
 25 28  1  0  0  0
M  END
> <minimizedAffinity>
-7.30632

> <CNNscore>
0.7746616006

> <CNNaffinity>
6.9557962418

> <CNN_VS>
5.3883881569

> <CNNaffinity_variance>
0.2533826828

$$$$
[H]O[C@]1([H])C([H])([H])C([H])([H])[C@@]([H])(N([H])c2nc(N([H])C([H])([H])C([H])([H])C([H])([H])C([H])([H])[H])nc([H])c2-c2nc([H])c(C([H])([H])[H])s2)C([H])([H])C1([H])[H]


 28 30  0  0  0  0  0  0  0  0999 V2000
    3.1385    1.3852   16.3379 C   0  0  0  0  0  0  0  0  0  0  0  0
    2.7381    0.4775   17.2433 N   0  0  0  0  0  0  0  0  0  0  0  0
    3.0783    0.5842   18.5325 C   0  0  0  0  0  0  0  0  0  0  0  0
    3.8657    1.6729   18.9093 C   0  0  0  0  0  0  0  0  0  0  0  0
    4.2646    2.5802   17.9988 C   0  0  0  0  0  0  0  0  0  0  0  0
    3.8872    2.4212   16.6944 N   0  0  0  0  0  0  0  0  0  0  0  0
    4.1909    1.7052   20.3576 C   0  0  0  0  0  0  0  0  0  0  0  0
    3.4206    1.2322   21.3412 N   0  0  0  0  0  0  0  0  0  0  0  0
    3.7994    1.3114   22.5653 C   0  0  0  0  0  0  0  0  0  0  0  0
    5.0140    1.8943   22.8267 C   0  0  0  0  0  0  0  0  0  0  0  0
    5.6755    2.1051   24.1611 C   0  0  0  0  0  0  0  0  0  0  0  0
    5.5169    2.2871   21.2510 S   0  0  0  0  0  0  0  0  0  0  0  0
    2.7182    1.1769   14.9827 N   0  0  0  0  0  0  0  0  0  0  0  0
    2.8858    0.2281   14.5329 H   0  0  0  0  0  0  0  0  0  0  0  0
    2.0789    2.1707   14.1798 C   0  0  0  0  0  0  0  0  0  0  0  0
    2.8792    2.6440   13.0043 C   0  0  0  0  0  0  0  0  0  0  0  0
    4.4198    4.4235   12.1536 C   0  0  0  0  0  0  0  0  0  0  0  0
    3.4208    4.0426   13.2192 C   0  0  0  0  0  0  0  0  0  0  0  0
    5.0560    3.6833   18.3508 N   0  0  0  0  0  0  0  0  0  0  0  0
    5.8686    3.6642   18.9337 H   0  0  0  0  0  0  0  0  0  0  0  0
    4.6709    4.9988   17.8237 C   0  0  0  0  0  0  0  0  0  0  0  0
    3.5042    5.5779   18.5611 C   0  0  0  0  0  0  0  0  0  0  0  0
    3.6769    7.0303   18.9124 C   0  0  0  0  0  0  0  0  0  0  0  0
    4.9845    7.3580   19.5374 C   0  0  0  0  0  0  0  0  0  0  0  0
    5.2945    8.6923   19.2027 O   0  0  0  0  0  0  0  0  0  0  0  0
    6.1295    6.5107   19.0570 C   0  0  0  0  0  0  0  0  0  0  0  0
    5.8359    5.9267   17.7029 C   0  0  0  0  0  0  0  0  0  0  0  0
    5.3852    8.7911   18.2167 H   0  0  0  0  0  0  0  0  0  0  0  0
 17 18  1  0  0  0
 18 16  1  0  0  0
 16 15  1  0  0  0
 15 13  1  0  0  0
 13  1  1  0  0  0
  1  2  2  0  0  0
  2  3  1  0  0  0
  3  4  2  0  0  0
  4  7  1  0  0  0
  7  8  2  0  0  0
  8  9  1  0  0  0
  9 10  2  0  0  0
 10 11  1  0  0  0
 10 12  1  0  0  0
  4  5  1  0  0  0
  5 19  1  0  0  0
 19 21  1  0  0  0
 21 22  1  0  0  0
 22 23  1  0  0  0
 23 24  1  0  0  0
 24 25  1  0  0  0
 24 26  1  0  0  0
 26 27  1  0  0  0
  5  6  2  0  0  0
  6  1  1  0  0  0
 12  7  1  0  0  0
 27 21  1  0  0  0
 13 14  1  0  0  0
 19 20  1  0  0  0
 25 28  1  0  0  0
M  END
> <minimizedAffinity>
-6.73084

> <CNNscore>
0.7350680828

> <CNNaffinity>
6.7319116592

> <CNN_VS>
4.9484133720

> <CNNaffinity_variance>
0.1861923188

$$$$
[H]O[C@]1([H])C([H])([H])C([H])([H])[C@@]([H])(N([H])c2nc(N([H])C([H])([H])C([H])([H])C([H])([H])C([H])([H])[H])nc([H])c2-c2nc([H])c(C([H])([H])[H])s2)C([H])([H])C1([H])[H]


 28 30  0  0  0  0  0  0  0  0999 V2000
    3.9451    1.0958   19.2934 C   0  0  0  0  0  0  0  0  0  0  0  0
    3.0854    0.5530   18.4157 N   0  0  0  0  0  0  0  0  0  0  0  0
    2.9597    1.0371   17.1752 C   0  0  0  0  0  0  0  0  0  0  0  0
    3.7532    2.1284   16.8194 C   0  0  0  0  0  0  0  0  0  0  0  0
    4.6135    2.6691   17.7020 C   0  0  0  0  0  0  0  0  0  0  0  0
    4.7006    2.1336   18.9568 N   0  0  0  0  0  0  0  0  0  0  0  0
    3.5433    2.5935   15.4251 C   0  0  0  0  0  0  0  0  0  0  0  0
    4.0761    3.6903   14.8797 N   0  0  0  0  0  0  0  0  0  0  0  0
    3.8278    4.0016   13.6591 C   0  0  0  0  0  0  0  0  0  0  0  0
    3.0022    3.1747   12.9393 C   0  0  0  0  0  0  0  0  0  0  0  0
    2.5618    3.3182   11.5082 C   0  0  0  0  0  0  0  0  0  0  0  0
    2.6467    1.9937   14.1093 S   0  0  0  0  0  0  0  0  0  0  0  0
    4.0018    0.5005   20.5969 N   0  0  0  0  0  0  0  0  0  0  0  0
    3.5900   -0.4697   20.7369 H   0  0  0  0  0  0  0  0  0  0  0  0
    4.5828    1.1292   21.7407 C   0  0  0  0  0  0  0  0  0  0  0  0
    3.6425    1.9796   22.5399 C   0  0  0  0  0  0  0  0  0  0  0  0
    5.5216    2.1304   24.1861 C   0  0  0  0  0  0  0  0  0  0  0  0
    4.3818    2.8647   23.5225 C   0  0  0  0  0  0  0  0  0  0  0  0
    5.4224    3.7659   17.3701 N   0  0  0  0  0  0  0  0  0  0  0  0
    6.0553    3.8195   16.5975 H   0  0  0  0  0  0  0  0  0  0  0  0
    5.3467    4.9567   18.2262 C   0  0  0  0  0  0  0  0  0  0  0  0
    6.3151    6.0154   17.7998 C   0  0  0  0  0  0  0  0  0  0  0  0
    5.7186    7.3958   17.7646 C   0  0  0  0  0  0  0  0  0  0  0  0
    4.4125    7.4808   17.0613 C   0  0  0  0  0  0  0  0  0  0  0  0
    3.6829    8.5378   17.6435 O   0  0  0  0  0  0  0  0  0  0  0  0
    3.5632    6.2464   17.1822 C   0  0  0  0  0  0  0  0  0  0  0  0
    3.9455    5.4468   18.3968 C   0  0  0  0  0  0  0  0  0  0  0  0
    3.5090    8.3516   18.6054 H   0  0  0  0  0  0  0  0  0  0  0  0
 17 18  1  0  0  0
 18 16  1  0  0  0
 16 15  1  0  0  0
 15 13  1  0  0  0
 13  1  1  0  0  0
  1  2  2  0  0  0
  2  3  1  0  0  0
  3  4  2  0  0  0
  4  7  1  0  0  0
  7  8  2  0  0  0
  8  9  1  0  0  0
  9 10  2  0  0  0
 10 11  1  0  0  0
 10 12  1  0  0  0
  4  5  1  0  0  0
  5 19  1  0  0  0
 19 21  1  0  0  0
 21 22  1  0  0  0
 22 23  1  0  0  0
 23 24  1  0  0  0
 24 25  1  0  0  0
 24 26  1  0  0  0
 26 27  1  0  0  0
  5  6  2  0  0  0
  6  1  1  0  0  0
 12  7  1  0  0  0
 27 21  1  0  0  0
 13 14  1  0  0  0
 19 20  1  0  0  0
 25 28  1  0  0  0
M  END
> <minimizedAffinity>
-6.79842

> <CNNscore>
0.6912105083

> <CNNaffinity>
6.7282867432

> <CNN_VS>
4.6506624222

> <CNNaffinity_variance>
0.2249515504

$$$$
[H]O[C@]1([H])C([H])([H])C([H])([H])[C@@]([H])(N([H])c2nc(N([H])C([H])([H])C([H])([H])C([H])([H])C([H])([H])[H])nc([H])c2-c2nc([H])c(C([H])([H])[H])s2)C([H])([H])C1([H])[H]


 28 30  0  0  0  0  0  0  0  0999 V2000
    3.6042    0.9610   19.1196 C   0  0  0  0  0  0  0  0  0  0  0  0
    2.9840    0.6076   17.9819 N   0  0  0  0  0  0  0  0  0  0  0  0
    2.9716    1.4162   16.9165 C   0  0  0  0  0  0  0  0  0  0  0  0
    3.6260    2.6440   17.0242 C   0  0  0  0  0  0  0  0  0  0  0  0
    4.2463    2.9940   18.1661 C   0  0  0  0  0  0  0  0  0  0  0  0
    4.2272    2.1281   19.2239 N   0  0  0  0  0  0  0  0  0  0  0  0
    3.5575    3.4703   15.7925 C   0  0  0  0  0  0  0  0  0  0  0  0
    3.8699    3.0611   14.5599 N   0  0  0  0  0  0  0  0  0  0  0  0
    3.7744    3.8612   13.5604 C   0  0  0  0  0  0  0  0  0  0  0  0
    3.3434    5.1419   13.8002 C   0  0  0  0  0  0  0  0  0  0  0  0
    3.1496    6.2577   12.8102 C   0  0  0  0  0  0  0  0  0  0  0  0
    3.1079    5.0817   15.4827 S   0  0  0  0  0  0  0  0  0  0  0  0
    3.5576    0.0208   20.2015 N   0  0  0  0  0  0  0  0  0  0  0  0
    3.0212   -0.8878   20.0697 H   0  0  0  0  0  0  0  0  0  0  0  0
    4.1918    0.2213   21.4659 C   0  0  0  0  0  0  0  0  0  0  0  0
    3.4192    1.0662   22.4331 C   0  0  0  0  0  0  0  0  0  0  0  0
    3.9719    3.4439   22.9851 C   0  0  0  0  0  0  0  0  0  0  0  0
    4.3246    1.9946   23.2166 C   0  0  0  0  0  0  0  0  0  0  0  0
    4.9113    4.2216   18.3008 N   0  0  0  0  0  0  0  0  0  0  0  0
    5.4932    4.6557   17.6128 H   0  0  0  0  0  0  0  0  0  0  0  0
    4.7502    4.9530   19.5641 C   0  0  0  0  0  0  0  0  0  0  0  0
    5.9566    5.7758   19.8926 C   0  0  0  0  0  0  0  0  0  0  0  0
    5.6256    7.1674   20.3579 C   0  0  0  0  0  0  0  0  0  0  0  0
    4.6457    7.8831   19.5003 C   0  0  0  0  0  0  0  0  0  0  0  0
    3.9413    8.7876   20.3215 O   0  0  0  0  0  0  0  0  0  0  0  0
    3.6216    6.9920   18.8548 C   0  0  0  0  0  0  0  0  0  0  0  0
    3.4630    5.7094   19.6235 C   0  0  0  0  0  0  0  0  0  0  0  0
    3.4401    8.2977   21.0279 H   0  0  0  0  0  0  0  0  0  0  0  0
 17 18  1  0  0  0
 18 16  1  0  0  0
 16 15  1  0  0  0
 15 13  1  0  0  0
 13  1  1  0  0  0
  1  2  2  0  0  0
  2  3  1  0  0  0
  3  4  2  0  0  0
  4  7  1  0  0  0
  7  8  2  0  0  0
  8  9  1  0  0  0
  9 10  2  0  0  0
 10 11  1  0  0  0
 10 12  1  0  0  0
  4  5  1  0  0  0
  5 19  1  0  0  0
 19 21  1  0  0  0
 21 22  1  0  0  0
 22 23  1  0  0  0
 23 24  1  0  0  0
 24 25  1  0  0  0
 24 26  1  0  0  0
 26 27  1  0  0  0
  5  6  2  0  0  0
  6  1  1  0  0  0
 12  7  1  0  0  0
 27 21  1  0  0  0
 13 14  1  0  0  0
 19 20  1  0  0  0
 25 28  1  0  0  0
M  END
> <minimizedAffinity>
-6.95125

> <CNNscore>
0.5158223510

> <CNNaffinity>
6.5448632240

> <CNN_VS>
3.3759868145

> <CNNaffinity_variance>
0.3395242989

$$$$
[H]O[C@]1([H])C([H])([H])C([H])([H])[C@@]([H])(N([H])c2nc(N([H])C([H])([H])C([H])([H])C([H])([H])C([H])([H])[H])nc([H])c2-c2nc([H])c(C([H])([H])[H])s2)C([H])([H])C1([H])[H]


 28 30  0  0  0  0  0  0  0  0999 V2000
    4.2599    1.3005   20.2652 C   0  0  0  0  0  0  0  0  0  0  0  0
    3.5444    0.6393   19.3408 N   0  0  0  0  0  0  0  0  0  0  0  0
    3.4083    1.1125   18.0971 C   0  0  0  0  0  0  0  0  0  0  0  0
    4.0359    2.3200   17.7885 C   0  0  0  0  0  0  0  0  0  0  0  0
    4.7521    2.9793   18.7178 C   0  0  0  0  0  0  0  0  0  0  0  0
    4.8576    2.4490   19.9735 N   0  0  0  0  0  0  0  0  0  0  0  0
    3.8278    2.7630   16.3867 C   0  0  0  0  0  0  0  0  0  0  0  0
    4.1333    3.9670   15.8952 N   0  0  0  0  0  0  0  0  0  0  0  0
    3.9105    4.2467   14.6622 C   0  0  0  0  0  0  0  0  0  0  0  0
    3.3519    3.2734   13.8722 C   0  0  0  0  0  0  0  0  0  0  0  0
    2.9967    3.3519   12.4126 C   0  0  0  0  0  0  0  0  0  0  0  0
    3.1920    2.0108   14.9992 S   0  0  0  0  0  0  0  0  0  0  0  0
    4.3423    0.7059   21.5676 N   0  0  0  0  0  0  0  0  0  0  0  0
    4.9379   -0.1653   21.6978 H   0  0  0  0  0  0  0  0  0  0  0  0
    3.6697    1.2096   22.7229 C   0  0  0  0  0  0  0  0  0  0  0  0
    4.5592    1.8619   23.7376 C   0  0  0  0  0  0  0  0  0  0  0  0
    3.5271    4.1057   23.3330 C   0  0  0  0  0  0  0  0  0  0  0  0
    4.8131    3.3189   23.4089 C   0  0  0  0  0  0  0  0  0  0  0  0
    5.3927    4.1943   18.4339 N   0  0  0  0  0  0  0  0  0  0  0  0
    5.9003    4.4127   17.6001 H   0  0  0  0  0  0  0  0  0  0  0  0
    5.3227    5.2580   19.4440 C   0  0  0  0  0  0  0  0  0  0  0  0
    6.1421    6.4502   19.0595 C   0  0  0  0  0  0  0  0  0  0  0  0
    5.4338    7.7598   19.2736 C   0  0  0  0  0  0  0  0  0  0  0  0
    4.0499    7.8030   18.7343 C   0  0  0  0  0  0  0  0  0  0  0  0
    3.3110    8.7044   19.5281 O   0  0  0  0  0  0  0  0  0  0  0  0
    3.3261    6.4863   18.7815 C   0  0  0  0  0  0  0  0  0  0  0  0
    3.9167    5.5847   19.8299 C   0  0  0  0  0  0  0  0  0  0  0  0
    3.2703    8.3856   20.4697 H   0  0  0  0  0  0  0  0  0  0  0  0
 17 18  1  0  0  0
 18 16  1  0  0  0
 16 15  1  0  0  0
 15 13  1  0  0  0
 13  1  1  0  0  0
  1  2  2  0  0  0
  2  3  1  0  0  0
  3  4  2  0  0  0
  4  7  1  0  0  0
  7  8  2  0  0  0
  8  9  1  0  0  0
  9 10  2  0  0  0
 10 11  1  0  0  0
 10 12  1  0  0  0
  4  5  1  0  0  0
  5 19  1  0  0  0
 19 21  1  0  0  0
 21 22  1  0  0  0
 22 23  1  0  0  0
 23 24  1  0  0  0
 24 25  1  0  0  0
 24 26  1  0  0  0
 26 27  1  0  0  0
  5  6  2  0  0  0
  6  1  1  0  0  0
 12  7  1  0  0  0
 27 21  1  0  0  0
 13 14  1  0  0  0
 19 20  1  0  0  0
 25 28  1  0  0  0
M  END
> <minimizedAffinity>
-7.58338

> <CNNscore>
0.4385026097

> <CNNaffinity>
6.4556055069

> <CNN_VS>
2.8307998180

> <CNNaffinity_variance>
0.3213575482

$$$$
[H]O[C@]1([H])C([H])([H])C([H])([H])[C@@]([H])(N([H])c2nc(N([H])C([H])([H])C([H])([H])C([H])([H])C([H])([H])[H])nc([H])c2-c2nc([H])c(C([H])([H])[H])s2)C([H])([H])C1([H])[H]


 28 30  0  0  0  0  0  0  0  0999 V2000
    4.1534    2.0100   17.6847 C   0  0  0  0  0  0  0  0  0  0  0  0
    3.4501    1.0595   17.0477 N   0  0  0  0  0  0  0  0  0  0  0  0
    2.9774    1.2549   15.8118 C   0  0  0  0  0  0  0  0  0  0  0  0
    3.2388    2.4825   15.2020 C   0  0  0  0  0  0  0  0  0  0  0  0
    3.9439    3.4322   15.8440 C   0  0  0  0  0  0  0  0  0  0  0  0
    4.4030    3.1781   17.1064 N   0  0  0  0  0  0  0  0  0  0  0  0
    2.6745    2.6050   13.8341 C   0  0  0  0  0  0  0  0  0  0  0  0
    3.2438    3.2459   12.8096 N   0  0  0  0  0  0  0  0  0  0  0  0
    2.6671    3.2909   11.6635 C   0  0  0  0  0  0  0  0  0  0  0  0
    1.4545    2.6626   11.5280 C   0  0  0  0  0  0  0  0  0  0  0  0
    0.5867    2.5720   10.3027 C   0  0  0  0  0  0  0  0  0  0  0  0
    1.2450    2.0473   13.0989 S   0  0  0  0  0  0  0  0  0  0  0  0
    4.6141    1.6983   19.0066 N   0  0  0  0  0  0  0  0  0  0  0  0
    5.5717    2.0451   19.3119 H   0  0  0  0  0  0  0  0  0  0  0  0
    3.8647    0.9419   19.9592 C   0  0  0  0  0  0  0  0  0  0  0  0
    4.6307    0.5250   21.1781 C   0  0  0  0  0  0  0  0  0  0  0  0
    7.1019    0.1371   21.2581 C   0  0  0  0  0  0  0  0  0  0  0  0
    6.0010    1.1694   21.2288 C   0  0  0  0  0  0  0  0  0  0  0  0
    4.2207    4.6742   15.2541 N   0  0  0  0  0  0  0  0  0  0  0  0
    4.8884    4.8474   14.5298 H   0  0  0  0  0  0  0  0  0  0  0  0
    3.4694    5.8421   15.7319 C   0  0  0  0  0  0  0  0  0  0  0  0
    4.3537    7.0329   15.9330 C   0  0  0  0  0  0  0  0  0  0  0  0
    3.7777    8.3084   15.3816 C   0  0  0  0  0  0  0  0  0  0  0  0
    3.2555    8.1955   13.9951 C   0  0  0  0  0  0  0  0  0  0  0  0
    2.2111    9.1326   13.8554 O   0  0  0  0  0  0  0  0  0  0  0  0
    2.6803    6.8482   13.6584 C   0  0  0  0  0  0  0  0  0  0  0  0
    2.2573    6.1173   14.9025 C   0  0  0  0  0  0  0  0  0  0  0  0
    1.4706    8.9245   14.4867 H   0  0  0  0  0  0  0  0  0  0  0  0
 17 18  1  0  0  0
 18 16  1  0  0  0
 16 15  1  0  0  0
 15 13  1  0  0  0
 13  1  1  0  0  0
  1  2  2  0  0  0
  2  3  1  0  0  0
  3  4  2  0  0  0
  4  7  1  0  0  0
  7  8  2  0  0  0
  8  9  1  0  0  0
  9 10  2  0  0  0
 10 11  1  0  0  0
 10 12  1  0  0  0
  4  5  1  0  0  0
  5 19  1  0  0  0
 19 21  1  0  0  0
 21 22  1  0  0  0
 22 23  1  0  0  0
 23 24  1  0  0  0
 24 25  1  0  0  0
 24 26  1  0  0  0
 26 27  1  0  0  0
  5  6  2  0  0  0
  6  1  1  0  0  0
 12  7  1  0  0  0
 27 21  1  0  0  0
 13 14  1  0  0  0
 19 20  1  0  0  0
 25 28  1  0  0  0
M  END
> <minimizedAffinity>
-6.41067

> <CNNscore>
0.3760092258

> <CNNaffinity>
5.9913949966

> <CNN_VS>
2.2528197765

> <CNNaffinity_variance>
0.3360452950

$$$$
[H]O[C@]1([H])C([H])([H])C([H])([H])[C@@]([H])(N([H])c2nc(N([H])C([H])([H])C([H])([H])C([H])([H])C([H])([H])[H])nc([H])c2-c2nc([H])c(C([H])([H])[H])s2)C([H])([H])C1([H])[H]


 28 30  0  0  0  0  0  0  0  0999 V2000
    4.1543    2.8700   16.8259 C   0  0  0  0  0  0  0  0  0  0  0  0
    3.8915    1.7617   17.5376 N   0  0  0  0  0  0  0  0  0  0  0  0
    4.1330    1.7057   18.8520 C   0  0  0  0  0  0  0  0  0  0  0  0
    4.6687    2.8398   19.4637 C   0  0  0  0  0  0  0  0  0  0  0  0
    4.9304    3.9483   18.7468 C   0  0  0  0  0  0  0  0  0  0  0  0
    4.6637    3.9495   17.4059 N   0  0  0  0  0  0  0  0  0  0  0  0
    4.9014    2.6815   20.9216 C   0  0  0  0  0  0  0  0  0  0  0  0
    4.2048    3.2789   21.8924 N   0  0  0  0  0  0  0  0  0  0  0  0
    4.4911    3.0713   23.1266 C   0  0  0  0  0  0  0  0  0  0  0  0
    5.5296    2.2207   23.4121 C   0  0  0  0  0  0  0  0  0  0  0  0
    6.0562    1.8178   24.7623 C   0  0  0  0  0  0  0  0  0  0  0  0
    6.0152    1.7837   21.8426 S   0  0  0  0  0  0  0  0  0  0  0  0
    3.8582    2.8243   15.4234 N   0  0  0  0  0  0  0  0  0  0  0  0
    4.1652    3.6344   14.8069 H   0  0  0  0  0  0  0  0  0  0  0  0
    3.1683    1.7489   14.7843 C   0  0  0  0  0  0  0  0  0  0  0  0
    1.8937    2.1357   14.0973 C   0  0  0  0  0  0  0  0  0  0  0  0
    1.2878    3.9507   12.4840 C   0  0  0  0  0  0  0  0  0  0  0  0
    2.1516    2.7376   12.7311 C   0  0  0  0  0  0  0  0  0  0  0  0
    5.4687    5.1013   19.3368 N   0  0  0  0  0  0  0  0  0  0  0  0
    6.4337    5.3640   19.3450 H   0  0  0  0  0  0  0  0  0  0  0  0
    4.5436    6.0215   20.0108 C   0  0  0  0  0  0  0  0  0  0  0  0
    5.2690    7.0840   20.7759 C   0  0  0  0  0  0  0  0  0  0  0  0
    4.7005    8.4622   20.5754 C   0  0  0  0  0  0  0  0  0  0  0  0
    4.4608    8.8252   19.1547 C   0  0  0  0  0  0  0  0  0  0  0  0
    3.3853    9.7366   19.1232 O   0  0  0  0  0  0  0  0  0  0  0  0
    4.0768    7.6672   18.2765 C   0  0  0  0  0  0  0  0  0  0  0  0
    3.4908    6.5462   19.0895 C   0  0  0  0  0  0  0  0  0  0  0  0
    2.5596    9.3123   19.4815 H   0  0  0  0  0  0  0  0  0  0  0  0
 17 18  1  0  0  0
 18 16  1  0  0  0
 16 15  1  0  0  0
 15 13  1  0  0  0
 13  1  1  0  0  0
  1  2  2  0  0  0
  2  3  1  0  0  0
  3  4  2  0  0  0
  4  7  1  0  0  0
  7  8  2  0  0  0
  8  9  1  0  0  0
  9 10  2  0  0  0
 10 11  1  0  0  0
 10 12  1  0  0  0
  4  5  1  0  0  0
  5 19  1  0  0  0
 19 21  1  0  0  0
 21 22  1  0  0  0
 22 23  1  0  0  0
 23 24  1  0  0  0
 24 25  1  0  0  0
 24 26  1  0  0  0
 26 27  1  0  0  0
  5  6  2  0  0  0
  6  1  1  0  0  0
 12  7  1  0  0  0
 27 21  1  0  0  0
 13 14  1  0  0  0
 19 20  1  0  0  0
 25 28  1  0  0  0
M  END
> <minimizedAffinity>
-6.76067

> <CNNscore>
0.3382962346

> <CNNaffinity>
6.2517256737

> <CNN_VS>
2.1149351597

> <CNNaffinity_variance>
0.2379422188

$$$$
[H]O[C@]1([H])C([H])([H])C([H])([H])[C@@]([H])(N([H])c2nc(N([H])C([H])([H])C([H])([H])C([H])([H])C([H])([H])[H])nc([H])c2-c2nc([H])c(C([H])([H])[H])s2)C([H])([H])C1([H])[H]


 28 30  0  0  0  0  0  0  0  0999 V2000
    3.1792    2.2263   16.9206 C   0  0  0  0  0  0  0  0  0  0  0  0
    2.7919    1.7525   15.7250 N   0  0  0  0  0  0  0  0  0  0  0  0
    2.3757    2.5724   14.7536 C   0  0  0  0  0  0  0  0  0  0  0  0
    2.3564    3.9416   15.0221 C   0  0  0  0  0  0  0  0  0  0  0  0
    2.7454    4.4121   16.2214 C   0  0  0  0  0  0  0  0  0  0  0  0
    3.1616    3.5281   17.1777 N   0  0  0  0  0  0  0  0  0  0  0  0
    1.8803    4.7691   13.8849 C   0  0  0  0  0  0  0  0  0  0  0  0
    2.4585    5.8871   13.4374 N   0  0  0  0  0  0  0  0  0  0  0  0
    1.9616    6.5282   12.4423 C   0  0  0  0  0  0  0  0  0  0  0  0
    0.8244    6.0291   11.8583 C   0  0  0  0  0  0  0  0  0  0  0  0
    0.0564    6.5886   10.6922 C   0  0  0  0  0  0  0  0  0  0  0  0
    0.5630    4.6482   12.8148 S   0  0  0  0  0  0  0  0  0  0  0  0
    3.6075    1.2617   17.8916 N   0  0  0  0  0  0  0  0  0  0  0  0
    3.1832    0.2870   17.8691 H   0  0  0  0  0  0  0  0  0  0  0  0
    4.5809    1.5216   18.9045 C   0  0  0  0  0  0  0  0  0  0  0  0
    4.0169    1.8964   20.2414 C   0  0  0  0  0  0  0  0  0  0  0  0
    3.4582    1.0182   22.5175 C   0  0  0  0  0  0  0  0  0  0  0  0
    3.6523    0.6750   21.0604 C   0  0  0  0  0  0  0  0  0  0  0  0
    2.7358    5.7832   16.5171 N   0  0  0  0  0  0  0  0  0  0  0  0
    1.9242    6.3585   16.6203 H   0  0  0  0  0  0  0  0  0  0  0  0
    4.0297    6.4547   16.6952 C   0  0  0  0  0  0  0  0  0  0  0  0
    4.0851    7.7643   15.9726 C   0  0  0  0  0  0  0  0  0  0  0  0
    4.6763    8.8780   16.7928 C   0  0  0  0  0  0  0  0  0  0  0  0
    4.1183    8.9907   18.1653 C   0  0  0  0  0  0  0  0  0  0  0  0
    5.1256    9.5295   18.9921 O   0  0  0  0  0  0  0  0  0  0  0  0
    3.7081    7.6798   18.7760 C   0  0  0  0  0  0  0  0  0  0  0  0
    4.4369    6.5338   18.1306 C   0  0  0  0  0  0  0  0  0  0  0  0
    5.9123    8.9211   19.0230 H   0  0  0  0  0  0  0  0  0  0  0  0
 17 18  1  0  0  0
 18 16  1  0  0  0
 16 15  1  0  0  0
 15 13  1  0  0  0
 13  1  1  0  0  0
  1  2  2  0  0  0
  2  3  1  0  0  0
  3  4  2  0  0  0
  4  7  1  0  0  0
  7  8  2  0  0  0
  8  9  1  0  0  0
  9 10  2  0  0  0
 10 11  1  0  0  0
 10 12  1  0  0  0
  4  5  1  0  0  0
  5 19  1  0  0  0
 19 21  1  0  0  0
 21 22  1  0  0  0
 22 23  1  0  0  0
 23 24  1  0  0  0
 24 25  1  0  0  0
 24 26  1  0  0  0
 26 27  1  0  0  0
  5  6  2  0  0  0
  6  1  1  0  0  0
 12  7  1  0  0  0
 27 21  1  0  0  0
 13 14  1  0  0  0
 19 20  1  0  0  0
 25 28  1  0  0  0
M  END
> <minimizedAffinity>
-6.04614

> <CNNscore>
0.3368845284

> <CNNaffinity>
5.9823632240

> <CNN_VS>
2.0153656006

> <CNNaffinity_variance>
0.5476016998

$$$$
[H]c1nn(-c2nc([H])c(C([H])([H])N([H])C(=O)c3c([H])nc4nc3N([H])C([H])([H])C([H])([H])C([H])([H])C([H])([H])[C@]([H])(N([H])[H])C(=O)N([H])C([H])([H])C([H])([H])C([H])([H])C([H])([H])C([H])([H])C([H])([H])N4[H])c([H])c2[H])c([H])c1[H]


 44 47  0  0  0  0  0  0  0  0999 V2000
    3.7899    9.1349   17.5089 N   0  0  0  0  0  0  0  0  0  0  0  0
    4.7570    8.8902   16.4718 C   0  0  0  0  0  0  0  0  0  0  0  0
    5.2056    7.4219   16.4326 C   0  0  0  0  0  0  0  0  0  0  0  0
    5.6550    6.9402   17.7777 C   0  0  0  0  0  0  0  0  0  0  0  0
    5.2625    5.5320   18.0543 C   0  0  0  0  0  0  0  0  0  0  0  0
    5.6449    4.6032   16.9356 C   0  0  0  0  0  0  0  0  0  0  0  0
    5.6188    3.2428   17.5102 N   0  0  0  0  0  0  0  0  0  0  0  0
    4.4915    2.4099   17.3015 C   0  0  0  0  0  0  0  0  0  0  0  0
    3.8799    2.2385   16.1376 N   0  0  0  0  0  0  0  0  0  0  0  0
    2.8178    1.4939   15.9495 C   0  0  0  0  0  0  0  0  0  0  0  0
    2.1383    1.2918   14.6986 N   0  0  0  0  0  0  0  0  0  0  0  0
    1.5603    2.3375   13.8887 C   0  0  0  0  0  0  0  0  0  0  0  0
    2.5338    3.4061   13.4644 C   0  0  0  0  0  0  0  0  0  0  0  0
    2.2246    4.7595   14.0786 C   0  0  0  0  0  0  0  0  0  0  0  0
    3.0203    5.7864   13.3173 C   0  0  0  0  0  0  0  0  0  0  0  0
    2.2124    7.0601   13.0625 C   0  0  0  0  0  0  0  0  0  0  0  0
    2.3749    7.9318   14.2999 C   0  0  0  0  0  0  0  0  0  0  0  0
    3.6194    8.6699   14.1670 N   0  0  0  0  0  0  0  0  0  0  0  0
    4.3269    9.3522   15.1433 C   0  0  0  0  0  0  0  0  0  0  0  0
    4.6562   10.5658   14.8537 O   0  0  0  0  0  0  0  0  0  0  0  0
    2.3006    0.8412   17.0395 N   0  0  0  0  0  0  0  0  0  0  0  0
    2.8530    0.9608   18.2502 C   0  0  0  0  0  0  0  0  0  0  0  0
    3.9658    1.7493   18.4168 C   0  0  0  0  0  0  0  0  0  0  0  0
    3.2636    8.2715   17.7286 H   0  0  0  0  0  0  0  0  0  0  0  0
    4.2084    9.4627   18.4159 H   0  0  0  0  0  0  0  0  0  0  0  0
    6.4246    2.9452   18.0678 H   0  0  0  0  0  0  0  0  0  0  0  0
    2.0445    0.3011   14.3305 H   0  0  0  0  0  0  0  0  0  0  0  0
    4.0139    8.6738   13.1613 H   0  0  0  0  0  0  0  0  0  0  0  0
    4.6368    1.8910   19.7267 C   0  0  0  0  0  0  0  0  0  0  0  0
    5.4401    1.0896   20.1988 O   0  0  0  0  0  0  0  0  0  0  0  0
    4.2993    3.0832   20.4538 N   0  0  0  0  0  0  0  0  0  0  0  0
    5.3889    2.7934   21.2916 H   0  0  0  0  0  0  0  0  0  0  0  0
    4.0025    4.1373   21.0991 C   0  0  0  0  0  0  0  0  0  0  0  0
    5.1357    5.0324   21.5079 C   0  0  0  0  0  0  0  0  0  0  0  0
    6.3718    4.6633   21.8725 C   0  0  0  0  0  0  0  0  0  0  0  0
    7.3175    5.5965   22.3167 C   0  0  0  0  0  0  0  0  0  0  0  0
    6.9838    6.9558   22.3873 C   0  0  0  0  0  0  0  0  0  0  0  0
    5.7504    7.2510   22.0129 N   0  0  0  0  0  0  0  0  0  0  0  0
    4.8100    6.4070   21.5848 C   0  0  0  0  0  0  0  0  0  0  0  0
    7.9162    7.9136   22.8628 N   0  0  0  0  0  0  0  0  0  0  0  0
    8.4687    8.9746   22.3081 C   0  0  0  0  0  0  0  0  0  0  0  0
    9.3425    9.5750   23.2007 C   0  0  0  0  0  0  0  0  0  0  0  0
    9.2916    8.8291   24.3211 C   0  0  0  0  0  0  0  0  0  0  0  0
    8.4204    7.8131   24.1340 N   0  0  0  0  0  0  0  0  0  0  0  0
  1  2  1  0  0  0
  2  3  1  0  0  0
  3  4  1  0  0  0
  4  5  1  0  0  0
  5  6  1  0  0  0
  6  7  1  0  0  0
  7  8  1  0  0  0
  8  9  1  0  0  0
  9 10  2  0  0  0
 10 11  1  0  0  0
 11 12  1  0  0  0
 12 13  1  0  0  0
 13 14  1  0  0  0
 14 15  1  0  0  0
 15 16  1  0  0  0
 16 17  1  0  0  0
 17 18  1  0  0  0
 18 19  1  0  0  0
 19 20  2  0  0  0
 10 21  1  0  0  0
 21 22  2  0  0  0
 22 23  1  0  0  0
 23 29  1  0  0  0
 29 30  2  0  0  0
 29 31  1  0  0  0
 31 33  1  0  0  0
 33 34  1  0  0  0
 34 35  2  0  0  0
 35 36  1  0  0  0
 36 37  2  0  0  0
 37 38  1  0  0  0
 38 39  2  0  0  0
 37 40  1  0  0  0
 40 41  1  0  0  0
 41 42  2  0  0  0
 42 43  1  0  0  0
 43 44  2  0  0  0
 19  2  1  0  0  0
 39 34  1  0  0  0
 44 40  1  0  0  0
 23  8  2  0  0  0
  1 24  1  0  0  0
  1 25  1  0  0  0
  7 26  1  0  0  0
 11 27  1  0  0  0
 18 28  1  0  0  0
 31 32  1  0  0  0
M  END
> <minimizedAffinity>
-9.47574

> <CNNscore>
0.4145050943

> <CNNaffinity>
6.9674415588

> <CNN_VS>
2.8880400658

> <CNNaffinity_variance>
0.4860911369

$$$$
[H]c1nn(-c2nc([H])c(C([H])([H])N([H])C(=O)c3c([H])nc4nc3N([H])C([H])([H])C([H])([H])C([H])([H])C([H])([H])[C@]([H])(N([H])[H])C(=O)N([H])C([H])([H])C([H])([H])C([H])([H])C([H])([H])C([H])([H])C([H])([H])N4[H])c([H])c2[H])c([H])c1[H]


 44 47  0  0  0  0  0  0  0  0999 V2000
    4.0156    2.5490   17.8170 N   0  0  0  0  0  0  0  0  0  0  0  0
    2.6580    2.7447   17.3820 C   0  0  0  0  0  0  0  0  0  0  0  0
    2.4553    4.1122   16.7128 C   0  0  0  0  0  0  0  0  0  0  0  0
    2.9634    5.2320   17.5680 C   0  0  0  0  0  0  0  0  0  0  0  0
    3.6085    6.3190   16.7833 C   0  0  0  0  0  0  0  0  0  0  0  0
    2.7468    6.7888   15.6445 C   0  0  0  0  0  0  0  0  0  0  0  0
    3.2747    8.1120   15.2546 N   0  0  0  0  0  0  0  0  0  0  0  0
    4.1418    8.2254   14.1394 C   0  0  0  0  0  0  0  0  0  0  0  0
    3.9490    7.6393   12.9658 N   0  0  0  0  0  0  0  0  0  0  0  0
    4.7662    7.7169   11.9440 C   0  0  0  0  0  0  0  0  0  0  0  0
    4.5787    7.0922   10.6627 N   0  0  0  0  0  0  0  0  0  0  0  0
    4.4255    5.6735   10.4446 C   0  0  0  0  0  0  0  0  0  0  0  0
    3.2726    5.0505   11.1877 C   0  0  0  0  0  0  0  0  0  0  0  0
    3.7234    4.0653   12.2513 C   0  0  0  0  0  0  0  0  0  0  0  0
    2.5142    3.2658   12.6587 C   0  0  0  0  0  0  0  0  0  0  0  0
    2.8484    1.7861   12.8552 C   0  0  0  0  0  0  0  0  0  0  0  0
    3.3568    1.6417   14.2828 C   0  0  0  0  0  0  0  0  0  0  0  0
    2.2037    1.5187   15.1581 N   0  0  0  0  0  0  0  0  0  0  0  0
    2.1470    1.6557   16.5356 C   0  0  0  0  0  0  0  0  0  0  0  0
    1.5674    0.6947   17.1723 O   0  0  0  0  0  0  0  0  0  0  0  0
    5.9069    8.4625   12.1004 N   0  0  0  0  0  0  0  0  0  0  0  0
    6.1809    9.0841   13.2510 C   0  0  0  0  0  0  0  0  0  0  0  0
    5.3054    8.9838   14.3052 C   0  0  0  0  0  0  0  0  0  0  0  0
    4.6673    3.1140   17.2453 H   0  0  0  0  0  0  0  0  0  0  0  0
    4.1886    2.8233   18.8170 H   0  0  0  0  0  0  0  0  0  0  0  0
    3.0067    8.9193   15.8248 H   0  0  0  0  0  0  0  0  0  0  0  0
    4.5511    7.7097    9.8003 H   0  0  0  0  0  0  0  0  0  0  0  0
    1.2883    1.2815   14.6358 H   0  0  0  0  0  0  0  0  0  0  0  0
    5.5422    9.6776   15.5892 C   0  0  0  0  0  0  0  0  0  0  0  0
    4.9924   10.7190   15.9409 O   0  0  0  0  0  0  0  0  0  0  0  0
    6.4847    9.0327   16.4609 N   0  0  0  0  0  0  0  0  0  0  0  0
    6.0267    9.8924   17.4728 H   0  0  0  0  0  0  0  0  0  0  0  0
    7.3180    8.4639   17.2340 C   0  0  0  0  0  0  0  0  0  0  0  0
    6.7697    7.4889   18.2345 C   0  0  0  0  0  0  0  0  0  0  0  0
    6.8980    6.1545   18.2231 C   0  0  0  0  0  0  0  0  0  0  0  0
    6.2621    5.3460   19.1742 C   0  0  0  0  0  0  0  0  0  0  0  0
    5.4685    5.9271   20.1724 C   0  0  0  0  0  0  0  0  0  0  0  0
    5.3852    7.2459   20.1263 N   0  0  0  0  0  0  0  0  0  0  0  0
    5.9650    8.0638   19.2461 C   0  0  0  0  0  0  0  0  0  0  0  0
    4.7913    5.1251   21.1269 N   0  0  0  0  0  0  0  0  0  0  0  0
    4.2662    5.3919   22.3067 C   0  0  0  0  0  0  0  0  0  0  0  0
    3.7267    4.2399   22.8567 C   0  0  0  0  0  0  0  0  0  0  0  0
    3.9482    3.2646   21.9543 C   0  0  0  0  0  0  0  0  0  0  0  0
    4.5926    3.7894   20.8887 N   0  0  0  0  0  0  0  0  0  0  0  0
  1  2  1  0  0  0
  2  3  1  0  0  0
  3  4  1  0  0  0
  4  5  1  0  0  0
  5  6  1  0  0  0
  6  7  1  0  0  0
  7  8  1  0  0  0
  8  9  1  0  0  0
  9 10  2  0  0  0
 10 11  1  0  0  0
 11 12  1  0  0  0
 12 13  1  0  0  0
 13 14  1  0  0  0
 14 15  1  0  0  0
 15 16  1  0  0  0
 16 17  1  0  0  0
 17 18  1  0  0  0
 18 19  1  0  0  0
 19 20  2  0  0  0
 10 21  1  0  0  0
 21 22  2  0  0  0
 22 23  1  0  0  0
 23 29  1  0  0  0
 29 30  2  0  0  0
 29 31  1  0  0  0
 31 33  1  0  0  0
 33 34  1  0  0  0
 34 35  2  0  0  0
 35 36  1  0  0  0
 36 37  2  0  0  0
 37 38  1  0  0  0
 38 39  2  0  0  0
 37 40  1  0  0  0
 40 41  1  0  0  0
 41 42  2  0  0  0
 42 43  1  0  0  0
 43 44  2  0  0  0
 19  2  1  0  0  0
 39 34  1  0  0  0
 44 40  1  0  0  0
 23  8  2  0  0  0
  1 24  1  0  0  0
  1 25  1  0  0  0
  7 26  1  0  0  0
 11 27  1  0  0  0
 18 28  1  0  0  0
 31 32  1  0  0  0
M  END
> <minimizedAffinity>
-7.54639

> <CNNscore>
0.3418743610

> <CNNaffinity>
6.4103784561

> <CNN_VS>
2.1915440559

> <CNNaffinity_variance>
1.1686036587

$$$$
[H]c1nn(-c2nc([H])c(C([H])([H])N([H])C(=O)c3c([H])nc4nc3N([H])C([H])([H])C([H])([H])C([H])([H])C([H])([H])[C@]([H])(N([H])[H])C(=O)N([H])C([H])([H])C([H])([H])C([H])([H])C([H])([H])C([H])([H])C([H])([H])N4[H])c([H])c2[H])c([H])c1[H]


 44 47  0  0  0  0  0  0  0  0999 V2000
    4.9661    2.6392   17.6927 N   0  0  0  0  0  0  0  0  0  0  0  0
    3.5614    2.9158   17.5474 C   0  0  0  0  0  0  0  0  0  0  0  0
    3.2138    4.3633   17.9251 C   0  0  0  0  0  0  0  0  0  0  0  0
    3.7460    4.7300   19.2763 C   0  0  0  0  0  0  0  0  0  0  0  0
    4.2436    6.1303   19.3471 C   0  0  0  0  0  0  0  0  0  0  0  0
    3.2420    7.1188   18.8180 C   0  0  0  0  0  0  0  0  0  0  0  0
    3.6516    8.4353   19.3477 N   0  0  0  0  0  0  0  0  0  0  0  0
    4.3888    9.3271   18.5294 C   0  0  0  0  0  0  0  0  0  0  0  0
    4.1063    9.6053   17.2642 N   0  0  0  0  0  0  0  0  0  0  0  0
    4.8058   10.4048   16.4965 C   0  0  0  0  0  0  0  0  0  0  0  0
    4.5195   10.7226   15.1239 N   0  0  0  0  0  0  0  0  0  0  0  0
    4.4233    9.7615   14.0512 C   0  0  0  0  0  0  0  0  0  0  0  0
    3.3914    8.6858   14.2701 C   0  0  0  0  0  0  0  0  0  0  0  0
    4.0056    7.3066   14.4286 C   0  0  0  0  0  0  0  0  0  0  0  0
    2.8924    6.3036   14.2799 C   0  0  0  0  0  0  0  0  0  0  0  0
    3.3271    5.0857   13.4628 C   0  0  0  0  0  0  0  0  0  0  0  0
    3.9903    4.1230   14.4380 C   0  0  0  0  0  0  0  0  0  0  0  0
    2.9443    3.3450   15.0796 N   0  0  0  0  0  0  0  0  0  0  0  0
    3.0254    2.5667   16.2229 C   0  0  0  0  0  0  0  0  0  0  0  0
    2.5704    1.3640   16.1171 O   0  0  0  0  0  0  0  0  0  0  0  0
    5.9136   11.0002   17.0444 N   0  0  0  0  0  0  0  0  0  0  0  0
    6.2722   10.7728   18.3113 C   0  0  0  0  0  0  0  0  0  0  0  0
    5.5195    9.9289   19.0917 C   0  0  0  0  0  0  0  0  0  0  0  0
    5.5216    3.5062   17.5900 H   0  0  0  0  0  0  0  0  0  0  0  0
    5.2279    2.2312   18.6256 H   0  0  0  0  0  0  0  0  0  0  0  0
    3.4007    8.6592   20.3149 H   0  0  0  0  0  0  0  0  0  0  0  0
    4.3670   11.7398   14.8634 H   0  0  0  0  0  0  0  0  0  0  0  0
    1.9936    3.3954   14.5691 H   0  0  0  0  0  0  0  0  0  0  0  0
    5.8513    9.6675   20.5086 C   0  0  0  0  0  0  0  0  0  0  0  0
    5.3884   10.2820   21.4671 O   0  0  0  0  0  0  0  0  0  0  0  0
    6.7784    8.5915   20.7247 N   0  0  0  0  0  0  0  0  0  0  0  0
    6.4189    8.6509   22.0813 H   0  0  0  0  0  0  0  0  0  0  0  0
    7.5984    7.6399   20.9186 C   0  0  0  0  0  0  0  0  0  0  0  0
    7.0392    6.3493   21.4420 C   0  0  0  0  0  0  0  0  0  0  0  0
    7.4870    5.1102   21.1947 C   0  0  0  0  0  0  0  0  0  0  0  0
    6.8203    3.9767   21.6779 C   0  0  0  0  0  0  0  0  0  0  0  0
    5.6549    4.1200   22.4429 C   0  0  0  0  0  0  0  0  0  0  0  0
    5.2691    5.3677   22.6497 N   0  0  0  0  0  0  0  0  0  0  0  0
    5.8611    6.4812   22.2141 C   0  0  0  0  0  0  0  0  0  0  0  0
    4.9474    2.9851   22.9166 N   0  0  0  0  0  0  0  0  0  0  0  0
    4.9625    2.3381   24.0654 C   0  0  0  0  0  0  0  0  0  0  0  0
    4.0848    1.2666   24.0174 C   0  0  0  0  0  0  0  0  0  0  0  0
    3.5372    1.2964   22.7871 C   0  0  0  0  0  0  0  0  0  0  0  0
    4.0488    2.3438   22.1032 N   0  0  0  0  0  0  0  0  0  0  0  0
  1  2  1  0  0  0
  2  3  1  0  0  0
  3  4  1  0  0  0
  4  5  1  0  0  0
  5  6  1  0  0  0
  6  7  1  0  0  0
  7  8  1  0  0  0
  8  9  1  0  0  0
  9 10  2  0  0  0
 10 11  1  0  0  0
 11 12  1  0  0  0
 12 13  1  0  0  0
 13 14  1  0  0  0
 14 15  1  0  0  0
 15 16  1  0  0  0
 16 17  1  0  0  0
 17 18  1  0  0  0
 18 19  1  0  0  0
 19 20  2  0  0  0
 10 21  1  0  0  0
 21 22  2  0  0  0
 22 23  1  0  0  0
 23 29  1  0  0  0
 29 30  2  0  0  0
 29 31  1  0  0  0
 31 33  1  0  0  0
 33 34  1  0  0  0
 34 35  2  0  0  0
 35 36  1  0  0  0
 36 37  2  0  0  0
 37 38  1  0  0  0
 38 39  2  0  0  0
 37 40  1  0  0  0
 40 41  1  0  0  0
 41 42  2  0  0  0
 42 43  1  0  0  0
 43 44  2  0  0  0
 19  2  1  0  0  0
 39 34  1  0  0  0
 44 40  1  0  0  0
 23  8  2  0  0  0
  1 24  1  0  0  0
  1 25  1  0  0  0
  7 26  1  0  0  0
 11 27  1  0  0  0
 18 28  1  0  0  0
 31 32  1  0  0  0
M  END
> <minimizedAffinity>
-8.66328

> <CNNscore>
0.3355768323

> <CNNaffinity>
6.4175200462

> <CNN_VS>
2.1535711288

> <CNNaffinity_variance>
0.8821948767

$$$$
[H]c1nn(-c2nc([H])c(C([H])([H])N([H])C(=O)c3c([H])nc4nc3N([H])C([H])([H])C([H])([H])C([H])([H])C([H])([H])[C@]([H])(N([H])[H])C(=O)N([H])C([H])([H])C([H])([H])C([H])([H])C([H])([H])C([H])([H])C([H])([H])N4[H])c([H])c2[H])c([H])c1[H]


 44 47  0  0  0  0  0  0  0  0999 V2000
    6.0650    3.3225   20.7170 N   0  0  0  0  0  0  0  0  0  0  0  0
    4.6336    3.2115   20.6186 C   0  0  0  0  0  0  0  0  0  0  0  0
    3.9783    4.5321   20.1881 C   0  0  0  0  0  0  0  0  0  0  0  0
    4.4191    5.6785   21.0452 C   0  0  0  0  0  0  0  0  0  0  0  0
    4.5984    6.9428   20.2816 C   0  0  0  0  0  0  0  0  0  0  0  0
    3.4042    7.2677   19.4280 C   0  0  0  0  0  0  0  0  0  0  0  0
    3.5166    8.7038   19.1019 N   0  0  0  0  0  0  0  0  0  0  0  0
    4.0398    9.1038   17.8471 C   0  0  0  0  0  0  0  0  0  0  0  0
    3.7019    8.5730   16.6800 N   0  0  0  0  0  0  0  0  0  0  0  0
    4.2086    8.9196   15.5221 C   0  0  0  0  0  0  0  0  0  0  0  0
    3.8580    8.3604   14.2448 N   0  0  0  0  0  0  0  0  0  0  0  0
    3.9731    6.9662   13.8885 C   0  0  0  0  0  0  0  0  0  0  0  0
    3.2018    6.0299   14.7817 C   0  0  0  0  0  0  0  0  0  0  0  0
    4.1030    5.1117   15.5876 C   0  0  0  0  0  0  0  0  0  0  0  0
    3.2359    4.0146   16.1462 C   0  0  0  0  0  0  0  0  0  0  0  0
    3.9255    2.6510   16.0764 C   0  0  0  0  0  0  0  0  0  0  0  0
    4.7843    2.5344   17.3279 C   0  0  0  0  0  0  0  0  0  0  0  0
    3.9347    2.0722   18.4121 N   0  0  0  0  0  0  0  0  0  0  0  0
    4.1854    2.0935   19.7745 C   0  0  0  0  0  0  0  0  0  0  0  0
    4.0043    0.9775   20.3965 O   0  0  0  0  0  0  0  0  0  0  0  0
    5.1599    9.9079   15.5172 N   0  0  0  0  0  0  0  0  0  0  0  0
    5.5611   10.4946   16.6486 C   0  0  0  0  0  0  0  0  0  0  0  0
    5.0122   10.1094   17.8479 C   0  0  0  0  0  0  0  0  0  0  0  0
    6.4173    4.0684   20.0922 H   0  0  0  0  0  0  0  0  0  0  0  0
    6.4108    3.5592   21.6812 H   0  0  0  0  0  0  0  0  0  0  0  0
    3.2239    9.3789   19.8141 H   0  0  0  0  0  0  0  0  0  0  0  0
    3.4864    9.0119   13.4943 H   0  0  0  0  0  0  0  0  0  0  0  0
    2.9953    1.6566   18.0777 H   0  0  0  0  0  0  0  0  0  0  0  0
    5.3949   10.7474   19.1257 C   0  0  0  0  0  0  0  0  0  0  0  0
    4.6066   11.2046   19.9504 O   0  0  0  0  0  0  0  0  0  0  0  0
    6.8082   10.7952   19.3790 N   0  0  0  0  0  0  0  0  0  0  0  0
    6.4858   11.1411   20.7016 H   0  0  0  0  0  0  0  0  0  0  0  0
    8.0582   10.8387   19.6056 C   0  0  0  0  0  0  0  0  0  0  0  0
    8.5515   10.1712   20.8559 C   0  0  0  0  0  0  0  0  0  0  0  0
    9.2866   10.7196   21.8338 C   0  0  0  0  0  0  0  0  0  0  0  0
    9.7579    9.9614   22.9134 C   0  0  0  0  0  0  0  0  0  0  0  0
    9.4632    8.5937   22.9933 C   0  0  0  0  0  0  0  0  0  0  0  0
    8.7346    8.1176   21.9978 N   0  0  0  0  0  0  0  0  0  0  0  0
    8.2617    8.7895   20.9467 C   0  0  0  0  0  0  0  0  0  0  0  0
    9.9557    7.8011   24.0619 N   0  0  0  0  0  0  0  0  0  0  0  0
    9.3628    7.1945   25.0716 C   0  0  0  0  0  0  0  0  0  0  0  0
   10.3062    6.5548   25.8600 C   0  0  0  0  0  0  0  0  0  0  0  0
   11.4965    6.8012   25.2797 C   0  0  0  0  0  0  0  0  0  0  0  0
   11.3001    7.5565   24.1764 N   0  0  0  0  0  0  0  0  0  0  0  0
  1  2  1  0  0  0
  2  3  1  0  0  0
  3  4  1  0  0  0
  4  5  1  0  0  0
  5  6  1  0  0  0
  6  7  1  0  0  0
  7  8  1  0  0  0
  8  9  1  0  0  0
  9 10  2  0  0  0
 10 11  1  0  0  0
 11 12  1  0  0  0
 12 13  1  0  0  0
 13 14  1  0  0  0
 14 15  1  0  0  0
 15 16  1  0  0  0
 16 17  1  0  0  0
 17 18  1  0  0  0
 18 19  1  0  0  0
 19 20  2  0  0  0
 10 21  1  0  0  0
 21 22  2  0  0  0
 22 23  1  0  0  0
 23 29  1  0  0  0
 29 30  2  0  0  0
 29 31  1  0  0  0
 31 33  1  0  0  0
 33 34  1  0  0  0
 34 35  2  0  0  0
 35 36  1  0  0  0
 36 37  2  0  0  0
 37 38  1  0  0  0
 38 39  2  0  0  0
 37 40  1  0  0  0
 40 41  1  0  0  0
 41 42  2  0  0  0
 42 43  1  0  0  0
 43 44  2  0  0  0
 19  2  1  0  0  0
 39 34  1  0  0  0
 44 40  1  0  0  0
 23  8  2  0  0  0
  1 24  1  0  0  0
  1 25  1  0  0  0
  7 26  1  0  0  0
 11 27  1  0  0  0
 18 28  1  0  0  0
 31 32  1  0  0  0
M  END
> <minimizedAffinity>
-8.32623

> <CNNscore>
0.2967812121

> <CNNaffinity>
6.2894701958

> <CNN_VS>
1.8665965796

> <CNNaffinity_variance>
0.8182570338

$$$$
[H]c1nn(-c2nc([H])c(C([H])([H])N([H])C(=O)c3c([H])nc4nc3N([H])C([H])([H])C([H])([H])C([H])([H])C([H])([H])[C@]([H])(N([H])[H])C(=O)N([H])C([H])([H])C([H])([H])C([H])([H])C([H])([H])C([H])([H])C([H])([H])N4[H])c([H])c2[H])c([H])c1[H]


 44 47  0  0  0  0  0  0  0  0999 V2000
    6.5181    9.1593   15.6596 N   0  0  0  0  0  0  0  0  0  0  0  0
    5.6186    9.7432   16.6190 C   0  0  0  0  0  0  0  0  0  0  0  0
    4.7174    8.6917   17.2831 C   0  0  0  0  0  0  0  0  0  0  0  0
    4.0193    7.8366   16.2709 C   0  0  0  0  0  0  0  0  0  0  0  0
    3.9013    6.4140   16.6906 C   0  0  0  0  0  0  0  0  0  0  0  0
    3.3338    6.2734   18.0757 C   0  0  0  0  0  0  0  0  0  0  0  0
    2.8610    4.8781   18.1812 N   0  0  0  0  0  0  0  0  0  0  0  0
    3.6655    3.9072   18.8281 C   0  0  0  0  0  0  0  0  0  0  0  0
    4.2857    4.0854   19.9864 N   0  0  0  0  0  0  0  0  0  0  0  0
    5.0561    3.2002   20.5701 C   0  0  0  0  0  0  0  0  0  0  0  0
    5.7376    3.3694   21.8247 N   0  0  0  0  0  0  0  0  0  0  0  0
    6.6955    4.4093   22.1162 C   0  0  0  0  0  0  0  0  0  0  0  0
    6.1682    5.8091   21.9372 C   0  0  0  0  0  0  0  0  0  0  0  0
    6.8505    6.5530   20.8033 C   0  0  0  0  0  0  0  0  0  0  0  0
    6.5061    8.0109   20.9564 C   0  0  0  0  0  0  0  0  0  0  0  0
    7.7068    8.9139   20.6686 C   0  0  0  0  0  0  0  0  0  0  0  0
    7.7328    9.1347   19.1626 C   0  0  0  0  0  0  0  0  0  0  0  0
    6.8168   10.2193   18.8535 N   0  0  0  0  0  0  0  0  0  0  0  0
    6.2907   10.5810   17.6239 C   0  0  0  0  0  0  0  0  0  0  0  0
    6.4052   11.8269   17.3085 O   0  0  0  0  0  0  0  0  0  0  0  0
    5.2329    1.9973   19.9349 N   0  0  0  0  0  0  0  0  0  0  0  0
    4.6473    1.7354   18.7628 C   0  0  0  0  0  0  0  0  0  0  0  0
    3.8456    2.6836   18.1746 C   0  0  0  0  0  0  0  0  0  0  0  0
    6.7101    8.1699   15.8939 H   0  0  0  0  0  0  0  0  0  0  0  0
    6.1533    9.1623   14.6736 H   0  0  0  0  0  0  0  0  0  0  0  0
    1.9569    4.6477   17.7591 H   0  0  0  0  0  0  0  0  0  0  0  0
    5.5322    2.6821   22.6065 H   0  0  0  0  0  0  0  0  0  0  0  0
    6.5346   10.8054   19.7160 H   0  0  0  0  0  0  0  0  0  0  0  0
    3.1470    2.4348   16.8953 C   0  0  0  0  0  0  0  0  0  0  0  0
    2.1287    1.7587   16.7668 O   0  0  0  0  0  0  0  0  0  0  0  0
    3.7380    3.0690   15.7497 N   0  0  0  0  0  0  0  0  0  0  0  0
    2.5551    2.7589   15.0586 H   0  0  0  0  0  0  0  0  0  0  0  0
    4.2587    3.6292   14.7345 C   0  0  0  0  0  0  0  0  0  0  0  0
    3.3234    4.1302   13.6732 C   0  0  0  0  0  0  0  0  0  0  0  0
    3.4699    5.2236   12.9114 C   0  0  0  0  0  0  0  0  0  0  0  0
    2.4772    5.6314   12.0109 C   0  0  0  0  0  0  0  0  0  0  0  0
    1.2942    4.8905   11.8864 C   0  0  0  0  0  0  0  0  0  0  0  0
    1.2149    3.8248   12.6652 N   0  0  0  0  0  0  0  0  0  0  0  0
    2.1245    3.3913   13.5397 C   0  0  0  0  0  0  0  0  0  0  0  0
    0.2634    5.3023   11.0028 N   0  0  0  0  0  0  0  0  0  0  0  0
    0.1778    6.2821   10.1246 C   0  0  0  0  0  0  0  0  0  0  0  0
   -1.0687    6.2678    9.5189 C   0  0  0  0  0  0  0  0  0  0  0  0
   -1.7321    5.2333   10.0702 C   0  0  0  0  0  0  0  0  0  0  0  0
   -0.9307    4.6287   10.9748 N   0  0  0  0  0  0  0  0  0  0  0  0
  1  2  1  0  0  0
  2  3  1  0  0  0
  3  4  1  0  0  0
  4  5  1  0  0  0
  5  6  1  0  0  0
  6  7  1  0  0  0
  7  8  1  0  0  0
  8  9  1  0  0  0
  9 10  2  0  0  0
 10 11  1  0  0  0
 11 12  1  0  0  0
 12 13  1  0  0  0
 13 14  1  0  0  0
 14 15  1  0  0  0
 15 16  1  0  0  0
 16 17  1  0  0  0
 17 18  1  0  0  0
 18 19  1  0  0  0
 19 20  2  0  0  0
 10 21  1  0  0  0
 21 22  2  0  0  0
 22 23  1  0  0  0
 23 29  1  0  0  0
 29 30  2  0  0  0
 29 31  1  0  0  0
 31 33  1  0  0  0
 33 34  1  0  0  0
 34 35  2  0  0  0
 35 36  1  0  0  0
 36 37  2  0  0  0
 37 38  1  0  0  0
 38 39  2  0  0  0
 37 40  1  0  0  0
 40 41  1  0  0  0
 41 42  2  0  0  0
 42 43  1  0  0  0
 43 44  2  0  0  0
 19  2  1  0  0  0
 39 34  1  0  0  0
 44 40  1  0  0  0
 23  8  2  0  0  0
  1 24  1  0  0  0
  1 25  1  0  0  0
  7 26  1  0  0  0
 11 27  1  0  0  0
 18 28  1  0  0  0
 31 32  1  0  0  0
M  END
> <minimizedAffinity>
-8.74627

> <CNNscore>
0.2358005196

> <CNNaffinity>
6.1900053024

> <CNN_VS>
1.4596064091

> <CNNaffinity_variance>
0.8752199411

$$$$
[H]c1nn(-c2nc([H])c(C([H])([H])N([H])C(=O)c3c([H])nc4nc3N([H])C([H])([H])C([H])([H])C([H])([H])C([H])([H])[C@]([H])(N([H])[H])C(=O)N([H])C([H])([H])C([H])([H])C([H])([H])C([H])([H])C([H])([H])C([H])([H])N4[H])c([H])c2[H])c([H])c1[H]


 44 47  0  0  0  0  0  0  0  0999 V2000
    7.6774    8.2192   20.5455 N   0  0  0  0  0  0  0  0  0  0  0  0
    6.5018    8.1418   21.3718 C   0  0  0  0  0  0  0  0  0  0  0  0
    5.2928    7.5813   20.6082 C   0  0  0  0  0  0  0  0  0  0  0  0
    5.0577    8.3127   19.3224 C   0  0  0  0  0  0  0  0  0  0  0  0
    4.6134    7.4215   18.2170 C   0  0  0  0  0  0  0  0  0  0  0  0
    3.4588    6.5464   18.6191 C   0  0  0  0  0  0  0  0  0  0  0  0
    2.8499    6.0730   17.3595 N   0  0  0  0  0  0  0  0  0  0  0  0
    3.1595    4.7804   16.8680 C   0  0  0  0  0  0  0  0  0  0  0  0
    3.1887    3.6765   17.6019 N   0  0  0  0  0  0  0  0  0  0  0  0
    3.5063    2.4858   17.1557 C   0  0  0  0  0  0  0  0  0  0  0  0
    3.5440    1.2753   17.9306 N   0  0  0  0  0  0  0  0  0  0  0  0
    4.3600    1.0642   19.1024 C   0  0  0  0  0  0  0  0  0  0  0  0
    4.1225    2.0542   20.2128 C   0  0  0  0  0  0  0  0  0  0  0  0
    5.3242    2.9449   20.4723 C   0  0  0  0  0  0  0  0  0  0  0  0
    5.1003    3.6192   21.7999 C   0  0  0  0  0  0  0  0  0  0  0  0
    6.3838    3.6862   22.6294 C   0  0  0  0  0  0  0  0  0  0  0  0
    7.1255    4.9377   22.1809 C   0  0  0  0  0  0  0  0  0  0  0  0
    6.5733    6.0691   22.9061 N   0  0  0  0  0  0  0  0  0  0  0  0
    6.7156    7.4204   22.6356 C   0  0  0  0  0  0  0  0  0  0  0  0
    7.0905    8.1554   23.6277 O   0  0  0  0  0  0  0  0  0  0  0  0
    3.8317    2.3729   15.8279 N   0  0  0  0  0  0  0  0  0  0  0  0
    3.8307    3.4352   15.0174 C   0  0  0  0  0  0  0  0  0  0  0  0
    3.4941    4.6712   15.5142 C   0  0  0  0  0  0  0  0  0  0  0  0
    7.6363    7.5185   19.7852 H   0  0  0  0  0  0  0  0  0  0  0  0
    7.8122    9.1515   20.0789 H   0  0  0  0  0  0  0  0  0  0  0  0
    2.2250    6.7136   16.8617 H   0  0  0  0  0  0  0  0  0  0  0  0
    2.9309    0.4639   17.6279 H   0  0  0  0  0  0  0  0  0  0  0  0
    5.9865    5.7853   23.7675 H   0  0  0  0  0  0  0  0  0  0  0  0
    3.4446    5.8739   14.6555 C   0  0  0  0  0  0  0  0  0  0  0  0
    4.0955    6.9001   14.8395 O   0  0  0  0  0  0  0  0  0  0  0  0
    2.5636    5.7747   13.5250 N   0  0  0  0  0  0  0  0  0  0  0  0
    3.1842    6.9342   13.0317 H   0  0  0  0  0  0  0  0  0  0  0  0
    1.7851    5.6893   12.5239 C   0  0  0  0  0  0  0  0  0  0  0  0
    1.5103    4.3161   11.9846 C   0  0  0  0  0  0  0  0  0  0  0  0
    1.3440    3.1859   12.6862 C   0  0  0  0  0  0  0  0  0  0  0  0
    1.1774    1.9461   12.0556 C   0  0  0  0  0  0  0  0  0  0  0  0
    1.1797    1.8634   10.6567 C   0  0  0  0  0  0  0  0  0  0  0  0
    1.3474    3.0139   10.0268 N   0  0  0  0  0  0  0  0  0  0  0  0
    1.5123    4.2198   10.5732 C   0  0  0  0  0  0  0  0  0  0  0  0
    1.0429    0.6143    9.9980 N   0  0  0  0  0  0  0  0  0  0  0  0
    0.0067   -0.1707    9.7773 C   0  0  0  0  0  0  0  0  0  0  0  0
    0.4100   -1.3065    9.0932 C   0  0  0  0  0  0  0  0  0  0  0  0
    1.7375   -1.1714    8.9091 C   0  0  0  0  0  0  0  0  0  0  0  0
    2.1397   -0.0004    9.4507 N   0  0  0  0  0  0  0  0  0  0  0  0
  1  2  1  0  0  0
  2  3  1  0  0  0
  3  4  1  0  0  0
  4  5  1  0  0  0
  5  6  1  0  0  0
  6  7  1  0  0  0
  7  8  1  0  0  0
  8  9  1  0  0  0
  9 10  2  0  0  0
 10 11  1  0  0  0
 11 12  1  0  0  0
 12 13  1  0  0  0
 13 14  1  0  0  0
 14 15  1  0  0  0
 15 16  1  0  0  0
 16 17  1  0  0  0
 17 18  1  0  0  0
 18 19  1  0  0  0
 19 20  2  0  0  0
 10 21  1  0  0  0
 21 22  2  0  0  0
 22 23  1  0  0  0
 23 29  1  0  0  0
 29 30  2  0  0  0
 29 31  1  0  0  0
 31 33  1  0  0  0
 33 34  1  0  0  0
 34 35  2  0  0  0
 35 36  1  0  0  0
 36 37  2  0  0  0
 37 38  1  0  0  0
 38 39  2  0  0  0
 37 40  1  0  0  0
 40 41  1  0  0  0
 41 42  2  0  0  0
 42 43  1  0  0  0
 43 44  2  0  0  0
 19  2  1  0  0  0
 39 34  1  0  0  0
 44 40  1  0  0  0
 23  8  2  0  0  0
  1 24  1  0  0  0
  1 25  1  0  0  0
  7 26  1  0  0  0
 11 27  1  0  0  0
 18 28  1  0  0  0
 31 32  1  0  0  0
M  END
> <minimizedAffinity>
-9.35208

> <CNNscore>
0.2325185537

> <CNNaffinity>
6.6565299034

> <CNN_VS>
1.5477666855

> <CNNaffinity_variance>
0.8486207128

$$$$
[H]c1nn(-c2nc([H])c(C([H])([H])N([H])C(=O)c3c([H])nc4nc3N([H])C([H])([H])C([H])([H])C([H])([H])C([H])([H])[C@]([H])(N([H])[H])C(=O)N([H])C([H])([H])C([H])([H])C([H])([H])C([H])([H])C([H])([H])C([H])([H])N4[H])c([H])c2[H])c([H])c1[H]


 44 47  0  0  0  0  0  0  0  0999 V2000
    7.4002    8.1206   20.3661 N   0  0  0  0  0  0  0  0  0  0  0  0
    6.2843    7.9652   21.2613 C   0  0  0  0  0  0  0  0  0  0  0  0
    5.0609    7.3546   20.5617 C   0  0  0  0  0  0  0  0  0  0  0  0
    4.7077    8.0957   19.3090 C   0  0  0  0  0  0  0  0  0  0  0  0
    4.2423    7.2022   18.2141 C   0  0  0  0  0  0  0  0  0  0  0  0
    3.1627    6.2593   18.6676 C   0  0  0  0  0  0  0  0  0  0  0  0
    2.5017    5.7769   17.4380 N   0  0  0  0  0  0  0  0  0  0  0  0
    2.8472    4.5119   16.9006 C   0  0  0  0  0  0  0  0  0  0  0  0
    2.9802    3.3980   17.6074 N   0  0  0  0  0  0  0  0  0  0  0  0
    3.3312    2.2344   17.1169 C   0  0  0  0  0  0  0  0  0  0  0  0
    3.4808    1.0138   17.8618 N   0  0  0  0  0  0  0  0  0  0  0  0
    4.3786    0.8254   18.9763 C   0  0  0  0  0  0  0  0  0  0  0  0
    4.1596    1.7808   20.1203 C   0  0  0  0  0  0  0  0  0  0  0  0
    5.3268    2.7298   20.3244 C   0  0  0  0  0  0  0  0  0  0  0  0
    5.1515    3.3668   21.6775 C   0  0  0  0  0  0  0  0  0  0  0  0
    6.4791    3.4875   22.4276 C   0  0  0  0  0  0  0  0  0  0  0  0
    7.1246    4.7849   21.9613 C   0  0  0  0  0  0  0  0  0  0  0  0
    6.5604    5.8717   22.7433 N   0  0  0  0  0  0  0  0  0  0  0  0
    6.6144    7.2334   22.4938 C   0  0  0  0  0  0  0  0  0  0  0  0
    7.0118    7.9692   23.4764 O   0  0  0  0  0  0  0  0  0  0  0  0
    3.5782    2.1634   15.7695 N   0  0  0  0  0  0  0  0  0  0  0  0
    3.4707    3.2387   14.9837 C   0  0  0  0  0  0  0  0  0  0  0  0
    3.1016    4.4456   15.5267 C   0  0  0  0  0  0  0  0  0  0  0  0
    7.3483    7.4327   19.5948 H   0  0  0  0  0  0  0  0  0  0  0  0
    7.4564    9.0672   19.9123 H   0  0  0  0  0  0  0  0  0  0  0  0
    1.8141    6.3920   16.9935 H   0  0  0  0  0  0  0  0  0  0  0  0
    2.8934    0.1763   17.5800 H   0  0  0  0  0  0  0  0  0  0  0  0
    6.0445    5.5411   23.6330 H   0  0  0  0  0  0  0  0  0  0  0  0
    2.9354    5.6594   14.6989 C   0  0  0  0  0  0  0  0  0  0  0  0
    3.8534    6.3697   14.2950 O   0  0  0  0  0  0  0  0  0  0  0  0
    1.5768    5.9772   14.3565 N   0  0  0  0  0  0  0  0  0  0  0  0
    2.1013    6.8823   13.4192 H   0  0  0  0  0  0  0  0  0  0  0  0
    0.3756    6.2604   14.0521 C   0  0  0  0  0  0  0  0  0  0  0  0
    0.0437    6.3584   12.5918 C   0  0  0  0  0  0  0  0  0  0  0  0
   -0.8842    5.6612   11.9210 C   0  0  0  0  0  0  0  0  0  0  0  0
   -1.0379    5.7853   10.5340 C   0  0  0  0  0  0  0  0  0  0  0  0
   -0.2121    6.6565    9.8109 C   0  0  0  0  0  0  0  0  0  0  0  0
    0.6799    7.3132   10.5330 N   0  0  0  0  0  0  0  0  0  0  0  0
    0.8723    7.2335   11.8508 C   0  0  0  0  0  0  0  0  0  0  0  0
   -0.3305    6.7750    8.4020 N   0  0  0  0  0  0  0  0  0  0  0  0
   -0.9957    6.0808    7.4997 C   0  0  0  0  0  0  0  0  0  0  0  0
   -0.7621    6.5996    6.2359 C   0  0  0  0  0  0  0  0  0  0  0  0
    0.0738    7.6404    6.4160 C   0  0  0  0  0  0  0  0  0  0  0  0
    0.3432    7.7654    7.7343 N   0  0  0  0  0  0  0  0  0  0  0  0
  1  2  1  0  0  0
  2  3  1  0  0  0
  3  4  1  0  0  0
  4  5  1  0  0  0
  5  6  1  0  0  0
  6  7  1  0  0  0
  7  8  1  0  0  0
  8  9  1  0  0  0
  9 10  2  0  0  0
 10 11  1  0  0  0
 11 12  1  0  0  0
 12 13  1  0  0  0
 13 14  1  0  0  0
 14 15  1  0  0  0
 15 16  1  0  0  0
 16 17  1  0  0  0
 17 18  1  0  0  0
 18 19  1  0  0  0
 19 20  2  0  0  0
 10 21  1  0  0  0
 21 22  2  0  0  0
 22 23  1  0  0  0
 23 29  1  0  0  0
 29 30  2  0  0  0
 29 31  1  0  0  0
 31 33  1  0  0  0
 33 34  1  0  0  0
 34 35  2  0  0  0
 35 36  1  0  0  0
 36 37  2  0  0  0
 37 38  1  0  0  0
 38 39  2  0  0  0
 37 40  1  0  0  0
 40 41  1  0  0  0
 41 42  2  0  0  0
 42 43  1  0  0  0
 43 44  2  0  0  0
 19  2  1  0  0  0
 39 34  1  0  0  0
 44 40  1  0  0  0
 23  8  2  0  0  0
  1 24  1  0  0  0
  1 25  1  0  0  0
  7 26  1  0  0  0
 11 27  1  0  0  0
 18 28  1  0  0  0
 31 32  1  0  0  0
M  END
> <minimizedAffinity>
-9.41125

> <CNNscore>
0.2063248158

> <CNNaffinity>
6.4144258499

> <CNN_VS>
1.3234552145

> <CNNaffinity_variance>
0.7222931385

$$$$
[H]c1nn(-c2nc([H])c(C([H])([H])N([H])C(=O)c3c([H])nc4nc3N([H])C([H])([H])C([H])([H])C([H])([H])C([H])([H])[C@]([H])(N([H])[H])C(=O)N([H])C([H])([H])C([H])([H])C([H])([H])C([H])([H])C([H])([H])C([H])([H])N4[H])c([H])c2[H])c([H])c1[H]


 44 47  0  0  0  0  0  0  0  0999 V2000
    3.9006    3.4682   20.6280 N   0  0  0  0  0  0  0  0  0  0  0  0
    5.2507    3.8007   20.2572 C   0  0  0  0  0  0  0  0  0  0  0  0
    5.3583    4.2318   18.7870 C   0  0  0  0  0  0  0  0  0  0  0  0
    4.7270    3.2337   17.8658 C   0  0  0  0  0  0  0  0  0  0  0  0
    4.0184    3.8643   16.7195 C   0  0  0  0  0  0  0  0  0  0  0  0
    4.8754    4.8706   16.0032 C   0  0  0  0  0  0  0  0  0  0  0  0
    4.2498    5.0685   14.6800 N   0  0  0  0  0  0  0  0  0  0  0  0
    3.4151    6.1914   14.4547 C   0  0  0  0  0  0  0  0  0  0  0  0
    3.6978    7.4331   14.8239 N   0  0  0  0  0  0  0  0  0  0  0  0
    2.9126    8.4672   14.6451 C   0  0  0  0  0  0  0  0  0  0  0  0
    3.1970    9.8215   15.0351 N   0  0  0  0  0  0  0  0  0  0  0  0
    3.4786   10.2563   16.3824 C   0  0  0  0  0  0  0  0  0  0  0  0
    4.6543    9.5682   17.0256 C   0  0  0  0  0  0  0  0  0  0  0  0
    4.2534    8.6989   18.2038 C   0  0  0  0  0  0  0  0  0  0  0  0
    5.5118    8.3672   18.9612 C   0  0  0  0  0  0  0  0  0  0  0  0
    5.2991    8.4265   20.4748 C   0  0  0  0  0  0  0  0  0  0  0  0
    4.7561    7.0663   20.8903 C   0  0  0  0  0  0  0  0  0  0  0  0
    5.8847    6.1678   21.0634 N   0  0  0  0  0  0  0  0  0  0  0  0
    5.8819    4.7850   21.1493 C   0  0  0  0  0  0  0  0  0  0  0  0
    6.5195    4.2834   22.1527 O   0  0  0  0  0  0  0  0  0  0  0  0
    1.7074    8.2483   14.0276 N   0  0  0  0  0  0  0  0  0  0  0  0
    1.3417    7.0275   13.6260 C   0  0  0  0  0  0  0  0  0  0  0  0
    2.1857    5.9623   13.8279 C   0  0  0  0  0  0  0  0  0  0  0  0
    3.2229    3.9726   20.0304 H   0  0  0  0  0  0  0  0  0  0  0  0
    3.6704    2.4466   20.5355 H   0  0  0  0  0  0  0  0  0  0  0  0
    4.4278    4.3642   13.9582 H   0  0  0  0  0  0  0  0  0  0  0  0
    3.2013   10.5717   14.2847 H   0  0  0  0  0  0  0  0  0  0  0  0
    6.8345    6.6769   21.1389 H   0  0  0  0  0  0  0  0  0  0  0  0
    1.8462    4.5966   13.3743 C   0  0  0  0  0  0  0  0  0  0  0  0
    1.6600    3.6328   14.1140 O   0  0  0  0  0  0  0  0  0  0  0  0
    1.7213    4.4449   11.9512 N   0  0  0  0  0  0  0  0  0  0  0  0
    1.1288    3.1978   12.2092 H   0  0  0  0  0  0  0  0  0  0  0  0
    1.6100    4.3082   10.6924 C   0  0  0  0  0  0  0  0  0  0  0  0
    2.4448    5.2079    9.8289 C   0  0  0  0  0  0  0  0  0  0  0  0
    3.6238    4.9218    9.2585 C   0  0  0  0  0  0  0  0  0  0  0  0
    4.3474    5.8838    8.5418 C   0  0  0  0  0  0  0  0  0  0  0  0
    3.8427    7.1839    8.4041 C   0  0  0  0  0  0  0  0  0  0  0  0
    2.6766    7.3982    8.9896 N   0  0  0  0  0  0  0  0  0  0  0  0
    1.9463    6.5240    9.6843 C   0  0  0  0  0  0  0  0  0  0  0  0
    4.5730    8.1816    7.7084 N   0  0  0  0  0  0  0  0  0  0  0  0
    4.7316    9.4753    7.9080 C   0  0  0  0  0  0  0  0  0  0  0  0
    5.5407   10.0117    6.9188 C   0  0  0  0  0  0  0  0  0  0  0  0
    5.8652    8.9823    6.1129 C   0  0  0  0  0  0  0  0  0  0  0  0
    5.2871    7.8554    6.5841 N   0  0  0  0  0  0  0  0  0  0  0  0
  1  2  1  0  0  0
  2  3  1  0  0  0
  3  4  1  0  0  0
  4  5  1  0  0  0
  5  6  1  0  0  0
  6  7  1  0  0  0
  7  8  1  0  0  0
  8  9  1  0  0  0
  9 10  2  0  0  0
 10 11  1  0  0  0
 11 12  1  0  0  0
 12 13  1  0  0  0
 13 14  1  0  0  0
 14 15  1  0  0  0
 15 16  1  0  0  0
 16 17  1  0  0  0
 17 18  1  0  0  0
 18 19  1  0  0  0
 19 20  2  0  0  0
 10 21  1  0  0  0
 21 22  2  0  0  0
 22 23  1  0  0  0
 23 29  1  0  0  0
 29 30  2  0  0  0
 29 31  1  0  0  0
 31 33  1  0  0  0
 33 34  1  0  0  0
 34 35  2  0  0  0
 35 36  1  0  0  0
 36 37  2  0  0  0
 37 38  1  0  0  0
 38 39  2  0  0  0
 37 40  1  0  0  0
 40 41  1  0  0  0
 41 42  2  0  0  0
 42 43  1  0  0  0
 43 44  2  0  0  0
 19  2  1  0  0  0
 39 34  1  0  0  0
 44 40  1  0  0  0
 23  8  2  0  0  0
  1 24  1  0  0  0
  1 25  1  0  0  0
  7 26  1  0  0  0
 11 27  1  0  0  0
 18 28  1  0  0  0
 31 32  1  0  0  0
M  END
> <minimizedAffinity>
-8.44206

> <CNNscore>
0.2042490691

> <CNNaffinity>
5.8117613792

> <CNN_VS>
1.1870468855

> <CNNaffinity_variance>
0.7146892548

$$$$
[H]c1nn(-c2nc([H])c(C([H])([H])N([H])C(=O)c3c([H])nc4nc3N([H])C([H])([H])C([H])([H])C([H])([H])C([H])([H])[C@]([H])(N([H])[H])C(=O)N([H])C([H])([H])C([H])([H])C([H])([H])C([H])([H])C([H])([H])C([H])([H])N4[H])c([H])c2[H])c([H])c1[H]


 44 47  0  0  0  0  0  0  0  0999 V2000
    7.6758    8.1985   20.3005 N   0  0  0  0  0  0  0  0  0  0  0  0
    6.4859    8.1690   21.1093 C   0  0  0  0  0  0  0  0  0  0  0  0
    5.2783    7.6092   20.3431 C   0  0  0  0  0  0  0  0  0  0  0  0
    5.0782    8.3057   19.0323 C   0  0  0  0  0  0  0  0  0  0  0  0
    4.6337    7.3903   17.9469 C   0  0  0  0  0  0  0  0  0  0  0  0
    3.4558    6.5504   18.3561 C   0  0  0  0  0  0  0  0  0  0  0  0
    2.8576    6.0510   17.1014 N   0  0  0  0  0  0  0  0  0  0  0  0
    3.1491    4.7383   16.6540 C   0  0  0  0  0  0  0  0  0  0  0  0
    3.1447    3.6568   17.4210 N   0  0  0  0  0  0  0  0  0  0  0  0
    3.4456    2.4472   17.0159 C   0  0  0  0  0  0  0  0  0  0  0  0
    3.4470    1.2602   17.8272 N   0  0  0  0  0  0  0  0  0  0  0  0
    4.2401    1.0688   19.0181 C   0  0  0  0  0  0  0  0  0  0  0  0
    4.0048    2.0964   20.0943 C   0  0  0  0  0  0  0  0  0  0  0  0
    5.2196    2.9711   20.3467 C   0  0  0  0  0  0  0  0  0  0  0  0
    4.9883    3.6894   21.6496 C   0  0  0  0  0  0  0  0  0  0  0  0
    6.2595    3.7566   22.4977 C   0  0  0  0  0  0  0  0  0  0  0  0
    7.0330    4.9793   22.0241 C   0  0  0  0  0  0  0  0  0  0  0  0
    6.4920    6.1427   22.7060 N   0  0  0  0  0  0  0  0  0  0  0  0
    6.6653    7.4822   22.3975 C   0  0  0  0  0  0  0  0  0  0  0  0
    7.0391    8.2394   23.3731 O   0  0  0  0  0  0  0  0  0  0  0  0
    3.7897    2.2879   15.6976 N   0  0  0  0  0  0  0  0  0  0  0  0
    3.8226    3.3250   14.8557 C   0  0  0  0  0  0  0  0  0  0  0  0
    3.5029    4.5818   15.3097 C   0  0  0  0  0  0  0  0  0  0  0  0
    7.6327    7.4761   19.5609 H   0  0  0  0  0  0  0  0  0  0  0  0
    7.8364    9.1136   19.8085 H   0  0  0  0  0  0  0  0  0  0  0  0
    2.2534    6.6882   16.5745 H   0  0  0  0  0  0  0  0  0  0  0  0
    2.8228    0.4520   17.5389 H   0  0  0  0  0  0  0  0  0  0  0  0
    5.8861    5.8965   23.5658 H   0  0  0  0  0  0  0  0  0  0  0  0
    3.4908    5.7586   14.4147 C   0  0  0  0  0  0  0  0  0  0  0  0
    3.9074    6.8760   14.7121 O   0  0  0  0  0  0  0  0  0  0  0  0
    2.9549    5.5168   13.1039 N   0  0  0  0  0  0  0  0  0  0  0  0
    3.4954    6.7592   12.7331 H   0  0  0  0  0  0  0  0  0  0  0  0
    2.4813    5.3054   11.9434 C   0  0  0  0  0  0  0  0  0  0  0  0
    3.4524    4.9158   10.8676 C   0  0  0  0  0  0  0  0  0  0  0  0
    3.2165    4.8357    9.5503 C   0  0  0  0  0  0  0  0  0  0  0  0
    4.1902    4.3741    8.6551 C   0  0  0  0  0  0  0  0  0  0  0  0
    5.4501    3.9828    9.1279 C   0  0  0  0  0  0  0  0  0  0  0  0
    5.6162    4.0875   10.4355 N   0  0  0  0  0  0  0  0  0  0  0  0
    4.7273    4.5168   11.3330 C   0  0  0  0  0  0  0  0  0  0  0  0
    6.4403    3.4839    8.2427 N   0  0  0  0  0  0  0  0  0  0  0  0
    6.3865    2.6600    7.2146 C   0  0  0  0  0  0  0  0  0  0  0  0
    7.6551    2.4764    6.6877 C   0  0  0  0  0  0  0  0  0  0  0  0
    8.4782    3.2284    7.4435 C   0  0  0  0  0  0  0  0  0  0  0  0
    7.7515    3.8555    8.3949 N   0  0  0  0  0  0  0  0  0  0  0  0
  1  2  1  0  0  0
  2  3  1  0  0  0
  3  4  1  0  0  0
  4  5  1  0  0  0
  5  6  1  0  0  0
  6  7  1  0  0  0
  7  8  1  0  0  0
  8  9  1  0  0  0
  9 10  2  0  0  0
 10 11  1  0  0  0
 11 12  1  0  0  0
 12 13  1  0  0  0
 13 14  1  0  0  0
 14 15  1  0  0  0
 15 16  1  0  0  0
 16 17  1  0  0  0
 17 18  1  0  0  0
 18 19  1  0  0  0
 19 20  2  0  0  0
 10 21  1  0  0  0
 21 22  2  0  0  0
 22 23  1  0  0  0
 23 29  1  0  0  0
 29 30  2  0  0  0
 29 31  1  0  0  0
 31 33  1  0  0  0
 33 34  1  0  0  0
 34 35  2  0  0  0
 35 36  1  0  0  0
 36 37  2  0  0  0
 37 38  1  0  0  0
 38 39  2  0  0  0
 37 40  1  0  0  0
 40 41  1  0  0  0
 41 42  2  0  0  0
 42 43  1  0  0  0
 43 44  2  0  0  0
 19  2  1  0  0  0
 39 34  1  0  0  0
 44 40  1  0  0  0
 23  8  2  0  0  0
  1 24  1  0  0  0
  1 25  1  0  0  0
  7 26  1  0  0  0
 11 27  1  0  0  0
 18 28  1  0  0  0
 31 32  1  0  0  0
M  END
> <minimizedAffinity>
-8.91677

> <CNNscore>
0.2021485269

> <CNNaffinity>
6.4006385803

> <CNN_VS>
1.2938796282

> <CNNaffinity_variance>
0.6276901960

$$$$
[H]OC(=O)c1c([H])c([H])c(-c2nn(C([H])([H])[C@]3([H])C([H])([H])C([H])([H])[C@@]([H])(N([H])[H])C([H])([H])C3([H])[H])c3nc(N([H])C([H])([H])C([H])([H])C([H])([H])C([H])([H])[H])nc([H])c23)c([H])c1[H]


 35 38  0  0  0  0  0  0  0  0999 V2000
    3.0846    0.1249   19.0265 C   0  0  0  0  0  0  0  0  0  0  0  0
    2.4357   -0.2836   17.9282 N   0  0  0  0  0  0  0  0  0  0  0  0
    2.4395    0.4070   16.7728 C   0  0  0  0  0  0  0  0  0  0  0  0
    3.1350    1.5786   16.7114 C   0  0  0  0  0  0  0  0  0  0  0  0
    3.3388    2.5011   15.7138 C   0  0  0  0  0  0  0  0  0  0  0  0
    4.1146    3.4564   16.2372 N   0  0  0  0  0  0  0  0  0  0  0  0
    4.4189    3.2092   17.4941 N   0  0  0  0  0  0  0  0  0  0  0  0
    3.8157    2.0305   17.8237 C   0  0  0  0  0  0  0  0  0  0  0  0
    3.7626    1.2887   18.9297 N   0  0  0  0  0  0  0  0  0  0  0  0
    2.8198    2.4746   14.3252 C   0  0  0  0  0  0  0  0  0  0  0  0
    1.6433    1.8037   14.0662 C   0  0  0  0  0  0  0  0  0  0  0  0
    1.1592    1.7758   12.7787 C   0  0  0  0  0  0  0  0  0  0  0  0
    1.7979    2.3899   11.7314 C   0  0  0  0  0  0  0  0  0  0  0  0
    2.9702    3.0521   12.0196 C   0  0  0  0  0  0  0  0  0  0  0  0
    3.4819    3.0953   13.3144 C   0  0  0  0  0  0  0  0  0  0  0  0
    1.2374    2.3265   10.3894 C   0  0  0  0  0  0  0  0  0  0  0  0
    0.0204    1.7159   10.1260 O   0  0  0  0  0  0  0  0  0  0  0  0
    1.8561    2.8335    9.4209 O   0  0  0  0  0  0  0  0  0  0  0  0
   -0.0614    0.7867    9.7372 H   0  0  0  0  0  0  0  0  0  0  0  0
    3.0668   -0.6240   20.2413 N   0  0  0  0  0  0  0  0  0  0  0  0
    2.4835   -1.5172   20.2885 H   0  0  0  0  0  0  0  0  0  0  0  0
    3.7908   -0.2565   21.4258 C   0  0  0  0  0  0  0  0  0  0  0  0
    3.1617    0.8641   22.2133 C   0  0  0  0  0  0  0  0  0  0  0  0
    5.5021    1.6287   21.9133 C   0  0  0  0  0  0  0  0  0  0  0  0
    4.1363    1.9712   22.5049 C   0  0  0  0  0  0  0  0  0  0  0  0
    5.2244    3.9626   18.4366 C   0  0  0  0  0  0  0  0  0  0  0  0
    4.4550    4.5256   19.5837 C   0  0  0  0  0  0  0  0  0  0  0  0
    5.4019    5.3059   20.4519 C   0  0  0  0  0  0  0  0  0  0  0  0
    4.9072    6.7053   20.7303 C   0  0  0  0  0  0  0  0  0  0  0  0
    4.5634    7.4656   19.4750 C   0  0  0  0  0  0  0  0  0  0  0  0
    3.7400    8.5920   19.8718 N   0  0  0  0  0  0  0  0  0  0  0  0
    3.8333    6.6520   18.4550 C   0  0  0  0  0  0  0  0  0  0  0  0
    3.3261    5.3872   19.1228 C   0  0  0  0  0  0  0  0  0  0  0  0
    2.8837    8.2545   20.3536 H   0  0  0  0  0  0  0  0  0  0  0  0
    3.4801    9.1908   19.0494 H   0  0  0  0  0  0  0  0  0  0  0  0
 24 25  1  0  0  0
 25 23  1  0  0  0
 23 22  1  0  0  0
 22 20  1  0  0  0
 20  1  1  0  0  0
  1  2  2  0  0  0
  2  3  1  0  0  0
  3  4  2  0  0  0
  4  5  1  0  0  0
  5  6  2  0  0  0
  6  7  1  0  0  0
  7 26  1  0  0  0
 26 27  1  0  0  0
 27 28  1  0  0  0
 28 29  1  0  0  0
 29 30  1  0  0  0
 30 31  1  0  0  0
 30 32  1  0  0  0
 32 33  1  0  0  0
  7  8  1  0  0  0
  8  9  2  0  0  0
  5 10  1  0  0  0
 10 11  2  0  0  0
 11 12  1  0  0  0
 12 13  2  0  0  0
 13 14  1  0  0  0
 14 15  2  0  0  0
 13 16  1  0  0  0
 16 17  1  0  0  0
 16 18  2  0  0  0
  9  1  1  0  0  0
 15 10  1  0  0  0
  8  4  1  0  0  0
 33 27  1  0  0  0
 20 21  1  0  0  0
 31 34  1  0  0  0
 31 35  1  0  0  0
 17 19  1  0  0  0
M  END
> <minimizedAffinity>
-8.67992

> <CNNscore>
0.9701268673

> <CNNaffinity>
7.4465932846

> <CNN_VS>
7.2241401672

> <CNNaffinity_variance>
0.1324054301

$$$$
[H]OC(=O)c1c([H])c([H])c(-c2nn(C([H])([H])[C@]3([H])C([H])([H])C([H])([H])[C@@]([H])(N([H])[H])C([H])([H])C3([H])[H])c3nc(N([H])C([H])([H])C([H])([H])C([H])([H])C([H])([H])[H])nc([H])c23)c([H])c1[H]


 35 38  0  0  0  0  0  0  0  0999 V2000
    2.9938    0.1692   18.7640 C   0  0  0  0  0  0  0  0  0  0  0  0
    2.5191   -0.1374   17.5496 N   0  0  0  0  0  0  0  0  0  0  0  0
    2.6928    0.6505   16.4722 C   0  0  0  0  0  0  0  0  0  0  0  0
    3.3839    1.8174   16.6176 C   0  0  0  0  0  0  0  0  0  0  0  0
    3.7305    2.8211   15.7458 C   0  0  0  0  0  0  0  0  0  0  0  0
    4.4141    3.7212   16.4605 N   0  0  0  0  0  0  0  0  0  0  0  0
    4.5276    3.3637   17.7225 N   0  0  0  0  0  0  0  0  0  0  0  0
    3.8876    2.1657   17.8544 C   0  0  0  0  0  0  0  0  0  0  0  0
    3.6729    1.3315   18.8714 N   0  0  0  0  0  0  0  0  0  0  0  0
    3.4259    2.9190   14.2980 C   0  0  0  0  0  0  0  0  0  0  0  0
    3.9044    3.9999   13.5880 C   0  0  0  0  0  0  0  0  0  0  0  0
    3.6228    4.0948   12.2447 C   0  0  0  0  0  0  0  0  0  0  0  0
    2.8818    3.1560   11.5727 C   0  0  0  0  0  0  0  0  0  0  0  0
    2.4173    2.0878   12.3071 C   0  0  0  0  0  0  0  0  0  0  0  0
    2.6882    1.9681   13.6682 C   0  0  0  0  0  0  0  0  0  0  0  0
    2.6161    3.3098   10.1498 C   0  0  0  0  0  0  0  0  0  0  0  0
    3.0442    4.4183    9.4347 O   0  0  0  0  0  0  0  0  0  0  0  0
    1.9804    2.4242    9.5256 O   0  0  0  0  0  0  0  0  0  0  0  0
    2.4379    5.1892    9.1910 H   0  0  0  0  0  0  0  0  0  0  0  0
    2.7976   -0.6819   19.8928 N   0  0  0  0  0  0  0  0  0  0  0  0
    2.0810   -1.4707   19.8261 H   0  0  0  0  0  0  0  0  0  0  0  0
    3.5081   -0.5517   21.1340 C   0  0  0  0  0  0  0  0  0  0  0  0
    3.0500    0.5996   21.9920 C   0  0  0  0  0  0  0  0  0  0  0  0
    5.4682    1.1069   21.7761 C   0  0  0  0  0  0  0  0  0  0  0  0
    4.2026    1.3537   22.5946 C   0  0  0  0  0  0  0  0  0  0  0  0
    5.1787    4.0260   18.8370 C   0  0  0  0  0  0  0  0  0  0  0  0
    4.2486    4.4489   19.9237 C   0  0  0  0  0  0  0  0  0  0  0  0
    5.0364    4.5804   21.1970 C   0  0  0  0  0  0  0  0  0  0  0  0
    4.8279    5.9173   21.8676 C   0  0  0  0  0  0  0  0  0  0  0  0
    5.0821    7.0814   20.9444 C   0  0  0  0  0  0  0  0  0  0  0  0
    4.4694    8.2477   21.5516 N   0  0  0  0  0  0  0  0  0  0  0  0
    4.5330    6.8930   19.5666 C   0  0  0  0  0  0  0  0  0  0  0  0
    3.5579    5.7306   19.5930 C   0  0  0  0  0  0  0  0  0  0  0  0
    3.4514    8.0870   21.6829 H   0  0  0  0  0  0  0  0  0  0  0  0
    4.6280    9.1121   20.9772 H   0  0  0  0  0  0  0  0  0  0  0  0
 24 25  1  0  0  0
 25 23  1  0  0  0
 23 22  1  0  0  0
 22 20  1  0  0  0
 20  1  1  0  0  0
  1  2  2  0  0  0
  2  3  1  0  0  0
  3  4  2  0  0  0
  4  5  1  0  0  0
  5  6  2  0  0  0
  6  7  1  0  0  0
  7 26  1  0  0  0
 26 27  1  0  0  0
 27 28  1  0  0  0
 28 29  1  0  0  0
 29 30  1  0  0  0
 30 31  1  0  0  0
 30 32  1  0  0  0
 32 33  1  0  0  0
  7  8  1  0  0  0
  8  9  2  0  0  0
  5 10  1  0  0  0
 10 11  2  0  0  0
 11 12  1  0  0  0
 12 13  2  0  0  0
 13 14  1  0  0  0
 14 15  2  0  0  0
 13 16  1  0  0  0
 16 17  1  0  0  0
 16 18  2  0  0  0
  9  1  1  0  0  0
 15 10  1  0  0  0
  8  4  1  0  0  0
 33 27  1  0  0  0
 20 21  1  0  0  0
 31 34  1  0  0  0
 31 35  1  0  0  0
 17 19  1  0  0  0
M  END
> <minimizedAffinity>
-8.89698

> <CNNscore>
0.9334734678

> <CNNaffinity>
7.4047393799

> <CNN_VS>
6.9121279716

> <CNNaffinity_variance>
0.1824949533

$$$$
[H]OC(=O)c1c([H])c([H])c(-c2nn(C([H])([H])[C@]3([H])C([H])([H])C([H])([H])[C@@]([H])(N([H])[H])C([H])([H])C3([H])[H])c3nc(N([H])C([H])([H])C([H])([H])C([H])([H])C([H])([H])[H])nc([H])c23)c([H])c1[H]


 35 38  0  0  0  0  0  0  0  0999 V2000
    3.9506    1.1021   19.4046 C   0  0  0  0  0  0  0  0  0  0  0  0
    3.2096    0.5001   18.4651 N   0  0  0  0  0  0  0  0  0  0  0  0
    3.0300    1.0099   17.2323 C   0  0  0  0  0  0  0  0  0  0  0  0
    3.6282    2.1949   16.9192 C   0  0  0  0  0  0  0  0  0  0  0  0
    3.6485    2.9681   15.7836 C   0  0  0  0  0  0  0  0  0  0  0  0
    4.4094    4.0310   16.0653 N   0  0  0  0  0  0  0  0  0  0  0  0
    4.8743    3.9907   17.2964 N   0  0  0  0  0  0  0  0  0  0  0  0
    4.3992    2.8436   17.8624 C   0  0  0  0  0  0  0  0  0  0  0  0
    4.5279    2.2732   19.0601 N   0  0  0  0  0  0  0  0  0  0  0  0
    2.9752    2.7069   14.4886 C   0  0  0  0  0  0  0  0  0  0  0  0
    3.5310    3.2160   13.3339 C   0  0  0  0  0  0  0  0  0  0  0  0
    2.9085    2.9767   12.1306 C   0  0  0  0  0  0  0  0  0  0  0  0
    1.7505    2.2487   12.0250 C   0  0  0  0  0  0  0  0  0  0  0  0
    1.2185    1.7528   13.1942 C   0  0  0  0  0  0  0  0  0  0  0  0
    1.8289    1.9808   14.4253 C   0  0  0  0  0  0  0  0  0  0  0  0
    1.1369    2.0281   10.7235 C   0  0  0  0  0  0  0  0  0  0  0  0
    0.2119    1.0182   10.5054 O   0  0  0  0  0  0  0  0  0  0  0  0
    1.4378    2.7623    9.7497 O   0  0  0  0  0  0  0  0  0  0  0  0
    0.4438    0.1394   10.0636 H   0  0  0  0  0  0  0  0  0  0  0  0
    4.1274    0.5428   20.7057 N   0  0  0  0  0  0  0  0  0  0  0  0
    4.8106   -0.2683   20.8304 H   0  0  0  0  0  0  0  0  0  0  0  0
    3.4406    1.0012   21.8806 C   0  0  0  0  0  0  0  0  0  0  0  0
    4.1182    2.1477   22.5864 C   0  0  0  0  0  0  0  0  0  0  0  0
    6.2916    3.3023   22.2781 C   0  0  0  0  0  0  0  0  0  0  0  0
    5.6117    1.9823   22.6356 C   0  0  0  0  0  0  0  0  0  0  0  0
    5.7277    4.9184   18.0147 C   0  0  0  0  0  0  0  0  0  0  0  0
    5.1887    5.3438   19.3387 C   0  0  0  0  0  0  0  0  0  0  0  0
    6.1576    6.3134   19.9554 C   0  0  0  0  0  0  0  0  0  0  0  0
    5.4891    7.5940   20.3955 C   0  0  0  0  0  0  0  0  0  0  0  0
    4.6889    8.2447   19.2963 C   0  0  0  0  0  0  0  0  0  0  0  0
    3.7936    9.1956   19.9275 N   0  0  0  0  0  0  0  0  0  0  0  0
    3.8919    7.2818   18.4759 C   0  0  0  0  0  0  0  0  0  0  0  0
    3.8331    5.9567   19.2130 C   0  0  0  0  0  0  0  0  0  0  0  0
    3.1751    8.7069   20.6042 H   0  0  0  0  0  0  0  0  0  0  0  0
    3.2169    9.7138   19.2195 H   0  0  0  0  0  0  0  0  0  0  0  0
 24 25  1  0  0  0
 25 23  1  0  0  0
 23 22  1  0  0  0
 22 20  1  0  0  0
 20  1  1  0  0  0
  1  2  2  0  0  0
  2  3  1  0  0  0
  3  4  2  0  0  0
  4  5  1  0  0  0
  5  6  2  0  0  0
  6  7  1  0  0  0
  7 26  1  0  0  0
 26 27  1  0  0  0
 27 28  1  0  0  0
 28 29  1  0  0  0
 29 30  1  0  0  0
 30 31  1  0  0  0
 30 32  1  0  0  0
 32 33  1  0  0  0
  7  8  1  0  0  0
  8  9  2  0  0  0
  5 10  1  0  0  0
 10 11  2  0  0  0
 11 12  1  0  0  0
 12 13  2  0  0  0
 13 14  1  0  0  0
 14 15  2  0  0  0
 13 16  1  0  0  0
 16 17  1  0  0  0
 16 18  2  0  0  0
  9  1  1  0  0  0
 15 10  1  0  0  0
  8  4  1  0  0  0
 33 27  1  0  0  0
 20 21  1  0  0  0
 31 34  1  0  0  0
 31 35  1  0  0  0
 17 19  1  0  0  0
M  END
> <minimizedAffinity>
-8.33636

> <CNNscore>
0.7335605621

> <CNNaffinity>
7.0908026695

> <CNN_VS>
5.2015333176

> <CNNaffinity_variance>
0.4626081884

$$$$
[H]OC(=O)c1c([H])c([H])c(-c2nn(C([H])([H])[C@]3([H])C([H])([H])C([H])([H])[C@@]([H])(N([H])[H])C([H])([H])C3([H])[H])c3nc(N([H])C([H])([H])C([H])([H])C([H])([H])C([H])([H])[H])nc([H])c23)c([H])c1[H]


 35 38  0  0  0  0  0  0  0  0999 V2000
    2.7615    0.9901   17.1639 C   0  0  0  0  0  0  0  0  0  0  0  0
    2.6984    0.8370   15.8347 N   0  0  0  0  0  0  0  0  0  0  0  0
    2.8621    1.8547   14.9691 C   0  0  0  0  0  0  0  0  0  0  0  0
    3.1039    3.1030   15.4626 C   0  0  0  0  0  0  0  0  0  0  0  0
    3.3127    4.3251   14.8707 C   0  0  0  0  0  0  0  0  0  0  0  0
    3.4994    5.1985   15.8660 N   0  0  0  0  0  0  0  0  0  0  0  0
    3.4244    4.6217   17.0471 N   0  0  0  0  0  0  0  0  0  0  0  0
    3.1756    3.2982   16.8270 C   0  0  0  0  0  0  0  0  0  0  0  0
    3.0023    2.2391   17.6173 N   0  0  0  0  0  0  0  0  0  0  0  0
    3.3347    4.6473   13.4235 C   0  0  0  0  0  0  0  0  0  0  0  0
    4.3832    4.1882   12.6545 C   0  0  0  0  0  0  0  0  0  0  0  0
    4.4076    4.4861   11.3116 C   0  0  0  0  0  0  0  0  0  0  0  0
    3.4290    5.2249   10.6965 C   0  0  0  0  0  0  0  0  0  0  0  0
    2.3947    5.6698   11.4890 C   0  0  0  0  0  0  0  0  0  0  0  0
    2.3462    5.3823   12.8511 C   0  0  0  0  0  0  0  0  0  0  0  0
    3.5085    5.5085    9.2709 C   0  0  0  0  0  0  0  0  0  0  0  0
    3.4186    4.5092    8.3136 O   0  0  0  0  0  0  0  0  0  0  0  0
    3.6635    6.6882    8.8683 O   0  0  0  0  0  0  0  0  0  0  0  0
    4.2225    4.1194    7.8413 H   0  0  0  0  0  0  0  0  0  0  0  0
    2.5848   -0.1039   18.0632 N   0  0  0  0  0  0  0  0  0  0  0  0
    1.8288   -0.8281   17.8529 H   0  0  0  0  0  0  0  0  0  0  0  0
    3.3653   -0.3048   19.2518 C   0  0  0  0  0  0  0  0  0  0  0  0
    2.5965   -0.1239   20.5355 C   0  0  0  0  0  0  0  0  0  0  0  0
    4.7835    0.7827   21.2750 C   0  0  0  0  0  0  0  0  0  0  0  0
    3.2699    0.8418   21.4705 C   0  0  0  0  0  0  0  0  0  0  0  0
    3.5628    5.1774   18.3801 C   0  0  0  0  0  0  0  0  0  0  0  0
    4.8823    4.9065   19.0204 C   0  0  0  0  0  0  0  0  0  0  0  0
    5.6001    6.2151   19.1984 C   0  0  0  0  0  0  0  0  0  0  0  0
    6.0823    6.4193   20.6149 C   0  0  0  0  0  0  0  0  0  0  0  0
    4.9862    6.2533   21.6362 C   0  0  0  0  0  0  0  0  0  0  0  0
    5.6287    6.0650   22.9230 N   0  0  0  0  0  0  0  0  0  0  0  0
    4.0738    5.1006   21.3636 C   0  0  0  0  0  0  0  0  0  0  0  0
    4.7284    4.2041   20.3289 C   0  0  0  0  0  0  0  0  0  0  0  0
    6.2454    5.2294   22.8939 H   0  0  0  0  0  0  0  0  0  0  0  0
    4.9256    5.9688   23.6969 H   0  0  0  0  0  0  0  0  0  0  0  0
 24 25  1  0  0  0
 25 23  1  0  0  0
 23 22  1  0  0  0
 22 20  1  0  0  0
 20  1  1  0  0  0
  1  2  2  0  0  0
  2  3  1  0  0  0
  3  4  2  0  0  0
  4  5  1  0  0  0
  5  6  2  0  0  0
  6  7  1  0  0  0
  7 26  1  0  0  0
 26 27  1  0  0  0
 27 28  1  0  0  0
 28 29  1  0  0  0
 29 30  1  0  0  0
 30 31  1  0  0  0
 30 32  1  0  0  0
 32 33  1  0  0  0
  7  8  1  0  0  0
  8  9  2  0  0  0
  5 10  1  0  0  0
 10 11  2  0  0  0
 11 12  1  0  0  0
 12 13  2  0  0  0
 13 14  1  0  0  0
 14 15  2  0  0  0
 13 16  1  0  0  0
 16 17  1  0  0  0
 16 18  2  0  0  0
  9  1  1  0  0  0
 15 10  1  0  0  0
  8  4  1  0  0  0
 33 27  1  0  0  0
 20 21  1  0  0  0
 31 34  1  0  0  0
 31 35  1  0  0  0
 17 19  1  0  0  0
M  END
> <minimizedAffinity>
-6.74646

> <CNNscore>
0.6140018702

> <CNNaffinity>
6.8899755478

> <CNN_VS>
4.2304577827

> <CNNaffinity_variance>
0.1766868383

$$$$
[H]OC(=O)c1c([H])c([H])c(-c2nn(C([H])([H])[C@]3([H])C([H])([H])C([H])([H])[C@@]([H])(N([H])[H])C([H])([H])C3([H])[H])c3nc(N([H])C([H])([H])C([H])([H])C([H])([H])C([H])([H])[H])nc([H])c23)c([H])c1[H]


 35 38  0  0  0  0  0  0  0  0999 V2000
    4.3117    1.4510   19.2123 C   0  0  0  0  0  0  0  0  0  0  0  0
    3.4892    0.8218   18.3628 N   0  0  0  0  0  0  0  0  0  0  0  0
    3.2420    1.2641   17.1158 C   0  0  0  0  0  0  0  0  0  0  0  0
    3.8549    2.4062   16.6915 C   0  0  0  0  0  0  0  0  0  0  0  0
    3.8221    3.1097   15.5118 C   0  0  0  0  0  0  0  0  0  0  0  0
    4.6343    4.1593   15.6766 N   0  0  0  0  0  0  0  0  0  0  0  0
    5.1809    4.1750   16.8742 N   0  0  0  0  0  0  0  0  0  0  0  0
    4.7091    3.0811   17.5398 C   0  0  0  0  0  0  0  0  0  0  0  0
    4.9013    2.5782   18.7590 N   0  0  0  0  0  0  0  0  0  0  0  0
    3.0537    2.7970   14.2829 C   0  0  0  0  0  0  0  0  0  0  0  0
    1.8835    2.0760   14.3941 C   0  0  0  0  0  0  0  0  0  0  0  0
    1.1684    1.7829   13.2559 C   0  0  0  0  0  0  0  0  0  0  0  0
    1.5685    2.1780   12.0046 C   0  0  0  0  0  0  0  0  0  0  0  0
    2.7404    2.8964   11.9242 C   0  0  0  0  0  0  0  0  0  0  0  0
    3.4833    3.2063   13.0610 C   0  0  0  0  0  0  0  0  0  0  0  0
    0.7699    1.8383   10.8359 C   0  0  0  0  0  0  0  0  0  0  0  0
    0.6908    0.5428   10.3474 O   0  0  0  0  0  0  0  0  0  0  0  0
    0.1219    2.7289   10.2320 O   0  0  0  0  0  0  0  0  0  0  0  0
    1.2156    0.2188    9.5468 H   0  0  0  0  0  0  0  0  0  0  0  0
    4.5592    0.9635   20.5307 N   0  0  0  0  0  0  0  0  0  0  0  0
    3.7327    0.8186   21.1910 H   0  0  0  0  0  0  0  0  0  0  0  0
    5.8634    0.6475   21.0419 C   0  0  0  0  0  0  0  0  0  0  0  0
    6.4038    1.6540   22.0251 C   0  0  0  0  0  0  0  0  0  0  0  0
    5.1373    2.1587   24.0970 C   0  0  0  0  0  0  0  0  0  0  0  0
    5.3182    2.5065   22.6209 C   0  0  0  0  0  0  0  0  0  0  0  0
    6.1107    5.1120   17.4759 C   0  0  0  0  0  0  0  0  0  0  0  0
    5.4626    6.3096   18.0844 C   0  0  0  0  0  0  0  0  0  0  0  0
    3.9912    6.0341   18.2205 C   0  0  0  0  0  0  0  0  0  0  0  0
    3.4843    6.2913   19.6197 C   0  0  0  0  0  0  0  0  0  0  0  0
    4.2772    5.5610   20.6732 C   0  0  0  0  0  0  0  0  0  0  0  0
    3.9755    6.1900   21.9450 N   0  0  0  0  0  0  0  0  0  0  0  0
    5.7547    5.5862   20.4452 C   0  0  0  0  0  0  0  0  0  0  0  0
    6.0627    6.6505   19.4084 C   0  0  0  0  0  0  0  0  0  0  0  0
    4.2299    7.1968   21.9133 H   0  0  0  0  0  0  0  0  0  0  0  0
    4.4726    5.7163   22.7393 H   0  0  0  0  0  0  0  0  0  0  0  0
 24 25  1  0  0  0
 25 23  1  0  0  0
 23 22  1  0  0  0
 22 20  1  0  0  0
 20  1  1  0  0  0
  1  2  2  0  0  0
  2  3  1  0  0  0
  3  4  2  0  0  0
  4  5  1  0  0  0
  5  6  2  0  0  0
  6  7  1  0  0  0
  7 26  1  0  0  0
 26 27  1  0  0  0
 27 28  1  0  0  0
 28 29  1  0  0  0
 29 30  1  0  0  0
 30 31  1  0  0  0
 30 32  1  0  0  0
 32 33  1  0  0  0
  7  8  1  0  0  0
  8  9  2  0  0  0
  5 10  1  0  0  0
 10 11  2  0  0  0
 11 12  1  0  0  0
 12 13  2  0  0  0
 13 14  1  0  0  0
 14 15  2  0  0  0
 13 16  1  0  0  0
 16 17  1  0  0  0
 16 18  2  0  0  0
  9  1  1  0  0  0
 15 10  1  0  0  0
  8  4  1  0  0  0
 33 27  1  0  0  0
 20 21  1  0  0  0
 31 34  1  0  0  0
 31 35  1  0  0  0
 17 19  1  0  0  0
M  END
> <minimizedAffinity>
-8.33046

> <CNNscore>
0.5753232241

> <CNNaffinity>
6.9590883255

> <CNN_VS>
4.0037250519

> <CNNaffinity_variance>
0.5233204961

$$$$
[H]OC(=O)c1c([H])c([H])c(-c2nn(C([H])([H])[C@]3([H])C([H])([H])C([H])([H])[C@@]([H])(N([H])[H])C([H])([H])C3([H])[H])c3nc(N([H])C([H])([H])C([H])([H])C([H])([H])C([H])([H])[H])nc([H])c23)c([H])c1[H]


 35 38  0  0  0  0  0  0  0  0999 V2000
    3.4367    2.0033   15.6652 C   0  0  0  0  0  0  0  0  0  0  0  0
    3.4078    1.1883   16.7278 N   0  0  0  0  0  0  0  0  0  0  0  0
    3.8266    1.5612   17.9515 C   0  0  0  0  0  0  0  0  0  0  0  0
    4.3039    2.8272   18.1238 C   0  0  0  0  0  0  0  0  0  0  0  0
    4.7959    3.5079   19.2111 C   0  0  0  0  0  0  0  0  0  0  0  0
    5.1144    4.7318   18.7765 N   0  0  0  0  0  0  0  0  0  0  0  0
    4.8611    4.8794   17.4930 N   0  0  0  0  0  0  0  0  0  0  0  0
    4.3484    3.6945   17.0511 C   0  0  0  0  0  0  0  0  0  0  0  0
    3.9152    3.2490   15.8721 N   0  0  0  0  0  0  0  0  0  0  0  0
    4.9551    3.0165   20.6009 C   0  0  0  0  0  0  0  0  0  0  0  0
    4.2009    3.5919   21.6017 C   0  0  0  0  0  0  0  0  0  0  0  0
    4.3466    3.1393   22.8927 C   0  0  0  0  0  0  0  0  0  0  0  0
    5.2148    2.1334   23.2338 C   0  0  0  0  0  0  0  0  0  0  0  0
    5.9545    1.5776   22.2141 C   0  0  0  0  0  0  0  0  0  0  0  0
    5.8260    2.0175   20.8988 C   0  0  0  0  0  0  0  0  0  0  0  0
    5.3261    1.6961   24.6178 C   0  0  0  0  0  0  0  0  0  0  0  0
    6.4474    1.9643   25.3885 O   0  0  0  0  0  0  0  0  0  0  0  0
    4.3902    1.0534   25.1553 O   0  0  0  0  0  0  0  0  0  0  0  0
    7.1728    1.2839   25.5680 H   0  0  0  0  0  0  0  0  0  0  0  0
    2.9871    1.5863   14.3764 N   0  0  0  0  0  0  0  0  0  0  0  0
    3.3473    0.6636   13.9777 H   0  0  0  0  0  0  0  0  0  0  0  0
    2.0679    2.3317   13.5629 C   0  0  0  0  0  0  0  0  0  0  0  0
    2.6894    2.9569   12.3403 C   0  0  0  0  0  0  0  0  0  0  0  0
    0.7696    4.4516   12.8222 C   0  0  0  0  0  0  0  0  0  0  0  0
    1.9820    4.2164   11.9237 C   0  0  0  0  0  0  0  0  0  0  0  0
    5.0463    6.0225   16.6190 C   0  0  0  0  0  0  0  0  0  0  0  0
    3.8191    6.8477   16.4250 C   0  0  0  0  0  0  0  0  0  0  0  0
    4.2293    8.2902   16.3236 C   0  0  0  0  0  0  0  0  0  0  0  0
    3.6644    8.9645   15.0961 C   0  0  0  0  0  0  0  0  0  0  0  0
    3.9723    8.2176   13.8236 C   0  0  0  0  0  0  0  0  0  0  0  0
    3.0619    8.7128   12.8086 N   0  0  0  0  0  0  0  0  0  0  0  0
    3.8252    6.7343   13.9412 C   0  0  0  0  0  0  0  0  0  0  0  0
    3.0558    6.4272   15.2126 C   0  0  0  0  0  0  0  0  0  0  0  0
    2.0787    8.5586   13.1068 H   0  0  0  0  0  0  0  0  0  0  0  0
    3.2335    8.2570   11.8785 H   0  0  0  0  0  0  0  0  0  0  0  0
 24 25  1  0  0  0
 25 23  1  0  0  0
 23 22  1  0  0  0
 22 20  1  0  0  0
 20  1  1  0  0  0
  1  2  2  0  0  0
  2  3  1  0  0  0
  3  4  2  0  0  0
  4  5  1  0  0  0
  5  6  2  0  0  0
  6  7  1  0  0  0
  7 26  1  0  0  0
 26 27  1  0  0  0
 27 28  1  0  0  0
 28 29  1  0  0  0
 29 30  1  0  0  0
 30 31  1  0  0  0
 30 32  1  0  0  0
 32 33  1  0  0  0
  7  8  1  0  0  0
  8  9  2  0  0  0
  5 10  1  0  0  0
 10 11  2  0  0  0
 11 12  1  0  0  0
 12 13  2  0  0  0
 13 14  1  0  0  0
 14 15  2  0  0  0
 13 16  1  0  0  0
 16 17  1  0  0  0
 16 18  2  0  0  0
  9  1  1  0  0  0
 15 10  1  0  0  0
  8  4  1  0  0  0
 33 27  1  0  0  0
 20 21  1  0  0  0
 31 34  1  0  0  0
 31 35  1  0  0  0
 17 19  1  0  0  0
M  END
> <minimizedAffinity>
-6.99116

> <CNNscore>
0.3762335777

> <CNNaffinity>
6.5089049339

> <CNN_VS>
2.4488685131

> <CNNaffinity_variance>
0.6792524457

$$$$
[H]OC(=O)c1c([H])c([H])c(-c2nn(C([H])([H])[C@]3([H])C([H])([H])C([H])([H])[C@@]([H])(N([H])[H])C([H])([H])C3([H])[H])c3nc(N([H])C([H])([H])C([H])([H])C([H])([H])C([H])([H])[H])nc([H])c23)c([H])c1[H]


 35 38  0  0  0  0  0  0  0  0999 V2000
    3.4066    1.8224   16.8723 C   0  0  0  0  0  0  0  0  0  0  0  0
    3.6304    0.9328   17.8484 N   0  0  0  0  0  0  0  0  0  0  0  0
    4.0065    1.2853   19.0919 C   0  0  0  0  0  0  0  0  0  0  0  0
    4.1690    2.6090   19.3774 C   0  0  0  0  0  0  0  0  0  0  0  0
    4.5342    3.2889   20.5141 C   0  0  0  0  0  0  0  0  0  0  0  0
    4.5227    4.5877   20.1961 N   0  0  0  0  0  0  0  0  0  0  0  0
    4.1771    4.7837   18.9408 N   0  0  0  0  0  0  0  0  0  0  0  0
    3.9471    3.5538   18.3962 C   0  0  0  0  0  0  0  0  0  0  0  0
    3.5769    3.1237   17.1903 N   0  0  0  0  0  0  0  0  0  0  0  0
    4.8777    2.7283   21.8431 C   0  0  0  0  0  0  0  0  0  0  0  0
    3.8622    2.2706   22.6560 C   0  0  0  0  0  0  0  0  0  0  0  0
    4.1770    1.7509   23.8903 C   0  0  0  0  0  0  0  0  0  0  0  0
    5.4652    1.6658   24.3541 C   0  0  0  0  0  0  0  0  0  0  0  0
    6.4583    2.1302   23.5211 C   0  0  0  0  0  0  0  0  0  0  0  0
    6.1665    2.6611   22.2668 C   0  0  0  0  0  0  0  0  0  0  0  0
    5.7374    1.1057   25.6699 C   0  0  0  0  0  0  0  0  0  0  0  0
    4.8026    0.3448   26.3558 O   0  0  0  0  0  0  0  0  0  0  0  0
    6.8472    1.3030   26.2241 O   0  0  0  0  0  0  0  0  0  0  0  0
    4.2323    0.7105   27.1057 H   0  0  0  0  0  0  0  0  0  0  0  0
    3.0082    1.4257   15.5605 N   0  0  0  0  0  0  0  0  0  0  0  0
    3.1913    0.4215   15.2470 H   0  0  0  0  0  0  0  0  0  0  0  0
    2.3664    2.2954   14.6151 C   0  0  0  0  0  0  0  0  0  0  0  0
    3.0590    2.3766   13.2789 C   0  0  0  0  0  0  0  0  0  0  0  0
    3.5078    4.6908   14.0502 C   0  0  0  0  0  0  0  0  0  0  0  0
    3.2726    3.7969   12.8344 C   0  0  0  0  0  0  0  0  0  0  0  0
    4.0342    6.0113   18.1811 C   0  0  0  0  0  0  0  0  0  0  0  0
    5.1138    6.2371   17.1771 C   0  0  0  0  0  0  0  0  0  0  0  0
    4.9826    7.6375   16.6469 C   0  0  0  0  0  0  0  0  0  0  0  0
    6.2781    8.4089   16.7315 C   0  0  0  0  0  0  0  0  0  0  0  0
    6.8746    8.4018   18.1158 C   0  0  0  0  0  0  0  0  0  0  0  0
    8.2635    8.7985   17.9826 N   0  0  0  0  0  0  0  0  0  0  0  0
    6.8010    7.0745   18.8002 C   0  0  0  0  0  0  0  0  0  0  0  0
    6.4692    6.0172   17.7635 C   0  0  0  0  0  0  0  0  0  0  0  0
    8.7632    8.1391   17.3543 H   0  0  0  0  0  0  0  0  0  0  0  0
    8.7445    8.8446   18.9147 H   0  0  0  0  0  0  0  0  0  0  0  0
 24 25  1  0  0  0
 25 23  1  0  0  0
 23 22  1  0  0  0
 22 20  1  0  0  0
 20  1  1  0  0  0
  1  2  2  0  0  0
  2  3  1  0  0  0
  3  4  2  0  0  0
  4  5  1  0  0  0
  5  6  2  0  0  0
  6  7  1  0  0  0
  7 26  1  0  0  0
 26 27  1  0  0  0
 27 28  1  0  0  0
 28 29  1  0  0  0
 29 30  1  0  0  0
 30 31  1  0  0  0
 30 32  1  0  0  0
 32 33  1  0  0  0
  7  8  1  0  0  0
  8  9  2  0  0  0
  5 10  1  0  0  0
 10 11  2  0  0  0
 11 12  1  0  0  0
 12 13  2  0  0  0
 13 14  1  0  0  0
 14 15  2  0  0  0
 13 16  1  0  0  0
 16 17  1  0  0  0
 16 18  2  0  0  0
  9  1  1  0  0  0
 15 10  1  0  0  0
  8  4  1  0  0  0
 33 27  1  0  0  0
 20 21  1  0  0  0
 31 34  1  0  0  0
 31 35  1  0  0  0
 17 19  1  0  0  0
M  END
> <minimizedAffinity>
-7.08430

> <CNNscore>
0.3313567340

> <CNNaffinity>
6.6679863930

> <CNN_VS>
2.2094821930

> <CNNaffinity_variance>
0.6793032885

$$$$
[H]OC(=O)c1c([H])c([H])c(-c2nn(C([H])([H])[C@]3([H])C([H])([H])C([H])([H])[C@@]([H])(N([H])[H])C([H])([H])C3([H])[H])c3nc(N([H])C([H])([H])C([H])([H])C([H])([H])C([H])([H])[H])nc([H])c23)c([H])c1[H]


 35 38  0  0  0  0  0  0  0  0999 V2000
    4.3920    1.8551   20.1258 C   0  0  0  0  0  0  0  0  0  0  0  0
    4.0651    1.1029   19.0668 N   0  0  0  0  0  0  0  0  0  0  0  0
    3.8666    1.6121   17.8368 C   0  0  0  0  0  0  0  0  0  0  0  0
    4.0033    2.9568   17.6538 C   0  0  0  0  0  0  0  0  0  0  0  0
    3.8748    3.7756   16.5580 C   0  0  0  0  0  0  0  0  0  0  0  0
    4.1297    5.0173   16.9838 N   0  0  0  0  0  0  0  0  0  0  0  0
    4.4106    5.0483   18.2697 N   0  0  0  0  0  0  0  0  0  0  0  0
    4.3393    3.7630   18.7223 C   0  0  0  0  0  0  0  0  0  0  0  0
    4.5189    3.1818   19.9082 N   0  0  0  0  0  0  0  0  0  0  0  0
    3.5262    3.3937   15.1683 C   0  0  0  0  0  0  0  0  0  0  0  0
    3.9443    4.2001   14.1308 C   0  0  0  0  0  0  0  0  0  0  0  0
    3.6218    3.8497   12.8401 C   0  0  0  0  0  0  0  0  0  0  0  0
    2.8975    2.7255   12.5344 C   0  0  0  0  0  0  0  0  0  0  0  0
    2.4936    1.9393   13.5903 C   0  0  0  0  0  0  0  0  0  0  0  0
    2.8068    2.2717   14.9062 C   0  0  0  0  0  0  0  0  0  0  0  0
    2.5864    2.4056   11.1488 C   0  0  0  0  0  0  0  0  0  0  0  0
    2.9250    1.1876   10.5787 O   0  0  0  0  0  0  0  0  0  0  0  0
    1.9924    3.2424   10.4244 O   0  0  0  0  0  0  0  0  0  0  0  0
    3.7262    1.0609    9.9758 H   0  0  0  0  0  0  0  0  0  0  0  0
    4.5979    1.2933   21.4215 N   0  0  0  0  0  0  0  0  0  0  0  0
    5.3817    0.5808   21.5565 H   0  0  0  0  0  0  0  0  0  0  0  0
    3.8130    1.6238   22.5778 C   0  0  0  0  0  0  0  0  0  0  0  0
    4.4558    2.6323   23.4950 C   0  0  0  0  0  0  0  0  0  0  0  0
    4.1803    4.9828   22.7525 C   0  0  0  0  0  0  0  0  0  0  0  0
    3.6240    3.8756   23.6454 C   0  0  0  0  0  0  0  0  0  0  0  0
    4.7450    6.1623   19.1369 C   0  0  0  0  0  0  0  0  0  0  0  0
    6.1598    6.1651   19.6090 C   0  0  0  0  0  0  0  0  0  0  0  0
    7.0479    6.4974   18.4427 C   0  0  0  0  0  0  0  0  0  0  0  0
    7.9960    7.6329   18.7462 C   0  0  0  0  0  0  0  0  0  0  0  0
    7.2922    8.8607   19.2651 C   0  0  0  0  0  0  0  0  0  0  0  0
    8.2998    9.6966   19.8899 N   0  0  0  0  0  0  0  0  0  0  0  0
    6.2094    8.5660   20.2531 C   0  0  0  0  0  0  0  0  0  0  0  0
    6.3681    7.1331   20.7265 C   0  0  0  0  0  0  0  0  0  0  0  0
    8.7660    9.1770   20.6592 H   0  0  0  0  0  0  0  0  0  0  0  0
    7.8892   10.5914   20.2547 H   0  0  0  0  0  0  0  0  0  0  0  0
 24 25  1  0  0  0
 25 23  1  0  0  0
 23 22  1  0  0  0
 22 20  1  0  0  0
 20  1  1  0  0  0
  1  2  2  0  0  0
  2  3  1  0  0  0
  3  4  2  0  0  0
  4  5  1  0  0  0
  5  6  2  0  0  0
  6  7  1  0  0  0
  7 26  1  0  0  0
 26 27  1  0  0  0
 27 28  1  0  0  0
 28 29  1  0  0  0
 29 30  1  0  0  0
 30 31  1  0  0  0
 30 32  1  0  0  0
 32 33  1  0  0  0
  7  8  1  0  0  0
  8  9  2  0  0  0
  5 10  1  0  0  0
 10 11  2  0  0  0
 11 12  1  0  0  0
 12 13  2  0  0  0
 13 14  1  0  0  0
 14 15  2  0  0  0
 13 16  1  0  0  0
 16 17  1  0  0  0
 16 18  2  0  0  0
  9  1  1  0  0  0
 15 10  1  0  0  0
  8  4  1  0  0  0
 33 27  1  0  0  0
 20 21  1  0  0  0
 31 34  1  0  0  0
 31 35  1  0  0  0
 17 19  1  0  0  0
M  END
> <minimizedAffinity>
-7.99443

> <CNNscore>
0.3183712959

> <CNNaffinity>
6.6145906448

> <CNN_VS>
2.1058957577

> <CNNaffinity_variance>
0.6122537255

$$$$
[H]OC(=O)c1c([H])c([H])c(-c2nn(C([H])([H])[C@]3([H])C([H])([H])C([H])([H])[C@@]([H])(N([H])[H])C([H])([H])C3([H])[H])c3nc(N([H])C([H])([H])C([H])([H])C([H])([H])C([H])([H])[H])nc([H])c23)c([H])c1[H]


 35 38  0  0  0  0  0  0  0  0999 V2000
    4.7318    2.0593   20.1104 C   0  0  0  0  0  0  0  0  0  0  0  0
    4.6219    1.2588   19.0421 N   0  0  0  0  0  0  0  0  0  0  0  0
    4.1559    1.6812   17.8521 C   0  0  0  0  0  0  0  0  0  0  0  0
    3.7763    2.9847   17.7216 C   0  0  0  0  0  0  0  0  0  0  0  0
    3.2724    3.7182   16.6749 C   0  0  0  0  0  0  0  0  0  0  0  0
    3.0873    4.9586   17.1390 N   0  0  0  0  0  0  0  0  0  0  0  0
    3.4363    5.0677   18.4038 N   0  0  0  0  0  0  0  0  0  0  0  0
    3.8758    3.8386   18.8013 C   0  0  0  0  0  0  0  0  0  0  0  0
    4.3471    3.3431   19.9454 N   0  0  0  0  0  0  0  0  0  0  0  0
    2.9811    3.2600   15.2952 C   0  0  0  0  0  0  0  0  0  0  0  0
    2.0509    2.2594   15.1077 C   0  0  0  0  0  0  0  0  0  0  0  0
    1.7789    1.8308   13.8290 C   0  0  0  0  0  0  0  0  0  0  0  0
    2.3950    2.3571   12.7221 C   0  0  0  0  0  0  0  0  0  0  0  0
    3.3189    3.3546   12.9396 C   0  0  0  0  0  0  0  0  0  0  0  0
    3.6127    3.8065   14.2240 C   0  0  0  0  0  0  0  0  0  0  0  0
    2.0660    1.8630   11.3929 C   0  0  0  0  0  0  0  0  0  0  0  0
    0.7907    1.4312   11.0609 O   0  0  0  0  0  0  0  0  0  0  0  0
    2.9477    1.8159   10.4995 O   0  0  0  0  0  0  0  0  0  0  0  0
    0.5291    0.4560   11.0167 H   0  0  0  0  0  0  0  0  0  0  0  0
    5.2290    1.5895   21.3630 N   0  0  0  0  0  0  0  0  0  0  0  0
    4.8979    0.6419   21.7271 H   0  0  0  0  0  0  0  0  0  0  0  0
    6.1600    2.3124   22.1834 C   0  0  0  0  0  0  0  0  0  0  0  0
    5.7003    2.5233   23.6032 C   0  0  0  0  0  0  0  0  0  0  0  0
    4.0988    4.3981   23.3349 C   0  0  0  0  0  0  0  0  0  0  0  0
    4.2516    2.9180   23.6793 C   0  0  0  0  0  0  0  0  0  0  0  0
    3.4059    6.2107   19.2968 C   0  0  0  0  0  0  0  0  0  0  0  0
    4.4804    7.2132   19.0418 C   0  0  0  0  0  0  0  0  0  0  0  0
    3.8821    8.5876   19.1529 C   0  0  0  0  0  0  0  0  0  0  0  0
    4.6581    9.4791   20.0930 C   0  0  0  0  0  0  0  0  0  0  0  0
    4.8625    8.8601   21.4520 C   0  0  0  0  0  0  0  0  0  0  0  0
    5.9322    9.5964   22.0984 N   0  0  0  0  0  0  0  0  0  0  0  0
    5.2151    7.4077   21.4092 C   0  0  0  0  0  0  0  0  0  0  0  0
    5.6220    7.0539   19.9908 C   0  0  0  0  0  0  0  0  0  0  0  0
    6.7977    9.5422   21.5264 H   0  0  0  0  0  0  0  0  0  0  0  0
    6.1170    9.2399   23.0685 H   0  0  0  0  0  0  0  0  0  0  0  0
 24 25  1  0  0  0
 25 23  1  0  0  0
 23 22  1  0  0  0
 22 20  1  0  0  0
 20  1  1  0  0  0
  1  2  2  0  0  0
  2  3  1  0  0  0
  3  4  2  0  0  0
  4  5  1  0  0  0
  5  6  2  0  0  0
  6  7  1  0  0  0
  7 26  1  0  0  0
 26 27  1  0  0  0
 27 28  1  0  0  0
 28 29  1  0  0  0
 29 30  1  0  0  0
 30 31  1  0  0  0
 30 32  1  0  0  0
 32 33  1  0  0  0
  7  8  1  0  0  0
  8  9  2  0  0  0
  5 10  1  0  0  0
 10 11  2  0  0  0
 11 12  1  0  0  0
 12 13  2  0  0  0
 13 14  1  0  0  0
 14 15  2  0  0  0
 13 16  1  0  0  0
 16 17  1  0  0  0
 16 18  2  0  0  0
  9  1  1  0  0  0
 15 10  1  0  0  0
  8  4  1  0  0  0
 33 27  1  0  0  0
 20 21  1  0  0  0
 31 34  1  0  0  0
 31 35  1  0  0  0
 17 19  1  0  0  0
M  END
> <minimizedAffinity>
-8.62372

> <CNNscore>
0.3143511713

> <CNNaffinity>
6.7255487442

> <CNN_VS>
2.1141841412

> <CNNaffinity_variance>
0.6633405089

$$$$
[H]O[C@]1([H])C([H])([H])C([H])([H])[C@@]([H])(N([H])c2nc(N([H])c3c([H])c([H])c(C([H])([H])[H])c([H])c3[H])nc([H])c2-c2nc([H])c(C([H])([H])N3C([H])([H])C([H])([H])C([H])([H])C3([H])[H])c([H])c2[H])C([H])([H])C1([H])[H]


 37 41  0  0  0  0  0  0  0  0999 V2000
    3.1837    0.6318   18.2000 C   0  0  0  0  0  0  0  0  0  0  0  0
    2.5613    0.1570   17.1173 N   0  0  0  0  0  0  0  0  0  0  0  0
    2.5607    0.7592   15.9359 C   0  0  0  0  0  0  0  0  0  0  0  0
    3.2533    1.9873   15.7710 C   0  0  0  0  0  0  0  0  0  0  0  0
    3.8959    2.4843   16.8565 C   0  0  0  0  0  0  0  0  0  0  0  0
    3.8372    1.8014   18.0127 N   0  0  0  0  0  0  0  0  0  0  0  0
    3.1824    2.5485   14.4281 C   0  0  0  0  0  0  0  0  0  0  0  0
    2.5360    1.9830   13.3638 C   0  0  0  0  0  0  0  0  0  0  0  0
    2.6091    2.5656   12.0906 C   0  0  0  0  0  0  0  0  0  0  0  0
    3.3321    3.7132   11.8878 C   0  0  0  0  0  0  0  0  0  0  0  0
    3.9794    4.2732   12.9619 C   0  0  0  0  0  0  0  0  0  0  0  0
    3.8898    3.6957   14.1600 N   0  0  0  0  0  0  0  0  0  0  0  0
    3.4488    4.3666   10.5699 C   0  0  0  0  0  0  0  0  0  0  0  0
    4.7768    4.6923   10.1634 N   0  0  0  0  0  0  0  0  0  0  0  0
    5.5566    3.6246    9.6318 C   0  0  0  0  0  0  0  0  0  0  0  0
    5.3783    3.6794    8.1147 C   0  0  0  0  0  0  0  0  0  0  0  0
    5.3411    5.1708    7.8916 C   0  0  0  0  0  0  0  0  0  0  0  0
    4.6689    5.7007    9.1136 C   0  0  0  0  0  0  0  0  0  0  0  0
    3.1968    0.0099   19.4699 N   0  0  0  0  0  0  0  0  0  0  0  0
    2.7703   -0.9697   19.5113 H   0  0  0  0  0  0  0  0  0  0  0  0
    5.6413    2.2675   24.0963 C   0  0  0  0  0  0  0  0  0  0  0  0
    4.9489    1.6750   22.9252 C   0  0  0  0  0  0  0  0  0  0  0  0
    3.6163    1.3959   22.9154 C   0  0  0  0  0  0  0  0  0  0  0  0
    3.0036    0.8395   21.7954 C   0  0  0  0  0  0  0  0  0  0  0  0
    3.6941    0.5436   20.6514 C   0  0  0  0  0  0  0  0  0  0  0  0
    5.0654    0.8398   20.6856 C   0  0  0  0  0  0  0  0  0  0  0  0
    5.6688    1.3897   21.7945 C   0  0  0  0  0  0  0  0  0  0  0  0
    4.7194    3.6247   16.7690 N   0  0  0  0  0  0  0  0  0  0  0  0
    5.4299    3.7018   16.0454 H   0  0  0  0  0  0  0  0  0  0  0  0
    4.6613    4.7166   17.7234 C   0  0  0  0  0  0  0  0  0  0  0  0
    3.2867    5.2529   17.9618 C   0  0  0  0  0  0  0  0  0  0  0  0
    3.4687    6.5171   18.8171 C   0  0  0  0  0  0  0  0  0  0  0  0
    4.2771    6.2327   20.0583 C   0  0  0  0  0  0  0  0  0  0  0  0
    5.5662    6.7863   19.9645 O   0  0  0  0  0  0  0  0  0  0  0  0
    4.4534    4.7400   20.1999 C   0  0  0  0  0  0  0  0  0  0  0  0
    5.2663    4.2709   19.0147 C   0  0  0  0  0  0  0  0  0  0  0  0
    5.7822    7.1086   20.8949 H   0  0  0  0  0  0  0  0  0  0  0  0
 21 22  1  0  0  0
 22 23  2  0  0  0
 23 24  1  0  0  0
 24 25  2  0  0  0
 25 19  1  0  0  0
 19  1  1  0  0  0
  1  2  2  0  0  0
  2  3  1  0  0  0
  3  4  2  0  0  0
  4  5  1  0  0  0
  5 28  1  0  0  0
 28 30  1  0  0  0
 30 31  1  0  0  0
 31 32  1  0  0  0
 32 33  1  0  0  0
 33 34  1  0  0  0
 33 35  1  0  0  0
 35 36  1  0  0  0
  5  6  2  0  0  0
  4  7  1  0  0  0
  7  8  2  0  0  0
  8  9  1  0  0  0
  9 10  2  0  0  0
 10 13  1  0  0  0
 13 14  1  0  0  0
 14 15  1  0  0  0
 15 16  1  0  0  0
 16 17  1  0  0  0
 17 18  1  0  0  0
 10 11  1  0  0  0
 11 12  2  0  0  0
 25 26  1  0  0  0
 26 27  2  0  0  0
 27 22  1  0  0  0
  6  1  1  0  0  0
 12  7  1  0  0  0
 36 30  1  0  0  0
 18 14  1  0  0  0
 19 20  1  0  0  0
 28 29  1  0  0  0
 34 37  1  0  0  0
M  END
> <minimizedAffinity>
-8.71614

> <CNNscore>
0.9611024261

> <CNNaffinity>
7.6643724442

> <CNN_VS>
7.3662471771

> <CNNaffinity_variance>
0.0980906636

$$$$
[H]O[C@]1([H])C([H])([H])C([H])([H])[C@@]([H])(N([H])c2nc(N([H])c3c([H])c([H])c(C([H])([H])[H])c([H])c3[H])nc([H])c2-c2nc([H])c(C([H])([H])N3C([H])([H])C([H])([H])C([H])([H])C3([H])[H])c([H])c2[H])C([H])([H])C1([H])[H]


 37 41  0  0  0  0  0  0  0  0999 V2000
    3.2940    0.8728   18.1900 C   0  0  0  0  0  0  0  0  0  0  0  0
    2.7328    0.3346   17.1036 N   0  0  0  0  0  0  0  0  0  0  0  0
    2.5754    0.9748   15.9531 C   0  0  0  0  0  0  0  0  0  0  0  0
    3.0180    2.3177   15.8282 C   0  0  0  0  0  0  0  0  0  0  0  0
    3.5951    2.8816   16.9178 C   0  0  0  0  0  0  0  0  0  0  0  0
    3.7084    2.1520   18.0409 N   0  0  0  0  0  0  0  0  0  0  0  0
    2.7935    2.9112   14.5163 C   0  0  0  0  0  0  0  0  0  0  0  0
    2.9134    2.2611   13.3192 C   0  0  0  0  0  0  0  0  0  0  0  0
    2.7626    2.9548   12.1101 C   0  0  0  0  0  0  0  0  0  0  0  0
    2.4936    4.2996   12.1050 C   0  0  0  0  0  0  0  0  0  0  0  0
    2.3765    4.9446   13.3119 C   0  0  0  0  0  0  0  0  0  0  0  0
    2.5245    4.2568   14.4441 N   0  0  0  0  0  0  0  0  0  0  0  0
    2.3306    5.0813   10.8642 C   0  0  0  0  0  0  0  0  0  0  0  0
    1.1690    4.7743   10.0951 N   0  0  0  0  0  0  0  0  0  0  0  0
   -0.0728    4.7773   10.7940 C   0  0  0  0  0  0  0  0  0  0  0  0
   -0.6631    6.1752   10.6103 C   0  0  0  0  0  0  0  0  0  0  0  0
   -0.2525    6.4670    9.1884 C   0  0  0  0  0  0  0  0  0  0  0  0
    1.0677    5.7865    9.0483 C   0  0  0  0  0  0  0  0  0  0  0  0
    3.4706    0.2120   19.4276 N   0  0  0  0  0  0  0  0  0  0  0  0
    3.0770   -0.7806   19.4840 H   0  0  0  0  0  0  0  0  0  0  0  0
    5.6014    2.2481   24.3051 C   0  0  0  0  0  0  0  0  0  0  0  0
    5.1057    1.7246   23.0081 C   0  0  0  0  0  0  0  0  0  0  0  0
    5.9198    1.4987   21.9404 C   0  0  0  0  0  0  0  0  0  0  0  0
    5.4152    1.0063   20.7394 C   0  0  0  0  0  0  0  0  0  0  0  0
    4.0882    0.7227   20.5615 C   0  0  0  0  0  0  0  0  0  0  0  0
    3.2694    0.9637   21.6755 C   0  0  0  0  0  0  0  0  0  0  0  0
    3.7709    1.4509   22.8617 C   0  0  0  0  0  0  0  0  0  0  0  0
    4.1854    4.1601   16.8622 N   0  0  0  0  0  0  0  0  0  0  0  0
    4.5023    4.5513   15.9784 H   0  0  0  0  0  0  0  0  0  0  0  0
    4.4403    4.9649   18.0428 C   0  0  0  0  0  0  0  0  0  0  0  0
    5.7685    5.6504   18.0450 C   0  0  0  0  0  0  0  0  0  0  0  0
    5.9278    6.2586   19.4477 C   0  0  0  0  0  0  0  0  0  0  0  0
    4.7498    7.1281   19.8100 C   0  0  0  0  0  0  0  0  0  0  0  0
    3.9395    6.5101   20.7789 O   0  0  0  0  0  0  0  0  0  0  0  0
    3.8894    7.3269   18.5854 C   0  0  0  0  0  0  0  0  0  0  0  0
    3.3464    5.9711   18.1950 C   0  0  0  0  0  0  0  0  0  0  0  0
    3.6254    7.2595   21.3755 H   0  0  0  0  0  0  0  0  0  0  0  0
 21 22  1  0  0  0
 22 23  2  0  0  0
 23 24  1  0  0  0
 24 25  2  0  0  0
 25 19  1  0  0  0
 19  1  1  0  0  0
  1  2  2  0  0  0
  2  3  1  0  0  0
  3  4  2  0  0  0
  4  5  1  0  0  0
  5 28  1  0  0  0
 28 30  1  0  0  0
 30 31  1  0  0  0
 31 32  1  0  0  0
 32 33  1  0  0  0
 33 34  1  0  0  0
 33 35  1  0  0  0
 35 36  1  0  0  0
  5  6  2  0  0  0
  4  7  1  0  0  0
  7  8  2  0  0  0
  8  9  1  0  0  0
  9 10  2  0  0  0
 10 13  1  0  0  0
 13 14  1  0  0  0
 14 15  1  0  0  0
 15 16  1  0  0  0
 16 17  1  0  0  0
 17 18  1  0  0  0
 10 11  1  0  0  0
 11 12  2  0  0  0
 25 26  1  0  0  0
 26 27  2  0  0  0
 27 22  1  0  0  0
  6  1  1  0  0  0
 12  7  1  0  0  0
 36 30  1  0  0  0
 18 14  1  0  0  0
 19 20  1  0  0  0
 28 29  1  0  0  0
 34 37  1  0  0  0
M  END
> <minimizedAffinity>
-8.75193

> <CNNscore>
0.9086247087

> <CNNaffinity>
7.5501036644

> <CNN_VS>
6.8602108955

> <CNNaffinity_variance>
0.1649018675

$$$$
[H]O[C@]1([H])C([H])([H])C([H])([H])[C@@]([H])(N([H])c2nc(N([H])c3c([H])c([H])c(C([H])([H])[H])c([H])c3[H])nc([H])c2-c2nc([H])c(C([H])([H])N3C([H])([H])C([H])([H])C([H])([H])C3([H])[H])c([H])c2[H])C([H])([H])C1([H])[H]


 37 41  0  0  0  0  0  0  0  0999 V2000
    3.3672    0.9366   18.0030 C   0  0  0  0  0  0  0  0  0  0  0  0
    2.6982    0.4726   16.9437 N   0  0  0  0  0  0  0  0  0  0  0  0
    2.5571    1.1359   15.8042 C   0  0  0  0  0  0  0  0  0  0  0  0
    3.1387    2.4230   15.6619 C   0  0  0  0  0  0  0  0  0  0  0  0
    3.8264    2.9107   16.7238 C   0  0  0  0  0  0  0  0  0  0  0  0
    3.9126    2.1636   17.8377 N   0  0  0  0  0  0  0  0  0  0  0  0
    2.9180    3.0486   14.3644 C   0  0  0  0  0  0  0  0  0  0  0  0
    2.9569    2.4082   13.1567 C   0  0  0  0  0  0  0  0  0  0  0  0
    2.8198    3.1273   11.9609 C   0  0  0  0  0  0  0  0  0  0  0  0
    2.6458    4.4875   11.9796 C   0  0  0  0  0  0  0  0  0  0  0  0
    2.6097    5.1226   13.1969 C   0  0  0  0  0  0  0  0  0  0  0  0
    2.7422    4.4106   14.3160 N   0  0  0  0  0  0  0  0  0  0  0  0
    2.5018    5.2957   10.7534 C   0  0  0  0  0  0  0  0  0  0  0  0
    3.0041    6.6284   10.8360 N   0  0  0  0  0  0  0  0  0  0  0  0
    4.3093    6.8475   10.3076 C   0  0  0  0  0  0  0  0  0  0  0  0
    4.1137    7.3091    8.8637 C   0  0  0  0  0  0  0  0  0  0  0  0
    2.8776    8.1616    9.0080 C   0  0  0  0  0  0  0  0  0  0  0  0
    2.0922    7.4783   10.0767 C   0  0  0  0  0  0  0  0  0  0  0  0
    3.5292    0.2500   19.2284 N   0  0  0  0  0  0  0  0  0  0  0  0
    3.1651   -0.7552   19.2489 H   0  0  0  0  0  0  0  0  0  0  0  0
    5.4610    2.2147   24.2168 C   0  0  0  0  0  0  0  0  0  0  0  0
    5.0172    1.7135   22.8925 C   0  0  0  0  0  0  0  0  0  0  0  0
    5.8624    1.5645   21.8354 C   0  0  0  0  0  0  0  0  0  0  0  0
    5.4064    1.0906   20.6079 C   0  0  0  0  0  0  0  0  0  0  0  0
    4.0986    0.7498   20.3920 C   0  0  0  0  0  0  0  0  0  0  0  0
    3.2471    0.9121   21.4956 C   0  0  0  0  0  0  0  0  0  0  0  0
    3.7006    1.3812   22.7083 C   0  0  0  0  0  0  0  0  0  0  0  0
    4.5509    4.1168   16.6433 N   0  0  0  0  0  0  0  0  0  0  0  0
    5.0504    4.3707   15.7944 H   0  0  0  0  0  0  0  0  0  0  0  0
    4.6903    5.0312   17.7618 C   0  0  0  0  0  0  0  0  0  0  0  0
    6.0074    5.7353   17.8202 C   0  0  0  0  0  0  0  0  0  0  0  0
    6.0328    6.4729   19.1687 C   0  0  0  0  0  0  0  0  0  0  0  0
    4.8199    7.3529   19.3400 C   0  0  0  0  0  0  0  0  0  0  0  0
    3.9290    6.8139   20.2850 O   0  0  0  0  0  0  0  0  0  0  0  0
    4.0739    7.4239   18.0294 C   0  0  0  0  0  0  0  0  0  0  0  0
    3.5794    6.0292   17.7197 C   0  0  0  0  0  0  0  0  0  0  0  0
    3.5557    7.6100   20.7782 H   0  0  0  0  0  0  0  0  0  0  0  0
 21 22  1  0  0  0
 22 23  2  0  0  0
 23 24  1  0  0  0
 24 25  2  0  0  0
 25 19  1  0  0  0
 19  1  1  0  0  0
  1  2  2  0  0  0
  2  3  1  0  0  0
  3  4  2  0  0  0
  4  5  1  0  0  0
  5 28  1  0  0  0
 28 30  1  0  0  0
 30 31  1  0  0  0
 31 32  1  0  0  0
 32 33  1  0  0  0
 33 34  1  0  0  0
 33 35  1  0  0  0
 35 36  1  0  0  0
  5  6  2  0  0  0
  4  7  1  0  0  0
  7  8  2  0  0  0
  8  9  1  0  0  0
  9 10  2  0  0  0
 10 13  1  0  0  0
 13 14  1  0  0  0
 14 15  1  0  0  0
 15 16  1  0  0  0
 16 17  1  0  0  0
 17 18  1  0  0  0
 10 11  1  0  0  0
 11 12  2  0  0  0
 25 26  1  0  0  0
 26 27  2  0  0  0
 27 22  1  0  0  0
  6  1  1  0  0  0
 12  7  1  0  0  0
 36 30  1  0  0  0
 18 14  1  0  0  0
 19 20  1  0  0  0
 28 29  1  0  0  0
 34 37  1  0  0  0
M  END
> <minimizedAffinity>
-8.66150

> <CNNscore>
0.9074823260

> <CNNaffinity>
7.4937233925

> <CNN_VS>
6.8004217148

> <CNNaffinity_variance>
0.1539647579

$$$$
[H]O[C@]1([H])C([H])([H])C([H])([H])[C@@]([H])(N([H])c2nc(N([H])c3c([H])c([H])c(C([H])([H])[H])c([H])c3[H])nc([H])c2-c2nc([H])c(C([H])([H])N3C([H])([H])C([H])([H])C([H])([H])C3([H])[H])c([H])c2[H])C([H])([H])C1([H])[H]


 37 41  0  0  0  0  0  0  0  0999 V2000
    3.6341    1.7006   17.8288 C   0  0  0  0  0  0  0  0  0  0  0  0
    3.4244    1.3823   16.5482 N   0  0  0  0  0  0  0  0  0  0  0  0
    3.3919    2.2640   15.5583 C   0  0  0  0  0  0  0  0  0  0  0  0
    3.5876    3.6422   15.8362 C   0  0  0  0  0  0  0  0  0  0  0  0
    3.8069    3.9865   17.1291 C   0  0  0  0  0  0  0  0  0  0  0  0
    3.8199    3.0200   18.0631 N   0  0  0  0  0  0  0  0  0  0  0  0
    3.5331    4.5106   14.6672 C   0  0  0  0  0  0  0  0  0  0  0  0
    3.9884    4.1908   13.4180 C   0  0  0  0  0  0  0  0  0  0  0  0
    3.9690    5.1387   12.3851 C   0  0  0  0  0  0  0  0  0  0  0  0
    3.4944    6.4059   12.6085 C   0  0  0  0  0  0  0  0  0  0  0  0
    3.0408    6.7188   13.8665 C   0  0  0  0  0  0  0  0  0  0  0  0
    3.0716    5.7951   14.8271 N   0  0  0  0  0  0  0  0  0  0  0  0
    3.4554    7.4451   11.5616 C   0  0  0  0  0  0  0  0  0  0  0  0
    3.3458    6.9625   10.2236 N   0  0  0  0  0  0  0  0  0  0  0  0
    2.1642    7.3248    9.5141 C   0  0  0  0  0  0  0  0  0  0  0  0
    2.5073    8.5922    8.7317 C   0  0  0  0  0  0  0  0  0  0  0  0
    3.9301    8.2949    8.3284 C   0  0  0  0  0  0  0  0  0  0  0  0
    4.4730    7.5112    9.4760 C   0  0  0  0  0  0  0  0  0  0  0  0
    3.6708    0.7799   18.9012 N   0  0  0  0  0  0  0  0  0  0  0  0
    3.4239   -0.2307   18.6540 H   0  0  0  0  0  0  0  0  0  0  0  0
    5.3423    2.1261   24.1805 C   0  0  0  0  0  0  0  0  0  0  0  0
    4.8520    1.7511   22.8310 C   0  0  0  0  0  0  0  0  0  0  0  0
    3.6136    1.2295   22.6111 C   0  0  0  0  0  0  0  0  0  0  0  0
    3.1908    0.8902   21.3283 C   0  0  0  0  0  0  0  0  0  0  0  0
    3.9832    1.0585   20.2252 C   0  0  0  0  0  0  0  0  0  0  0  0
    5.2544    1.5970   20.4770 C   0  0  0  0  0  0  0  0  0  0  0  0
    5.6701    1.9314   21.7465 C   0  0  0  0  0  0  0  0  0  0  0  0
    4.1421    5.3054   17.4953 N   0  0  0  0  0  0  0  0  0  0  0  0
    4.2181    6.0389   16.7947 H   0  0  0  0  0  0  0  0  0  0  0  0
    4.4625    5.6903   18.8575 C   0  0  0  0  0  0  0  0  0  0  0  0
    5.9269    5.7703   19.1460 C   0  0  0  0  0  0  0  0  0  0  0  0
    6.0479    5.9738   20.6648 C   0  0  0  0  0  0  0  0  0  0  0  0
    5.2307    7.1527   21.1312 C   0  0  0  0  0  0  0  0  0  0  0  0
    4.0911    6.7338   21.8405 O   0  0  0  0  0  0  0  0  0  0  0  0
    4.7371    7.9171   19.9264 C   0  0  0  0  0  0  0  0  0  0  0  0
    3.8099    6.9991   19.1629 C   0  0  0  0  0  0  0  0  0  0  0  0
    3.9757    7.4125   22.5768 H   0  0  0  0  0  0  0  0  0  0  0  0
 21 22  1  0  0  0
 22 23  2  0  0  0
 23 24  1  0  0  0
 24 25  2  0  0  0
 25 19  1  0  0  0
 19  1  1  0  0  0
  1  2  2  0  0  0
  2  3  1  0  0  0
  3  4  2  0  0  0
  4  5  1  0  0  0
  5 28  1  0  0  0
 28 30  1  0  0  0
 30 31  1  0  0  0
 31 32  1  0  0  0
 32 33  1  0  0  0
 33 34  1  0  0  0
 33 35  1  0  0  0
 35 36  1  0  0  0
  5  6  2  0  0  0
  4  7  1  0  0  0
  7  8  2  0  0  0
  8  9  1  0  0  0
  9 10  2  0  0  0
 10 13  1  0  0  0
 13 14  1  0  0  0
 14 15  1  0  0  0
 15 16  1  0  0  0
 16 17  1  0  0  0
 17 18  1  0  0  0
 10 11  1  0  0  0
 11 12  2  0  0  0
 25 26  1  0  0  0
 26 27  2  0  0  0
 27 22  1  0  0  0
  6  1  1  0  0  0
 12  7  1  0  0  0
 36 30  1  0  0  0
 18 14  1  0  0  0
 19 20  1  0  0  0
 28 29  1  0  0  0
 34 37  1  0  0  0
M  END
> <minimizedAffinity>
-9.10230

> <CNNscore>
0.4578924775

> <CNNaffinity>
6.9383606911

> <CNN_VS>
3.1770231724

> <CNNaffinity_variance>
0.2748307884

$$$$
[H]O[C@]1([H])C([H])([H])C([H])([H])[C@@]([H])(N([H])c2nc(N([H])c3c([H])c([H])c(C([H])([H])[H])c([H])c3[H])nc([H])c2-c2nc([H])c(C([H])([H])N3C([H])([H])C([H])([H])C([H])([H])C3([H])[H])c([H])c2[H])C([H])([H])C1([H])[H]


 37 41  0  0  0  0  0  0  0  0999 V2000
    3.7909    2.0374   17.4548 C   0  0  0  0  0  0  0  0  0  0  0  0
    2.7238    1.7253   16.7140 N   0  0  0  0  0  0  0  0  0  0  0  0
    2.2069    2.5165   15.7838 C   0  0  0  0  0  0  0  0  0  0  0  0
    2.7958    3.7828   15.5297 C   0  0  0  0  0  0  0  0  0  0  0  0
    3.8831    4.1174   16.2675 C   0  0  0  0  0  0  0  0  0  0  0  0
    4.3325    3.2484   17.1891 N   0  0  0  0  0  0  0  0  0  0  0  0
    2.1409    4.5578   14.4838 C   0  0  0  0  0  0  0  0  0  0  0  0
    1.3870    5.6815   14.6815 C   0  0  0  0  0  0  0  0  0  0  0  0
    0.7260    6.2973   13.6093 C   0  0  0  0  0  0  0  0  0  0  0  0
    0.8214    5.7831   12.3415 C   0  0  0  0  0  0  0  0  0  0  0  0
    1.5793    4.6533   12.1525 C   0  0  0  0  0  0  0  0  0  0  0  0
    2.1962    4.0918   13.1922 N   0  0  0  0  0  0  0  0  0  0  0  0
    0.1435    6.3854   11.1774 C   0  0  0  0  0  0  0  0  0  0  0  0
   -0.5446    5.4689   10.3278 N   0  0  0  0  0  0  0  0  0  0  0  0
   -1.7073    4.8507   10.8724 C   0  0  0  0  0  0  0  0  0  0  0  0
   -2.8928    5.7112   10.4362 C   0  0  0  0  0  0  0  0  0  0  0  0
   -2.4587    6.0999    9.0448 C   0  0  0  0  0  0  0  0  0  0  0  0
   -0.9751    6.2162    9.1502 C   0  0  0  0  0  0  0  0  0  0  0  0
    4.3586    1.2126   18.4532 N   0  0  0  0  0  0  0  0  0  0  0  0
    4.6720    0.2425   18.1308 H   0  0  0  0  0  0  0  0  0  0  0  0
    4.7638    2.2105   24.0493 C   0  0  0  0  0  0  0  0  0  0  0  0
    4.7070    1.9930   22.5825 C   0  0  0  0  0  0  0  0  0  0  0  0
    5.5937    2.5549   21.7152 C   0  0  0  0  0  0  0  0  0  0  0  0
    5.5064    2.3259   20.3444 C   0  0  0  0  0  0  0  0  0  0  0  0
    4.5374    1.5324   19.7925 C   0  0  0  0  0  0  0  0  0  0  0  0
    3.6355    0.9649   20.7058 C   0  0  0  0  0  0  0  0  0  0  0  0
    3.7240    1.1933   22.0609 C   0  0  0  0  0  0  0  0  0  0  0  0
    4.6201    5.2899   16.0064 N   0  0  0  0  0  0  0  0  0  0  0  0
    5.0858    5.4261   15.1124 H   0  0  0  0  0  0  0  0  0  0  0  0
    4.8206    6.3338   16.9945 C   0  0  0  0  0  0  0  0  0  0  0  0
    3.7102    6.4634   17.9865 C   0  0  0  0  0  0  0  0  0  0  0  0
    4.0086    7.7391   18.7906 C   0  0  0  0  0  0  0  0  0  0  0  0
    5.3989    7.7115   19.3748 C   0  0  0  0  0  0  0  0  0  0  0  0
    6.2515    8.6051   18.7028 O   0  0  0  0  0  0  0  0  0  0  0  0
    5.9828    6.3313   19.1913 C   0  0  0  0  0  0  0  0  0  0  0  0
    6.1135    6.0947   17.7039 C   0  0  0  0  0  0  0  0  0  0  0  0
    6.8483    8.9880   19.4193 H   0  0  0  0  0  0  0  0  0  0  0  0
 21 22  1  0  0  0
 22 23  2  0  0  0
 23 24  1  0  0  0
 24 25  2  0  0  0
 25 19  1  0  0  0
 19  1  1  0  0  0
  1  2  2  0  0  0
  2  3  1  0  0  0
  3  4  2  0  0  0
  4  5  1  0  0  0
  5 28  1  0  0  0
 28 30  1  0  0  0
 30 31  1  0  0  0
 31 32  1  0  0  0
 32 33  1  0  0  0
 33 34  1  0  0  0
 33 35  1  0  0  0
 35 36  1  0  0  0
  5  6  2  0  0  0
  4  7  1  0  0  0
  7  8  2  0  0  0
  8  9  1  0  0  0
  9 10  2  0  0  0
 10 13  1  0  0  0
 13 14  1  0  0  0
 14 15  1  0  0  0
 15 16  1  0  0  0
 16 17  1  0  0  0
 17 18  1  0  0  0
 10 11  1  0  0  0
 11 12  2  0  0  0
 25 26  1  0  0  0
 26 27  2  0  0  0
 27 22  1  0  0  0
  6  1  1  0  0  0
 12  7  1  0  0  0
 36 30  1  0  0  0
 18 14  1  0  0  0
 19 20  1  0  0  0
 28 29  1  0  0  0
 34 37  1  0  0  0
M  END
> <minimizedAffinity>
-8.18336

> <CNNscore>
0.4355713129

> <CNNaffinity>
6.7665276527

> <CNN_VS>
2.9473054409

> <CNNaffinity_variance>
0.2473155707

$$$$
[H]O[C@]1([H])C([H])([H])C([H])([H])[C@@]([H])(N([H])c2nc(N([H])c3c([H])c([H])c(C([H])([H])[H])c([H])c3[H])nc([H])c2-c2nc([H])c(C([H])([H])N3C([H])([H])C([H])([H])C([H])([H])C3([H])[H])c([H])c2[H])C([H])([H])C1([H])[H]


 37 41  0  0  0  0  0  0  0  0999 V2000
    3.7030    2.1080   17.6865 C   0  0  0  0  0  0  0  0  0  0  0  0
    3.6419    1.8963   16.3687 N   0  0  0  0  0  0  0  0  0  0  0  0
    3.3720    2.8387   15.4758 C   0  0  0  0  0  0  0  0  0  0  0  0
    3.1266    4.1685   15.9076 C   0  0  0  0  0  0  0  0  0  0  0  0
    3.1886    4.4060   17.2410 C   0  0  0  0  0  0  0  0  0  0  0  0
    3.4677    3.3842   18.0684 N   0  0  0  0  0  0  0  0  0  0  0  0
    2.8456    5.1130   14.8341 C   0  0  0  0  0  0  0  0  0  0  0  0
    3.7374    5.5207   13.8809 C   0  0  0  0  0  0  0  0  0  0  0  0
    3.3860    6.5056   12.9469 C   0  0  0  0  0  0  0  0  0  0  0  0
    2.1411    7.0805   12.9727 C   0  0  0  0  0  0  0  0  0  0  0  0
    1.2525    6.6662   13.9346 C   0  0  0  0  0  0  0  0  0  0  0  0
    1.6166    5.7271   14.8078 N   0  0  0  0  0  0  0  0  0  0  0  0
    1.7186    8.1245   12.0194 C   0  0  0  0  0  0  0  0  0  0  0  0
    1.1176    7.6482   10.8164 N   0  0  0  0  0  0  0  0  0  0  0  0
    1.9399    7.6520    9.6526 C   0  0  0  0  0  0  0  0  0  0  0  0
    2.5610    6.2582    9.5636 C   0  0  0  0  0  0  0  0  0  0  0  0
    1.4085    5.4082   10.0377 C   0  0  0  0  0  0  0  0  0  0  0  0
    0.7253    6.2622   11.0525 C   0  0  0  0  0  0  0  0  0  0  0  0
    3.9863    1.1200   18.6576 N   0  0  0  0  0  0  0  0  0  0  0  0
    4.0390    0.1152   18.2958 H   0  0  0  0  0  0  0  0  0  0  0  0
    5.2015    2.2079   24.1180 C   0  0  0  0  0  0  0  0  0  0  0  0
    4.8313    1.8933   22.7159 C   0  0  0  0  0  0  0  0  0  0  0  0
    3.6646    1.2779   22.3778 C   0  0  0  0  0  0  0  0  0  0  0  0
    3.3539    1.0000   21.0491 C   0  0  0  0  0  0  0  0  0  0  0  0
    4.1906    1.3243   20.0157 C   0  0  0  0  0  0  0  0  0  0  0  0
    5.3863    1.9572   20.3889 C   0  0  0  0  0  0  0  0  0  0  0  0
    5.6911    2.2307   21.7036 C   0  0  0  0  0  0  0  0  0  0  0  0
    3.0913    5.7112   17.7637 N   0  0  0  0  0  0  0  0  0  0  0  0
    2.5526    6.4277   17.2831 H   0  0  0  0  0  0  0  0  0  0  0  0
    3.7914    6.1371   18.9616 C   0  0  0  0  0  0  0  0  0  0  0  0
    5.2359    5.7548   18.9986 C   0  0  0  0  0  0  0  0  0  0  0  0
    5.7279    6.0989   20.4137 C   0  0  0  0  0  0  0  0  0  0  0  0
    5.4286    7.5339   20.7690 C   0  0  0  0  0  0  0  0  0  0  0  0
    4.3900    7.6187   21.7131 O   0  0  0  0  0  0  0  0  0  0  0  0
    4.9534    8.2585   19.5327 C   0  0  0  0  0  0  0  0  0  0  0  0
    3.6511    7.6170   19.1106 C   0  0  0  0  0  0  0  0  0  0  0  0
    4.6451    8.3852   22.3162 H   0  0  0  0  0  0  0  0  0  0  0  0
 21 22  1  0  0  0
 22 23  2  0  0  0
 23 24  1  0  0  0
 24 25  2  0  0  0
 25 19  1  0  0  0
 19  1  1  0  0  0
  1  2  2  0  0  0
  2  3  1  0  0  0
  3  4  2  0  0  0
  4  5  1  0  0  0
  5 28  1  0  0  0
 28 30  1  0  0  0
 30 31  1  0  0  0
 31 32  1  0  0  0
 32 33  1  0  0  0
 33 34  1  0  0  0
 33 35  1  0  0  0
 35 36  1  0  0  0
  5  6  2  0  0  0
  4  7  1  0  0  0
  7  8  2  0  0  0
  8  9  1  0  0  0
  9 10  2  0  0  0
 10 13  1  0  0  0
 13 14  1  0  0  0
 14 15  1  0  0  0
 15 16  1  0  0  0
 16 17  1  0  0  0
 17 18  1  0  0  0
 10 11  1  0  0  0
 11 12  2  0  0  0
 25 26  1  0  0  0
 26 27  2  0  0  0
 27 22  1  0  0  0
  6  1  1  0  0  0
 12  7  1  0  0  0
 36 30  1  0  0  0
 18 14  1  0  0  0
 19 20  1  0  0  0
 28 29  1  0  0  0
 34 37  1  0  0  0
M  END
> <minimizedAffinity>
-8.93997

> <CNNscore>
0.2699243426

> <CNNaffinity>
6.7731733322

> <CNN_VS>
1.8282443285

> <CNNaffinity_variance>
0.3212830424

$$$$
[H]O[C@]1([H])C([H])([H])C([H])([H])[C@@]([H])(N([H])c2nc(N([H])c3c([H])c([H])c(C([H])([H])[H])c([H])c3[H])nc([H])c2-c2nc([H])c(C([H])([H])N3C([H])([H])C([H])([H])C([H])([H])C3([H])[H])c([H])c2[H])C([H])([H])C1([H])[H]


 37 41  0  0  0  0  0  0  0  0999 V2000
    3.7104    2.2395   17.5513 C   0  0  0  0  0  0  0  0  0  0  0  0
    4.1490    3.5012   17.5796 N   0  0  0  0  0  0  0  0  0  0  0  0
    3.7755    4.4379   16.7185 C   0  0  0  0  0  0  0  0  0  0  0  0
    2.8533    4.1193   15.6875 C   0  0  0  0  0  0  0  0  0  0  0  0
    2.3919    2.8451   15.6437 C   0  0  0  0  0  0  0  0  0  0  0  0
    2.8312    1.9657   16.5603 N   0  0  0  0  0  0  0  0  0  0  0  0
    2.5182    5.2318   14.8079 C   0  0  0  0  0  0  0  0  0  0  0  0
    1.2687    5.7605   14.6364 C   0  0  0  0  0  0  0  0  0  0  0  0
    1.0438    6.7735   13.6935 C   0  0  0  0  0  0  0  0  0  0  0  0
    2.0727    7.2523   12.9235 C   0  0  0  0  0  0  0  0  0  0  0  0
    3.3239    6.7143   13.1013 C   0  0  0  0  0  0  0  0  0  0  0  0
    3.5055    5.7529   14.0066 N   0  0  0  0  0  0  0  0  0  0  0  0
    1.8935    8.3122   11.9127 C   0  0  0  0  0  0  0  0  0  0  0  0
    1.4724    7.8654   10.6250 N   0  0  0  0  0  0  0  0  0  0  0  0
    2.3364    8.1719    9.5340 C   0  0  0  0  0  0  0  0  0  0  0  0
    3.2424    6.9546    9.3513 C   0  0  0  0  0  0  0  0  0  0  0  0
    2.2725    5.8377    9.6467 C   0  0  0  0  0  0  0  0  0  0  0  0
    1.3705    6.4106   10.6879 C   0  0  0  0  0  0  0  0  0  0  0  0
    4.0954    1.2232   18.4559 N   0  0  0  0  0  0  0  0  0  0  0  0
    4.3165    0.2725   18.0192 H   0  0  0  0  0  0  0  0  0  0  0  0
    4.8848    1.9930   24.0470 C   0  0  0  0  0  0  0  0  0  0  0  0
    4.6294    1.7528   22.6051 C   0  0  0  0  0  0  0  0  0  0  0  0
    3.5760    1.0190   22.1514 C   0  0  0  0  0  0  0  0  0  0  0  0
    3.3708    0.8166   20.7889 C   0  0  0  0  0  0  0  0  0  0  0  0
    4.2040    1.3363   19.8356 C   0  0  0  0  0  0  0  0  0  0  0  0
    5.2821    2.0882   20.3273 C   0  0  0  0  0  0  0  0  0  0  0  0
    5.4827    2.2865   21.6751 C   0  0  0  0  0  0  0  0  0  0  0  0
    1.3777    2.4577   14.7452 N   0  0  0  0  0  0  0  0  0  0  0  0
    0.4204    2.3267   15.0627 H   0  0  0  0  0  0  0  0  0  0  0  0
    1.6318    2.1581   13.3479 C   0  0  0  0  0  0  0  0  0  0  0  0
    0.8399    2.9855   12.3876 C   0  0  0  0  0  0  0  0  0  0  0  0
    1.0879    2.3745   10.9990 C   0  0  0  0  0  0  0  0  0  0  0  0
    2.5619    2.2663   10.6982 C   0  0  0  0  0  0  0  0  0  0  0  0
    2.9954    0.9296   10.7487 O   0  0  0  0  0  0  0  0  0  0  0  0
    3.3366    3.0154   11.7556 C   0  0  0  0  0  0  0  0  0  0  0  0
    3.0918    2.3129   13.0717 C   0  0  0  0  0  0  0  0  0  0  0  0
    3.6787    0.8469   10.0122 H   0  0  0  0  0  0  0  0  0  0  0  0
 21 22  1  0  0  0
 22 23  2  0  0  0
 23 24  1  0  0  0
 24 25  2  0  0  0
 25 19  1  0  0  0
 19  1  1  0  0  0
  1  2  2  0  0  0
  2  3  1  0  0  0
  3  4  2  0  0  0
  4  5  1  0  0  0
  5 28  1  0  0  0
 28 30  1  0  0  0
 30 31  1  0  0  0
 31 32  1  0  0  0
 32 33  1  0  0  0
 33 34  1  0  0  0
 33 35  1  0  0  0
 35 36  1  0  0  0
  5  6  2  0  0  0
  4  7  1  0  0  0
  7  8  2  0  0  0
  8  9  1  0  0  0
  9 10  2  0  0  0
 10 13  1  0  0  0
 13 14  1  0  0  0
 14 15  1  0  0  0
 15 16  1  0  0  0
 16 17  1  0  0  0
 17 18  1  0  0  0
 10 11  1  0  0  0
 11 12  2  0  0  0
 25 26  1  0  0  0
 26 27  2  0  0  0
 27 22  1  0  0  0
  6  1  1  0  0  0
 12  7  1  0  0  0
 36 30  1  0  0  0
 18 14  1  0  0  0
 19 20  1  0  0  0
 28 29  1  0  0  0
 34 37  1  0  0  0
M  END
> <minimizedAffinity>
-7.58271

> <CNNscore>
0.2379195094

> <CNNaffinity>
6.5621910095

> <CNN_VS>
1.5612732172

> <CNNaffinity_variance>
0.1075297371

$$$$
[H]O[C@]1([H])C([H])([H])C([H])([H])[C@@]([H])(N([H])c2nc(N([H])c3c([H])c([H])c(C([H])([H])[H])c([H])c3[H])nc([H])c2-c2nc([H])c(C([H])([H])N3C([H])([H])C([H])([H])C([H])([H])C3([H])[H])c([H])c2[H])C([H])([H])C1([H])[H]


 37 41  0  0  0  0  0  0  0  0999 V2000
    4.9048    3.8754   19.5558 C   0  0  0  0  0  0  0  0  0  0  0  0
    4.7983    2.9487   18.5992 N   0  0  0  0  0  0  0  0  0  0  0  0
    4.1836    3.1431   17.4405 C   0  0  0  0  0  0  0  0  0  0  0  0
    3.5887    4.4012   17.1613 C   0  0  0  0  0  0  0  0  0  0  0  0
    3.6895    5.3577   18.1170 C   0  0  0  0  0  0  0  0  0  0  0  0
    4.3311    5.0646   19.2611 N   0  0  0  0  0  0  0  0  0  0  0  0
    2.9475    4.4930   15.8559 C   0  0  0  0  0  0  0  0  0  0  0  0
    3.3691    3.8632   14.7176 C   0  0  0  0  0  0  0  0  0  0  0  0
    2.7282    4.0950   13.4924 C   0  0  0  0  0  0  0  0  0  0  0  0
    1.6668    4.9598   13.4117 C   0  0  0  0  0  0  0  0  0  0  0  0
    1.2512    5.5893   14.5596 C   0  0  0  0  0  0  0  0  0  0  0  0
    1.8809    5.3469   15.7092 N   0  0  0  0  0  0  0  0  0  0  0  0
    0.9583    5.2463   12.1494 C   0  0  0  0  0  0  0  0  0  0  0  0
   -0.1686    4.4150   11.8774 N   0  0  0  0  0  0  0  0  0  0  0  0
   -1.4493    4.9695   12.1653 C   0  0  0  0  0  0  0  0  0  0  0  0
   -1.9477    5.5932   10.8619 C   0  0  0  0  0  0  0  0  0  0  0  0
   -1.4338    4.5909    9.8584 C   0  0  0  0  0  0  0  0  0  0  0  0
   -0.1477    4.1182   10.4484 C   0  0  0  0  0  0  0  0  0  0  0  0
    5.5524    3.6915   20.7992 N   0  0  0  0  0  0  0  0  0  0  0  0
    6.4507    4.2534   20.9422 H   0  0  0  0  0  0  0  0  0  0  0  0
    4.2024    0.4788   25.3084 C   0  0  0  0  0  0  0  0  0  0  0  0
    4.5058    1.2863   24.1010 C   0  0  0  0  0  0  0  0  0  0  0  0
    3.7518    1.2375   22.9682 C   0  0  0  0  0  0  0  0  0  0  0  0
    4.0702    2.0119   21.8554 C   0  0  0  0  0  0  0  0  0  0  0  0
    5.1455    2.8582   21.8327 C   0  0  0  0  0  0  0  0  0  0  0  0
    5.9072    2.8911   23.0110 C   0  0  0  0  0  0  0  0  0  0  0  0
    5.5903    2.1240   24.1098 C   0  0  0  0  0  0  0  0  0  0  0  0
    3.2503    6.6774   17.8899 N   0  0  0  0  0  0  0  0  0  0  0  0
    2.2583    6.8980   17.8479 H   0  0  0  0  0  0  0  0  0  0  0  0
    4.1592    7.7805   17.6376 C   0  0  0  0  0  0  0  0  0  0  0  0
    4.4994    8.5867   18.8494 C   0  0  0  0  0  0  0  0  0  0  0  0
    5.2806    9.8081   18.3386 C   0  0  0  0  0  0  0  0  0  0  0  0
    6.4536    9.3962   17.4846 C   0  0  0  0  0  0  0  0  0  0  0  0
    6.2190    9.6778   16.1271 O   0  0  0  0  0  0  0  0  0  0  0  0
    6.6411    7.9020   17.5932 C   0  0  0  0  0  0  0  0  0  0  0  0
    5.4073    7.2524   17.0089 C   0  0  0  0  0  0  0  0  0  0  0  0
    7.1114    9.9717   15.7617 H   0  0  0  0  0  0  0  0  0  0  0  0
 21 22  1  0  0  0
 22 23  2  0  0  0
 23 24  1  0  0  0
 24 25  2  0  0  0
 25 19  1  0  0  0
 19  1  1  0  0  0
  1  2  2  0  0  0
  2  3  1  0  0  0
  3  4  2  0  0  0
  4  5  1  0  0  0
  5 28  1  0  0  0
 28 30  1  0  0  0
 30 31  1  0  0  0
 31 32  1  0  0  0
 32 33  1  0  0  0
 33 34  1  0  0  0
 33 35  1  0  0  0
 35 36  1  0  0  0
  5  6  2  0  0  0
  4  7  1  0  0  0
  7  8  2  0  0  0
  8  9  1  0  0  0
  9 10  2  0  0  0
 10 13  1  0  0  0
 13 14  1  0  0  0
 14 15  1  0  0  0
 15 16  1  0  0  0
 16 17  1  0  0  0
 17 18  1  0  0  0
 10 11  1  0  0  0
 11 12  2  0  0  0
 25 26  1  0  0  0
 26 27  2  0  0  0
 27 22  1  0  0  0
  6  1  1  0  0  0
 12  7  1  0  0  0
 36 30  1  0  0  0
 18 14  1  0  0  0
 19 20  1  0  0  0
 28 29  1  0  0  0
 34 37  1  0  0  0
M  END
> <minimizedAffinity>
-7.26505

> <CNNscore>
0.2032643557

> <CNNaffinity>
6.5215873718

> <CNN_VS>
1.3256062269

> <CNNaffinity_variance>
0.4937530458

$$$$
[H]O[C@]1([H])C([H])([H])C([H])([H])[C@@]([H])(N([H])c2nc(N([H])c3c([H])c([H])c(C([H])([H])[H])c([H])c3[H])nc([H])c2-c2nc([H])c(C([H])([H])N3C([H])([H])C([H])([H])C([H])([H])C3([H])[H])c([H])c2[H])C([H])([H])C1([H])[H]


 37 41  0  0  0  0  0  0  0  0999 V2000
    1.6924    2.2932   14.2506 C   0  0  0  0  0  0  0  0  0  0  0  0
    2.2481    1.6769   15.2977 N   0  0  0  0  0  0  0  0  0  0  0  0
    2.8276    2.3072   16.3102 C   0  0  0  0  0  0  0  0  0  0  0  0
    2.8813    3.7257   16.3186 C   0  0  0  0  0  0  0  0  0  0  0  0
    2.3187    4.3712   15.2674 C   0  0  0  0  0  0  0  0  0  0  0  0
    1.7561    3.6440   14.2870 N   0  0  0  0  0  0  0  0  0  0  0  0
    3.5393    4.3011   17.4846 C   0  0  0  0  0  0  0  0  0  0  0  0
    4.7794    3.9575   17.9473 C   0  0  0  0  0  0  0  0  0  0  0  0
    5.2789    4.5114   19.1345 C   0  0  0  0  0  0  0  0  0  0  0  0
    4.5321    5.4075   19.8557 C   0  0  0  0  0  0  0  0  0  0  0  0
    3.2870    5.7455   19.3845 C   0  0  0  0  0  0  0  0  0  0  0  0
    2.8409    5.2021   18.2519 N   0  0  0  0  0  0  0  0  0  0  0  0
    5.0039    6.0175   21.1137 C   0  0  0  0  0  0  0  0  0  0  0  0
    5.9722    7.0546   20.9659 N   0  0  0  0  0  0  0  0  0  0  0  0
    5.5043    8.2855   20.4214 C   0  0  0  0  0  0  0  0  0  0  0  0
    5.1475    9.1722   21.6141 C   0  0  0  0  0  0  0  0  0  0  0  0
    6.2431    8.7951   22.5800 C   0  0  0  0  0  0  0  0  0  0  0  0
    6.4900    7.3511   22.2981 C   0  0  0  0  0  0  0  0  0  0  0  0
    1.0713    1.6437   13.1589 N   0  0  0  0  0  0  0  0  0  0  0  0
    0.2724    0.9782   13.4082 H   0  0  0  0  0  0  0  0  0  0  0  0
    2.8388    2.0266    7.7547 C   0  0  0  0  0  0  0  0  0  0  0  0
    2.3197    1.9474    9.1426 C   0  0  0  0  0  0  0  0  0  0  0  0
    1.0155    2.1760    9.4600 C   0  0  0  0  0  0  0  0  0  0  0  0
    0.5675    2.0917   10.7759 C   0  0  0  0  0  0  0  0  0  0  0  0
    1.3993    1.7777   11.8163 C   0  0  0  0  0  0  0  0  0  0  0  0
    2.7381    1.5469   11.4645 C   0  0  0  0  0  0  0  0  0  0  0  0
    3.1785    1.6312   10.1625 C   0  0  0  0  0  0  0  0  0  0  0  0
    2.2012    5.7753   15.2403 N   0  0  0  0  0  0  0  0  0  0  0  0
    2.1322    6.3106   16.1024 H   0  0  0  0  0  0  0  0  0  0  0  0
    2.1039    6.5367   14.0085 C   0  0  0  0  0  0  0  0  0  0  0  0
    0.7325    7.0502   13.7094 C   0  0  0  0  0  0  0  0  0  0  0  0
    0.7985    7.6275   12.2862 C   0  0  0  0  0  0  0  0  0  0  0  0
    1.9117    8.6362   12.1503 C   0  0  0  0  0  0  0  0  0  0  0  0
    2.9764    8.1205   11.3902 O   0  0  0  0  0  0  0  0  0  0  0  0
    2.4649    8.9466   13.5203 C   0  0  0  0  0  0  0  0  0  0  0  0
    3.0747    7.6713   14.0563 C   0  0  0  0  0  0  0  0  0  0  0  0
    3.3152    8.9007   10.8493 H   0  0  0  0  0  0  0  0  0  0  0  0
 21 22  1  0  0  0
 22 23  2  0  0  0
 23 24  1  0  0  0
 24 25  2  0  0  0
 25 19  1  0  0  0
 19  1  1  0  0  0
  1  2  2  0  0  0
  2  3  1  0  0  0
  3  4  2  0  0  0
  4  5  1  0  0  0
  5 28  1  0  0  0
 28 30  1  0  0  0
 30 31  1  0  0  0
 31 32  1  0  0  0
 32 33  1  0  0  0
 33 34  1  0  0  0
 33 35  1  0  0  0
 35 36  1  0  0  0
  5  6  2  0  0  0
  4  7  1  0  0  0
  7  8  2  0  0  0
  8  9  1  0  0  0
  9 10  2  0  0  0
 10 13  1  0  0  0
 13 14  1  0  0  0
 14 15  1  0  0  0
 15 16  1  0  0  0
 16 17  1  0  0  0
 17 18  1  0  0  0
 10 11  1  0  0  0
 11 12  2  0  0  0
 25 26  1  0  0  0
 26 27  2  0  0  0
 27 22  1  0  0  0
  6  1  1  0  0  0
 12  7  1  0  0  0
 36 30  1  0  0  0
 18 14  1  0  0  0
 19 20  1  0  0  0
 28 29  1  0  0  0
 34 37  1  0  0  0
M  END
> <minimizedAffinity>
-7.68673

> <CNNscore>
0.1995020360

> <CNNaffinity>
6.3734631538

> <CNN_VS>
1.2715188265

> <CNNaffinity_variance>
0.0799467489

$$$$
[H]O[C@]1([H])C([H])([H])C([H])([H])[C@@]([H])(n2nc(C#Cc3c([H])c(N([H])C(=O)c4c([H])c([H])c(C([H])([H])[H])c(C(F)(F)F)c4[H])c([H])c([H])c3C([H])([H])[H])c3c(N([H])[H])nc([H])nc32)C([H])([H])C1([H])[H]


 44 48  0  0  0  0  0  0  0  0999 V2000
    4.0291    5.0006   12.9726 C   0  0  0  0  0  0  0  0  0  0  0  0
    3.1245    3.9618   12.4188 C   0  0  0  0  0  0  0  0  0  0  0  0
    2.7390    4.0198   11.0999 C   0  0  0  0  0  0  0  0  0  0  0  0
    1.9102    3.0736   10.5799 C   0  0  0  0  0  0  0  0  0  0  0  0
    1.4375    2.0256   11.3820 C   0  0  0  0  0  0  0  0  0  0  0  0
    1.8391    1.9964   12.6906 C   0  0  0  0  0  0  0  0  0  0  0  0
    2.6935    2.9592   13.2533 C   0  0  0  0  0  0  0  0  0  0  0  0
    0.5607    1.0759   10.8261 N   0  0  0  0  0  0  0  0  0  0  0  0
    0.9172    0.1313    9.8685 C   0  0  0  0  0  0  0  0  0  0  0  0
    2.0480   -0.0192    9.3497 O   0  0  0  0  0  0  0  0  0  0  0  0
   -0.4409    1.1046   11.1801 H   0  0  0  0  0  0  0  0  0  0  0  0
   -0.1210   -0.8113    9.3872 C   0  0  0  0  0  0  0  0  0  0  0  0
    0.1305   -2.1605    9.4480 C   0  0  0  0  0  0  0  0  0  0  0  0
   -0.8130   -3.0581    9.0161 C   0  0  0  0  0  0  0  0  0  0  0  0
   -2.0425   -2.6766    8.5064 C   0  0  0  0  0  0  0  0  0  0  0  0
   -3.0409   -3.6747    8.0471 C   0  0  0  0  0  0  0  0  0  0  0  0
   -2.2693   -1.3121    8.4566 C   0  0  0  0  0  0  0  0  0  0  0  0
   -1.3262   -0.3878    8.8895 C   0  0  0  0  0  0  0  0  0  0  0  0
   -3.5803   -0.8494    7.9146 C   0  0  0  0  0  0  0  0  0  0  0  0
   -4.6164   -1.2576    8.7193 F   0  0  0  0  0  0  0  0  0  0  0  0
   -3.7292   -1.1979    6.5967 F   0  0  0  0  0  0  0  0  0  0  0  0
   -3.5879    0.5468    7.9407 F   0  0  0  0  0  0  0  0  0  0  0  0
    3.0892    2.8874   14.6388 C   0  0  0  0  0  0  0  0  0  0  0  0
    3.4030    2.8188   15.8113 C   0  0  0  0  0  0  0  0  0  0  0  0
    3.7484    2.7332   17.2001 C   0  0  0  0  0  0  0  0  0  0  0  0
    4.4042    3.6220   17.9643 N   0  0  0  0  0  0  0  0  0  0  0  0
    4.5358    3.1900   19.2074 N   0  0  0  0  0  0  0  0  0  0  0  0
    3.9400    1.9713   19.2475 C   0  0  0  0  0  0  0  0  0  0  0  0
    3.7801    1.0942   20.2401 N   0  0  0  0  0  0  0  0  0  0  0  0
    3.1375   -0.0651   20.0051 C   0  0  0  0  0  0  0  0  0  0  0  0
    2.6413   -0.3828   18.7934 N   0  0  0  0  0  0  0  0  0  0  0  0
    2.7740    0.4701   17.7468 C   0  0  0  0  0  0  0  0  0  0  0  0
    2.2534    0.1371   16.4761 N   0  0  0  0  0  0  0  0  0  0  0  0
    3.4342    1.6555   17.9973 C   0  0  0  0  0  0  0  0  0  0  0  0
    1.2598    0.2866   16.2319 H   0  0  0  0  0  0  0  0  0  0  0  0
    2.8877   -0.2693   15.7671 H   0  0  0  0  0  0  0  0  0  0  0  0
    5.1868    3.8737   20.3225 C   0  0  0  0  0  0  0  0  0  0  0  0
    5.8462    5.1065   19.7491 C   0  0  0  0  0  0  0  0  0  0  0  0
    6.2530    6.0984   20.7995 C   0  0  0  0  0  0  0  0  0  0  0  0
    6.0813    5.5958   22.2037 C   0  0  0  0  0  0  0  0  0  0  0  0
    7.0929    4.6913   22.5435 O   0  0  0  0  0  0  0  0  0  0  0  0
    4.7221    5.0176   22.4742 C   0  0  0  0  0  0  0  0  0  0  0  0
    4.1114    4.3473   21.2739 C   0  0  0  0  0  0  0  0  0  0  0  0
    7.6762    4.4727   21.7914 H   0  0  0  0  0  0  0  0  0  0  0  0
  1  2  1  0  0  0
  2  3  2  0  0  0
  3  4  1  0  0  0
  4  5  2  0  0  0
  5  8  1  0  0  0
  8  9  1  0  0  0
  9 10  2  0  0  0
  9 12  1  0  0  0
 12 13  2  0  0  0
 13 14  1  0  0  0
 14 15  2  0  0  0
 15 16  1  0  0  0
 15 17  1  0  0  0
 17 18  2  0  0  0
 17 19  1  0  0  0
 19 20  1  0  0  0
 19 21  1  0  0  0
 19 22  1  0  0  0
  5  6  1  0  0  0
  6  7  2  0  0  0
  7 23  1  0  0  0
 23 24  3  0  0  0
 24 25  1  0  0  0
 25 26  2  0  0  0
 26 27  1  0  0  0
 27 37  1  0  0  0
 37 38  1  0  0  0
 38 39  1  0  0  0
 39 40  1  0  0  0
 40 41  1  0  0  0
 40 42  1  0  0  0
 42 43  1  0  0  0
 27 28  1  0  0  0
 28 29  2  0  0  0
 29 30  1  0  0  0
 30 31  2  0  0  0
 31 32  1  0  0  0
 32 33  1  0  0  0
 32 34  2  0  0  0
  7  2  1  0  0  0
 34 25  1  0  0  0
 18 12  1  0  0  0
 43 37  1  0  0  0
 34 28  1  0  0  0
  8 11  1  0  0  0
 41 44  1  0  0  0
 33 35  1  0  0  0
 33 36  1  0  0  0
M  END
> <minimizedAffinity>
-9.50144

> <CNNscore>
0.7179961205

> <CNNaffinity>
7.2179007530

> <CNN_VS>
5.1824245453

> <CNNaffinity_variance>
0.5650890470

$$$$
[H]O[C@]1([H])C([H])([H])C([H])([H])[C@@]([H])(n2nc(C#Cc3c([H])c(N([H])C(=O)c4c([H])c([H])c(C([H])([H])[H])c(C(F)(F)F)c4[H])c([H])c([H])c3C([H])([H])[H])c3c(N([H])[H])nc([H])nc32)C([H])([H])C1([H])[H]


 44 48  0  0  0  0  0  0  0  0999 V2000
    4.1739    4.7947   12.9629 C   0  0  0  0  0  0  0  0  0  0  0  0
    3.2302    3.7919   12.4080 C   0  0  0  0  0  0  0  0  0  0  0  0
    2.8661    3.8515   11.0831 C   0  0  0  0  0  0  0  0  0  0  0  0
    2.0019    2.9382   10.5621 C   0  0  0  0  0  0  0  0  0  0  0  0
    1.4703    1.9228   11.3692 C   0  0  0  0  0  0  0  0  0  0  0  0
    1.8519    1.8911   12.6837 C   0  0  0  0  0  0  0  0  0  0  0  0
    2.7419    2.8204   13.2477 C   0  0  0  0  0  0  0  0  0  0  0  0
    0.5584    1.0077   10.8117 N   0  0  0  0  0  0  0  0  0  0  0  0
    0.8808    0.0473    9.8578 C   0  0  0  0  0  0  0  0  0  0  0  0
    2.0069   -0.1497    9.3443 O   0  0  0  0  0  0  0  0  0  0  0  0
   -0.4426    1.0775   11.1612 H   0  0  0  0  0  0  0  0  0  0  0  0
   -0.1923   -0.8540    9.3741 C   0  0  0  0  0  0  0  0  0  0  0  0
   -1.3111   -0.3019    8.7989 C   0  0  0  0  0  0  0  0  0  0  0  0
   -2.3186   -1.1100    8.3358 C   0  0  0  0  0  0  0  0  0  0  0  0
   -2.2767   -2.4916    8.4145 C   0  0  0  0  0  0  0  0  0  0  0  0
   -3.3853   -3.3367    7.9037 C   0  0  0  0  0  0  0  0  0  0  0  0
   -1.1387   -3.0208    8.9982 C   0  0  0  0  0  0  0  0  0  0  0  0
   -0.1078   -2.2188    9.4728 C   0  0  0  0  0  0  0  0  0  0  0  0
   -1.0454   -4.5061    9.1070 C   0  0  0  0  0  0  0  0  0  0  0  0
   -0.9509   -5.0849    7.8645 F   0  0  0  0  0  0  0  0  0  0  0  0
   -2.0544   -5.0164    9.8829 F   0  0  0  0  0  0  0  0  0  0  0  0
    0.1407   -4.8147    9.7764 F   0  0  0  0  0  0  0  0  0  0  0  0
    3.1145    2.7472   14.6395 C   0  0  0  0  0  0  0  0  0  0  0  0
    3.4169    2.7037   15.8162 C   0  0  0  0  0  0  0  0  0  0  0  0
    3.7639    2.6761   17.2069 C   0  0  0  0  0  0  0  0  0  0  0  0
    4.4114    3.6005   17.9351 N   0  0  0  0  0  0  0  0  0  0  0  0
    4.5478    3.2190   19.1940 N   0  0  0  0  0  0  0  0  0  0  0  0
    3.9640    1.9970   19.2825 C   0  0  0  0  0  0  0  0  0  0  0  0
    3.8131    1.1580   20.3089 N   0  0  0  0  0  0  0  0  0  0  0  0
    3.1817   -0.0158   20.1201 C   0  0  0  0  0  0  0  0  0  0  0  0
    2.6881   -0.3856   18.9222 N   0  0  0  0  0  0  0  0  0  0  0  0
    2.8119    0.4268   17.8428 C   0  0  0  0  0  0  0  0  0  0  0  0
    2.2939    0.0391   16.5867 N   0  0  0  0  0  0  0  0  0  0  0  0
    3.4606    1.6275   18.0461 C   0  0  0  0  0  0  0  0  0  0  0  0
    1.2988    0.1693   16.3377 H   0  0  0  0  0  0  0  0  0  0  0  0
    2.9318   -0.3886   15.8937 H   0  0  0  0  0  0  0  0  0  0  0  0
    5.1927    3.9521   20.2809 C   0  0  0  0  0  0  0  0  0  0  0  0
    5.8534    5.1593   19.6567 C   0  0  0  0  0  0  0  0  0  0  0  0
    6.2541    6.1972   20.6641 C   0  0  0  0  0  0  0  0  0  0  0  0
    6.0762    5.7569   22.0884 C   0  0  0  0  0  0  0  0  0  0  0  0
    7.0872    4.8698   22.4726 O   0  0  0  0  0  0  0  0  0  0  0  0
    4.7164    5.1895   22.3777 C   0  0  0  0  0  0  0  0  0  0  0  0
    4.1122    4.4659   21.2054 C   0  0  0  0  0  0  0  0  0  0  0  0
    7.6744    4.6189   21.7337 H   0  0  0  0  0  0  0  0  0  0  0  0
  1  2  1  0  0  0
  2  3  2  0  0  0
  3  4  1  0  0  0
  4  5  2  0  0  0
  5  8  1  0  0  0
  8  9  1  0  0  0
  9 10  2  0  0  0
  9 12  1  0  0  0
 12 13  2  0  0  0
 13 14  1  0  0  0
 14 15  2  0  0  0
 15 16  1  0  0  0
 15 17  1  0  0  0
 17 18  2  0  0  0
 17 19  1  0  0  0
 19 20  1  0  0  0
 19 21  1  0  0  0
 19 22  1  0  0  0
  5  6  1  0  0  0
  6  7  2  0  0  0
  7 23  1  0  0  0
 23 24  3  0  0  0
 24 25  1  0  0  0
 25 26  2  0  0  0
 26 27  1  0  0  0
 27 37  1  0  0  0
 37 38  1  0  0  0
 38 39  1  0  0  0
 39 40  1  0  0  0
 40 41  1  0  0  0
 40 42  1  0  0  0
 42 43  1  0  0  0
 27 28  1  0  0  0
 28 29  2  0  0  0
 29 30  1  0  0  0
 30 31  2  0  0  0
 31 32  1  0  0  0
 32 33  1  0  0  0
 32 34  2  0  0  0
  7  2  1  0  0  0
 34 25  1  0  0  0
 18 12  1  0  0  0
 43 37  1  0  0  0
 34 28  1  0  0  0
  8 11  1  0  0  0
 41 44  1  0  0  0
 33 35  1  0  0  0
 33 36  1  0  0  0
M  END
> <minimizedAffinity>
-9.62474

> <CNNscore>
0.6611746550

> <CNNaffinity>
7.1985578537

> <CNN_VS>
4.7595038414

> <CNNaffinity_variance>
0.5529327989

$$$$
[H]O[C@]1([H])C([H])([H])C([H])([H])[C@@]([H])(n2nc(C#Cc3c([H])c(N([H])C(=O)c4c([H])c([H])c(C([H])([H])[H])c(C(F)(F)F)c4[H])c([H])c([H])c3C([H])([H])[H])c3c(N([H])[H])nc([H])nc32)C([H])([H])C1([H])[H]


 44 48  0  0  0  0  0  0  0  0999 V2000
    4.3405    7.5045   14.7700 C   0  0  0  0  0  0  0  0  0  0  0  0
    3.0612    7.3016   14.0445 C   0  0  0  0  0  0  0  0  0  0  0  0
    2.6871    8.1795   13.0541 C   0  0  0  0  0  0  0  0  0  0  0  0
    1.5169    8.0046   12.3814 C   0  0  0  0  0  0  0  0  0  0  0  0
    0.6757    6.9261   12.6886 C   0  0  0  0  0  0  0  0  0  0  0  0
    1.0762    6.0705   13.6797 C   0  0  0  0  0  0  0  0  0  0  0  0
    2.2783    6.2268   14.3899 C   0  0  0  0  0  0  0  0  0  0  0  0
   -0.5408    6.7838   11.9962 N   0  0  0  0  0  0  0  0  0  0  0  0
   -0.7519    5.9103   10.9337 C   0  0  0  0  0  0  0  0  0  0  0  0
    0.0889    5.1324   10.4255 O   0  0  0  0  0  0  0  0  0  0  0  0
   -1.3397    7.4008   12.3283 H   0  0  0  0  0  0  0  0  0  0  0  0
   -2.0973    5.8680   10.3124 C   0  0  0  0  0  0  0  0  0  0  0  0
   -2.2019    6.0097    8.9499 C   0  0  0  0  0  0  0  0  0  0  0  0
   -3.4325    5.9686    8.3447 C   0  0  0  0  0  0  0  0  0  0  0  0
   -4.6136    5.7872    9.0440 C   0  0  0  0  0  0  0  0  0  0  0  0
   -5.9294    5.7481    8.3575 C   0  0  0  0  0  0  0  0  0  0  0  0
   -4.4790    5.6472   10.4145 C   0  0  0  0  0  0  0  0  0  0  0  0
   -3.2414    5.6859   11.0454 C   0  0  0  0  0  0  0  0  0  0  0  0
   -5.7234    5.4495   11.2139 C   0  0  0  0  0  0  0  0  0  0  0  0
   -6.4093    4.3375   10.7886 F   0  0  0  0  0  0  0  0  0  0  0  0
   -6.4826    6.5909   11.2504 F   0  0  0  0  0  0  0  0  0  0  0  0
   -5.3501    5.2000   12.5362 F   0  0  0  0  0  0  0  0  0  0  0  0
    2.6583    5.2993   15.4275 C   0  0  0  0  0  0  0  0  0  0  0  0
    2.9585    4.5194   16.3104 C   0  0  0  0  0  0  0  0  0  0  0  0
    3.2908    3.6059   17.3641 C   0  0  0  0  0  0  0  0  0  0  0  0
    3.8816    3.8554   18.5442 N   0  0  0  0  0  0  0  0  0  0  0  0
    4.0234    2.7520   19.2594 N   0  0  0  0  0  0  0  0  0  0  0  0
    3.5023    1.7479   18.5097 C   0  0  0  0  0  0  0  0  0  0  0  0
    3.3834    0.4390   18.7394 N   0  0  0  0  0  0  0  0  0  0  0  0
    2.8154   -0.3500   17.8082 C   0  0  0  0  0  0  0  0  0  0  0  0
    2.3549    0.1317   16.6372 N   0  0  0  0  0  0  0  0  0  0  0  0
    2.4488    1.4540   16.3488 C   0  0  0  0  0  0  0  0  0  0  0  0
    1.9656    1.9593   15.1209 N   0  0  0  0  0  0  0  0  0  0  0  0
    3.0325    2.2546   17.3092 C   0  0  0  0  0  0  0  0  0  0  0  0
    0.9680    2.1882   14.9743 H   0  0  0  0  0  0  0  0  0  0  0  0
    2.6324    2.1051   14.3436 H   0  0  0  0  0  0  0  0  0  0  0  0
    4.6174    2.6232   20.5880 C   0  0  0  0  0  0  0  0  0  0  0  0
    5.5742    1.4554   20.5232 C   0  0  0  0  0  0  0  0  0  0  0  0
    6.5219    1.4062   21.6860 C   0  0  0  0  0  0  0  0  0  0  0  0
    6.2191    2.4159   22.7551 C   0  0  0  0  0  0  0  0  0  0  0  0
    5.1190    2.0223   23.5243 O   0  0  0  0  0  0  0  0  0  0  0  0
    6.0446    3.8126   22.2321 C   0  0  0  0  0  0  0  0  0  0  0  0
    5.4447    3.8606   20.8534 C   0  0  0  0  0  0  0  0  0  0  0  0
    4.6843    1.2172   23.1827 H   0  0  0  0  0  0  0  0  0  0  0  0
  1  2  1  0  0  0
  2  3  2  0  0  0
  3  4  1  0  0  0
  4  5  2  0  0  0
  5  8  1  0  0  0
  8  9  1  0  0  0
  9 10  2  0  0  0
  9 12  1  0  0  0
 12 13  2  0  0  0
 13 14  1  0  0  0
 14 15  2  0  0  0
 15 16  1  0  0  0
 15 17  1  0  0  0
 17 18  2  0  0  0
 17 19  1  0  0  0
 19 20  1  0  0  0
 19 21  1  0  0  0
 19 22  1  0  0  0
  5  6  1  0  0  0
  6  7  2  0  0  0
  7 23  1  0  0  0
 23 24  3  0  0  0
 24 25  1  0  0  0
 25 26  2  0  0  0
 26 27  1  0  0  0
 27 37  1  0  0  0
 37 38  1  0  0  0
 38 39  1  0  0  0
 39 40  1  0  0  0
 40 41  1  0  0  0
 40 42  1  0  0  0
 42 43  1  0  0  0
 27 28  1  0  0  0
 28 29  2  0  0  0
 29 30  1  0  0  0
 30 31  2  0  0  0
 31 32  1  0  0  0
 32 33  1  0  0  0
 32 34  2  0  0  0
  7  2  1  0  0  0
 34 25  1  0  0  0
 18 12  1  0  0  0
 43 37  1  0  0  0
 34 28  1  0  0  0
  8 11  1  0  0  0
 41 44  1  0  0  0
 33 35  1  0  0  0
 33 36  1  0  0  0
M  END
> <minimizedAffinity>
-9.93522

> <CNNscore>
0.5396024585

> <CNNaffinity>
6.8585152626

> <CNN_VS>
3.7008717060

> <CNNaffinity_variance>
0.5853257775

$$$$
[H]O[C@]1([H])C([H])([H])C([H])([H])[C@@]([H])(n2nc(C#Cc3c([H])c(N([H])C(=O)c4c([H])c([H])c(C([H])([H])[H])c(C(F)(F)F)c4[H])c([H])c([H])c3C([H])([H])[H])c3c(N([H])[H])nc([H])nc32)C([H])([H])C1([H])[H]


 44 48  0  0  0  0  0  0  0  0999 V2000
    3.5070    5.5862   13.1085 C   0  0  0  0  0  0  0  0  0  0  0  0
    3.1931    4.3375   12.3694 C   0  0  0  0  0  0  0  0  0  0  0  0
    2.9410    4.3846   11.0181 C   0  0  0  0  0  0  0  0  0  0  0  0
    2.6521    3.2471   10.3290 C   0  0  0  0  0  0  0  0  0  0  0  0
    2.6075    2.0102   10.9871 C   0  0  0  0  0  0  0  0  0  0  0  0
    2.8626    1.9969   12.3322 C   0  0  0  0  0  0  0  0  0  0  0  0
    3.1634    3.1551   13.0683 C   0  0  0  0  0  0  0  0  0  0  0  0
    2.2803    0.8535   10.2558 N   0  0  0  0  0  0  0  0  0  0  0  0
    3.1859    0.1000    9.5153 C   0  0  0  0  0  0  0  0  0  0  0  0
    4.4102    0.3272    9.3741 O   0  0  0  0  0  0  0  0  0  0  0  0
    1.2605    0.5565   10.2874 H   0  0  0  0  0  0  0  0  0  0  0  0
    2.6882   -1.1027    8.8056 C   0  0  0  0  0  0  0  0  0  0  0  0
    2.3567   -0.9971    7.4765 C   0  0  0  0  0  0  0  0  0  0  0  0
    1.8993   -2.0938    6.7906 C   0  0  0  0  0  0  0  0  0  0  0  0
    1.7459   -3.3405    7.3731 C   0  0  0  0  0  0  0  0  0  0  0  0
    1.2475   -4.5068    6.6015 C   0  0  0  0  0  0  0  0  0  0  0  0
    2.0870   -3.4183    8.7123 C   0  0  0  0  0  0  0  0  0  0  0  0
    2.5522   -2.3189    9.4237 C   0  0  0  0  0  0  0  0  0  0  0  0
    1.9391   -4.7412    9.3867 C   0  0  0  0  0  0  0  0  0  0  0  0
    2.8190   -5.6591    8.8665 F   0  0  0  0  0  0  0  0  0  0  0  0
    0.6334   -5.1605    9.3871 F   0  0  0  0  0  0  0  0  0  0  0  0
    2.2861   -4.5804   10.7298 F   0  0  0  0  0  0  0  0  0  0  0  0
    3.4246    3.0918   14.4858 C   0  0  0  0  0  0  0  0  0  0  0  0
    3.6529    3.0184   15.6775 C   0  0  0  0  0  0  0  0  0  0  0  0
    3.9271    2.9067   17.0802 C   0  0  0  0  0  0  0  0  0  0  0  0
    4.5641    3.7700   17.8883 N   0  0  0  0  0  0  0  0  0  0  0  0
    4.6242    3.3190   19.1301 N   0  0  0  0  0  0  0  0  0  0  0  0
    3.9998    2.1140   19.1236 C   0  0  0  0  0  0  0  0  0  0  0  0
    3.7712    1.2281   20.0947 N   0  0  0  0  0  0  0  0  0  0  0  0
    3.1149    0.0872   19.8120 C   0  0  0  0  0  0  0  0  0  0  0  0
    2.6723   -0.2031   18.5729 N   0  0  0  0  0  0  0  0  0  0  0  0
    2.8760    0.6600   17.5463 C   0  0  0  0  0  0  0  0  0  0  0  0
    2.4115    0.3558   16.2469 N   0  0  0  0  0  0  0  0  0  0  0  0
    3.5495    1.8264   17.8457 C   0  0  0  0  0  0  0  0  0  0  0  0
    1.4349    0.5315   15.9563 H   0  0  0  0  0  0  0  0  0  0  0  0
    3.0709   -0.0561   15.5644 H   0  0  0  0  0  0  0  0  0  0  0  0
    5.2344    3.9727   20.2855 C   0  0  0  0  0  0  0  0  0  0  0  0
    5.9366    5.2054   19.7648 C   0  0  0  0  0  0  0  0  0  0  0  0
    6.3103    6.1721   20.8503 C   0  0  0  0  0  0  0  0  0  0  0  0
    6.0687    5.6474   22.2360 C   0  0  0  0  0  0  0  0  0  0  0  0
    7.0508    4.7217   22.6038 O   0  0  0  0  0  0  0  0  0  0  0  0
    4.6905    5.0853   22.4351 C   0  0  0  0  0  0  0  0  0  0  0  0
    4.1245    4.4458   21.1967 C   0  0  0  0  0  0  0  0  0  0  0  0
    7.6640    4.5076   21.8745 H   0  0  0  0  0  0  0  0  0  0  0  0
  1  2  1  0  0  0
  2  3  2  0  0  0
  3  4  1  0  0  0
  4  5  2  0  0  0
  5  8  1  0  0  0
  8  9  1  0  0  0
  9 10  2  0  0  0
  9 12  1  0  0  0
 12 13  2  0  0  0
 13 14  1  0  0  0
 14 15  2  0  0  0
 15 16  1  0  0  0
 15 17  1  0  0  0
 17 18  2  0  0  0
 17 19  1  0  0  0
 19 20  1  0  0  0
 19 21  1  0  0  0
 19 22  1  0  0  0
  5  6  1  0  0  0
  6  7  2  0  0  0
  7 23  1  0  0  0
 23 24  3  0  0  0
 24 25  1  0  0  0
 25 26  2  0  0  0
 26 27  1  0  0  0
 27 37  1  0  0  0
 37 38  1  0  0  0
 38 39  1  0  0  0
 39 40  1  0  0  0
 40 41  1  0  0  0
 40 42  1  0  0  0
 42 43  1  0  0  0
 27 28  1  0  0  0
 28 29  2  0  0  0
 29 30  1  0  0  0
 30 31  2  0  0  0
 31 32  1  0  0  0
 32 33  1  0  0  0
 32 34  2  0  0  0
  7  2  1  0  0  0
 34 25  1  0  0  0
 18 12  1  0  0  0
 43 37  1  0  0  0
 34 28  1  0  0  0
  8 11  1  0  0  0
 41 44  1  0  0  0
 33 35  1  0  0  0
 33 36  1  0  0  0
M  END
> <minimizedAffinity>
-9.08309

> <CNNscore>
0.4422491193

> <CNNaffinity>
7.1404542923

> <CNN_VS>
3.1578595638

> <CNNaffinity_variance>
0.5969605446

$$$$
[H]O[C@]1([H])C([H])([H])C([H])([H])[C@@]([H])(n2nc(C#Cc3c([H])c(N([H])C(=O)c4c([H])c([H])c(C([H])([H])[H])c(C(F)(F)F)c4[H])c([H])c([H])c3C([H])([H])[H])c3c(N([H])[H])nc([H])nc32)C([H])([H])C1([H])[H]


 44 48  0  0  0  0  0  0  0  0999 V2000
    2.2139    1.9662   12.7701 C   0  0  0  0  0  0  0  0  0  0  0  0
    2.7035    3.0970   11.9422 C   0  0  0  0  0  0  0  0  0  0  0  0
    2.4280    3.1312   10.5951 C   0  0  0  0  0  0  0  0  0  0  0  0
    2.8710    4.1623    9.8250 C   0  0  0  0  0  0  0  0  0  0  0  0
    3.6149    5.2051   10.3944 C   0  0  0  0  0  0  0  0  0  0  0  0
    3.8727    5.1416   11.7376 C   0  0  0  0  0  0  0  0  0  0  0  0
    3.4279    4.0899   12.5561 C   0  0  0  0  0  0  0  0  0  0  0  0
    4.0832    6.2452    9.5706 N   0  0  0  0  0  0  0  0  0  0  0  0
    4.9620    6.0788    8.5046 C   0  0  0  0  0  0  0  0  0  0  0  0
    5.4754    5.0029    8.1182 O   0  0  0  0  0  0  0  0  0  0  0  0
    3.7251    7.2185    9.8018 H   0  0  0  0  0  0  0  0  0  0  0  0
    5.3555    7.2749    7.7220 C   0  0  0  0  0  0  0  0  0  0  0  0
    4.9928    8.5168    8.1838 C   0  0  0  0  0  0  0  0  0  0  0  0
    5.3476    9.6431    7.4852 C   0  0  0  0  0  0  0  0  0  0  0  0
    6.0718    9.6048    6.3058 C   0  0  0  0  0  0  0  0  0  0  0  0
    6.4387   10.8436    5.5744 C   0  0  0  0  0  0  0  0  0  0  0  0
    6.4238    8.3413    5.8636 C   0  0  0  0  0  0  0  0  0  0  0  0
    6.0739    7.1892    6.5574 C   0  0  0  0  0  0  0  0  0  0  0  0
    7.2053    8.2462    4.5960 C   0  0  0  0  0  0  0  0  0  0  0  0
    6.5672    8.9074    3.5745 F   0  0  0  0  0  0  0  0  0  0  0  0
    7.5269    6.9461    4.3015 F   0  0  0  0  0  0  0  0  0  0  0  0
    8.4221    8.9031    4.7906 F   0  0  0  0  0  0  0  0  0  0  0  0
    3.7250    4.0657   13.9676 C   0  0  0  0  0  0  0  0  0  0  0  0
    3.9830    4.0250   15.1549 C   0  0  0  0  0  0  0  0  0  0  0  0
    4.2914    3.9516   16.5530 C   0  0  0  0  0  0  0  0  0  0  0  0
    4.8417    4.8846   17.3473 N   0  0  0  0  0  0  0  0  0  0  0  0
    4.9726    4.4493   18.5893 N   0  0  0  0  0  0  0  0  0  0  0  0
    4.4864    3.1822   18.5973 C   0  0  0  0  0  0  0  0  0  0  0  0
    4.3743    2.2813   19.5750 N   0  0  0  0  0  0  0  0  0  0  0  0
    3.8447    1.0729   19.3072 C   0  0  0  0  0  0  0  0  0  0  0  0
    3.4165    0.7289   18.0769 N   0  0  0  0  0  0  0  0  0  0  0  0
    3.5053    1.6041   17.0442 C   0  0  0  0  0  0  0  0  0  0  0  0
    3.0559    1.2435   15.7540 N   0  0  0  0  0  0  0  0  0  0  0  0
    4.0496    2.8398   17.3283 C   0  0  0  0  0  0  0  0  0  0  0  0
    2.0610    1.3079   15.4797 H   0  0  0  0  0  0  0  0  0  0  0  0
    3.7455    0.9043   15.0615 H   0  0  0  0  0  0  0  0  0  0  0  0
    5.5255    5.1728   19.7318 C   0  0  0  0  0  0  0  0  0  0  0  0
    6.4055    6.2645   19.1685 C   0  0  0  0  0  0  0  0  0  0  0  0
    6.7651    7.3117   20.1818 C   0  0  0  0  0  0  0  0  0  0  0  0
    6.3259    6.9772   21.5780 C   0  0  0  0  0  0  0  0  0  0  0  0
    7.1602    6.0122   22.1522 O   0  0  0  0  0  0  0  0  0  0  0  0
    4.8825    6.5747   21.6750 C   0  0  0  0  0  0  0  0  0  0  0  0
    4.3835    5.8515   20.4539 C   0  0  0  0  0  0  0  0  0  0  0  0
    7.8196    5.6576   21.5252 H   0  0  0  0  0  0  0  0  0  0  0  0
  1  2  1  0  0  0
  2  3  2  0  0  0
  3  4  1  0  0  0
  4  5  2  0  0  0
  5  8  1  0  0  0
  8  9  1  0  0  0
  9 10  2  0  0  0
  9 12  1  0  0  0
 12 13  2  0  0  0
 13 14  1  0  0  0
 14 15  2  0  0  0
 15 16  1  0  0  0
 15 17  1  0  0  0
 17 18  2  0  0  0
 17 19  1  0  0  0
 19 20  1  0  0  0
 19 21  1  0  0  0
 19 22  1  0  0  0
  5  6  1  0  0  0
  6  7  2  0  0  0
  7 23  1  0  0  0
 23 24  3  0  0  0
 24 25  1  0  0  0
 25 26  2  0  0  0
 26 27  1  0  0  0
 27 37  1  0  0  0
 37 38  1  0  0  0
 38 39  1  0  0  0
 39 40  1  0  0  0
 40 41  1  0  0  0
 40 42  1  0  0  0
 42 43  1  0  0  0
 27 28  1  0  0  0
 28 29  2  0  0  0
 29 30  1  0  0  0
 30 31  2  0  0  0
 31 32  1  0  0  0
 32 33  1  0  0  0
 32 34  2  0  0  0
  7  2  1  0  0  0
 34 25  1  0  0  0
 18 12  1  0  0  0
 43 37  1  0  0  0
 34 28  1  0  0  0
  8 11  1  0  0  0
 41 44  1  0  0  0
 33 35  1  0  0  0
 33 36  1  0  0  0
M  END
> <minimizedAffinity>
-9.06728

> <CNNscore>
0.2951498628

> <CNNaffinity>
6.5030860901

> <CNN_VS>
1.9193849564

> <CNNaffinity_variance>
1.0055009127

$$$$
[H]O[C@]1([H])C([H])([H])C([H])([H])[C@@]([H])(n2nc(C#Cc3c([H])c(N([H])C(=O)c4c([H])c([H])c(C([H])([H])[H])c(C(F)(F)F)c4[H])c([H])c([H])c3C([H])([H])[H])c3c(N([H])[H])nc([H])nc32)C([H])([H])C1([H])[H]


 44 48  0  0  0  0  0  0  0  0999 V2000
    3.1846    8.2341   13.2698 C   0  0  0  0  0  0  0  0  0  0  0  0
    3.3453    7.4371   14.5120 C   0  0  0  0  0  0  0  0  0  0  0  0
    4.3576    7.7364   15.3935 C   0  0  0  0  0  0  0  0  0  0  0  0
    4.5156    7.0135   16.5358 C   0  0  0  0  0  0  0  0  0  0  0  0
    3.6478    5.9527   16.8304 C   0  0  0  0  0  0  0  0  0  0  0  0
    2.6508    5.6797   15.9327 C   0  0  0  0  0  0  0  0  0  0  0  0
    2.4645    6.4092   14.7465 C   0  0  0  0  0  0  0  0  0  0  0  0
    3.8499    5.2049   18.0050 N   0  0  0  0  0  0  0  0  0  0  0  0
    3.9219    5.7432   19.2861 C   0  0  0  0  0  0  0  0  0  0  0  0
    3.8299    6.9540   19.5959 O   0  0  0  0  0  0  0  0  0  0  0  0
    3.9530    4.1552   17.8758 H   0  0  0  0  0  0  0  0  0  0  0  0
    4.1289    4.8206   20.4280 C   0  0  0  0  0  0  0  0  0  0  0  0
    3.8634    5.2702   21.6988 C   0  0  0  0  0  0  0  0  0  0  0  0
    4.0391    4.4381   22.7754 C   0  0  0  0  0  0  0  0  0  0  0  0
    4.4813    3.1314   22.6573 C   0  0  0  0  0  0  0  0  0  0  0  0
    4.6612    2.2578   23.8441 C   0  0  0  0  0  0  0  0  0  0  0  0
    4.7410    2.7048   21.3664 C   0  0  0  0  0  0  0  0  0  0  0  0
    4.5690    3.5327   20.2636 C   0  0  0  0  0  0  0  0  0  0  0  0
    5.2207    1.3034   21.1857 C   0  0  0  0  0  0  0  0  0  0  0  0
    4.2974    0.4030   21.6595 F   0  0  0  0  0  0  0  0  0  0  0  0
    6.4793    1.1336   21.7031 F   0  0  0  0  0  0  0  0  0  0  0  0
    5.3384    1.0624   19.8153 F   0  0  0  0  0  0  0  0  0  0  0  0
    1.3991    6.0838   13.8297 C   0  0  0  0  0  0  0  0  0  0  0  0
    0.4893    5.8258   13.0658 C   0  0  0  0  0  0  0  0  0  0  0  0
   -0.5989    5.5370   12.1784 C   0  0  0  0  0  0  0  0  0  0  0  0
   -0.5842    4.8735   11.0107 N   0  0  0  0  0  0  0  0  0  0  0  0
   -1.7915    4.8062   10.4749 N   0  0  0  0  0  0  0  0  0  0  0  0
   -2.6206    5.4534   11.3326 C   0  0  0  0  0  0  0  0  0  0  0  0
   -3.9336    5.6866   11.2913 N   0  0  0  0  0  0  0  0  0  0  0  0
   -4.5191    6.3683   12.2936 C   0  0  0  0  0  0  0  0  0  0  0  0
   -3.8267    6.8321   13.3523 N   0  0  0  0  0  0  0  0  0  0  0  0
   -2.4894    6.6250   13.4482 C   0  0  0  0  0  0  0  0  0  0  0  0
   -1.7633    7.1110   14.5586 N   0  0  0  0  0  0  0  0  0  0  0  0
   -1.8983    5.9255   12.4161 C   0  0  0  0  0  0  0  0  0  0  0  0
   -1.7193    6.5975   15.4550 H   0  0  0  0  0  0  0  0  0  0  0  0
   -1.2592    8.0101   14.4712 H   0  0  0  0  0  0  0  0  0  0  0  0
   -2.1722    4.1683    9.2169 C   0  0  0  0  0  0  0  0  0  0  0  0
   -1.3903    4.8620    8.1256 C   0  0  0  0  0  0  0  0  0  0  0  0
   -1.3923    4.1060    6.8290 C   0  0  0  0  0  0  0  0  0  0  0  0
   -2.3032    2.9126    6.8271 C   0  0  0  0  0  0  0  0  0  0  0  0
   -3.6418    3.2993    6.7029 O   0  0  0  0  0  0  0  0  0  0  0  0
   -2.1073    2.0038    8.0064 C   0  0  0  0  0  0  0  0  0  0  0  0
   -1.6995    2.7327    9.2575 C   0  0  0  0  0  0  0  0  0  0  0  0
   -3.7623    4.2680    6.7318 H   0  0  0  0  0  0  0  0  0  0  0  0
  1  2  1  0  0  0
  2  3  2  0  0  0
  3  4  1  0  0  0
  4  5  2  0  0  0
  5  8  1  0  0  0
  8  9  1  0  0  0
  9 10  2  0  0  0
  9 12  1  0  0  0
 12 13  2  0  0  0
 13 14  1  0  0  0
 14 15  2  0  0  0
 15 16  1  0  0  0
 15 17  1  0  0  0
 17 18  2  0  0  0
 17 19  1  0  0  0
 19 20  1  0  0  0
 19 21  1  0  0  0
 19 22  1  0  0  0
  5  6  1  0  0  0
  6  7  2  0  0  0
  7 23  1  0  0  0
 23 24  3  0  0  0
 24 25  1  0  0  0
 25 26  2  0  0  0
 26 27  1  0  0  0
 27 37  1  0  0  0
 37 38  1  0  0  0
 38 39  1  0  0  0
 39 40  1  0  0  0
 40 41  1  0  0  0
 40 42  1  0  0  0
 42 43  1  0  0  0
 27 28  1  0  0  0
 28 29  2  0  0  0
 29 30  1  0  0  0
 30 31  2  0  0  0
 31 32  1  0  0  0
 32 33  1  0  0  0
 32 34  2  0  0  0
  7  2  1  0  0  0
 34 25  1  0  0  0
 18 12  1  0  0  0
 43 37  1  0  0  0
 34 28  1  0  0  0
  8 11  1  0  0  0
 41 44  1  0  0  0
 33 35  1  0  0  0
 33 36  1  0  0  0
M  END
> <minimizedAffinity>
-9.26181

> <CNNscore>
0.1569271982

> <CNNaffinity>
6.3788185120

> <CNN_VS>
1.0010100603

> <CNNaffinity_variance>
0.2109827995

$$$$
[H]O[C@]1([H])C([H])([H])C([H])([H])[C@@]([H])(n2nc(C#Cc3c([H])c(N([H])C(=O)c4c([H])c([H])c(C([H])([H])[H])c(C(F)(F)F)c4[H])c([H])c([H])c3C([H])([H])[H])c3c(N([H])[H])nc([H])nc32)C([H])([H])C1([H])[H]


 44 48  0  0  0  0  0  0  0  0999 V2000
    2.4041    1.5067   15.1055 C   0  0  0  0  0  0  0  0  0  0  0  0
    2.8779    2.4036   14.0214 C   0  0  0  0  0  0  0  0  0  0  0  0
    2.5177    2.1542   12.7177 C   0  0  0  0  0  0  0  0  0  0  0  0
    2.9453    2.9688   11.7147 C   0  0  0  0  0  0  0  0  0  0  0  0
    3.7595    4.0746   11.9964 C   0  0  0  0  0  0  0  0  0  0  0  0
    4.1008    4.2953   13.3039 C   0  0  0  0  0  0  0  0  0  0  0  0
    3.6738    3.4714   14.3587 C   0  0  0  0  0  0  0  0  0  0  0  0
    4.2092    4.8848   10.9377 N   0  0  0  0  0  0  0  0  0  0  0  0
    3.4269    5.8187   10.2653 C   0  0  0  0  0  0  0  0  0  0  0  0
    2.2201    6.0787   10.4807 O   0  0  0  0  0  0  0  0  0  0  0  0
    5.2237    4.7532   10.6501 H   0  0  0  0  0  0  0  0  0  0  0  0
    4.0502    6.6061    9.1747 C   0  0  0  0  0  0  0  0  0  0  0  0
    3.7616    7.9458    9.0772 C   0  0  0  0  0  0  0  0  0  0  0  0
    4.3278    8.7026    8.0827 C   0  0  0  0  0  0  0  0  0  0  0  0
    5.1998    8.1837    7.1408 C   0  0  0  0  0  0  0  0  0  0  0  0
    5.7945    9.0313    6.0768 C   0  0  0  0  0  0  0  0  0  0  0  0
    5.4728    6.8322    7.2624 C   0  0  0  0  0  0  0  0  0  0  0  0
    4.9094    6.0494    8.2629 C   0  0  0  0  0  0  0  0  0  0  0  0
    6.4074    6.2246    6.2704 C   0  0  0  0  0  0  0  0  0  0  0  0
    7.6603    6.7793    6.3717 F   0  0  0  0  0  0  0  0  0  0  0  0
    5.8850    6.2588    5.0029 F   0  0  0  0  0  0  0  0  0  0  0  0
    6.5492    4.8716    6.5857 F   0  0  0  0  0  0  0  0  0  0  0  0
    4.0600    3.7436   15.7218 C   0  0  0  0  0  0  0  0  0  0  0  0
    4.3793    3.9527   16.8760 C   0  0  0  0  0  0  0  0  0  0  0  0
    4.7442    4.1775   18.2440 C   0  0  0  0  0  0  0  0  0  0  0  0
    5.0710    5.3289   18.8534 N   0  0  0  0  0  0  0  0  0  0  0  0
    5.3490    5.1397   20.1325 N   0  0  0  0  0  0  0  0  0  0  0  0
    5.1953    3.8103   20.3585 C   0  0  0  0  0  0  0  0  0  0  0  0
    5.3454    3.0747   21.4614 N   0  0  0  0  0  0  0  0  0  0  0  0
    5.1255    1.7476   21.4099 C   0  0  0  0  0  0  0  0  0  0  0  0
    4.7548    1.1207   20.2763 N   0  0  0  0  0  0  0  0  0  0  0  0
    4.5867    1.8174   19.1244 C   0  0  0  0  0  0  0  0  0  0  0  0
    4.1975    1.1600   17.9356 N   0  0  0  0  0  0  0  0  0  0  0  0
    4.8145    3.1768   19.1871 C   0  0  0  0  0  0  0  0  0  0  0  0
    3.2093    0.9381   17.7276 H   0  0  0  0  0  0  0  0  0  0  0  0
    4.9257    0.8926   17.2513 H   0  0  0  0  0  0  0  0  0  0  0  0
    5.7426    6.1461   21.1157 C   0  0  0  0  0  0  0  0  0  0  0  0
    7.1995    6.4550   20.8598 C   0  0  0  0  0  0  0  0  0  0  0  0
    7.6628    7.7103   21.5397 C   0  0  0  0  0  0  0  0  0  0  0  0
    6.6435    8.3068   22.4666 C   0  0  0  0  0  0  0  0  0  0  0  0
    6.5653    7.5855   23.6625 O   0  0  0  0  0  0  0  0  0  0  0  0
    5.2877    8.4739   21.8431 C   0  0  0  0  0  0  0  0  0  0  0  0
    4.9640    7.4103   20.8298 C   0  0  0  0  0  0  0  0  0  0  0  0
    7.1106    6.7754   23.6547 H   0  0  0  0  0  0  0  0  0  0  0  0
  1  2  1  0  0  0
  2  3  2  0  0  0
  3  4  1  0  0  0
  4  5  2  0  0  0
  5  8  1  0  0  0
  8  9  1  0  0  0
  9 10  2  0  0  0
  9 12  1  0  0  0
 12 13  2  0  0  0
 13 14  1  0  0  0
 14 15  2  0  0  0
 15 16  1  0  0  0
 15 17  1  0  0  0
 17 18  2  0  0  0
 17 19  1  0  0  0
 19 20  1  0  0  0
 19 21  1  0  0  0
 19 22  1  0  0  0
  5  6  1  0  0  0
  6  7  2  0  0  0
  7 23  1  0  0  0
 23 24  3  0  0  0
 24 25  1  0  0  0
 25 26  2  0  0  0
 26 27  1  0  0  0
 27 37  1  0  0  0
 37 38  1  0  0  0
 38 39  1  0  0  0
 39 40  1  0  0  0
 40 41  1  0  0  0
 40 42  1  0  0  0
 42 43  1  0  0  0
 27 28  1  0  0  0
 28 29  2  0  0  0
 29 30  1  0  0  0
 30 31  2  0  0  0
 31 32  1  0  0  0
 32 33  1  0  0  0
 32 34  2  0  0  0
  7  2  1  0  0  0
 34 25  1  0  0  0
 18 12  1  0  0  0
 43 37  1  0  0  0
 34 28  1  0  0  0
  8 11  1  0  0  0
 41 44  1  0  0  0
 33 35  1  0  0  0
 33 36  1  0  0  0
M  END
> <minimizedAffinity>
-9.36086

> <CNNscore>
0.1440133899

> <CNNaffinity>
6.2869729996

> <CNN_VS>
0.9054083228

> <CNNaffinity_variance>
0.4916866720

$$$$
[H]O[C@]1([H])C([H])([H])C([H])([H])[C@@]([H])(n2nc(C#Cc3c([H])c(N([H])C(=O)c4c([H])c([H])c(C([H])([H])[H])c(C(F)(F)F)c4[H])c([H])c([H])c3C([H])([H])[H])c3c(N([H])[H])nc([H])nc32)C([H])([H])C1([H])[H]


 44 48  0  0  0  0  0  0  0  0999 V2000
    5.1751    1.3712   20.8745 C   0  0  0  0  0  0  0  0  0  0  0  0
    4.5145    1.8714   19.6426 C   0  0  0  0  0  0  0  0  0  0  0  0
    3.7670    1.0150   18.8685 C   0  0  0  0  0  0  0  0  0  0  0  0
    3.1563    1.4611   17.7369 C   0  0  0  0  0  0  0  0  0  0  0  0
    3.2805    2.8010   17.3441 C   0  0  0  0  0  0  0  0  0  0  0  0
    4.0316    3.6279   18.1357 C   0  0  0  0  0  0  0  0  0  0  0  0
    4.6726    3.1946   19.3084 C   0  0  0  0  0  0  0  0  0  0  0  0
    2.6609    3.2295   16.1558 N   0  0  0  0  0  0  0  0  0  0  0  0
    2.8171    2.6198   14.9147 C   0  0  0  0  0  0  0  0  0  0  0  0
    3.5252    1.6188   14.6559 O   0  0  0  0  0  0  0  0  0  0  0  0
    2.0343    4.0836   16.2400 H   0  0  0  0  0  0  0  0  0  0  0  0
    2.0869    3.1848   13.7547 C   0  0  0  0  0  0  0  0  0  0  0  0
    1.7145    4.5068   13.7871 C   0  0  0  0  0  0  0  0  0  0  0  0
    1.0432    5.0603   12.7262 C   0  0  0  0  0  0  0  0  0  0  0  0
    0.7070    4.3468   11.5884 C   0  0  0  0  0  0  0  0  0  0  0  0
   -0.0206    4.9770   10.4581 C   0  0  0  0  0  0  0  0  0  0  0  0
    1.0942    3.0179   11.5825 C   0  0  0  0  0  0  0  0  0  0  0  0
    1.7748    2.4395   12.6472 C   0  0  0  0  0  0  0  0  0  0  0  0
    0.7547    2.2051   10.3780 C   0  0  0  0  0  0  0  0  0  0  0  0
   -0.5225    2.4730    9.9483 F   0  0  0  0  0  0  0  0  0  0  0  0
    1.0035    0.8726   10.5858 F   0  0  0  0  0  0  0  0  0  0  0  0
    1.6079    2.5932    9.3428 F   0  0  0  0  0  0  0  0  0  0  0  0
    5.4549    4.1032   20.1108 C   0  0  0  0  0  0  0  0  0  0  0  0
    6.1074    4.8854   20.7743 C   0  0  0  0  0  0  0  0  0  0  0  0
    6.8726    5.8260   21.5391 C   0  0  0  0  0  0  0  0  0  0  0  0
    8.0787    5.6695   22.1092 N   0  0  0  0  0  0  0  0  0  0  0  0
    8.4656    6.7678   22.7364 N   0  0  0  0  0  0  0  0  0  0  0  0
    7.4676    7.6712   22.5640 C   0  0  0  0  0  0  0  0  0  0  0  0
    7.3303    8.9315   22.9797 N   0  0  0  0  0  0  0  0  0  0  0  0
    6.2164    9.6179   22.6629 C   0  0  0  0  0  0  0  0  0  0  0  0
    5.2196    9.0796   21.9335 N   0  0  0  0  0  0  0  0  0  0  0  0
    5.3041    7.8025   21.4836 C   0  0  0  0  0  0  0  0  0  0  0  0
    4.2590    7.2381   20.7183 N   0  0  0  0  0  0  0  0  0  0  0  0
    6.4494    7.1071   21.8134 C   0  0  0  0  0  0  0  0  0  0  0  0
    4.1761    7.3948   19.6996 H   0  0  0  0  0  0  0  0  0  0  0  0
    3.5541    6.6486   21.1934 H   0  0  0  0  0  0  0  0  0  0  0  0
    9.7110    6.9814   23.4698 C   0  0  0  0  0  0  0  0  0  0  0  0
    9.3827    6.8227   24.9363 C   0  0  0  0  0  0  0  0  0  0  0  0
   10.6011    6.6598   25.7975 C   0  0  0  0  0  0  0  0  0  0  0  0
   11.8934    6.8579   25.0595 C   0  0  0  0  0  0  0  0  0  0  0  0
   12.1367    8.2148   24.8225 O   0  0  0  0  0  0  0  0  0  0  0  0
   11.9913    6.0588   23.7919 C   0  0  0  0  0  0  0  0  0  0  0  0
   10.6663    5.8675   23.1057 C   0  0  0  0  0  0  0  0  0  0  0  0
   11.3922    8.7873   25.0903 H   0  0  0  0  0  0  0  0  0  0  0  0
  1  2  1  0  0  0
  2  3  2  0  0  0
  3  4  1  0  0  0
  4  5  2  0  0  0
  5  8  1  0  0  0
  8  9  1  0  0  0
  9 10  2  0  0  0
  9 12  1  0  0  0
 12 13  2  0  0  0
 13 14  1  0  0  0
 14 15  2  0  0  0
 15 16  1  0  0  0
 15 17  1  0  0  0
 17 18  2  0  0  0
 17 19  1  0  0  0
 19 20  1  0  0  0
 19 21  1  0  0  0
 19 22  1  0  0  0
  5  6  1  0  0  0
  6  7  2  0  0  0
  7 23  1  0  0  0
 23 24  3  0  0  0
 24 25  1  0  0  0
 25 26  2  0  0  0
 26 27  1  0  0  0
 27 37  1  0  0  0
 37 38  1  0  0  0
 38 39  1  0  0  0
 39 40  1  0  0  0
 40 41  1  0  0  0
 40 42  1  0  0  0
 42 43  1  0  0  0
 27 28  1  0  0  0
 28 29  2  0  0  0
 29 30  1  0  0  0
 30 31  2  0  0  0
 31 32  1  0  0  0
 32 33  1  0  0  0
 32 34  2  0  0  0
  7  2  1  0  0  0
 34 25  1  0  0  0
 18 12  1  0  0  0
 43 37  1  0  0  0
 34 28  1  0  0  0
  8 11  1  0  0  0
 41 44  1  0  0  0
 33 35  1  0  0  0
 33 36  1  0  0  0
M  END
> <minimizedAffinity>
-9.23071

> <CNNscore>
0.1290324181

> <CNNaffinity>
6.4961233139

> <CNN_VS>
0.8382105231

> <CNNaffinity_variance>
0.3953091502

$$$$
[H]O[C@]1([H])C([H])([H])C([H])([H])[C@@]([H])(n2nc(C#Cc3c([H])c(N([H])C(=O)c4c([H])c([H])c(C([H])([H])[H])c(C(F)(F)F)c4[H])c([H])c([H])c3C([H])([H])[H])c3c(N([H])[H])nc([H])nc32)C([H])([H])C1([H])[H]


 44 48  0  0  0  0  0  0  0  0999 V2000
    4.0724    8.9305   17.4359 C   0  0  0  0  0  0  0  0  0  0  0  0
    4.0866    8.7008   15.9692 C   0  0  0  0  0  0  0  0  0  0  0  0
    4.1153    9.7719   15.1070 C   0  0  0  0  0  0  0  0  0  0  0  0
    4.1287    9.5749   13.7603 C   0  0  0  0  0  0  0  0  0  0  0  0
    4.1137    8.2763   13.2326 C   0  0  0  0  0  0  0  0  0  0  0  0
    4.0846    7.2316   14.1171 C   0  0  0  0  0  0  0  0  0  0  0  0
    4.0703    7.4057   15.5111 C   0  0  0  0  0  0  0  0  0  0  0  0
    4.1011    8.1015   11.8365 N   0  0  0  0  0  0  0  0  0  0  0  0
    5.1956    7.6991   11.0772 C   0  0  0  0  0  0  0  0  0  0  0  0
    6.3466    7.4413   11.5004 O   0  0  0  0  0  0  0  0  0  0  0  0
    3.1765    8.2988   11.3515 H   0  0  0  0  0  0  0  0  0  0  0  0
    5.0208    7.5494    9.6126 C   0  0  0  0  0  0  0  0  0  0  0  0
    4.5509    6.3558    9.1206 C   0  0  0  0  0  0  0  0  0  0  0  0
    4.3726    6.1888    7.7705 C   0  0  0  0  0  0  0  0  0  0  0  0
    4.6453    7.1800    6.8431 C   0  0  0  0  0  0  0  0  0  0  0  0
    4.4414    6.9655    5.3883 C   0  0  0  0  0  0  0  0  0  0  0  0
    5.1172    8.3715    7.3661 C   0  0  0  0  0  0  0  0  0  0  0  0
    5.3041    8.5597    8.7302 C   0  0  0  0  0  0  0  0  0  0  0  0
    5.4266    9.4720    6.4070 C   0  0  0  0  0  0  0  0  0  0  0  0
    6.2107    9.0179    5.3742 F   0  0  0  0  0  0  0  0  0  0  0  0
    5.9365   10.5700    7.0512 F   0  0  0  0  0  0  0  0  0  0  0  0
    4.2250    9.8930    5.8334 F   0  0  0  0  0  0  0  0  0  0  0  0
    4.0389    6.2734   16.4044 C   0  0  0  0  0  0  0  0  0  0  0  0
    4.0141    5.3328   17.1743 C   0  0  0  0  0  0  0  0  0  0  0  0
    3.9916    4.2394   18.1012 C   0  0  0  0  0  0  0  0  0  0  0  0
    4.2055    4.2509   19.4272 N   0  0  0  0  0  0  0  0  0  0  0  0
    4.0986    3.0395   19.9469 N   0  0  0  0  0  0  0  0  0  0  0  0
    3.8034    2.2110   18.9132 C   0  0  0  0  0  0  0  0  0  0  0  0
    3.5892    0.8951   18.8643 N   0  0  0  0  0  0  0  0  0  0  0  0
    3.3091    0.3110   17.6842 C   0  0  0  0  0  0  0  0  0  0  0  0
    3.2343    1.0080   16.5335 N   0  0  0  0  0  0  0  0  0  0  0  0
    3.4427    2.3484   16.5224 C   0  0  0  0  0  0  0  0  0  0  0  0
    3.3640    3.0794   15.3157 N   0  0  0  0  0  0  0  0  0  0  0  0
    3.7292    2.9380   17.7366 C   0  0  0  0  0  0  0  0  0  0  0  0
    2.4626    3.4036   14.9264 H   0  0  0  0  0  0  0  0  0  0  0  0
    4.2372    3.2972   14.8056 H   0  0  0  0  0  0  0  0  0  0  0  0
    4.2618    2.6545   21.3468 C   0  0  0  0  0  0  0  0  0  0  0  0
    5.6902    2.1872   21.5039 C   0  0  0  0  0  0  0  0  0  0  0  0
    6.1240    2.0929   22.9376 C   0  0  0  0  0  0  0  0  0  0  0  0
    5.0113    2.3131   23.9211 C   0  0  0  0  0  0  0  0  0  0  0  0
    4.1839    1.1885   24.0076 O   0  0  0  0  0  0  0  0  0  0  0  0
    4.2120    3.5567   23.6573 C   0  0  0  0  0  0  0  0  0  0  0  0
    4.1050    3.8959   22.1956 C   0  0  0  0  0  0  0  0  0  0  0  0
    4.4119    0.4974   23.3564 H   0  0  0  0  0  0  0  0  0  0  0  0
  1  2  1  0  0  0
  2  3  2  0  0  0
  3  4  1  0  0  0
  4  5  2  0  0  0
  5  8  1  0  0  0
  8  9  1  0  0  0
  9 10  2  0  0  0
  9 12  1  0  0  0
 12 13  2  0  0  0
 13 14  1  0  0  0
 14 15  2  0  0  0
 15 16  1  0  0  0
 15 17  1  0  0  0
 17 18  2  0  0  0
 17 19  1  0  0  0
 19 20  1  0  0  0
 19 21  1  0  0  0
 19 22  1  0  0  0
  5  6  1  0  0  0
  6  7  2  0  0  0
  7 23  1  0  0  0
 23 24  3  0  0  0
 24 25  1  0  0  0
 25 26  2  0  0  0
 26 27  1  0  0  0
 27 37  1  0  0  0
 37 38  1  0  0  0
 38 39  1  0  0  0
 39 40  1  0  0  0
 40 41  1  0  0  0
 40 42  1  0  0  0
 42 43  1  0  0  0
 27 28  1  0  0  0
 28 29  2  0  0  0
 29 30  1  0  0  0
 30 31  2  0  0  0
 31 32  1  0  0  0
 32 33  1  0  0  0
 32 34  2  0  0  0
  7  2  1  0  0  0
 34 25  1  0  0  0
 18 12  1  0  0  0
 43 37  1  0  0  0
 34 28  1  0  0  0
  8 11  1  0  0  0
 41 44  1  0  0  0
 33 35  1  0  0  0
 33 36  1  0  0  0
M  END
> <minimizedAffinity>
-9.25478

> <CNNscore>
0.1043693349

> <CNNaffinity>
6.1580505371

> <CNN_VS>
0.6427116394

> <CNNaffinity_variance>
0.7886803746

$$$$
[H]c1nc(N([H])[H])c2c(-c3c([H])c([H])c(N([H])C(=O)c4c([H])c(-c5c([H])c([H])nn5C([H])([H])[H])c(C([H])([H])[H])n(-c5c([H])nc([H])c([H])c5[H])c4=O)c([H])c3[H])c([H])c(C3([H])C([H])([H])C([H])([H])N(C(=O)C([H])(C([H])([H])[H])C([H])([H])[H])C([H])([H])C3([H])[H])n2n1


 53 59  0  0  0  0  0  0  0  0999 V2000
    3.1419    3.9245   15.1664 C   0  0  0  0  0  0  0  0  0  0  0  0
    3.4386    3.0982   14.1088 C   0  0  0  0  0  0  0  0  0  0  0  0
    2.7552    3.1988   12.8881 C   0  0  0  0  0  0  0  0  0  0  0  0
    1.7661    4.1017   12.6585 C   0  0  0  0  0  0  0  0  0  0  0  0
    1.4685    4.9430   13.7397 C   0  0  0  0  0  0  0  0  0  0  0  0
    2.1187    4.8643   14.9354 C   0  0  0  0  0  0  0  0  0  0  0  0
    5.0753    4.4689   18.1502 C   0  0  0  0  0  0  0  0  0  0  0  0
    4.5822    4.8710   16.9389 C   0  0  0  0  0  0  0  0  0  0  0  0
    3.7930    3.8577   16.4432 C   0  0  0  0  0  0  0  0  0  0  0  0
    3.8131    2.8474   17.3610 C   0  0  0  0  0  0  0  0  0  0  0  0
    3.2174    1.5964   17.4351 C   0  0  0  0  0  0  0  0  0  0  0  0
    2.3712    1.1914   16.3742 N   0  0  0  0  0  0  0  0  0  0  0  0
    3.4260    0.8005   18.5086 N   0  0  0  0  0  0  0  0  0  0  0  0
    4.2059    1.1907   19.5250 C   0  0  0  0  0  0  0  0  0  0  0  0
    4.7673    2.4003   19.4311 N   0  0  0  0  0  0  0  0  0  0  0  0
    4.6070    3.2269   18.4152 N   0  0  0  0  0  0  0  0  0  0  0  0
    2.6057    0.3992   15.7368 H   0  0  0  0  0  0  0  0  0  0  0  0
    1.4844    1.6997   16.2222 H   0  0  0  0  0  0  0  0  0  0  0  0
    8.4434    6.8515   21.5609 C   0  0  0  0  0  0  0  0  0  0  0  0
    8.3437    6.3319   22.7340 O   0  0  0  0  0  0  0  0  0  0  0  0
    7.2774    6.8044   20.7595 N   0  0  0  0  0  0  0  0  0  0  0  0
    7.1878    7.3257   19.4301 C   0  0  0  0  0  0  0  0  0  0  0  0
    6.8280    6.2340   18.4273 C   0  0  0  0  0  0  0  0  0  0  0  0
    5.9653    5.1802   19.0946 C   0  0  0  0  0  0  0  0  0  0  0  0
    5.1378    5.8942   20.1734 C   0  0  0  0  0  0  0  0  0  0  0  0
    6.0724    6.1723   21.3256 C   0  0  0  0  0  0  0  0  0  0  0  0
   10.8754    6.4675   21.1404 C   0  0  0  0  0  0  0  0  0  0  0  0
    9.7403    7.4438   21.1529 C   0  0  0  0  0  0  0  0  0  0  0  0
   10.0988    8.6439   22.0085 C   0  0  0  0  0  0  0  0  0  0  0  0
    1.0368    4.1914   11.4531 N   0  0  0  0  0  0  0  0  0  0  0  0
   -0.3665    4.1350   11.3592 C   0  0  0  0  0  0  0  0  0  0  0  0
   -1.0195    4.0094   12.4695 O   0  0  0  0  0  0  0  0  0  0  0  0
    1.6216    4.3219   10.5838 H   0  0  0  0  0  0  0  0  0  0  0  0
   -1.1593    4.2056   10.1481 C   0  0  0  0  0  0  0  0  0  0  0  0
   -1.1004    3.1324    9.2466 C   0  0  0  0  0  0  0  0  0  0  0  0
   -1.8466    3.0832    8.0745 C   0  0  0  0  0  0  0  0  0  0  0  0
   -2.6572    4.1673    7.8487 C   0  0  0  0  0  0  0  0  0  0  0  0
   -3.5480    4.1871    6.6532 C   0  0  0  0  0  0  0  0  0  0  0  0
   -2.7421    5.2349    8.6995 N   0  0  0  0  0  0  0  0  0  0  0  0
   -1.9997    5.2183    9.8071 C   0  0  0  0  0  0  0  0  0  0  0  0
   -2.1214    6.2325   10.5505 O   0  0  0  0  0  0  0  0  0  0  0  0
   -1.7715    1.8785    7.2529 C   0  0  0  0  0  0  0  0  0  0  0  0
   -2.4343    0.6725    7.4974 C   0  0  0  0  0  0  0  0  0  0  0  0
   -2.0113   -0.2439    6.5315 C   0  0  0  0  0  0  0  0  0  0  0  0
   -1.1448    0.3830    5.7557 N   0  0  0  0  0  0  0  0  0  0  0  0
   -0.9954    1.6604    6.1857 N   0  0  0  0  0  0  0  0  0  0  0  0
   -0.0479    2.5283    5.5206 C   0  0  0  0  0  0  0  0  0  0  0  0
   -3.6062    6.3233    8.3801 C   0  0  0  0  0  0  0  0  0  0  0  0
   -4.8993    6.3298    8.8405 C   0  0  0  0  0  0  0  0  0  0  0  0
   -5.7492    7.3781    8.5448 C   0  0  0  0  0  0  0  0  0  0  0  0
   -5.2712    8.4176    7.7775 C   0  0  0  0  0  0  0  0  0  0  0  0
   -3.9977    8.3769    7.3437 N   0  0  0  0  0  0  0  0  0  0  0  0
   -3.1430    7.3695    7.6142 C   0  0  0  0  0  0  0  0  0  0  0  0
 27 28  1  0  0  0
 28 29  1  0  0  0
 28 19  1  0  0  0
 19 20  2  0  0  0
 19 21  1  0  0  0
 21 22  1  0  0  0
 22 23  1  0  0  0
 23 24  1  0  0  0
 24 25  1  0  0  0
 25 26  1  0  0  0
 24  7  1  0  0  0
  7  8  2  0  0  0
  8  9  1  0  0  0
  9  1  1  0  0  0
  1  2  2  0  0  0
  2  3  1  0  0  0
  3  4  2  0  0  0
  4 30  1  0  0  0
 30 31  1  0  0  0
 31 32  2  0  0  0
 31 34  1  0  0  0
 34 35  2  0  0  0
 35 36  1  0  0  0
 36 42  1  0  0  0
 42 43  2  0  0  0
 43 44  1  0  0  0
 44 45  2  0  0  0
 45 46  1  0  0  0
 46 47  1  0  0  0
 36 37  2  0  0  0
 37 38  1  0  0  0
 37 39  1  0  0  0
 39 48  1  0  0  0
 48 49  2  0  0  0
 49 50  1  0  0  0
 50 51  2  0  0  0
 51 52  1  0  0  0
 52 53  2  0  0  0
 39 40  1  0  0  0
 40 41  2  0  0  0
  4  5  1  0  0  0
  5  6  2  0  0  0
  9 10  2  0  0  0
 10 11  1  0  0  0
 11 12  1  0  0  0
 11 13  2  0  0  0
 13 14  1  0  0  0
 14 15  2  0  0  0
 15 16  1  0  0  0
 26 21  1  0  0  0
 16  7  1  0  0  0
  6  1  1  0  0  0
 16 10  1  0  0  0
 40 34  1  0  0  0
 46 42  1  0  0  0
 53 48  1  0  0  0
 30 33  1  0  0  0
 12 17  1  0  0  0
 12 18  1  0  0  0
M  END
> <minimizedAffinity>
-8.96299

> <CNNscore>
0.3377496600

> <CNNaffinity>
7.1552262306

> <CNN_VS>
2.4166753292

> <CNNaffinity_variance>
0.9055131078

$$$$
[H]c1nc(N([H])[H])c2c(-c3c([H])c([H])c(N([H])C(=O)c4c([H])c(-c5c([H])c([H])nn5C([H])([H])[H])c(C([H])([H])[H])n(-c5c([H])nc([H])c([H])c5[H])c4=O)c([H])c3[H])c([H])c(C3([H])C([H])([H])C([H])([H])N(C(=O)C([H])(C([H])([H])[H])C([H])([H])[H])C([H])([H])C3([H])[H])n2n1


 53 59  0  0  0  0  0  0  0  0999 V2000
    1.3994    4.6335   13.5844 C   0  0  0  0  0  0  0  0  0  0  0  0
    0.0992    5.0756   13.5257 C   0  0  0  0  0  0  0  0  0  0  0  0
   -0.5596    5.2487   12.2996 C   0  0  0  0  0  0  0  0  0  0  0  0
    0.0226    4.9990   11.0976 C   0  0  0  0  0  0  0  0  0  0  0  0
    1.3480    4.5469   11.1630 C   0  0  0  0  0  0  0  0  0  0  0  0
    2.0091    4.3709   12.3423 C   0  0  0  0  0  0  0  0  0  0  0  0
    3.3130    4.9820   16.6101 C   0  0  0  0  0  0  0  0  0  0  0  0
    2.6464    5.5023   15.5344 C   0  0  0  0  0  0  0  0  0  0  0  0
    2.1308    4.4542   14.8057 C   0  0  0  0  0  0  0  0  0  0  0  0
    2.4890    3.3040   15.4478 C   0  0  0  0  0  0  0  0  0  0  0  0
    2.2633    1.9552   15.2132 C   0  0  0  0  0  0  0  0  0  0  0  0
    1.4881    1.5899   14.0856 N   0  0  0  0  0  0  0  0  0  0  0  0
    2.7547    1.0208   16.0587 N   0  0  0  0  0  0  0  0  0  0  0  0
    3.4672    1.3642   17.1395 C   0  0  0  0  0  0  0  0  0  0  0  0
    3.6698    2.6695   17.3448 N   0  0  0  0  0  0  0  0  0  0  0  0
    3.2204    3.6324   16.5626 N   0  0  0  0  0  0  0  0  0  0  0  0
    1.8849    1.0687   13.2733 H   0  0  0  0  0  0  0  0  0  0  0  0
    0.4881    1.8493   14.0631 H   0  0  0  0  0  0  0  0  0  0  0  0
    6.1409    7.3693   20.4775 C   0  0  0  0  0  0  0  0  0  0  0  0
    6.4210    6.5342   21.4157 O   0  0  0  0  0  0  0  0  0  0  0  0
    4.9514    7.1141   19.7535 N   0  0  0  0  0  0  0  0  0  0  0  0
    4.4707    7.9236   18.6761 C   0  0  0  0  0  0  0  0  0  0  0  0
    4.3579    7.1205   17.3841 C   0  0  0  0  0  0  0  0  0  0  0  0
    4.0387    5.6719   17.6996 C   0  0  0  0  0  0  0  0  0  0  0  0
    3.2005    5.6664   18.9864 C   0  0  0  0  0  0  0  0  0  0  0  0
    4.1526    5.9333   20.1270 C   0  0  0  0  0  0  0  0  0  0  0  0
    8.1015    8.2307   19.1918 C   0  0  0  0  0  0  0  0  0  0  0  0
    7.0641    8.5044   20.2362 C   0  0  0  0  0  0  0  0  0  0  0  0
    7.7299    8.9639   21.5194 C   0  0  0  0  0  0  0  0  0  0  0  0
   -0.6073    5.2072    9.8515 N   0  0  0  0  0  0  0  0  0  0  0  0
   -0.5283    6.3960    9.1020 C   0  0  0  0  0  0  0  0  0  0  0  0
    0.1925    7.3497    9.5979 O   0  0  0  0  0  0  0  0  0  0  0  0
   -1.1573    4.3843    9.4839 H   0  0  0  0  0  0  0  0  0  0  0  0
   -1.1679    6.6646    7.8296 C   0  0  0  0  0  0  0  0  0  0  0  0
   -0.3636    7.0358    6.7418 C   0  0  0  0  0  0  0  0  0  0  0  0
   -0.8709    7.2809    5.4708 C   0  0  0  0  0  0  0  0  0  0  0  0
   -2.2297    7.1363    5.3432 C   0  0  0  0  0  0  0  0  0  0  0  0
   -2.8689    7.3130    4.0078 C   0  0  0  0  0  0  0  0  0  0  0  0
   -3.0500    6.7793    6.3778 N   0  0  0  0  0  0  0  0  0  0  0  0
   -2.4984    6.5578    7.5715 C   0  0  0  0  0  0  0  0  0  0  0  0
   -3.3080    6.2331    8.4853 O   0  0  0  0  0  0  0  0  0  0  0  0
    0.0683    7.5770    4.3928 C   0  0  0  0  0  0  0  0  0  0  0  0
    1.0071    6.6935    3.8529 C   0  0  0  0  0  0  0  0  0  0  0  0
    1.7653    7.4036    2.9189 C   0  0  0  0  0  0  0  0  0  0  0  0
    1.3027    8.6411    2.9046 N   0  0  0  0  0  0  0  0  0  0  0  0
    0.2820    8.7519    3.7905 N   0  0  0  0  0  0  0  0  0  0  0  0
   -0.3489   10.0384    3.9912 C   0  0  0  0  0  0  0  0  0  0  0  0
   -4.4535    6.6606    6.1554 C   0  0  0  0  0  0  0  0  0  0  0  0
   -4.9905    5.4498    5.7950 C   0  0  0  0  0  0  0  0  0  0  0  0
   -6.3485    5.3152    5.5800 C   0  0  0  0  0  0  0  0  0  0  0  0
   -7.1531    6.4226    5.7350 C   0  0  0  0  0  0  0  0  0  0  0  0
   -6.5913    7.5933    6.0892 N   0  0  0  0  0  0  0  0  0  0  0  0
   -5.2707    7.7583    6.3064 C   0  0  0  0  0  0  0  0  0  0  0  0
 27 28  1  0  0  0
 28 29  1  0  0  0
 28 19  1  0  0  0
 19 20  2  0  0  0
 19 21  1  0  0  0
 21 22  1  0  0  0
 22 23  1  0  0  0
 23 24  1  0  0  0
 24 25  1  0  0  0
 25 26  1  0  0  0
 24  7  1  0  0  0
  7  8  2  0  0  0
  8  9  1  0  0  0
  9  1  1  0  0  0
  1  2  2  0  0  0
  2  3  1  0  0  0
  3  4  2  0  0  0
  4 30  1  0  0  0
 30 31  1  0  0  0
 31 32  2  0  0  0
 31 34  1  0  0  0
 34 35  2  0  0  0
 35 36  1  0  0  0
 36 42  1  0  0  0
 42 43  2  0  0  0
 43 44  1  0  0  0
 44 45  2  0  0  0
 45 46  1  0  0  0
 46 47  1  0  0  0
 36 37  2  0  0  0
 37 38  1  0  0  0
 37 39  1  0  0  0
 39 48  1  0  0  0
 48 49  2  0  0  0
 49 50  1  0  0  0
 50 51  2  0  0  0
 51 52  1  0  0  0
 52 53  2  0  0  0
 39 40  1  0  0  0
 40 41  2  0  0  0
  4  5  1  0  0  0
  5  6  2  0  0  0
  9 10  2  0  0  0
 10 11  1  0  0  0
 11 12  1  0  0  0
 11 13  2  0  0  0
 13 14  1  0  0  0
 14 15  2  0  0  0
 15 16  1  0  0  0
 26 21  1  0  0  0
 16  7  1  0  0  0
  6  1  1  0  0  0
 16 10  1  0  0  0
 40 34  1  0  0  0
 46 42  1  0  0  0
 53 48  1  0  0  0
 30 33  1  0  0  0
 12 17  1  0  0  0
 12 18  1  0  0  0
M  END
> <minimizedAffinity>
-8.02540

> <CNNscore>
0.3169825971

> <CNNaffinity>
7.0065941811

> <CNN_VS>
2.2209684849

> <CNNaffinity_variance>
0.6342355013

$$$$
[H]c1nc(N([H])[H])c2c(-c3c([H])c([H])c(N([H])C(=O)c4c([H])c(-c5c([H])c([H])nn5C([H])([H])[H])c(C([H])([H])[H])n(-c5c([H])nc([H])c([H])c5[H])c4=O)c([H])c3[H])c([H])c(C3([H])C([H])([H])C([H])([H])N(C(=O)C([H])(C([H])([H])[H])C([H])([H])[H])C([H])([H])C3([H])[H])n2n1


 53 59  0  0  0  0  0  0  0  0999 V2000
    2.8912    4.4388   14.8842 C   0  0  0  0  0  0  0  0  0  0  0  0
    3.3447    3.9609   13.6779 C   0  0  0  0  0  0  0  0  0  0  0  0
    2.6182    4.1562   12.4941 C   0  0  0  0  0  0  0  0  0  0  0  0
    1.4330    4.8190   12.4464 C   0  0  0  0  0  0  0  0  0  0  0  0
    0.9757    5.3058   13.6790 C   0  0  0  0  0  0  0  0  0  0  0  0
    1.6639    5.1286   14.8424 C   0  0  0  0  0  0  0  0  0  0  0  0
    4.9079    4.7115   17.8500 C   0  0  0  0  0  0  0  0  0  0  0  0
    4.3765    5.2238   16.6979 C   0  0  0  0  0  0  0  0  0  0  0  0
    3.5801    4.2555   16.1294 C   0  0  0  0  0  0  0  0  0  0  0  0
    3.6342    3.1615   16.9441 C   0  0  0  0  0  0  0  0  0  0  0  0
    3.0496    1.9035   16.9139 C   0  0  0  0  0  0  0  0  0  0  0  0
    2.1752    1.5946   15.8434 N   0  0  0  0  0  0  0  0  0  0  0  0
    3.2951    1.0097   17.8989 N   0  0  0  0  0  0  0  0  0  0  0  0
    4.1020    1.3076   18.9255 C   0  0  0  0  0  0  0  0  0  0  0  0
    4.6520    2.5259   18.9330 N   0  0  0  0  0  0  0  0  0  0  0  0
    4.4562    3.4452   18.0069 N   0  0  0  0  0  0  0  0  0  0  0  0
    2.3963    0.8699   15.1259 H   0  0  0  0  0  0  0  0  0  0  0  0
    1.2809    2.1066   15.7668 H   0  0  0  0  0  0  0  0  0  0  0  0
    8.3489    6.7774   21.3918 C   0  0  0  0  0  0  0  0  0  0  0  0
    8.2163    6.2078   22.5382 O   0  0  0  0  0  0  0  0  0  0  0  0
    7.1888    6.8203   20.5816 N   0  0  0  0  0  0  0  0  0  0  0  0
    7.1338    7.4074   19.2780 C   0  0  0  0  0  0  0  0  0  0  0  0
    6.7346    6.3814   18.2221 C   0  0  0  0  0  0  0  0  0  0  0  0
    5.8204    5.3369   18.8329 C   0  0  0  0  0  0  0  0  0  0  0  0
    5.0162    6.0352   19.9391 C   0  0  0  0  0  0  0  0  0  0  0  0
    5.9523    6.2166   21.1093 C   0  0  0  0  0  0  0  0  0  0  0  0
   10.7687    6.3087   20.9870 C   0  0  0  0  0  0  0  0  0  0  0  0
    9.6742    7.3298   21.0209 C   0  0  0  0  0  0  0  0  0  0  0  0
   10.0697    8.4832   21.9232 C   0  0  0  0  0  0  0  0  0  0  0  0
    0.6650    4.9895   11.2742 N   0  0  0  0  0  0  0  0  0  0  0  0
    0.3492    6.2336   10.6966 C   0  0  0  0  0  0  0  0  0  0  0  0
    0.8200    7.2851   11.2860 O   0  0  0  0  0  0  0  0  0  0  0  0
    0.3329    4.0952   10.8217 H   0  0  0  0  0  0  0  0  0  0  0  0
   -0.4469    6.4618    9.5073 C   0  0  0  0  0  0  0  0  0  0  0  0
    0.1828    6.9961    8.3733 C   0  0  0  0  0  0  0  0  0  0  0  0
   -0.4796    7.2206    7.1717 C   0  0  0  0  0  0  0  0  0  0  0  0
   -1.8098    6.8830    7.1626 C   0  0  0  0  0  0  0  0  0  0  0  0
   -2.5988    7.0234    5.9053 C   0  0  0  0  0  0  0  0  0  0  0  0
   -2.4626    6.3627    8.2461 N   0  0  0  0  0  0  0  0  0  0  0  0
   -1.7678    6.1716    9.3682 C   0  0  0  0  0  0  0  0  0  0  0  0
   -2.4267    5.6902   10.3325 O   0  0  0  0  0  0  0  0  0  0  0  0
    0.2946    7.7003    6.0304 C   0  0  0  0  0  0  0  0  0  0  0  0
    0.4823    9.0364    5.6660 C   0  0  0  0  0  0  0  0  0  0  0  0
    1.1973    9.0492    4.4659 C   0  0  0  0  0  0  0  0  0  0  0  0
    1.4221    7.7900    4.1353 N   0  0  0  0  0  0  0  0  0  0  0  0
    0.8801    6.9734    5.0725 N   0  0  0  0  0  0  0  0  0  0  0  0
    0.9516    5.5394    4.8934 C   0  0  0  0  0  0  0  0  0  0  0  0
   -3.8501    6.0484    8.1487 C   0  0  0  0  0  0  0  0  0  0  0  0
   -4.2426    4.7951    7.7496 C   0  0  0  0  0  0  0  0  0  0  0  0
   -5.5822    4.4714    7.6538 C   0  0  0  0  0  0  0  0  0  0  0  0
   -6.5166    5.4338    7.9676 C   0  0  0  0  0  0  0  0  0  0  0  0
   -6.0946    6.6517    8.3552 N   0  0  0  0  0  0  0  0  0  0  0  0
   -4.7959    6.9996    8.4588 C   0  0  0  0  0  0  0  0  0  0  0  0
 27 28  1  0  0  0
 28 29  1  0  0  0
 28 19  1  0  0  0
 19 20  2  0  0  0
 19 21  1  0  0  0
 21 22  1  0  0  0
 22 23  1  0  0  0
 23 24  1  0  0  0
 24 25  1  0  0  0
 25 26  1  0  0  0
 24  7  1  0  0  0
  7  8  2  0  0  0
  8  9  1  0  0  0
  9  1  1  0  0  0
  1  2  2  0  0  0
  2  3  1  0  0  0
  3  4  2  0  0  0
  4 30  1  0  0  0
 30 31  1  0  0  0
 31 32  2  0  0  0
 31 34  1  0  0  0
 34 35  2  0  0  0
 35 36  1  0  0  0
 36 42  1  0  0  0
 42 43  2  0  0  0
 43 44  1  0  0  0
 44 45  2  0  0  0
 45 46  1  0  0  0
 46 47  1  0  0  0
 36 37  2  0  0  0
 37 38  1  0  0  0
 37 39  1  0  0  0
 39 48  1  0  0  0
 48 49  2  0  0  0
 49 50  1  0  0  0
 50 51  2  0  0  0
 51 52  1  0  0  0
 52 53  2  0  0  0
 39 40  1  0  0  0
 40 41  2  0  0  0
  4  5  1  0  0  0
  5  6  2  0  0  0
  9 10  2  0  0  0
 10 11  1  0  0  0
 11 12  1  0  0  0
 11 13  2  0  0  0
 13 14  1  0  0  0
 14 15  2  0  0  0
 15 16  1  0  0  0
 26 21  1  0  0  0
 16  7  1  0  0  0
  6  1  1  0  0  0
 16 10  1  0  0  0
 40 34  1  0  0  0
 46 42  1  0  0  0
 53 48  1  0  0  0
 30 33  1  0  0  0
 12 17  1  0  0  0
 12 18  1  0  0  0
M  END
> <minimizedAffinity>
-8.79365

> <CNNscore>
0.2642542124

> <CNNaffinity>
6.9789071083

> <CNN_VS>
1.8442056179

> <CNNaffinity_variance>
0.4847818911

$$$$
[H]c1nc(N([H])[H])c2c(-c3c([H])c([H])c(N([H])C(=O)c4c([H])c(-c5c([H])c([H])nn5C([H])([H])[H])c(C([H])([H])[H])n(-c5c([H])nc([H])c([H])c5[H])c4=O)c([H])c3[H])c([H])c(C3([H])C([H])([H])C([H])([H])N(C(=O)C([H])(C([H])([H])[H])C([H])([H])[H])C([H])([H])C3([H])[H])n2n1


 53 59  0  0  0  0  0  0  0  0999 V2000
    2.8154    4.8630   15.1461 C   0  0  0  0  0  0  0  0  0  0  0  0
    3.1746    4.4558   13.8834 C   0  0  0  0  0  0  0  0  0  0  0  0
    2.4254    4.8228   12.7558 C   0  0  0  0  0  0  0  0  0  0  0  0
    1.3083    5.5935   12.8205 C   0  0  0  0  0  0  0  0  0  0  0  0
    0.9471    6.0075   14.1102 C   0  0  0  0  0  0  0  0  0  0  0  0
    1.6592    5.6637   15.2208 C   0  0  0  0  0  0  0  0  0  0  0  0
    4.9118    4.7075   18.0648 C   0  0  0  0  0  0  0  0  0  0  0  0
    4.3643    5.3755   17.0035 C   0  0  0  0  0  0  0  0  0  0  0  0
    3.5306    4.5057   16.3375 C   0  0  0  0  0  0  0  0  0  0  0  0
    3.5786    3.3146   17.0027 C   0  0  0  0  0  0  0  0  0  0  0  0
    2.9630    2.0836   16.8270 C   0  0  0  0  0  0  0  0  0  0  0  0
    2.0549    1.9340   15.7506 N   0  0  0  0  0  0  0  0  0  0  0  0
    3.2115    1.0649   17.6814 N   0  0  0  0  0  0  0  0  0  0  0  0
    4.0507    1.2106   18.7149 C   0  0  0  0  0  0  0  0  0  0  0  0
    4.6301    2.4060   18.8639 N   0  0  0  0  0  0  0  0  0  0  0  0
    4.4335    3.4412   18.0698 N   0  0  0  0  0  0  0  0  0  0  0  0
    2.2403    1.3039   14.9398 H   0  0  0  0  0  0  0  0  0  0  0  0
    1.1716    2.4701   15.7656 H   0  0  0  0  0  0  0  0  0  0  0  0
    8.4989    6.2360   21.7320 C   0  0  0  0  0  0  0  0  0  0  0  0
    8.4500    5.4666   22.7625 O   0  0  0  0  0  0  0  0  0  0  0  0
    7.2922    6.3793   21.0059 N   0  0  0  0  0  0  0  0  0  0  0  0
    7.1440    7.1869   19.8342 C   0  0  0  0  0  0  0  0  0  0  0  0
    6.7111    6.3515   18.6335 C   0  0  0  0  0  0  0  0  0  0  0  0
    5.8635    5.1813   19.0941 C   0  0  0  0  0  0  0  0  0  0  0  0
    5.1074    5.6406   20.3493 C   0  0  0  0  0  0  0  0  0  0  0  0
    6.1059    5.6453   21.4814 C   0  0  0  0  0  0  0  0  0  0  0  0
   10.9863    6.0330   21.6292 C   0  0  0  0  0  0  0  0  0  0  0  0
    9.7843    6.8949   21.3965 C   0  0  0  0  0  0  0  0  0  0  0  0
    9.9429    8.2135   22.1294 C   0  0  0  0  0  0  0  0  0  0  0  0
    0.5159    5.9387   11.7042 N   0  0  0  0  0  0  0  0  0  0  0  0
   -0.7597    5.4095   11.4322 C   0  0  0  0  0  0  0  0  0  0  0  0
   -1.2317    4.5602   12.2871 O   0  0  0  0  0  0  0  0  0  0  0  0
    0.9407    6.6573   11.0578 H   0  0  0  0  0  0  0  0  0  0  0  0
   -1.6035    5.7180   10.2950 C   0  0  0  0  0  0  0  0  0  0  0  0
   -2.9754    5.4396   10.3851 C   0  0  0  0  0  0  0  0  0  0  0  0
   -3.8775    5.7286    9.3674 C   0  0  0  0  0  0  0  0  0  0  0  0
   -3.3347    6.3118    8.2499 C   0  0  0  0  0  0  0  0  0  0  0  0
   -4.2235    6.7214    7.1250 C   0  0  0  0  0  0  0  0  0  0  0  0
   -2.0034    6.5972    8.1201 N   0  0  0  0  0  0  0  0  0  0  0  0
   -1.1924    6.2948    9.1346 C   0  0  0  0  0  0  0  0  0  0  0  0
    0.0245    6.5815    8.9533 O   0  0  0  0  0  0  0  0  0  0  0  0
   -5.2959    5.4743    9.6030 C   0  0  0  0  0  0  0  0  0  0  0  0
   -6.1410    6.2236   10.4263 C   0  0  0  0  0  0  0  0  0  0  0  0
   -7.3831    5.5846   10.4479 C   0  0  0  0  0  0  0  0  0  0  0  0
   -7.2817    4.5146    9.6796 N   0  0  0  0  0  0  0  0  0  0  0  0
   -6.0274    4.4421    9.1693 N   0  0  0  0  0  0  0  0  0  0  0  0
   -5.6619    3.3158    8.3379 C   0  0  0  0  0  0  0  0  0  0  0  0
   -1.5254    7.1970    6.9180 C   0  0  0  0  0  0  0  0  0  0  0  0
   -1.0882    6.4067    5.8844 C   0  0  0  0  0  0  0  0  0  0  0  0
   -0.6261    6.9703    4.7107 C   0  0  0  0  0  0  0  0  0  0  0  0
   -0.6131    8.3433    4.5996 C   0  0  0  0  0  0  0  0  0  0  0  0
   -1.0493    9.0862    5.6338 N   0  0  0  0  0  0  0  0  0  0  0  0
   -1.5062    8.5679    6.7919 C   0  0  0  0  0  0  0  0  0  0  0  0
 27 28  1  0  0  0
 28 29  1  0  0  0
 28 19  1  0  0  0
 19 20  2  0  0  0
 19 21  1  0  0  0
 21 22  1  0  0  0
 22 23  1  0  0  0
 23 24  1  0  0  0
 24 25  1  0  0  0
 25 26  1  0  0  0
 24  7  1  0  0  0
  7  8  2  0  0  0
  8  9  1  0  0  0
  9  1  1  0  0  0
  1  2  2  0  0  0
  2  3  1  0  0  0
  3  4  2  0  0  0
  4 30  1  0  0  0
 30 31  1  0  0  0
 31 32  2  0  0  0
 31 34  1  0  0  0
 34 35  2  0  0  0
 35 36  1  0  0  0
 36 42  1  0  0  0
 42 43  2  0  0  0
 43 44  1  0  0  0
 44 45  2  0  0  0
 45 46  1  0  0  0
 46 47  1  0  0  0
 36 37  2  0  0  0
 37 38  1  0  0  0
 37 39  1  0  0  0
 39 48  1  0  0  0
 48 49  2  0  0  0
 49 50  1  0  0  0
 50 51  2  0  0  0
 51 52  1  0  0  0
 52 53  2  0  0  0
 39 40  1  0  0  0
 40 41  2  0  0  0
  4  5  1  0  0  0
  5  6  2  0  0  0
  9 10  2  0  0  0
 10 11  1  0  0  0
 11 12  1  0  0  0
 11 13  2  0  0  0
 13 14  1  0  0  0
 14 15  2  0  0  0
 15 16  1  0  0  0
 26 21  1  0  0  0
 16  7  1  0  0  0
  6  1  1  0  0  0
 16 10  1  0  0  0
 40 34  1  0  0  0
 46 42  1  0  0  0
 53 48  1  0  0  0
 30 33  1  0  0  0
 12 17  1  0  0  0
 12 18  1  0  0  0
M  END
> <minimizedAffinity>
-9.53059

> <CNNscore>
0.1704781204

> <CNNaffinity>
6.8523168564

> <CNN_VS>
1.1681700945

> <CNNaffinity_variance>
0.3905802369

$$$$
[H]c1nc(N([H])[H])c2c(-c3c([H])c([H])c(N([H])C(=O)c4c([H])c(-c5c([H])c([H])nn5C([H])([H])[H])c(C([H])([H])[H])n(-c5c([H])nc([H])c([H])c5[H])c4=O)c([H])c3[H])c([H])c(C3([H])C([H])([H])C([H])([H])N(C(=O)C([H])(C([H])([H])[H])C([H])([H])[H])C([H])([H])C3([H])[H])n2n1


 53 59  0  0  0  0  0  0  0  0999 V2000
    3.8264    3.1981   17.5654 C   0  0  0  0  0  0  0  0  0  0  0  0
    2.7681    3.8968   17.0352 C   0  0  0  0  0  0  0  0  0  0  0  0
    2.1746    3.5162   15.8227 C   0  0  0  0  0  0  0  0  0  0  0  0
    2.5898    2.4494   15.0908 C   0  0  0  0  0  0  0  0  0  0  0  0
    3.6682    1.7393   15.6367 C   0  0  0  0  0  0  0  0  0  0  0  0
    4.2613    2.0897   16.8131 C   0  0  0  0  0  0  0  0  0  0  0  0
    5.6912    4.7354   20.2294 C   0  0  0  0  0  0  0  0  0  0  0  0
    5.1491    4.7411   18.9731 C   0  0  0  0  0  0  0  0  0  0  0  0
    4.4854    3.5488   18.7907 C   0  0  0  0  0  0  0  0  0  0  0  0
    4.6299    2.8286   19.9413 C   0  0  0  0  0  0  0  0  0  0  0  0
    4.1889    1.5828   20.3640 C   0  0  0  0  0  0  0  0  0  0  0  0
    3.3935    0.8156   19.4782 N   0  0  0  0  0  0  0  0  0  0  0  0
    4.4953    1.1307   21.6014 N   0  0  0  0  0  0  0  0  0  0  0  0
    5.2264    1.8643   22.4505 C   0  0  0  0  0  0  0  0  0  0  0  0
    5.6382    3.0613   22.0209 N   0  0  0  0  0  0  0  0  0  0  0  0
    5.3763    3.5636   20.8292 N   0  0  0  0  0  0  0  0  0  0  0  0
    3.7191   -0.0854   19.0646 H   0  0  0  0  0  0  0  0  0  0  0  0
    2.4516    1.1598   19.2289 H   0  0  0  0  0  0  0  0  0  0  0  0
    8.7641    8.3117   22.7633 C   0  0  0  0  0  0  0  0  0  0  0  0
    8.7584    8.0964   24.0320 O   0  0  0  0  0  0  0  0  0  0  0  0
    7.6008    7.9153   22.0606 N   0  0  0  0  0  0  0  0  0  0  0  0
    7.4160    8.0685   20.6502 C   0  0  0  0  0  0  0  0  0  0  0  0
    7.1906    6.7224   19.9689 C   0  0  0  0  0  0  0  0  0  0  0  0
    6.4928    5.7697   20.9204 C   0  0  0  0  0  0  0  0  0  0  0  0
    5.5955    6.6208   21.8309 C   0  0  0  0  0  0  0  0  0  0  0  0
    6.5045    7.2977   22.8279 C   0  0  0  0  0  0  0  0  0  0  0  0
   11.0810    7.9866   21.8885 C   0  0  0  0  0  0  0  0  0  0  0  0
    9.9599    8.9427   22.1541 C   0  0  0  0  0  0  0  0  0  0  0  0
   10.4597   10.1086   22.9858 C   0  0  0  0  0  0  0  0  0  0  0  0
    2.0350    2.0747   13.8479 N   0  0  0  0  0  0  0  0  0  0  0  0
    2.4355    2.5935   12.6023 C   0  0  0  0  0  0  0  0  0  0  0  0
    3.3946    3.4623   12.6150 O   0  0  0  0  0  0  0  0  0  0  0  0
    1.2769    1.3415   13.8979 H   0  0  0  0  0  0  0  0  0  0  0  0
    1.8880    2.2549   11.3038 C   0  0  0  0  0  0  0  0  0  0  0  0
    2.4980    1.2281   10.5679 C   0  0  0  0  0  0  0  0  0  0  0  0
    2.0320    0.8011    9.3296 C   0  0  0  0  0  0  0  0  0  0  0  0
    0.9206    1.4570    8.8626 C   0  0  0  0  0  0  0  0  0  0  0  0
    0.3006    1.0343    7.5741 C   0  0  0  0  0  0  0  0  0  0  0  0
    0.2974    2.4645    9.5462 N   0  0  0  0  0  0  0  0  0  0  0  0
    0.7957    2.8250   10.7295 C   0  0  0  0  0  0  0  0  0  0  0  0
    0.1771    3.7611   11.3101 O   0  0  0  0  0  0  0  0  0  0  0  0
    2.6934   -0.3336    8.6917 C   0  0  0  0  0  0  0  0  0  0  0  0
    2.4838   -1.6829    8.9901 C   0  0  0  0  0  0  0  0  0  0  0  0
    3.3840   -2.4282    8.2248 C   0  0  0  0  0  0  0  0  0  0  0  0
    4.0897   -1.5692    7.5109 N   0  0  0  0  0  0  0  0  0  0  0  0
    3.6794   -0.3068    7.7885 N   0  0  0  0  0  0  0  0  0  0  0  0
    4.3504    0.8125    7.1639 C   0  0  0  0  0  0  0  0  0  0  0  0
   -0.8488    3.0962    8.9800 C   0  0  0  0  0  0  0  0  0  0  0  0
   -2.0968    2.5631    9.1853 C   0  0  0  0  0  0  0  0  0  0  0  0
   -3.2189    3.1641    8.6483 C   0  0  0  0  0  0  0  0  0  0  0  0
   -3.0586    4.3107    7.9018 C   0  0  0  0  0  0  0  0  0  0  0  0
   -1.8196    4.8046    7.7216 N   0  0  0  0  0  0  0  0  0  0  0  0
   -0.7047    4.2428    8.2315 C   0  0  0  0  0  0  0  0  0  0  0  0
 27 28  1  0  0  0
 28 29  1  0  0  0
 28 19  1  0  0  0
 19 20  2  0  0  0
 19 21  1  0  0  0
 21 22  1  0  0  0
 22 23  1  0  0  0
 23 24  1  0  0  0
 24 25  1  0  0  0
 25 26  1  0  0  0
 24  7  1  0  0  0
  7  8  2  0  0  0
  8  9  1  0  0  0
  9  1  1  0  0  0
  1  2  2  0  0  0
  2  3  1  0  0  0
  3  4  2  0  0  0
  4 30  1  0  0  0
 30 31  1  0  0  0
 31 32  2  0  0  0
 31 34  1  0  0  0
 34 35  2  0  0  0
 35 36  1  0  0  0
 36 42  1  0  0  0
 42 43  2  0  0  0
 43 44  1  0  0  0
 44 45  2  0  0  0
 45 46  1  0  0  0
 46 47  1  0  0  0
 36 37  2  0  0  0
 37 38  1  0  0  0
 37 39  1  0  0  0
 39 48  1  0  0  0
 48 49  2  0  0  0
 49 50  1  0  0  0
 50 51  2  0  0  0
 51 52  1  0  0  0
 52 53  2  0  0  0
 39 40  1  0  0  0
 40 41  2  0  0  0
  4  5  1  0  0  0
  5  6  2  0  0  0
  9 10  2  0  0  0
 10 11  1  0  0  0
 11 12  1  0  0  0
 11 13  2  0  0  0
 13 14  1  0  0  0
 14 15  2  0  0  0
 15 16  1  0  0  0
 26 21  1  0  0  0
 16  7  1  0  0  0
  6  1  1  0  0  0
 16 10  1  0  0  0
 40 34  1  0  0  0
 46 42  1  0  0  0
 53 48  1  0  0  0
 30 33  1  0  0  0
 12 17  1  0  0  0
 12 18  1  0  0  0
M  END
> <minimizedAffinity>
-8.95642

> <CNNscore>
0.1080078110

> <CNNaffinity>
7.1458406448

> <CNN_VS>
0.7718065977

> <CNNaffinity_variance>
0.6375473738

$$$$
[H]c1nc(N([H])[H])c2c(-c3c([H])c([H])c(N([H])C(=O)c4c([H])c(-c5c([H])c([H])nn5C([H])([H])[H])c(C([H])([H])[H])n(-c5c([H])nc([H])c([H])c5[H])c4=O)c([H])c3[H])c([H])c(C3([H])C([H])([H])C([H])([H])N(C(=O)C([H])(C([H])([H])[H])C([H])([H])[H])C([H])([H])C3([H])[H])n2n1


 53 59  0  0  0  0  0  0  0  0999 V2000
    1.8801    4.7716   12.6697 C   0  0  0  0  0  0  0  0  0  0  0  0
    1.9402    6.0165   13.2494 C   0  0  0  0  0  0  0  0  0  0  0  0
    2.6779    6.2430   14.4207 C   0  0  0  0  0  0  0  0  0  0  0  0
    3.3768    5.2704   15.0624 C   0  0  0  0  0  0  0  0  0  0  0  0
    3.3136    4.0031   14.4664 C   0  0  0  0  0  0  0  0  0  0  0  0
    2.6037    3.7586   13.3285 C   0  0  0  0  0  0  0  0  0  0  0  0
   -0.5814    3.8377   10.2190 C   0  0  0  0  0  0  0  0  0  0  0  0
   -0.1874    4.0733   11.5079 C   0  0  0  0  0  0  0  0  0  0  0  0
    1.1293    4.4748   11.4837 C   0  0  0  0  0  0  0  0  0  0  0  0
    1.5235    4.4805   10.1767 C   0  0  0  0  0  0  0  0  0  0  0  0
    2.7068    4.7972    9.5251 C   0  0  0  0  0  0  0  0  0  0  0  0
    3.8062    5.2343   10.3036 N   0  0  0  0  0  0  0  0  0  0  0  0
    2.7918    4.7109    8.1780 N   0  0  0  0  0  0  0  0  0  0  0  0
    1.7464    4.3216    7.4369 C   0  0  0  0  0  0  0  0  0  0  0  0
    0.6172    4.0234    8.0874 N   0  0  0  0  0  0  0  0  0  0  0  0
    0.4647    4.0856    9.3965 N   0  0  0  0  0  0  0  0  0  0  0  0
    4.6858    4.6809   10.3980 H   0  0  0  0  0  0  0  0  0  0  0  0
    3.7374    6.1379   10.8001 H   0  0  0  0  0  0  0  0  0  0  0  0
   -5.4165    2.2686    8.5420 C   0  0  0  0  0  0  0  0  0  0  0  0
   -5.6871    1.0886    8.9787 O   0  0  0  0  0  0  0  0  0  0  0  0
   -4.0446    2.5610    8.3514 N   0  0  0  0  0  0  0  0  0  0  0  0
   -3.5429    3.8136    7.8758 C   0  0  0  0  0  0  0  0  0  0  0  0
   -2.6107    4.4625    8.8940 C   0  0  0  0  0  0  0  0  0  0  0  0
   -1.8921    3.3937    9.6947 C   0  0  0  0  0  0  0  0  0  0  0  0
   -1.7139    2.1820    8.7683 C   0  0  0  0  0  0  0  0  0  0  0  0
   -3.0615    1.5095    8.6674 C   0  0  0  0  0  0  0  0  0  0  0  0
   -7.5679    3.2349    9.3648 C   0  0  0  0  0  0  0  0  0  0  0  0
   -6.5367    3.2043    8.2797 C   0  0  0  0  0  0  0  0  0  0  0  0
   -7.1984    2.9213    6.9444 C   0  0  0  0  0  0  0  0  0  0  0  0
    4.0900    5.4669   16.2647 N   0  0  0  0  0  0  0  0  0  0  0  0
    3.5183    5.4339   17.5505 C   0  0  0  0  0  0  0  0  0  0  0  0
    2.2497    5.1867   17.6170 O   0  0  0  0  0  0  0  0  0  0  0  0
    5.1259    5.6356   16.1493 H   0  0  0  0  0  0  0  0  0  0  0  0
    4.2021    5.6451   18.8107 C   0  0  0  0  0  0  0  0  0  0  0  0
    4.7688    6.9035   19.0615 C   0  0  0  0  0  0  0  0  0  0  0  0
    5.4149    7.2223   20.2506 C   0  0  0  0  0  0  0  0  0  0  0  0
    5.4662    6.2134   21.1795 C   0  0  0  0  0  0  0  0  0  0  0  0
    6.0799    6.4689   22.5141 C   0  0  0  0  0  0  0  0  0  0  0  0
    4.9295    4.9721   20.9743 N   0  0  0  0  0  0  0  0  0  0  0  0
    4.3227    4.7326   19.8113 C   0  0  0  0  0  0  0  0  0  0  0  0
    3.8493    3.5685   19.6822 O   0  0  0  0  0  0  0  0  0  0  0  0
    5.8922    8.5895   20.4373 C   0  0  0  0  0  0  0  0  0  0  0  0
    5.1041    9.7017   20.7462 C   0  0  0  0  0  0  0  0  0  0  0  0
    5.9365   10.8235   20.7367 C   0  0  0  0  0  0  0  0  0  0  0  0
    7.1524   10.4012   20.4386 N   0  0  0  0  0  0  0  0  0  0  0  0
    7.1318    9.0577   20.2561 N   0  0  0  0  0  0  0  0  0  0  0  0
    8.3454    8.3747   19.8634 C   0  0  0  0  0  0  0  0  0  0  0  0
    5.0371    3.9807   21.9936 C   0  0  0  0  0  0  0  0  0  0  0  0
    6.0343    3.0395   21.9319 C   0  0  0  0  0  0  0  0  0  0  0  0
    6.1566    2.0744   22.9128 C   0  0  0  0  0  0  0  0  0  0  0  0
    5.2558    2.0766   23.9551 C   0  0  0  0  0  0  0  0  0  0  0  0
    4.2912    3.0149   23.9824 N   0  0  0  0  0  0  0  0  0  0  0  0
    4.1443    3.9698   23.0417 C   0  0  0  0  0  0  0  0  0  0  0  0
 27 28  1  0  0  0
 28 29  1  0  0  0
 28 19  1  0  0  0
 19 20  2  0  0  0
 19 21  1  0  0  0
 21 22  1  0  0  0
 22 23  1  0  0  0
 23 24  1  0  0  0
 24 25  1  0  0  0
 25 26  1  0  0  0
 24  7  1  0  0  0
  7  8  2  0  0  0
  8  9  1  0  0  0
  9  1  1  0  0  0
  1  2  2  0  0  0
  2  3  1  0  0  0
  3  4  2  0  0  0
  4 30  1  0  0  0
 30 31  1  0  0  0
 31 32  2  0  0  0
 31 34  1  0  0  0
 34 35  2  0  0  0
 35 36  1  0  0  0
 36 42  1  0  0  0
 42 43  2  0  0  0
 43 44  1  0  0  0
 44 45  2  0  0  0
 45 46  1  0  0  0
 46 47  1  0  0  0
 36 37  2  0  0  0
 37 38  1  0  0  0
 37 39  1  0  0  0
 39 48  1  0  0  0
 48 49  2  0  0  0
 49 50  1  0  0  0
 50 51  2  0  0  0
 51 52  1  0  0  0
 52 53  2  0  0  0
 39 40  1  0  0  0
 40 41  2  0  0  0
  4  5  1  0  0  0
  5  6  2  0  0  0
  9 10  2  0  0  0
 10 11  1  0  0  0
 11 12  1  0  0  0
 11 13  2  0  0  0
 13 14  1  0  0  0
 14 15  2  0  0  0
 15 16  1  0  0  0
 26 21  1  0  0  0
 16  7  1  0  0  0
  6  1  1  0  0  0
 16 10  1  0  0  0
 40 34  1  0  0  0
 46 42  1  0  0  0
 53 48  1  0  0  0
 30 33  1  0  0  0
 12 17  1  0  0  0
 12 18  1  0  0  0
M  END
> <minimizedAffinity>
-9.04450

> <CNNscore>
0.0738277361

> <CNNaffinity>
6.7237982750

> <CNN_VS>
0.4964028001

> <CNNaffinity_variance>
0.6662662625

$$$$
[H]c1nc(N([H])[H])c2c(-c3c([H])c([H])c(N([H])C(=O)c4c([H])c(-c5c([H])c([H])nn5C([H])([H])[H])c(C([H])([H])[H])n(-c5c([H])nc([H])c([H])c5[H])c4=O)c([H])c3[H])c([H])c(C3([H])C([H])([H])C([H])([H])N(C(=O)C([H])(C([H])([H])[H])C([H])([H])[H])C([H])([H])C3([H])[H])n2n1


 53 59  0  0  0  0  0  0  0  0999 V2000
    3.8225    4.5415   17.0242 C   0  0  0  0  0  0  0  0  0  0  0  0
    4.4485    3.9065   15.9782 C   0  0  0  0  0  0  0  0  0  0  0  0
    3.8104    3.7320   14.7414 C   0  0  0  0  0  0  0  0  0  0  0  0
    2.5491    4.1671   14.4842 C   0  0  0  0  0  0  0  0  0  0  0  0
    1.9158    4.8154   15.5537 C   0  0  0  0  0  0  0  0  0  0  0  0
    2.5153    4.9969   16.7645 C   0  0  0  0  0  0  0  0  0  0  0  0
    5.3519    5.7914   20.0303 C   0  0  0  0  0  0  0  0  0  0  0  0
    4.7874    5.9696   18.7967 C   0  0  0  0  0  0  0  0  0  0  0  0
    4.4163    4.7340   18.3161 C   0  0  0  0  0  0  0  0  0  0  0  0
    4.7585    3.8145   19.2653 C   0  0  0  0  0  0  0  0  0  0  0  0
    4.6338    2.4363   19.3657 C   0  0  0  0  0  0  0  0  0  0  0  0
    4.0148    1.7384   18.3000 N   0  0  0  0  0  0  0  0  0  0  0  0
    5.0732    1.7868   20.4677 N   0  0  0  0  0  0  0  0  0  0  0  0
    5.6365    2.4468   21.4879 C   0  0  0  0  0  0  0  0  0  0  0  0
    5.7441    3.7738   21.3683 N   0  0  0  0  0  0  0  0  0  0  0  0
    5.3375    4.4702   20.3239 N   0  0  0  0  0  0  0  0  0  0  0  0
    4.5302    1.0641   17.6929 H   0  0  0  0  0  0  0  0  0  0  0  0
    3.0118    1.9018   18.1133 H   0  0  0  0  0  0  0  0  0  0  0  0
    7.3450    9.2369   23.6093 C   0  0  0  0  0  0  0  0  0  0  0  0
    6.4099    9.6996   24.3628 O   0  0  0  0  0  0  0  0  0  0  0  0
    6.9572    8.8522   22.3033 N   0  0  0  0  0  0  0  0  0  0  0  0
    7.8474    8.3155   21.3201 C   0  0  0  0  0  0  0  0  0  0  0  0
    7.4173    6.9186   20.8834 C   0  0  0  0  0  0  0  0  0  0  0  0
    5.9088    6.7890   20.9708 C   0  0  0  0  0  0  0  0  0  0  0  0
    5.3211    8.1787   20.6848 C   0  0  0  0  0  0  0  0  0  0  0  0
    5.5409    9.0080   21.9268 C   0  0  0  0  0  0  0  0  0  0  0  0
    8.7793    8.6586   25.5708 C   0  0  0  0  0  0  0  0  0  0  0  0
    8.7203    9.1464   24.1564 C   0  0  0  0  0  0  0  0  0  0  0  0
    9.4574   10.4664   24.0328 C   0  0  0  0  0  0  0  0  0  0  0  0
    1.8729    3.9641   13.2617 N   0  0  0  0  0  0  0  0  0  0  0  0
    1.8552    4.8806   12.1936 C   0  0  0  0  0  0  0  0  0  0  0  0
    2.5272    5.9748   12.3545 O   0  0  0  0  0  0  0  0  0  0  0  0
    1.3665    3.0415   13.1772 H   0  0  0  0  0  0  0  0  0  0  0  0
    1.1647    4.7269   10.9287 C   0  0  0  0  0  0  0  0  0  0  0  0
    1.9292    4.5354    9.7683 C   0  0  0  0  0  0  0  0  0  0  0  0
    1.3669    4.3423    8.5115 C   0  0  0  0  0  0  0  0  0  0  0  0
   -0.0049    4.3515    8.4745 C   0  0  0  0  0  0  0  0  0  0  0  0
   -0.7107    4.0897    7.1874 C   0  0  0  0  0  0  0  0  0  0  0  0
   -0.7874    4.5377    9.5808 N   0  0  0  0  0  0  0  0  0  0  0  0
   -0.1838    4.7166   10.7564 C   0  0  0  0  0  0  0  0  0  0  0  0
   -0.9602    4.8843   11.7387 O   0  0  0  0  0  0  0  0  0  0  0  0
    2.2566    4.0672    7.3869 C   0  0  0  0  0  0  0  0  0  0  0  0
    2.8582    2.8402    7.0940 C   0  0  0  0  0  0  0  0  0  0  0  0
    3.7041    3.0364    5.9997 C   0  0  0  0  0  0  0  0  0  0  0  0
    3.6104    4.3100    5.6609 N   0  0  0  0  0  0  0  0  0  0  0  0
    2.7416    4.9359    6.4930 N   0  0  0  0  0  0  0  0  0  0  0  0
    2.5192    6.3583    6.3496 C   0  0  0  0  0  0  0  0  0  0  0  0
   -2.2071    4.5406    9.4472 C   0  0  0  0  0  0  0  0  0  0  0  0
   -2.8722    5.7204    9.2247 C   0  0  0  0  0  0  0  0  0  0  0  0
   -4.2469    5.7416    9.0883 C   0  0  0  0  0  0  0  0  0  0  0  0
   -4.9365    4.5527    9.1803 C   0  0  0  0  0  0  0  0  0  0  0  0
   -4.2507    3.4154    9.3992 N   0  0  0  0  0  0  0  0  0  0  0  0
   -2.9103    3.3603    9.5369 C   0  0  0  0  0  0  0  0  0  0  0  0
 27 28  1  0  0  0
 28 29  1  0  0  0
 28 19  1  0  0  0
 19 20  2  0  0  0
 19 21  1  0  0  0
 21 22  1  0  0  0
 22 23  1  0  0  0
 23 24  1  0  0  0
 24 25  1  0  0  0
 25 26  1  0  0  0
 24  7  1  0  0  0
  7  8  2  0  0  0
  8  9  1  0  0  0
  9  1  1  0  0  0
  1  2  2  0  0  0
  2  3  1  0  0  0
  3  4  2  0  0  0
  4 30  1  0  0  0
 30 31  1  0  0  0
 31 32  2  0  0  0
 31 34  1  0  0  0
 34 35  2  0  0  0
 35 36  1  0  0  0
 36 42  1  0  0  0
 42 43  2  0  0  0
 43 44  1  0  0  0
 44 45  2  0  0  0
 45 46  1  0  0  0
 46 47  1  0  0  0
 36 37  2  0  0  0
 37 38  1  0  0  0
 37 39  1  0  0  0
 39 48  1  0  0  0
 48 49  2  0  0  0
 49 50  1  0  0  0
 50 51  2  0  0  0
 51 52  1  0  0  0
 52 53  2  0  0  0
 39 40  1  0  0  0
 40 41  2  0  0  0
  4  5  1  0  0  0
  5  6  2  0  0  0
  9 10  2  0  0  0
 10 11  1  0  0  0
 11 12  1  0  0  0
 11 13  2  0  0  0
 13 14  1  0  0  0
 14 15  2  0  0  0
 15 16  1  0  0  0
 26 21  1  0  0  0
 16  7  1  0  0  0
  6  1  1  0  0  0
 16 10  1  0  0  0
 40 34  1  0  0  0
 46 42  1  0  0  0
 53 48  1  0  0  0
 30 33  1  0  0  0
 12 17  1  0  0  0
 12 18  1  0  0  0
M  END
> <minimizedAffinity>
-8.68980

> <CNNscore>
0.0714995638

> <CNNaffinity>
6.9035749435

> <CNN_VS>
0.4936026037

> <CNNaffinity_variance>
0.9781984091

$$$$
[H]c1nc(N([H])[H])c2c(-c3c([H])c([H])c(N([H])C(=O)c4c([H])c(-c5c([H])c([H])nn5C([H])([H])[H])c(C([H])([H])[H])n(-c5c([H])nc([H])c([H])c5[H])c4=O)c([H])c3[H])c([H])c(C3([H])C([H])([H])C([H])([H])N(C(=O)C([H])(C([H])([H])[H])C([H])([H])[H])C([H])([H])C3([H])[H])n2n1


 53 59  0  0  0  0  0  0  0  0999 V2000
    2.9596    7.1306   12.6655 C   0  0  0  0  0  0  0  0  0  0  0  0
    2.9210    8.2714   13.4312 C   0  0  0  0  0  0  0  0  0  0  0  0
    3.2438    8.2474   14.7960 C   0  0  0  0  0  0  0  0  0  0  0  0
    3.6124    7.1185   15.4561 C   0  0  0  0  0  0  0  0  0  0  0  0
    3.6517    5.9581   14.6704 C   0  0  0  0  0  0  0  0  0  0  0  0
    3.3425    5.9565   13.3426 C   0  0  0  0  0  0  0  0  0  0  0  0
    1.3981    6.7970    9.4424 C   0  0  0  0  0  0  0  0  0  0  0  0
    1.3620    6.7880   10.8102 C   0  0  0  0  0  0  0  0  0  0  0  0
    2.6238    7.0891   11.2712 C   0  0  0  0  0  0  0  0  0  0  0  0
    3.4165    7.2800   10.1763 C   0  0  0  0  0  0  0  0  0  0  0  0
    4.7518    7.6105    9.9952 C   0  0  0  0  0  0  0  0  0  0  0  0
    5.5510    7.8311   11.1435 N   0  0  0  0  0  0  0  0  0  0  0  0
    5.2629    7.7405    8.7497 N   0  0  0  0  0  0  0  0  0  0  0  0
    4.5037    7.5568    7.6618 C   0  0  0  0  0  0  0  0  0  0  0  0
    3.2204    7.2406    7.8621 N   0  0  0  0  0  0  0  0  0  0  0  0
    2.6570    7.0982    9.0467 N   0  0  0  0  0  0  0  0  0  0  0  0
    6.3437    7.2060   11.4074 H   0  0  0  0  0  0  0  0  0  0  0  0
    5.3427    8.6436   11.7470 H   0  0  0  0  0  0  0  0  0  0  0  0
   -2.4282    5.6555    5.8775 C   0  0  0  0  0  0  0  0  0  0  0  0
   -1.9436    5.6265    4.6857 O   0  0  0  0  0  0  0  0  0  0  0  0
   -1.7680    6.5065    6.7961 N   0  0  0  0  0  0  0  0  0  0  0  0
   -2.1531    6.6749    8.1637 C   0  0  0  0  0  0  0  0  0  0  0  0
   -1.0273    6.2753    9.1122 C   0  0  0  0  0  0  0  0  0  0  0  0
    0.3172    6.5437    8.4641 C   0  0  0  0  0  0  0  0  0  0  0  0
    0.1368    7.7579    7.5414 C   0  0  0  0  0  0  0  0  0  0  0  0
   -0.6010    7.2694    6.3185 C   0  0  0  0  0  0  0  0  0  0  0  0
   -3.2695    3.4683    6.7419 C   0  0  0  0  0  0  0  0  0  0  0  0
   -3.6110    4.8155    6.1852 C   0  0  0  0  0  0  0  0  0  0  0  0
   -4.5155    4.6625    4.9771 C   0  0  0  0  0  0  0  0  0  0  0  0
    3.8996    7.0640   16.8372 N   0  0  0  0  0  0  0  0  0  0  0  0
    5.1693    7.2887   17.4014 C   0  0  0  0  0  0  0  0  0  0  0  0
    6.1267    7.5826   16.5816 O   0  0  0  0  0  0  0  0  0  0  0  0
    3.0738    6.8486   17.4588 H   0  0  0  0  0  0  0  0  0  0  0  0
    5.5183    7.2284   18.8068 C   0  0  0  0  0  0  0  0  0  0  0  0
    6.1884    8.3210   19.3770 C   0  0  0  0  0  0  0  0  0  0  0  0
    6.5372    8.3805   20.7215 C   0  0  0  0  0  0  0  0  0  0  0  0
    6.1809    7.2863   21.4694 C   0  0  0  0  0  0  0  0  0  0  0  0
    6.4503    7.2747   22.9358 C   0  0  0  0  0  0  0  0  0  0  0  0
    5.5300    6.2000   20.9528 N   0  0  0  0  0  0  0  0  0  0  0  0
    5.2240    6.2075   19.6548 C   0  0  0  0  0  0  0  0  0  0  0  0
    4.6252    5.1761   19.2382 O   0  0  0  0  0  0  0  0  0  0  0  0
    7.1563    9.6031   21.2254 C   0  0  0  0  0  0  0  0  0  0  0  0
    6.5163   10.8303   21.4197 C   0  0  0  0  0  0  0  0  0  0  0  0
    7.4870   11.7535   21.8161 C   0  0  0  0  0  0  0  0  0  0  0  0
    8.6404   11.1102   21.8552 N   0  0  0  0  0  0  0  0  0  0  0  0
    8.4479    9.8159   21.4995 N   0  0  0  0  0  0  0  0  0  0  0  0
    9.5849    8.9252   21.4143 C   0  0  0  0  0  0  0  0  0  0  0  0
    5.2059    5.1025   21.8036 C   0  0  0  0  0  0  0  0  0  0  0  0
    4.0170    5.0947   22.4895 C   0  0  0  0  0  0  0  0  0  0  0  0
    3.6843    4.0377   23.3146 C   0  0  0  0  0  0  0  0  0  0  0  0
    4.5718    2.9910   23.4346 C   0  0  0  0  0  0  0  0  0  0  0  0
    5.7280    3.0331   22.7469 N   0  0  0  0  0  0  0  0  0  0  0  0
    6.0826    4.0489   21.9339 C   0  0  0  0  0  0  0  0  0  0  0  0
 27 28  1  0  0  0
 28 29  1  0  0  0
 28 19  1  0  0  0
 19 20  2  0  0  0
 19 21  1  0  0  0
 21 22  1  0  0  0
 22 23  1  0  0  0
 23 24  1  0  0  0
 24 25  1  0  0  0
 25 26  1  0  0  0
 24  7  1  0  0  0
  7  8  2  0  0  0
  8  9  1  0  0  0
  9  1  1  0  0  0
  1  2  2  0  0  0
  2  3  1  0  0  0
  3  4  2  0  0  0
  4 30  1  0  0  0
 30 31  1  0  0  0
 31 32  2  0  0  0
 31 34  1  0  0  0
 34 35  2  0  0  0
 35 36  1  0  0  0
 36 42  1  0  0  0
 42 43  2  0  0  0
 43 44  1  0  0  0
 44 45  2  0  0  0
 45 46  1  0  0  0
 46 47  1  0  0  0
 36 37  2  0  0  0
 37 38  1  0  0  0
 37 39  1  0  0  0
 39 48  1  0  0  0
 48 49  2  0  0  0
 49 50  1  0  0  0
 50 51  2  0  0  0
 51 52  1  0  0  0
 52 53  2  0  0  0
 39 40  1  0  0  0
 40 41  2  0  0  0
  4  5  1  0  0  0
  5  6  2  0  0  0
  9 10  2  0  0  0
 10 11  1  0  0  0
 11 12  1  0  0  0
 11 13  2  0  0  0
 13 14  1  0  0  0
 14 15  2  0  0  0
 15 16  1  0  0  0
 26 21  1  0  0  0
 16  7  1  0  0  0
  6  1  1  0  0  0
 16 10  1  0  0  0
 40 34  1  0  0  0
 46 42  1  0  0  0
 53 48  1  0  0  0
 30 33  1  0  0  0
 12 17  1  0  0  0
 12 18  1  0  0  0
M  END
> <minimizedAffinity>
-8.44314

> <CNNscore>
0.0627398118

> <CNNaffinity>
6.3922948837

> <CNN_VS>
0.4010513723

> <CNNaffinity_variance>
0.7803498507

$$$$
[H]c1nc(N([H])[H])c2c(-c3c([H])c([H])c(N([H])C(=O)c4c([H])c(-c5c([H])c([H])nn5C([H])([H])[H])c(C([H])([H])[H])n(-c5c([H])nc([H])c([H])c5[H])c4=O)c([H])c3[H])c([H])c(C3([H])C([H])([H])C([H])([H])N(C(=O)C([H])(C([H])([H])[H])C([H])([H])[H])C([H])([H])C3([H])[H])n2n1


 53 59  0  0  0  0  0  0  0  0999 V2000
    1.4171    4.9704   12.4338 C   0  0  0  0  0  0  0  0  0  0  0  0
    2.7629    4.8010   12.6562 C   0  0  0  0  0  0  0  0  0  0  0  0
    3.3623    5.2064   13.8577 C   0  0  0  0  0  0  0  0  0  0  0  0
    2.6751    5.7868   14.8761 C   0  0  0  0  0  0  0  0  0  0  0  0
    1.3027    5.9558   14.6449 C   0  0  0  0  0  0  0  0  0  0  0  0
    0.6978    5.5700   13.4858 C   0  0  0  0  0  0  0  0  0  0  0  0
   -0.1801    3.2814    9.6890 C   0  0  0  0  0  0  0  0  0  0  0  0
    0.3948    3.2949   10.9306 C   0  0  0  0  0  0  0  0  0  0  0  0
    0.7512    4.5927   11.2203 C   0  0  0  0  0  0  0  0  0  0  0  0
    0.3877    5.3577   10.1497 C   0  0  0  0  0  0  0  0  0  0  0  0
    0.4717    6.7110    9.8552 C   0  0  0  0  0  0  0  0  0  0  0  0
    1.0348    7.5759   10.8251 N   0  0  0  0  0  0  0  0  0  0  0  0
    0.0030    7.1869    8.6791 N   0  0  0  0  0  0  0  0  0  0  0  0
   -0.5526    6.3752    7.7702 C   0  0  0  0  0  0  0  0  0  0  0  0
   -0.6235    5.0762    8.0775 N   0  0  0  0  0  0  0  0  0  0  0  0
   -0.1873    4.5450    9.2038 N   0  0  0  0  0  0  0  0  0  0  0  0
    1.9352    8.0814   10.6749 H   0  0  0  0  0  0  0  0  0  0  0  0
    0.5361    7.7136   11.7195 H   0  0  0  0  0  0  0  0  0  0  0  0
   -2.0347   -0.7617    6.7113 C   0  0  0  0  0  0  0  0  0  0  0  0
   -2.7590   -0.3178    5.7445 O   0  0  0  0  0  0  0  0  0  0  0  0
   -2.0003    0.0374    7.8793 N   0  0  0  0  0  0  0  0  0  0  0  0
   -1.2543   -0.2835    9.0573 C   0  0  0  0  0  0  0  0  0  0  0  0
   -0.2280    0.7985    9.3781 C   0  0  0  0  0  0  0  0  0  0  0  0
   -0.7364    2.1499    8.9144 C   0  0  0  0  0  0  0  0  0  0  0  0
   -2.2669    2.1204    9.0369 C   0  0  0  0  0  0  0  0  0  0  0  0
   -2.7795    1.2882    7.8865 C   0  0  0  0  0  0  0  0  0  0  0  0
   -0.7221   -2.2177    5.1633 C   0  0  0  0  0  0  0  0  0  0  0  0
   -1.3121   -2.0437    6.5284 C   0  0  0  0  0  0  0  0  0  0  0  0
   -2.1911   -3.2324    6.8679 C   0  0  0  0  0  0  0  0  0  0  0  0
    3.2655    6.2409   16.0753 N   0  0  0  0  0  0  0  0  0  0  0  0
    3.3481    5.4898   17.2628 C   0  0  0  0  0  0  0  0  0  0  0  0
    2.8581    4.2924   17.2292 O   0  0  0  0  0  0  0  0  0  0  0  0
    3.6737    7.2138   16.0338 H   0  0  0  0  0  0  0  0  0  0  0  0
    3.9275    5.9155   18.5211 C   0  0  0  0  0  0  0  0  0  0  0  0
    3.8379    5.0535   19.6242 C   0  0  0  0  0  0  0  0  0  0  0  0
    4.3901    5.3488   20.8656 C   0  0  0  0  0  0  0  0  0  0  0  0
    5.0382    6.5556   20.9478 C   0  0  0  0  0  0  0  0  0  0  0  0
    5.7215    6.9421   22.2154 C   0  0  0  0  0  0  0  0  0  0  0  0
    5.1460    7.4261   19.8982 N   0  0  0  0  0  0  0  0  0  0  0  0
    4.5941    7.0810   18.7344 C   0  0  0  0  0  0  0  0  0  0  0  0
    4.7264    7.9268   17.8054 O   0  0  0  0  0  0  0  0  0  0  0  0
    4.3107    4.3407   21.9190 C   0  0  0  0  0  0  0  0  0  0  0  0
    3.4514    4.3672   23.0209 C   0  0  0  0  0  0  0  0  0  0  0  0
    3.7684    3.2725   23.8287 C   0  0  0  0  0  0  0  0  0  0  0  0
    4.7615    2.6307   23.2393 N   0  0  0  0  0  0  0  0  0  0  0  0
    5.0932    3.2696   22.0900 N   0  0  0  0  0  0  0  0  0  0  0  0
    6.1995    2.7787   21.2973 C   0  0  0  0  0  0  0  0  0  0  0  0
    5.8314    8.6637   20.0769 C   0  0  0  0  0  0  0  0  0  0  0  0
    5.1355    9.7838   20.4580 C   0  0  0  0  0  0  0  0  0  0  0  0
    5.7837   10.9902   20.6402 C   0  0  0  0  0  0  0  0  0  0  0  0
    7.1442   11.0453   20.4313 C   0  0  0  0  0  0  0  0  0  0  0  0
    7.7932    9.9268   20.0582 N   0  0  0  0  0  0  0  0  0  0  0  0
    7.1910    8.7347   19.8718 C   0  0  0  0  0  0  0  0  0  0  0  0
 27 28  1  0  0  0
 28 29  1  0  0  0
 28 19  1  0  0  0
 19 20  2  0  0  0
 19 21  1  0  0  0
 21 22  1  0  0  0
 22 23  1  0  0  0
 23 24  1  0  0  0
 24 25  1  0  0  0
 25 26  1  0  0  0
 24  7  1  0  0  0
  7  8  2  0  0  0
  8  9  1  0  0  0
  9  1  1  0  0  0
  1  2  2  0  0  0
  2  3  1  0  0  0
  3  4  2  0  0  0
  4 30  1  0  0  0
 30 31  1  0  0  0
 31 32  2  0  0  0
 31 34  1  0  0  0
 34 35  2  0  0  0
 35 36  1  0  0  0
 36 42  1  0  0  0
 42 43  2  0  0  0
 43 44  1  0  0  0
 44 45  2  0  0  0
 45 46  1  0  0  0
 46 47  1  0  0  0
 36 37  2  0  0  0
 37 38  1  0  0  0
 37 39  1  0  0  0
 39 48  1  0  0  0
 48 49  2  0  0  0
 49 50  1  0  0  0
 50 51  2  0  0  0
 51 52  1  0  0  0
 52 53  2  0  0  0
 39 40  1  0  0  0
 40 41  2  0  0  0
  4  5  1  0  0  0
  5  6  2  0  0  0
  9 10  2  0  0  0
 10 11  1  0  0  0
 11 12  1  0  0  0
 11 13  2  0  0  0
 13 14  1  0  0  0
 14 15  2  0  0  0
 15 16  1  0  0  0
 26 21  1  0  0  0
 16  7  1  0  0  0
  6  1  1  0  0  0
 16 10  1  0  0  0
 40 34  1  0  0  0
 46 42  1  0  0  0
 53 48  1  0  0  0
 30 33  1  0  0  0
 12 17  1  0  0  0
 12 18  1  0  0  0
M  END
> <minimizedAffinity>
-8.53555

> <CNNscore>
0.0620394722

> <CNNaffinity>
6.6479516029

> <CNN_VS>
0.4124354124

> <CNNaffinity_variance>
0.7871187329

$$$$
[H]O[C@]1([H])C([H])([H])C([H])([H])[C@@]([H])(n2c([H])c(-c3c([H])c([H])c(N4C([H])([H])C([H])([H])N(C([H])([H])[H])C([H])([H])C4([H])[H])c([H])c3[H])c3c([H])nc(N([H])C([H])([H])C([H])([H])C([H])([H])C([H])([H])[H])nc32)C([H])([H])C1([H])[H]


 36 40  0  0  0  0  0  0  0  0999 V2000
    3.8211    0.9936   19.5209 C   0  0  0  0  0  0  0  0  0  0  0  0
    3.1384    0.4388   18.5045 N   0  0  0  0  0  0  0  0  0  0  0  0
    3.0115    1.0171   17.2994 C   0  0  0  0  0  0  0  0  0  0  0  0
    3.6174    2.2440   17.1063 C   0  0  0  0  0  0  0  0  0  0  0  0
    3.6847    3.0936   16.0167 C   0  0  0  0  0  0  0  0  0  0  0  0
    4.4318    4.1706   16.4256 C   0  0  0  0  0  0  0  0  0  0  0  0
    4.8261    4.0302   17.7026 N   0  0  0  0  0  0  0  0  0  0  0  0
    4.3249    2.8345   18.1367 C   0  0  0  0  0  0  0  0  0  0  0  0
    4.4009    2.1845   19.3114 N   0  0  0  0  0  0  0  0  0  0  0  0
    5.6227    4.9290   18.5135 C   0  0  0  0  0  0  0  0  0  0  0  0
    6.3235    5.9381   17.6366 C   0  0  0  0  0  0  0  0  0  0  0  0
    6.9766    7.0075   18.4743 C   0  0  0  0  0  0  0  0  0  0  0  0
    5.9305    7.6728   19.3300 C   0  0  0  0  0  0  0  0  0  0  0  0
    6.3957    8.7915   19.9827 O   0  0  0  0  0  0  0  0  0  0  0  0
    5.4439    6.6355   20.3332 C   0  0  0  0  0  0  0  0  0  0  0  0
    4.7163    5.5755   19.5320 C   0  0  0  0  0  0  0  0  0  0  0  0
    6.0987    8.7435   20.9286 H   0  0  0  0  0  0  0  0  0  0  0  0
    3.0676    2.8681   14.6973 C   0  0  0  0  0  0  0  0  0  0  0  0
    3.5737    3.4439   13.5521 C   0  0  0  0  0  0  0  0  0  0  0  0
    2.9914    3.2325   12.3197 C   0  0  0  0  0  0  0  0  0  0  0  0
    1.8584    2.4223   12.1775 C   0  0  0  0  0  0  0  0  0  0  0  0
    1.3648    1.8557   13.3244 C   0  0  0  0  0  0  0  0  0  0  0  0
    1.9547    2.0691   14.5758 C   0  0  0  0  0  0  0  0  0  0  0  0
    1.2832    2.2283   10.8967 N   0  0  0  0  0  0  0  0  0  0  0  0
    0.8671    0.8983   10.4751 C   0  0  0  0  0  0  0  0  0  0  0  0
    0.7333    0.8734    8.9686 C   0  0  0  0  0  0  0  0  0  0  0  0
   -0.2597    1.8202    8.5024 N   0  0  0  0  0  0  0  0  0  0  0  0
   -1.5668    1.2047    8.3732 C   0  0  0  0  0  0  0  0  0  0  0  0
   -0.2913    3.0209    9.2865 C   0  0  0  0  0  0  0  0  0  0  0  0
    1.0649    3.2861    9.9378 C   0  0  0  0  0  0  0  0  0  0  0  0
    3.9184    0.3186   20.7840 N   0  0  0  0  0  0  0  0  0  0  0  0
    4.5246   -0.5016   20.8418 H   0  0  0  0  0  0  0  0  0  0  0  0
    3.1517    0.8115   21.8671 C   0  0  0  0  0  0  0  0  0  0  0  0
    3.8490    1.4356   23.0135 C   0  0  0  0  0  0  0  0  0  0  0  0
    3.6636    3.9202   23.2942 C   0  0  0  0  0  0  0  0  0  0  0  0
    4.4648    2.7696   22.8122 C   0  0  0  0  0  0  0  0  0  0  0  0
 35 36  1  0  0  0
 36 34  1  0  0  0
 34 33  1  0  0  0
 33 31  1  0  0  0
 31  1  1  0  0  0
  1  2  2  0  0  0
  2  3  1  0  0  0
  3  4  2  0  0  0
  4  5  1  0  0  0
  5  6  2  0  0  0
  6  7  1  0  0  0
  7 10  1  0  0  0
 10 11  1  0  0  0
 11 12  1  0  0  0
 12 13  1  0  0  0
 13 14  1  0  0  0
 13 15  1  0  0  0
 15 16  1  0  0  0
  7  8  1  0  0  0
  8  9  2  0  0  0
  5 18  1  0  0  0
 18 19  2  0  0  0
 19 20  1  0  0  0
 20 21  2  0  0  0
 21 22  1  0  0  0
 22 23  2  0  0  0
 21 24  1  0  0  0
 24 25  1  0  0  0
 25 26  1  0  0  0
 26 27  1  0  0  0
 27 28  1  0  0  0
 27 29  1  0  0  0
 29 30  1  0  0  0
  9  1  1  0  0  0
 23 18  1  0  0  0
 30 24  1  0  0  0
  8  4  1  0  0  0
 16 10  1  0  0  0
 31 32  1  0  0  0
 14 17  1  0  0  0
M  END
> <minimizedAffinity>
-8.27677

> <CNNscore>
0.8364461660

> <CNNaffinity>
7.4254250526

> <CNN_VS>
6.2109684944

> <CNNaffinity_variance>
0.2722463012

$$$$
[H]O[C@]1([H])C([H])([H])C([H])([H])[C@@]([H])(n2c([H])c(-c3c([H])c([H])c(N4C([H])([H])C([H])([H])N(C([H])([H])[H])C([H])([H])C4([H])[H])c([H])c3[H])c3c([H])nc(N([H])C([H])([H])C([H])([H])C([H])([H])C([H])([H])[H])nc32)C([H])([H])C1([H])[H]


 36 40  0  0  0  0  0  0  0  0999 V2000
    3.9159    2.0677   17.7064 C   0  0  0  0  0  0  0  0  0  0  0  0
    3.1915    1.7237   16.6276 N   0  0  0  0  0  0  0  0  0  0  0  0
    2.8510    2.5914   15.6612 C   0  0  0  0  0  0  0  0  0  0  0  0
    3.2721    3.9009   15.7933 C   0  0  0  0  0  0  0  0  0  0  0  0
    3.1029    5.0230   15.0021 C   0  0  0  0  0  0  0  0  0  0  0  0
    3.7535    6.0426   15.6521 C   0  0  0  0  0  0  0  0  0  0  0  0
    4.3113    5.6105   16.7957 N   0  0  0  0  0  0  0  0  0  0  0  0
    4.0182    4.2787   16.8941 C   0  0  0  0  0  0  0  0  0  0  0  0
    4.3139    3.3437   17.8142 N   0  0  0  0  0  0  0  0  0  0  0  0
    5.0807    6.3557   17.7718 C   0  0  0  0  0  0  0  0  0  0  0  0
    6.5134    5.8808   17.7777 C   0  0  0  0  0  0  0  0  0  0  0  0
    7.3703    6.7872   18.6240 C   0  0  0  0  0  0  0  0  0  0  0  0
    7.2722    8.1947   18.0963 C   0  0  0  0  0  0  0  0  0  0  0  0
    8.1714    9.0566   18.6815 O   0  0  0  0  0  0  0  0  0  0  0  0
    5.8455    8.6680   18.3405 C   0  0  0  0  0  0  0  0  0  0  0  0
    4.9575    7.8245   17.4490 C   0  0  0  0  0  0  0  0  0  0  0  0
    7.6880    9.8880   18.9269 H   0  0  0  0  0  0  0  0  0  0  0  0
    2.3660    5.0863   13.7272 C   0  0  0  0  0  0  0  0  0  0  0  0
    1.0669    5.5414   13.6622 C   0  0  0  0  0  0  0  0  0  0  0  0
    0.3800    5.5963   12.4674 C   0  0  0  0  0  0  0  0  0  0  0  0
    0.9732    5.1912   11.2656 C   0  0  0  0  0  0  0  0  0  0  0  0
    2.2658    4.7403   11.3440 C   0  0  0  0  0  0  0  0  0  0  0  0
    2.9643    4.6842   12.5558 C   0  0  0  0  0  0  0  0  0  0  0  0
    0.2381    5.2579   10.0556 N   0  0  0  0  0  0  0  0  0  0  0  0
   -0.6147    4.1479    9.6552 C   0  0  0  0  0  0  0  0  0  0  0  0
   -0.9033    4.2517    8.1739 C   0  0  0  0  0  0  0  0  0  0  0  0
   -1.5918    5.4840    7.8465 N   0  0  0  0  0  0  0  0  0  0  0  0
   -3.0320    5.3109    7.8552 C   0  0  0  0  0  0  0  0  0  0  0  0
   -1.1650    6.5888    8.6556 C   0  0  0  0  0  0  0  0  0  0  0  0
    0.2652    6.3844    9.1521 C   0  0  0  0  0  0  0  0  0  0  0  0
    4.2462    1.0874   18.7017 N   0  0  0  0  0  0  0  0  0  0  0  0
    4.6576    0.2070   18.3869 H   0  0  0  0  0  0  0  0  0  0  0  0
    3.9606    1.3859   20.0557 C   0  0  0  0  0  0  0  0  0  0  0  0
    5.0804    1.6873   20.9749 C   0  0  0  0  0  0  0  0  0  0  0  0
    5.8859    2.2765   23.2750 C   0  0  0  0  0  0  0  0  0  0  0  0
    4.7539    2.2220   22.3190 C   0  0  0  0  0  0  0  0  0  0  0  0
 35 36  1  0  0  0
 36 34  1  0  0  0
 34 33  1  0  0  0
 33 31  1  0  0  0
 31  1  1  0  0  0
  1  2  2  0  0  0
  2  3  1  0  0  0
  3  4  2  0  0  0
  4  5  1  0  0  0
  5  6  2  0  0  0
  6  7  1  0  0  0
  7 10  1  0  0  0
 10 11  1  0  0  0
 11 12  1  0  0  0
 12 13  1  0  0  0
 13 14  1  0  0  0
 13 15  1  0  0  0
 15 16  1  0  0  0
  7  8  1  0  0  0
  8  9  2  0  0  0
  5 18  1  0  0  0
 18 19  2  0  0  0
 19 20  1  0  0  0
 20 21  2  0  0  0
 21 22  1  0  0  0
 22 23  2  0  0  0
 21 24  1  0  0  0
 24 25  1  0  0  0
 25 26  1  0  0  0
 26 27  1  0  0  0
 27 28  1  0  0  0
 27 29  1  0  0  0
 29 30  1  0  0  0
  9  1  1  0  0  0
 23 18  1  0  0  0
 30 24  1  0  0  0
  8  4  1  0  0  0
 16 10  1  0  0  0
 31 32  1  0  0  0
 14 17  1  0  0  0
M  END
> <minimizedAffinity>
-6.61730

> <CNNscore>
0.3885953426

> <CNNaffinity>
6.5739717484

> <CNN_VS>
2.5546147823

> <CNNaffinity_variance>
0.3389157653

$$$$
[H]O[C@]1([H])C([H])([H])C([H])([H])[C@@]([H])(n2c([H])c(-c3c([H])c([H])c(N4C([H])([H])C([H])([H])N(C([H])([H])[H])C([H])([H])C4([H])[H])c([H])c3[H])c3c([H])nc(N([H])C([H])([H])C([H])([H])C([H])([H])C([H])([H])[H])nc32)C([H])([H])C1([H])[H]


 36 40  0  0  0  0  0  0  0  0999 V2000
    3.7684    1.7220   18.5165 C   0  0  0  0  0  0  0  0  0  0  0  0
    3.3358    1.4673   17.2696 N   0  0  0  0  0  0  0  0  0  0  0  0
    3.1705    2.4200   16.3379 C   0  0  0  0  0  0  0  0  0  0  0  0
    3.4629    3.7238   16.6905 C   0  0  0  0  0  0  0  0  0  0  0  0
    3.4069    4.9171   15.9930 C   0  0  0  0  0  0  0  0  0  0  0  0
    3.8221    5.8862   16.8726 C   0  0  0  0  0  0  0  0  0  0  0  0
    4.1291    5.3560   18.0686 N   0  0  0  0  0  0  0  0  0  0  0  0
    3.9093    4.0104   17.9670 C   0  0  0  0  0  0  0  0  0  0  0  0
    4.0461    2.9942   18.8369 N   0  0  0  0  0  0  0  0  0  0  0  0
    4.6026    6.0222   19.2653 C   0  0  0  0  0  0  0  0  0  0  0  0
    3.9340    5.4374   20.4856 C   0  0  0  0  0  0  0  0  0  0  0  0
    4.5723    5.9645   21.7453 C   0  0  0  0  0  0  0  0  0  0  0  0
    6.0426    5.6374   21.7286 C   0  0  0  0  0  0  0  0  0  0  0  0
    6.6705    5.9043   22.9238 O   0  0  0  0  0  0  0  0  0  0  0  0
    6.6712    6.4497   20.6043 C   0  0  0  0  0  0  0  0  0  0  0  0
    6.1057    5.8984   19.3116 C   0  0  0  0  0  0  0  0  0  0  0  0
    7.5157    6.3866   22.7280 H   0  0  0  0  0  0  0  0  0  0  0  0
    2.9806    5.0878   14.5924 C   0  0  0  0  0  0  0  0  0  0  0  0
    1.7373    5.5861   14.2684 C   0  0  0  0  0  0  0  0  0  0  0  0
    1.3413    5.7416   12.9564 C   0  0  0  0  0  0  0  0  0  0  0  0
    2.1864    5.3992   11.8938 C   0  0  0  0  0  0  0  0  0  0  0  0
    3.4203    4.9045   12.2297 C   0  0  0  0  0  0  0  0  0  0  0  0
    3.8237    4.7463   13.5607 C   0  0  0  0  0  0  0  0  0  0  0  0
    1.7470    5.5689   10.5570 N   0  0  0  0  0  0  0  0  0  0  0  0
    1.9392    6.8433    9.8796 C   0  0  0  0  0  0  0  0  0  0  0  0
    1.0062    6.9206    8.6915 C   0  0  0  0  0  0  0  0  0  0  0  0
    1.2664    5.8634    7.7352 N   0  0  0  0  0  0  0  0  0  0  0  0
    2.1978    6.2887    6.7077 C   0  0  0  0  0  0  0  0  0  0  0  0
    1.6607    4.6347    8.3616 C   0  0  0  0  0  0  0  0  0  0  0  0
    1.1004    4.5378    9.7794 C   0  0  0  0  0  0  0  0  0  0  0  0
    3.9245    0.6540   19.4630 N   0  0  0  0  0  0  0  0  0  0  0  0
    4.2355   -0.2535   19.1120 H   0  0  0  0  0  0  0  0  0  0  0  0
    3.6154    0.9119   20.8201 C   0  0  0  0  0  0  0  0  0  0  0  0
    4.7109    0.9248   21.8149 C   0  0  0  0  0  0  0  0  0  0  0  0
    7.1724    0.6523   21.4240 C   0  0  0  0  0  0  0  0  0  0  0  0
    5.9962    1.5550   21.4278 C   0  0  0  0  0  0  0  0  0  0  0  0
 35 36  1  0  0  0
 36 34  1  0  0  0
 34 33  1  0  0  0
 33 31  1  0  0  0
 31  1  1  0  0  0
  1  2  2  0  0  0
  2  3  1  0  0  0
  3  4  2  0  0  0
  4  5  1  0  0  0
  5  6  2  0  0  0
  6  7  1  0  0  0
  7 10  1  0  0  0
 10 11  1  0  0  0
 11 12  1  0  0  0
 12 13  1  0  0  0
 13 14  1  0  0  0
 13 15  1  0  0  0
 15 16  1  0  0  0
  7  8  1  0  0  0
  8  9  2  0  0  0
  5 18  1  0  0  0
 18 19  2  0  0  0
 19 20  1  0  0  0
 20 21  2  0  0  0
 21 22  1  0  0  0
 22 23  2  0  0  0
 21 24  1  0  0  0
 24 25  1  0  0  0
 25 26  1  0  0  0
 26 27  1  0  0  0
 27 28  1  0  0  0
 27 29  1  0  0  0
 29 30  1  0  0  0
  9  1  1  0  0  0
 23 18  1  0  0  0
 30 24  1  0  0  0
  8  4  1  0  0  0
 16 10  1  0  0  0
 31 32  1  0  0  0
 14 17  1  0  0  0
M  END
> <minimizedAffinity>
-7.41825

> <CNNscore>
0.3829496801

> <CNNaffinity>
6.6877784729

> <CNN_VS>
2.5610826015

> <CNNaffinity_variance>
0.3365415931

$$$$
[H]O[C@]1([H])C([H])([H])C([H])([H])[C@@]([H])(n2c([H])c(-c3c([H])c([H])c(N4C([H])([H])C([H])([H])N(C([H])([H])[H])C([H])([H])C4([H])[H])c([H])c3[H])c3c([H])nc(N([H])C([H])([H])C([H])([H])C([H])([H])C([H])([H])[H])nc32)C([H])([H])C1([H])[H]


 36 40  0  0  0  0  0  0  0  0999 V2000
    4.4602    1.8036   20.2154 C   0  0  0  0  0  0  0  0  0  0  0  0
    4.1451    1.0248   19.1661 N   0  0  0  0  0  0  0  0  0  0  0  0
    3.8540    1.5106   17.9488 C   0  0  0  0  0  0  0  0  0  0  0  0
    3.8831    2.8817   17.7782 C   0  0  0  0  0  0  0  0  0  0  0  0
    3.6431    3.6943   16.6847 C   0  0  0  0  0  0  0  0  0  0  0  0
    3.8280    4.9815   17.1254 C   0  0  0  0  0  0  0  0  0  0  0  0
    4.1670    5.0048   18.4256 N   0  0  0  0  0  0  0  0  0  0  0  0
    4.2044    3.7032   18.8426 C   0  0  0  0  0  0  0  0  0  0  0  0
    4.4824    3.1312   20.0273 N   0  0  0  0  0  0  0  0  0  0  0  0
    4.4491    6.1463   19.2725 C   0  0  0  0  0  0  0  0  0  0  0  0
    5.9394    6.3095   19.4467 C   0  0  0  0  0  0  0  0  0  0  0  0
    6.2543    7.6108   20.1392 C   0  0  0  0  0  0  0  0  0  0  0  0
    5.6784    8.7490   19.3381 C   0  0  0  0  0  0  0  0  0  0  0  0
    6.0827    9.9859   19.7861 O   0  0  0  0  0  0  0  0  0  0  0  0
    4.1621    8.6271   19.4094 C   0  0  0  0  0  0  0  0  0  0  0  0
    3.8000    7.3622   18.6585 C   0  0  0  0  0  0  0  0  0  0  0  0
    5.2840   10.5729   19.8361 H   0  0  0  0  0  0  0  0  0  0  0  0
    3.2635    3.2455   15.3331 C   0  0  0  0  0  0  0  0  0  0  0  0
    2.3356    2.2461   15.1347 C   0  0  0  0  0  0  0  0  0  0  0  0
    1.9853    1.8272   13.8681 C   0  0  0  0  0  0  0  0  0  0  0  0
    2.5581    2.3997   12.7259 C   0  0  0  0  0  0  0  0  0  0  0  0
    3.4798    3.3926   12.9371 C   0  0  0  0  0  0  0  0  0  0  0  0
    3.8362    3.8190   14.2218 C   0  0  0  0  0  0  0  0  0  0  0  0
    2.1777    1.9437   11.4390 N   0  0  0  0  0  0  0  0  0  0  0  0
    3.1692    1.3605   10.5465 C   0  0  0  0  0  0  0  0  0  0  0  0
    2.6410    1.3899    9.1293 C   0  0  0  0  0  0  0  0  0  0  0  0
    1.4171    0.6254    8.9969 N   0  0  0  0  0  0  0  0  0  0  0  0
    1.6820   -0.7439    8.5983 C   0  0  0  0  0  0  0  0  0  0  0  0
    0.5834    0.7086   10.1611 C   0  0  0  0  0  0  0  0  0  0  0  0
    0.8312    2.0106   10.9208 C   0  0  0  0  0  0  0  0  0  0  0  0
    4.7628    1.2168   21.4901 N   0  0  0  0  0  0  0  0  0  0  0  0
    5.5359    0.5508   21.5378 H   0  0  0  0  0  0  0  0  0  0  0  0
    3.9591    1.5743   22.5992 C   0  0  0  0  0  0  0  0  0  0  0  0
    4.4614    2.5905   23.5504 C   0  0  0  0  0  0  0  0  0  0  0  0
    4.4513    4.9924   22.8313 C   0  0  0  0  0  0  0  0  0  0  0  0
    3.7805    3.9074   23.5871 C   0  0  0  0  0  0  0  0  0  0  0  0
 35 36  1  0  0  0
 36 34  1  0  0  0
 34 33  1  0  0  0
 33 31  1  0  0  0
 31  1  1  0  0  0
  1  2  2  0  0  0
  2  3  1  0  0  0
  3  4  2  0  0  0
  4  5  1  0  0  0
  5  6  2  0  0  0
  6  7  1  0  0  0
  7 10  1  0  0  0
 10 11  1  0  0  0
 11 12  1  0  0  0
 12 13  1  0  0  0
 13 14  1  0  0  0
 13 15  1  0  0  0
 15 16  1  0  0  0
  7  8  1  0  0  0
  8  9  2  0  0  0
  5 18  1  0  0  0
 18 19  2  0  0  0
 19 20  1  0  0  0
 20 21  2  0  0  0
 21 22  1  0  0  0
 22 23  2  0  0  0
 21 24  1  0  0  0
 24 25  1  0  0  0
 25 26  1  0  0  0
 26 27  1  0  0  0
 27 28  1  0  0  0
 27 29  1  0  0  0
 29 30  1  0  0  0
  9  1  1  0  0  0
 23 18  1  0  0  0
 30 24  1  0  0  0
  8  4  1  0  0  0
 16 10  1  0  0  0
 31 32  1  0  0  0
 14 17  1  0  0  0
M  END
> <minimizedAffinity>
-8.47633

> <CNNscore>
0.3623858690

> <CNNaffinity>
6.9764366150

> <CNN_VS>
2.5281620026

> <CNNaffinity_variance>
0.2759087682

$$$$
[H]O[C@]1([H])C([H])([H])C([H])([H])[C@@]([H])(n2c([H])c(-c3c([H])c([H])c(N4C([H])([H])C([H])([H])N(C([H])([H])[H])C([H])([H])C4([H])[H])c([H])c3[H])c3c([H])nc(N([H])C([H])([H])C([H])([H])C([H])([H])C([H])([H])[H])nc32)C([H])([H])C1([H])[H]


 36 40  0  0  0  0  0  0  0  0999 V2000
    4.5690    1.7114   19.5472 C   0  0  0  0  0  0  0  0  0  0  0  0
    3.9702    1.3247   18.4076 N   0  0  0  0  0  0  0  0  0  0  0  0
    3.6664    2.1713   17.4107 C   0  0  0  0  0  0  0  0  0  0  0  0
    3.9905    3.5044   17.5760 C   0  0  0  0  0  0  0  0  0  0  0  0
    3.8248    4.6152   16.7684 C   0  0  0  0  0  0  0  0  0  0  0  0
    4.3475    5.6724   17.4716 C   0  0  0  0  0  0  0  0  0  0  0  0
    4.8236    5.2739   18.6634 N   0  0  0  0  0  0  0  0  0  0  0  0
    4.6068    3.9261   18.7394 C   0  0  0  0  0  0  0  0  0  0  0  0
    4.8745    3.0097   19.6864 N   0  0  0  0  0  0  0  0  0  0  0  0
    5.4515    6.0640   19.7033 C   0  0  0  0  0  0  0  0  0  0  0  0
    5.6971    7.4699   19.2120 C   0  0  0  0  0  0  0  0  0  0  0  0
    6.1452    8.3579   20.3445 C   0  0  0  0  0  0  0  0  0  0  0  0
    5.0997    8.3418   21.4289 C   0  0  0  0  0  0  0  0  0  0  0  0
    5.3275    9.2743   22.4150 O   0  0  0  0  0  0  0  0  0  0  0  0
    5.0845    6.9376   22.0179 C   0  0  0  0  0  0  0  0  0  0  0  0
    4.5688    6.0224   20.9263 C   0  0  0  0  0  0  0  0  0  0  0  0
    5.2056    8.8304   23.2944 H   0  0  0  0  0  0  0  0  0  0  0  0
    3.2061    4.6347   15.4307 C   0  0  0  0  0  0  0  0  0  0  0  0
    1.9995    5.2588   15.1988 C   0  0  0  0  0  0  0  0  0  0  0  0
    1.4226    5.2721   13.9461 C   0  0  0  0  0  0  0  0  0  0  0  0
    2.0383    4.6510   12.8527 C   0  0  0  0  0  0  0  0  0  0  0  0
    3.2380    4.0336   13.0968 C   0  0  0  0  0  0  0  0  0  0  0  0
    3.8249    4.0193   14.3676 C   0  0  0  0  0  0  0  0  0  0  0  0
    1.4168    4.6811   11.5792 N   0  0  0  0  0  0  0  0  0  0  0  0
   -0.0322    4.7779   11.4741 C   0  0  0  0  0  0  0  0  0  0  0  0
   -0.4614    4.3326   10.0936 C   0  0  0  0  0  0  0  0  0  0  0  0
    0.1177    5.1639    9.0575 N   0  0  0  0  0  0  0  0  0  0  0  0
   -0.7609    6.2608    8.6981 C   0  0  0  0  0  0  0  0  0  0  0  0
    1.4451    5.6035    9.3773 C   0  0  0  0  0  0  0  0  0  0  0  0
    2.1331    4.6239   10.3264 C   0  0  0  0  0  0  0  0  0  0  0  0
    4.8671    0.7518   20.5724 N   0  0  0  0  0  0  0  0  0  0  0  0
    5.8305    0.4216   20.6519 H   0  0  0  0  0  0  0  0  0  0  0  0
    3.8073    0.3007   21.3953 C   0  0  0  0  0  0  0  0  0  0  0  0
    3.4514    1.0840   22.5993 C   0  0  0  0  0  0  0  0  0  0  0  0
    4.1490    3.3160   23.5035 C   0  0  0  0  0  0  0  0  0  0  0  0
    4.5109    1.9034   23.2359 C   0  0  0  0  0  0  0  0  0  0  0  0
 35 36  1  0  0  0
 36 34  1  0  0  0
 34 33  1  0  0  0
 33 31  1  0  0  0
 31  1  1  0  0  0
  1  2  2  0  0  0
  2  3  1  0  0  0
  3  4  2  0  0  0
  4  5  1  0  0  0
  5  6  2  0  0  0
  6  7  1  0  0  0
  7 10  1  0  0  0
 10 11  1  0  0  0
 11 12  1  0  0  0
 12 13  1  0  0  0
 13 14  1  0  0  0
 13 15  1  0  0  0
 15 16  1  0  0  0
  7  8  1  0  0  0
  8  9  2  0  0  0
  5 18  1  0  0  0
 18 19  2  0  0  0
 19 20  1  0  0  0
 20 21  2  0  0  0
 21 22  1  0  0  0
 22 23  2  0  0  0
 21 24  1  0  0  0
 24 25  1  0  0  0
 25 26  1  0  0  0
 26 27  1  0  0  0
 27 28  1  0  0  0
 27 29  1  0  0  0
 29 30  1  0  0  0
  9  1  1  0  0  0
 23 18  1  0  0  0
 30 24  1  0  0  0
  8  4  1  0  0  0
 16 10  1  0  0  0
 31 32  1  0  0  0
 14 17  1  0  0  0
M  END
> <minimizedAffinity>
-7.91928

> <CNNscore>
0.3623643517

> <CNNaffinity>
6.9291396141

> <CNN_VS>
2.5108730793

> <CNNaffinity_variance>
0.3581230938

$$$$
[H]O[C@]1([H])C([H])([H])C([H])([H])[C@@]([H])(n2c([H])c(-c3c([H])c([H])c(N4C([H])([H])C([H])([H])N(C([H])([H])[H])C([H])([H])C4([H])[H])c([H])c3[H])c3c([H])nc(N([H])C([H])([H])C([H])([H])C([H])([H])C([H])([H])[H])nc32)C([H])([H])C1([H])[H]


 36 40  0  0  0  0  0  0  0  0999 V2000
    4.5765    1.7932   19.9956 C   0  0  0  0  0  0  0  0  0  0  0  0
    4.1754    1.0640   18.9400 N   0  0  0  0  0  0  0  0  0  0  0  0
    3.9500    1.5885   17.7248 C   0  0  0  0  0  0  0  0  0  0  0  0
    4.1434    2.9473   17.5633 C   0  0  0  0  0  0  0  0  0  0  0  0
    4.0073    3.7893   16.4743 C   0  0  0  0  0  0  0  0  0  0  0  0
    4.3425    5.0425   16.9241 C   0  0  0  0  0  0  0  0  0  0  0  0
    4.6759    5.0173   18.2257 N   0  0  0  0  0  0  0  0  0  0  0  0
    4.5557    3.7181   18.6343 C   0  0  0  0  0  0  0  0  0  0  0  0
    4.7579    3.1097   19.8163 N   0  0  0  0  0  0  0  0  0  0  0  0
    5.0884    6.1118   19.0812 C   0  0  0  0  0  0  0  0  0  0  0  0
    4.3268    6.0698   20.3837 C   0  0  0  0  0  0  0  0  0  0  0  0
    4.8958    7.0629   21.3644 C   0  0  0  0  0  0  0  0  0  0  0  0
    6.3549    6.7600   21.5843 C   0  0  0  0  0  0  0  0  0  0  0  0
    6.9109    7.4891   22.6106 O   0  0  0  0  0  0  0  0  0  0  0  0
    7.0765    7.0489   20.2748 C   0  0  0  0  0  0  0  0  0  0  0  0
    6.5815    6.0203   19.2788 C   0  0  0  0  0  0  0  0  0  0  0  0
    7.7795    7.8525   22.2964 H   0  0  0  0  0  0  0  0  0  0  0  0
    3.5830    3.3973   15.1183 C   0  0  0  0  0  0  0  0  0  0  0  0
    3.9323    4.1346   14.0076 C   0  0  0  0  0  0  0  0  0  0  0  0
    3.5307    3.7658   12.7407 C   0  0  0  0  0  0  0  0  0  0  0  0
    2.7488    2.6242   12.5266 C   0  0  0  0  0  0  0  0  0  0  0  0
    2.4081    1.8997   13.6398 C   0  0  0  0  0  0  0  0  0  0  0  0
    2.8150    2.2726   14.9262 C   0  0  0  0  0  0  0  0  0  0  0  0
    2.3509    2.2752   11.2118 N   0  0  0  0  0  0  0  0  0  0  0  0
    1.1255    1.5195   10.9943 C   0  0  0  0  0  0  0  0  0  0  0  0
    1.1665    0.8910    9.6190 C   0  0  0  0  0  0  0  0  0  0  0  0
    1.2653    1.8909    8.5748 N   0  0  0  0  0  0  0  0  0  0  0  0
   -0.0419    2.2780    8.0793 C   0  0  0  0  0  0  0  0  0  0  0  0
    2.0638    3.0181    8.9611 C   0  0  0  0  0  0  0  0  0  0  0  0
    3.0906    2.6247   10.0216 C   0  0  0  0  0  0  0  0  0  0  0  0
    4.8010    1.1667   21.2675 N   0  0  0  0  0  0  0  0  0  0  0  0
    4.2364    0.3487   21.5033 H   0  0  0  0  0  0  0  0  0  0  0  0
    5.7710    1.7317   22.1299 C   0  0  0  0  0  0  0  0  0  0  0  0
    5.3258    2.3726   23.3873 C   0  0  0  0  0  0  0  0  0  0  0  0
    3.4086    3.9883   23.3815 C   0  0  0  0  0  0  0  0  0  0  0  0
    4.8763    3.7845   23.3286 C   0  0  0  0  0  0  0  0  0  0  0  0
 35 36  1  0  0  0
 36 34  1  0  0  0
 34 33  1  0  0  0
 33 31  1  0  0  0
 31  1  1  0  0  0
  1  2  2  0  0  0
  2  3  1  0  0  0
  3  4  2  0  0  0
  4  5  1  0  0  0
  5  6  2  0  0  0
  6  7  1  0  0  0
  7 10  1  0  0  0
 10 11  1  0  0  0
 11 12  1  0  0  0
 12 13  1  0  0  0
 13 14  1  0  0  0
 13 15  1  0  0  0
 15 16  1  0  0  0
  7  8  1  0  0  0
  8  9  2  0  0  0
  5 18  1  0  0  0
 18 19  2  0  0  0
 19 20  1  0  0  0
 20 21  2  0  0  0
 21 22  1  0  0  0
 22 23  2  0  0  0
 21 24  1  0  0  0
 24 25  1  0  0  0
 25 26  1  0  0  0
 26 27  1  0  0  0
 27 28  1  0  0  0
 27 29  1  0  0  0
 29 30  1  0  0  0
  9  1  1  0  0  0
 23 18  1  0  0  0
 30 24  1  0  0  0
  8  4  1  0  0  0
 16 10  1  0  0  0
 31 32  1  0  0  0
 14 17  1  0  0  0
M  END
> <minimizedAffinity>
-8.21602

> <CNNscore>
0.3206805587

> <CNNaffinity>
6.8497543335

> <CNN_VS>
2.1965830326

> <CNNaffinity_variance>
0.2110869139

$$$$
[H]O[C@]1([H])C([H])([H])C([H])([H])[C@@]([H])(n2c([H])c(-c3c([H])c([H])c(N4C([H])([H])C([H])([H])N(C([H])([H])[H])C([H])([H])C4([H])[H])c([H])c3[H])c3c([H])nc(N([H])C([H])([H])C([H])([H])C([H])([H])C([H])([H])[H])nc32)C([H])([H])C1([H])[H]


 36 40  0  0  0  0  0  0  0  0999 V2000
    3.4836    1.4538   18.1233 C   0  0  0  0  0  0  0  0  0  0  0  0
    4.1615    1.9361   19.1791 N   0  0  0  0  0  0  0  0  0  0  0  0
    4.5903    3.2057   19.2621 C   0  0  0  0  0  0  0  0  0  0  0  0
    4.3150    4.0495   18.2029 C   0  0  0  0  0  0  0  0  0  0  0  0
    4.6020    5.3823   17.9687 C   0  0  0  0  0  0  0  0  0  0  0  0
    4.0692    5.6705   16.7365 C   0  0  0  0  0  0  0  0  0  0  0  0
    3.4725    4.5915   16.2020 N   0  0  0  0  0  0  0  0  0  0  0  0
    3.6192    3.5764   17.1060 C   0  0  0  0  0  0  0  0  0  0  0  0
    3.2274    2.2901   17.1068 N   0  0  0  0  0  0  0  0  0  0  0  0
    2.7931    4.4643   14.9283 C   0  0  0  0  0  0  0  0  0  0  0  0
    2.2031    5.7918   14.5183 C   0  0  0  0  0  0  0  0  0  0  0  0
    1.6862    5.7295   13.1038 C   0  0  0  0  0  0  0  0  0  0  0  0
    2.8110    5.3333   12.1834 C   0  0  0  0  0  0  0  0  0  0  0  0
    2.4843    5.4414   10.8509 O   0  0  0  0  0  0  0  0  0  0  0  0
    3.1864    3.8974   12.5243 C   0  0  0  0  0  0  0  0  0  0  0  0
    3.7788    3.9305   13.9182 C   0  0  0  0  0  0  0  0  0  0  0  0
    2.7842    4.6146   10.3910 H   0  0  0  0  0  0  0  0  0  0  0  0
    5.3359    6.2867   18.8720 C   0  0  0  0  0  0  0  0  0  0  0  0
    6.6790    6.5459   18.7047 C   0  0  0  0  0  0  0  0  0  0  0  0
    7.3626    7.3907   19.5541 C   0  0  0  0  0  0  0  0  0  0  0  0
    6.7211    8.0232   20.6259 C   0  0  0  0  0  0  0  0  0  0  0  0
    5.3851    7.7568   20.7814 C   0  0  0  0  0  0  0  0  0  0  0  0
    4.6898    6.8998   19.9201 C   0  0  0  0  0  0  0  0  0  0  0  0
    7.4539    8.8833   21.4816 N   0  0  0  0  0  0  0  0  0  0  0  0
    6.7724    9.6221   22.5349 C   0  0  0  0  0  0  0  0  0  0  0  0
    7.6460   10.7744   22.9792 C   0  0  0  0  0  0  0  0  0  0  0  0
    8.9146   10.3136   23.5065 N   0  0  0  0  0  0  0  0  0  0  0  0
    8.8623   10.1325   24.9448 C   0  0  0  0  0  0  0  0  0  0  0  0
    9.4101    9.1538   22.8231 C   0  0  0  0  0  0  0  0  0  0  0  0
    8.8801    9.0929   21.3917 C   0  0  0  0  0  0  0  0  0  0  0  0
    3.0527    0.0847   18.1012 N   0  0  0  0  0  0  0  0  0  0  0  0
    3.2041   -0.4499   17.2439 H   0  0  0  0  0  0  0  0  0  0  0  0
    2.4219   -0.4372   19.2560 C   0  0  0  0  0  0  0  0  0  0  0  0
    3.1567   -0.4271   20.5405 C   0  0  0  0  0  0  0  0  0  0  0  0
    3.5744    0.9784   22.5743 C   0  0  0  0  0  0  0  0  0  0  0  0
    2.5847    0.3533   21.6643 C   0  0  0  0  0  0  0  0  0  0  0  0
 35 36  1  0  0  0
 36 34  1  0  0  0
 34 33  1  0  0  0
 33 31  1  0  0  0
 31  1  1  0  0  0
  1  2  2  0  0  0
  2  3  1  0  0  0
  3  4  2  0  0  0
  4  5  1  0  0  0
  5  6  2  0  0  0
  6  7  1  0  0  0
  7 10  1  0  0  0
 10 11  1  0  0  0
 11 12  1  0  0  0
 12 13  1  0  0  0
 13 14  1  0  0  0
 13 15  1  0  0  0
 15 16  1  0  0  0
  7  8  1  0  0  0
  8  9  2  0  0  0
  5 18  1  0  0  0
 18 19  2  0  0  0
 19 20  1  0  0  0
 20 21  2  0  0  0
 21 22  1  0  0  0
 22 23  2  0  0  0
 21 24  1  0  0  0
 24 25  1  0  0  0
 25 26  1  0  0  0
 26 27  1  0  0  0
 27 28  1  0  0  0
 27 29  1  0  0  0
 29 30  1  0  0  0
  9  1  1  0  0  0
 23 18  1  0  0  0
 30 24  1  0  0  0
  8  4  1  0  0  0
 16 10  1  0  0  0
 31 32  1  0  0  0
 14 17  1  0  0  0
M  END
> <minimizedAffinity>
-7.54391

> <CNNscore>
0.2746559083

> <CNNaffinity>
6.6830720901

> <CNN_VS>
1.8355451822

> <CNNaffinity_variance>
0.1790504754

$$$$
[H]O[C@]1([H])C([H])([H])C([H])([H])[C@@]([H])(n2c([H])c(-c3c([H])c([H])c(N4C([H])([H])C([H])([H])N(C([H])([H])[H])C([H])([H])C4([H])[H])c([H])c3[H])c3c([H])nc(N([H])C([H])([H])C([H])([H])C([H])([H])C([H])([H])[H])nc32)C([H])([H])C1([H])[H]


 36 40  0  0  0  0  0  0  0  0999 V2000
    4.1031    2.3577   17.3164 C   0  0  0  0  0  0  0  0  0  0  0  0
    3.6287    1.5929   16.3180 N   0  0  0  0  0  0  0  0  0  0  0  0
    3.2173    2.0900   15.1405 C   0  0  0  0  0  0  0  0  0  0  0  0
    3.2902    3.4578   14.9576 C   0  0  0  0  0  0  0  0  0  0  0  0
    2.9597    4.2789   13.8946 C   0  0  0  0  0  0  0  0  0  0  0  0
    3.2561    5.5567   14.3006 C   0  0  0  0  0  0  0  0  0  0  0  0
    3.7488    5.5661   15.5508 N   0  0  0  0  0  0  0  0  0  0  0  0
    3.7746    4.2650   15.9699 C   0  0  0  0  0  0  0  0  0  0  0  0
    4.1650    3.6824   17.1173 N   0  0  0  0  0  0  0  0  0  0  0  0
    4.1833    6.6944   16.3496 C   0  0  0  0  0  0  0  0  0  0  0  0
    5.6502    6.5637   16.6805 C   0  0  0  0  0  0  0  0  0  0  0  0
    6.1655    7.8277   17.3197 C   0  0  0  0  0  0  0  0  0  0  0  0
    5.9255    8.9864   16.3875 C   0  0  0  0  0  0  0  0  0  0  0  0
    6.5380   10.1483   16.7985 O   0  0  0  0  0  0  0  0  0  0  0  0
    4.4184    9.1838   16.2944 C   0  0  0  0  0  0  0  0  0  0  0  0
    3.8704    7.9599   15.5897 C   0  0  0  0  0  0  0  0  0  0  0  0
    5.8813   10.8884   16.7203 H   0  0  0  0  0  0  0  0  0  0  0  0
    2.4006    3.8464   12.6012 C   0  0  0  0  0  0  0  0  0  0  0  0
    3.1870    3.2689   11.6280 C   0  0  0  0  0  0  0  0  0  0  0  0
    2.6603    2.8682   10.4178 C   0  0  0  0  0  0  0  0  0  0  0  0
    1.3010    3.0309   10.1241 C   0  0  0  0  0  0  0  0  0  0  0  0
    0.5298    3.6067   11.1006 C   0  0  0  0  0  0  0  0  0  0  0  0
    1.0628    4.0138   12.3293 C   0  0  0  0  0  0  0  0  0  0  0  0
    0.7927    2.6106    8.8695 N   0  0  0  0  0  0  0  0  0  0  0  0
    0.3675    3.5954    7.8850 C   0  0  0  0  0  0  0  0  0  0  0  0
   -0.5346    2.9274    6.8711 C   0  0  0  0  0  0  0  0  0  0  0  0
    0.1470    1.8591    6.1680 N   0  0  0  0  0  0  0  0  0  0  0  0
    0.7542    2.3304    4.9378 C   0  0  0  0  0  0  0  0  0  0  0  0
    1.0727    1.1492    7.0025 C   0  0  0  0  0  0  0  0  0  0  0  0
    0.6594    1.2288    8.4710 C   0  0  0  0  0  0  0  0  0  0  0  0
    4.5280    1.7594   18.5502 N   0  0  0  0  0  0  0  0  0  0  0  0
    4.7301    0.7580   18.5507 H   0  0  0  0  0  0  0  0  0  0  0  0
    4.6179    2.5836   19.6976 C   0  0  0  0  0  0  0  0  0  0  0  0
    4.1087    2.0718   20.9894 C   0  0  0  0  0  0  0  0  0  0  0  0
    3.3418   -0.2900   21.3356 C   0  0  0  0  0  0  0  0  0  0  0  0
    4.4592    0.6837   21.3759 C   0  0  0  0  0  0  0  0  0  0  0  0
 35 36  1  0  0  0
 36 34  1  0  0  0
 34 33  1  0  0  0
 33 31  1  0  0  0
 31  1  1  0  0  0
  1  2  2  0  0  0
  2  3  1  0  0  0
  3  4  2  0  0  0
  4  5  1  0  0  0
  5  6  2  0  0  0
  6  7  1  0  0  0
  7 10  1  0  0  0
 10 11  1  0  0  0
 11 12  1  0  0  0
 12 13  1  0  0  0
 13 14  1  0  0  0
 13 15  1  0  0  0
 15 16  1  0  0  0
  7  8  1  0  0  0
  8  9  2  0  0  0
  5 18  1  0  0  0
 18 19  2  0  0  0
 19 20  1  0  0  0
 20 21  2  0  0  0
 21 22  1  0  0  0
 22 23  2  0  0  0
 21 24  1  0  0  0
 24 25  1  0  0  0
 25 26  1  0  0  0
 26 27  1  0  0  0
 27 28  1  0  0  0
 27 29  1  0  0  0
 29 30  1  0  0  0
  9  1  1  0  0  0
 23 18  1  0  0  0
 30 24  1  0  0  0
  8  4  1  0  0  0
 16 10  1  0  0  0
 31 32  1  0  0  0
 14 17  1  0  0  0
M  END
> <minimizedAffinity>
-6.09310

> <CNNscore>
0.2573064864

> <CNNaffinity>
6.5697021484

> <CNN_VS>
1.6904269457

> <CNNaffinity_variance>
0.3419420719

$$$$
[H]O[C@]1([H])C([H])([H])C([H])([H])[C@@]([H])(n2c([H])c(-c3c([H])c([H])c(N4C([H])([H])C([H])([H])N(C([H])([H])[H])C([H])([H])C4([H])[H])c([H])c3[H])c3c([H])nc(N([H])C([H])([H])C([H])([H])C([H])([H])C([H])([H])[H])nc32)C([H])([H])C1([H])[H]


 36 40  0  0  0  0  0  0  0  0999 V2000
    5.6315    6.0238   18.3804 C   0  0  0  0  0  0  0  0  0  0  0  0
    5.1921    6.2983   17.1401 N   0  0  0  0  0  0  0  0  0  0  0  0
    4.5646    5.3995   16.3648 C   0  0  0  0  0  0  0  0  0  0  0  0
    4.3664    4.1320   16.8785 C   0  0  0  0  0  0  0  0  0  0  0  0
    3.7700    2.9955   16.3626 C   0  0  0  0  0  0  0  0  0  0  0  0
    3.8726    2.0394   17.3426 C   0  0  0  0  0  0  0  0  0  0  0  0
    4.4975    2.5240   18.4292 N   0  0  0  0  0  0  0  0  0  0  0  0
    4.8095    3.8259   18.1517 C   0  0  0  0  0  0  0  0  0  0  0  0
    5.4286    4.7876   18.8589 N   0  0  0  0  0  0  0  0  0  0  0  0
    4.8087    1.8531   19.6754 C   0  0  0  0  0  0  0  0  0  0  0  0
    4.9792    2.8648   20.7825 C   0  0  0  0  0  0  0  0  0  0  0  0
    5.0856    2.1767   22.1194 C   0  0  0  0  0  0  0  0  0  0  0  0
    3.8550    1.3371   22.3426 C   0  0  0  0  0  0  0  0  0  0  0  0
    3.7708    0.8275   23.6182 O   0  0  0  0  0  0  0  0  0  0  0  0
    3.8890    0.2089   21.3203 C   0  0  0  0  0  0  0  0  0  0  0  0
    3.7119    0.8575   19.9628 C   0  0  0  0  0  0  0  0  0  0  0  0
    3.5300   -0.1331   23.5522 H   0  0  0  0  0  0  0  0  0  0  0  0
    3.1595    2.8621   15.0276 C   0  0  0  0  0  0  0  0  0  0  0  0
    2.0356    2.0927   14.8178 C   0  0  0  0  0  0  0  0  0  0  0  0
    1.4692    1.9683   13.5663 C   0  0  0  0  0  0  0  0  0  0  0  0
    2.0120    2.6192   12.4519 C   0  0  0  0  0  0  0  0  0  0  0  0
    3.1300    3.3813   12.6741 C   0  0  0  0  0  0  0  0  0  0  0  0
    3.7060    3.5087   13.9436 C   0  0  0  0  0  0  0  0  0  0  0  0
    1.4066    2.4678   11.1793 N   0  0  0  0  0  0  0  0  0  0  0  0
    1.2517    1.1430   10.5955 C   0  0  0  0  0  0  0  0  0  0  0  0
    1.0264    1.2793    9.1059 C   0  0  0  0  0  0  0  0  0  0  0  0
   -0.1718    2.0394    8.8118 N   0  0  0  0  0  0  0  0  0  0  0  0
   -1.3264    1.1765    8.6491 C   0  0  0  0  0  0  0  0  0  0  0  0
   -0.4024    3.0963    9.7536 C   0  0  0  0  0  0  0  0  0  0  0  0
    0.9082    3.5651   10.3833 C   0  0  0  0  0  0  0  0  0  0  0  0
    6.2936    7.0340   19.1562 N   0  0  0  0  0  0  0  0  0  0  0  0
    7.1404    6.7690   19.6624 H   0  0  0  0  0  0  0  0  0  0  0  0
    5.7229    8.3289   19.1954 C   0  0  0  0  0  0  0  0  0  0  0  0
    4.6165    8.5962   20.1410 C   0  0  0  0  0  0  0  0  0  0  0  0
    6.0853    9.9218   21.6811 C   0  0  0  0  0  0  0  0  0  0  0  0
    4.9647    8.9620   21.5354 C   0  0  0  0  0  0  0  0  0  0  0  0
 35 36  1  0  0  0
 36 34  1  0  0  0
 34 33  1  0  0  0
 33 31  1  0  0  0
 31  1  1  0  0  0
  1  2  2  0  0  0
  2  3  1  0  0  0
  3  4  2  0  0  0
  4  5  1  0  0  0
  5  6  2  0  0  0
  6  7  1  0  0  0
  7 10  1  0  0  0
 10 11  1  0  0  0
 11 12  1  0  0  0
 12 13  1  0  0  0
 13 14  1  0  0  0
 13 15  1  0  0  0
 15 16  1  0  0  0
  7  8  1  0  0  0
  8  9  2  0  0  0
  5 18  1  0  0  0
 18 19  2  0  0  0
 19 20  1  0  0  0
 20 21  2  0  0  0
 21 22  1  0  0  0
 22 23  2  0  0  0
 21 24  1  0  0  0
 24 25  1  0  0  0
 25 26  1  0  0  0
 26 27  1  0  0  0
 27 28  1  0  0  0
 27 29  1  0  0  0
 29 30  1  0  0  0
  9  1  1  0  0  0
 23 18  1  0  0  0
 30 24  1  0  0  0
  8  4  1  0  0  0
 16 10  1  0  0  0
 31 32  1  0  0  0
 14 17  1  0  0  0
M  END
> <minimizedAffinity>
-8.30537

> <CNNscore>
0.1913132668

> <CNNaffinity>
6.4886856079

> <CNN_VS>
1.2413716316

> <CNNaffinity_variance>
0.1227216572

$$$$
[H]O[C@]1([H])C([H])([H])C([H])([H])[C@@]([H])(N([H])c2nc(N([H])C([H])([H])C([H])([H])C([H])([H])C([H])([H])[H])nc([H])c2-c2nc([H])c(C([H])([H])N(C([H])([H])[H])C([H])([H])[H])c([H])c2[H])C([H])([H])C1([H])[H]


 32 34  0  0  0  0  0  0  0  0999 V2000
    2.8842    0.2191   18.3720 C   0  0  0  0  0  0  0  0  0  0  0  0
    2.1486    0.0351   17.2655 N   0  0  0  0  0  0  0  0  0  0  0  0
    2.2089    0.7898   16.1769 C   0  0  0  0  0  0  0  0  0  0  0  0
    3.1051    1.8702   16.1610 C   0  0  0  0  0  0  0  0  0  0  0  0
    3.8688    2.0845   17.2597 C   0  0  0  0  0  0  0  0  0  0  0  0
    3.7297    1.2486   18.3338 N   0  0  0  0  0  0  0  0  0  0  0  0
    3.1478    2.6678   14.9425 C   0  0  0  0  0  0  0  0  0  0  0  0
    3.0722    2.1429   13.6854 C   0  0  0  0  0  0  0  0  0  0  0  0
    3.2177    3.0133   12.6036 C   0  0  0  0  0  0  0  0  0  0  0  0
    3.4344    4.3696   12.8176 C   0  0  0  0  0  0  0  0  0  0  0  0
    3.5070    4.8654   14.1017 C   0  0  0  0  0  0  0  0  0  0  0  0
    3.3638    4.0125   15.1039 N   0  0  0  0  0  0  0  0  0  0  0  0
    3.5887    5.3206   11.6893 C   0  0  0  0  0  0  0  0  0  0  0  0
    4.9451    5.7877   11.6675 N   0  0  0  0  0  0  0  0  0  0  0  0
    5.6448    5.0870   10.6066 C   0  0  0  0  0  0  0  0  0  0  0  0
    5.0327    7.2169   11.5257 C   0  0  0  0  0  0  0  0  0  0  0  0
    2.7785   -0.6242   19.5275 N   0  0  0  0  0  0  0  0  0  0  0  0
    2.8099   -1.6599   19.3671 H   0  0  0  0  0  0  0  0  0  0  0  0
    2.6379   -0.0243   20.8208 C   0  0  0  0  0  0  0  0  0  0  0  0
    3.9201   -0.1903   21.5894 C   0  0  0  0  0  0  0  0  0  0  0  0
    6.0457    1.0622   21.2599 C   0  0  0  0  0  0  0  0  0  0  0  0
    4.6092    1.1504   21.7624 C   0  0  0  0  0  0  0  0  0  0  0  0
    4.9241    3.0756   17.3419 N   0  0  0  0  0  0  0  0  0  0  0  0
    5.8662    2.9382   16.9740 H   0  0  0  0  0  0  0  0  0  0  0  0
    4.6490    4.3199   18.0395 C   0  0  0  0  0  0  0  0  0  0  0  0
    4.7122    4.0711   19.5183 C   0  0  0  0  0  0  0  0  0  0  0  0
    5.5864    5.1183   20.1606 C   0  0  0  0  0  0  0  0  0  0  0  0
    5.1742    6.4792   19.7054 C   0  0  0  0  0  0  0  0  0  0  0  0
    3.8977    6.8127   20.1817 O   0  0  0  0  0  0  0  0  0  0  0  0
    5.2263    6.6658   18.2184 C   0  0  0  0  0  0  0  0  0  0  0  0
    5.6451    5.3523   17.5840 C   0  0  0  0  0  0  0  0  0  0  0  0
    3.9684    6.8746   21.1795 H   0  0  0  0  0  0  0  0  0  0  0  0
 21 22  1  0  0  0
 22 20  1  0  0  0
 20 19  1  0  0  0
 19 17  1  0  0  0
 17  1  1  0  0  0
  1  2  2  0  0  0
  2  3  1  0  0  0
  3  4  2  0  0  0
  4  5  1  0  0  0
  5 23  1  0  0  0
 23 25  1  0  0  0
 25 26  1  0  0  0
 26 27  1  0  0  0
 27 28  1  0  0  0
 28 29  1  0  0  0
 28 30  1  0  0  0
 30 31  1  0  0  0
  5  6  2  0  0  0
  4  7  1  0  0  0
  7  8  2  0  0  0
  8  9  1  0  0  0
  9 10  2  0  0  0
 10 13  1  0  0  0
 13 14  1  0  0  0
 14 15  1  0  0  0
 14 16  1  0  0  0
 10 11  1  0  0  0
 11 12  2  0  0  0
  6  1  1  0  0  0
 12  7  1  0  0  0
 31 25  1  0  0  0
 17 18  1  0  0  0
 23 24  1  0  0  0
 29 32  1  0  0  0
M  END
> <minimizedAffinity>
-7.23207

> <CNNscore>
0.9673804045

> <CNNaffinity>
7.2622957230

> <CNN_VS>
7.0254025459

> <CNNaffinity_variance>
0.0656463429

$$$$
[H]O[C@]1([H])C([H])([H])C([H])([H])[C@@]([H])(N([H])c2nc(N([H])C([H])([H])C([H])([H])C([H])([H])C([H])([H])[H])nc([H])c2-c2nc([H])c(C([H])([H])N(C([H])([H])[H])C([H])([H])[H])c([H])c2[H])C([H])([H])C1([H])[H]


 32 34  0  0  0  0  0  0  0  0999 V2000
    4.1993    1.7537   18.0397 C   0  0  0  0  0  0  0  0  0  0  0  0
    3.3268    1.2223   17.1706 N   0  0  0  0  0  0  0  0  0  0  0  0
    2.9004    1.8127   16.0625 C   0  0  0  0  0  0  0  0  0  0  0  0
    3.3874    3.0935   15.7574 C   0  0  0  0  0  0  0  0  0  0  0  0
    4.2746    3.6608   16.6102 C   0  0  0  0  0  0  0  0  0  0  0  0
    4.6503    2.9688   17.7289 N   0  0  0  0  0  0  0  0  0  0  0  0
    2.9020    3.7025   14.5261 C   0  0  0  0  0  0  0  0  0  0  0  0
    2.0355    4.7557   14.4872 C   0  0  0  0  0  0  0  0  0  0  0  0
    1.5804    5.1822   13.2383 C   0  0  0  0  0  0  0  0  0  0  0  0
    2.0050    4.5419   12.0798 C   0  0  0  0  0  0  0  0  0  0  0  0
    2.8799    3.4795   12.1564 C   0  0  0  0  0  0  0  0  0  0  0  0
    3.2920    3.1019   13.3564 N   0  0  0  0  0  0  0  0  0  0  0  0
    1.5429    4.9740   10.7377 C   0  0  0  0  0  0  0  0  0  0  0  0
    0.1092    4.9287   10.7115 N   0  0  0  0  0  0  0  0  0  0  0  0
   -0.3699    6.1809   10.1558 C   0  0  0  0  0  0  0  0  0  0  0  0
   -0.3922    3.7873    9.9930 C   0  0  0  0  0  0  0  0  0  0  0  0
    4.6266    1.0750   19.2290 N   0  0  0  0  0  0  0  0  0  0  0  0
    5.1703    0.1874   19.1028 H   0  0  0  0  0  0  0  0  0  0  0  0
    4.2973    1.6302   20.5079 C   0  0  0  0  0  0  0  0  0  0  0  0
    5.5532    2.1139   21.1797 C   0  0  0  0  0  0  0  0  0  0  0  0
    5.1168    4.2039   22.4590 C   0  0  0  0  0  0  0  0  0  0  0  0
    5.6225    3.6290   21.1408 C   0  0  0  0  0  0  0  0  0  0  0  0
    4.9584    4.9156   16.3640 N   0  0  0  0  0  0  0  0  0  0  0  0
    5.6866    5.0403   15.6597 H   0  0  0  0  0  0  0  0  0  0  0  0
    4.6340    6.0546   17.2054 C   0  0  0  0  0  0  0  0  0  0  0  0
    3.3278    5.7912   17.8959 C   0  0  0  0  0  0  0  0  0  0  0  0
    3.4800    6.0722   19.3694 C   0  0  0  0  0  0  0  0  0  0  0  0
    4.1125    7.4093   19.5731 C   0  0  0  0  0  0  0  0  0  0  0  0
    3.2662    8.4449   19.1503 O   0  0  0  0  0  0  0  0  0  0  0  0
    5.4557    7.5533   18.9223 C   0  0  0  0  0  0  0  0  0  0  0  0
    5.7663    6.2703   18.1734 C   0  0  0  0  0  0  0  0  0  0  0  0
    2.4679    8.4317   19.7562 H   0  0  0  0  0  0  0  0  0  0  0  0
 21 22  1  0  0  0
 22 20  1  0  0  0
 20 19  1  0  0  0
 19 17  1  0  0  0
 17  1  1  0  0  0
  1  2  2  0  0  0
  2  3  1  0  0  0
  3  4  2  0  0  0
  4  5  1  0  0  0
  5 23  1  0  0  0
 23 25  1  0  0  0
 25 26  1  0  0  0
 26 27  1  0  0  0
 27 28  1  0  0  0
 28 29  1  0  0  0
 28 30  1  0  0  0
 30 31  1  0  0  0
  5  6  2  0  0  0
  4  7  1  0  0  0
  7  8  2  0  0  0
  8  9  1  0  0  0
  9 10  2  0  0  0
 10 13  1  0  0  0
 13 14  1  0  0  0
 14 15  1  0  0  0
 14 16  1  0  0  0
 10 11  1  0  0  0
 11 12  2  0  0  0
  6  1  1  0  0  0
 12  7  1  0  0  0
 31 25  1  0  0  0
 17 18  1  0  0  0
 23 24  1  0  0  0
 29 32  1  0  0  0
M  END
> <minimizedAffinity>
-6.41427

> <CNNscore>
0.4896342158

> <CNNaffinity>
6.5323524475

> <CNN_VS>
3.1984632015

> <CNNaffinity_variance>
0.6733713746

$$$$
[H]O[C@]1([H])C([H])([H])C([H])([H])[C@@]([H])(N([H])c2nc(N([H])C([H])([H])C([H])([H])C([H])([H])C([H])([H])[H])nc([H])c2-c2nc([H])c(C([H])([H])N(C([H])([H])[H])C([H])([H])[H])c([H])c2[H])C([H])([H])C1([H])[H]


 32 34  0  0  0  0  0  0  0  0999 V2000
    4.3948    1.4863   20.3851 C   0  0  0  0  0  0  0  0  0  0  0  0
    3.6909    0.6748   19.5818 N   0  0  0  0  0  0  0  0  0  0  0  0
    3.3047    0.9719   18.3486 C   0  0  0  0  0  0  0  0  0  0  0  0
    3.6486    2.2281   17.8246 C   0  0  0  0  0  0  0  0  0  0  0  0
    4.3639    3.0735   18.6056 C   0  0  0  0  0  0  0  0  0  0  0  0
    4.7123    2.6723   19.8664 N   0  0  0  0  0  0  0  0  0  0  0  0
    3.2142    2.5109   16.4630 C   0  0  0  0  0  0  0  0  0  0  0  0
    3.3079    1.6209   15.4331 C   0  0  0  0  0  0  0  0  0  0  0  0
    2.9385    2.0545   14.1586 C   0  0  0  0  0  0  0  0  0  0  0  0
    2.4927    3.3564   13.9613 C   0  0  0  0  0  0  0  0  0  0  0  0
    2.4122    4.2296   15.0248 C   0  0  0  0  0  0  0  0  0  0  0  0
    2.7695    3.7852   16.2195 N   0  0  0  0  0  0  0  0  0  0  0  0
    2.0888    3.8459   12.6203 C   0  0  0  0  0  0  0  0  0  0  0  0
    1.0806    4.8531   12.7860 N   0  0  0  0  0  0  0  0  0  0  0  0
    1.4576    6.0026   11.9842 C   0  0  0  0  0  0  0  0  0  0  0  0
   -0.2362    4.3721   12.4620 C   0  0  0  0  0  0  0  0  0  0  0  0
    4.7852    1.1193   21.7157 N   0  0  0  0  0  0  0  0  0  0  0  0
    5.6602    0.5504   21.8166 H   0  0  0  0  0  0  0  0  0  0  0  0
    3.9780    1.5386   22.8224 C   0  0  0  0  0  0  0  0  0  0  0  0
    4.6181    2.7283   23.4838 C   0  0  0  0  0  0  0  0  0  0  0  0
    3.9687    4.9487   22.5653 C   0  0  0  0  0  0  0  0  0  0  0  0
    3.6259    3.8714   23.5880 C   0  0  0  0  0  0  0  0  0  0  0  0
    4.8993    4.3447   18.1588 N   0  0  0  0  0  0  0  0  0  0  0  0
    5.5059    4.4544   17.3452 H   0  0  0  0  0  0  0  0  0  0  0  0
    4.6064    5.5311   18.9444 C   0  0  0  0  0  0  0  0  0  0  0  0
    5.8512    5.9524   19.6693 C   0  0  0  0  0  0  0  0  0  0  0  0
    6.0780    7.4268   19.4500 C   0  0  0  0  0  0  0  0  0  0  0  0
    4.8233    8.1855   19.7320 C   0  0  0  0  0  0  0  0  0  0  0  0
    4.4854    8.1272   21.0922 O   0  0  0  0  0  0  0  0  0  0  0  0
    3.6523    7.7574   18.8990 C   0  0  0  0  0  0  0  0  0  0  0  0
    4.0865    6.5990   18.0198 C   0  0  0  0  0  0  0  0  0  0  0  0
    5.2080    8.6108   21.5907 H   0  0  0  0  0  0  0  0  0  0  0  0
 21 22  1  0  0  0
 22 20  1  0  0  0
 20 19  1  0  0  0
 19 17  1  0  0  0
 17  1  1  0  0  0
  1  2  2  0  0  0
  2  3  1  0  0  0
  3  4  2  0  0  0
  4  5  1  0  0  0
  5 23  1  0  0  0
 23 25  1  0  0  0
 25 26  1  0  0  0
 26 27  1  0  0  0
 27 28  1  0  0  0
 28 29  1  0  0  0
 28 30  1  0  0  0
 30 31  1  0  0  0
  5  6  2  0  0  0
  4  7  1  0  0  0
  7  8  2  0  0  0
  8  9  1  0  0  0
  9 10  2  0  0  0
 10 13  1  0  0  0
 13 14  1  0  0  0
 14 15  1  0  0  0
 14 16  1  0  0  0
 10 11  1  0  0  0
 11 12  2  0  0  0
  6  1  1  0  0  0
 12  7  1  0  0  0
 31 25  1  0  0  0
 17 18  1  0  0  0
 23 24  1  0  0  0
 29 32  1  0  0  0
M  END
> <minimizedAffinity>
-7.66357

> <CNNscore>
0.4269964099

> <CNNaffinity>
6.6648206711

> <CNN_VS>
2.8458545208

> <CNNaffinity_variance>
0.5618123412

$$$$
[H]O[C@]1([H])C([H])([H])C([H])([H])[C@@]([H])(N([H])c2nc(N([H])C([H])([H])C([H])([H])C([H])([H])C([H])([H])[H])nc([H])c2-c2nc([H])c(C([H])([H])N(C([H])([H])[H])C([H])([H])[H])c([H])c2[H])C([H])([H])C1([H])[H]


 32 34  0  0  0  0  0  0  0  0999 V2000
    4.1181    2.9427   17.9202 C   0  0  0  0  0  0  0  0  0  0  0  0
    3.4089    1.9191   17.4218 N   0  0  0  0  0  0  0  0  0  0  0  0
    2.9430    1.8475   16.1824 C   0  0  0  0  0  0  0  0  0  0  0  0
    3.2007    2.9155   15.3085 C   0  0  0  0  0  0  0  0  0  0  0  0
    3.9187    3.9657   15.7754 C   0  0  0  0  0  0  0  0  0  0  0  0
    4.3530    3.9440   17.0726 N   0  0  0  0  0  0  0  0  0  0  0  0
    2.6804    2.7929   13.9532 C   0  0  0  0  0  0  0  0  0  0  0  0
    1.5719    2.0680   13.6254 C   0  0  0  0  0  0  0  0  0  0  0  0
    1.2368    1.9607   12.2744 C   0  0  0  0  0  0  0  0  0  0  0  0
    2.0196    2.5776   11.3054 C   0  0  0  0  0  0  0  0  0  0  0  0
    3.1341    3.3010   11.6725 C   0  0  0  0  0  0  0  0  0  0  0  0
    3.4222    3.3828   12.9619 N   0  0  0  0  0  0  0  0  0  0  0  0
    1.6876    2.4859    9.8623 C   0  0  0  0  0  0  0  0  0  0  0  0
    1.5213    3.8142    9.3462 N   0  0  0  0  0  0  0  0  0  0  0  0
    1.9921    3.8253    7.9735 C   0  0  0  0  0  0  0  0  0  0  0  0
    0.1658    4.2832    9.4604 C   0  0  0  0  0  0  0  0  0  0  0  0
    4.5967    2.9745   19.2721 N   0  0  0  0  0  0  0  0  0  0  0  0
    4.8582    3.9113   19.6638 H   0  0  0  0  0  0  0  0  0  0  0  0
    4.6930    1.7499   20.0091 C   0  0  0  0  0  0  0  0  0  0  0  0
    4.3166    2.0005   21.4437 C   0  0  0  0  0  0  0  0  0  0  0  0
    2.8715    0.0803   20.7956 C   0  0  0  0  0  0  0  0  0  0  0  0
    3.4431    0.8746   21.9645 C   0  0  0  0  0  0  0  0  0  0  0  0
    4.3711    5.0752   14.9588 N   0  0  0  0  0  0  0  0  0  0  0  0
    5.1318    5.0123   14.2811 H   0  0  0  0  0  0  0  0  0  0  0  0
    3.7474    6.3730   15.1517 C   0  0  0  0  0  0  0  0  0  0  0  0
    4.7346    7.2926   15.8092 C   0  0  0  0  0  0  0  0  0  0  0  0
    4.7840    8.5933   15.0483 C   0  0  0  0  0  0  0  0  0  0  0  0
    3.4007    9.1092   14.8254 C   0  0  0  0  0  0  0  0  0  0  0  0
    2.7942    9.4846   16.0332 O   0  0  0  0  0  0  0  0  0  0  0  0
    2.5088    8.1597   14.0828 C   0  0  0  0  0  0  0  0  0  0  0  0
    3.2846    6.8834   13.8134 C   0  0  0  0  0  0  0  0  0  0  0  0
    3.3157   10.2630   16.3890 H   0  0  0  0  0  0  0  0  0  0  0  0
 21 22  1  0  0  0
 22 20  1  0  0  0
 20 19  1  0  0  0
 19 17  1  0  0  0
 17  1  1  0  0  0
  1  2  2  0  0  0
  2  3  1  0  0  0
  3  4  2  0  0  0
  4  5  1  0  0  0
  5 23  1  0  0  0
 23 25  1  0  0  0
 25 26  1  0  0  0
 26 27  1  0  0  0
 27 28  1  0  0  0
 28 29  1  0  0  0
 28 30  1  0  0  0
 30 31  1  0  0  0
  5  6  2  0  0  0
  4  7  1  0  0  0
  7  8  2  0  0  0
  8  9  1  0  0  0
  9 10  2  0  0  0
 10 13  1  0  0  0
 13 14  1  0  0  0
 14 15  1  0  0  0
 14 16  1  0  0  0
 10 11  1  0  0  0
 11 12  2  0  0  0
  6  1  1  0  0  0
 12  7  1  0  0  0
 31 25  1  0  0  0
 17 18  1  0  0  0
 23 24  1  0  0  0
 29 32  1  0  0  0
M  END
> <minimizedAffinity>
-6.21951

> <CNNscore>
0.3658610880

> <CNNaffinity>
6.3654580116

> <CNN_VS>
2.3288733959

> <CNNaffinity_variance>
0.1747473925

$$$$
[H]O[C@]1([H])C([H])([H])C([H])([H])[C@@]([H])(N([H])c2nc(N([H])C([H])([H])C([H])([H])C([H])([H])C([H])([H])[H])nc([H])c2-c2nc([H])c(C([H])([H])N(C([H])([H])[H])C([H])([H])[H])c([H])c2[H])C([H])([H])C1([H])[H]


 32 34  0  0  0  0  0  0  0  0999 V2000
    4.9928    2.5907   19.1792 C   0  0  0  0  0  0  0  0  0  0  0  0
    4.2539    1.6510   18.5708 N   0  0  0  0  0  0  0  0  0  0  0  0
    3.8024    1.7250   17.3262 C   0  0  0  0  0  0  0  0  0  0  0  0
    4.1101    2.8670   16.5700 C   0  0  0  0  0  0  0  0  0  0  0  0
    4.8592    3.8360   17.1500 C   0  0  0  0  0  0  0  0  0  0  0  0
    5.2750    3.6646   18.4420 N   0  0  0  0  0  0  0  0  0  0  0  0
    3.6039    2.9042   15.2044 C   0  0  0  0  0  0  0  0  0  0  0  0
    2.8577    1.9104   14.6412 C   0  0  0  0  0  0  0  0  0  0  0  0
    2.5153    2.0336   13.2934 C   0  0  0  0  0  0  0  0  0  0  0  0
    2.9312    3.1398   12.5613 C   0  0  0  0  0  0  0  0  0  0  0  0
    3.6858    4.1244   13.1623 C   0  0  0  0  0  0  0  0  0  0  0  0
    3.9916    3.9760   14.4417 N   0  0  0  0  0  0  0  0  0  0  0  0
    2.5800    3.3018   11.1290 C   0  0  0  0  0  0  0  0  0  0  0  0
    3.7910    3.3089   10.3596 N   0  0  0  0  0  0  0  0  0  0  0  0
    3.9222    2.0147    9.7161 C   0  0  0  0  0  0  0  0  0  0  0  0
    3.8364    4.3933    9.4149 C   0  0  0  0  0  0  0  0  0  0  0  0
    5.4540    2.4652   20.5317 N   0  0  0  0  0  0  0  0  0  0  0  0
    6.4569    2.1925   20.6705 H   0  0  0  0  0  0  0  0  0  0  0  0
    4.5416    2.7133   21.6078 C   0  0  0  0  0  0  0  0  0  0  0  0
    4.3183    1.4394   22.3758 C   0  0  0  0  0  0  0  0  0  0  0  0
    3.4742   -0.6115   21.2460 C   0  0  0  0  0  0  0  0  0  0  0  0
    3.0811    0.7251   21.8647 C   0  0  0  0  0  0  0  0  0  0  0  0
    5.3621    5.0062   16.4569 N   0  0  0  0  0  0  0  0  0  0  0  0
    6.0278    4.9696   15.6840 H   0  0  0  0  0  0  0  0  0  0  0  0
    4.9424    6.3169   16.9221 C   0  0  0  0  0  0  0  0  0  0  0  0
    3.5923    6.1937   17.5659 C   0  0  0  0  0  0  0  0  0  0  0  0
    3.6189    6.8779   18.9093 C   0  0  0  0  0  0  0  0  0  0  0  0
    4.1987    8.2473   18.7753 C   0  0  0  0  0  0  0  0  0  0  0  0
    3.3627    9.0849   18.0222 O   0  0  0  0  0  0  0  0  0  0  0  0
    5.5855    8.2684   18.2054 C   0  0  0  0  0  0  0  0  0  0  0  0
    5.9878    6.8445   17.8679 C   0  0  0  0  0  0  0  0  0  0  0  0
    2.5192    9.2022   18.5505 H   0  0  0  0  0  0  0  0  0  0  0  0
 21 22  1  0  0  0
 22 20  1  0  0  0
 20 19  1  0  0  0
 19 17  1  0  0  0
 17  1  1  0  0  0
  1  2  2  0  0  0
  2  3  1  0  0  0
  3  4  2  0  0  0
  4  5  1  0  0  0
  5 23  1  0  0  0
 23 25  1  0  0  0
 25 26  1  0  0  0
 26 27  1  0  0  0
 27 28  1  0  0  0
 28 29  1  0  0  0
 28 30  1  0  0  0
 30 31  1  0  0  0
  5  6  2  0  0  0
  4  7  1  0  0  0
  7  8  2  0  0  0
  8  9  1  0  0  0
  9 10  2  0  0  0
 10 13  1  0  0  0
 13 14  1  0  0  0
 14 15  1  0  0  0
 14 16  1  0  0  0
 10 11  1  0  0  0
 11 12  2  0  0  0
  6  1  1  0  0  0
 12  7  1  0  0  0
 31 25  1  0  0  0
 17 18  1  0  0  0
 23 24  1  0  0  0
 29 32  1  0  0  0
M  END
> <minimizedAffinity>
-7.20717

> <CNNscore>
0.3522616029

> <CNNaffinity>
6.4679360390

> <CNN_VS>
2.2784054279

> <CNNaffinity_variance>
0.2095446140

$$$$
[H]O[C@]1([H])C([H])([H])C([H])([H])[C@@]([H])(N([H])c2nc(N([H])C([H])([H])C([H])([H])C([H])([H])C([H])([H])[H])nc([H])c2-c2nc([H])c(C([H])([H])N(C([H])([H])[H])C([H])([H])[H])c([H])c2[H])C([H])([H])C1([H])[H]


 32 34  0  0  0  0  0  0  0  0999 V2000
    4.2449    2.0682   18.9128 C   0  0  0  0  0  0  0  0  0  0  0  0
    4.1246    1.4004   17.7558 N   0  0  0  0  0  0  0  0  0  0  0  0
    3.7788    1.9424   16.5961 C   0  0  0  0  0  0  0  0  0  0  0  0
    3.5135    3.3203   16.5547 C   0  0  0  0  0  0  0  0  0  0  0  0
    3.6295    4.0293   17.7037 C   0  0  0  0  0  0  0  0  0  0  0  0
    3.9909    3.3751   18.8496 N   0  0  0  0  0  0  0  0  0  0  0  0
    3.1470    3.8781   15.2596 C   0  0  0  0  0  0  0  0  0  0  0  0
    3.9140    3.7648   14.1368 C   0  0  0  0  0  0  0  0  0  0  0  0
    3.4868    4.4259   12.9838 C   0  0  0  0  0  0  0  0  0  0  0  0
    2.3150    5.1738   12.9963 C   0  0  0  0  0  0  0  0  0  0  0  0
    1.5655    5.2678   14.1492 C   0  0  0  0  0  0  0  0  0  0  0  0
    1.9992    4.6278   15.2238 N   0  0  0  0  0  0  0  0  0  0  0  0
    1.8323    5.8841   11.7865 C   0  0  0  0  0  0  0  0  0  0  0  0
    2.4329    5.2803   10.6318 N   0  0  0  0  0  0  0  0  0  0  0  0
    1.4048    4.5368    9.9274 C   0  0  0  0  0  0  0  0  0  0  0  0
    3.0856    6.2427    9.7844 C   0  0  0  0  0  0  0  0  0  0  0  0
    4.6183    1.4339   20.1440 N   0  0  0  0  0  0  0  0  0  0  0  0
    5.5773    1.0129   20.1923 H   0  0  0  0  0  0  0  0  0  0  0  0
    3.6825    1.4058   21.2283 C   0  0  0  0  0  0  0  0  0  0  0  0
    4.3780    1.8147   22.4978 C   0  0  0  0  0  0  0  0  0  0  0  0
    3.7077    4.0103   23.4599 C   0  0  0  0  0  0  0  0  0  0  0  0
    4.6524    3.3070   22.4920 C   0  0  0  0  0  0  0  0  0  0  0  0
    3.5137    5.4721   17.7900 N   0  0  0  0  0  0  0  0  0  0  0  0
    2.7063    5.9576   18.1827 H   0  0  0  0  0  0  0  0  0  0  0  0
    4.5820    6.2843   17.2337 C   0  0  0  0  0  0  0  0  0  0  0  0
    3.9818    7.3266   16.3359 C   0  0  0  0  0  0  0  0  0  0  0  0
    4.5543    8.6757   16.6900 C   0  0  0  0  0  0  0  0  0  0  0  0
    6.0437    8.5978   16.7596 C   0  0  0  0  0  0  0  0  0  0  0  0
    6.6023    8.3506   15.4968 O   0  0  0  0  0  0  0  0  0  0  0  0
    6.5556    7.5922   17.7471 C   0  0  0  0  0  0  0  0  0  0  0  0
    5.3671    6.8829   18.3699 C   0  0  0  0  0  0  0  0  0  0  0  0
    6.4027    9.1529   14.9303 H   0  0  0  0  0  0  0  0  0  0  0  0
 21 22  1  0  0  0
 22 20  1  0  0  0
 20 19  1  0  0  0
 19 17  1  0  0  0
 17  1  1  0  0  0
  1  2  2  0  0  0
  2  3  1  0  0  0
  3  4  2  0  0  0
  4  5  1  0  0  0
  5 23  1  0  0  0
 23 25  1  0  0  0
 25 26  1  0  0  0
 26 27  1  0  0  0
 27 28  1  0  0  0
 28 29  1  0  0  0
 28 30  1  0  0  0
 30 31  1  0  0  0
  5  6  2  0  0  0
  4  7  1  0  0  0
  7  8  2  0  0  0
  8  9  1  0  0  0
  9 10  2  0  0  0
 10 13  1  0  0  0
 13 14  1  0  0  0
 14 15  1  0  0  0
 14 16  1  0  0  0
 10 11  1  0  0  0
 11 12  2  0  0  0
  6  1  1  0  0  0
 12  7  1  0  0  0
 31 25  1  0  0  0
 17 18  1  0  0  0
 23 24  1  0  0  0
 29 32  1  0  0  0
M  END
> <minimizedAffinity>
-6.14163

> <CNNscore>
0.3257930875

> <CNNaffinity>
6.3999547958

> <CNN_VS>
2.0850610733

> <CNNaffinity_variance>
0.4520463943

$$$$
[H]O[C@]1([H])C([H])([H])C([H])([H])[C@@]([H])(N([H])c2nc(N([H])C([H])([H])C([H])([H])C([H])([H])C([H])([H])[H])nc([H])c2-c2nc([H])c(C([H])([H])N(C([H])([H])[H])C([H])([H])[H])c([H])c2[H])C([H])([H])C1([H])[H]


 32 34  0  0  0  0  0  0  0  0999 V2000
    2.8031    2.4735   15.2631 C   0  0  0  0  0  0  0  0  0  0  0  0
    2.7615    3.8136   15.2215 N   0  0  0  0  0  0  0  0  0  0  0  0
    3.3030    4.6206   16.1235 C   0  0  0  0  0  0  0  0  0  0  0  0
    3.9761    4.0482   17.2144 C   0  0  0  0  0  0  0  0  0  0  0  0
    4.0429    2.6967   17.2879 C   0  0  0  0  0  0  0  0  0  0  0  0
    3.4491    1.9520   16.3057 N   0  0  0  0  0  0  0  0  0  0  0  0
    4.5655    4.9696   18.1770 C   0  0  0  0  0  0  0  0  0  0  0  0
    3.8696    5.5594   19.1916 C   0  0  0  0  0  0  0  0  0  0  0  0
    4.5375    6.4930   19.9861 C   0  0  0  0  0  0  0  0  0  0  0  0
    5.8696    6.8025   19.7368 C   0  0  0  0  0  0  0  0  0  0  0  0
    6.5415    6.1884   18.7017 C   0  0  0  0  0  0  0  0  0  0  0  0
    5.8782    5.3077   17.9690 N   0  0  0  0  0  0  0  0  0  0  0  0
    6.6081    7.7869   20.5656 C   0  0  0  0  0  0  0  0  0  0  0  0
    6.0001    7.8385   21.8641 N   0  0  0  0  0  0  0  0  0  0  0  0
    6.9515    7.3148   22.8269 C   0  0  0  0  0  0  0  0  0  0  0  0
    5.5495    9.1609   22.2085 C   0  0  0  0  0  0  0  0  0  0  0  0
    2.1966    1.6432   14.2629 N   0  0  0  0  0  0  0  0  0  0  0  0
    2.6170    0.6948   14.1108 H   0  0  0  0  0  0  0  0  0  0  0  0
    1.0676    2.1383   13.5333 C   0  0  0  0  0  0  0  0  0  0  0  0
    1.2940    1.9279   12.0613 C   0  0  0  0  0  0  0  0  0  0  0  0
    3.0892    1.5073   10.3891 C   0  0  0  0  0  0  0  0  0  0  0  0
    2.7460    2.1908   11.7078 C   0  0  0  0  0  0  0  0  0  0  0  0
    4.8093    1.9682   18.2799 N   0  0  0  0  0  0  0  0  0  0  0  0
    5.6717    1.4615   18.0760 H   0  0  0  0  0  0  0  0  0  0  0  0
    4.2951    1.9023   19.6371 C   0  0  0  0  0  0  0  0  0  0  0  0
    3.7593    0.5227   19.8864 C   0  0  0  0  0  0  0  0  0  0  0  0
    4.3181    0.0008   21.1858 C   0  0  0  0  0  0  0  0  0  0  0  0
    4.1401    1.0171   22.2650 C   0  0  0  0  0  0  0  0  0  0  0  0
    2.7841    1.2069   22.5698 O   0  0  0  0  0  0  0  0  0  0  0  0
    4.7840    2.3387   21.9693 C   0  0  0  0  0  0  0  0  0  0  0  0
    5.4039    2.2719   20.5856 C   0  0  0  0  0  0  0  0  0  0  0  0
    2.4513    0.3446   22.9572 H   0  0  0  0  0  0  0  0  0  0  0  0
 21 22  1  0  0  0
 22 20  1  0  0  0
 20 19  1  0  0  0
 19 17  1  0  0  0
 17  1  1  0  0  0
  1  2  2  0  0  0
  2  3  1  0  0  0
  3  4  2  0  0  0
  4  5  1  0  0  0
  5 23  1  0  0  0
 23 25  1  0  0  0
 25 26  1  0  0  0
 26 27  1  0  0  0
 27 28  1  0  0  0
 28 29  1  0  0  0
 28 30  1  0  0  0
 30 31  1  0  0  0
  5  6  2  0  0  0
  4  7  1  0  0  0
  7  8  2  0  0  0
  8  9  1  0  0  0
  9 10  2  0  0  0
 10 13  1  0  0  0
 13 14  1  0  0  0
 14 15  1  0  0  0
 14 16  1  0  0  0
 10 11  1  0  0  0
 11 12  2  0  0  0
  6  1  1  0  0  0
 12  7  1  0  0  0
 31 25  1  0  0  0
 17 18  1  0  0  0
 23 24  1  0  0  0
 29 32  1  0  0  0
M  END
> <minimizedAffinity>
-6.63457

> <CNNscore>
0.3211762309

> <CNNaffinity>
6.4452614784

> <CNN_VS>
2.0700647831

> <CNNaffinity_variance>
0.4276812077

$$$$
[H]O[C@]1([H])C([H])([H])C([H])([H])[C@@]([H])(N([H])c2nc(N([H])C([H])([H])C([H])([H])C([H])([H])C([H])([H])[H])nc([H])c2-c2nc([H])c(C([H])([H])N(C([H])([H])[H])C([H])([H])[H])c([H])c2[H])C([H])([H])C1([H])[H]


 32 34  0  0  0  0  0  0  0  0999 V2000
    5.0788    1.7921   20.2393 C   0  0  0  0  0  0  0  0  0  0  0  0
    4.2780    1.1672   19.3633 N   0  0  0  0  0  0  0  0  0  0  0  0
    3.7911    1.7095   18.2556 C   0  0  0  0  0  0  0  0  0  0  0  0
    4.1276    3.0397   17.9585 C   0  0  0  0  0  0  0  0  0  0  0  0
    4.9390    3.7020   18.8183 C   0  0  0  0  0  0  0  0  0  0  0  0
    5.3872    3.0528   19.9361 N   0  0  0  0  0  0  0  0  0  0  0  0
    3.5806    3.5942   16.7273 C   0  0  0  0  0  0  0  0  0  0  0  0
    3.9138    3.1542   15.4795 C   0  0  0  0  0  0  0  0  0  0  0  0
    3.3841    3.8361   14.3826 C   0  0  0  0  0  0  0  0  0  0  0  0
    2.5462    4.9288   14.5726 C   0  0  0  0  0  0  0  0  0  0  0  0
    2.2319    5.3473   15.8478 C   0  0  0  0  0  0  0  0  0  0  0  0
    2.7508    4.6774   16.8649 N   0  0  0  0  0  0  0  0  0  0  0  0
    1.9640    5.6716   13.4278 C   0  0  0  0  0  0  0  0  0  0  0  0
    1.1851    6.7625   13.9393 N   0  0  0  0  0  0  0  0  0  0  0  0
    1.7389    7.9961   13.4123 C   0  0  0  0  0  0  0  0  0  0  0  0
   -0.2161    6.6247   13.6428 C   0  0  0  0  0  0  0  0  0  0  0  0
    5.5764    1.1618   21.4279 N   0  0  0  0  0  0  0  0  0  0  0  0
    5.8484    0.1519   21.3545 H   0  0  0  0  0  0  0  0  0  0  0  0
    5.6764    1.9260   22.6355 C   0  0  0  0  0  0  0  0  0  0  0  0
    4.2983    2.1709   23.1861 C   0  0  0  0  0  0  0  0  0  0  0  0
    3.7523    4.5482   22.6901 C   0  0  0  0  0  0  0  0  0  0  0  0
    4.2032    3.5690   23.7679 C   0  0  0  0  0  0  0  0  0  0  0  0
    5.4736    5.0288   18.5811 N   0  0  0  0  0  0  0  0  0  0  0  0
    6.1856    5.2406   17.8811 H   0  0  0  0  0  0  0  0  0  0  0  0
    5.0153    6.1184   19.4257 C   0  0  0  0  0  0  0  0  0  0  0  0
    6.0846    6.4368   20.4296 C   0  0  0  0  0  0  0  0  0  0  0  0
    6.3334    7.9239   20.4346 C   0  0  0  0  0  0  0  0  0  0  0  0
    5.0389    8.6594   20.5465 C   0  0  0  0  0  0  0  0  0  0  0  0
    4.4360    8.4462   21.7950 O   0  0  0  0  0  0  0  0  0  0  0  0
    4.0636    8.3461   19.4514 C   0  0  0  0  0  0  0  0  0  0  0  0
    4.6787    7.2935   18.5474 C   0  0  0  0  0  0  0  0  0  0  0  0
    5.0384    8.8592   22.4813 H   0  0  0  0  0  0  0  0  0  0  0  0
 21 22  1  0  0  0
 22 20  1  0  0  0
 20 19  1  0  0  0
 19 17  1  0  0  0
 17  1  1  0  0  0
  1  2  2  0  0  0
  2  3  1  0  0  0
  3  4  2  0  0  0
  4  5  1  0  0  0
  5 23  1  0  0  0
 23 25  1  0  0  0
 25 26  1  0  0  0
 26 27  1  0  0  0
 27 28  1  0  0  0
 28 29  1  0  0  0
 28 30  1  0  0  0
 30 31  1  0  0  0
  5  6  2  0  0  0
  4  7  1  0  0  0
  7  8  2  0  0  0
  8  9  1  0  0  0
  9 10  2  0  0  0
 10 13  1  0  0  0
 13 14  1  0  0  0
 14 15  1  0  0  0
 14 16  1  0  0  0
 10 11  1  0  0  0
 11 12  2  0  0  0
  6  1  1  0  0  0
 12  7  1  0  0  0
 31 25  1  0  0  0
 17 18  1  0  0  0
 23 24  1  0  0  0
 29 32  1  0  0  0
M  END
> <minimizedAffinity>
-7.60341

> <CNNscore>
0.2991601229

> <CNNaffinity>
6.4181265831

> <CNN_VS>
1.9200475216

> <CNNaffinity_variance>
0.3366386294

$$$$
[H]O[C@]1([H])C([H])([H])C([H])([H])[C@@]([H])(N([H])c2nc(N([H])C([H])([H])C([H])([H])C([H])([H])C([H])([H])[H])nc([H])c2-c2nc([H])c(C([H])([H])N(C([H])([H])[H])C([H])([H])[H])c([H])c2[H])C([H])([H])C1([H])[H]


 32 34  0  0  0  0  0  0  0  0999 V2000
    4.4727    1.7205   19.5097 C   0  0  0  0  0  0  0  0  0  0  0  0
    3.7165    1.2311   18.5159 N   0  0  0  0  0  0  0  0  0  0  0  0
    3.3770    1.8951   17.4195 C   0  0  0  0  0  0  0  0  0  0  0  0
    3.8337    3.2139   17.2681 C   0  0  0  0  0  0  0  0  0  0  0  0
    4.6045    3.7411   18.2501 C   0  0  0  0  0  0  0  0  0  0  0  0
    4.8971    2.9730   19.3438 N   0  0  0  0  0  0  0  0  0  0  0  0
    3.4471    3.9045   16.0449 C   0  0  0  0  0  0  0  0  0  0  0  0
    2.5019    4.8870   15.9910 C   0  0  0  0  0  0  0  0  0  0  0  0
    2.1635    5.4007   14.7378 C   0  0  0  0  0  0  0  0  0  0  0  0
    2.7783    4.9141   13.5899 C   0  0  0  0  0  0  0  0  0  0  0  0
    3.7281    3.9194   13.6813 C   0  0  0  0  0  0  0  0  0  0  0  0
    4.0255    3.4559   14.8851 N   0  0  0  0  0  0  0  0  0  0  0  0
    2.4436    5.4421   12.2444 C   0  0  0  0  0  0  0  0  0  0  0  0
    1.9597    4.3599   11.4361 N   0  0  0  0  0  0  0  0  0  0  0  0
    0.5137    4.3227   11.5538 C   0  0  0  0  0  0  0  0  0  0  0  0
    2.3918    4.4596   10.0672 C   0  0  0  0  0  0  0  0  0  0  0  0
    4.8089    0.9619   20.6798 N   0  0  0  0  0  0  0  0  0  0  0  0
    4.0132    0.6024   21.2604 H   0  0  0  0  0  0  0  0  0  0  0  0
    6.1879    0.7352   20.9941 C   0  0  0  0  0  0  0  0  0  0  0  0
    6.6078    1.6683   22.0967 C   0  0  0  0  0  0  0  0  0  0  0  0
    5.5281    2.0741   24.3023 C   0  0  0  0  0  0  0  0  0  0  0  0
    5.3892    2.2437   22.7938 C   0  0  0  0  0  0  0  0  0  0  0  0
    5.2521    5.0363   18.1755 N   0  0  0  0  0  0  0  0  0  0  0  0
    5.9999    5.2636   17.5190 H   0  0  0  0  0  0  0  0  0  0  0  0
    4.8584    6.0602   19.1279 C   0  0  0  0  0  0  0  0  0  0  0  0
    5.9904    6.2930   20.0855 C   0  0  0  0  0  0  0  0  0  0  0  0
    6.2558    7.7736   20.1894 C   0  0  0  0  0  0  0  0  0  0  0  0
    4.9789    8.5067   20.4369 C   0  0  0  0  0  0  0  0  0  0  0  0
    4.4508    8.2016   21.7001 O   0  0  0  0  0  0  0  0  0  0  0  0
    3.9354    8.2855   19.3831 C   0  0  0  0  0  0  0  0  0  0  0  0
    4.4823    7.3019   18.3648 C   0  0  0  0  0  0  0  0  0  0  0  0
    5.0985    8.5563   22.3777 H   0  0  0  0  0  0  0  0  0  0  0  0
 21 22  1  0  0  0
 22 20  1  0  0  0
 20 19  1  0  0  0
 19 17  1  0  0  0
 17  1  1  0  0  0
  1  2  2  0  0  0
  2  3  1  0  0  0
  3  4  2  0  0  0
  4  5  1  0  0  0
  5 23  1  0  0  0
 23 25  1  0  0  0
 25 26  1  0  0  0
 26 27  1  0  0  0
 27 28  1  0  0  0
 28 29  1  0  0  0
 28 30  1  0  0  0
 30 31  1  0  0  0
  5  6  2  0  0  0
  4  7  1  0  0  0
  7  8  2  0  0  0
  8  9  1  0  0  0
  9 10  2  0  0  0
 10 13  1  0  0  0
 13 14  1  0  0  0
 14 15  1  0  0  0
 14 16  1  0  0  0
 10 11  1  0  0  0
 11 12  2  0  0  0
  6  1  1  0  0  0
 12  7  1  0  0  0
 31 25  1  0  0  0
 17 18  1  0  0  0
 23 24  1  0  0  0
 29 32  1  0  0  0
M  END
> <minimizedAffinity>
-7.04247

> <CNNscore>
0.2877836525

> <CNNaffinity>
6.3627710342

> <CNN_VS>
1.8311015368

> <CNNaffinity_variance>
0.4414748251

$$$$
[H]O[C@]1([H])C([H])([H])C([H])([H])[C@@]([H])(N([H])c2nc(N([H])C([H])([H])C([H])([H])C([H])([H])C([H])([H])[H])nc([H])c2-c2nnc(OC([H])([H])[H])c([H])c2[H])C([H])([H])C1([H])[H]


 30 32  0  0  0  0  0  0  0  0999 V2000
    3.0087    0.1010   19.0835 C   0  0  0  0  0  0  0  0  0  0  0  0
    2.3822   -0.3151   17.9806 N   0  0  0  0  0  0  0  0  0  0  0  0
    2.4740    0.3460   16.8159 C   0  0  0  0  0  0  0  0  0  0  0  0
    3.2272    1.5092   16.6799 C   0  0  0  0  0  0  0  0  0  0  0  0
    3.8663    1.9289   17.8199 C   0  0  0  0  0  0  0  0  0  0  0  0
    3.7366    1.2138   18.9768 N   0  0  0  0  0  0  0  0  0  0  0  0
    3.2608    2.1881   15.3947 C   0  0  0  0  0  0  0  0  0  0  0  0
    2.4910    1.7095   14.3284 C   0  0  0  0  0  0  0  0  0  0  0  0
    2.4906    2.3671   13.1064 C   0  0  0  0  0  0  0  0  0  0  0  0
    3.2340    3.4969   12.8989 C   0  0  0  0  0  0  0  0  0  0  0  0
    3.9646    3.9260   13.9594 N   0  0  0  0  0  0  0  0  0  0  0  0
    3.9510    3.2875   15.1095 N   0  0  0  0  0  0  0  0  0  0  0  0
    3.2208    4.1404   11.6703 O   0  0  0  0  0  0  0  0  0  0  0  0
    2.3051    5.1737   11.3626 C   0  0  0  0  0  0  0  0  0  0  0  0
    2.9204   -0.5909   20.3242 N   0  0  0  0  0  0  0  0  0  0  0  0
    2.2204   -1.3684   20.3880 H   0  0  0  0  0  0  0  0  0  0  0  0
    3.7618   -0.2213   21.4204 C   0  0  0  0  0  0  0  0  0  0  0  0
    3.1385    0.8582   22.2351 C   0  0  0  0  0  0  0  0  0  0  0  0
    5.5160    1.6055   22.1165 C   0  0  0  0  0  0  0  0  0  0  0  0
    4.1422    1.9304   22.6335 C   0  0  0  0  0  0  0  0  0  0  0  0
    4.6169    3.1043   17.8848 N   0  0  0  0  0  0  0  0  0  0  0  0
    5.4245    3.2827   17.2829 H   0  0  0  0  0  0  0  0  0  0  0  0
    4.2674    4.1589   18.8179 C   0  0  0  0  0  0  0  0  0  0  0  0
    5.3141    4.4118   19.8447 C   0  0  0  0  0  0  0  0  0  0  0  0
    4.8430    5.5177   20.7655 C   0  0  0  0  0  0  0  0  0  0  0  0
    4.6153    6.7706   19.9799 C   0  0  0  0  0  0  0  0  0  0  0  0
    4.2293    7.8226   20.7893 O   0  0  0  0  0  0  0  0  0  0  0  0
    3.5164    6.5167   18.9398 C   0  0  0  0  0  0  0  0  0  0  0  0
    4.0535    5.4355   18.0307 C   0  0  0  0  0  0  0  0  0  0  0  0
    4.9812    8.4477   20.9077 H   0  0  0  0  0  0  0  0  0  0  0  0
 19 20  1  0  0  0
 20 18  1  0  0  0
 18 17  1  0  0  0
 17 15  1  0  0  0
 15  1  1  0  0  0
  1  2  2  0  0  0
  2  3  1  0  0  0
  3  4  2  0  0  0
  4  5  1  0  0  0
  5 21  1  0  0  0
 21 23  1  0  0  0
 23 24  1  0  0  0
 24 25  1  0  0  0
 25 26  1  0  0  0
 26 27  1  0  0  0
 26 28  1  0  0  0
 28 29  1  0  0  0
  5  6  2  0  0  0
  4  7  1  0  0  0
  7  8  2  0  0  0
  8  9  1  0  0  0
  9 10  2  0  0  0
 10 13  1  0  0  0
 13 14  1  0  0  0
 10 11  1  0  0  0
 11 12  2  0  0  0
  6  1  1  0  0  0
 12  7  1  0  0  0
 29 23  1  0  0  0
 15 16  1  0  0  0
 21 22  1  0  0  0
 27 30  1  0  0  0
M  END
> <minimizedAffinity>
-7.84216

> <CNNscore>
0.9479506016

> <CNNaffinity>
7.2199897766

> <CNN_VS>
6.8441934586

> <CNNaffinity_variance>
0.1540674865

$$$$
[H]O[C@]1([H])C([H])([H])C([H])([H])[C@@]([H])(N([H])c2nc(N([H])C([H])([H])C([H])([H])C([H])([H])C([H])([H])[H])nc([H])c2-c2nnc(OC([H])([H])[H])c([H])c2[H])C([H])([H])C1([H])[H]


 30 32  0  0  0  0  0  0  0  0999 V2000
    4.0566    2.3303   17.2135 C   0  0  0  0  0  0  0  0  0  0  0  0
    3.7226    1.2879   17.9775 N   0  0  0  0  0  0  0  0  0  0  0  0
    3.9871    1.2542   19.2932 C   0  0  0  0  0  0  0  0  0  0  0  0
    4.6277    2.3025   19.9486 C   0  0  0  0  0  0  0  0  0  0  0  0
    4.9677    3.3687   19.1538 C   0  0  0  0  0  0  0  0  0  0  0  0
    4.6714    3.3467   17.8203 N   0  0  0  0  0  0  0  0  0  0  0  0
    4.9061    2.1872   21.3709 C   0  0  0  0  0  0  0  0  0  0  0  0
    3.8722    1.8900   22.2661 C   0  0  0  0  0  0  0  0  0  0  0  0
    4.1311    1.7466   23.6219 C   0  0  0  0  0  0  0  0  0  0  0  0
    5.3934    1.8879   24.1306 C   0  0  0  0  0  0  0  0  0  0  0  0
    6.3651    2.1752   23.2275 N   0  0  0  0  0  0  0  0  0  0  0  0
    6.0983    2.3073   21.9461 N   0  0  0  0  0  0  0  0  0  0  0  0
    5.6326    1.7410   25.4889 O   0  0  0  0  0  0  0  0  0  0  0  0
    6.5797    0.8228   25.9995 C   0  0  0  0  0  0  0  0  0  0  0  0
    3.7811    2.3790   15.8179 N   0  0  0  0  0  0  0  0  0  0  0  0
    4.5057    2.8223   15.2039 H   0  0  0  0  0  0  0  0  0  0  0  0
    2.5611    1.8394   15.3018 C   0  0  0  0  0  0  0  0  0  0  0  0
    2.5540    1.8574   13.8127 C   0  0  0  0  0  0  0  0  0  0  0  0
    1.6698    4.0396   12.9874 C   0  0  0  0  0  0  0  0  0  0  0  0
    1.3469    2.5953   13.2522 C   0  0  0  0  0  0  0  0  0  0  0  0
    5.6660    4.4810   19.6274 N   0  0  0  0  0  0  0  0  0  0  0  0
    6.3754    4.4213   20.3618 H   0  0  0  0  0  0  0  0  0  0  0  0
    5.4249    5.8006   19.0746 C   0  0  0  0  0  0  0  0  0  0  0  0
    5.8170    5.9241   17.6446 C   0  0  0  0  0  0  0  0  0  0  0  0
    5.5328    7.3359   17.1767 C   0  0  0  0  0  0  0  0  0  0  0  0
    4.0722    7.6315   17.3109 C   0  0  0  0  0  0  0  0  0  0  0  0
    3.7584    8.8961   16.8494 O   0  0  0  0  0  0  0  0  0  0  0  0
    3.6748    7.5309   18.7893 C   0  0  0  0  0  0  0  0  0  0  0  0
    3.9442    6.0989   19.1904 C   0  0  0  0  0  0  0  0  0  0  0  0
    3.3097    8.8319   15.9749 H   0  0  0  0  0  0  0  0  0  0  0  0
 19 20  1  0  0  0
 20 18  1  0  0  0
 18 17  1  0  0  0
 17 15  1  0  0  0
 15  1  1  0  0  0
  1  2  2  0  0  0
  2  3  1  0  0  0
  3  4  2  0  0  0
  4  5  1  0  0  0
  5 21  1  0  0  0
 21 23  1  0  0  0
 23 24  1  0  0  0
 24 25  1  0  0  0
 25 26  1  0  0  0
 26 27  1  0  0  0
 26 28  1  0  0  0
 28 29  1  0  0  0
  5  6  2  0  0  0
  4  7  1  0  0  0
  7  8  2  0  0  0
  8  9  1  0  0  0
  9 10  2  0  0  0
 10 13  1  0  0  0
 13 14  1  0  0  0
 10 11  1  0  0  0
 11 12  2  0  0  0
  6  1  1  0  0  0
 12  7  1  0  0  0
 29 23  1  0  0  0
 15 16  1  0  0  0
 21 22  1  0  0  0
 27 30  1  0  0  0
M  END
> <minimizedAffinity>
-6.62279

> <CNNscore>
0.5771494508

> <CNNaffinity>
6.6762342453

> <CNN_VS>
3.8531849384

> <CNNaffinity_variance>
0.2562298179

$$$$
[H]O[C@]1([H])C([H])([H])C([H])([H])[C@@]([H])(N([H])c2nc(N([H])C([H])([H])C([H])([H])C([H])([H])C([H])([H])[H])nc([H])c2-c2nnc(OC([H])([H])[H])c([H])c2[H])C([H])([H])C1([H])[H]


 30 32  0  0  0  0  0  0  0  0999 V2000
    3.8533    0.9619   20.2347 C   0  0  0  0  0  0  0  0  0  0  0  0
    3.2335    0.2984   19.2562 N   0  0  0  0  0  0  0  0  0  0  0  0
    3.1831    0.7654   17.9986 C   0  0  0  0  0  0  0  0  0  0  0  0
    3.7723    1.9721   17.6306 C   0  0  0  0  0  0  0  0  0  0  0  0
    4.4060    2.6467   18.6443 C   0  0  0  0  0  0  0  0  0  0  0  0
    4.4255    2.1210   19.9052 N   0  0  0  0  0  0  0  0  0  0  0  0
    3.6561    2.4299   16.2556 C   0  0  0  0  0  0  0  0  0  0  0  0
    3.0253    1.6256   15.2997 C   0  0  0  0  0  0  0  0  0  0  0  0
    2.8806    2.0650   13.9913 C   0  0  0  0  0  0  0  0  0  0  0  0
    3.3432    3.2884   13.5896 C   0  0  0  0  0  0  0  0  0  0  0  0
    3.9473    4.0352   14.5486 N   0  0  0  0  0  0  0  0  0  0  0  0
    4.0746    3.5997   15.7834 N   0  0  0  0  0  0  0  0  0  0  0  0
    3.1893    3.7102   12.2773 O   0  0  0  0  0  0  0  0  0  0  0  0
    2.3355    4.7789   11.9170 C   0  0  0  0  0  0  0  0  0  0  0  0
    3.9149    0.4776   21.5716 N   0  0  0  0  0  0  0  0  0  0  0  0
    4.3398   -0.4694   21.7168 H   0  0  0  0  0  0  0  0  0  0  0  0
    3.4115    1.2688   22.6518 C   0  0  0  0  0  0  0  0  0  0  0  0
    4.5159    1.7359   23.5349 C   0  0  0  0  0  0  0  0  0  0  0  0
    3.5068    4.0147   23.4186 C   0  0  0  0  0  0  0  0  0  0  0  0
    4.7857    3.2254   23.3796 C   0  0  0  0  0  0  0  0  0  0  0  0
    5.0009    3.8981   18.4726 N   0  0  0  0  0  0  0  0  0  0  0  0
    5.7637    4.0655   17.8122 H   0  0  0  0  0  0  0  0  0  0  0  0
    4.5418    5.0492   19.2272 C   0  0  0  0  0  0  0  0  0  0  0  0
    5.4667    5.4457   20.3232 C   0  0  0  0  0  0  0  0  0  0  0  0
    4.8878    6.6436   21.0462 C   0  0  0  0  0  0  0  0  0  0  0  0
    4.7380    7.7882   20.0943 C   0  0  0  0  0  0  0  0  0  0  0  0
    4.2564    8.9210   20.7231 O   0  0  0  0  0  0  0  0  0  0  0  0
    3.7628    7.3879   18.9796 C   0  0  0  0  0  0  0  0  0  0  0  0
    4.4057    6.2173   18.2723 C   0  0  0  0  0  0  0  0  0  0  0  0
    4.9856    9.5719   20.8457 H   0  0  0  0  0  0  0  0  0  0  0  0
 19 20  1  0  0  0
 20 18  1  0  0  0
 18 17  1  0  0  0
 17 15  1  0  0  0
 15  1  1  0  0  0
  1  2  2  0  0  0
  2  3  1  0  0  0
  3  4  2  0  0  0
  4  5  1  0  0  0
  5 21  1  0  0  0
 21 23  1  0  0  0
 23 24  1  0  0  0
 24 25  1  0  0  0
 25 26  1  0  0  0
 26 27  1  0  0  0
 26 28  1  0  0  0
 28 29  1  0  0  0
  5  6  2  0  0  0
  4  7  1  0  0  0
  7  8  2  0  0  0
  8  9  1  0  0  0
  9 10  2  0  0  0
 10 13  1  0  0  0
 13 14  1  0  0  0
 10 11  1  0  0  0
 11 12  2  0  0  0
  6  1  1  0  0  0
 12  7  1  0  0  0
 29 23  1  0  0  0
 15 16  1  0  0  0
 21 22  1  0  0  0
 27 30  1  0  0  0
M  END
> <minimizedAffinity>
-7.91717

> <CNNscore>
0.5336785913

> <CNNaffinity>
6.5997786522

> <CNN_VS>
3.5221605301

> <CNNaffinity_variance>
0.4793526530

$$$$
[H]O[C@]1([H])C([H])([H])C([H])([H])[C@@]([H])(N([H])c2nc(N([H])C([H])([H])C([H])([H])C([H])([H])C([H])([H])[H])nc([H])c2-c2nnc(OC([H])([H])[H])c([H])c2[H])C([H])([H])C1([H])[H]


 30 32  0  0  0  0  0  0  0  0999 V2000
    4.0527    1.4730   18.1725 C   0  0  0  0  0  0  0  0  0  0  0  0
    3.2990    0.7973   17.3023 N   0  0  0  0  0  0  0  0  0  0  0  0
    3.0048    1.2831   16.0859 C   0  0  0  0  0  0  0  0  0  0  0  0
    3.4646    2.5233   15.6508 C   0  0  0  0  0  0  0  0  0  0  0  0
    4.2377    3.2102   16.5535 C   0  0  0  0  0  0  0  0  0  0  0  0
    4.5046    2.6641   17.7770 N   0  0  0  0  0  0  0  0  0  0  0  0
    3.0852    2.9988   14.3303 C   0  0  0  0  0  0  0  0  0  0  0  0
    2.8521    2.0851   13.2962 C   0  0  0  0  0  0  0  0  0  0  0  0
    2.4591    2.5251   12.0401 C   0  0  0  0  0  0  0  0  0  0  0  0
    2.2854    3.8545   11.7669 C   0  0  0  0  0  0  0  0  0  0  0  0
    2.5217    4.7049   12.7982 N   0  0  0  0  0  0  0  0  0  0  0  0
    2.8939    4.2670   13.9815 N   0  0  0  0  0  0  0  0  0  0  0  0
    1.8922    4.2751   10.5051 O   0  0  0  0  0  0  0  0  0  0  0  0
    0.5512    4.1990   10.0614 C   0  0  0  0  0  0  0  0  0  0  0  0
    4.3727    0.9690   19.4646 N   0  0  0  0  0  0  0  0  0  0  0  0
    4.6879   -0.0289   19.5227 H   0  0  0  0  0  0  0  0  0  0  0  0
    4.2605    1.8088   20.6171 C   0  0  0  0  0  0  0  0  0  0  0  0
    5.5761    2.4080   20.9746 C   0  0  0  0  0  0  0  0  0  0  0  0
    7.1392    0.5078   21.3876 C   0  0  0  0  0  0  0  0  0  0  0  0
    6.3139    1.5908   22.0250 C   0  0  0  0  0  0  0  0  0  0  0  0
    4.7359    4.4918   16.3115 N   0  0  0  0  0  0  0  0  0  0  0  0
    5.0851    4.7895   15.3975 H   0  0  0  0  0  0  0  0  0  0  0  0
    4.7652    5.4890   17.3650 C   0  0  0  0  0  0  0  0  0  0  0  0
    5.1491    6.8445   16.8866 C   0  0  0  0  0  0  0  0  0  0  0  0
    5.1570    7.7976   18.0631 C   0  0  0  0  0  0  0  0  0  0  0  0
    3.7926    7.8624   18.6738 C   0  0  0  0  0  0  0  0  0  0  0  0
    3.7410    8.7592   19.7245 O   0  0  0  0  0  0  0  0  0  0  0  0
    3.4091    6.4701   19.1916 C   0  0  0  0  0  0  0  0  0  0  0  0
    3.3813    5.5731   17.9756 C   0  0  0  0  0  0  0  0  0  0  0  0
    3.2734    9.5791   19.4427 H   0  0  0  0  0  0  0  0  0  0  0  0
 19 20  1  0  0  0
 20 18  1  0  0  0
 18 17  1  0  0  0
 17 15  1  0  0  0
 15  1  1  0  0  0
  1  2  2  0  0  0
  2  3  1  0  0  0
  3  4  2  0  0  0
  4  5  1  0  0  0
  5 21  1  0  0  0
 21 23  1  0  0  0
 23 24  1  0  0  0
 24 25  1  0  0  0
 25 26  1  0  0  0
 26 27  1  0  0  0
 26 28  1  0  0  0
 28 29  1  0  0  0
  5  6  2  0  0  0
  4  7  1  0  0  0
  7  8  2  0  0  0
  8  9  1  0  0  0
  9 10  2  0  0  0
 10 13  1  0  0  0
 13 14  1  0  0  0
 10 11  1  0  0  0
 11 12  2  0  0  0
  6  1  1  0  0  0
 12  7  1  0  0  0
 29 23  1  0  0  0
 15 16  1  0  0  0
 21 22  1  0  0  0
 27 30  1  0  0  0
M  END
> <minimizedAffinity>
-7.03581

> <CNNscore>
0.5195032358

> <CNNaffinity>
6.3778095245

> <CNN_VS>
3.3132927418

> <CNNaffinity_variance>
0.6181687117

$$$$
[H]O[C@]1([H])C([H])([H])C([H])([H])[C@@]([H])(N([H])c2nc(N([H])C([H])([H])C([H])([H])C([H])([H])C([H])([H])[H])nc([H])c2-c2nnc(OC([H])([H])[H])c([H])c2[H])C([H])([H])C1([H])[H]


 30 32  0  0  0  0  0  0  0  0999 V2000
    3.9558    1.8016   17.6404 C   0  0  0  0  0  0  0  0  0  0  0  0
    3.0310    1.0537   17.0344 N   0  0  0  0  0  0  0  0  0  0  0  0
    2.5436    1.3652   15.8229 C   0  0  0  0  0  0  0  0  0  0  0  0
    2.9686    2.4883   15.1181 C   0  0  0  0  0  0  0  0  0  0  0  0
    3.9186    3.2509   15.7506 C   0  0  0  0  0  0  0  0  0  0  0  0
    4.3781    2.8832   16.9836 N   0  0  0  0  0  0  0  0  0  0  0  0
    2.3783    2.7794   13.8217 C   0  0  0  0  0  0  0  0  0  0  0  0
    2.7201    2.0066   12.7062 C   0  0  0  0  0  0  0  0  0  0  0  0
    2.1397    2.2548   11.4703 C   0  0  0  0  0  0  0  0  0  0  0  0
    1.2205    3.2532   11.2963 C   0  0  0  0  0  0  0  0  0  0  0  0
    0.9183    3.9770   12.4042 N   0  0  0  0  0  0  0  0  0  0  0  0
    1.4802    3.7254   13.5667 N   0  0  0  0  0  0  0  0  0  0  0  0
    0.6513    3.4863   10.0532 O   0  0  0  0  0  0  0  0  0  0  0  0
   -0.7190    3.7969    9.8901 C   0  0  0  0  0  0  0  0  0  0  0  0
    4.4814    1.4822   18.9240 N   0  0  0  0  0  0  0  0  0  0  0  0
    4.4817    0.4715   19.2013 H   0  0  0  0  0  0  0  0  0  0  0  0
    4.9811    2.5146   19.7787 C   0  0  0  0  0  0  0  0  0  0  0  0
    5.5823    1.9431   21.0156 C   0  0  0  0  0  0  0  0  0  0  0  0
    3.6686    1.2204   22.4440 C   0  0  0  0  0  0  0  0  0  0  0  0
    4.7502    2.2470   22.2529 C   0  0  0  0  0  0  0  0  0  0  0  0
    4.4176    4.4421   15.2201 N   0  0  0  0  0  0  0  0  0  0  0  0
    5.2113    4.4748   14.5758 H   0  0  0  0  0  0  0  0  0  0  0  0
    3.8083    5.7163   15.5519 C   0  0  0  0  0  0  0  0  0  0  0  0
    4.6491    6.5604   16.4433 C   0  0  0  0  0  0  0  0  0  0  0  0
    3.9163    7.8539   16.7309 C   0  0  0  0  0  0  0  0  0  0  0  0
    3.6652    8.5907   15.4531 C   0  0  0  0  0  0  0  0  0  0  0  0
    3.0393    9.8034   15.6726 O   0  0  0  0  0  0  0  0  0  0  0  0
    2.7755    7.7310   14.5459 C   0  0  0  0  0  0  0  0  0  0  0  0
    3.5683    6.4759   14.2633 C   0  0  0  0  0  0  0  0  0  0  0  0
    3.6856   10.5388   15.5635 H   0  0  0  0  0  0  0  0  0  0  0  0
 19 20  1  0  0  0
 20 18  1  0  0  0
 18 17  1  0  0  0
 17 15  1  0  0  0
 15  1  1  0  0  0
  1  2  2  0  0  0
  2  3  1  0  0  0
  3  4  2  0  0  0
  4  5  1  0  0  0
  5 21  1  0  0  0
 21 23  1  0  0  0
 23 24  1  0  0  0
 24 25  1  0  0  0
 25 26  1  0  0  0
 26 27  1  0  0  0
 26 28  1  0  0  0
 28 29  1  0  0  0
  5  6  2  0  0  0
  4  7  1  0  0  0
  7  8  2  0  0  0
  8  9  1  0  0  0
  9 10  2  0  0  0
 10 13  1  0  0  0
 13 14  1  0  0  0
 10 11  1  0  0  0
 11 12  2  0  0  0
  6  1  1  0  0  0
 12  7  1  0  0  0
 29 23  1  0  0  0
 15 16  1  0  0  0
 21 22  1  0  0  0
 27 30  1  0  0  0
M  END
> <minimizedAffinity>
-6.28502

> <CNNscore>
0.5098630190

> <CNNaffinity>
6.4005575180

> <CNN_VS>
3.2634074688

> <CNNaffinity_variance>
0.4769915640

$$$$
[H]O[C@]1([H])C([H])([H])C([H])([H])[C@@]([H])(N([H])c2nc(N([H])C([H])([H])C([H])([H])C([H])([H])C([H])([H])[H])nc([H])c2-c2nnc(OC([H])([H])[H])c([H])c2[H])C([H])([H])C1([H])[H]


 30 32  0  0  0  0  0  0  0  0999 V2000
    3.7411    1.9517   16.4856 C   0  0  0  0  0  0  0  0  0  0  0  0
    3.3119    1.0000   17.3174 N   0  0  0  0  0  0  0  0  0  0  0  0
    3.5507    1.0457   18.6376 C   0  0  0  0  0  0  0  0  0  0  0  0
    4.2621    2.0872   19.2276 C   0  0  0  0  0  0  0  0  0  0  0  0
    4.6999    3.0598   18.3635 C   0  0  0  0  0  0  0  0  0  0  0  0
    4.4253    2.9598   17.0289 N   0  0  0  0  0  0  0  0  0  0  0  0
    4.5064    2.0589   20.6605 C   0  0  0  0  0  0  0  0  0  0  0  0
    5.7643    1.6896   21.1503 C   0  0  0  0  0  0  0  0  0  0  0  0
    6.0188    1.6891   22.5145 C   0  0  0  0  0  0  0  0  0  0  0  0
    5.0608    2.0462   23.4237 C   0  0  0  0  0  0  0  0  0  0  0  0
    3.8565    2.3975   22.9052 N   0  0  0  0  0  0  0  0  0  0  0  0
    3.6358    2.3910   21.6084 N   0  0  0  0  0  0  0  0  0  0  0  0
    5.3340    2.0394   24.7835 O   0  0  0  0  0  0  0  0  0  0  0  0
    6.4068    1.3045   25.3402 C   0  0  0  0  0  0  0  0  0  0  0  0
    3.4940    1.9156   15.0844 N   0  0  0  0  0  0  0  0  0  0  0  0
    3.5073    0.9753   14.6218 H   0  0  0  0  0  0  0  0  0  0  0  0
    3.2413    3.1246   14.3628 C   0  0  0  0  0  0  0  0  0  0  0  0
    2.8573    2.8376   12.9529 C   0  0  0  0  0  0  0  0  0  0  0  0
    1.2669    1.6458   11.4445 C   0  0  0  0  0  0  0  0  0  0  0  0
    1.5437    2.0752   12.8584 C   0  0  0  0  0  0  0  0  0  0  0  0
    5.4770    4.1466   18.7687 N   0  0  0  0  0  0  0  0  0  0  0  0
    6.4534    4.2674   18.4890 H   0  0  0  0  0  0  0  0  0  0  0  0
    4.9175    5.1879   19.6099 C   0  0  0  0  0  0  0  0  0  0  0  0
    5.6246    5.3425   20.9099 C   0  0  0  0  0  0  0  0  0  0  0  0
    4.9552    6.4427   21.7063 C   0  0  0  0  0  0  0  0  0  0  0  0
    5.0293    7.7330   20.9524 C   0  0  0  0  0  0  0  0  0  0  0  0
    4.4715    8.7781   21.6646 O   0  0  0  0  0  0  0  0  0  0  0  0
    4.2763    7.5809   19.6244 C   0  0  0  0  0  0  0  0  0  0  0  0
    5.0064    6.5010   18.8597 C   0  0  0  0  0  0  0  0  0  0  0  0
    5.1835    9.3527   22.0296 H   0  0  0  0  0  0  0  0  0  0  0  0
 19 20  1  0  0  0
 20 18  1  0  0  0
 18 17  1  0  0  0
 17 15  1  0  0  0
 15  1  1  0  0  0
  1  2  2  0  0  0
  2  3  1  0  0  0
  3  4  2  0  0  0
  4  5  1  0  0  0
  5 21  1  0  0  0
 21 23  1  0  0  0
 23 24  1  0  0  0
 24 25  1  0  0  0
 25 26  1  0  0  0
 26 27  1  0  0  0
 26 28  1  0  0  0
 28 29  1  0  0  0
  5  6  2  0  0  0
  4  7  1  0  0  0
  7  8  2  0  0  0
  8  9  1  0  0  0
  9 10  2  0  0  0
 10 13  1  0  0  0
 13 14  1  0  0  0
 10 11  1  0  0  0
 11 12  2  0  0  0
  6  1  1  0  0  0
 12  7  1  0  0  0
 29 23  1  0  0  0
 15 16  1  0  0  0
 21 22  1  0  0  0
 27 30  1  0  0  0
M  END
> <minimizedAffinity>
-7.32149

> <CNNscore>
0.4762071669

> <CNNaffinity>
6.6020479202

> <CNN_VS>
3.1439425945

> <CNNaffinity_variance>
0.4203351140

$$$$
[H]O[C@]1([H])C([H])([H])C([H])([H])[C@@]([H])(N([H])c2nc(N([H])C([H])([H])C([H])([H])C([H])([H])C([H])([H])[H])nc([H])c2-c2nnc(OC([H])([H])[H])c([H])c2[H])C([H])([H])C1([H])[H]


 30 32  0  0  0  0  0  0  0  0999 V2000
    3.0878    2.1652   15.1673 C   0  0  0  0  0  0  0  0  0  0  0  0
    3.4198    1.1483   15.9658 N   0  0  0  0  0  0  0  0  0  0  0  0
    3.7778    1.3344   17.2462 C   0  0  0  0  0  0  0  0  0  0  0  0
    3.8278    2.5990   17.8268 C   0  0  0  0  0  0  0  0  0  0  0  0
    3.4856    3.6375   16.9969 C   0  0  0  0  0  0  0  0  0  0  0  0
    3.1285    3.3865   15.7023 N   0  0  0  0  0  0  0  0  0  0  0  0
    4.2497    2.7291   19.2120 C   0  0  0  0  0  0  0  0  0  0  0  0
    4.9489    1.6878   19.8329 C   0  0  0  0  0  0  0  0  0  0  0  0
    5.3841    1.8129   21.1446 C   0  0  0  0  0  0  0  0  0  0  0  0
    5.1498    2.9467   21.8738 C   0  0  0  0  0  0  0  0  0  0  0  0
    4.4693    3.9308   21.2327 N   0  0  0  0  0  0  0  0  0  0  0  0
    4.0653    3.7919   19.9885 N   0  0  0  0  0  0  0  0  0  0  0  0
    5.5926    3.0531   23.1839 O   0  0  0  0  0  0  0  0  0  0  0  0
    5.2332    2.1221   24.1863 C   0  0  0  0  0  0  0  0  0  0  0  0
    2.7057    1.9816   13.8086 N   0  0  0  0  0  0  0  0  0  0  0  0
    3.4765    1.8678   13.1076 H   0  0  0  0  0  0  0  0  0  0  0  0
    1.3231    1.9575   13.4427 C   0  0  0  0  0  0  0  0  0  0  0  0
    1.0741    2.7870   12.2312 C   0  0  0  0  0  0  0  0  0  0  0  0
   -0.6679    4.5597   12.4500 C   0  0  0  0  0  0  0  0  0  0  0  0
    0.7960    4.2424   12.5779 C   0  0  0  0  0  0  0  0  0  0  0  0
    3.5347    4.9762   17.3903 N   0  0  0  0  0  0  0  0  0  0  0  0
    2.9781    5.3499   18.1628 H   0  0  0  0  0  0  0  0  0  0  0  0
    4.4111    5.9169   16.7179 C   0  0  0  0  0  0  0  0  0  0  0  0
    3.6844    6.9044   15.8749 C   0  0  0  0  0  0  0  0  0  0  0  0
    4.6909    7.8245   15.2168 C   0  0  0  0  0  0  0  0  0  0  0  0
    5.4717    8.5552   16.2632 C   0  0  0  0  0  0  0  0  0  0  0  0
    6.3719    9.4444   15.7066 O   0  0  0  0  0  0  0  0  0  0  0  0
    6.2423    7.5378   17.1145 C   0  0  0  0  0  0  0  0  0  0  0  0
    5.1917    6.6737   17.7729 C   0  0  0  0  0  0  0  0  0  0  0  0
    6.0388   10.3659   15.8077 H   0  0  0  0  0  0  0  0  0  0  0  0
 19 20  1  0  0  0
 20 18  1  0  0  0
 18 17  1  0  0  0
 17 15  1  0  0  0
 15  1  1  0  0  0
  1  2  2  0  0  0
  2  3  1  0  0  0
  3  4  2  0  0  0
  4  5  1  0  0  0
  5 21  1  0  0  0
 21 23  1  0  0  0
 23 24  1  0  0  0
 24 25  1  0  0  0
 25 26  1  0  0  0
 26 27  1  0  0  0
 26 28  1  0  0  0
 28 29  1  0  0  0
  5  6  2  0  0  0
  4  7  1  0  0  0
  7  8  2  0  0  0
  8  9  1  0  0  0
  9 10  2  0  0  0
 10 13  1  0  0  0
 13 14  1  0  0  0
 10 11  1  0  0  0
 11 12  2  0  0  0
  6  1  1  0  0  0
 12  7  1  0  0  0
 29 23  1  0  0  0
 15 16  1  0  0  0
 21 22  1  0  0  0
 27 30  1  0  0  0
M  END
> <minimizedAffinity>
-6.23554

> <CNNscore>
0.3965716064

> <CNNaffinity>
6.3248243332

> <CNN_VS>
2.5082457066

> <CNNaffinity_variance>
0.4723653793

$$$$
[H]O[C@]1([H])C([H])([H])C([H])([H])[C@@]([H])(N([H])c2nc(N([H])C([H])([H])C([H])([H])C([H])([H])C([H])([H])[H])nc([H])c2-c2nnc(OC([H])([H])[H])c([H])c2[H])C([H])([H])C1([H])[H]


 30 32  0  0  0  0  0  0  0  0999 V2000
    3.3727    2.5077   14.9862 C   0  0  0  0  0  0  0  0  0  0  0  0
    2.8851    1.5282   15.7508 N   0  0  0  0  0  0  0  0  0  0  0  0
    3.2198    1.3996   17.0445 C   0  0  0  0  0  0  0  0  0  0  0  0
    4.0976    2.2776   17.6750 C   0  0  0  0  0  0  0  0  0  0  0  0
    4.5940    3.2802   16.8796 C   0  0  0  0  0  0  0  0  0  0  0  0
    4.2160    3.3611   15.5692 N   0  0  0  0  0  0  0  0  0  0  0  0
    4.4361    2.0629   19.0725 C   0  0  0  0  0  0  0  0  0  0  0  0
    3.8456    1.0122   19.7837 C   0  0  0  0  0  0  0  0  0  0  0  0
    4.1842    0.7781   21.1090 C   0  0  0  0  0  0  0  0  0  0  0  0
    5.0989    1.5563   21.7645 C   0  0  0  0  0  0  0  0  0  0  0  0
    5.6469    2.5629   21.0371 N   0  0  0  0  0  0  0  0  0  0  0  0
    5.3117    2.7679   19.7817 N   0  0  0  0  0  0  0  0  0  0  0  0
    5.4244    1.3069   23.0895 O   0  0  0  0  0  0  0  0  0  0  0  0
    5.2036    2.2524   24.1181 C   0  0  0  0  0  0  0  0  0  0  0  0
    3.0255    2.6558   13.6138 N   0  0  0  0  0  0  0  0  0  0  0  0
    2.6327    1.8144   13.1278 H   0  0  0  0  0  0  0  0  0  0  0  0
    3.2143    3.9091   12.9507 C   0  0  0  0  0  0  0  0  0  0  0  0
    1.9121    4.4917   12.5237 C   0  0  0  0  0  0  0  0  0  0  0  0
    1.9652    5.9918   14.5166 C   0  0  0  0  0  0  0  0  0  0  0  0
    1.7223    5.9123   13.0351 C   0  0  0  0  0  0  0  0  0  0  0  0
    5.5297    4.2153   17.3260 N   0  0  0  0  0  0  0  0  0  0  0  0
    6.5323    4.0193   17.3750 H   0  0  0  0  0  0  0  0  0  0  0  0
    5.1156    5.5448   17.7335 C   0  0  0  0  0  0  0  0  0  0  0  0
    3.7430    5.5879   18.3062 C   0  0  0  0  0  0  0  0  0  0  0  0
    3.4129    7.0161   18.6858 C   0  0  0  0  0  0  0  0  0  0  0  0
    4.3863    7.5077   19.7103 C   0  0  0  0  0  0  0  0  0  0  0  0
    4.0938    8.7941   20.1226 O   0  0  0  0  0  0  0  0  0  0  0  0
    5.7978    7.4889   19.1094 C   0  0  0  0  0  0  0  0  0  0  0  0
    6.0867    6.0414   18.7849 C   0  0  0  0  0  0  0  0  0  0  0  0
    3.6910    8.7746   21.0213 H   0  0  0  0  0  0  0  0  0  0  0  0
 19 20  1  0  0  0
 20 18  1  0  0  0
 18 17  1  0  0  0
 17 15  1  0  0  0
 15  1  1  0  0  0
  1  2  2  0  0  0
  2  3  1  0  0  0
  3  4  2  0  0  0
  4  5  1  0  0  0
  5 21  1  0  0  0
 21 23  1  0  0  0
 23 24  1  0  0  0
 24 25  1  0  0  0
 25 26  1  0  0  0
 26 27  1  0  0  0
 26 28  1  0  0  0
 28 29  1  0  0  0
  5  6  2  0  0  0
  4  7  1  0  0  0
  7  8  2  0  0  0
  8  9  1  0  0  0
  9 10  2  0  0  0
 10 13  1  0  0  0
 13 14  1  0  0  0
 10 11  1  0  0  0
 11 12  2  0  0  0
  6  1  1  0  0  0
 12  7  1  0  0  0
 29 23  1  0  0  0
 15 16  1  0  0  0
 21 22  1  0  0  0
 27 30  1  0  0  0
M  END
> <minimizedAffinity>
-6.58764

> <CNNscore>
0.3636732996

> <CNNaffinity>
6.2190499306

> <CNN_VS>
2.2617022991

> <CNNaffinity_variance>
0.2980015874

$$$$
[H]O[C@]1([H])C([H])([H])C([H])([H])[C@@]([H])(N([H])c2nc(N([H])C([H])([H])C([H])([H])C([H])([H])C([H])([H])[H])nc([H])c2-c2nnc(OC([H])([H])[H])c([H])c2[H])C([H])([H])C1([H])[H]


 30 32  0  0  0  0  0  0  0  0999 V2000
    3.7389    2.7084   17.1935 C   0  0  0  0  0  0  0  0  0  0  0  0
    3.0730    1.6244   16.7892 N   0  0  0  0  0  0  0  0  0  0  0  0
    2.7195    1.4415   15.5071 C   0  0  0  0  0  0  0  0  0  0  0  0
    3.0224    2.3693   14.5140 C   0  0  0  0  0  0  0  0  0  0  0  0
    3.7061    3.4805   14.9404 C   0  0  0  0  0  0  0  0  0  0  0  0
    4.0401    3.6112   16.2587 N   0  0  0  0  0  0  0  0  0  0  0  0
    2.5854    2.1188   13.1501 C   0  0  0  0  0  0  0  0  0  0  0  0
    1.2381    1.8498   12.8836 C   0  0  0  0  0  0  0  0  0  0  0  0
    0.8037    1.6400   11.5824 C   0  0  0  0  0  0  0  0  0  0  0  0
    1.6659    1.6881   10.5211 C   0  0  0  0  0  0  0  0  0  0  0  0
    2.9622    1.9523   10.8250 N   0  0  0  0  0  0  0  0  0  0  0  0
    3.3534    2.1479   12.0657 N   0  0  0  0  0  0  0  0  0  0  0  0
    1.2130    1.4757    9.2275 O   0  0  0  0  0  0  0  0  0  0  0  0
    1.7490    0.4703    8.3892 C   0  0  0  0  0  0  0  0  0  0  0  0
    4.1204    2.9141   18.5492 N   0  0  0  0  0  0  0  0  0  0  0  0
    4.5211    2.0925   19.0618 H   0  0  0  0  0  0  0  0  0  0  0  0
    3.9536    4.1961   19.1613 C   0  0  0  0  0  0  0  0  0  0  0  0
    5.1188    4.5340   20.0250 C   0  0  0  0  0  0  0  0  0  0  0  0
    3.8604    5.1581   22.0869 C   0  0  0  0  0  0  0  0  0  0  0  0
    4.8624    4.2099   21.4895 C   0  0  0  0  0  0  0  0  0  0  0  0
    4.0422    4.5401   14.0957 N   0  0  0  0  0  0  0  0  0  0  0  0
    4.9930    4.6991   13.7539 H   0  0  0  0  0  0  0  0  0  0  0  0
    3.0318    5.4756   13.6387 C   0  0  0  0  0  0  0  0  0  0  0  0
    3.1754    6.8355   14.2253 C   0  0  0  0  0  0  0  0  0  0  0  0
    2.0701    7.7213   13.6903 C   0  0  0  0  0  0  0  0  0  0  0  0
    2.1720    7.8177   12.2007 C   0  0  0  0  0  0  0  0  0  0  0  0
    1.2093    8.6571   11.6721 O   0  0  0  0  0  0  0  0  0  0  0  0
    1.9962    6.4190   11.5953 C   0  0  0  0  0  0  0  0  0  0  0  0
    3.1416    5.5923   12.1322 C   0  0  0  0  0  0  0  0  0  0  0  0
    1.6195    9.5126   11.4071 H   0  0  0  0  0  0  0  0  0  0  0  0
 19 20  1  0  0  0
 20 18  1  0  0  0
 18 17  1  0  0  0
 17 15  1  0  0  0
 15  1  1  0  0  0
  1  2  2  0  0  0
  2  3  1  0  0  0
  3  4  2  0  0  0
  4  5  1  0  0  0
  5 21  1  0  0  0
 21 23  1  0  0  0
 23 24  1  0  0  0
 24 25  1  0  0  0
 25 26  1  0  0  0
 26 27  1  0  0  0
 26 28  1  0  0  0
 28 29  1  0  0  0
  5  6  2  0  0  0
  4  7  1  0  0  0
  7  8  2  0  0  0
  8  9  1  0  0  0
  9 10  2  0  0  0
 10 13  1  0  0  0
 13 14  1  0  0  0
 10 11  1  0  0  0
 11 12  2  0  0  0
  6  1  1  0  0  0
 12  7  1  0  0  0
 29 23  1  0  0  0
 15 16  1  0  0  0
 21 22  1  0  0  0
 27 30  1  0  0  0
M  END
> <minimizedAffinity>
-5.47564

> <CNNscore>
0.3469917178

> <CNNaffinity>
6.0316729546

> <CNN_VS>
2.0929405689

> <CNNaffinity_variance>
0.9307116270

$$$$
[H]OC1([H])C([H])([H])C([H])([H])C([H])(C([H])([H])n2nc(-c3c([H])c([H])c(F)c([H])c3[H])c3c([H])nc(N([H])C([H])([H])C([H])([H])C([H])([H])C([H])([H])[H])nc32)C([H])([H])C1([H])[H]


 31 34  0  0  0  0  0  0  0  0999 V2000
    2.9965    0.2958   18.5759 C   0  0  0  0  0  0  0  0  0  0  0  0
    2.1838   -0.0307   17.5613 N   0  0  0  0  0  0  0  0  0  0  0  0
    2.1742    0.7028   16.4423 C   0  0  0  0  0  0  0  0  0  0  0  0
    2.9987    1.7999   16.3215 C   0  0  0  0  0  0  0  0  0  0  0  0
    3.2232    2.7352   15.3353 C   0  0  0  0  0  0  0  0  0  0  0  0
    4.1586    3.5706   15.8152 N   0  0  0  0  0  0  0  0  0  0  0  0
    4.5535    3.2520   17.0238 N   0  0  0  0  0  0  0  0  0  0  0  0
    3.8531    2.1532   17.3734 C   0  0  0  0  0  0  0  0  0  0  0  0
    3.7949    1.3625   18.4531 N   0  0  0  0  0  0  0  0  0  0  0  0
    2.5479    2.7736   14.0357 C   0  0  0  0  0  0  0  0  0  0  0  0
    1.4922    3.6284   13.8006 C   0  0  0  0  0  0  0  0  0  0  0  0
    0.8258    3.7071   12.5985 C   0  0  0  0  0  0  0  0  0  0  0  0
    1.2200    2.8948   11.5590 C   0  0  0  0  0  0  0  0  0  0  0  0
    0.5710    2.9666   10.3768 F   0  0  0  0  0  0  0  0  0  0  0  0
    2.2819    2.0279   11.7796 C   0  0  0  0  0  0  0  0  0  0  0  0
    2.9404    1.9598   12.9893 C   0  0  0  0  0  0  0  0  0  0  0  0
    2.9924   -0.5062   19.7720 N   0  0  0  0  0  0  0  0  0  0  0  0
    3.2396   -1.5066   19.6831 H   0  0  0  0  0  0  0  0  0  0  0  0
    2.6510    0.0907   21.0421 C   0  0  0  0  0  0  0  0  0  0  0  0
    3.8447    0.4958   21.8381 C   0  0  0  0  0  0  0  0  0  0  0  0
    4.6532    2.0715   23.6243 C   0  0  0  0  0  0  0  0  0  0  0  0
    3.6840    1.8323   22.5178 C   0  0  0  0  0  0  0  0  0  0  0  0
    5.5376    3.8977   17.8780 C   0  0  0  0  0  0  0  0  0  0  0  0
    4.8919    4.7584   18.9338 C   0  0  0  0  0  0  0  0  0  0  0  0
    5.2614    4.2044   20.2923 C   0  0  0  0  0  0  0  0  0  0  0  0
    5.7670    5.2818   21.2301 C   0  0  0  0  0  0  0  0  0  0  0  0
    4.7398    6.3661   21.2940 C   0  0  0  0  0  0  0  0  0  0  0  0
    3.5671    5.8158   21.8064 O   0  0  0  0  0  0  0  0  0  0  0  0
    4.5734    6.9604   19.9312 C   0  0  0  0  0  0  0  0  0  0  0  0
    5.3436    6.1954   18.8671 C   0  0  0  0  0  0  0  0  0  0  0  0
    3.1161    5.3508   21.0814 H   0  0  0  0  0  0  0  0  0  0  0  0
 21 22  1  0  0  0
 22 20  1  0  0  0
 20 19  1  0  0  0
 19 17  1  0  0  0
 17  1  1  0  0  0
  1  2  2  0  0  0
  2  3  1  0  0  0
  3  4  2  0  0  0
  4  5  1  0  0  0
  5  6  2  0  0  0
  6  7  1  0  0  0
  7 23  1  0  0  0
 23 24  1  0  0  0
 24 25  1  0  0  0
 25 26  1  0  0  0
 26 27  1  0  0  0
 27 28  1  0  0  0
 27 29  1  0  0  0
 29 30  1  0  0  0
  7  8  1  0  0  0
  8  9  2  0  0  0
  5 10  1  0  0  0
 10 11  2  0  0  0
 11 12  1  0  0  0
 12 13  2  0  0  0
 13 14  1  0  0  0
 13 15  1  0  0  0
 15 16  2  0  0  0
  9  1  1  0  0  0
 16 10  1  0  0  0
  8  4  1  0  0  0
 30 24  1  0  0  0
 17 18  1  0  0  0
 28 31  1  0  0  0
M  END
> <minimizedAffinity>
-8.21848

> <CNNscore>
0.8800853491

> <CNNaffinity>
7.2231512070

> <CNN_VS>
6.3569893837

> <CNNaffinity_variance>
0.0714180022

$$$$
[H]OC1([H])C([H])([H])C([H])([H])C([H])(C([H])([H])n2nc(-c3c([H])c([H])c(F)c([H])c3[H])c3c([H])nc(N([H])C([H])([H])C([H])([H])C([H])([H])C([H])([H])[H])nc32)C([H])([H])C1([H])[H]


 31 34  0  0  0  0  0  0  0  0999 V2000
    3.7656    1.3773   19.0725 C   0  0  0  0  0  0  0  0  0  0  0  0
    4.3028    2.3384   19.8368 N   0  0  0  0  0  0  0  0  0  0  0  0
    4.6814    3.5003   19.2920 C   0  0  0  0  0  0  0  0  0  0  0  0
    4.5232    3.7206   17.9413 C   0  0  0  0  0  0  0  0  0  0  0  0
    4.8015    4.7715   17.0951 C   0  0  0  0  0  0  0  0  0  0  0  0
    4.4152    4.3804   15.8700 N   0  0  0  0  0  0  0  0  0  0  0  0
    3.9131    3.1696   15.8572 N   0  0  0  0  0  0  0  0  0  0  0  0
    3.9634    2.7256   17.1302 C   0  0  0  0  0  0  0  0  0  0  0  0
    3.6144    1.5967   17.7613 N   0  0  0  0  0  0  0  0  0  0  0  0
    5.4043    6.0450   17.4970 C   0  0  0  0  0  0  0  0  0  0  0  0
    4.7058    7.2299   17.4059 C   0  0  0  0  0  0  0  0  0  0  0  0
    5.2228    8.4519   17.7728 C   0  0  0  0  0  0  0  0  0  0  0  0
    6.5086    8.5165   18.2609 C   0  0  0  0  0  0  0  0  0  0  0  0
    7.0225    9.7119   18.6230 F   0  0  0  0  0  0  0  0  0  0  0  0
    7.2259    7.3317   18.3588 C   0  0  0  0  0  0  0  0  0  0  0  0
    6.6949    6.1144   17.9875 C   0  0  0  0  0  0  0  0  0  0  0  0
    3.3641    0.1337   19.6776 N   0  0  0  0  0  0  0  0  0  0  0  0
    3.5280   -0.7375   19.1446 H   0  0  0  0  0  0  0  0  0  0  0  0
    2.7550    0.1298   20.9871 C   0  0  0  0  0  0  0  0  0  0  0  0
    3.7510    0.1576   22.0961 C   0  0  0  0  0  0  0  0  0  0  0  0
    4.7292    2.0296   23.4621 C   0  0  0  0  0  0  0  0  0  0  0  0
    3.5058    1.2633   23.0918 C   0  0  0  0  0  0  0  0  0  0  0  0
    3.3890    2.3950   14.7435 C   0  0  0  0  0  0  0  0  0  0  0  0
    2.5530    3.2366   13.8133 C   0  0  0  0  0  0  0  0  0  0  0  0
    3.3741    3.5436   12.5802 C   0  0  0  0  0  0  0  0  0  0  0  0
    2.6111    3.2628   11.3016 C   0  0  0  0  0  0  0  0  0  0  0  0
    1.3195    4.0138   11.3532 C   0  0  0  0  0  0  0  0  0  0  0  0
    1.6167    5.3727   11.4290 O   0  0  0  0  0  0  0  0  0  0  0  0
    0.5117    3.5149   12.5093 C   0  0  0  0  0  0  0  0  0  0  0  0
    1.2873    2.5405   13.3809 C   0  0  0  0  0  0  0  0  0  0  0  0
    1.8396    5.5765   12.3531 H   0  0  0  0  0  0  0  0  0  0  0  0
 21 22  1  0  0  0
 22 20  1  0  0  0
 20 19  1  0  0  0
 19 17  1  0  0  0
 17  1  1  0  0  0
  1  2  2  0  0  0
  2  3  1  0  0  0
  3  4  2  0  0  0
  4  5  1  0  0  0
  5  6  2  0  0  0
  6  7  1  0  0  0
  7 23  1  0  0  0
 23 24  1  0  0  0
 24 25  1  0  0  0
 25 26  1  0  0  0
 26 27  1  0  0  0
 27 28  1  0  0  0
 27 29  1  0  0  0
 29 30  1  0  0  0
  7  8  1  0  0  0
  8  9  2  0  0  0
  5 10  1  0  0  0
 10 11  2  0  0  0
 11 12  1  0  0  0
 12 13  2  0  0  0
 13 14  1  0  0  0
 13 15  1  0  0  0
 15 16  2  0  0  0
  9  1  1  0  0  0
 16 10  1  0  0  0
  8  4  1  0  0  0
 30 24  1  0  0  0
 17 18  1  0  0  0
 28 31  1  0  0  0
M  END
> <minimizedAffinity>
-6.72156

> <CNNscore>
0.4135619998

> <CNNaffinity>
6.5812544823

> <CNN_VS>
2.7217566967

> <CNNaffinity_variance>
0.4085898995

$$$$
[H]OC1([H])C([H])([H])C([H])([H])C([H])(C([H])([H])n2nc(-c3c([H])c([H])c(F)c([H])c3[H])c3c([H])nc(N([H])C([H])([H])C([H])([H])C([H])([H])C([H])([H])[H])nc32)C([H])([H])C1([H])[H]


 31 34  0  0  0  0  0  0  0  0999 V2000
    4.4018    1.5616   19.9164 C   0  0  0  0  0  0  0  0  0  0  0  0
    3.6889    0.8812   19.0080 N   0  0  0  0  0  0  0  0  0  0  0  0
    3.5174    1.3762   17.7769 C   0  0  0  0  0  0  0  0  0  0  0  0
    4.0713    2.5892   17.4305 C   0  0  0  0  0  0  0  0  0  0  0  0
    4.0813    3.3544   16.2850 C   0  0  0  0  0  0  0  0  0  0  0  0
    4.8003    4.4516   16.5719 N   0  0  0  0  0  0  0  0  0  0  0  0
    5.2523    4.4564   17.8023 N   0  0  0  0  0  0  0  0  0  0  0  0
    4.8186    3.3116   18.3693 C   0  0  0  0  0  0  0  0  0  0  0  0
    4.9373    2.7392   19.5745 N   0  0  0  0  0  0  0  0  0  0  0  0
    3.4204    3.0018   15.0259 C   0  0  0  0  0  0  0  0  0  0  0  0
    2.4006    2.0752   14.9858 C   0  0  0  0  0  0  0  0  0  0  0  0
    1.7442    1.7107   13.8318 C   0  0  0  0  0  0  0  0  0  0  0  0
    2.1116    2.2927   12.6393 C   0  0  0  0  0  0  0  0  0  0  0  0
    1.4720    1.9402   11.5032 F   0  0  0  0  0  0  0  0  0  0  0  0
    3.1374    3.2281   12.6626 C   0  0  0  0  0  0  0  0  0  0  0  0
    3.7861    3.5836   13.8263 C   0  0  0  0  0  0  0  0  0  0  0  0
    4.5753    1.0119   21.2361 N   0  0  0  0  0  0  0  0  0  0  0  0
    5.3625    0.3582   21.3870 H   0  0  0  0  0  0  0  0  0  0  0  0
    3.6663    1.3776   22.2973 C   0  0  0  0  0  0  0  0  0  0  0  0
    4.3029    2.2222   23.3481 C   0  0  0  0  0  0  0  0  0  0  0  0
    4.6834    4.6650   22.8850 C   0  0  0  0  0  0  0  0  0  0  0  0
    3.7508    3.6244   23.4030 C   0  0  0  0  0  0  0  0  0  0  0  0
    6.0602    5.4516   18.4894 C   0  0  0  0  0  0  0  0  0  0  0  0
    5.3398    6.7687   18.6254 C   0  0  0  0  0  0  0  0  0  0  0  0
    4.5719    6.7598   19.9289 C   0  0  0  0  0  0  0  0  0  0  0  0
    4.8128    8.0155   20.7422 C   0  0  0  0  0  0  0  0  0  0  0  0
    4.5013    9.1972   19.8812 C   0  0  0  0  0  0  0  0  0  0  0  0
    3.1567    9.1248   19.5241 O   0  0  0  0  0  0  0  0  0  0  0  0
    5.4299    9.2039   18.7083 C   0  0  0  0  0  0  0  0  0  0  0  0
    6.2812    7.9465   18.6358 C   0  0  0  0  0  0  0  0  0  0  0  0
    3.0788    8.4943   18.7882 H   0  0  0  0  0  0  0  0  0  0  0  0
 21 22  1  0  0  0
 22 20  1  0  0  0
 20 19  1  0  0  0
 19 17  1  0  0  0
 17  1  1  0  0  0
  1  2  2  0  0  0
  2  3  1  0  0  0
  3  4  2  0  0  0
  4  5  1  0  0  0
  5  6  2  0  0  0
  6  7  1  0  0  0
  7 23  1  0  0  0
 23 24  1  0  0  0
 24 25  1  0  0  0
 25 26  1  0  0  0
 26 27  1  0  0  0
 27 28  1  0  0  0
 27 29  1  0  0  0
 29 30  1  0  0  0
  7  8  1  0  0  0
  8  9  2  0  0  0
  5 10  1  0  0  0
 10 11  2  0  0  0
 11 12  1  0  0  0
 12 13  2  0  0  0
 13 14  1  0  0  0
 13 15  1  0  0  0
 15 16  2  0  0  0
  9  1  1  0  0  0
 16 10  1  0  0  0
  8  4  1  0  0  0
 30 24  1  0  0  0
 17 18  1  0  0  0
 28 31  1  0  0  0
M  END
> <minimizedAffinity>
-8.44569

> <CNNscore>
0.4053020179

> <CNNaffinity>
6.7461113930

> <CNN_VS>
2.7342126369

> <CNNaffinity_variance>
0.5202579498

$$$$
[H]OC1([H])C([H])([H])C([H])([H])C([H])(C([H])([H])n2nc(-c3c([H])c([H])c(F)c([H])c3[H])c3c([H])nc(N([H])C([H])([H])C([H])([H])C([H])([H])C([H])([H])[H])nc32)C([H])([H])C1([H])[H]


 31 34  0  0  0  0  0  0  0  0999 V2000
    3.9099    5.6158   19.7396 C   0  0  0  0  0  0  0  0  0  0  0  0
    3.5352    6.0835   18.5408 N   0  0  0  0  0  0  0  0  0  0  0  0
    3.4462    5.2571   17.4923 C   0  0  0  0  0  0  0  0  0  0  0  0
    3.7383    3.9182   17.6341 C   0  0  0  0  0  0  0  0  0  0  0  0
    3.7461    2.8360   16.7817 C   0  0  0  0  0  0  0  0  0  0  0  0
    4.1256    1.7795   17.5187 N   0  0  0  0  0  0  0  0  0  0  0  0
    4.3619    2.0905   18.7699 N   0  0  0  0  0  0  0  0  0  0  0  0
    4.1311    3.4152   18.8808 C   0  0  0  0  0  0  0  0  0  0  0  0
    4.1925    4.3146   19.8715 N   0  0  0  0  0  0  0  0  0  0  0  0
    3.4038    2.8776   15.3578 C   0  0  0  0  0  0  0  0  0  0  0  0
    3.9280    3.8401   14.5217 C   0  0  0  0  0  0  0  0  0  0  0  0
    3.6427    3.9222   13.1774 C   0  0  0  0  0  0  0  0  0  0  0  0
    2.7876    3.0005   12.6161 C   0  0  0  0  0  0  0  0  0  0  0  0
    2.5031    3.0747   11.2979 F   0  0  0  0  0  0  0  0  0  0  0  0
    2.2508    2.0244   13.4449 C   0  0  0  0  0  0  0  0  0  0  0  0
    2.5456    1.9543   14.7901 C   0  0  0  0  0  0  0  0  0  0  0  0
    3.9995    6.5212   20.8559 N   0  0  0  0  0  0  0  0  0  0  0  0
    3.2319    6.5103   21.5491 H   0  0  0  0  0  0  0  0  0  0  0  0
    5.1347    7.4054   20.9809 C   0  0  0  0  0  0  0  0  0  0  0  0
    4.7470    8.8339   21.1599 C   0  0  0  0  0  0  0  0  0  0  0  0
    3.5320    9.6326   19.1074 C   0  0  0  0  0  0  0  0  0  0  0  0
    4.8049    9.6332   19.8825 C   0  0  0  0  0  0  0  0  0  0  0  0
    4.7876    1.2420   19.8717 C   0  0  0  0  0  0  0  0  0  0  0  0
    4.8405    1.9943   21.1769 C   0  0  0  0  0  0  0  0  0  0  0  0
    3.6702    1.5542   22.0288 C   0  0  0  0  0  0  0  0  0  0  0  0
    4.0935    1.1937   23.4383 C   0  0  0  0  0  0  0  0  0  0  0  0
    4.8395    2.3543   24.0139 C   0  0  0  0  0  0  0  0  0  0  0  0
    3.9728    3.4442   24.0526 O   0  0  0  0  0  0  0  0  0  0  0  0
    6.0678    2.5983   23.1954 C   0  0  0  0  0  0  0  0  0  0  0  0
    6.1119    1.7351   21.9449 C   0  0  0  0  0  0  0  0  0  0  0  0
    3.9423    3.8308   23.1611 H   0  0  0  0  0  0  0  0  0  0  0  0
 21 22  1  0  0  0
 22 20  1  0  0  0
 20 19  1  0  0  0
 19 17  1  0  0  0
 17  1  1  0  0  0
  1  2  2  0  0  0
  2  3  1  0  0  0
  3  4  2  0  0  0
  4  5  1  0  0  0
  5  6  2  0  0  0
  6  7  1  0  0  0
  7 23  1  0  0  0
 23 24  1  0  0  0
 24 25  1  0  0  0
 25 26  1  0  0  0
 26 27  1  0  0  0
 27 28  1  0  0  0
 27 29  1  0  0  0
 29 30  1  0  0  0
  7  8  1  0  0  0
  8  9  2  0  0  0
  5 10  1  0  0  0
 10 11  2  0  0  0
 11 12  1  0  0  0
 12 13  2  0  0  0
 13 14  1  0  0  0
 13 15  1  0  0  0
 15 16  2  0  0  0
  9  1  1  0  0  0
 16 10  1  0  0  0
  8  4  1  0  0  0
 30 24  1  0  0  0
 17 18  1  0  0  0
 28 31  1  0  0  0
M  END
> <minimizedAffinity>
-9.17010

> <CNNscore>
0.3336614072

> <CNNaffinity>
6.5998067856

> <CNN_VS>
2.2021007538

> <CNNaffinity_variance>
0.5007812381

$$$$
[H]OC1([H])C([H])([H])C([H])([H])C([H])(C([H])([H])n2nc(-c3c([H])c([H])c(F)c([H])c3[H])c3c([H])nc(N([H])C([H])([H])C([H])([H])C([H])([H])C([H])([H])[H])nc32)C([H])([H])C1([H])[H]


 31 34  0  0  0  0  0  0  0  0999 V2000
    3.4600    1.9471   16.6066 C   0  0  0  0  0  0  0  0  0  0  0  0
    3.8010    1.0800   17.5701 N   0  0  0  0  0  0  0  0  0  0  0  0
    4.1339    1.5223   18.7882 C   0  0  0  0  0  0  0  0  0  0  0  0
    4.1296    2.8720   19.0644 C   0  0  0  0  0  0  0  0  0  0  0  0
    4.4126    3.6305   20.1791 C   0  0  0  0  0  0  0  0  0  0  0  0
    4.2253    4.9108   19.8202 N   0  0  0  0  0  0  0  0  0  0  0  0
    3.8466    5.0391   18.5719 N   0  0  0  0  0  0  0  0  0  0  0  0
    3.7756    3.7898   18.0676 C   0  0  0  0  0  0  0  0  0  0  0  0
    3.4578    3.2568   16.8805 N   0  0  0  0  0  0  0  0  0  0  0  0
    4.8350    3.1010   21.4782 C   0  0  0  0  0  0  0  0  0  0  0  0
    3.9157    2.6709   22.4110 C   0  0  0  0  0  0  0  0  0  0  0  0
    4.2584    2.1622   23.6435 C   0  0  0  0  0  0  0  0  0  0  0  0
    5.5893    2.0691   23.9838 C   0  0  0  0  0  0  0  0  0  0  0  0
    5.9331    1.5709   25.1911 F   0  0  0  0  0  0  0  0  0  0  0  0
    6.5281    2.4983   23.0552 C   0  0  0  0  0  0  0  0  0  0  0  0
    6.1701    3.0058   21.8240 C   0  0  0  0  0  0  0  0  0  0  0  0
    3.1047    1.4515   15.3020 N   0  0  0  0  0  0  0  0  0  0  0  0
    3.4842    0.5332   15.0147 H   0  0  0  0  0  0  0  0  0  0  0  0
    2.2445    2.2302   14.4419 C   0  0  0  0  0  0  0  0  0  0  0  0
    2.9173    2.6732   13.1873 C   0  0  0  0  0  0  0  0  0  0  0  0
    4.3607    4.4237   12.1015 C   0  0  0  0  0  0  0  0  0  0  0  0
    3.7479    3.9195   13.3629 C   0  0  0  0  0  0  0  0  0  0  0  0
    3.5455    6.2430   17.8134 C   0  0  0  0  0  0  0  0  0  0  0  0
    4.6260    7.2847   17.9540 C   0  0  0  0  0  0  0  0  0  0  0  0
    5.6735    7.0317   16.8921 C   0  0  0  0  0  0  0  0  0  0  0  0
    6.0301    8.2918   16.1300 C   0  0  0  0  0  0  0  0  0  0  0  0
    6.4324    9.3384   17.1188 C   0  0  0  0  0  0  0  0  0  0  0  0
    7.5543    8.8742   17.8017 O   0  0  0  0  0  0  0  0  0  0  0  0
    5.2707    9.6354   18.0135 C   0  0  0  0  0  0  0  0  0  0  0  0
    4.1040    8.6889   17.7823 C   0  0  0  0  0  0  0  0  0  0  0  0
    7.2494    8.2583   18.4893 H   0  0  0  0  0  0  0  0  0  0  0  0
 21 22  1  0  0  0
 22 20  1  0  0  0
 20 19  1  0  0  0
 19 17  1  0  0  0
 17  1  1  0  0  0
  1  2  2  0  0  0
  2  3  1  0  0  0
  3  4  2  0  0  0
  4  5  1  0  0  0
  5  6  2  0  0  0
  6  7  1  0  0  0
  7 23  1  0  0  0
 23 24  1  0  0  0
 24 25  1  0  0  0
 25 26  1  0  0  0
 26 27  1  0  0  0
 27 28  1  0  0  0
 27 29  1  0  0  0
 29 30  1  0  0  0
  7  8  1  0  0  0
  8  9  2  0  0  0
  5 10  1  0  0  0
 10 11  2  0  0  0
 11 12  1  0  0  0
 12 13  2  0  0  0
 13 14  1  0  0  0
 13 15  1  0  0  0
 15 16  2  0  0  0
  9  1  1  0  0  0
 16 10  1  0  0  0
  8  4  1  0  0  0
 30 24  1  0  0  0
 17 18  1  0  0  0
 28 31  1  0  0  0
M  END
> <minimizedAffinity>
-7.44583

> <CNNscore>
0.3331582844

> <CNNaffinity>
6.4616599083

> <CNN_VS>
2.1527554989

> <CNNaffinity_variance>
0.2555683553

$$$$
[H]OC1([H])C([H])([H])C([H])([H])C([H])(C([H])([H])n2nc(-c3c([H])c([H])c(F)c([H])c3[H])c3c([H])nc(N([H])C([H])([H])C([H])([H])C([H])([H])C([H])([H])[H])nc32)C([H])([H])C1([H])[H]


 31 34  0  0  0  0  0  0  0  0999 V2000
    3.6320    6.9104   18.7030 C   0  0  0  0  0  0  0  0  0  0  0  0
    3.5315    6.1894   19.8284 N   0  0  0  0  0  0  0  0  0  0  0  0
    3.6055    4.8543   19.7828 C   0  0  0  0  0  0  0  0  0  0  0  0
    3.7857    4.2074   18.5798 C   0  0  0  0  0  0  0  0  0  0  0  0
    3.8987    2.8880   18.2002 C   0  0  0  0  0  0  0  0  0  0  0  0
    4.0606    2.8926   16.8672 N   0  0  0  0  0  0  0  0  0  0  0  0
    4.0612    4.1009   16.3590 N   0  0  0  0  0  0  0  0  0  0  0  0
    3.8923    4.9476   17.3956 C   0  0  0  0  0  0  0  0  0  0  0  0
    3.8068    6.2768   17.5375 N   0  0  0  0  0  0  0  0  0  0  0  0
    3.8435    1.7386   19.1072 C   0  0  0  0  0  0  0  0  0  0  0  0
    4.7167    1.6184   20.1670 C   0  0  0  0  0  0  0  0  0  0  0  0
    4.7056    0.5624   21.0502 C   0  0  0  0  0  0  0  0  0  0  0  0
    3.7779   -0.4413   20.8835 C   0  0  0  0  0  0  0  0  0  0  0  0
    3.7610   -1.4803   21.7462 F   0  0  0  0  0  0  0  0  0  0  0  0
    2.8911   -0.3351   19.8205 C   0  0  0  0  0  0  0  0  0  0  0  0
    2.9138    0.7287   18.9434 C   0  0  0  0  0  0  0  0  0  0  0  0
    3.5501    8.3464   18.7730 N   0  0  0  0  0  0  0  0  0  0  0  0
    2.7279    8.7606   19.2445 H   0  0  0  0  0  0  0  0  0  0  0  0
    4.5950    9.1596   18.1961 C   0  0  0  0  0  0  0  0  0  0  0  0
    5.6556    9.5314   19.1758 C   0  0  0  0  0  0  0  0  0  0  0  0
    7.8545    8.8628   20.1977 C   0  0  0  0  0  0  0  0  0  0  0  0
    6.8847    8.6626   19.0841 C   0  0  0  0  0  0  0  0  0  0  0  0
    4.2079    4.5246   14.9755 C   0  0  0  0  0  0  0  0  0  0  0  0
    3.3295    3.7287   14.0442 C   0  0  0  0  0  0  0  0  0  0  0  0
    1.9040    4.2091   14.2064 C   0  0  0  0  0  0  0  0  0  0  0  0
    1.2438    4.4984   12.8736 C   0  0  0  0  0  0  0  0  0  0  0  0
    1.3620    3.2779   12.0184 C   0  0  0  0  0  0  0  0  0  0  0  0
    0.6868    2.2401   12.6569 O   0  0  0  0  0  0  0  0  0  0  0  0
    2.8103    2.9887   11.7797 C   0  0  0  0  0  0  0  0  0  0  0  0
    3.7234    3.8878   12.5975 C   0  0  0  0  0  0  0  0  0  0  0  0
    1.2726    1.8850   13.3466 H   0  0  0  0  0  0  0  0  0  0  0  0
 21 22  1  0  0  0
 22 20  1  0  0  0
 20 19  1  0  0  0
 19 17  1  0  0  0
 17  1  1  0  0  0
  1  2  2  0  0  0
  2  3  1  0  0  0
  3  4  2  0  0  0
  4  5  1  0  0  0
  5  6  2  0  0  0
  6  7  1  0  0  0
  7 23  1  0  0  0
 23 24  1  0  0  0
 24 25  1  0  0  0
 25 26  1  0  0  0
 26 27  1  0  0  0
 27 28  1  0  0  0
 27 29  1  0  0  0
 29 30  1  0  0  0
  7  8  1  0  0  0
  8  9  2  0  0  0
  5 10  1  0  0  0
 10 11  2  0  0  0
 11 12  1  0  0  0
 12 13  2  0  0  0
 13 14  1  0  0  0
 13 15  1  0  0  0
 15 16  2  0  0  0
  9  1  1  0  0  0
 16 10  1  0  0  0
  8  4  1  0  0  0
 30 24  1  0  0  0
 17 18  1  0  0  0
 28 31  1  0  0  0
M  END
> <minimizedAffinity>
-6.57241

> <CNNscore>
0.3192704320

> <CNNaffinity>
6.4110956192

> <CNN_VS>
2.0468733311

> <CNNaffinity_variance>
0.3428576589

$$$$
[H]OC1([H])C([H])([H])C([H])([H])C([H])(C([H])([H])n2nc(-c3c([H])c([H])c(F)c([H])c3[H])c3c([H])nc(N([H])C([H])([H])C([H])([H])C([H])([H])C([H])([H])[H])nc32)C([H])([H])C1([H])[H]


 31 34  0  0  0  0  0  0  0  0999 V2000
    3.7983    2.3191   16.3714 C   0  0  0  0  0  0  0  0  0  0  0  0
    3.6958    1.4744   17.4070 N   0  0  0  0  0  0  0  0  0  0  0  0
    4.1053    1.8478   18.6248 C   0  0  0  0  0  0  0  0  0  0  0  0
    4.6358    3.1031   18.8267 C   0  0  0  0  0  0  0  0  0  0  0  0
    5.1354    3.7759   19.9201 C   0  0  0  0  0  0  0  0  0  0  0  0
    5.5097    4.9872   19.4776 N   0  0  0  0  0  0  0  0  0  0  0  0
    5.2935    5.1495   18.1950 N   0  0  0  0  0  0  0  0  0  0  0  0
    4.7492    3.9965   17.7541 C   0  0  0  0  0  0  0  0  0  0  0  0
    4.3145    3.5370   16.5733 N   0  0  0  0  0  0  0  0  0  0  0  0
    5.2245    3.2348   21.2788 C   0  0  0  0  0  0  0  0  0  0  0  0
    6.1770    2.2974   21.6166 C   0  0  0  0  0  0  0  0  0  0  0  0
    6.3066    1.7598   22.8774 C   0  0  0  0  0  0  0  0  0  0  0  0
    5.4462    2.1679   23.8719 C   0  0  0  0  0  0  0  0  0  0  0  0
    5.5674    1.6450   25.1112 F   0  0  0  0  0  0  0  0  0  0  0  0
    4.4807    3.1117   23.5477 C   0  0  0  0  0  0  0  0  0  0  0  0
    4.3626    3.6417   22.2801 C   0  0  0  0  0  0  0  0  0  0  0  0
    3.3518    1.8987   15.0684 N   0  0  0  0  0  0  0  0  0  0  0  0
    4.0392    1.4377   14.4481 H   0  0  0  0  0  0  0  0  0  0  0  0
    1.9835    2.1246   14.6648 C   0  0  0  0  0  0  0  0  0  0  0  0
    1.7841    2.0253   13.1907 C   0  0  0  0  0  0  0  0  0  0  0  0
    1.9528    4.5348   13.1612 C   0  0  0  0  0  0  0  0  0  0  0  0
    2.2274    3.2579   12.4435 C   0  0  0  0  0  0  0  0  0  0  0  0
    5.5573    6.3026   17.3489 C   0  0  0  0  0  0  0  0  0  0  0  0
    4.6278    7.4502   17.6513 C   0  0  0  0  0  0  0  0  0  0  0  0
    4.4087    7.5049   19.1473 C   0  0  0  0  0  0  0  0  0  0  0  0
    4.6020    8.9017   19.7020 C   0  0  0  0  0  0  0  0  0  0  0  0
    3.7155    9.8341   18.9408 C   0  0  0  0  0  0  0  0  0  0  0  0
    2.3970    9.4318   19.1418 O   0  0  0  0  0  0  0  0  0  0  0  0
    4.1266    9.8317   17.5023 C   0  0  0  0  0  0  0  0  0  0  0  0
    5.1814    8.7790   17.2027 C   0  0  0  0  0  0  0  0  0  0  0  0
    2.2208    8.6842   18.5459 H   0  0  0  0  0  0  0  0  0  0  0  0
 21 22  1  0  0  0
 22 20  1  0  0  0
 20 19  1  0  0  0
 19 17  1  0  0  0
 17  1  1  0  0  0
  1  2  2  0  0  0
  2  3  1  0  0  0
  3  4  2  0  0  0
  4  5  1  0  0  0
  5  6  2  0  0  0
  6  7  1  0  0  0
  7 23  1  0  0  0
 23 24  1  0  0  0
 24 25  1  0  0  0
 25 26  1  0  0  0
 26 27  1  0  0  0
 27 28  1  0  0  0
 27 29  1  0  0  0
 29 30  1  0  0  0
  7  8  1  0  0  0
  8  9  2  0  0  0
  5 10  1  0  0  0
 10 11  2  0  0  0
 11 12  1  0  0  0
 12 13  2  0  0  0
 13 14  1  0  0  0
 13 15  1  0  0  0
 15 16  2  0  0  0
  9  1  1  0  0  0
 16 10  1  0  0  0
  8  4  1  0  0  0
 30 24  1  0  0  0
 17 18  1  0  0  0
 28 31  1  0  0  0
M  END
> <minimizedAffinity>
-8.08920

> <CNNscore>
0.3126479685

> <CNNaffinity>
6.3930692673

> <CNN_VS>
1.9987801313

> <CNNaffinity_variance>
0.3574154377

$$$$
[H]OC1([H])C([H])([H])C([H])([H])C([H])(C([H])([H])n2nc(-c3c([H])c([H])c(F)c([H])c3[H])c3c([H])nc(N([H])C([H])([H])C([H])([H])C([H])([H])C([H])([H])[H])nc32)C([H])([H])C1([H])[H]


 31 34  0  0  0  0  0  0  0  0999 V2000
    4.4580    1.8936   18.8639 C   0  0  0  0  0  0  0  0  0  0  0  0
    3.4957    1.6241   17.9707 N   0  0  0  0  0  0  0  0  0  0  0  0
    3.2434    2.4789   16.9728 C   0  0  0  0  0  0  0  0  0  0  0  0
    3.9695    3.6435   16.8530 C   0  0  0  0  0  0  0  0  0  0  0  0
    3.9598    4.7012   15.9703 C   0  0  0  0  0  0  0  0  0  0  0  0
    4.9177    5.5460   16.3849 N   0  0  0  0  0  0  0  0  0  0  0  0
    5.5411    5.1216   17.4571 N   0  0  0  0  0  0  0  0  0  0  0  0
    4.9781    3.9386   17.7789 C   0  0  0  0  0  0  0  0  0  0  0  0
    5.1599    3.0263   18.7428 N   0  0  0  0  0  0  0  0  0  0  0  0
    3.0604    4.8367   14.8217 C   0  0  0  0  0  0  0  0  0  0  0  0
    1.8674    5.5200   14.9212 C   0  0  0  0  0  0  0  0  0  0  0  0
    0.9887    5.6799   13.8735 C   0  0  0  0  0  0  0  0  0  0  0  0
    1.2999    5.1342   12.6483 C   0  0  0  0  0  0  0  0  0  0  0  0
    0.4427    5.2872   11.6159 F   0  0  0  0  0  0  0  0  0  0  0  0
    2.4981    4.4426   12.5315 C   0  0  0  0  0  0  0  0  0  0  0  0
    3.3689    4.2903   13.5898 C   0  0  0  0  0  0  0  0  0  0  0  0
    4.7145    0.9609   19.9308 N   0  0  0  0  0  0  0  0  0  0  0  0
    5.6881    0.6393   20.0671 H   0  0  0  0  0  0  0  0  0  0  0  0
    3.6305    0.5048   20.7692 C   0  0  0  0  0  0  0  0  0  0  0  0
    3.7006    1.0398   22.1590 C   0  0  0  0  0  0  0  0  0  0  0  0
    4.8465    2.8453   23.4835 C   0  0  0  0  0  0  0  0  0  0  0  0
    4.9819    1.7797   22.4505 C   0  0  0  0  0  0  0  0  0  0  0  0
    6.6249    5.7392   18.2049 C   0  0  0  0  0  0  0  0  0  0  0  0
    6.1603    6.2755   19.5349 C   0  0  0  0  0  0  0  0  0  0  0  0
    4.6525    6.3951   19.5004 C   0  0  0  0  0  0  0  0  0  0  0  0
    4.0024    5.7738   20.7200 C   0  0  0  0  0  0  0  0  0  0  0  0
    4.6155    6.3845   21.9390 C   0  0  0  0  0  0  0  0  0  0  0  0
    4.3481    7.7515   21.9144 O   0  0  0  0  0  0  0  0  0  0  0  0
    6.0766    6.0635   21.9624 C   0  0  0  0  0  0  0  0  0  0  0  0
    6.5403    5.3795   20.6866 C   0  0  0  0  0  0  0  0  0  0  0  0
    4.9876    8.1681   21.3124 H   0  0  0  0  0  0  0  0  0  0  0  0
 21 22  1  0  0  0
 22 20  1  0  0  0
 20 19  1  0  0  0
 19 17  1  0  0  0
 17  1  1  0  0  0
  1  2  2  0  0  0
  2  3  1  0  0  0
  3  4  2  0  0  0
  4  5  1  0  0  0
  5  6  2  0  0  0
  6  7  1  0  0  0
  7 23  1  0  0  0
 23 24  1  0  0  0
 24 25  1  0  0  0
 25 26  1  0  0  0
 26 27  1  0  0  0
 27 28  1  0  0  0
 27 29  1  0  0  0
 29 30  1  0  0  0
  7  8  1  0  0  0
  8  9  2  0  0  0
  5 10  1  0  0  0
 10 11  2  0  0  0
 11 12  1  0  0  0
 12 13  2  0  0  0
 13 14  1  0  0  0
 13 15  1  0  0  0
 15 16  2  0  0  0
  9  1  1  0  0  0
 16 10  1  0  0  0
  8  4  1  0  0  0
 30 24  1  0  0  0
 17 18  1  0  0  0
 28 31  1  0  0  0
M  END
> <minimizedAffinity>
-7.27316

> <CNNscore>
0.2977651954

> <CNNaffinity>
6.5462737083

> <CNN_VS>
1.9492524862

> <CNNaffinity_variance>
0.4504575133

$$$$
[H]OC1([H])C([H])([H])C([H])([H])C([H])(C([H])([H])n2nc(-c3c([H])c([H])c(F)c([H])c3[H])c3c([H])nc(N([H])C([H])([H])C([H])([H])C([H])([H])C([H])([H])[H])nc32)C([H])([H])C1([H])[H]


 31 34  0  0  0  0  0  0  0  0999 V2000
    4.8157    1.9885   20.2934 C   0  0  0  0  0  0  0  0  0  0  0  0
    4.0834    1.2480   19.4497 N   0  0  0  0  0  0  0  0  0  0  0  0
    3.8641    1.6696   18.1990 C   0  0  0  0  0  0  0  0  0  0  0  0
    4.3882    2.8678   17.7659 C   0  0  0  0  0  0  0  0  0  0  0  0
    4.3492    3.5663   16.5791 C   0  0  0  0  0  0  0  0  0  0  0  0
    5.0609    4.6874   16.7788 N   0  0  0  0  0  0  0  0  0  0  0  0
    5.5531    4.7683   17.9910 N   0  0  0  0  0  0  0  0  0  0  0  0
    5.1553    3.6523   18.6363 C   0  0  0  0  0  0  0  0  0  0  0  0
    5.3221    3.1514   19.8675 N   0  0  0  0  0  0  0  0  0  0  0  0
    3.6523    3.1338   15.3650 C   0  0  0  0  0  0  0  0  0  0  0  0
    3.8346    3.7837   14.1631 C   0  0  0  0  0  0  0  0  0  0  0  0
    3.2083    3.4167   12.9933 C   0  0  0  0  0  0  0  0  0  0  0  0
    2.3470    2.3425   13.0025 C   0  0  0  0  0  0  0  0  0  0  0  0
    1.7291    1.9766   11.8587 F   0  0  0  0  0  0  0  0  0  0  0  0
    2.1524    1.6771   14.2055 C   0  0  0  0  0  0  0  0  0  0  0  0
    2.7867    2.0560   15.3698 C   0  0  0  0  0  0  0  0  0  0  0  0
    5.0407    1.5174   21.6356 N   0  0  0  0  0  0  0  0  0  0  0  0
    5.9061    0.9820   21.8205 H   0  0  0  0  0  0  0  0  0  0  0  0
    4.0743    1.7970   22.6719 C   0  0  0  0  0  0  0  0  0  0  0  0
    4.4885    2.9096   23.5737 C   0  0  0  0  0  0  0  0  0  0  0  0
    3.9745    5.0985   22.4462 C   0  0  0  0  0  0  0  0  0  0  0  0
    3.5829    4.1127   23.4930 C   0  0  0  0  0  0  0  0  0  0  0  0
    6.3684    5.8115   18.5929 C   0  0  0  0  0  0  0  0  0  0  0  0
    5.5492    6.7504   19.4412 C   0  0  0  0  0  0  0  0  0  0  0  0
    6.4335    7.2923   20.5427 C   0  0  0  0  0  0  0  0  0  0  0  0
    6.3409    8.8002   20.6596 C   0  0  0  0  0  0  0  0  0  0  0  0
    4.9014    9.1691   20.8227 C   0  0  0  0  0  0  0  0  0  0  0  0
    4.4389    8.5818   21.9981 O   0  0  0  0  0  0  0  0  0  0  0  0
    4.1471    8.7386   19.6045 C   0  0  0  0  0  0  0  0  0  0  0  0
    5.0015    7.9146   18.6549 C   0  0  0  0  0  0  0  0  0  0  0  0
    4.2389    7.6502   21.8056 H   0  0  0  0  0  0  0  0  0  0  0  0
 21 22  1  0  0  0
 22 20  1  0  0  0
 20 19  1  0  0  0
 19 17  1  0  0  0
 17  1  1  0  0  0
  1  2  2  0  0  0
  2  3  1  0  0  0
  3  4  2  0  0  0
  4  5  1  0  0  0
  5  6  2  0  0  0
  6  7  1  0  0  0
  7 23  1  0  0  0
 23 24  1  0  0  0
 24 25  1  0  0  0
 25 26  1  0  0  0
 26 27  1  0  0  0
 27 28  1  0  0  0
 27 29  1  0  0  0
 29 30  1  0  0  0
  7  8  1  0  0  0
  8  9  2  0  0  0
  5 10  1  0  0  0
 10 11  2  0  0  0
 11 12  1  0  0  0
 12 13  2  0  0  0
 13 14  1  0  0  0
 13 15  1  0  0  0
 15 16  2  0  0  0
  9  1  1  0  0  0
 16 10  1  0  0  0
  8  4  1  0  0  0
 30 24  1  0  0  0
 17 18  1  0  0  0
 28 31  1  0  0  0
M  END
> <minimizedAffinity>
-9.03476

> <CNNscore>
0.2422360331

> <CNNaffinity>
6.4536447525

> <CNN_VS>
1.5633052588

> <CNNaffinity_variance>
0.4160432220

$$$$
[H]O[C@]1([H])C([H])([H])C([H])([H])[C@@]([H])(N([H])c2nc(N([H])C([H])([H])C([H])([H])C([H])([H])C([H])([H])[H])nc([H])c2-c2nc([H])nc(N([H])c3c([H])c([H])c([H])c(C([H])(C([H])([H])[H])C([H])([H])[H])c3[H])c2[H])C([H])([H])C1([H])[H]


 39 42  0  0  0  0  0  0  0  0999 V2000
    2.9926    0.2122   18.7353 C   0  0  0  0  0  0  0  0  0  0  0  0
    2.3942   -0.2687   17.6210 N   0  0  0  0  0  0  0  0  0  0  0  0
    2.4002    0.4170   16.4771 C   0  0  0  0  0  0  0  0  0  0  0  0
    3.0192    1.6699   16.3460 C   0  0  0  0  0  0  0  0  0  0  0  0
    3.6274    2.1550   17.4780 C   0  0  0  0  0  0  0  0  0  0  0  0
    3.5783    1.3954   18.6130 N   0  0  0  0  0  0  0  0  0  0  0  0
    2.9979    2.3414   15.0580 C   0  0  0  0  0  0  0  0  0  0  0  0
    2.0730    1.9214   14.1079 C   0  0  0  0  0  0  0  0  0  0  0  0
    2.0342    2.5199   12.8460 C   0  0  0  0  0  0  0  0  0  0  0  0
    2.9313    3.4933   12.6436 N   0  0  0  0  0  0  0  0  0  0  0  0
    3.8169    3.8992   13.5446 C   0  0  0  0  0  0  0  0  0  0  0  0
    3.8512    3.3220   14.7555 N   0  0  0  0  0  0  0  0  0  0  0  0
    1.1353    2.0973   11.8578 N   0  0  0  0  0  0  0  0  0  0  0  0
    0.1666    2.5335   11.9027 H   0  0  0  0  0  0  0  0  0  0  0  0
    1.4497    1.1581   10.8511 C   0  0  0  0  0  0  0  0  0  0  0  0
    0.5560    0.3940   10.1661 C   0  0  0  0  0  0  0  0  0  0  0  0
    0.9280   -0.4929    9.1605 C   0  0  0  0  0  0  0  0  0  0  0  0
    2.2463   -0.6163    8.8330 C   0  0  0  0  0  0  0  0  0  0  0  0
    3.2039    0.1364    9.4983 C   0  0  0  0  0  0  0  0  0  0  0  0
    2.8013    0.9955   10.4779 C   0  0  0  0  0  0  0  0  0  0  0  0
    4.6324   -0.0316    9.1076 C   0  0  0  0  0  0  0  0  0  0  0  0
    5.1342    1.2436    8.4213 C   0  0  0  0  0  0  0  0  0  0  0  0
    4.8532   -1.2407    8.2422 C   0  0  0  0  0  0  0  0  0  0  0  0
    2.9673   -0.5232   19.9519 N   0  0  0  0  0  0  0  0  0  0  0  0
    2.3226   -1.3437   20.0236 H   0  0  0  0  0  0  0  0  0  0  0  0
    3.8057   -0.1518   21.0561 C   0  0  0  0  0  0  0  0  0  0  0  0
    3.1549    0.8404   21.9662 C   0  0  0  0  0  0  0  0  0  0  0  0
    5.4324    1.7625   21.6529 C   0  0  0  0  0  0  0  0  0  0  0  0
    4.1365    1.9217   22.4041 C   0  0  0  0  0  0  0  0  0  0  0  0
    4.3563    3.3724   17.5075 N   0  0  0  0  0  0  0  0  0  0  0  0
    4.8025    3.8241   16.7063 H   0  0  0  0  0  0  0  0  0  0  0  0
    4.4940    4.0231   18.8228 C   0  0  0  0  0  0  0  0  0  0  0  0
    5.7491    4.8819   18.8223 C   0  0  0  0  0  0  0  0  0  0  0  0
    5.6597    5.9382   19.8981 C   0  0  0  0  0  0  0  0  0  0  0  0
    4.6807    6.9818   19.3972 C   0  0  0  0  0  0  0  0  0  0  0  0
    4.1069    7.6573   20.4498 O   0  0  0  0  0  0  0  0  0  0  0  0
    3.6731    6.3327   18.4965 C   0  0  0  0  0  0  0  0  0  0  0  0
    3.2980    4.9331   19.0008 C   0  0  0  0  0  0  0  0  0  0  0  0
    3.8481    8.5783   20.1965 H   0  0  0  0  0  0  0  0  0  0  0  0
 28 29  1  0  0  0
 29 27  1  0  0  0
 27 26  1  0  0  0
 26 24  1  0  0  0
 24  1  1  0  0  0
  1  2  2  0  0  0
  2  3  1  0  0  0
  3  4  2  0  0  0
  4  5  1  0  0  0
  5 30  1  0  0  0
 30 32  1  0  0  0
 32 33  1  0  0  0
 33 34  1  0  0  0
 34 35  1  0  0  0
 35 36  1  0  0  0
 35 37  1  0  0  0
 37 38  1  0  0  0
  5  6  2  0  0  0
  4  7  1  0  0  0
  7  8  2  0  0  0
  8  9  1  0  0  0
  9 13  1  0  0  0
 13 15  1  0  0  0
 15 16  2  0  0  0
 16 17  1  0  0  0
 17 18  2  0  0  0
 18 19  1  0  0  0
 19 20  2  0  0  0
 19 21  1  0  0  0
 21 22  1  0  0  0
 21 23  1  0  0  0
  9 10  2  0  0  0
 10 11  1  0  0  0
 11 12  2  0  0  0
  6  1  1  0  0  0
 12  7  1  0  0  0
 38 32  1  0  0  0
 20 15  1  0  0  0
 24 25  1  0  0  0
 30 31  1  0  0  0
 36 39  1  0  0  0
 13 14  1  0  0  0
M  END
> <minimizedAffinity>
-8.28179

> <CNNscore>
0.9291853309

> <CNNaffinity>
7.7270874977

> <CNN_VS>
7.1798963547

> <CNNaffinity_variance>
0.0610425174

$$$$
[H]O[C@]1([H])C([H])([H])C([H])([H])[C@@]([H])(N([H])c2nc(N([H])C([H])([H])C([H])([H])C([H])([H])C([H])([H])[H])nc([H])c2-c2nc([H])nc(N([H])c3c([H])c([H])c([H])c(C([H])(C([H])([H])[H])C([H])([H])[H])c3[H])c2[H])C([H])([H])C1([H])[H]


 39 42  0  0  0  0  0  0  0  0999 V2000
    2.8776    0.2363   18.1502 C   0  0  0  0  0  0  0  0  0  0  0  0
    2.3739   -0.1703   16.9618 N   0  0  0  0  0  0  0  0  0  0  0  0
    2.3386    0.6438   15.9061 C   0  0  0  0  0  0  0  0  0  0  0  0
    2.8150    1.9634   15.9485 C   0  0  0  0  0  0  0  0  0  0  0  0
    3.3273    2.3731   17.1552 C   0  0  0  0  0  0  0  0  0  0  0  0
    3.3286    1.4825   18.1917 N   0  0  0  0  0  0  0  0  0  0  0  0
    2.7587    2.7779   14.7468 C   0  0  0  0  0  0  0  0  0  0  0  0
    1.5372    2.9136   14.0959 C   0  0  0  0  0  0  0  0  0  0  0  0
    1.4411    3.6649   12.9218 C   0  0  0  0  0  0  0  0  0  0  0  0
    2.5847    4.2184   12.4985 N   0  0  0  0  0  0  0  0  0  0  0  0
    3.7538    4.0932   13.1135 C   0  0  0  0  0  0  0  0  0  0  0  0
    3.8421    3.3708   14.2409 N   0  0  0  0  0  0  0  0  0  0  0  0
    0.2314    3.7938   12.2267 N   0  0  0  0  0  0  0  0  0  0  0  0
    0.0692    3.0822   11.4536 H   0  0  0  0  0  0  0  0  0  0  0  0
   -0.7362    4.7857   12.4991 C   0  0  0  0  0  0  0  0  0  0  0  0
   -0.5917    5.8239   13.3669 C   0  0  0  0  0  0  0  0  0  0  0  0
   -1.5738    6.7889   13.5678 C   0  0  0  0  0  0  0  0  0  0  0  0
   -2.7436    6.7060   12.8714 C   0  0  0  0  0  0  0  0  0  0  0  0
   -2.9488    5.6683   11.9729 C   0  0  0  0  0  0  0  0  0  0  0  0
   -1.9630    4.7416   11.8022 C   0  0  0  0  0  0  0  0  0  0  0  0
   -4.2424    5.6175   11.2346 C   0  0  0  0  0  0  0  0  0  0  0  0
   -4.8914    4.2418   11.4225 C   0  0  0  0  0  0  0  0  0  0  0  0
   -4.0864    5.9534    9.7777 C   0  0  0  0  0  0  0  0  0  0  0  0
    2.8971   -0.6376   19.2715 N   0  0  0  0  0  0  0  0  0  0  0  0
    3.0460   -1.6591   19.1032 H   0  0  0  0  0  0  0  0  0  0  0  0
    2.7183   -0.1332   20.6032 C   0  0  0  0  0  0  0  0  0  0  0  0
    3.9971   -0.0818   21.3769 C   0  0  0  0  0  0  0  0  0  0  0  0
    5.8936    1.4993   21.1784 C   0  0  0  0  0  0  0  0  0  0  0  0
    4.4549    1.3552   21.6008 C   0  0  0  0  0  0  0  0  0  0  0  0
    3.9117    3.6505   17.3578 N   0  0  0  0  0  0  0  0  0  0  0  0
    4.3038    4.2531   16.6310 H   0  0  0  0  0  0  0  0  0  0  0  0
    3.9728    4.1309   18.7500 C   0  0  0  0  0  0  0  0  0  0  0  0
    5.3877    4.6000   19.0510 C   0  0  0  0  0  0  0  0  0  0  0  0
    5.3841    5.5510   20.2245 C   0  0  0  0  0  0  0  0  0  0  0  0
    4.8227    6.8634   19.7139 C   0  0  0  0  0  0  0  0  0  0  0  0
    4.2643    7.5879   20.7420 O   0  0  0  0  0  0  0  0  0  0  0  0
    3.8621    6.5963   18.5942 C   0  0  0  0  0  0  0  0  0  0  0  0
    3.0465    5.3230   18.8544 C   0  0  0  0  0  0  0  0  0  0  0  0
    4.3076    8.5615   20.5697 H   0  0  0  0  0  0  0  0  0  0  0  0
 28 29  1  0  0  0
 29 27  1  0  0  0
 27 26  1  0  0  0
 26 24  1  0  0  0
 24  1  1  0  0  0
  1  2  2  0  0  0
  2  3  1  0  0  0
  3  4  2  0  0  0
  4  5  1  0  0  0
  5 30  1  0  0  0
 30 32  1  0  0  0
 32 33  1  0  0  0
 33 34  1  0  0  0
 34 35  1  0  0  0
 35 36  1  0  0  0
 35 37  1  0  0  0
 37 38  1  0  0  0
  5  6  2  0  0  0
  4  7  1  0  0  0
  7  8  2  0  0  0
  8  9  1  0  0  0
  9 13  1  0  0  0
 13 15  1  0  0  0
 15 16  2  0  0  0
 16 17  1  0  0  0
 17 18  2  0  0  0
 18 19  1  0  0  0
 19 20  2  0  0  0
 19 21  1  0  0  0
 21 22  1  0  0  0
 21 23  1  0  0  0
  9 10  2  0  0  0
 10 11  1  0  0  0
 11 12  2  0  0  0
  6  1  1  0  0  0
 12  7  1  0  0  0
 38 32  1  0  0  0
 20 15  1  0  0  0
 24 25  1  0  0  0
 30 31  1  0  0  0
 36 39  1  0  0  0
 13 14  1  0  0  0
M  END
> <minimizedAffinity>
-8.69081

> <CNNscore>
0.8842391968

> <CNNaffinity>
7.5582833290

> <CNN_VS>
6.6833305359

> <CNNaffinity_variance>
0.1248301715

$$$$
[H]O[C@]1([H])C([H])([H])C([H])([H])[C@@]([H])(N([H])c2nc(N([H])C([H])([H])C([H])([H])C([H])([H])C([H])([H])[H])nc([H])c2-c2nc([H])nc(N([H])c3c([H])c([H])c([H])c(C([H])(C([H])([H])[H])C([H])([H])[H])c3[H])c2[H])C([H])([H])C1([H])[H]


 39 42  0  0  0  0  0  0  0  0999 V2000
    2.9148    0.4077   18.0694 C   0  0  0  0  0  0  0  0  0  0  0  0
    2.3091    0.0452   16.9149 N   0  0  0  0  0  0  0  0  0  0  0  0
    2.2076    0.8897   15.8877 C   0  0  0  0  0  0  0  0  0  0  0  0
    2.7146    2.1979   15.9272 C   0  0  0  0  0  0  0  0  0  0  0  0
    3.3303    2.5628   17.0995 C   0  0  0  0  0  0  0  0  0  0  0  0
    3.3947    1.6431   18.1082 N   0  0  0  0  0  0  0  0  0  0  0  0
    2.5805    3.0473   14.7562 C   0  0  0  0  0  0  0  0  0  0  0  0
    3.1467    2.6196   13.5601 C   0  0  0  0  0  0  0  0  0  0  0  0
    3.0661    3.4161   12.4149 C   0  0  0  0  0  0  0  0  0  0  0  0
    2.4215    4.5798   12.5684 N   0  0  0  0  0  0  0  0  0  0  0  0
    1.8792    4.9949   13.7061 C   0  0  0  0  0  0  0  0  0  0  0  0
    1.9586    4.2272   14.8039 N   0  0  0  0  0  0  0  0  0  0  0  0
    3.6537    3.0266   11.2041 N   0  0  0  0  0  0  0  0  0  0  0  0
    4.4485    3.6440   10.8611 H   0  0  0  0  0  0  0  0  0  0  0  0
    3.2507    1.8992   10.4552 C   0  0  0  0  0  0  0  0  0  0  0  0
    4.0606    1.1208    9.6872 C   0  0  0  0  0  0  0  0  0  0  0  0
    3.6068    0.0013    8.9967 C   0  0  0  0  0  0  0  0  0  0  0  0
    2.2908   -0.3471    9.0810 C   0  0  0  0  0  0  0  0  0  0  0  0
    1.4164    0.4097    9.8483 C   0  0  0  0  0  0  0  0  0  0  0  0
    1.8978    1.4998   10.5113 C   0  0  0  0  0  0  0  0  0  0  0  0
   -0.0129   -0.0081    9.9108 C   0  0  0  0  0  0  0  0  0  0  0  0
   -0.1381   -1.4835    9.5156 C   0  0  0  0  0  0  0  0  0  0  0  0
   -0.9032    0.8609    9.0671 C   0  0  0  0  0  0  0  0  0  0  0  0
    3.0044   -0.4982   19.1616 N   0  0  0  0  0  0  0  0  0  0  0  0
    2.4808   -1.4016   19.1025 H   0  0  0  0  0  0  0  0  0  0  0  0
    3.7945   -0.1839   20.3179 C   0  0  0  0  0  0  0  0  0  0  0  0
    2.9931    0.4525   21.4084 C   0  0  0  0  0  0  0  0  0  0  0  0
    5.0813    1.7848   21.3952 C   0  0  0  0  0  0  0  0  0  0  0  0
    3.6860    1.6955   21.9557 C   0  0  0  0  0  0  0  0  0  0  0  0
    3.9567    3.8222   17.2888 N   0  0  0  0  0  0  0  0  0  0  0  0
    4.3042    4.4367   16.5494 H   0  0  0  0  0  0  0  0  0  0  0  0
    4.1367    4.2625   18.6839 C   0  0  0  0  0  0  0  0  0  0  0  0
    5.5099    4.8995   18.8297 C   0  0  0  0  0  0  0  0  0  0  0  0
    5.5400    5.8048   20.0383 C   0  0  0  0  0  0  0  0  0  0  0  0
    4.7603    7.0499   19.6638 C   0  0  0  0  0  0  0  0  0  0  0  0
    4.2537    7.6641   20.7861 O   0  0  0  0  0  0  0  0  0  0  0  0
    3.7040    6.6970   18.6599 C   0  0  0  0  0  0  0  0  0  0  0  0
    3.0918    5.3222   18.9584 C   0  0  0  0  0  0  0  0  0  0  0  0
    4.1543    8.6402   20.6561 H   0  0  0  0  0  0  0  0  0  0  0  0
 28 29  1  0  0  0
 29 27  1  0  0  0
 27 26  1  0  0  0
 26 24  1  0  0  0
 24  1  1  0  0  0
  1  2  2  0  0  0
  2  3  1  0  0  0
  3  4  2  0  0  0
  4  5  1  0  0  0
  5 30  1  0  0  0
 30 32  1  0  0  0
 32 33  1  0  0  0
 33 34  1  0  0  0
 34 35  1  0  0  0
 35 36  1  0  0  0
 35 37  1  0  0  0
 37 38  1  0  0  0
  5  6  2  0  0  0
  4  7  1  0  0  0
  7  8  2  0  0  0
  8  9  1  0  0  0
  9 13  1  0  0  0
 13 15  1  0  0  0
 15 16  2  0  0  0
 16 17  1  0  0  0
 17 18  2  0  0  0
 18 19  1  0  0  0
 19 20  2  0  0  0
 19 21  1  0  0  0
 21 22  1  0  0  0
 21 23  1  0  0  0
  9 10  2  0  0  0
 10 11  1  0  0  0
 11 12  2  0  0  0
  6  1  1  0  0  0
 12  7  1  0  0  0
 38 32  1  0  0  0
 20 15  1  0  0  0
 24 25  1  0  0  0
 30 31  1  0  0  0
 36 39  1  0  0  0
 13 14  1  0  0  0
M  END
> <minimizedAffinity>
-7.35109

> <CNNscore>
0.6427670717

> <CNNaffinity>
7.3300743103

> <CNN_VS>
4.7115302086

> <CNNaffinity_variance>
0.0930364132

$$$$
[H]O[C@]1([H])C([H])([H])C([H])([H])[C@@]([H])(N([H])c2nc(N([H])C([H])([H])C([H])([H])C([H])([H])C([H])([H])[H])nc([H])c2-c2nc([H])nc(N([H])c3c([H])c([H])c([H])c(C([H])(C([H])([H])[H])C([H])([H])[H])c3[H])c2[H])C([H])([H])C1([H])[H]


 39 42  0  0  0  0  0  0  0  0999 V2000
    3.7199    1.0081   19.4307 C   0  0  0  0  0  0  0  0  0  0  0  0
    3.1430    0.5852   18.2819 N   0  0  0  0  0  0  0  0  0  0  0  0
    3.1308    1.3479   17.1879 C   0  0  0  0  0  0  0  0  0  0  0  0
    3.7074    2.6269   17.1473 C   0  0  0  0  0  0  0  0  0  0  0  0
    4.2937    3.0531   18.3140 C   0  0  0  0  0  0  0  0  0  0  0  0
    4.2655    2.2159   19.3938 N   0  0  0  0  0  0  0  0  0  0  0  0
    3.6688    3.3845   15.9083 C   0  0  0  0  0  0  0  0  0  0  0  0
    3.4884    4.7617   15.9800 C   0  0  0  0  0  0  0  0  0  0  0  0
    3.4178    5.5272   14.8133 C   0  0  0  0  0  0  0  0  0  0  0  0
    3.5344    4.8424   13.6685 N   0  0  0  0  0  0  0  0  0  0  0  0
    3.7063    3.5289   13.5919 C   0  0  0  0  0  0  0  0  0  0  0  0
    3.7736    2.7969   14.7146 N   0  0  0  0  0  0  0  0  0  0  0  0
    3.2052    6.9116   14.8526 N   0  0  0  0  0  0  0  0  0  0  0  0
    2.3165    7.2522   14.3786 H   0  0  0  0  0  0  0  0  0  0  0  0
    4.0839    7.8302   15.4677 C   0  0  0  0  0  0  0  0  0  0  0  0
    5.2816    8.2432   14.9711 C   0  0  0  0  0  0  0  0  0  0  0  0
    6.0888    9.1777   15.6125 C   0  0  0  0  0  0  0  0  0  0  0  0
    5.6768    9.7153   16.7963 C   0  0  0  0  0  0  0  0  0  0  0  0
    4.4645    9.3315   17.3526 C   0  0  0  0  0  0  0  0  0  0  0  0
    3.7002    8.4135   16.6946 C   0  0  0  0  0  0  0  0  0  0  0  0
    4.0550    9.9447   18.6478 C   0  0  0  0  0  0  0  0  0  0  0  0
    2.7815   10.7737   18.4477 C   0  0  0  0  0  0  0  0  0  0  0  0
    5.1506   10.7673   19.2662 C   0  0  0  0  0  0  0  0  0  0  0  0
    3.7142    0.1903   20.5937 N   0  0  0  0  0  0  0  0  0  0  0  0
    3.1318   -0.6785   20.5878 H   0  0  0  0  0  0  0  0  0  0  0  0
    4.4889    0.5449   21.7487 C   0  0  0  0  0  0  0  0  0  0  0  0
    3.6825    1.2572   22.7874 C   0  0  0  0  0  0  0  0  0  0  0  0
    5.6955    2.6894   22.9679 C   0  0  0  0  0  0  0  0  0  0  0  0
    4.1898    2.6780   23.0083 C   0  0  0  0  0  0  0  0  0  0  0  0
    4.9807    4.2894   18.4319 N   0  0  0  0  0  0  0  0  0  0  0  0
    5.2993    4.8750   17.6570 H   0  0  0  0  0  0  0  0  0  0  0  0
    5.2749    4.7486   19.8012 C   0  0  0  0  0  0  0  0  0  0  0  0
    6.3315    5.8408   19.7417 C   0  0  0  0  0  0  0  0  0  0  0  0
    6.2859    6.6806   20.9963 C   0  0  0  0  0  0  0  0  0  0  0  0
    5.0562    7.5598   20.8819 C   0  0  0  0  0  0  0  0  0  0  0  0
    4.6065    7.9339   22.1275 O   0  0  0  0  0  0  0  0  0  0  0  0
    4.0118    6.8579   20.0667 C   0  0  0  0  0  0  0  0  0  0  0  0
    4.0022    5.3511   20.3557 C   0  0  0  0  0  0  0  0  0  0  0  0
    4.1429    8.8080   22.1023 H   0  0  0  0  0  0  0  0  0  0  0  0
 28 29  1  0  0  0
 29 27  1  0  0  0
 27 26  1  0  0  0
 26 24  1  0  0  0
 24  1  1  0  0  0
  1  2  2  0  0  0
  2  3  1  0  0  0
  3  4  2  0  0  0
  4  5  1  0  0  0
  5 30  1  0  0  0
 30 32  1  0  0  0
 32 33  1  0  0  0
 33 34  1  0  0  0
 34 35  1  0  0  0
 35 36  1  0  0  0
 35 37  1  0  0  0
 37 38  1  0  0  0
  5  6  2  0  0  0
  4  7  1  0  0  0
  7  8  2  0  0  0
  8  9  1  0  0  0
  9 13  1  0  0  0
 13 15  1  0  0  0
 15 16  2  0  0  0
 16 17  1  0  0  0
 17 18  2  0  0  0
 18 19  1  0  0  0
 19 20  2  0  0  0
 19 21  1  0  0  0
 21 22  1  0  0  0
 21 23  1  0  0  0
  9 10  2  0  0  0
 10 11  1  0  0  0
 11 12  2  0  0  0
  6  1  1  0  0  0
 12  7  1  0  0  0
 38 32  1  0  0  0
 20 15  1  0  0  0
 24 25  1  0  0  0
 30 31  1  0  0  0
 36 39  1  0  0  0
 13 14  1  0  0  0
M  END
> <minimizedAffinity>
-7.75510

> <CNNscore>
0.3897185624

> <CNNaffinity>
7.2041382790

> <CNN_VS>
2.8075864315

> <CNNaffinity_variance>
0.6095045209

$$$$
[H]O[C@]1([H])C([H])([H])C([H])([H])[C@@]([H])(N([H])c2nc(N([H])C([H])([H])C([H])([H])C([H])([H])C([H])([H])[H])nc([H])c2-c2nc([H])nc(N([H])c3c([H])c([H])c([H])c(C([H])(C([H])([H])[H])C([H])([H])[H])c3[H])c2[H])C([H])([H])C1([H])[H]


 39 42  0  0  0  0  0  0  0  0999 V2000
    3.8791    1.7433   17.7606 C   0  0  0  0  0  0  0  0  0  0  0  0
    3.2206    1.0248   16.8217 N   0  0  0  0  0  0  0  0  0  0  0  0
    3.0181    1.5046   15.5940 C   0  0  0  0  0  0  0  0  0  0  0  0
    3.4669    2.7717   15.1902 C   0  0  0  0  0  0  0  0  0  0  0  0
    4.1364    3.4983   16.1444 C   0  0  0  0  0  0  0  0  0  0  0  0
    4.3042    2.9404   17.3806 N   0  0  0  0  0  0  0  0  0  0  0  0
    3.2228    3.2106   13.8270 C   0  0  0  0  0  0  0  0  0  0  0  0
    1.9861    2.9339   13.2540 C   0  0  0  0  0  0  0  0  0  0  0  0
    1.7165    3.3129   11.9365 C   0  0  0  0  0  0  0  0  0  0  0  0
    2.7157    3.9400   11.3029 N   0  0  0  0  0  0  0  0  0  0  0  0
    3.8982    4.2071   11.8424 C   0  0  0  0  0  0  0  0  0  0  0  0
    4.1536    3.8415   13.1080 N   0  0  0  0  0  0  0  0  0  0  0  0
    0.4919    3.0202   11.3218 N   0  0  0  0  0  0  0  0  0  0  0  0
    0.4004    2.0367   10.9281 H   0  0  0  0  0  0  0  0  0  0  0  0
   -0.5763    3.9370   11.2091 C   0  0  0  0  0  0  0  0  0  0  0  0
   -1.5559    3.9080   10.2650 C   0  0  0  0  0  0  0  0  0  0  0  0
   -2.6020    4.8249   10.2268 C   0  0  0  0  0  0  0  0  0  0  0  0
   -2.6641    5.8066   11.1716 C   0  0  0  0  0  0  0  0  0  0  0  0
   -1.6922    5.8873   12.1591 C   0  0  0  0  0  0  0  0  0  0  0  0
   -0.6825    4.9707   12.1646 C   0  0  0  0  0  0  0  0  0  0  0  0
   -1.8002    6.9768   13.1703 C   0  0  0  0  0  0  0  0  0  0  0  0
   -0.7774    6.7477   14.2885 C   0  0  0  0  0  0  0  0  0  0  0  0
   -3.1917    7.1129   13.7223 C   0  0  0  0  0  0  0  0  0  0  0  0
    4.0765    1.2253   19.0698 N   0  0  0  0  0  0  0  0  0  0  0  0
    4.9082    1.5517   19.6135 H   0  0  0  0  0  0  0  0  0  0  0  0
    3.1579    0.2783   19.6348 C   0  0  0  0  0  0  0  0  0  0  0  0
    3.5716   -0.1855   20.9951 C   0  0  0  0  0  0  0  0  0  0  0  0
    4.1690    1.6013   22.6033 C   0  0  0  0  0  0  0  0  0  0  0  0
    3.0453    0.7432   22.0838 C   0  0  0  0  0  0  0  0  0  0  0  0
    4.7158    4.7685   15.8891 N   0  0  0  0  0  0  0  0  0  0  0  0
    5.5696    4.9420   15.3545 H   0  0  0  0  0  0  0  0  0  0  0  0
    4.0261    5.9334   16.4721 C   0  0  0  0  0  0  0  0  0  0  0  0
    5.0163    7.0799   16.6064 C   0  0  0  0  0  0  0  0  0  0  0  0
    4.2820    8.3970   16.6910 C   0  0  0  0  0  0  0  0  0  0  0  0
    3.7822    8.7025   15.2927 C   0  0  0  0  0  0  0  0  0  0  0  0
    2.6806    9.5260   15.3375 O   0  0  0  0  0  0  0  0  0  0  0  0
    3.5273    7.4197   14.5598 C   0  0  0  0  0  0  0  0  0  0  0  0
    2.9477    6.3513   15.4961 C   0  0  0  0  0  0  0  0  0  0  0  0
    2.6104   10.0884   14.5261 H   0  0  0  0  0  0  0  0  0  0  0  0
 28 29  1  0  0  0
 29 27  1  0  0  0
 27 26  1  0  0  0
 26 24  1  0  0  0
 24  1  1  0  0  0
  1  2  2  0  0  0
  2  3  1  0  0  0
  3  4  2  0  0  0
  4  5  1  0  0  0
  5 30  1  0  0  0
 30 32  1  0  0  0
 32 33  1  0  0  0
 33 34  1  0  0  0
 34 35  1  0  0  0
 35 36  1  0  0  0
 35 37  1  0  0  0
 37 38  1  0  0  0
  5  6  2  0  0  0
  4  7  1  0  0  0
  7  8  2  0  0  0
  8  9  1  0  0  0
  9 13  1  0  0  0
 13 15  1  0  0  0
 15 16  2  0  0  0
 16 17  1  0  0  0
 17 18  2  0  0  0
 18 19  1  0  0  0
 19 20  2  0  0  0
 19 21  1  0  0  0
 21 22  1  0  0  0
 21 23  1  0  0  0
  9 10  2  0  0  0
 10 11  1  0  0  0
 11 12  2  0  0  0
  6  1  1  0  0  0
 12  7  1  0  0  0
 38 32  1  0  0  0
 20 15  1  0  0  0
 24 25  1  0  0  0
 30 31  1  0  0  0
 36 39  1  0  0  0
 13 14  1  0  0  0
M  END
> <minimizedAffinity>
-7.70182

> <CNNscore>
0.2730732858

> <CNNaffinity>
6.7937073708

> <CNN_VS>
1.8551800251

> <CNNaffinity_variance>
0.1840422004

$$$$
[H]O[C@]1([H])C([H])([H])C([H])([H])[C@@]([H])(N([H])c2nc(N([H])C([H])([H])C([H])([H])C([H])([H])C([H])([H])[H])nc([H])c2-c2nc([H])nc(N([H])c3c([H])c([H])c([H])c(C([H])(C([H])([H])[H])C([H])([H])[H])c3[H])c2[H])C([H])([H])C1([H])[H]


 39 42  0  0  0  0  0  0  0  0999 V2000
    4.0877    1.3998   19.1772 C   0  0  0  0  0  0  0  0  0  0  0  0
    3.5445    0.8119   18.0860 N   0  0  0  0  0  0  0  0  0  0  0  0
    3.1743    1.5265   17.0226 C   0  0  0  0  0  0  0  0  0  0  0  0
    3.3191    2.9211   16.9570 C   0  0  0  0  0  0  0  0  0  0  0  0
    3.8722    3.5152   18.0650 C   0  0  0  0  0  0  0  0  0  0  0  0
    4.2256    2.7171   19.1166 N   0  0  0  0  0  0  0  0  0  0  0  0
    2.9093    3.6218   15.7521 C   0  0  0  0  0  0  0  0  0  0  0  0
    3.2839    3.0954   14.5205 C   0  0  0  0  0  0  0  0  0  0  0  0
    2.9355    3.7498   13.3363 C   0  0  0  0  0  0  0  0  0  0  0  0
    2.2378    4.8825   13.4894 N   0  0  0  0  0  0  0  0  0  0  0  0
    1.8772    5.3913   14.6606 C   0  0  0  0  0  0  0  0  0  0  0  0
    2.2136    4.7599   15.7959 N   0  0  0  0  0  0  0  0  0  0  0  0
    3.3254    3.2608   12.0824 N   0  0  0  0  0  0  0  0  0  0  0  0
    4.2518    3.6307   11.7143 H   0  0  0  0  0  0  0  0  0  0  0  0
    2.5716    2.3393   11.3228 C   0  0  0  0  0  0  0  0  0  0  0  0
    1.2210    2.3579   11.1578 C   0  0  0  0  0  0  0  0  0  0  0  0
    0.5391    1.4370   10.3684 C   0  0  0  0  0  0  0  0  0  0  0  0
    1.2409    0.4619    9.7228 C   0  0  0  0  0  0  0  0  0  0  0  0
    2.6207    0.3918    9.8544 C   0  0  0  0  0  0  0  0  0  0  0  0
    3.2544    1.3122   10.6362 C   0  0  0  0  0  0  0  0  0  0  0  0
    3.3461   -0.6908    9.1312 C   0  0  0  0  0  0  0  0  0  0  0  0
    4.7118   -0.9252    9.7862 C   0  0  0  0  0  0  0  0  0  0  0  0
    3.4866   -0.4064    7.6619 C   0  0  0  0  0  0  0  0  0  0  0  0
    4.4658    0.6276   20.3095 N   0  0  0  0  0  0  0  0  0  0  0  0
    5.4545    0.2931   20.3755 H   0  0  0  0  0  0  0  0  0  0  0  0
    3.5163    0.3143   21.3393 C   0  0  0  0  0  0  0  0  0  0  0  0
    3.4424    1.3700   22.3960 C   0  0  0  0  0  0  0  0  0  0  0  0
    5.0781    2.0956   24.1088 C   0  0  0  0  0  0  0  0  0  0  0  0
    4.8018    2.0196   22.6300 C   0  0  0  0  0  0  0  0  0  0  0  0
    4.1521    4.9043   18.1436 N   0  0  0  0  0  0  0  0  0  0  0  0
    4.6354    5.4600   17.4346 H   0  0  0  0  0  0  0  0  0  0  0  0
    3.7213    5.5920   19.3741 C   0  0  0  0  0  0  0  0  0  0  0  0
    4.8282    5.4910   20.4120 C   0  0  0  0  0  0  0  0  0  0  0  0
    4.6730    6.5786   21.4485 C   0  0  0  0  0  0  0  0  0  0  0  0
    5.1111    7.8704   20.7869 C   0  0  0  0  0  0  0  0  0  0  0  0
    4.5161    8.9541   21.3912 O   0  0  0  0  0  0  0  0  0  0  0  0
    4.8397    7.7966   19.3142 C   0  0  0  0  0  0  0  0  0  0  0  0
    3.5288    7.0526   19.0280 C   0  0  0  0  0  0  0  0  0  0  0  0
    5.0772    9.7663   21.3210 H   0  0  0  0  0  0  0  0  0  0  0  0
 28 29  1  0  0  0
 29 27  1  0  0  0
 27 26  1  0  0  0
 26 24  1  0  0  0
 24  1  1  0  0  0
  1  2  2  0  0  0
  2  3  1  0  0  0
  3  4  2  0  0  0
  4  5  1  0  0  0
  5 30  1  0  0  0
 30 32  1  0  0  0
 32 33  1  0  0  0
 33 34  1  0  0  0
 34 35  1  0  0  0
 35 36  1  0  0  0
 35 37  1  0  0  0
 37 38  1  0  0  0
  5  6  2  0  0  0
  4  7  1  0  0  0
  7  8  2  0  0  0
  8  9  1  0  0  0
  9 13  1  0  0  0
 13 15  1  0  0  0
 15 16  2  0  0  0
 16 17  1  0  0  0
 17 18  2  0  0  0
 18 19  1  0  0  0
 19 20  2  0  0  0
 19 21  1  0  0  0
 21 22  1  0  0  0
 21 23  1  0  0  0
  9 10  2  0  0  0
 10 11  1  0  0  0
 11 12  2  0  0  0
  6  1  1  0  0  0
 12  7  1  0  0  0
 38 32  1  0  0  0
 20 15  1  0  0  0
 24 25  1  0  0  0
 30 31  1  0  0  0
 36 39  1  0  0  0
 13 14  1  0  0  0
M  END
> <minimizedAffinity>
-7.95055

> <CNNscore>
0.2699877322

> <CNNaffinity>
7.2033720016

> <CNN_VS>
1.9448220730

> <CNNaffinity_variance>
0.8308953047

$$$$
[H]O[C@]1([H])C([H])([H])C([H])([H])[C@@]([H])(N([H])c2nc(N([H])C([H])([H])C([H])([H])C([H])([H])C([H])([H])[H])nc([H])c2-c2nc([H])nc(N([H])c3c([H])c([H])c([H])c(C([H])(C([H])([H])[H])C([H])([H])[H])c3[H])c2[H])C([H])([H])C1([H])[H]


 39 42  0  0  0  0  0  0  0  0999 V2000
    3.9216    0.9005   19.9509 C   0  0  0  0  0  0  0  0  0  0  0  0
    3.1213    0.2542   19.0717 N   0  0  0  0  0  0  0  0  0  0  0  0
    2.9590    0.6961   17.8239 C   0  0  0  0  0  0  0  0  0  0  0  0
    3.5975    1.8473   17.3369 C   0  0  0  0  0  0  0  0  0  0  0  0
    4.4106    2.5005   18.2307 C   0  0  0  0  0  0  0  0  0  0  0  0
    4.5260    1.9879   19.4922 N   0  0  0  0  0  0  0  0  0  0  0  0
    3.3828    2.2488   15.9573 C   0  0  0  0  0  0  0  0  0  0  0  0
    3.9574    3.4362   15.5166 C   0  0  0  0  0  0  0  0  0  0  0  0
    3.7554    3.8756   14.2057 C   0  0  0  0  0  0  0  0  0  0  0  0
    2.9900    3.0825   13.4452 N   0  0  0  0  0  0  0  0  0  0  0  0
    2.4381    1.9488   13.8584 C   0  0  0  0  0  0  0  0  0  0  0  0
    2.6343    1.5300   15.1181 N   0  0  0  0  0  0  0  0  0  0  0  0
    4.2949    5.0828   13.7422 N   0  0  0  0  0  0  0  0  0  0  0  0
    5.2745    5.0198   13.3334 H   0  0  0  0  0  0  0  0  0  0  0  0
    3.6210    6.3227   13.7943 C   0  0  0  0  0  0  0  0  0  0  0  0
    2.3898    6.5836   13.2766 C   0  0  0  0  0  0  0  0  0  0  0  0
    1.7650    7.8218   13.3890 C   0  0  0  0  0  0  0  0  0  0  0  0
    2.4019    8.8340   14.0447 C   0  0  0  0  0  0  0  0  0  0  0  0
    3.6602    8.6276   14.5926 C   0  0  0  0  0  0  0  0  0  0  0  0
    4.2408    7.4004   14.4629 C   0  0  0  0  0  0  0  0  0  0  0  0
    4.3186    9.7624   15.2998 C   0  0  0  0  0  0  0  0  0  0  0  0
    5.6832    9.3158   15.8358 C   0  0  0  0  0  0  0  0  0  0  0  0
    3.4612   10.3321   16.3952 C   0  0  0  0  0  0  0  0  0  0  0  0
    4.0754    0.4260   21.2823 N   0  0  0  0  0  0  0  0  0  0  0  0
    4.6406   -0.4399   21.4393 H   0  0  0  0  0  0  0  0  0  0  0  0
    3.4721    1.1170   22.3861 C   0  0  0  0  0  0  0  0  0  0  0  0
    4.3777    2.1434   22.9884 C   0  0  0  0  0  0  0  0  0  0  0  0
    4.6811    4.5901   22.7488 C   0  0  0  0  0  0  0  0  0  0  0  0
    3.6936    3.5028   23.0827 C   0  0  0  0  0  0  0  0  0  0  0  0
    5.1834    3.6406   17.8884 N   0  0  0  0  0  0  0  0  0  0  0  0
    5.7398    3.7552   17.0385 H   0  0  0  0  0  0  0  0  0  0  0  0
    5.1941    4.7437   18.8660 C   0  0  0  0  0  0  0  0  0  0  0  0
    5.8628    5.9565   18.2378 C   0  0  0  0  0  0  0  0  0  0  0  0
    5.4449    7.2157   18.9596 C   0  0  0  0  0  0  0  0  0  0  0  0
    4.0198    7.5055   18.5310 C   0  0  0  0  0  0  0  0  0  0  0  0
    3.3640    8.2464   19.4874 O   0  0  0  0  0  0  0  0  0  0  0  0
    3.3229    6.2188   18.2046 C   0  0  0  0  0  0  0  0  0  0  0  0
    3.7522    5.0972   19.1595 C   0  0  0  0  0  0  0  0  0  0  0  0
    2.6577    8.8144   19.0899 H   0  0  0  0  0  0  0  0  0  0  0  0
 28 29  1  0  0  0
 29 27  1  0  0  0
 27 26  1  0  0  0
 26 24  1  0  0  0
 24  1  1  0  0  0
  1  2  2  0  0  0
  2  3  1  0  0  0
  3  4  2  0  0  0
  4  5  1  0  0  0
  5 30  1  0  0  0
 30 32  1  0  0  0
 32 33  1  0  0  0
 33 34  1  0  0  0
 34 35  1  0  0  0
 35 36  1  0  0  0
 35 37  1  0  0  0
 37 38  1  0  0  0
  5  6  2  0  0  0
  4  7  1  0  0  0
  7  8  2  0  0  0
  8  9  1  0  0  0
  9 13  1  0  0  0
 13 15  1  0  0  0
 15 16  2  0  0  0
 16 17  1  0  0  0
 17 18  2  0  0  0
 18 19  1  0  0  0
 19 20  2  0  0  0
 19 21  1  0  0  0
 21 22  1  0  0  0
 21 23  1  0  0  0
  9 10  2  0  0  0
 10 11  1  0  0  0
 11 12  2  0  0  0
  6  1  1  0  0  0
 12  7  1  0  0  0
 38 32  1  0  0  0
 20 15  1  0  0  0
 24 25  1  0  0  0
 30 31  1  0  0  0
 36 39  1  0  0  0
 13 14  1  0  0  0
M  END
> <minimizedAffinity>
-8.33068

> <CNNscore>
0.2416599542

> <CNNaffinity>
6.9419388771

> <CNN_VS>
1.6775885820

> <CNNaffinity_variance>
0.4738577008

$$$$
[H]O[C@]1([H])C([H])([H])C([H])([H])[C@@]([H])(N([H])c2nc(N([H])C([H])([H])C([H])([H])C([H])([H])C([H])([H])[H])nc([H])c2-c2nc([H])nc(N([H])c3c([H])c([H])c([H])c(C([H])(C([H])([H])[H])C([H])([H])[H])c3[H])c2[H])C([H])([H])C1([H])[H]


 39 42  0  0  0  0  0  0  0  0999 V2000
    3.9279    0.9940   20.2999 C   0  0  0  0  0  0  0  0  0  0  0  0
    3.2191    0.3266   19.3600 N   0  0  0  0  0  0  0  0  0  0  0  0
    3.1248    0.7784   18.1088 C   0  0  0  0  0  0  0  0  0  0  0  0
    3.7451    1.9623   17.6801 C   0  0  0  0  0  0  0  0  0  0  0  0
    4.4652    2.6369   18.6355 C   0  0  0  0  0  0  0  0  0  0  0  0
    4.5149    2.1123   19.8964 N   0  0  0  0  0  0  0  0  0  0  0  0
    3.6094    2.3733   16.2933 C   0  0  0  0  0  0  0  0  0  0  0  0
    3.8007    3.7145   15.9788 C   0  0  0  0  0  0  0  0  0  0  0  0
    3.6539    4.1601   14.6628 C   0  0  0  0  0  0  0  0  0  0  0  0
    3.3256    3.2176   13.7701 N   0  0  0  0  0  0  0  0  0  0  0  0
    3.1409    1.9364   14.0623 C   0  0  0  0  0  0  0  0  0  0  0  0
    3.2828    1.5121   15.3274 N   0  0  0  0  0  0  0  0  0  0  0  0
    3.8092    5.5099   14.3206 N   0  0  0  0  0  0  0  0  0  0  0  0
    4.7470    5.9419   14.5743 H   0  0  0  0  0  0  0  0  0  0  0  0
    2.8156    6.2840   13.6820 C   0  0  0  0  0  0  0  0  0  0  0  0
    3.0290    7.4183   12.9611 C   0  0  0  0  0  0  0  0  0  0  0  0
    2.0076    8.1199   12.3281 C   0  0  0  0  0  0  0  0  0  0  0  0
    0.7255    7.6647   12.4246 C   0  0  0  0  0  0  0  0  0  0  0  0
    0.4463    6.5135   13.1478 C   0  0  0  0  0  0  0  0  0  0  0  0
    1.4735    5.8524   13.7540 C   0  0  0  0  0  0  0  0  0  0  0  0
   -0.9692    6.0536   13.2266 C   0  0  0  0  0  0  0  0  0  0  0  0
   -1.5675    5.9779   11.8176 C   0  0  0  0  0  0  0  0  0  0  0  0
   -1.8049    6.9177   14.1291 C   0  0  0  0  0  0  0  0  0  0  0  0
    4.0093    0.5081   21.6336 N   0  0  0  0  0  0  0  0  0  0  0  0
    4.4429   -0.4299   21.7954 H   0  0  0  0  0  0  0  0  0  0  0  0
    3.5109    1.2841   22.7333 C   0  0  0  0  0  0  0  0  0  0  0  0
    4.6038    1.8342   23.5932 C   0  0  0  0  0  0  0  0  0  0  0  0
    3.5613    4.0660   23.3333 C   0  0  0  0  0  0  0  0  0  0  0  0
    4.8614    3.3065   23.2922 C   0  0  0  0  0  0  0  0  0  0  0  0
    5.2098    3.8134   18.3605 N   0  0  0  0  0  0  0  0  0  0  0  0
    5.8220    3.9616   17.5552 H   0  0  0  0  0  0  0  0  0  0  0  0
    5.0991    4.9052   19.3445 C   0  0  0  0  0  0  0  0  0  0  0  0
    5.9570    6.0744   18.8867 C   0  0  0  0  0  0  0  0  0  0  0  0
    5.4880    7.3533   19.5390 C   0  0  0  0  0  0  0  0  0  0  0  0
    4.1982    7.7436   18.8444 C   0  0  0  0  0  0  0  0  0  0  0  0
    3.4160    8.5199   19.6685 O   0  0  0  0  0  0  0  0  0  0  0  0
    3.4968    6.5104   18.3594 C   0  0  0  0  0  0  0  0  0  0  0  0
    3.6540    5.3544   19.3558 C   0  0  0  0  0  0  0  0  0  0  0  0
    2.8412    9.1383   19.1520 H   0  0  0  0  0  0  0  0  0  0  0  0
 28 29  1  0  0  0
 29 27  1  0  0  0
 27 26  1  0  0  0
 26 24  1  0  0  0
 24  1  1  0  0  0
  1  2  2  0  0  0
  2  3  1  0  0  0
  3  4  2  0  0  0
  4  5  1  0  0  0
  5 30  1  0  0  0
 30 32  1  0  0  0
 32 33  1  0  0  0
 33 34  1  0  0  0
 34 35  1  0  0  0
 35 36  1  0  0  0
 35 37  1  0  0  0
 37 38  1  0  0  0
  5  6  2  0  0  0
  4  7  1  0  0  0
  7  8  2  0  0  0
  8  9  1  0  0  0
  9 13  1  0  0  0
 13 15  1  0  0  0
 15 16  2  0  0  0
 16 17  1  0  0  0
 17 18  2  0  0  0
 18 19  1  0  0  0
 19 20  2  0  0  0
 19 21  1  0  0  0
 21 22  1  0  0  0
 21 23  1  0  0  0
  9 10  2  0  0  0
 10 11  1  0  0  0
 11 12  2  0  0  0
  6  1  1  0  0  0
 12  7  1  0  0  0
 38 32  1  0  0  0
 20 15  1  0  0  0
 24 25  1  0  0  0
 30 31  1  0  0  0
 36 39  1  0  0  0
 13 14  1  0  0  0
M  END
> <minimizedAffinity>
-8.80000

> <CNNscore>
0.2415241003

> <CNNaffinity>
6.8873763084

> <CNN_VS>
1.6634674072

> <CNNaffinity_variance>
0.4382937551

$$$$
[H]O[C@]1([H])C([H])([H])C([H])([H])[C@@]([H])(N([H])c2nc(N([H])C([H])([H])C([H])([H])C([H])([H])C([H])([H])[H])nc([H])c2-c2nc([H])nc(N([H])c3c([H])c([H])c([H])c(C([H])(C([H])([H])[H])C([H])([H])[H])c3[H])c2[H])C([H])([H])C1([H])[H]


 39 42  0  0  0  0  0  0  0  0999 V2000
    3.9841    1.5408   18.5015 C   0  0  0  0  0  0  0  0  0  0  0  0
    3.3238    1.0828   17.4127 N   0  0  0  0  0  0  0  0  0  0  0  0
    3.0542    1.8785   16.3770 C   0  0  0  0  0  0  0  0  0  0  0  0
    3.4303    3.2302   16.3397 C   0  0  0  0  0  0  0  0  0  0  0  0
    4.1019    3.6922   17.4452 C   0  0  0  0  0  0  0  0  0  0  0  0
    4.3407    2.8174   18.4676 N   0  0  0  0  0  0  0  0  0  0  0  0
    3.1159    4.0228   15.1635 C   0  0  0  0  0  0  0  0  0  0  0  0
    3.4854    3.5312   13.9160 C   0  0  0  0  0  0  0  0  0  0  0  0
    3.2278    4.2716   12.7595 C   0  0  0  0  0  0  0  0  0  0  0  0
    2.6188    5.4483   12.9541 N   0  0  0  0  0  0  0  0  0  0  0  0
    2.2637    5.9243   14.1407 C   0  0  0  0  0  0  0  0  0  0  0  0
    2.5128    5.2103   15.2493 N   0  0  0  0  0  0  0  0  0  0  0  0
    3.6162    3.8173   11.4923 N   0  0  0  0  0  0  0  0  0  0  0  0
    2.9693    3.1025   11.0438 H   0  0  0  0  0  0  0  0  0  0  0  0
    4.7791    4.2504   10.8182 C   0  0  0  0  0  0  0  0  0  0  0  0
    5.3691    5.4696   10.9487 C   0  0  0  0  0  0  0  0  0  0  0  0
    6.5355    5.8251   10.2783 C   0  0  0  0  0  0  0  0  0  0  0  0
    7.1291    4.9221    9.4462 C   0  0  0  0  0  0  0  0  0  0  0  0
    6.5724    3.6626    9.2722 C   0  0  0  0  0  0  0  0  0  0  0  0
    5.4289    3.3501    9.9464 C   0  0  0  0  0  0  0  0  0  0  0  0
    7.2549    2.7086    8.3529 C   0  0  0  0  0  0  0  0  0  0  0  0
    7.0412    3.1477    6.9002 C   0  0  0  0  0  0  0  0  0  0  0  0
    6.8108    1.2883    8.5652 C   0  0  0  0  0  0  0  0  0  0  0  0
    4.2535    0.6851   19.6045 N   0  0  0  0  0  0  0  0  0  0  0  0
    5.2500    0.5307   19.8822 H   0  0  0  0  0  0  0  0  0  0  0  0
    3.1861    0.0483   20.3222 C   0  0  0  0  0  0  0  0  0  0  0  0
    2.9560    0.6536   21.6702 C   0  0  0  0  0  0  0  0  0  0  0  0
    3.9208    2.6819   22.7147 C   0  0  0  0  0  0  0  0  0  0  0  0
    4.2271    1.2934   22.2175 C   0  0  0  0  0  0  0  0  0  0  0  0
    4.6138    5.0119   17.5481 N   0  0  0  0  0  0  0  0  0  0  0  0
    4.8365    5.6317   16.7663 H   0  0  0  0  0  0  0  0  0  0  0  0
    4.8634    5.5145   18.9111 C   0  0  0  0  0  0  0  0  0  0  0  0
    6.0126    6.5097   18.8699 C   0  0  0  0  0  0  0  0  0  0  0  0
    5.9642    7.4136   20.0790 C   0  0  0  0  0  0  0  0  0  0  0  0
    4.8247    8.3858   19.8451 C   0  0  0  0  0  0  0  0  0  0  0  0
    4.3347    8.8597   21.0405 O   0  0  0  0  0  0  0  0  0  0  0  0
    3.7746    7.7330   18.9972 C   0  0  0  0  0  0  0  0  0  0  0  0
    3.6166    6.2491   19.3538 C   0  0  0  0  0  0  0  0  0  0  0  0
    3.9512    9.7670   20.9452 H   0  0  0  0  0  0  0  0  0  0  0  0
 28 29  1  0  0  0
 29 27  1  0  0  0
 27 26  1  0  0  0
 26 24  1  0  0  0
 24  1  1  0  0  0
  1  2  2  0  0  0
  2  3  1  0  0  0
  3  4  2  0  0  0
  4  5  1  0  0  0
  5 30  1  0  0  0
 30 32  1  0  0  0
 32 33  1  0  0  0
 33 34  1  0  0  0
 34 35  1  0  0  0
 35 36  1  0  0  0
 35 37  1  0  0  0
 37 38  1  0  0  0
  5  6  2  0  0  0
  4  7  1  0  0  0
  7  8  2  0  0  0
  8  9  1  0  0  0
  9 13  1  0  0  0
 13 15  1  0  0  0
 15 16  2  0  0  0
 16 17  1  0  0  0
 17 18  2  0  0  0
 18 19  1  0  0  0
 19 20  2  0  0  0
 19 21  1  0  0  0
 21 22  1  0  0  0
 21 23  1  0  0  0
  9 10  2  0  0  0
 10 11  1  0  0  0
 11 12  2  0  0  0
  6  1  1  0  0  0
 12  7  1  0  0  0
 38 32  1  0  0  0
 20 15  1  0  0  0
 24 25  1  0  0  0
 30 31  1  0  0  0
 36 39  1  0  0  0
 13 14  1  0  0  0
M  END
> <minimizedAffinity>
-7.39443

> <CNNscore>
0.2360889018

> <CNNaffinity>
6.8776831627

> <CNN_VS>
1.6237446070

> <CNNaffinity_variance>
0.5112445951

$$$$
[H]c1nc(N([H])[H])c(C(=O)N([H])[C@@]2([H])C([H])([H])C([H])([H])C([H])([H])[C@]2([H])OC([H])([H])c2c([H])c([H])c(C([H])([H])[H])c(C([H])([H])[H])c2[H])c([H])c1-c1c([H])c([H])c(C([H])([H])N2C([H])([H])C([H])([H])OC([H])([H])C2([H])[H])c([H])c1[H]


 41 45  0  0  0  0  0  0  0  0999 V2000
    4.1145    2.8330   17.3032 C   0  0  0  0  0  0  0  0  0  0  0  0
    3.7789    3.1125   16.0052 C   0  0  0  0  0  0  0  0  0  0  0  0
    3.0721    2.2309   15.1929 C   0  0  0  0  0  0  0  0  0  0  0  0
    2.6989    1.0213   15.7358 C   0  0  0  0  0  0  0  0  0  0  0  0
    3.0219    0.7289   17.0157 N   0  0  0  0  0  0  0  0  0  0  0  0
    3.7071    1.5977   17.7849 C   0  0  0  0  0  0  0  0  0  0  0  0
    4.0341    1.2628   19.1294 N   0  0  0  0  0  0  0  0  0  0  0  0
    4.9820    0.8819   19.3473 H   0  0  0  0  0  0  0  0  0  0  0  0
    3.3698    1.3805   19.9067 H   0  0  0  0  0  0  0  0  0  0  0  0
    2.7210    2.5308   13.8173 C   0  0  0  0  0  0  0  0  0  0  0  0
    3.3848    3.4801   13.0745 C   0  0  0  0  0  0  0  0  0  0  0  0
    3.0458    3.7609   11.7725 C   0  0  0  0  0  0  0  0  0  0  0  0
    2.0140    3.0783   11.1866 C   0  0  0  0  0  0  0  0  0  0  0  0
    1.3323    2.1251   11.9020 C   0  0  0  0  0  0  0  0  0  0  0  0
    1.6882    1.8596   13.2036 C   0  0  0  0  0  0  0  0  0  0  0  0
    1.5959    3.3372    9.7704 C   0  0  0  0  0  0  0  0  0  0  0  0
    0.9721    4.6064    9.5738 N   0  0  0  0  0  0  0  0  0  0  0  0
    1.7862    5.7015    9.2607 C   0  0  0  0  0  0  0  0  0  0  0  0
    1.5905    6.9348   10.0852 C   0  0  0  0  0  0  0  0  0  0  0  0
    0.2692    7.1381   10.4627 O   0  0  0  0  0  0  0  0  0  0  0  0
   -0.1121    6.0512   11.2376 C   0  0  0  0  0  0  0  0  0  0  0  0
   -0.2068    4.8573   10.3229 C   0  0  0  0  0  0  0  0  0  0  0  0
    4.8025    5.1051   17.9658 N   0  0  0  0  0  0  0  0  0  0  0  0
    4.8487    3.7254   18.1794 C   0  0  0  0  0  0  0  0  0  0  0  0
    5.5157    3.2607   19.1162 O   0  0  0  0  0  0  0  0  0  0  0  0
    4.2620    5.5583   17.1990 H   0  0  0  0  0  0  0  0  0  0  0  0
    4.5315    6.5704   19.8050 C   0  0  0  0  0  0  0  0  0  0  0  0
    3.7368    7.5837   19.0088 C   0  0  0  0  0  0  0  0  0  0  0  0
    4.5608    7.9444   17.8023 C   0  0  0  0  0  0  0  0  0  0  0  0
    5.8831    7.2148   17.9384 C   0  0  0  0  0  0  0  0  0  0  0  0
    5.5266    6.0658   18.8199 C   0  0  0  0  0  0  0  0  0  0  0  0
    5.0022    7.1494   20.9278 O   0  0  0  0  0  0  0  0  0  0  0  0
    6.0065    6.5657   21.6085 C   0  0  0  0  0  0  0  0  0  0  0  0
    4.2132    1.4895   23.7417 C   0  0  0  0  0  0  0  0  0  0  0  0
    4.6552    2.8036   23.2036 C   0  0  0  0  0  0  0  0  0  0  0  0
    3.9226    3.9652   23.4307 C   0  0  0  0  0  0  0  0  0  0  0  0
    4.3664    5.1766   22.9119 C   0  0  0  0  0  0  0  0  0  0  0  0
    5.5337    5.2679   22.1636 C   0  0  0  0  0  0  0  0  0  0  0  0
    6.2320    4.0901   21.9613 C   0  0  0  0  0  0  0  0  0  0  0  0
    5.8020    2.8802   22.4712 C   0  0  0  0  0  0  0  0  0  0  0  0
    6.5794    1.6345   22.2332 C   0  0  0  0  0  0  0  0  0  0  0  0
 34 35  1  0  0  0
 35 36  2  0  0  0
 36 37  1  0  0  0
 37 38  2  0  0  0
 38 33  1  0  0  0
 33 32  1  0  0  0
 32 27  1  0  0  0
 27 28  1  0  0  0
 28 29  1  0  0  0
 29 30  1  0  0  0
 30 31  1  0  0  0
 31 23  1  0  0  0
 23 24  1  0  0  0
 24 25  2  0  0  0
 24  1  1  0  0  0
  1  2  2  0  0  0
  2  3  1  0  0  0
  3  4  2  0  0  0
  4  5  1  0  0  0
  5  6  2  0  0  0
  6  7  1  0  0  0
  3 10  1  0  0  0
 10 11  2  0  0  0
 11 12  1  0  0  0
 12 13  2  0  0  0
 13 16  1  0  0  0
 16 17  1  0  0  0
 17 18  1  0  0  0
 18 19  1  0  0  0
 19 20  1  0  0  0
 20 21  1  0  0  0
 21 22  1  0  0  0
 13 14  1  0  0  0
 14 15  2  0  0  0
 38 39  1  0  0  0
 39 40  2  0  0  0
 40 41  1  0  0  0
 40 35  1  0  0  0
 31 27  1  0  0  0
  6  1  1  0  0  0
 15 10  1  0  0  0
 22 17  1  0  0  0
 23 26  1  0  0  0
  7  8  1  0  0  0
  7  9  1  0  0  0
M  END
> <minimizedAffinity>
-9.34560

> <CNNscore>
0.5321373343

> <CNNaffinity>
6.8791389465

> <CNN_VS>
3.6606466770

> <CNNaffinity_variance>
0.3240495920

$$$$
[H]c1nc(N([H])[H])c(C(=O)N([H])[C@@]2([H])C([H])([H])C([H])([H])C([H])([H])[C@]2([H])OC([H])([H])c2c([H])c([H])c(C([H])([H])[H])c(C([H])([H])[H])c2[H])c([H])c1-c1c([H])c([H])c(C([H])([H])N2C([H])([H])C([H])([H])OC([H])([H])C2([H])[H])c([H])c1[H]


 41 45  0  0  0  0  0  0  0  0999 V2000
    2.4364    3.0377   14.8712 C   0  0  0  0  0  0  0  0  0  0  0  0
    3.1340    3.1185   16.0470 C   0  0  0  0  0  0  0  0  0  0  0  0
    3.2493    2.0578   16.9404 C   0  0  0  0  0  0  0  0  0  0  0  0
    2.6252    0.8748   16.6116 C   0  0  0  0  0  0  0  0  0  0  0  0
    1.9323    0.7774   15.4548 N   0  0  0  0  0  0  0  0  0  0  0  0
    1.8335    1.8175   14.6037 C   0  0  0  0  0  0  0  0  0  0  0  0
    1.0965    1.6865   13.3927 N   0  0  0  0  0  0  0  0  0  0  0  0
    0.1100    2.0277   13.3528 H   0  0  0  0  0  0  0  0  0  0  0  0
    1.4972    1.2652   12.5434 H   0  0  0  0  0  0  0  0  0  0  0  0
    3.9877    2.1492   18.1861 C   0  0  0  0  0  0  0  0  0  0  0  0
    3.9149    1.1818   19.1620 C   0  0  0  0  0  0  0  0  0  0  0  0
    4.6152    1.2755   20.3408 C   0  0  0  0  0  0  0  0  0  0  0  0
    5.4148    2.3647   20.5604 C   0  0  0  0  0  0  0  0  0  0  0  0
    5.5082    3.3469   19.6056 C   0  0  0  0  0  0  0  0  0  0  0  0
    4.7990    3.2332   18.4329 C   0  0  0  0  0  0  0  0  0  0  0  0
    6.2046    2.5257   21.8244 C   0  0  0  0  0  0  0  0  0  0  0  0
    6.0206    3.7883   22.4651 N   0  0  0  0  0  0  0  0  0  0  0  0
    4.7133    4.2618   22.6292 C   0  0  0  0  0  0  0  0  0  0  0  0
    4.4497    5.6626   22.1737 C   0  0  0  0  0  0  0  0  0  0  0  0
    5.5270    6.5163   22.3741 O   0  0  0  0  0  0  0  0  0  0  0  0
    6.5891    6.0255   21.6266 C   0  0  0  0  0  0  0  0  0  0  0  0
    7.0490    4.7489   22.2823 C   0  0  0  0  0  0  0  0  0  0  0  0
    2.8933    4.0211   12.6579 N   0  0  0  0  0  0  0  0  0  0  0  0
    2.2947    4.1198   13.9161 C   0  0  0  0  0  0  0  0  0  0  0  0
    1.6422    5.1299   14.2195 O   0  0  0  0  0  0  0  0  0  0  0  0
    3.4529    3.2011   12.3414 H   0  0  0  0  0  0  0  0  0  0  0  0
    1.9222    4.5386   10.5621 C   0  0  0  0  0  0  0  0  0  0  0  0
    2.8586    3.6321    9.7918 C   0  0  0  0  0  0  0  0  0  0  0  0
    4.2628    4.0346   10.1536 C   0  0  0  0  0  0  0  0  0  0  0  0
    4.1535    5.2422   11.0642 C   0  0  0  0  0  0  0  0  0  0  0  0
    2.7876    5.0860   11.6422 C   0  0  0  0  0  0  0  0  0  0  0  0
    1.3487    5.4172    9.7155 O   0  0  0  0  0  0  0  0  0  0  0  0
    0.7954    6.5453   10.1990 C   0  0  0  0  0  0  0  0  0  0  0  0
   -4.6481    5.4319   11.8308 C   0  0  0  0  0  0  0  0  0  0  0  0
   -3.2442    5.7207   11.4342 C   0  0  0  0  0  0  0  0  0  0  0  0
   -2.2669    6.0118   12.3816 C   0  0  0  0  0  0  0  0  0  0  0  0
   -0.9641    6.2768   11.9740 C   0  0  0  0  0  0  0  0  0  0  0  0
   -0.5998    6.2605   10.6332 C   0  0  0  0  0  0  0  0  0  0  0  0
   -1.6012    5.9666    9.7240 C   0  0  0  0  0  0  0  0  0  0  0  0
   -2.8992    5.7016   10.1158 C   0  0  0  0  0  0  0  0  0  0  0  0
   -3.9493    5.3894    9.1095 C   0  0  0  0  0  0  0  0  0  0  0  0
 34 35  1  0  0  0
 35 36  2  0  0  0
 36 37  1  0  0  0
 37 38  2  0  0  0
 38 33  1  0  0  0
 33 32  1  0  0  0
 32 27  1  0  0  0
 27 28  1  0  0  0
 28 29  1  0  0  0
 29 30  1  0  0  0
 30 31  1  0  0  0
 31 23  1  0  0  0
 23 24  1  0  0  0
 24 25  2  0  0  0
 24  1  1  0  0  0
  1  2  2  0  0  0
  2  3  1  0  0  0
  3  4  2  0  0  0
  4  5  1  0  0  0
  5  6  2  0  0  0
  6  7  1  0  0  0
  3 10  1  0  0  0
 10 11  2  0  0  0
 11 12  1  0  0  0
 12 13  2  0  0  0
 13 16  1  0  0  0
 16 17  1  0  0  0
 17 18  1  0  0  0
 18 19  1  0  0  0
 19 20  1  0  0  0
 20 21  1  0  0  0
 21 22  1  0  0  0
 13 14  1  0  0  0
 14 15  2  0  0  0
 38 39  1  0  0  0
 39 40  2  0  0  0
 40 41  1  0  0  0
 40 35  1  0  0  0
 31 27  1  0  0  0
  6  1  1  0  0  0
 15 10  1  0  0  0
 22 17  1  0  0  0
 23 26  1  0  0  0
  7  8  1  0  0  0
  7  9  1  0  0  0
M  END
> <minimizedAffinity>
-8.29305

> <CNNscore>
0.4890003502

> <CNNaffinity>
6.7364263535

> <CNN_VS>
3.2941148281

> <CNNaffinity_variance>
0.3946195841

$$$$
[H]c1nc(N([H])[H])c(C(=O)N([H])[C@@]2([H])C([H])([H])C([H])([H])C([H])([H])[C@]2([H])OC([H])([H])c2c([H])c([H])c(C([H])([H])[H])c(C([H])([H])[H])c2[H])c([H])c1-c1c([H])c([H])c(C([H])([H])N2C([H])([H])C([H])([H])OC([H])([H])C2([H])[H])c([H])c1[H]


 41 45  0  0  0  0  0  0  0  0999 V2000
    3.4133    2.4115   16.5763 C   0  0  0  0  0  0  0  0  0  0  0  0
    4.0916    3.3302   17.3322 C   0  0  0  0  0  0  0  0  0  0  0  0
    4.4747    3.1005   18.6502 C   0  0  0  0  0  0  0  0  0  0  0  0
    4.1479    1.8842   19.2079 C   0  0  0  0  0  0  0  0  0  0  0  0
    3.4784    0.9655   18.4760 N   0  0  0  0  0  0  0  0  0  0  0  0
    3.1171    1.2088   17.2007 C   0  0  0  0  0  0  0  0  0  0  0  0
    2.4120    0.2229   16.4539 N   0  0  0  0  0  0  0  0  0  0  0  0
    1.3719    0.2827   16.3787 H   0  0  0  0  0  0  0  0  0  0  0  0
    2.8872   -0.5565   15.9785 H   0  0  0  0  0  0  0  0  0  0  0  0
    5.1913    4.0782   19.4478 C   0  0  0  0  0  0  0  0  0  0  0  0
    5.6707    5.2551   18.9202 C   0  0  0  0  0  0  0  0  0  0  0  0
    6.3506    6.1762   19.6806 C   0  0  0  0  0  0  0  0  0  0  0  0
    6.5630    5.9225   21.0089 C   0  0  0  0  0  0  0  0  0  0  0  0
    6.0967    4.7567   21.5646 C   0  0  0  0  0  0  0  0  0  0  0  0
    5.4186    3.8488   20.7856 C   0  0  0  0  0  0  0  0  0  0  0  0
    7.2964    6.8865   21.8922 C   0  0  0  0  0  0  0  0  0  0  0  0
    7.3131    8.2262   21.3987 N   0  0  0  0  0  0  0  0  0  0  0  0
    8.5398    8.7663   20.9944 C   0  0  0  0  0  0  0  0  0  0  0  0
    8.8950   10.1073   21.5555 C   0  0  0  0  0  0  0  0  0  0  0  0
    7.7951   10.9376   21.7298 O   0  0  0  0  0  0  0  0  0  0  0  0
    6.9462   10.3159   22.6355 C   0  0  0  0  0  0  0  0  0  0  0  0
    6.3516    9.1159   21.9444 C   0  0  0  0  0  0  0  0  0  0  0  0
    2.3122    3.7777   14.8455 N   0  0  0  0  0  0  0  0  0  0  0  0
    2.9984    2.6142   15.2016 C   0  0  0  0  0  0  0  0  0  0  0  0
    3.2541    1.7537   14.3458 O   0  0  0  0  0  0  0  0  0  0  0  0
    2.0675    4.5379   15.5147 H   0  0  0  0  0  0  0  0  0  0  0  0
    3.0865    4.3947   12.6954 C   0  0  0  0  0  0  0  0  0  0  0  0
    3.3472    5.8323   13.0921 C   0  0  0  0  0  0  0  0  0  0  0  0
    2.0686    6.3700   13.6760 C   0  0  0  0  0  0  0  0  0  0  0  0
    1.0268    5.2773   13.5348 C   0  0  0  0  0  0  0  0  0  0  0  0
    1.8624    4.0439   13.4659 C   0  0  0  0  0  0  0  0  0  0  0  0
    3.0269    4.3024   11.3517 O   0  0  0  0  0  0  0  0  0  0  0  0
    2.3719    3.2731   10.7824 C   0  0  0  0  0  0  0  0  0  0  0  0
    6.1763   -0.3807    8.3927 C   0  0  0  0  0  0  0  0  0  0  0  0
    5.2129    0.5755    9.0003 C   0  0  0  0  0  0  0  0  0  0  0  0
    5.4481    1.9475    8.9919 C   0  0  0  0  0  0  0  0  0  0  0  0
    4.5248    2.8121    9.5697 C   0  0  0  0  0  0  0  0  0  0  0  0
    3.3584    2.3457   10.1637 C   0  0  0  0  0  0  0  0  0  0  0  0
    3.1631    0.9755   10.1505 C   0  0  0  0  0  0  0  0  0  0  0  0
    4.0724    0.1058    9.5799 C   0  0  0  0  0  0  0  0  0  0  0  0
    3.8283   -1.3616    9.5846 C   0  0  0  0  0  0  0  0  0  0  0  0
 34 35  1  0  0  0
 35 36  2  0  0  0
 36 37  1  0  0  0
 37 38  2  0  0  0
 38 33  1  0  0  0
 33 32  1  0  0  0
 32 27  1  0  0  0
 27 28  1  0  0  0
 28 29  1  0  0  0
 29 30  1  0  0  0
 30 31  1  0  0  0
 31 23  1  0  0  0
 23 24  1  0  0  0
 24 25  2  0  0  0
 24  1  1  0  0  0
  1  2  2  0  0  0
  2  3  1  0  0  0
  3  4  2  0  0  0
  4  5  1  0  0  0
  5  6  2  0  0  0
  6  7  1  0  0  0
  3 10  1  0  0  0
 10 11  2  0  0  0
 11 12  1  0  0  0
 12 13  2  0  0  0
 13 16  1  0  0  0
 16 17  1  0  0  0
 17 18  1  0  0  0
 18 19  1  0  0  0
 19 20  1  0  0  0
 20 21  1  0  0  0
 21 22  1  0  0  0
 13 14  1  0  0  0
 14 15  2  0  0  0
 38 39  1  0  0  0
 39 40  2  0  0  0
 40 41  1  0  0  0
 40 35  1  0  0  0
 31 27  1  0  0  0
  6  1  1  0  0  0
 15 10  1  0  0  0
 22 17  1  0  0  0
 23 26  1  0  0  0
  7  8  1  0  0  0
  7  9  1  0  0  0
M  END
> <minimizedAffinity>
-8.35535

> <CNNscore>
0.3745417893

> <CNNaffinity>
6.4001517296

> <CNN_VS>
2.3971242905

> <CNNaffinity_variance>
0.6269798875

$$$$
[H]c1nc(N([H])[H])c(C(=O)N([H])[C@@]2([H])C([H])([H])C([H])([H])C([H])([H])[C@]2([H])OC([H])([H])c2c([H])c([H])c(C([H])([H])[H])c(C([H])([H])[H])c2[H])c([H])c1-c1c([H])c([H])c(C([H])([H])N2C([H])([H])C([H])([H])OC([H])([H])C2([H])[H])c([H])c1[H]


 41 45  0  0  0  0  0  0  0  0999 V2000
    3.4713    2.3123   16.8123 C   0  0  0  0  0  0  0  0  0  0  0  0
    4.1607    3.1313   17.6663 C   0  0  0  0  0  0  0  0  0  0  0  0
    4.4497    2.7899   18.9841 C   0  0  0  0  0  0  0  0  0  0  0  0
    4.0139    1.5643   19.4369 C   0  0  0  0  0  0  0  0  0  0  0  0
    3.3318    0.7431   18.6073 N   0  0  0  0  0  0  0  0  0  0  0  0
    3.0628    1.0938   17.3343 C   0  0  0  0  0  0  0  0  0  0  0  0
    2.3419    0.2091   16.4831 N   0  0  0  0  0  0  0  0  0  0  0  0
    1.3140    0.3437   16.3555 H   0  0  0  0  0  0  0  0  0  0  0  0
    2.7939   -0.5676   15.9812 H   0  0  0  0  0  0  0  0  0  0  0  0
    5.1786    3.6624   19.8858 C   0  0  0  0  0  0  0  0  0  0  0  0
    5.5817    3.2610   21.1388 C   0  0  0  0  0  0  0  0  0  0  0  0
    6.2700    4.0930   21.9890 C   0  0  0  0  0  0  0  0  0  0  0  0
    6.5689    5.3661   21.5843 C   0  0  0  0  0  0  0  0  0  0  0  0
    6.1800    5.7960   20.3396 C   0  0  0  0  0  0  0  0  0  0  0  0
    5.4923    4.9469   19.5046 C   0  0  0  0  0  0  0  0  0  0  0  0
    7.3175    6.3218   22.4638 C   0  0  0  0  0  0  0  0  0  0  0  0
    8.6633    6.5571   22.0492 N   0  0  0  0  0  0  0  0  0  0  0  0
    9.6356    5.6098   22.3918 C   0  0  0  0  0  0  0  0  0  0  0  0
   10.8774    6.1343   23.0414 C   0  0  0  0  0  0  0  0  0  0  0  0
   11.2614    7.3810   22.5641 O   0  0  0  0  0  0  0  0  0  0  0  0
   10.2325    8.2685   22.8492 C   0  0  0  0  0  0  0  0  0  0  0  0
    9.0713    7.9132   21.9567 C   0  0  0  0  0  0  0  0  0  0  0  0
    2.5603    3.8593   15.1236 N   0  0  0  0  0  0  0  0  0  0  0  0
    3.1522    2.6327   15.4344 C   0  0  0  0  0  0  0  0  0  0  0  0
    3.4058    1.8165   14.5356 O   0  0  0  0  0  0  0  0  0  0  0  0
    2.3227    4.5873   15.8302 H   0  0  0  0  0  0  0  0  0  0  0  0
    3.4469    4.8282   13.1543 C   0  0  0  0  0  0  0  0  0  0  0  0
    3.4865    6.2241   13.7390 C   0  0  0  0  0  0  0  0  0  0  0  0
    2.1017    6.5344   14.2401 C   0  0  0  0  0  0  0  0  0  0  0  0
    1.2235    5.3571   13.8632 C   0  0  0  0  0  0  0  0  0  0  0  0
    2.2105    4.2455   13.7434 C   0  0  0  0  0  0  0  0  0  0  0  0
    3.5244    4.9010   11.8103 O   0  0  0  0  0  0  0  0  0  0  0  0
    3.3079    3.7980   11.0692 C   0  0  0  0  0  0  0  0  0  0  0  0
    7.9288    2.7251    7.7480 C   0  0  0  0  0  0  0  0  0  0  0  0
    6.7523    3.0202    8.6085 C   0  0  0  0  0  0  0  0  0  0  0  0
    6.7096    4.1523    9.4173 C   0  0  0  0  0  0  0  0  0  0  0  0
    5.5928    4.3962   10.2090 C   0  0  0  0  0  0  0  0  0  0  0  0
    4.5021    3.5353   10.2201 C   0  0  0  0  0  0  0  0  0  0  0  0
    4.5850    2.4220    9.4019 C   0  0  0  0  0  0  0  0  0  0  0  0
    5.6886    2.1682    8.6106 C   0  0  0  0  0  0  0  0  0  0  0  0
    5.7419    0.9607    7.7433 C   0  0  0  0  0  0  0  0  0  0  0  0
 34 35  1  0  0  0
 35 36  2  0  0  0
 36 37  1  0  0  0
 37 38  2  0  0  0
 38 33  1  0  0  0
 33 32  1  0  0  0
 32 27  1  0  0  0
 27 28  1  0  0  0
 28 29  1  0  0  0
 29 30  1  0  0  0
 30 31  1  0  0  0
 31 23  1  0  0  0
 23 24  1  0  0  0
 24 25  2  0  0  0
 24  1  1  0  0  0
  1  2  2  0  0  0
  2  3  1  0  0  0
  3  4  2  0  0  0
  4  5  1  0  0  0
  5  6  2  0  0  0
  6  7  1  0  0  0
  3 10  1  0  0  0
 10 11  2  0  0  0
 11 12  1  0  0  0
 12 13  2  0  0  0
 13 16  1  0  0  0
 16 17  1  0  0  0
 17 18  1  0  0  0
 18 19  1  0  0  0
 19 20  1  0  0  0
 20 21  1  0  0  0
 21 22  1  0  0  0
 13 14  1  0  0  0
 14 15  2  0  0  0
 38 39  1  0  0  0
 39 40  2  0  0  0
 40 41  1  0  0  0
 40 35  1  0  0  0
 31 27  1  0  0  0
  6  1  1  0  0  0
 15 10  1  0  0  0
 22 17  1  0  0  0
 23 26  1  0  0  0
  7  8  1  0  0  0
  7  9  1  0  0  0
M  END
> <minimizedAffinity>
-8.22091

> <CNNscore>
0.3634065986

> <CNNaffinity>
6.3505434990

> <CNN_VS>
2.3078293800

> <CNNaffinity_variance>
0.5799444914

$$$$
[H]c1nc(N([H])[H])c(C(=O)N([H])[C@@]2([H])C([H])([H])C([H])([H])C([H])([H])[C@]2([H])OC([H])([H])c2c([H])c([H])c(C([H])([H])[H])c(C([H])([H])[H])c2[H])c([H])c1-c1c([H])c([H])c(C([H])([H])N2C([H])([H])C([H])([H])OC([H])([H])C2([H])[H])c([H])c1[H]


 41 45  0  0  0  0  0  0  0  0999 V2000
    4.1090    2.7950   18.3788 C   0  0  0  0  0  0  0  0  0  0  0  0
    3.7343    3.0899   17.0950 C   0  0  0  0  0  0  0  0  0  0  0  0
    3.2782    2.1324   16.1940 C   0  0  0  0  0  0  0  0  0  0  0  0
    3.2059    0.8279   16.6301 C   0  0  0  0  0  0  0  0  0  0  0  0
    3.5719    0.5188   17.8944 N   0  0  0  0  0  0  0  0  0  0  0  0
    4.0108    1.4623   18.7507 C   0  0  0  0  0  0  0  0  0  0  0  0
    4.3902    1.1079   20.0763 N   0  0  0  0  0  0  0  0  0  0  0  0
    5.3993    0.9531   20.2973 H   0  0  0  0  0  0  0  0  0  0  0  0
    3.7059    0.9956   20.8369 H   0  0  0  0  0  0  0  0  0  0  0  0
    2.8846    2.4497   14.8339 C   0  0  0  0  0  0  0  0  0  0  0  0
    3.4719    3.4625   14.1109 C   0  0  0  0  0  0  0  0  0  0  0  0
    3.0929    3.7594   12.8237 C   0  0  0  0  0  0  0  0  0  0  0  0
    2.0981    3.0281   12.2325 C   0  0  0  0  0  0  0  0  0  0  0  0
    1.4926    2.0110   12.9283 C   0  0  0  0  0  0  0  0  0  0  0  0
    1.8875    1.7306   14.2154 C   0  0  0  0  0  0  0  0  0  0  0  0
    1.6396    3.3013   10.8316 C   0  0  0  0  0  0  0  0  0  0  0  0
    0.8604    4.4903   10.6991 N   0  0  0  0  0  0  0  0  0  0  0  0
    1.5250    5.6865   10.4031 C   0  0  0  0  0  0  0  0  0  0  0  0
    1.2079    6.8590   11.2771 C   0  0  0  0  0  0  0  0  0  0  0  0
   -0.1153    6.8866   11.6989 O   0  0  0  0  0  0  0  0  0  0  0  0
   -0.3364    5.7364   12.4443 C   0  0  0  0  0  0  0  0  0  0  0  0
   -0.3153    4.5704   11.4898 C   0  0  0  0  0  0  0  0  0  0  0  0
    4.0121    3.8236   20.6164 N   0  0  0  0  0  0  0  0  0  0  0  0
    4.5881    3.7643   19.3452 C   0  0  0  0  0  0  0  0  0  0  0  0
    5.5081    4.5380   19.0401 O   0  0  0  0  0  0  0  0  0  0  0  0
    3.2382    3.2030   20.9351 H   0  0  0  0  0  0  0  0  0  0  0  0
    5.9179    4.5765   21.8014 C   0  0  0  0  0  0  0  0  0  0  0  0
    6.0013    3.3310   22.6580 C   0  0  0  0  0  0  0  0  0  0  0  0
    4.6588    3.1537   23.3146 C   0  0  0  0  0  0  0  0  0  0  0  0
    3.8144    4.3496   22.9193 C   0  0  0  0  0  0  0  0  0  0  0  0
    4.4528    4.7860   21.6441 C   0  0  0  0  0  0  0  0  0  0  0  0
    6.6325    5.5656   22.3748 O   0  0  0  0  0  0  0  0  0  0  0  0
    7.4306    6.3387   21.6145 C   0  0  0  0  0  0  0  0  0  0  0  0
    4.3873   10.7874   19.4976 C   0  0  0  0  0  0  0  0  0  0  0  0
    5.1609    9.6499   20.0626 C   0  0  0  0  0  0  0  0  0  0  0  0
    5.1380    9.3608   21.4241 C   0  0  0  0  0  0  0  0  0  0  0  0
    5.8741    8.2890   21.9171 C   0  0  0  0  0  0  0  0  0  0  0  0
    6.6428    7.4851   21.0843 C   0  0  0  0  0  0  0  0  0  0  0  0
    6.6379    7.8065   19.7381 C   0  0  0  0  0  0  0  0  0  0  0  0
    5.9111    8.8685   19.2355 C   0  0  0  0  0  0  0  0  0  0  0  0
    5.9301    9.1838   17.7818 C   0  0  0  0  0  0  0  0  0  0  0  0
 34 35  1  0  0  0
 35 36  2  0  0  0
 36 37  1  0  0  0
 37 38  2  0  0  0
 38 33  1  0  0  0
 33 32  1  0  0  0
 32 27  1  0  0  0
 27 28  1  0  0  0
 28 29  1  0  0  0
 29 30  1  0  0  0
 30 31  1  0  0  0
 31 23  1  0  0  0
 23 24  1  0  0  0
 24 25  2  0  0  0
 24  1  1  0  0  0
  1  2  2  0  0  0
  2  3  1  0  0  0
  3  4  2  0  0  0
  4  5  1  0  0  0
  5  6  2  0  0  0
  6  7  1  0  0  0
  3 10  1  0  0  0
 10 11  2  0  0  0
 11 12  1  0  0  0
 12 13  2  0  0  0
 13 16  1  0  0  0
 16 17  1  0  0  0
 17 18  1  0  0  0
 18 19  1  0  0  0
 19 20  1  0  0  0
 20 21  1  0  0  0
 21 22  1  0  0  0
 13 14  1  0  0  0
 14 15  2  0  0  0
 38 39  1  0  0  0
 39 40  2  0  0  0
 40 41  1  0  0  0
 40 35  1  0  0  0
 31 27  1  0  0  0
  6  1  1  0  0  0
 15 10  1  0  0  0
 22 17  1  0  0  0
 23 26  1  0  0  0
  7  8  1  0  0  0
  7  9  1  0  0  0
M  END
> <minimizedAffinity>
-9.44864

> <CNNscore>
0.3096107841

> <CNNaffinity>
6.7199568748

> <CNN_VS>
2.0805711746

> <CNNaffinity_variance>
0.2737608552

$$$$
[H]c1nc(N([H])[H])c(C(=O)N([H])[C@@]2([H])C([H])([H])C([H])([H])C([H])([H])[C@]2([H])OC([H])([H])c2c([H])c([H])c(C([H])([H])[H])c(C([H])([H])[H])c2[H])c([H])c1-c1c([H])c([H])c(C([H])([H])N2C([H])([H])C([H])([H])OC([H])([H])C2([H])[H])c([H])c1[H]


 41 45  0  0  0  0  0  0  0  0999 V2000
    3.0779    3.8722   16.3746 C   0  0  0  0  0  0  0  0  0  0  0  0
    3.8569    4.5854   17.2464 C   0  0  0  0  0  0  0  0  0  0  0  0
    4.5175    4.0086   18.3268 C   0  0  0  0  0  0  0  0  0  0  0  0
    4.3706    2.6521   18.5154 C   0  0  0  0  0  0  0  0  0  0  0  0
    3.6053    1.9325   17.6643 N   0  0  0  0  0  0  0  0  0  0  0  0
    2.9742    2.5117   16.6240 C   0  0  0  0  0  0  0  0  0  0  0  0
    2.1741    1.7291   15.7440 N   0  0  0  0  0  0  0  0  0  0  0  0
    1.1397    1.6947   15.8849 H   0  0  0  0  0  0  0  0  0  0  0  0
    2.5742    1.1885   14.9649 H   0  0  0  0  0  0  0  0  0  0  0  0
    5.3399    4.7692   19.2492 C   0  0  0  0  0  0  0  0  0  0  0  0
    5.3840    4.4978   20.5975 C   0  0  0  0  0  0  0  0  0  0  0  0
    6.1635    5.2234   21.4662 C   0  0  0  0  0  0  0  0  0  0  0  0
    6.9250    6.2531   20.9828 C   0  0  0  0  0  0  0  0  0  0  0  0
    6.9023    6.5484   19.6421 C   0  0  0  0  0  0  0  0  0  0  0  0
    6.1153    5.8094   18.7903 C   0  0  0  0  0  0  0  0  0  0  0  0
    7.7968    7.0817   21.8778 C   0  0  0  0  0  0  0  0  0  0  0  0
    7.0949    8.1060   22.5826 N   0  0  0  0  0  0  0  0  0  0  0  0
    6.6432    9.2159   21.8587 C   0  0  0  0  0  0  0  0  0  0  0  0
    6.9911   10.5609   22.4147 C   0  0  0  0  0  0  0  0  0  0  0  0
    6.9991   10.5949   23.8033 O   0  0  0  0  0  0  0  0  0  0  0  0
    7.9690    9.6998   24.2340 C   0  0  0  0  0  0  0  0  0  0  0  0
    7.4636    8.3113   23.9376 C   0  0  0  0  0  0  0  0  0  0  0  0
    2.6834    4.0081   13.9455 N   0  0  0  0  0  0  0  0  0  0  0  0
    2.3755    4.4374   15.2386 C   0  0  0  0  0  0  0  0  0  0  0  0
    1.5033    5.3005   15.4188 O   0  0  0  0  0  0  0  0  0  0  0  0
    3.4035    3.2876   13.7265 H   0  0  0  0  0  0  0  0  0  0  0  0
    0.7939    3.7029   12.5527 C   0  0  0  0  0  0  0  0  0  0  0  0
    1.3423    2.4440   11.9151 C   0  0  0  0  0  0  0  0  0  0  0  0
    2.7036    2.7804   11.3688 C   0  0  0  0  0  0  0  0  0  0  0  0
    2.9163    4.2638   11.6004 C   0  0  0  0  0  0  0  0  0  0  0  0
    2.0066    4.5432   12.7487 C   0  0  0  0  0  0  0  0  0  0  0  0
   -0.1948    4.2024   11.7843 O   0  0  0  0  0  0  0  0  0  0  0  0
   -0.7797    5.3666   12.1237 C   0  0  0  0  0  0  0  0  0  0  0  0
   -6.4851    4.9002   11.2487 C   0  0  0  0  0  0  0  0  0  0  0  0
   -5.0236    5.0392   11.4862 C   0  0  0  0  0  0  0  0  0  0  0  0
   -4.5071    6.0863   12.2441 C   0  0  0  0  0  0  0  0  0  0  0  0
   -3.1347    6.1845   12.4453 C   0  0  0  0  0  0  0  0  0  0  0  0
   -2.2487    5.2590   11.9076 C   0  0  0  0  0  0  0  0  0  0  0  0
   -2.8031    4.2339   11.1610 C   0  0  0  0  0  0  0  0  0  0  0  0
   -4.1647    4.1249   10.9535 C   0  0  0  0  0  0  0  0  0  0  0  0
   -4.7245    3.0087   10.1451 C   0  0  0  0  0  0  0  0  0  0  0  0
 34 35  1  0  0  0
 35 36  2  0  0  0
 36 37  1  0  0  0
 37 38  2  0  0  0
 38 33  1  0  0  0
 33 32  1  0  0  0
 32 27  1  0  0  0
 27 28  1  0  0  0
 28 29  1  0  0  0
 29 30  1  0  0  0
 30 31  1  0  0  0
 31 23  1  0  0  0
 23 24  1  0  0  0
 24 25  2  0  0  0
 24  1  1  0  0  0
  1  2  2  0  0  0
  2  3  1  0  0  0
  3  4  2  0  0  0
  4  5  1  0  0  0
  5  6  2  0  0  0
  6  7  1  0  0  0
  3 10  1  0  0  0
 10 11  2  0  0  0
 11 12  1  0  0  0
 12 13  2  0  0  0
 13 16  1  0  0  0
 16 17  1  0  0  0
 17 18  1  0  0  0
 18 19  1  0  0  0
 19 20  1  0  0  0
 20 21  1  0  0  0
 21 22  1  0  0  0
 13 14  1  0  0  0
 14 15  2  0  0  0
 38 39  1  0  0  0
 39 40  2  0  0  0
 40 41  1  0  0  0
 40 35  1  0  0  0
 31 27  1  0  0  0
  6  1  1  0  0  0
 15 10  1  0  0  0
 22 17  1  0  0  0
 23 26  1  0  0  0
  7  8  1  0  0  0
  7  9  1  0  0  0
M  END
> <minimizedAffinity>
-8.85633

> <CNNscore>
0.2733344734

> <CNNaffinity>
6.2427129745

> <CNN_VS>
1.7063486576

> <CNNaffinity_variance>
0.4590229094

$$$$
[H]c1nc(N([H])[H])c(C(=O)N([H])[C@@]2([H])C([H])([H])C([H])([H])C([H])([H])[C@]2([H])OC([H])([H])c2c([H])c([H])c(C([H])([H])[H])c(C([H])([H])[H])c2[H])c([H])c1-c1c([H])c([H])c(C([H])([H])N2C([H])([H])C([H])([H])OC([H])([H])C2([H])[H])c([H])c1[H]


 41 45  0  0  0  0  0  0  0  0999 V2000
    3.4341    2.3541   16.8369 C   0  0  0  0  0  0  0  0  0  0  0  0
    4.1101    3.2180   17.6570 C   0  0  0  0  0  0  0  0  0  0  0  0
    4.4678    2.9060   18.9651 C   0  0  0  0  0  0  0  0  0  0  0  0
    4.1175    1.6631   19.4443 C   0  0  0  0  0  0  0  0  0  0  0  0
    3.4500    0.7978   18.6484 N   0  0  0  0  0  0  0  0  0  0  0  0
    3.1133    1.1205   17.3841 C   0  0  0  0  0  0  0  0  0  0  0  0
    2.4097    0.1894   16.5687 N   0  0  0  0  0  0  0  0  0  0  0  0
    1.3718    0.2667   16.4802 H   0  0  0  0  0  0  0  0  0  0  0  0
    2.8839   -0.5665   16.0557 H   0  0  0  0  0  0  0  0  0  0  0  0
    5.1820    3.8258   19.8309 C   0  0  0  0  0  0  0  0  0  0  0  0
    5.5618    5.0834   19.4214 C   0  0  0  0  0  0  0  0  0  0  0  0
    6.2400    5.9491   20.2457 C   0  0  0  0  0  0  0  0  0  0  0  0
    6.5528    5.5554   21.5189 C   0  0  0  0  0  0  0  0  0  0  0  0
    6.1875    4.3064   21.9567 C   0  0  0  0  0  0  0  0  0  0  0  0
    5.5090    3.4560   21.1155 C   0  0  0  0  0  0  0  0  0  0  0  0
    7.2902    6.4526   22.4670 C   0  0  0  0  0  0  0  0  0  0  0  0
    8.6687    6.6313   22.1410 N   0  0  0  0  0  0  0  0  0  0  0  0
    9.5530    5.5798   22.4099 C   0  0  0  0  0  0  0  0  0  0  0  0
   10.7938    5.9301   23.1696 C   0  0  0  0  0  0  0  0  0  0  0  0
   11.2885    7.1907   22.8605 O   0  0  0  0  0  0  0  0  0  0  0  0
   10.3114    8.1150   23.2047 C   0  0  0  0  0  0  0  0  0  0  0  0
    9.1754    7.9541   22.2277 C   0  0  0  0  0  0  0  0  0  0  0  0
    2.3857    3.8376   15.1711 N   0  0  0  0  0  0  0  0  0  0  0  0
    3.0452    2.6429   15.4700 C   0  0  0  0  0  0  0  0  0  0  0  0
    3.2992    1.8281   14.5702 O   0  0  0  0  0  0  0  0  0  0  0  0
    2.1439    4.5627   15.8792 H   0  0  0  0  0  0  0  0  0  0  0  0
    3.2101    4.5199   13.0598 C   0  0  0  0  0  0  0  0  0  0  0  0
    3.5336    5.9229   13.5277 C   0  0  0  0  0  0  0  0  0  0  0  0
    2.2756    6.4916   14.1267 C   0  0  0  0  0  0  0  0  0  0  0  0
    1.1854    5.4573   13.9243 C   0  0  0  0  0  0  0  0  0  0  0  0
    1.9630    4.1906   13.8024 C   0  0  0  0  0  0  0  0  0  0  0  0
    3.1601    4.4951   11.7127 O   0  0  0  0  0  0  0  0  0  0  0  0
    3.5509    3.3896   11.0511 C   0  0  0  0  0  0  0  0  0  0  0  0
   -1.0846    0.5876    9.0028 C   0  0  0  0  0  0  0  0  0  0  0  0
    0.0931    1.3267    9.5306 C   0  0  0  0  0  0  0  0  0  0  0  0
    0.0146    2.6761    9.8632 C   0  0  0  0  0  0  0  0  0  0  0  0
    1.1366    3.3349   10.3541 C   0  0  0  0  0  0  0  0  0  0  0  0
    2.3510    2.6820   10.5262 C   0  0  0  0  0  0  0  0  0  0  0  0
    2.3861    1.3414   10.1838 C   0  0  0  0  0  0  0  0  0  0  0  0
    1.2789    0.6752    9.6951 C   0  0  0  0  0  0  0  0  0  0  0  0
    1.3545   -0.7668    9.3376 C   0  0  0  0  0  0  0  0  0  0  0  0
 34 35  1  0  0  0
 35 36  2  0  0  0
 36 37  1  0  0  0
 37 38  2  0  0  0
 38 33  1  0  0  0
 33 32  1  0  0  0
 32 27  1  0  0  0
 27 28  1  0  0  0
 28 29  1  0  0  0
 29 30  1  0  0  0
 30 31  1  0  0  0
 31 23  1  0  0  0
 23 24  1  0  0  0
 24 25  2  0  0  0
 24  1  1  0  0  0
  1  2  2  0  0  0
  2  3  1  0  0  0
  3  4  2  0  0  0
  4  5  1  0  0  0
  5  6  2  0  0  0
  6  7  1  0  0  0
  3 10  1  0  0  0
 10 11  2  0  0  0
 11 12  1  0  0  0
 12 13  2  0  0  0
 13 16  1  0  0  0
 16 17  1  0  0  0
 17 18  1  0  0  0
 18 19  1  0  0  0
 19 20  1  0  0  0
 20 21  1  0  0  0
 21 22  1  0  0  0
 13 14  1  0  0  0
 14 15  2  0  0  0
 38 39  1  0  0  0
 39 40  2  0  0  0
 40 41  1  0  0  0
 40 35  1  0  0  0
 31 27  1  0  0  0
  6  1  1  0  0  0
 15 10  1  0  0  0
 22 17  1  0  0  0
 23 26  1  0  0  0
  7  8  1  0  0  0
  7  9  1  0  0  0
M  END
> <minimizedAffinity>
-8.03403

> <CNNscore>
0.2676163912

> <CNNaffinity>
6.2324132919

> <CNN_VS>
1.6678959131

> <CNNaffinity_variance>
0.5678640604

$$$$
[H]c1nc(N([H])[H])c(C(=O)N([H])[C@@]2([H])C([H])([H])C([H])([H])C([H])([H])[C@]2([H])OC([H])([H])c2c([H])c([H])c(C([H])([H])[H])c(C([H])([H])[H])c2[H])c([H])c1-c1c([H])c([H])c(C([H])([H])N2C([H])([H])C([H])([H])OC([H])([H])C2([H])[H])c([H])c1[H]


 41 45  0  0  0  0  0  0  0  0999 V2000
    3.6981    4.3034   17.7314 C   0  0  0  0  0  0  0  0  0  0  0  0
    4.3908    5.0370   18.6574 C   0  0  0  0  0  0  0  0  0  0  0  0
    5.1501    4.4632   19.6727 C   0  0  0  0  0  0  0  0  0  0  0  0
    5.1973    3.0881   19.7360 C   0  0  0  0  0  0  0  0  0  0  0  0
    4.5195    2.3482   18.8299 N   0  0  0  0  0  0  0  0  0  0  0  0
    3.7900    2.9248   17.8544 C   0  0  0  0  0  0  0  0  0  0  0  0
    3.0859    2.1207   16.9140 N   0  0  0  0  0  0  0  0  0  0  0  0
    2.0698    1.9289   17.0620 H   0  0  0  0  0  0  0  0  0  0  0  0
    3.5388    1.7143   16.0840 H   0  0  0  0  0  0  0  0  0  0  0  0
    5.8804    5.2450   20.6530 C   0  0  0  0  0  0  0  0  0  0  0  0
    6.6198    4.6662   21.6588 C   0  0  0  0  0  0  0  0  0  0  0  0
    7.3076    5.4125   22.5855 C   0  0  0  0  0  0  0  0  0  0  0  0
    7.2610    6.7786   22.5136 C   0  0  0  0  0  0  0  0  0  0  0  0
    6.5316    7.3858   21.5214 C   0  0  0  0  0  0  0  0  0  0  0  0
    5.8510    6.6200   20.6041 C   0  0  0  0  0  0  0  0  0  0  0  0
    7.9894    7.6489   23.4933 C   0  0  0  0  0  0  0  0  0  0  0  0
    9.4107    7.5972   23.3681 N   0  0  0  0  0  0  0  0  0  0  0  0
    9.9687    7.7669   22.0954 C   0  0  0  0  0  0  0  0  0  0  0  0
   10.9664    6.7391   21.6626 C   0  0  0  0  0  0  0  0  0  0  0  0
   11.7501    6.2623   22.7056 O   0  0  0  0  0  0  0  0  0  0  0  0
   10.8985    5.6599   23.6217 C   0  0  0  0  0  0  0  0  0  0  0  0
   10.0982    6.7543   24.2796 C   0  0  0  0  0  0  0  0  0  0  0  0
    3.4981    5.2005   15.4445 N   0  0  0  0  0  0  0  0  0  0  0  0
    2.8977    4.8649   16.6603 C   0  0  0  0  0  0  0  0  0  0  0  0
    1.6821    5.0455   16.8270 O   0  0  0  0  0  0  0  0  0  0  0  0
    4.5120    5.0736   15.2406 H   0  0  0  0  0  0  0  0  0  0  0  0
    1.6982    4.7720   13.9681 C   0  0  0  0  0  0  0  0  0  0  0  0
    2.4647    3.7351   13.1747 C   0  0  0  0  0  0  0  0  0  0  0  0
    3.7459    4.3816   12.7215 C   0  0  0  0  0  0  0  0  0  0  0  0
    3.6895    5.8299   13.1672 C   0  0  0  0  0  0  0  0  0  0  0  0
    2.7407    5.7755   14.3165 C   0  0  0  0  0  0  0  0  0  0  0  0
    0.6388    5.1954   13.2499 O   0  0  0  0  0  0  0  0  0  0  0  0
   -0.0361    6.2929   13.6405 C   0  0  0  0  0  0  0  0  0  0  0  0
   -5.4493    5.9639   11.6099 C   0  0  0  0  0  0  0  0  0  0  0  0
   -4.0661    6.0643   12.1470 C   0  0  0  0  0  0  0  0  0  0  0  0
   -3.7539    6.9279   13.1931 C   0  0  0  0  0  0  0  0  0  0  0  0
   -2.4493    6.9954   13.6698 C   0  0  0  0  0  0  0  0  0  0  0  0
   -1.4321    6.2184   13.1291 C   0  0  0  0  0  0  0  0  0  0  0  0
   -1.7848    5.3734   12.0912 C   0  0  0  0  0  0  0  0  0  0  0  0
   -3.0770    5.2969   11.6084 C   0  0  0  0  0  0  0  0  0  0  0  0
   -3.4187    4.3763   10.4909 C   0  0  0  0  0  0  0  0  0  0  0  0
 34 35  1  0  0  0
 35 36  2  0  0  0
 36 37  1  0  0  0
 37 38  2  0  0  0
 38 33  1  0  0  0
 33 32  1  0  0  0
 32 27  1  0  0  0
 27 28  1  0  0  0
 28 29  1  0  0  0
 29 30  1  0  0  0
 30 31  1  0  0  0
 31 23  1  0  0  0
 23 24  1  0  0  0
 24 25  2  0  0  0
 24  1  1  0  0  0
  1  2  2  0  0  0
  2  3  1  0  0  0
  3  4  2  0  0  0
  4  5  1  0  0  0
  5  6  2  0  0  0
  6  7  1  0  0  0
  3 10  1  0  0  0
 10 11  2  0  0  0
 11 12  1  0  0  0
 12 13  2  0  0  0
 13 16  1  0  0  0
 16 17  1  0  0  0
 17 18  1  0  0  0
 18 19  1  0  0  0
 19 20  1  0  0  0
 20 21  1  0  0  0
 21 22  1  0  0  0
 13 14  1  0  0  0
 14 15  2  0  0  0
 38 39  1  0  0  0
 39 40  2  0  0  0
 40 41  1  0  0  0
 40 35  1  0  0  0
 31 27  1  0  0  0
  6  1  1  0  0  0
 15 10  1  0  0  0
 22 17  1  0  0  0
 23 26  1  0  0  0
  7  8  1  0  0  0
  7  9  1  0  0  0
M  END
> <minimizedAffinity>
-8.84873

> <CNNscore>
0.2130621523

> <CNNaffinity>
6.1683626175

> <CNN_VS>
1.3142446280

> <CNNaffinity_variance>
0.5327229500

$$$$
[H]c1nc(N([H])[H])c(C(=O)N([H])[C@@]2([H])C([H])([H])C([H])([H])C([H])([H])[C@]2([H])OC([H])([H])c2c([H])c([H])c(C([H])([H])[H])c(C([H])([H])[H])c2[H])c([H])c1-c1c([H])c([H])c(C([H])([H])N2C([H])([H])C([H])([H])OC([H])([H])C2([H])[H])c([H])c1[H]


 41 45  0  0  0  0  0  0  0  0999 V2000
    3.8892    3.6920   16.1466 C   0  0  0  0  0  0  0  0  0  0  0  0
    3.1182    4.2522   15.1631 C   0  0  0  0  0  0  0  0  0  0  0  0
    2.2284    3.5213   14.3817 C   0  0  0  0  0  0  0  0  0  0  0  0
    2.1297    2.1685   14.6215 C   0  0  0  0  0  0  0  0  0  0  0  0
    2.8834    1.5989   15.5886 N   0  0  0  0  0  0  0  0  0  0  0  0
    3.7391    2.3259   16.3339 C   0  0  0  0  0  0  0  0  0  0  0  0
    4.5209    1.6993   17.3453 N   0  0  0  0  0  0  0  0  0  0  0  0
    5.5063    1.4237   17.1352 H   0  0  0  0  0  0  0  0  0  0  0  0
    4.1541    1.5028   18.2867 H   0  0  0  0  0  0  0  0  0  0  0  0
    1.4153    4.1192   13.3391 C   0  0  0  0  0  0  0  0  0  0  0  0
    1.1164    3.4637   12.1667 C   0  0  0  0  0  0  0  0  0  0  0  0
    0.3474    4.0365   11.1821 C   0  0  0  0  0  0  0  0  0  0  0  0
   -0.1419    5.3017   11.3651 C   0  0  0  0  0  0  0  0  0  0  0  0
    0.1391    5.9816   12.5244 C   0  0  0  0  0  0  0  0  0  0  0  0
    0.9104    5.3896   13.4969 C   0  0  0  0  0  0  0  0  0  0  0  0
   -0.9871    5.9817   10.3302 C   0  0  0  0  0  0  0  0  0  0  0  0
   -2.2376    5.3363   10.0890 N   0  0  0  0  0  0  0  0  0  0  0  0
   -2.8154    5.4680    8.8206 C   0  0  0  0  0  0  0  0  0  0  0  0
   -4.2487    5.8962    8.7823 C   0  0  0  0  0  0  0  0  0  0  0  0
   -4.9994    5.3942    9.8378 O   0  0  0  0  0  0  0  0  0  0  0  0
   -4.4458    5.8880   11.0114 C   0  0  0  0  0  0  0  0  0  0  0  0
   -3.1124    5.2115   11.1995 C   0  0  0  0  0  0  0  0  0  0  0  0
    4.3939    5.5346   17.7038 N   0  0  0  0  0  0  0  0  0  0  0  0
    4.8258    4.4204   16.9805 C   0  0  0  0  0  0  0  0  0  0  0  0
    6.0080    4.0516   17.0490 O   0  0  0  0  0  0  0  0  0  0  0  0
    3.4164    5.8950   17.6903 H   0  0  0  0  0  0  0  0  0  0  0  0
    4.4474    6.8539   19.6683 C   0  0  0  0  0  0  0  0  0  0  0  0
    3.7379    8.0246   19.0216 C   0  0  0  0  0  0  0  0  0  0  0  0
    4.5147    8.3852   17.7841 C   0  0  0  0  0  0  0  0  0  0  0  0
    5.7365    7.4876   17.7545 C   0  0  0  0  0  0  0  0  0  0  0  0
    5.2959    6.3185   18.5690 C   0  0  0  0  0  0  0  0  0  0  0  0
    5.0679    7.2684   20.7912 O   0  0  0  0  0  0  0  0  0  0  0  0
    6.1267    6.5818   21.2602 C   0  0  0  0  0  0  0  0  0  0  0  0
    4.3182    1.6740   23.7456 C   0  0  0  0  0  0  0  0  0  0  0  0
    4.7658    2.9460   23.1185 C   0  0  0  0  0  0  0  0  0  0  0  0
    4.1178    4.1506   23.3767 C   0  0  0  0  0  0  0  0  0  0  0  0
    4.5642    5.3207   22.7723 C   0  0  0  0  0  0  0  0  0  0  0  0
    5.6512    5.3280   21.9067 C   0  0  0  0  0  0  0  0  0  0  0  0
    6.2669    4.1098   21.6773 C   0  0  0  0  0  0  0  0  0  0  0  0
    5.8333    2.9402   22.2713 C   0  0  0  0  0  0  0  0  0  0  0  0
    6.5206    1.6490   22.0008 C   0  0  0  0  0  0  0  0  0  0  0  0
 34 35  1  0  0  0
 35 36  2  0  0  0
 36 37  1  0  0  0
 37 38  2  0  0  0
 38 33  1  0  0  0
 33 32  1  0  0  0
 32 27  1  0  0  0
 27 28  1  0  0  0
 28 29  1  0  0  0
 29 30  1  0  0  0
 30 31  1  0  0  0
 31 23  1  0  0  0
 23 24  1  0  0  0
 24 25  2  0  0  0
 24  1  1  0  0  0
  1  2  2  0  0  0
  2  3  1  0  0  0
  3  4  2  0  0  0
  4  5  1  0  0  0
  5  6  2  0  0  0
  6  7  1  0  0  0
  3 10  1  0  0  0
 10 11  2  0  0  0
 11 12  1  0  0  0
 12 13  2  0  0  0
 13 16  1  0  0  0
 16 17  1  0  0  0
 17 18  1  0  0  0
 18 19  1  0  0  0
 19 20  1  0  0  0
 20 21  1  0  0  0
 21 22  1  0  0  0
 13 14  1  0  0  0
 14 15  2  0  0  0
 38 39  1  0  0  0
 39 40  2  0  0  0
 40 41  1  0  0  0
 40 35  1  0  0  0
 31 27  1  0  0  0
  6  1  1  0  0  0
 15 10  1  0  0  0
 22 17  1  0  0  0
 23 26  1  0  0  0
  7  8  1  0  0  0
  7  9  1  0  0  0
M  END
> <minimizedAffinity>
-8.69983

> <CNNscore>
0.1993907243

> <CNNaffinity>
6.1995553970

> <CNN_VS>
1.2361338139

> <CNNaffinity_variance>
0.3237752318

$$$$
[H]c1c([H])c(-c2nn(C([H])([H])C3([H])C([H])([H])C([H])([H])C([H])(N([H])[H])C([H])([H])C3([H])[H])c3nc(N([H])C([H])([H])[H])nc([H])c23)c([H])c([H])c1Cl


 29 32  0  0  0  0  0  0  0  0999 V2000
    2.9414    0.0742   18.7972 C   0  0  0  0  0  0  0  0  0  0  0  0
    2.4099   -0.2193   17.5969 N   0  0  0  0  0  0  0  0  0  0  0  0
    2.6060    0.5649   16.5509 C   0  0  0  0  0  0  0  0  0  0  0  0
    3.3809    1.7118   16.7168 C   0  0  0  0  0  0  0  0  0  0  0  0
    3.7617    2.7149   15.8725 C   0  0  0  0  0  0  0  0  0  0  0  0
    4.5019    3.5647   16.5977 N   0  0  0  0  0  0  0  0  0  0  0  0
    4.6110    3.1486   17.8655 N   0  0  0  0  0  0  0  0  0  0  0  0
    3.9252    2.0080   17.9542 C   0  0  0  0  0  0  0  0  0  0  0  0
    3.6946    1.1829   18.9718 N   0  0  0  0  0  0  0  0  0  0  0  0
    3.4060    2.8069   14.4659 C   0  0  0  0  0  0  0  0  0  0  0  0
    2.6072    1.9043   13.8073 C   0  0  0  0  0  0  0  0  0  0  0  0
    2.3204    2.0789   12.4674 C   0  0  0  0  0  0  0  0  0  0  0  0
    2.8336    3.1557   11.7906 C   0  0  0  0  0  0  0  0  0  0  0  0
    2.4619    3.3698   10.0814 Cl  0  0  0  0  0  0  0  0  0  0  0  0
    3.6305    4.0631   12.4320 C   0  0  0  0  0  0  0  0  0  0  0  0
    3.9196    3.8936   13.7686 C   0  0  0  0  0  0  0  0  0  0  0  0
    3.2683   -0.5831   21.1638 C   0  0  0  0  0  0  0  0  0  0  0  0
    2.6937   -0.8052   19.8747 N   0  0  0  0  0  0  0  0  0  0  0  0
    2.0809   -1.6282   19.7226 H   0  0  0  0  0  0  0  0  0  0  0  0
    5.3753    3.8801   18.8513 C   0  0  0  0  0  0  0  0  0  0  0  0
    4.9668    5.3001   19.0106 C   0  0  0  0  0  0  0  0  0  0  0  0
    5.9816    6.2471   19.5326 C   0  0  0  0  0  0  0  0  0  0  0  0
    6.2417    6.0914   21.0160 C   0  0  0  0  0  0  0  0  0  0  0  0
    4.9586    6.1409   21.8149 C   0  0  0  0  0  0  0  0  0  0  0  0
    4.4904    7.5280   21.9537 N   0  0  0  0  0  0  0  0  0  0  0  0
    3.8879    5.2522   21.2741 C   0  0  0  0  0  0  0  0  0  0  0  0
    3.6704    5.3604   19.7990 C   0  0  0  0  0  0  0  0  0  0  0  0
    3.7651    7.5556   22.7049 H   0  0  0  0  0  0  0  0  0  0  0  0
    4.0288    7.8638   21.0796 H   0  0  0  0  0  0  0  0  0  0  0  0
 17 18  1  0  0  0
 18  1  1  0  0  0
  1  2  2  0  0  0
  2  3  1  0  0  0
  3  4  2  0  0  0
  4  5  1  0  0  0
  5  6  2  0  0  0
  6  7  1  0  0  0
  7 20  1  0  0  0
 20 21  1  0  0  0
 21 22  1  0  0  0
 22 23  1  0  0  0
 23 24  1  0  0  0
 24 25  1  0  0  0
 24 26  1  0  0  0
 26 27  1  0  0  0
  7  8  1  0  0  0
  8  9  2  0  0  0
  5 10  1  0  0  0
 10 11  2  0  0  0
 11 12  1  0  0  0
 12 13  2  0  0  0
 13 14  1  0  0  0
 13 15  1  0  0  0
 15 16  2  0  0  0
  9  1  1  0  0  0
 16 10  1  0  0  0
  8  4  1  0  0  0
 27 21  1  0  0  0
 18 19  1  0  0  0
 25 28  1  0  0  0
 25 29  1  0  0  0
M  END
> <minimizedAffinity>
-9.15948

> <CNNscore>
0.8397930264

> <CNNaffinity>
7.1013488770

> <CNN_VS>
5.9636631012

> <CNNaffinity_variance>
0.3467551768

$$$$
[H]c1c([H])c(-c2nn(C([H])([H])C3([H])C([H])([H])C([H])([H])C([H])(N([H])[H])C([H])([H])C3([H])[H])c3nc(N([H])C([H])([H])[H])nc([H])c23)c([H])c([H])c1Cl


 29 32  0  0  0  0  0  0  0  0999 V2000
    2.9792    0.0635   18.9264 C   0  0  0  0  0  0  0  0  0  0  0  0
    2.4330   -0.2277   17.7322 N   0  0  0  0  0  0  0  0  0  0  0  0
    2.6219    0.5548   16.6836 C   0  0  0  0  0  0  0  0  0  0  0  0
    3.4048    1.6975   16.8403 C   0  0  0  0  0  0  0  0  0  0  0  0
    3.7818    2.6981   15.9913 C   0  0  0  0  0  0  0  0  0  0  0  0
    4.5345    3.5442   16.7078 N   0  0  0  0  0  0  0  0  0  0  0  0
    4.6552    3.1283   17.9746 N   0  0  0  0  0  0  0  0  0  0  0  0
    3.9642    1.9915   18.0715 C   0  0  0  0  0  0  0  0  0  0  0  0
    3.7402    1.1682   19.0920 N   0  0  0  0  0  0  0  0  0  0  0  0
    3.4113    2.7912   14.5886 C   0  0  0  0  0  0  0  0  0  0  0  0
    2.6120    1.8849   13.9358 C   0  0  0  0  0  0  0  0  0  0  0  0
    2.3105    2.0609   12.5992 C   0  0  0  0  0  0  0  0  0  0  0  0
    2.8095    3.1430   11.9201 C   0  0  0  0  0  0  0  0  0  0  0  0
    2.4190    3.3588   10.2153 Cl  0  0  0  0  0  0  0  0  0  0  0  0
    3.6067    4.0541   12.5558 C   0  0  0  0  0  0  0  0  0  0  0  0
    3.9104    3.8832   13.8889 C   0  0  0  0  0  0  0  0  0  0  0  0
    3.4131   -0.6579   21.2568 C   0  0  0  0  0  0  0  0  0  0  0  0
    2.7385   -0.8139   20.0071 N   0  0  0  0  0  0  0  0  0  0  0  0
    2.0567   -1.5863   19.8866 H   0  0  0  0  0  0  0  0  0  0  0  0
    5.4342    3.8561   18.9516 C   0  0  0  0  0  0  0  0  0  0  0  0
    4.6469    4.3643   20.1051 C   0  0  0  0  0  0  0  0  0  0  0  0
    3.6379    5.4161   19.8315 C   0  0  0  0  0  0  0  0  0  0  0  0
    4.2456    6.7774   19.5676 C   0  0  0  0  0  0  0  0  0  0  0  0
    5.2015    7.1835   20.6668 C   0  0  0  0  0  0  0  0  0  0  0  0
    4.4608    7.6467   21.8498 N   0  0  0  0  0  0  0  0  0  0  0  0
    6.1876    6.1195   21.0190 C   0  0  0  0  0  0  0  0  0  0  0  0
    5.5972    4.7610   21.2211 C   0  0  0  0  0  0  0  0  0  0  0  0
    5.1276    8.1477   22.4786 H   0  0  0  0  0  0  0  0  0  0  0  0
    4.0778    6.8449   22.3977 H   0  0  0  0  0  0  0  0  0  0  0  0
 17 18  1  0  0  0
 18  1  1  0  0  0
  1  2  2  0  0  0
  2  3  1  0  0  0
  3  4  2  0  0  0
  4  5  1  0  0  0
  5  6  2  0  0  0
  6  7  1  0  0  0
  7 20  1  0  0  0
 20 21  1  0  0  0
 21 22  1  0  0  0
 22 23  1  0  0  0
 23 24  1  0  0  0
 24 25  1  0  0  0
 24 26  1  0  0  0
 26 27  1  0  0  0
  7  8  1  0  0  0
  8  9  2  0  0  0
  5 10  1  0  0  0
 10 11  2  0  0  0
 11 12  1  0  0  0
 12 13  2  0  0  0
 13 14  1  0  0  0
 13 15  1  0  0  0
 15 16  2  0  0  0
  9  1  1  0  0  0
 16 10  1  0  0  0
  8  4  1  0  0  0
 27 21  1  0  0  0
 18 19  1  0  0  0
 25 28  1  0  0  0
 25 29  1  0  0  0
M  END
> <minimizedAffinity>
-9.14005

> <CNNscore>
0.8278523684

> <CNNaffinity>
7.0775299072

> <CNN_VS>
5.8591499329

> <CNNaffinity_variance>
0.3335062861

$$$$
[H]c1c([H])c(-c2nn(C([H])([H])C3([H])C([H])([H])C([H])([H])C([H])(N([H])[H])C([H])([H])C3([H])[H])c3nc(N([H])C([H])([H])[H])nc([H])c23)c([H])c([H])c1Cl


 29 32  0  0  0  0  0  0  0  0999 V2000
    3.6267    0.9711   18.7051 C   0  0  0  0  0  0  0  0  0  0  0  0
    2.9616    0.4418   17.6626 N   0  0  0  0  0  0  0  0  0  0  0  0
    2.8742    1.0824   16.5096 C   0  0  0  0  0  0  0  0  0  0  0  0
    3.4898    2.3278   16.3935 C   0  0  0  0  0  0  0  0  0  0  0  0
    3.5825    3.2356   15.3779 C   0  0  0  0  0  0  0  0  0  0  0  0
    4.2955    4.2669   15.8509 N   0  0  0  0  0  0  0  0  0  0  0  0
    4.6623    4.0577   17.1213 N   0  0  0  0  0  0  0  0  0  0  0  0
    4.1728    2.8668   17.4697 C   0  0  0  0  0  0  0  0  0  0  0  0
    4.2281    2.1775   18.6060 N   0  0  0  0  0  0  0  0  0  0  0  0
    3.0004    3.0760   14.0554 C   0  0  0  0  0  0  0  0  0  0  0  0
    3.6962    3.2169   12.8796 C   0  0  0  0  0  0  0  0  0  0  0  0
    3.0560    3.0407   11.6682 C   0  0  0  0  0  0  0  0  0  0  0  0
    1.7219    2.7244   11.6370 C   0  0  0  0  0  0  0  0  0  0  0  0
    0.9141    2.5016   10.0867 Cl  0  0  0  0  0  0  0  0  0  0  0  0
    1.0151    2.5808   12.7988 C   0  0  0  0  0  0  0  0  0  0  0  0
    1.6490    2.7554   14.0098 C   0  0  0  0  0  0  0  0  0  0  0  0
    3.0731    0.7207   21.1073 C   0  0  0  0  0  0  0  0  0  0  0  0
    3.6826    0.2353   19.9097 N   0  0  0  0  0  0  0  0  0  0  0  0
    4.1776   -0.6762   19.9207 H   0  0  0  0  0  0  0  0  0  0  0  0
    5.4571    5.0141   17.8593 C   0  0  0  0  0  0  0  0  0  0  0  0
    4.9022    5.3716   19.1909 C   0  0  0  0  0  0  0  0  0  0  0  0
    3.6752    6.2039   19.2171 C   0  0  0  0  0  0  0  0  0  0  0  0
    3.9256    7.6546   18.8636 C   0  0  0  0  0  0  0  0  0  0  0  0
    5.0310    8.2506   19.7062 C   0  0  0  0  0  0  0  0  0  0  0  0
    4.5363    8.5733   21.0530 N   0  0  0  0  0  0  0  0  0  0  0  0
    6.2583    7.4026   19.7614 C   0  0  0  0  0  0  0  0  0  0  0  0
    6.0082    5.9574   20.0508 C   0  0  0  0  0  0  0  0  0  0  0  0
    5.2311    9.2012   21.5157 H   0  0  0  0  0  0  0  0  0  0  0  0
    4.4635    7.7182   21.6473 H   0  0  0  0  0  0  0  0  0  0  0  0
 17 18  1  0  0  0
 18  1  1  0  0  0
  1  2  2  0  0  0
  2  3  1  0  0  0
  3  4  2  0  0  0
  4  5  1  0  0  0
  5  6  2  0  0  0
  6  7  1  0  0  0
  7 20  1  0  0  0
 20 21  1  0  0  0
 21 22  1  0  0  0
 22 23  1  0  0  0
 23 24  1  0  0  0
 24 25  1  0  0  0
 24 26  1  0  0  0
 26 27  1  0  0  0
  7  8  1  0  0  0
  8  9  2  0  0  0
  5 10  1  0  0  0
 10 11  2  0  0  0
 11 12  1  0  0  0
 12 13  2  0  0  0
 13 14  1  0  0  0
 13 15  1  0  0  0
 15 16  2  0  0  0
  9  1  1  0  0  0
 16 10  1  0  0  0
  8  4  1  0  0  0
 27 21  1  0  0  0
 18 19  1  0  0  0
 25 28  1  0  0  0
 25 29  1  0  0  0
M  END
> <minimizedAffinity>
-7.49905

> <CNNscore>
0.6079186201

> <CNNaffinity>
6.7649641037

> <CNN_VS>
4.1125478745

> <CNNaffinity_variance>
0.6233217716

$$$$
[H]c1c([H])c(-c2nn(C([H])([H])C3([H])C([H])([H])C([H])([H])C([H])(N([H])[H])C([H])([H])C3([H])[H])c3nc(N([H])C([H])([H])[H])nc([H])c23)c([H])c([H])c1Cl


 29 32  0  0  0  0  0  0  0  0999 V2000
    4.0779    1.2903   19.5554 C   0  0  0  0  0  0  0  0  0  0  0  0
    3.5389    0.6050   18.5312 N   0  0  0  0  0  0  0  0  0  0  0  0
    3.3557    1.1700   17.3502 C   0  0  0  0  0  0  0  0  0  0  0  0
    3.7351    2.5012   17.1850 C   0  0  0  0  0  0  0  0  0  0  0  0
    3.6777    3.3675   16.1311 C   0  0  0  0  0  0  0  0  0  0  0  0
    4.1818    4.5309   16.5647 N   0  0  0  0  0  0  0  0  0  0  0  0
    4.5586    4.4457   17.8466 N   0  0  0  0  0  0  0  0  0  0  0  0
    4.2893    3.2008   18.2426 C   0  0  0  0  0  0  0  0  0  0  0  0
    4.4501    2.5814   19.4087 N   0  0  0  0  0  0  0  0  0  0  0  0
    3.1575    3.0488   14.8116 C   0  0  0  0  0  0  0  0  0  0  0  0
    3.6706    3.5402   13.6362 C   0  0  0  0  0  0  0  0  0  0  0  0
    3.1103    3.1754   12.4274 C   0  0  0  0  0  0  0  0  0  0  0  0
    2.0383    2.3203   12.3983 C   0  0  0  0  0  0  0  0  0  0  0  0
    1.3305    1.8609   10.8513 Cl  0  0  0  0  0  0  0  0  0  0  0  0
    1.5158    1.8226   13.5598 C   0  0  0  0  0  0  0  0  0  0  0  0
    2.0711    2.1833   14.7682 C   0  0  0  0  0  0  0  0  0  0  0  0
    3.2142    0.6211   21.7793 C   0  0  0  0  0  0  0  0  0  0  0  0
    4.2467    0.6282   20.7918 N   0  0  0  0  0  0  0  0  0  0  0  0
    5.1406    0.1378   20.9828 H   0  0  0  0  0  0  0  0  0  0  0  0
    5.1522    5.5616   18.5490 C   0  0  0  0  0  0  0  0  0  0  0  0
    4.2017    6.3228   19.4009 C   0  0  0  0  0  0  0  0  0  0  0  0
    4.1760    7.7972   19.2443 C   0  0  0  0  0  0  0  0  0  0  0  0
    5.3753    8.4876   19.8586 C   0  0  0  0  0  0  0  0  0  0  0  0
    5.5777    8.0757   21.2996 C   0  0  0  0  0  0  0  0  0  0  0  0
    4.6204    8.7697   22.1740 N   0  0  0  0  0  0  0  0  0  0  0  0
    5.5372    6.5978   21.5058 C   0  0  0  0  0  0  0  0  0  0  0  0
    4.3863    5.9054   20.8493 C   0  0  0  0  0  0  0  0  0  0  0  0
    4.9430    8.6647   23.1619 H   0  0  0  0  0  0  0  0  0  0  0  0
    3.6722    8.3360   22.1212 H   0  0  0  0  0  0  0  0  0  0  0  0
 17 18  1  0  0  0
 18  1  1  0  0  0
  1  2  2  0  0  0
  2  3  1  0  0  0
  3  4  2  0  0  0
  4  5  1  0  0  0
  5  6  2  0  0  0
  6  7  1  0  0  0
  7 20  1  0  0  0
 20 21  1  0  0  0
 21 22  1  0  0  0
 22 23  1  0  0  0
 23 24  1  0  0  0
 24 25  1  0  0  0
 24 26  1  0  0  0
 26 27  1  0  0  0
  7  8  1  0  0  0
  8  9  2  0  0  0
  5 10  1  0  0  0
 10 11  2  0  0  0
 11 12  1  0  0  0
 12 13  2  0  0  0
 13 14  1  0  0  0
 13 15  1  0  0  0
 15 16  2  0  0  0
  9  1  1  0  0  0
 16 10  1  0  0  0
  8  4  1  0  0  0
 27 21  1  0  0  0
 18 19  1  0  0  0
 25 28  1  0  0  0
 25 29  1  0  0  0
M  END
> <minimizedAffinity>
-8.41547

> <CNNscore>
0.5011848807

> <CNNaffinity>
6.7234330177

> <CNN_VS>
3.3696830273

> <CNNaffinity_variance>
0.8034269214

$$$$
[H]c1c([H])c(-c2nn(C([H])([H])C3([H])C([H])([H])C([H])([H])C([H])(N([H])[H])C([H])([H])C3([H])[H])c3nc(N([H])C([H])([H])[H])nc([H])c23)c([H])c([H])c1Cl


 29 32  0  0  0  0  0  0  0  0999 V2000
    2.2326    0.8329    9.7011 C   0  0  0  0  0  0  0  0  0  0  0  0
    1.1315    0.9736   10.4607 N   0  0  0  0  0  0  0  0  0  0  0  0
    0.6888    2.1692   10.8101 C   0  0  0  0  0  0  0  0  0  0  0  0
    1.3909    3.2912   10.3726 C   0  0  0  0  0  0  0  0  0  0  0  0
    1.2188    4.6334   10.5546 C   0  0  0  0  0  0  0  0  0  0  0  0
    2.2190    5.2393    9.9001 N   0  0  0  0  0  0  0  0  0  0  0  0
    3.0204    4.3447    9.3086 N   0  0  0  0  0  0  0  0  0  0  0  0
    2.5229    3.1398    9.5910 C   0  0  0  0  0  0  0  0  0  0  0  0
    2.9226    1.9123    9.2701 N   0  0  0  0  0  0  0  0  0  0  0  0
    0.1460    5.2444   11.3221 C   0  0  0  0  0  0  0  0  0  0  0  0
   -1.1786    5.2189   10.9600 C   0  0  0  0  0  0  0  0  0  0  0  0
   -2.1289    5.8251   11.7587 C   0  0  0  0  0  0  0  0  0  0  0  0
   -1.7510    6.4548   12.9170 C   0  0  0  0  0  0  0  0  0  0  0  0
   -2.9706    7.2251   13.9292 Cl  0  0  0  0  0  0  0  0  0  0  0  0
   -0.4362    6.4890   13.2913 C   0  0  0  0  0  0  0  0  0  0  0  0
    0.5156    5.8859   12.4981 C   0  0  0  0  0  0  0  0  0  0  0  0
    2.0676   -1.1835    8.2706 C   0  0  0  0  0  0  0  0  0  0  0  0
    2.6530   -0.4727    9.3629 N   0  0  0  0  0  0  0  0  0  0  0  0
    3.4029   -0.9211    9.9220 H   0  0  0  0  0  0  0  0  0  0  0  0
    4.1669    4.7418    8.5219 C   0  0  0  0  0  0  0  0  0  0  0  0
    5.3247    5.2145    9.3249 C   0  0  0  0  0  0  0  0  0  0  0  0
    6.1293    6.3298    8.7701 C   0  0  0  0  0  0  0  0  0  0  0  0
    7.0194    5.9135    7.6182 C   0  0  0  0  0  0  0  0  0  0  0  0
    7.8782    4.7224    7.9799 C   0  0  0  0  0  0  0  0  0  0  0  0
    9.0114    5.1392    8.8194 N   0  0  0  0  0  0  0  0  0  0  0  0
    7.1112    3.6066    8.6086 C   0  0  0  0  0  0  0  0  0  0  0  0
    6.1861    4.0235    9.7065 C   0  0  0  0  0  0  0  0  0  0  0  0
    9.7083    4.3614    8.8392 H   0  0  0  0  0  0  0  0  0  0  0  0
    8.7149    5.3005    9.8073 H   0  0  0  0  0  0  0  0  0  0  0  0
 17 18  1  0  0  0
 18  1  1  0  0  0
  1  2  2  0  0  0
  2  3  1  0  0  0
  3  4  2  0  0  0
  4  5  1  0  0  0
  5  6  2  0  0  0
  6  7  1  0  0  0
  7 20  1  0  0  0
 20 21  1  0  0  0
 21 22  1  0  0  0
 22 23  1  0  0  0
 23 24  1  0  0  0
 24 25  1  0  0  0
 24 26  1  0  0  0
 26 27  1  0  0  0
  7  8  1  0  0  0
  8  9  2  0  0  0
  5 10  1  0  0  0
 10 11  2  0  0  0
 11 12  1  0  0  0
 12 13  2  0  0  0
 13 14  1  0  0  0
 13 15  1  0  0  0
 15 16  2  0  0  0
  9  1  1  0  0  0
 16 10  1  0  0  0
  8  4  1  0  0  0
 27 21  1  0  0  0
 18 19  1  0  0  0
 25 28  1  0  0  0
 25 29  1  0  0  0
M  END
> <minimizedAffinity>
-4.59910

> <CNNscore>
0.4574575722

> <CNNaffinity>
5.5003151894

> <CNN_VS>
2.5161607265

> <CNNaffinity_variance>
0.6170052886

$$$$
[H]c1c([H])c(-c2nn(C([H])([H])C3([H])C([H])([H])C([H])([H])C([H])(N([H])[H])C([H])([H])C3([H])[H])c3nc(N([H])C([H])([H])[H])nc([H])c23)c([H])c([H])c1Cl


 29 32  0  0  0  0  0  0  0  0999 V2000
    0.1978    7.0602    5.3494 C   0  0  0  0  0  0  0  0  0  0  0  0
    1.0160    7.1003    4.2826 N   0  0  0  0  0  0  0  0  0  0  0  0
    2.2564    7.5453    4.3873 C   0  0  0  0  0  0  0  0  0  0  0  0
    2.7042    7.9761    5.6352 C   0  0  0  0  0  0  0  0  0  0  0  0
    3.8892    8.4890    6.0790 C   0  0  0  0  0  0  0  0  0  0  0  0
    3.7334    8.7344    7.3872 N   0  0  0  0  0  0  0  0  0  0  0  0
    2.5036    8.4008    7.7977 N   0  0  0  0  0  0  0  0  0  0  0  0
    1.8575    7.9321    6.7290 C   0  0  0  0  0  0  0  0  0  0  0  0
    0.6192    7.4747    6.5649 N   0  0  0  0  0  0  0  0  0  0  0  0
    5.0661    8.7135    5.2558 C   0  0  0  0  0  0  0  0  0  0  0  0
    5.2672    8.1494    4.0198 C   0  0  0  0  0  0  0  0  0  0  0  0
    6.4184    8.4270    3.3085 C   0  0  0  0  0  0  0  0  0  0  0  0
    7.3647    9.2680    3.8359 C   0  0  0  0  0  0  0  0  0  0  0  0
    8.8299    9.6160    2.9208 Cl  0  0  0  0  0  0  0  0  0  0  0  0
    7.1794    9.8375    5.0652 C   0  0  0  0  0  0  0  0  0  0  0  0
    6.0328    9.5639    5.7788 C   0  0  0  0  0  0  0  0  0  0  0  0
   -2.2271    7.4621    5.0363 C   0  0  0  0  0  0  0  0  0  0  0  0
   -1.1163    6.5736    5.1702 N   0  0  0  0  0  0  0  0  0  0  0  0
   -1.2737    5.5489    5.1356 H   0  0  0  0  0  0  0  0  0  0  0  0
    2.0854    8.5509    9.1738 C   0  0  0  0  0  0  0  0  0  0  0  0
    2.6068    7.5022   10.0887 C   0  0  0  0  0  0  0  0  0  0  0  0
    2.3944    6.0880    9.6962 C   0  0  0  0  0  0  0  0  0  0  0  0
    0.9651    5.6224    9.8773 C   0  0  0  0  0  0  0  0  0  0  0  0
    0.4606    5.9029   11.2750 C   0  0  0  0  0  0  0  0  0  0  0  0
    0.9949    4.9150   12.2244 N   0  0  0  0  0  0  0  0  0  0  0  0
    0.7227    7.2998   11.7316 C   0  0  0  0  0  0  0  0  0  0  0  0
    2.1181    7.7831   11.4988 C   0  0  0  0  0  0  0  0  0  0  0  0
    0.4420    4.9775   13.1084 H   0  0  0  0  0  0  0  0  0  0  0  0
    1.9860    5.1255   12.4760 H   0  0  0  0  0  0  0  0  0  0  0  0
 17 18  1  0  0  0
 18  1  1  0  0  0
  1  2  2  0  0  0
  2  3  1  0  0  0
  3  4  2  0  0  0
  4  5  1  0  0  0
  5  6  2  0  0  0
  6  7  1  0  0  0
  7 20  1  0  0  0
 20 21  1  0  0  0
 21 22  1  0  0  0
 22 23  1  0  0  0
 23 24  1  0  0  0
 24 25  1  0  0  0
 24 26  1  0  0  0
 26 27  1  0  0  0
  7  8  1  0  0  0
  8  9  2  0  0  0
  5 10  1  0  0  0
 10 11  2  0  0  0
 11 12  1  0  0  0
 12 13  2  0  0  0
 13 14  1  0  0  0
 13 15  1  0  0  0
 15 16  2  0  0  0
  9  1  1  0  0  0
 16 10  1  0  0  0
  8  4  1  0  0  0
 27 21  1  0  0  0
 18 19  1  0  0  0
 25 28  1  0  0  0
 25 29  1  0  0  0
M  END
> <minimizedAffinity>
-4.78552

> <CNNscore>
0.4131666422

> <CNNaffinity>
5.1917395592

> <CNN_VS>
2.1450536251

> <CNNaffinity_variance>
0.2509321570

$$$$
[H]c1c([H])c(-c2nn(C([H])([H])C3([H])C([H])([H])C([H])([H])C([H])(N([H])[H])C([H])([H])C3([H])[H])c3nc(N([H])C([H])([H])[H])nc([H])c23)c([H])c([H])c1Cl


 29 32  0  0  0  0  0  0  0  0999 V2000
    3.5194    2.2356   16.1906 C   0  0  0  0  0  0  0  0  0  0  0  0
    3.7727    1.3343   17.1564 N   0  0  0  0  0  0  0  0  0  0  0  0
    4.0652    1.7144   18.3882 C   0  0  0  0  0  0  0  0  0  0  0  0
    4.1066    3.0790   18.6698 C   0  0  0  0  0  0  0  0  0  0  0  0
    4.3783    3.7940   19.8009 C   0  0  0  0  0  0  0  0  0  0  0  0
    4.2775    5.0883   19.4684 N   0  0  0  0  0  0  0  0  0  0  0  0
    3.9533    5.2310   18.1773 N   0  0  0  0  0  0  0  0  0  0  0  0
    3.8447    4.0014   17.6719 C   0  0  0  0  0  0  0  0  0  0  0  0
    3.5561    3.5616   16.4502 N   0  0  0  0  0  0  0  0  0  0  0  0
    4.7127    3.2212   21.0945 C   0  0  0  0  0  0  0  0  0  0  0  0
    3.9017    2.3625   21.7955 C   0  0  0  0  0  0  0  0  0  0  0  0
    4.3089    1.8651   23.0182 C   0  0  0  0  0  0  0  0  0  0  0  0
    5.5259    2.2283   23.5357 C   0  0  0  0  0  0  0  0  0  0  0  0
    6.0365    1.5884   25.0963 Cl  0  0  0  0  0  0  0  0  0  0  0  0
    6.3448    3.0824   22.8502 C   0  0  0  0  0  0  0  0  0  0  0  0
    5.9433    3.5813   21.6301 C   0  0  0  0  0  0  0  0  0  0  0  0
    1.8971    1.8809   14.3516 C   0  0  0  0  0  0  0  0  0  0  0  0
    3.2133    1.7636   14.8948 N   0  0  0  0  0  0  0  0  0  0  0  0
    3.9629    1.3233   14.3289 H   0  0  0  0  0  0  0  0  0  0  0  0
    3.7655    6.5304   17.5711 C   0  0  0  0  0  0  0  0  0  0  0  0
    4.7846    6.8801   16.5475 C   0  0  0  0  0  0  0  0  0  0  0  0
    5.6840    8.0215   16.8429 C   0  0  0  0  0  0  0  0  0  0  0  0
    5.0057    9.3692   16.7170 C   0  0  0  0  0  0  0  0  0  0  0  0
    4.3172    9.5236   15.3794 C   0  0  0  0  0  0  0  0  0  0  0  0
    5.2985    9.8212   14.3253 N   0  0  0  0  0  0  0  0  0  0  0  0
    3.4582    8.3581   15.0158 C   0  0  0  0  0  0  0  0  0  0  0  0
    4.1056    7.0227   15.1967 C   0  0  0  0  0  0  0  0  0  0  0  0
    4.7826   10.1667   13.4853 H   0  0  0  0  0  0  0  0  0  0  0  0
    5.8117    8.9619   14.0287 H   0  0  0  0  0  0  0  0  0  0  0  0
 17 18  1  0  0  0
 18  1  1  0  0  0
  1  2  2  0  0  0
  2  3  1  0  0  0
  3  4  2  0  0  0
  4  5  1  0  0  0
  5  6  2  0  0  0
  6  7  1  0  0  0
  7 20  1  0  0  0
 20 21  1  0  0  0
 21 22  1  0  0  0
 22 23  1  0  0  0
 23 24  1  0  0  0
 24 25  1  0  0  0
 24 26  1  0  0  0
 26 27  1  0  0  0
  7  8  1  0  0  0
  8  9  2  0  0  0
  5 10  1  0  0  0
 10 11  2  0  0  0
 11 12  1  0  0  0
 12 13  2  0  0  0
 13 14  1  0  0  0
 13 15  1  0  0  0
 15 16  2  0  0  0
  9  1  1  0  0  0
 16 10  1  0  0  0
  8  4  1  0  0  0
 27 21  1  0  0  0
 18 19  1  0  0  0
 25 28  1  0  0  0
 25 29  1  0  0  0
M  END
> <minimizedAffinity>
-7.38171

> <CNNscore>
0.3770222068

> <CNNaffinity>
6.2590894699

> <CNN_VS>
2.3598158360

> <CNNaffinity_variance>
0.3771416545

$$$$
[H]c1c([H])c(-c2nn(C([H])([H])C3([H])C([H])([H])C([H])([H])C([H])(N([H])[H])C([H])([H])C3([H])[H])c3nc(N([H])C([H])([H])[H])nc([H])c23)c([H])c([H])c1Cl


 29 32  0  0  0  0  0  0  0  0999 V2000
   -0.6786    3.4193   10.1489 C   0  0  0  0  0  0  0  0  0  0  0  0
   -0.5009    2.2833    9.4509 N   0  0  0  0  0  0  0  0  0  0  0  0
    0.7040    1.7687    9.2755 C   0  0  0  0  0  0  0  0  0  0  0  0
    1.7966    2.4313    9.8327 C   0  0  0  0  0  0  0  0  0  0  0  0
    3.1398    2.1861    9.8335 C   0  0  0  0  0  0  0  0  0  0  0  0
    3.7095    3.1803   10.5283 N   0  0  0  0  0  0  0  0  0  0  0  0
    2.7908    4.0477   10.9710 N   0  0  0  0  0  0  0  0  0  0  0  0
    1.6072    3.5995   10.5500 C   0  0  0  0  0  0  0  0  0  0  0  0
    0.3720    4.0717   10.6943 N   0  0  0  0  0  0  0  0  0  0  0  0
    3.7856    1.0548    9.1881 C   0  0  0  0  0  0  0  0  0  0  0  0
    3.9427   -0.1815    9.7654 C   0  0  0  0  0  0  0  0  0  0  0  0
    4.5672   -1.1986    9.0698 C   0  0  0  0  0  0  0  0  0  0  0  0
    5.0325   -0.9756    7.7990 C   0  0  0  0  0  0  0  0  0  0  0  0
    5.8276   -2.2795    6.9198 Cl  0  0  0  0  0  0  0  0  0  0  0  0
    4.8839    0.2496    7.2105 C   0  0  0  0  0  0  0  0  0  0  0  0
    4.2617    1.2676    7.9000 C   0  0  0  0  0  0  0  0  0  0  0  0
   -2.3409    5.2368    9.8786 C   0  0  0  0  0  0  0  0  0  0  0  0
   -1.9922    3.9167   10.2995 N   0  0  0  0  0  0  0  0  0  0  0  0
   -2.7159    3.3075   10.7250 H   0  0  0  0  0  0  0  0  0  0  0  0
    3.1446    5.2035   11.7647 C   0  0  0  0  0  0  0  0  0  0  0  0
    3.1451    6.4848   11.0117 C   0  0  0  0  0  0  0  0  0  0  0  0
    3.7085    6.4694    9.6400 C   0  0  0  0  0  0  0  0  0  0  0  0
    5.2197    6.3814    9.6122 C   0  0  0  0  0  0  0  0  0  0  0  0
    5.8560    7.4500   10.4726 C   0  0  0  0  0  0  0  0  0  0  0  0
    5.8317    8.7492    9.7839 N   0  0  0  0  0  0  0  0  0  0  0  0
    5.2630    7.5427   11.8395 C   0  0  0  0  0  0  0  0  0  0  0  0
    3.7686    7.5689   11.8731 C   0  0  0  0  0  0  0  0  0  0  0  0
    6.4880    9.3944   10.2779 H   0  0  0  0  0  0  0  0  0  0  0  0
    4.8862    9.1890    9.8330 H   0  0  0  0  0  0  0  0  0  0  0  0
 17 18  1  0  0  0
 18  1  1  0  0  0
  1  2  2  0  0  0
  2  3  1  0  0  0
  3  4  2  0  0  0
  4  5  1  0  0  0
  5  6  2  0  0  0
  6  7  1  0  0  0
  7 20  1  0  0  0
 20 21  1  0  0  0
 21 22  1  0  0  0
 22 23  1  0  0  0
 23 24  1  0  0  0
 24 25  1  0  0  0
 24 26  1  0  0  0
 26 27  1  0  0  0
  7  8  1  0  0  0
  8  9  2  0  0  0
  5 10  1  0  0  0
 10 11  2  0  0  0
 11 12  1  0  0  0
 12 13  2  0  0  0
 13 14  1  0  0  0
 13 15  1  0  0  0
 15 16  2  0  0  0
  9  1  1  0  0  0
 16 10  1  0  0  0
  8  4  1  0  0  0
 27 21  1  0  0  0
 18 19  1  0  0  0
 25 28  1  0  0  0
 25 29  1  0  0  0
M  END
> <minimizedAffinity>
-4.58914

> <CNNscore>
0.3661974072

> <CNNaffinity>
5.4843416214

> <CNN_VS>
2.0083515644

> <CNNaffinity_variance>
0.8874044418

$$$$
[H]c1c([H])c(-c2nn(C([H])([H])C3([H])C([H])([H])C([H])([H])C([H])(N([H])[H])C([H])([H])C3([H])[H])c3nc(N([H])C([H])([H])[H])nc([H])c23)c([H])c([H])c1Cl


 29 32  0  0  0  0  0  0  0  0999 V2000
    3.6838    1.2484   19.1174 C   0  0  0  0  0  0  0  0  0  0  0  0
    4.1515    2.1631   19.9856 N   0  0  0  0  0  0  0  0  0  0  0  0
    4.5414    3.3584   19.5773 C   0  0  0  0  0  0  0  0  0  0  0  0
    4.4578    3.6556   18.2178 C   0  0  0  0  0  0  0  0  0  0  0  0
    4.7765    4.7587   17.4791 C   0  0  0  0  0  0  0  0  0  0  0  0
    4.4885    4.4615   16.2045 N   0  0  0  0  0  0  0  0  0  0  0  0
    4.0001    3.2196   16.0971 N   0  0  0  0  0  0  0  0  0  0  0  0
    3.9754    2.7102   17.3296 C   0  0  0  0  0  0  0  0  0  0  0  0
    3.5975    1.5235   17.7969 N   0  0  0  0  0  0  0  0  0  0  0  0
    5.3250    5.9949   18.0124 C   0  0  0  0  0  0  0  0  0  0  0  0
    4.5678    7.0487   18.4624 C   0  0  0  0  0  0  0  0  0  0  0  0
    5.1810    8.1831   18.9577 C   0  0  0  0  0  0  0  0  0  0  0  0
    6.5497    8.2597   19.0011 C   0  0  0  0  0  0  0  0  0  0  0  0
    7.3227    9.7111   19.6347 Cl  0  0  0  0  0  0  0  0  0  0  0  0
    7.3176    7.2191   18.5567 C   0  0  0  0  0  0  0  0  0  0  0  0
    6.7108    6.0852   18.0618 C   0  0  0  0  0  0  0  0  0  0  0  0
    2.8719   -0.1741   20.9766 C   0  0  0  0  0  0  0  0  0  0  0  0
    3.2836   -0.0104   19.6184 N   0  0  0  0  0  0  0  0  0  0  0  0
    3.2902   -0.8305   18.9834 H   0  0  0  0  0  0  0  0  0  0  0  0
    3.5934    2.6608   14.8269 C   0  0  0  0  0  0  0  0  0  0  0  0
    2.5107    3.4170   14.1453 C   0  0  0  0  0  0  0  0  0  0  0  0
    1.2646    2.6811   13.8216 C   0  0  0  0  0  0  0  0  0  0  0  0
    1.4160    1.7268   12.6560 C   0  0  0  0  0  0  0  0  0  0  0  0
    1.9961    2.4175   11.4421 C   0  0  0  0  0  0  0  0  0  0  0  0
    0.9671    3.2203   10.7643 N   0  0  0  0  0  0  0  0  0  0  0  0
    3.2126    3.2280   11.7450 C   0  0  0  0  0  0  0  0  0  0  0  0
    3.0860    4.1272   12.9326 C   0  0  0  0  0  0  0  0  0  0  0  0
    1.3206    3.4716    9.8141 H   0  0  0  0  0  0  0  0  0  0  0  0
    0.7930    4.1189   11.2661 H   0  0  0  0  0  0  0  0  0  0  0  0
 17 18  1  0  0  0
 18  1  1  0  0  0
  1  2  2  0  0  0
  2  3  1  0  0  0
  3  4  2  0  0  0
  4  5  1  0  0  0
  5  6  2  0  0  0
  6  7  1  0  0  0
  7 20  1  0  0  0
 20 21  1  0  0  0
 21 22  1  0  0  0
 22 23  1  0  0  0
 23 24  1  0  0  0
 24 25  1  0  0  0
 24 26  1  0  0  0
 26 27  1  0  0  0
  7  8  1  0  0  0
  8  9  2  0  0  0
  5 10  1  0  0  0
 10 11  2  0  0  0
 11 12  1  0  0  0
 12 13  2  0  0  0
 13 14  1  0  0  0
 13 15  1  0  0  0
 15 16  2  0  0  0
  9  1  1  0  0  0
 16 10  1  0  0  0
  8  4  1  0  0  0
 27 21  1  0  0  0
 18 19  1  0  0  0
 25 28  1  0  0  0
 25 29  1  0  0  0
M  END
> <minimizedAffinity>
-6.50041

> <CNNscore>
0.3332810700

> <CNNaffinity>
6.1404623985

> <CNN_VS>
2.0464999676

> <CNNaffinity_variance>
0.4828398824

$$$$
[H]c1c([H])c([H])c(-c2nn(C([H])([H])C3([H])C([H])([H])C([H])([H])C([H])(N([H])[H])C([H])([H])C3([H])[H])c3nc(N([H])C([H])([H])c4c([H])c([H])c(OC([H])([H])[H])c([H])c4[H])nc([H])c23)c([H])c1[H]


 36 40  0  0  0  0  0  0  0  0999 V2000
    3.0739    0.2599   18.3043 C   0  0  0  0  0  0  0  0  0  0  0  0
    2.2070   -0.0453   17.3238 N   0  0  0  0  0  0  0  0  0  0  0  0
    2.1198    0.6759   16.1984 C   0  0  0  0  0  0  0  0  0  0  0  0
    2.9487    1.7632   16.0499 C   0  0  0  0  0  0  0  0  0  0  0  0
    3.1518    2.7180   15.0710 C   0  0  0  0  0  0  0  0  0  0  0  0
    4.1202    3.5504   15.4938 N   0  0  0  0  0  0  0  0  0  0  0  0
    4.5556    3.1918   16.6869 N   0  0  0  0  0  0  0  0  0  0  0  0
    3.8636    2.1052   17.0575 C   0  0  0  0  0  0  0  0  0  0  0  0
    3.8689    1.3259   18.1303 N   0  0  0  0  0  0  0  0  0  0  0  0
    2.4237    2.7752   13.8160 C   0  0  0  0  0  0  0  0  0  0  0  0
    2.7409    1.9186   12.7890 C   0  0  0  0  0  0  0  0  0  0  0  0
    2.0832    1.9306   11.5765 C   0  0  0  0  0  0  0  0  0  0  0  0
    1.0682    2.8468   11.4061 C   0  0  0  0  0  0  0  0  0  0  0  0
    0.7184    3.7286   12.4200 C   0  0  0  0  0  0  0  0  0  0  0  0
    1.4098    3.6794   13.6253 C   0  0  0  0  0  0  0  0  0  0  0  0
    3.1589   -0.5035   19.4835 N   0  0  0  0  0  0  0  0  0  0  0  0
    3.3955   -1.5290   19.4190 H   0  0  0  0  0  0  0  0  0  0  0  0
    2.9370    0.0755   20.7724 C   0  0  0  0  0  0  0  0  0  0  0  0
    5.9655    2.7725   22.0518 C   0  0  0  0  0  0  0  0  0  0  0  0
    6.3002    1.5587   21.4943 C   0  0  0  0  0  0  0  0  0  0  0  0
    5.3267    0.6767   21.0777 C   0  0  0  0  0  0  0  0  0  0  0  0
    4.0004    0.9893   21.2096 C   0  0  0  0  0  0  0  0  0  0  0  0
    3.6419    2.1930   21.7624 C   0  0  0  0  0  0  0  0  0  0  0  0
    4.6254    3.0601   22.1723 C   0  0  0  0  0  0  0  0  0  0  0  0
    6.8035    5.0413   22.1259 C   0  0  0  0  0  0  0  0  0  0  0  0
    6.9097    3.6856   22.4824 O   0  0  0  0  0  0  0  0  0  0  0  0
    5.5918    3.8587   17.4490 C   0  0  0  0  0  0  0  0  0  0  0  0
    5.1212    5.1188   18.0752 C   0  0  0  0  0  0  0  0  0  0  0  0
    6.1812    6.0513   18.5513 C   0  0  0  0  0  0  0  0  0  0  0  0
    5.5006    7.2916   19.0979 C   0  0  0  0  0  0  0  0  0  0  0  0
    4.0201    7.3246   18.7937 C   0  0  0  0  0  0  0  0  0  0  0  0
    3.4899    8.4908   19.5025 N   0  0  0  0  0  0  0  0  0  0  0  0
    3.2818    6.1302   19.3145 C   0  0  0  0  0  0  0  0  0  0  0  0
    4.1532    4.8960   19.2166 C   0  0  0  0  0  0  0  0  0  0  0  0
    2.4453    8.4460   19.5617 H   0  0  0  0  0  0  0  0  0  0  0  0
    3.7837    9.3261   18.9550 H   0  0  0  0  0  0  0  0  0  0  0  0
 25 26  1  0  0  0
 26 19  1  0  0  0
 19 20  2  0  0  0
 20 21  1  0  0  0
 21 22  2  0  0  0
 22 18  1  0  0  0
 18 16  1  0  0  0
 16  1  1  0  0  0
  1  2  2  0  0  0
  2  3  1  0  0  0
  3  4  2  0  0  0
  4  5  1  0  0  0
  5  6  2  0  0  0
  6  7  1  0  0  0
  7 27  1  0  0  0
 27 28  1  0  0  0
 28 29  1  0  0  0
 29 30  1  0  0  0
 30 31  1  0  0  0
 31 32  1  0  0  0
 31 33  1  0  0  0
 33 34  1  0  0  0
  7  8  1  0  0  0
  8  9  2  0  0  0
  5 10  1  0  0  0
 10 11  2  0  0  0
 11 12  1  0  0  0
 12 13  2  0  0  0
 13 14  1  0  0  0
 14 15  2  0  0  0
 22 23  1  0  0  0
 23 24  2  0  0  0
 24 19  1  0  0  0
  9  1  1  0  0  0
 15 10  1  0  0  0
  8  4  1  0  0  0
 34 28  1  0  0  0
 16 17  1  0  0  0
 32 35  1  0  0  0
 32 36  1  0  0  0
M  END
> <minimizedAffinity>
-9.21397

> <CNNscore>
0.9475144148

> <CNNaffinity>
7.7565588951

> <CNN_VS>
7.3494515419

> <CNNaffinity_variance>
0.0236478373

$$$$
[H]c1c([H])c([H])c(-c2nn(C([H])([H])C3([H])C([H])([H])C([H])([H])C([H])(N([H])[H])C([H])([H])C3([H])[H])c3nc(N([H])C([H])([H])c4c([H])c([H])c(OC([H])([H])[H])c([H])c4[H])nc([H])c23)c([H])c1[H]


 36 40  0  0  0  0  0  0  0  0999 V2000
    3.6305    1.6350   16.6358 C   0  0  0  0  0  0  0  0  0  0  0  0
    3.3361    0.8600   17.6935 N   0  0  0  0  0  0  0  0  0  0  0  0
    3.7156    1.1774   18.9384 C   0  0  0  0  0  0  0  0  0  0  0  0
    4.4297    2.3369   19.1312 C   0  0  0  0  0  0  0  0  0  0  0  0
    4.9784    2.9833   20.2231 C   0  0  0  0  0  0  0  0  0  0  0  0
    5.5742    4.1077   19.7869 N   0  0  0  0  0  0  0  0  0  0  0  0
    5.4439    4.2275   18.4791 N   0  0  0  0  0  0  0  0  0  0  0  0
    4.7512    3.1652   18.0450 C   0  0  0  0  0  0  0  0  0  0  0  0
    4.3281    2.7592   16.8558 N   0  0  0  0  0  0  0  0  0  0  0  0
    4.9009    2.4976   21.5893 C   0  0  0  0  0  0  0  0  0  0  0  0
    3.8012    1.7912   22.0142 C   0  0  0  0  0  0  0  0  0  0  0  0
    3.6751    1.3081   23.3002 C   0  0  0  0  0  0  0  0  0  0  0  0
    4.7051    1.5540   24.1818 C   0  0  0  0  0  0  0  0  0  0  0  0
    5.8324    2.2637   23.7901 C   0  0  0  0  0  0  0  0  0  0  0  0
    5.9150    2.7311   22.4832 C   0  0  0  0  0  0  0  0  0  0  0  0
    3.2277    1.2938   15.3313 N   0  0  0  0  0  0  0  0  0  0  0  0
    3.6223    0.4270   14.8790 H   0  0  0  0  0  0  0  0  0  0  0  0
    2.2910    2.0903   14.6005 C   0  0  0  0  0  0  0  0  0  0  0  0
    3.9174    3.9012   11.1137 C   0  0  0  0  0  0  0  0  0  0  0  0
    3.0746    2.8172   11.0102 C   0  0  0  0  0  0  0  0  0  0  0  0
    2.5432    2.2219   12.1338 C   0  0  0  0  0  0  0  0  0  0  0  0
    2.8429    2.6971   13.3822 C   0  0  0  0  0  0  0  0  0  0  0  0
    3.6806    3.7763   13.5110 C   0  0  0  0  0  0  0  0  0  0  0  0
    4.2014    4.3574   12.3803 C   0  0  0  0  0  0  0  0  0  0  0  0
    5.7176    5.1713   10.1130 C   0  0  0  0  0  0  0  0  0  0  0  0
    4.4718    4.5276   10.0132 O   0  0  0  0  0  0  0  0  0  0  0  0
    5.9608    5.3125   17.6697 C   0  0  0  0  0  0  0  0  0  0  0  0
    5.2375    6.5887   17.8932 C   0  0  0  0  0  0  0  0  0  0  0  0
    4.9656    7.4104   16.6805 C   0  0  0  0  0  0  0  0  0  0  0  0
    4.1739    8.6302   17.1112 C   0  0  0  0  0  0  0  0  0  0  0  0
    3.7024    8.5414   18.5448 C   0  0  0  0  0  0  0  0  0  0  0  0
    3.0910    9.8366   18.8480 N   0  0  0  0  0  0  0  0  0  0  0  0
    4.8189    8.3509   19.5246 C   0  0  0  0  0  0  0  0  0  0  0  0
    5.9006    7.4818   18.9189 C   0  0  0  0  0  0  0  0  0  0  0  0
    2.9712    9.9578   19.8813 H   0  0  0  0  0  0  0  0  0  0  0  0
    2.1634    9.8416   18.3753 H   0  0  0  0  0  0  0  0  0  0  0  0
 25 26  1  0  0  0
 26 19  1  0  0  0
 19 20  2  0  0  0
 20 21  1  0  0  0
 21 22  2  0  0  0
 22 18  1  0  0  0
 18 16  1  0  0  0
 16  1  1  0  0  0
  1  2  2  0  0  0
  2  3  1  0  0  0
  3  4  2  0  0  0
  4  5  1  0  0  0
  5  6  2  0  0  0
  6  7  1  0  0  0
  7 27  1  0  0  0
 27 28  1  0  0  0
 28 29  1  0  0  0
 29 30  1  0  0  0
 30 31  1  0  0  0
 31 32  1  0  0  0
 31 33  1  0  0  0
 33 34  1  0  0  0
  7  8  1  0  0  0
  8  9  2  0  0  0
  5 10  1  0  0  0
 10 11  2  0  0  0
 11 12  1  0  0  0
 12 13  2  0  0  0
 13 14  1  0  0  0
 14 15  2  0  0  0
 22 23  1  0  0  0
 23 24  2  0  0  0
 24 19  1  0  0  0
  9  1  1  0  0  0
 15 10  1  0  0  0
  8  4  1  0  0  0
 34 28  1  0  0  0
 16 17  1  0  0  0
 32 35  1  0  0  0
 32 36  1  0  0  0
M  END
> <minimizedAffinity>
-8.37764

> <CNNscore>
0.5506860018

> <CNNaffinity>
6.9625167847

> <CNN_VS>
3.8341605663

> <CNNaffinity_variance>
0.2911973298

$$$$
[H]c1c([H])c([H])c(-c2nn(C([H])([H])C3([H])C([H])([H])C([H])([H])C([H])(N([H])[H])C([H])([H])C3([H])[H])c3nc(N([H])C([H])([H])c4c([H])c([H])c(OC([H])([H])[H])c([H])c4[H])nc([H])c23)c([H])c1[H]


 36 40  0  0  0  0  0  0  0  0999 V2000
    4.3323    1.4802   19.2660 C   0  0  0  0  0  0  0  0  0  0  0  0
    3.5274    0.7825   18.4467 N   0  0  0  0  0  0  0  0  0  0  0  0
    3.2468    1.1926   17.2026 C   0  0  0  0  0  0  0  0  0  0  0  0
    3.8055    2.3678   16.7574 C   0  0  0  0  0  0  0  0  0  0  0  0
    3.7596    3.0948   15.5825 C   0  0  0  0  0  0  0  0  0  0  0  0
    4.5283    4.1877   15.7372 N   0  0  0  0  0  0  0  0  0  0  0  0
    5.0686    4.2115   16.9410 N   0  0  0  0  0  0  0  0  0  0  0  0
    4.6497    3.1168   17.5914 C   0  0  0  0  0  0  0  0  0  0  0  0
    4.8620    2.6221   18.8033 N   0  0  0  0  0  0  0  0  0  0  0  0
    3.0001    2.7083   14.4068 C   0  0  0  0  0  0  0  0  0  0  0  0
    3.4350    3.0615   13.1517 C   0  0  0  0  0  0  0  0  0  0  0  0
    2.7524    2.7220   12.0020 C   0  0  0  0  0  0  0  0  0  0  0  0
    1.5877    1.9984   12.1372 C   0  0  0  0  0  0  0  0  0  0  0  0
    1.1160    1.6229   13.3880 C   0  0  0  0  0  0  0  0  0  0  0  0
    1.8380    1.9879   14.5188 C   0  0  0  0  0  0  0  0  0  0  0  0
    4.6218    1.0418   20.5716 N   0  0  0  0  0  0  0  0  0  0  0  0
    5.2180    0.1829   20.7078 H   0  0  0  0  0  0  0  0  0  0  0  0
    4.1320    1.7338   21.7236 C   0  0  0  0  0  0  0  0  0  0  0  0
    5.9452    5.5172   22.4163 C   0  0  0  0  0  0  0  0  0  0  0  0
    6.7192    4.3889   22.2616 C   0  0  0  0  0  0  0  0  0  0  0  0
    6.1418    3.1577   22.0381 C   0  0  0  0  0  0  0  0  0  0  0  0
    4.7807    3.0291   21.9649 C   0  0  0  0  0  0  0  0  0  0  0  0
    3.9883    4.1391   22.1161 C   0  0  0  0  0  0  0  0  0  0  0  0
    4.5808    5.3585   22.3383 C   0  0  0  0  0  0  0  0  0  0  0  0
    7.8546    6.9177   22.9145 C   0  0  0  0  0  0  0  0  0  0  0  0
    6.4834    6.7704   22.6418 O   0  0  0  0  0  0  0  0  0  0  0  0
    5.9507    5.2390   17.4563 C   0  0  0  0  0  0  0  0  0  0  0  0
    5.2230    6.4642   17.8697 C   0  0  0  0  0  0  0  0  0  0  0  0
    5.0964    7.5321   16.8385 C   0  0  0  0  0  0  0  0  0  0  0  0
    4.2771    8.6611   17.4339 C   0  0  0  0  0  0  0  0  0  0  0  0
    3.6495    8.2888   18.7579 C   0  0  0  0  0  0  0  0  0  0  0  0
    3.0243    9.5119   19.2646 N   0  0  0  0  0  0  0  0  0  0  0  0
    4.6488    7.8567   19.7863 C   0  0  0  0  0  0  0  0  0  0  0  0
    5.7799    7.0970   19.1261 C   0  0  0  0  0  0  0  0  0  0  0  0
    2.7929    9.4168   20.2815 H   0  0  0  0  0  0  0  0  0  0  0  0
    2.1546    9.6493   18.7091 H   0  0  0  0  0  0  0  0  0  0  0  0
 25 26  1  0  0  0
 26 19  1  0  0  0
 19 20  2  0  0  0
 20 21  1  0  0  0
 21 22  2  0  0  0
 22 18  1  0  0  0
 18 16  1  0  0  0
 16  1  1  0  0  0
  1  2  2  0  0  0
  2  3  1  0  0  0
  3  4  2  0  0  0
  4  5  1  0  0  0
  5  6  2  0  0  0
  6  7  1  0  0  0
  7 27  1  0  0  0
 27 28  1  0  0  0
 28 29  1  0  0  0
 29 30  1  0  0  0
 30 31  1  0  0  0
 31 32  1  0  0  0
 31 33  1  0  0  0
 33 34  1  0  0  0
  7  8  1  0  0  0
  8  9  2  0  0  0
  5 10  1  0  0  0
 10 11  2  0  0  0
 11 12  1  0  0  0
 12 13  2  0  0  0
 13 14  1  0  0  0
 14 15  2  0  0  0
 22 23  1  0  0  0
 23 24  2  0  0  0
 24 19  1  0  0  0
  9  1  1  0  0  0
 15 10  1  0  0  0
  8  4  1  0  0  0
 34 28  1  0  0  0
 16 17  1  0  0  0
 32 35  1  0  0  0
 32 36  1  0  0  0
M  END
> <minimizedAffinity>
-9.01538

> <CNNscore>
0.4813679755

> <CNNaffinity>
7.0915679932

> <CNN_VS>
3.4136536121

> <CNNaffinity_variance>
0.4882410467

$$$$
[H]c1c([H])c([H])c(-c2nn(C([H])([H])C3([H])C([H])([H])C([H])([H])C([H])(N([H])[H])C([H])([H])C3([H])[H])c3nc(N([H])C([H])([H])c4c([H])c([H])c(OC([H])([H])[H])c([H])c4[H])nc([H])c23)c([H])c1[H]


 36 40  0  0  0  0  0  0  0  0999 V2000
    3.4669    2.4983   14.8881 C   0  0  0  0  0  0  0  0  0  0  0  0
    3.1132    1.3981   15.5740 N   0  0  0  0  0  0  0  0  0  0  0  0
    3.2844    1.2973   16.8988 C   0  0  0  0  0  0  0  0  0  0  0  0
    3.8413    2.3600   17.5712 C   0  0  0  0  0  0  0  0  0  0  0  0
    4.1659    2.6289   18.8878 C   0  0  0  0  0  0  0  0  0  0  0  0
    4.6954    3.8642   18.9435 N   0  0  0  0  0  0  0  0  0  0  0  0
    4.7329    4.4104   17.7427 N   0  0  0  0  0  0  0  0  0  0  0  0
    4.2199    3.5213   16.8805 C   0  0  0  0  0  0  0  0  0  0  0  0
    4.0073    3.5178   15.5717 N   0  0  0  0  0  0  0  0  0  0  0  0
    3.9538    1.7083   19.9904 C   0  0  0  0  0  0  0  0  0  0  0  0
    4.2226    2.0965   21.2812 C   0  0  0  0  0  0  0  0  0  0  0  0
    4.0406    1.2627   22.3650 C   0  0  0  0  0  0  0  0  0  0  0  0
    3.5688   -0.0092   22.1239 C   0  0  0  0  0  0  0  0  0  0  0  0
    3.2856   -0.4382   20.8341 C   0  0  0  0  0  0  0  0  0  0  0  0
    3.4847    0.4376   19.7728 C   0  0  0  0  0  0  0  0  0  0  0  0
    3.2833    2.5956   13.4962 N   0  0  0  0  0  0  0  0  0  0  0  0
    4.1194    2.7594   12.8752 H   0  0  0  0  0  0  0  0  0  0  0  0
    1.9901    2.4735   12.8975 C   0  0  0  0  0  0  0  0  0  0  0  0
    1.9208    0.4013    9.1849 C   0  0  0  0  0  0  0  0  0  0  0  0
    3.0917    0.9511    9.6570 C   0  0  0  0  0  0  0  0  0  0  0  0
    3.1249    1.6259   10.8581 C   0  0  0  0  0  0  0  0  0  0  0  0
    1.9901    1.7650   11.6111 C   0  0  0  0  0  0  0  0  0  0  0  0
    0.8109    1.2259   11.1615 C   0  0  0  0  0  0  0  0  0  0  0  0
    0.7960    0.5565    9.9620 C   0  0  0  0  0  0  0  0  0  0  0  0
    2.8499   -0.1345    7.0159 C   0  0  0  0  0  0  0  0  0  0  0  0
    1.8437   -0.2829    7.9863 O   0  0  0  0  0  0  0  0  0  0  0  0
    5.2397    5.7301   17.4250 C   0  0  0  0  0  0  0  0  0  0  0  0
    5.1060    6.6823   18.5550 C   0  0  0  0  0  0  0  0  0  0  0  0
    4.3899    7.9552   18.2599 C   0  0  0  0  0  0  0  0  0  0  0  0
    4.3087    8.7541   19.5465 C   0  0  0  0  0  0  0  0  0  0  0  0
    4.7446    7.9569   20.7548 C   0  0  0  0  0  0  0  0  0  0  0  0
    4.7488    8.8973   21.8769 N   0  0  0  0  0  0  0  0  0  0  0  0
    6.1370    7.4180   20.6378 C   0  0  0  0  0  0  0  0  0  0  0  0
    6.4276    7.0336   19.2025 C   0  0  0  0  0  0  0  0  0  0  0  0
    5.2791    8.5034   22.6895 H   0  0  0  0  0  0  0  0  0  0  0  0
    3.7522    9.0489   22.1371 H   0  0  0  0  0  0  0  0  0  0  0  0
 25 26  1  0  0  0
 26 19  1  0  0  0
 19 20  2  0  0  0
 20 21  1  0  0  0
 21 22  2  0  0  0
 22 18  1  0  0  0
 18 16  1  0  0  0
 16  1  1  0  0  0
  1  2  2  0  0  0
  2  3  1  0  0  0
  3  4  2  0  0  0
  4  5  1  0  0  0
  5  6  2  0  0  0
  6  7  1  0  0  0
  7 27  1  0  0  0
 27 28  1  0  0  0
 28 29  1  0  0  0
 29 30  1  0  0  0
 30 31  1  0  0  0
 31 32  1  0  0  0
 31 33  1  0  0  0
 33 34  1  0  0  0
  7  8  1  0  0  0
  8  9  2  0  0  0
  5 10  1  0  0  0
 10 11  2  0  0  0
 11 12  1  0  0  0
 12 13  2  0  0  0
 13 14  1  0  0  0
 14 15  2  0  0  0
 22 23  1  0  0  0
 23 24  2  0  0  0
 24 19  1  0  0  0
  9  1  1  0  0  0
 15 10  1  0  0  0
  8  4  1  0  0  0
 34 28  1  0  0  0
 16 17  1  0  0  0
 32 35  1  0  0  0
 32 36  1  0  0  0
M  END
> <minimizedAffinity>
-8.09117

> <CNNscore>
0.4568683803

> <CNNaffinity>
6.7576727867

> <CNN_VS>
3.0873670578

> <CNNaffinity_variance>
0.4003904760

$$$$
[H]c1c([H])c([H])c(-c2nn(C([H])([H])C3([H])C([H])([H])C([H])([H])C([H])(N([H])[H])C([H])([H])C3([H])[H])c3nc(N([H])C([H])([H])c4c([H])c([H])c(OC([H])([H])[H])c([H])c4[H])nc([H])c23)c([H])c1[H]


 36 40  0  0  0  0  0  0  0  0999 V2000
    3.3456    2.2836   14.9985 C   0  0  0  0  0  0  0  0  0  0  0  0
    2.9527    1.2123   15.7084 N   0  0  0  0  0  0  0  0  0  0  0  0
    3.1483    1.1215   17.0305 C   0  0  0  0  0  0  0  0  0  0  0  0
    3.7726    2.1640   17.6746 C   0  0  0  0  0  0  0  0  0  0  0  0
    4.1398    2.4346   18.9796 C   0  0  0  0  0  0  0  0  0  0  0  0
    4.7317    3.6423   19.0053 N   0  0  0  0  0  0  0  0  0  0  0  0
    4.7696    4.1690   17.7958 N   0  0  0  0  0  0  0  0  0  0  0  0
    4.1935    3.2951   16.9584 C   0  0  0  0  0  0  0  0  0  0  0  0
    3.9517    3.2840   15.6547 N   0  0  0  0  0  0  0  0  0  0  0  0
    3.9066    1.5413   20.1003 C   0  0  0  0  0  0  0  0  0  0  0  0
    4.0948    1.9799   21.3892 C   0  0  0  0  0  0  0  0  0  0  0  0
    3.8893    1.1739   22.4898 C   0  0  0  0  0  0  0  0  0  0  0  0
    3.4782   -0.1224   22.2680 C   0  0  0  0  0  0  0  0  0  0  0  0
    3.2771   -0.6022   20.9807 C   0  0  0  0  0  0  0  0  0  0  0  0
    3.4970    0.2471   19.9020 C   0  0  0  0  0  0  0  0  0  0  0  0
    3.1359    2.3706   13.6096 N   0  0  0  0  0  0  0  0  0  0  0  0
    3.8622    1.9807   12.9522 H   0  0  0  0  0  0  0  0  0  0  0  0
    1.9588    2.9713   13.0625 C   0  0  0  0  0  0  0  0  0  0  0  0
    2.0661    7.2219   13.1168 C   0  0  0  0  0  0  0  0  0  0  0  0
    0.8877    6.5493   13.3516 C   0  0  0  0  0  0  0  0  0  0  0  0
    0.8415    5.1721   13.3349 C   0  0  0  0  0  0  0  0  0  0  0  0
    1.9706    4.4398   13.0834 C   0  0  0  0  0  0  0  0  0  0  0  0
    3.1569    5.0875   12.8464 C   0  0  0  0  0  0  0  0  0  0  0  0
    3.1847    6.4609   12.8668 C   0  0  0  0  0  0  0  0  0  0  0  0
    3.1257    9.2470   13.9115 C   0  0  0  0  0  0  0  0  0  0  0  0
    2.1562    8.6013   13.1244 O   0  0  0  0  0  0  0  0  0  0  0  0
    5.3346    5.4569   17.4473 C   0  0  0  0  0  0  0  0  0  0  0  0
    5.1578    6.4686   18.5182 C   0  0  0  0  0  0  0  0  0  0  0  0
    4.4175    7.7045   18.1382 C   0  0  0  0  0  0  0  0  0  0  0  0
    4.2938    8.5734   19.3751 C   0  0  0  0  0  0  0  0  0  0  0  0
    4.7262    7.8576   20.6345 C   0  0  0  0  0  0  0  0  0  0  0  0
    4.6877    8.8604   21.7005 N   0  0  0  0  0  0  0  0  0  0  0  0
    6.1329    7.3473   20.5723 C   0  0  0  0  0  0  0  0  0  0  0  0
    6.4587    6.8888   19.1667 C   0  0  0  0  0  0  0  0  0  0  0  0
    5.2121    8.5268   22.5433 H   0  0  0  0  0  0  0  0  0  0  0  0
    3.6832    9.0021   21.9346 H   0  0  0  0  0  0  0  0  0  0  0  0
 25 26  1  0  0  0
 26 19  1  0  0  0
 19 20  2  0  0  0
 20 21  1  0  0  0
 21 22  2  0  0  0
 22 18  1  0  0  0
 18 16  1  0  0  0
 16  1  1  0  0  0
  1  2  2  0  0  0
  2  3  1  0  0  0
  3  4  2  0  0  0
  4  5  1  0  0  0
  5  6  2  0  0  0
  6  7  1  0  0  0
  7 27  1  0  0  0
 27 28  1  0  0  0
 28 29  1  0  0  0
 29 30  1  0  0  0
 30 31  1  0  0  0
 31 32  1  0  0  0
 31 33  1  0  0  0
 33 34  1  0  0  0
  7  8  1  0  0  0
  8  9  2  0  0  0
  5 10  1  0  0  0
 10 11  2  0  0  0
 11 12  1  0  0  0
 12 13  2  0  0  0
 13 14  1  0  0  0
 14 15  2  0  0  0
 22 23  1  0  0  0
 23 24  2  0  0  0
 24 19  1  0  0  0
  9  1  1  0  0  0
 15 10  1  0  0  0
  8  4  1  0  0  0
 34 28  1  0  0  0
 16 17  1  0  0  0
 32 35  1  0  0  0
 32 36  1  0  0  0
M  END
> <minimizedAffinity>
-8.31679

> <CNNscore>
0.4029198289

> <CNNaffinity>
6.7327675819

> <CNN_VS>
2.7127654552

> <CNNaffinity_variance>
0.2950946093

$$$$
[H]c1c([H])c([H])c(-c2nn(C([H])([H])C3([H])C([H])([H])C([H])([H])C([H])(N([H])[H])C([H])([H])C3([H])[H])c3nc(N([H])C([H])([H])c4c([H])c([H])c(OC([H])([H])[H])c([H])c4[H])nc([H])c23)c([H])c1[H]


 36 40  0  0  0  0  0  0  0  0999 V2000
    4.0955    1.8113   18.7101 C   0  0  0  0  0  0  0  0  0  0  0  0
    3.3785    1.0861   17.8349 N   0  0  0  0  0  0  0  0  0  0  0  0
    3.0316    1.5597   16.6308 C   0  0  0  0  0  0  0  0  0  0  0  0
    3.4267    2.8314   16.2871 C   0  0  0  0  0  0  0  0  0  0  0  0
    3.2720    3.6429   15.1787 C   0  0  0  0  0  0  0  0  0  0  0  0
    3.8935    4.8101   15.4255 N   0  0  0  0  0  0  0  0  0  0  0  0
    4.4407    4.8025   16.6264 N   0  0  0  0  0  0  0  0  0  0  0  0
    4.1762    3.6112   17.1813 C   0  0  0  0  0  0  0  0  0  0  0  0
    4.4660    3.0479   18.3461 N   0  0  0  0  0  0  0  0  0  0  0  0
    2.5552    3.2612   13.9751 C   0  0  0  0  0  0  0  0  0  0  0  0
    3.0307    2.2503   13.1743 C   0  0  0  0  0  0  0  0  0  0  0  0
    2.3909    1.8484   12.0202 C   0  0  0  0  0  0  0  0  0  0  0  0
    1.2276    2.4993   11.6714 C   0  0  0  0  0  0  0  0  0  0  0  0
    0.7155    3.5251   12.4545 C   0  0  0  0  0  0  0  0  0  0  0  0
    1.3953    3.8959   13.6094 C   0  0  0  0  0  0  0  0  0  0  0  0
    4.4556    1.3057   19.9731 N   0  0  0  0  0  0  0  0  0  0  0  0
    5.0694    0.4504   20.0312 H   0  0  0  0  0  0  0  0  0  0  0  0
    4.0146    1.9245   21.1849 C   0  0  0  0  0  0  0  0  0  0  0  0
    6.2729    5.3584   22.2758 C   0  0  0  0  0  0  0  0  0  0  0  0
    4.9407    5.4732   21.9471 C   0  0  0  0  0  0  0  0  0  0  0  0
    4.2000    4.3671   21.5907 C   0  0  0  0  0  0  0  0  0  0  0  0
    4.7749    3.1251   21.5555 C   0  0  0  0  0  0  0  0  0  0  0  0
    6.1011    2.9853   21.8789 C   0  0  0  0  0  0  0  0  0  0  0  0
    6.8244    4.0987   22.2317 C   0  0  0  0  0  0  0  0  0  0  0  0
    6.5677    7.7515   22.4790 C   0  0  0  0  0  0  0  0  0  0  0  0
    7.0516    6.4414   22.6387 O   0  0  0  0  0  0  0  0  0  0  0  0
    5.1875    5.8893   17.2267 C   0  0  0  0  0  0  0  0  0  0  0  0
    5.1875    7.1149   16.3902 C   0  0  0  0  0  0  0  0  0  0  0  0
    6.3745    8.0047   16.5293 C   0  0  0  0  0  0  0  0  0  0  0  0
    6.2103    9.1571   15.5570 C   0  0  0  0  0  0  0  0  0  0  0  0
    5.0591    8.9505   14.5991 C   0  0  0  0  0  0  0  0  0  0  0  0
    4.9429   10.1944   13.8358 N   0  0  0  0  0  0  0  0  0  0  0  0
    3.7457    8.7422   15.2879 C   0  0  0  0  0  0  0  0  0  0  0  0
    3.9482    7.9639   16.5707 C   0  0  0  0  0  0  0  0  0  0  0  0
    4.0230   10.2397   13.3374 H   0  0  0  0  0  0  0  0  0  0  0  0
    5.7247   10.1915   13.1483 H   0  0  0  0  0  0  0  0  0  0  0  0
 25 26  1  0  0  0
 26 19  1  0  0  0
 19 20  2  0  0  0
 20 21  1  0  0  0
 21 22  2  0  0  0
 22 18  1  0  0  0
 18 16  1  0  0  0
 16  1  1  0  0  0
  1  2  2  0  0  0
  2  3  1  0  0  0
  3  4  2  0  0  0
  4  5  1  0  0  0
  5  6  2  0  0  0
  6  7  1  0  0  0
  7 27  1  0  0  0
 27 28  1  0  0  0
 28 29  1  0  0  0
 29 30  1  0  0  0
 30 31  1  0  0  0
 31 32  1  0  0  0
 31 33  1  0  0  0
 33 34  1  0  0  0
  7  8  1  0  0  0
  8  9  2  0  0  0
  5 10  1  0  0  0
 10 11  2  0  0  0
 11 12  1  0  0  0
 12 13  2  0  0  0
 13 14  1  0  0  0
 14 15  2  0  0  0
 22 23  1  0  0  0
 23 24  2  0  0  0
 24 19  1  0  0  0
  9  1  1  0  0  0
 15 10  1  0  0  0
  8  4  1  0  0  0
 34 28  1  0  0  0
 16 17  1  0  0  0
 32 35  1  0  0  0
 32 36  1  0  0  0
M  END
> <minimizedAffinity>
-7.78452

> <CNNscore>
0.3927511573

> <CNNaffinity>
6.7289819717

> <CNN_VS>
2.6428153515

> <CNNaffinity_variance>
0.8140586019

$$$$
[H]c1c([H])c([H])c(-c2nn(C([H])([H])C3([H])C([H])([H])C([H])([H])C([H])(N([H])[H])C([H])([H])C3([H])[H])c3nc(N([H])C([H])([H])c4c([H])c([H])c(OC([H])([H])[H])c([H])c4[H])nc([H])c23)c([H])c1[H]


 36 40  0  0  0  0  0  0  0  0999 V2000
    3.6666    5.3349   19.3540 C   0  0  0  0  0  0  0  0  0  0  0  0
    3.1646    5.7967   18.1961 N   0  0  0  0  0  0  0  0  0  0  0  0
    3.0269    5.0159   17.1163 C   0  0  0  0  0  0  0  0  0  0  0  0
    3.4146    3.6994   17.2046 C   0  0  0  0  0  0  0  0  0  0  0  0
    3.4281    2.6187   16.3426 C   0  0  0  0  0  0  0  0  0  0  0  0
    3.9310    1.5618   17.0055 N   0  0  0  0  0  0  0  0  0  0  0  0
    4.2434    1.8935   18.2441 N   0  0  0  0  0  0  0  0  0  0  0  0
    3.9420    3.1902   18.4012 C   0  0  0  0  0  0  0  0  0  0  0  0
    4.0358    4.0467   19.4091 N   0  0  0  0  0  0  0  0  0  0  0  0
    2.9682    2.6606   14.9660 C   0  0  0  0  0  0  0  0  0  0  0  0
    1.8591    1.9453   14.5820 C   0  0  0  0  0  0  0  0  0  0  0  0
    1.3798    1.9481   13.2884 C   0  0  0  0  0  0  0  0  0  0  0  0
    2.0544    2.7056   12.3558 C   0  0  0  0  0  0  0  0  0  0  0  0
    3.1787    3.4417   12.7051 C   0  0  0  0  0  0  0  0  0  0  0  0
    3.6249    3.4081   14.0216 C   0  0  0  0  0  0  0  0  0  0  0  0
    3.8077    6.1622   20.4837 N   0  0  0  0  0  0  0  0  0  0  0  0
    3.2237    5.9707   21.3404 H   0  0  0  0  0  0  0  0  0  0  0  0
    4.7278    7.2572   20.5042 C   0  0  0  0  0  0  0  0  0  0  0  0
    8.5773    6.2004   21.9694 C   0  0  0  0  0  0  0  0  0  0  0  0
    8.4474    7.0598   20.9013 C   0  0  0  0  0  0  0  0  0  0  0  0
    7.2047    7.4076   20.4176 C   0  0  0  0  0  0  0  0  0  0  0  0
    6.0678    6.9044   20.9907 C   0  0  0  0  0  0  0  0  0  0  0  0
    6.1716    6.0460   22.0563 C   0  0  0  0  0  0  0  0  0  0  0  0
    7.4183    5.7099   22.5254 C   0  0  0  0  0  0  0  0  0  0  0  0
   10.9213    5.6967   21.6425 C   0  0  0  0  0  0  0  0  0  0  0  0
    9.8037    5.8259   22.4854 O   0  0  0  0  0  0  0  0  0  0  0  0
    4.8099    1.0102   19.2431 C   0  0  0  0  0  0  0  0  0  0  0  0
    4.7817    1.5947   20.6067 C   0  0  0  0  0  0  0  0  0  0  0  0
    6.0970    1.7176   21.2957 C   0  0  0  0  0  0  0  0  0  0  0  0
    5.8607    2.3857   22.6367 C   0  0  0  0  0  0  0  0  0  0  0  0
    4.4567    2.9283   22.7769 C   0  0  0  0  0  0  0  0  0  0  0  0
    4.3451    3.4034   24.1572 N   0  0  0  0  0  0  0  0  0  0  0  0
    3.3976    1.8857   22.5920 C   0  0  0  0  0  0  0  0  0  0  0  0
    3.8320    0.8824   21.5447 C   0  0  0  0  0  0  0  0  0  0  0  0
    3.3423    3.5553   24.4177 H   0  0  0  0  0  0  0  0  0  0  0  0
    4.8686    4.3022   24.2020 H   0  0  0  0  0  0  0  0  0  0  0  0
 25 26  1  0  0  0
 26 19  1  0  0  0
 19 20  2  0  0  0
 20 21  1  0  0  0
 21 22  2  0  0  0
 22 18  1  0  0  0
 18 16  1  0  0  0
 16  1  1  0  0  0
  1  2  2  0  0  0
  2  3  1  0  0  0
  3  4  2  0  0  0
  4  5  1  0  0  0
  5  6  2  0  0  0
  6  7  1  0  0  0
  7 27  1  0  0  0
 27 28  1  0  0  0
 28 29  1  0  0  0
 29 30  1  0  0  0
 30 31  1  0  0  0
 31 32  1  0  0  0
 31 33  1  0  0  0
 33 34  1  0  0  0
  7  8  1  0  0  0
  8  9  2  0  0  0
  5 10  1  0  0  0
 10 11  2  0  0  0
 11 12  1  0  0  0
 12 13  2  0  0  0
 13 14  1  0  0  0
 14 15  2  0  0  0
 22 23  1  0  0  0
 23 24  2  0  0  0
 24 19  1  0  0  0
  9  1  1  0  0  0
 15 10  1  0  0  0
  8  4  1  0  0  0
 34 28  1  0  0  0
 16 17  1  0  0  0
 32 35  1  0  0  0
 32 36  1  0  0  0
M  END
> <minimizedAffinity>
-9.34689

> <CNNscore>
0.3588664830

> <CNNaffinity>
7.0265874863

> <CNN_VS>
2.5216066837

> <CNNaffinity_variance>
0.2406476736

$$$$
[H]c1c([H])c([H])c(-c2nn(C([H])([H])C3([H])C([H])([H])C([H])([H])C([H])(N([H])[H])C([H])([H])C3([H])[H])c3nc(N([H])C([H])([H])c4c([H])c([H])c(OC([H])([H])[H])c([H])c4[H])nc([H])c23)c([H])c1[H]


 36 40  0  0  0  0  0  0  0  0999 V2000
    3.5763    6.5393   18.5503 C   0  0  0  0  0  0  0  0  0  0  0  0
    3.2851    6.7903   17.2626 N   0  0  0  0  0  0  0  0  0  0  0  0
    3.2418    5.8212   16.3387 C   0  0  0  0  0  0  0  0  0  0  0  0
    3.5055    4.5294   16.7299 C   0  0  0  0  0  0  0  0  0  0  0  0
    3.5560    3.3015   16.0968 C   0  0  0  0  0  0  0  0  0  0  0  0
    3.8715    2.3706   17.0152 N   0  0  0  0  0  0  0  0  0  0  0  0
    4.0281    2.9222   18.2039 N   0  0  0  0  0  0  0  0  0  0  0  0
    3.8126    4.2383   18.0679 C   0  0  0  0  0  0  0  0  0  0  0  0
    3.8289    5.2697   18.9011 N   0  0  0  0  0  0  0  0  0  0  0  0
    3.3039    3.0963   14.6817 C   0  0  0  0  0  0  0  0  0  0  0  0
    2.4507    2.1026   14.2649 C   0  0  0  0  0  0  0  0  0  0  0  0
    2.1766    1.8632   12.9343 C   0  0  0  0  0  0  0  0  0  0  0  0
    2.7933    2.6640   11.9979 C   0  0  0  0  0  0  0  0  0  0  0  0
    3.6616    3.6781   12.3796 C   0  0  0  0  0  0  0  0  0  0  0  0
    3.9074    3.8821   13.7328 C   0  0  0  0  0  0  0  0  0  0  0  0
    3.6195    7.5637   19.5143 N   0  0  0  0  0  0  0  0  0  0  0  0
    2.9598    7.5277   20.3360 H   0  0  0  0  0  0  0  0  0  0  0  0
    4.5396    8.6540   19.4130 C   0  0  0  0  0  0  0  0  0  0  0  0
    7.4470    8.7513   22.5145 C   0  0  0  0  0  0  0  0  0  0  0  0
    6.2568    9.4302   22.6504 C   0  0  0  0  0  0  0  0  0  0  0  0
    5.3084    9.4066   21.6508 C   0  0  0  0  0  0  0  0  0  0  0  0
    5.5298    8.7048   20.4964 C   0  0  0  0  0  0  0  0  0  0  0  0
    6.7085    8.0203   20.3376 C   0  0  0  0  0  0  0  0  0  0  0  0
    7.6428    8.0549   21.3442 C   0  0  0  0  0  0  0  0  0  0  0  0
    9.7664    9.0010   23.1574 C   0  0  0  0  0  0  0  0  0  0  0  0
    8.4245    8.7487   23.4919 O   0  0  0  0  0  0  0  0  0  0  0  0
    4.3719    2.2239   19.4259 C   0  0  0  0  0  0  0  0  0  0  0  0
    4.7569    3.1454   20.5233 C   0  0  0  0  0  0  0  0  0  0  0  0
    6.1314    2.9747   21.0723 C   0  0  0  0  0  0  0  0  0  0  0  0
    6.3469    4.0394   22.1307 C   0  0  0  0  0  0  0  0  0  0  0  0
    5.2422    5.0713   22.1511 C   0  0  0  0  0  0  0  0  0  0  0  0
    5.5162    5.9310   23.3040 N   0  0  0  0  0  0  0  0  0  0  0  0
    3.8833    4.4798   22.3667 C   0  0  0  0  0  0  0  0  0  0  0  0
    3.7885    3.1309   21.6858 C   0  0  0  0  0  0  0  0  0  0  0  0
    4.6751    6.5056   23.5470 H   0  0  0  0  0  0  0  0  0  0  0  0
    6.3069    6.5495   23.0281 H   0  0  0  0  0  0  0  0  0  0  0  0
 25 26  1  0  0  0
 26 19  1  0  0  0
 19 20  2  0  0  0
 20 21  1  0  0  0
 21 22  2  0  0  0
 22 18  1  0  0  0
 18 16  1  0  0  0
 16  1  1  0  0  0
  1  2  2  0  0  0
  2  3  1  0  0  0
  3  4  2  0  0  0
  4  5  1  0  0  0
  5  6  2  0  0  0
  6  7  1  0  0  0
  7 27  1  0  0  0
 27 28  1  0  0  0
 28 29  1  0  0  0
 29 30  1  0  0  0
 30 31  1  0  0  0
 31 32  1  0  0  0
 31 33  1  0  0  0
 33 34  1  0  0  0
  7  8  1  0  0  0
  8  9  2  0  0  0
  5 10  1  0  0  0
 10 11  2  0  0  0
 11 12  1  0  0  0
 12 13  2  0  0  0
 13 14  1  0  0  0
 14 15  2  0  0  0
 22 23  1  0  0  0
 23 24  2  0  0  0
 24 19  1  0  0  0
  9  1  1  0  0  0
 15 10  1  0  0  0
  8  4  1  0  0  0
 34 28  1  0  0  0
 16 17  1  0  0  0
 32 35  1  0  0  0
 32 36  1  0  0  0
M  END
> <minimizedAffinity>
-8.64949

> <CNNscore>
0.3275277913

> <CNNaffinity>
6.6669716835

> <CNN_VS>
2.1836185455

> <CNNaffinity_variance>
0.4169376791

$$$$
[H]c1c([H])c([H])c(-c2nn(C([H])([H])C3([H])C([H])([H])C([H])([H])C([H])(N([H])[H])C([H])([H])C3([H])[H])c3nc(N([H])C([H])([H])c4c([H])c([H])c(OC([H])([H])[H])c([H])c4[H])nc([H])c23)c([H])c1[H]


 36 40  0  0  0  0  0  0  0  0999 V2000
    3.6532    3.0779   15.0049 C   0  0  0  0  0  0  0  0  0  0  0  0
    3.2657    1.9546   15.6325 N   0  0  0  0  0  0  0  0  0  0  0  0
    3.4242    1.7833   16.9517 C   0  0  0  0  0  0  0  0  0  0  0  0
    4.0036    2.7959   17.6800 C   0  0  0  0  0  0  0  0  0  0  0  0
    4.3252    2.9900   19.0104 C   0  0  0  0  0  0  0  0  0  0  0  0
    4.8864    4.2065   19.1313 N   0  0  0  0  0  0  0  0  0  0  0  0
    4.9472    4.8108   17.9596 N   0  0  0  0  0  0  0  0  0  0  0  0
    4.4177    3.9798   17.0507 C   0  0  0  0  0  0  0  0  0  0  0  0
    4.2150    4.0473   15.7421 N   0  0  0  0  0  0  0  0  0  0  0  0
    4.0807    2.0214   20.0641 C   0  0  0  0  0  0  0  0  0  0  0  0
    4.1878    2.3889   21.3841 C   0  0  0  0  0  0  0  0  0  0  0  0
    3.9679    1.5098   22.4242 C   0  0  0  0  0  0  0  0  0  0  0  0
    3.6277    0.2128   22.1070 C   0  0  0  0  0  0  0  0  0  0  0  0
    3.5097   -0.1966   20.7856 C   0  0  0  0  0  0  0  0  0  0  0  0
    3.7408    0.7251   19.7706 C   0  0  0  0  0  0  0  0  0  0  0  0
    3.4827    3.2495   13.6185 N   0  0  0  0  0  0  0  0  0  0  0  0
    3.5745    2.4157   12.9798 H   0  0  0  0  0  0  0  0  0  0  0  0
    3.1829    4.5271   13.0497 C   0  0  0  0  0  0  0  0  0  0  0  0
    5.6389    5.4879    9.7140 C   0  0  0  0  0  0  0  0  0  0  0  0
    4.5491    6.2689   10.0278 C   0  0  0  0  0  0  0  0  0  0  0  0
    3.7458    5.9657   11.1057 C   0  0  0  0  0  0  0  0  0  0  0  0
    4.0147    4.8770   11.8910 C   0  0  0  0  0  0  0  0  0  0  0  0
    5.0952    4.0834   11.5983 C   0  0  0  0  0  0  0  0  0  0  0  0
    5.8852    4.4004   10.5200 C   0  0  0  0  0  0  0  0  0  0  0  0
    7.8655    5.6598    8.7824 C   0  0  0  0  0  0  0  0  0  0  0  0
    6.4700    5.7562    8.6425 O   0  0  0  0  0  0  0  0  0  0  0  0
    5.4907    6.1308   17.7116 C   0  0  0  0  0  0  0  0  0  0  0  0
    5.3893    7.0232   18.8927 C   0  0  0  0  0  0  0  0  0  0  0  0
    4.6398    8.2952   18.6922 C   0  0  0  0  0  0  0  0  0  0  0  0
    4.6000    9.0277   20.0196 C   0  0  0  0  0  0  0  0  0  0  0  0
    5.1005    8.1801   21.1670 C   0  0  0  0  0  0  0  0  0  0  0  0
    5.1366    9.0636   22.3339 N   0  0  0  0  0  0  0  0  0  0  0  0
    6.4956    7.6742   20.9650 C   0  0  0  0  0  0  0  0  0  0  0  0
    6.7312    7.3670   19.5013 C   0  0  0  0  0  0  0  0  0  0  0  0
    5.7077    8.6401   23.1027 H   0  0  0  0  0  0  0  0  0  0  0  0
    4.1496    9.1831   22.6427 H   0  0  0  0  0  0  0  0  0  0  0  0
 25 26  1  0  0  0
 26 19  1  0  0  0
 19 20  2  0  0  0
 20 21  1  0  0  0
 21 22  2  0  0  0
 22 18  1  0  0  0
 18 16  1  0  0  0
 16  1  1  0  0  0
  1  2  2  0  0  0
  2  3  1  0  0  0
  3  4  2  0  0  0
  4  5  1  0  0  0
  5  6  2  0  0  0
  6  7  1  0  0  0
  7 27  1  0  0  0
 27 28  1  0  0  0
 28 29  1  0  0  0
 29 30  1  0  0  0
 30 31  1  0  0  0
 31 32  1  0  0  0
 31 33  1  0  0  0
 33 34  1  0  0  0
  7  8  1  0  0  0
  8  9  2  0  0  0
  5 10  1  0  0  0
 10 11  2  0  0  0
 11 12  1  0  0  0
 12 13  2  0  0  0
 13 14  1  0  0  0
 14 15  2  0  0  0
 22 23  1  0  0  0
 23 24  2  0  0  0
 24 19  1  0  0  0
  9  1  1  0  0  0
 15 10  1  0  0  0
  8  4  1  0  0  0
 34 28  1  0  0  0
 16 17  1  0  0  0
 32 35  1  0  0  0
 32 36  1  0  0  0
M  END
> <minimizedAffinity>
-7.86491

> <CNNscore>
0.3150084615

> <CNNaffinity>
6.5490541458

> <CNN_VS>
2.0630073547

> <CNNaffinity_variance>
0.3982391357

$$$$
[H]O[C@]1([H])C([H])([H])C([H])([H])[C@@]([H])(N([H])c2nc(N([H])C([H])([H])C([H])([H])C([H])([H])C([H])([H])[H])nc([H])c2C(=O)N([H])C([H])([H])C2([H])C([H])([H])C([H])([H])N(C([H])(C([H])([H])[H])C([H])([H])[H])C([H])([H])C2([H])[H])C([H])([H])C1([H])[H]


 36 38  0  0  0  0  0  0  0  0999 V2000
    2.9559    0.0452   19.1417 C   0  0  0  0  0  0  0  0  0  0  0  0
    2.1880   -0.3711   18.1339 N   0  0  0  0  0  0  0  0  0  0  0  0
    2.1446    0.1716   16.9194 C   0  0  0  0  0  0  0  0  0  0  0  0
    2.9600    1.2750   16.6366 C   0  0  0  0  0  0  0  0  0  0  0  0
    3.7610    1.7221   17.6599 C   0  0  0  0  0  0  0  0  0  0  0  0
    3.7399    1.1009   18.8801 N   0  0  0  0  0  0  0  0  0  0  0  0
    2.8806    1.8498   15.3120 C   0  0  0  0  0  0  0  0  0  0  0  0
    3.8812    2.4037   14.8024 O   0  0  0  0  0  0  0  0  0  0  0  0
    1.7305    1.8511   14.4887 N   0  0  0  0  0  0  0  0  0  0  0  0
    0.8624    1.4076   14.8383 H   0  0  0  0  0  0  0  0  0  0  0  0
    1.7000    2.4374   13.1822 C   0  0  0  0  0  0  0  0  0  0  0  0
    0.8529    3.6712   13.0409 C   0  0  0  0  0  0  0  0  0  0  0  0
    0.7683    4.1563   11.6190 C   0  0  0  0  0  0  0  0  0  0  0  0
    1.4887    5.4792   11.4819 C   0  0  0  0  0  0  0  0  0  0  0  0
    0.8479    6.4361   12.3234 N   0  0  0  0  0  0  0  0  0  0  0  0
    1.0102    6.0991   13.6959 C   0  0  0  0  0  0  0  0  0  0  0  0
    1.6210    4.7492   13.8300 C   0  0  0  0  0  0  0  0  0  0  0  0
    1.3495    7.7536   11.9904 C   0  0  0  0  0  0  0  0  0  0  0  0
    2.5092    7.5656   11.0343 C   0  0  0  0  0  0  0  0  0  0  0  0
    1.8668    8.3913   13.2499 C   0  0  0  0  0  0  0  0  0  0  0  0
    2.9554   -0.5826   20.4242 N   0  0  0  0  0  0  0  0  0  0  0  0
    2.3021   -1.3718   20.5899 H   0  0  0  0  0  0  0  0  0  0  0  0
    3.8287   -0.1358   21.4479 C   0  0  0  0  0  0  0  0  0  0  0  0
    3.3062    0.9515   22.3361 C   0  0  0  0  0  0  0  0  0  0  0  0
    5.6291    1.6483   21.9826 C   0  0  0  0  0  0  0  0  0  0  0  0
    4.2616    2.1358   22.3931 C   0  0  0  0  0  0  0  0  0  0  0  0
    4.6473    2.8159   17.4690 N   0  0  0  0  0  0  0  0  0  0  0  0
    5.4912    2.8535   16.8989 H   0  0  0  0  0  0  0  0  0  0  0  0
    4.2998    4.0542   18.1978 C   0  0  0  0  0  0  0  0  0  0  0  0
    5.3301    4.3254   19.2949 C   0  0  0  0  0  0  0  0  0  0  0  0
    5.3451    5.7927   19.6260 C   0  0  0  0  0  0  0  0  0  0  0  0
    4.0065    6.4621   19.3568 C   0  0  0  0  0  0  0  0  0  0  0  0
    2.9991    5.9692   20.1563 O   0  0  0  0  0  0  0  0  0  0  0  0
    3.6334    6.3638   17.8929 C   0  0  0  0  0  0  0  0  0  0  0  0
    4.4137    5.2230   17.2457 C   0  0  0  0  0  0  0  0  0  0  0  0
    3.3558    5.3307   20.8015 H   0  0  0  0  0  0  0  0  0  0  0  0
 25 26  1  0  0  0
 26 24  1  0  0  0
 24 23  1  0  0  0
 23 21  1  0  0  0
 21  1  1  0  0  0
  1  2  2  0  0  0
  2  3  1  0  0  0
  3  4  2  0  0  0
  4  7  1  0  0  0
  7  8  2  0  0  0
  7  9  1  0  0  0
  9 11  1  0  0  0
 11 12  1  0  0  0
 12 13  1  0  0  0
 13 14  1  0  0  0
 14 15  1  0  0  0
 15 16  1  0  0  0
 16 17  1  0  0  0
 15 18  1  0  0  0
 18 19  1  0  0  0
 18 20  1  0  0  0
  4  5  1  0  0  0
  5 27  1  0  0  0
 27 29  1  0  0  0
 29 30  1  0  0  0
 30 31  1  0  0  0
 31 32  1  0  0  0
 32 33  1  0  0  0
 32 34  1  0  0  0
 34 35  1  0  0  0
  5  6  2  0  0  0
  6  1  1  0  0  0
 17 12  1  0  0  0
 35 29  1  0  0  0
 21 22  1  0  0  0
  9 10  1  0  0  0
 27 28  1  0  0  0
 33 36  1  0  0  0
M  END
> <minimizedAffinity>
-7.73296

> <CNNscore>
0.9611893892

> <CNNaffinity>
7.2107534409

> <CNN_VS>
6.9308996201

> <CNNaffinity_variance>
0.1896010190

$$$$
[H]O[C@]1([H])C([H])([H])C([H])([H])[C@@]([H])(N([H])c2nc(N([H])C([H])([H])C([H])([H])C([H])([H])C([H])([H])[H])nc([H])c2C(=O)N([H])C([H])([H])C2([H])C([H])([H])C([H])([H])N(C([H])(C([H])([H])[H])C([H])([H])[H])C([H])([H])C2([H])[H])C([H])([H])C1([H])[H]


 36 38  0  0  0  0  0  0  0  0999 V2000
    2.9972    0.2018   18.8268 C   0  0  0  0  0  0  0  0  0  0  0  0
    2.3375   -0.1411   17.7195 N   0  0  0  0  0  0  0  0  0  0  0  0
    2.4367    0.4681   16.5403 C   0  0  0  0  0  0  0  0  0  0  0  0
    3.2965    1.5665   16.4110 C   0  0  0  0  0  0  0  0  0  0  0  0
    3.9879    1.9384   17.5390 C   0  0  0  0  0  0  0  0  0  0  0  0
    3.8227    1.2520   18.7123 N   0  0  0  0  0  0  0  0  0  0  0  0
    3.3724    2.2146   15.1204 C   0  0  0  0  0  0  0  0  0  0  0  0
    3.0180    1.6055   14.0856 O   0  0  0  0  0  0  0  0  0  0  0  0
    3.8286    3.5340   14.8935 N   0  0  0  0  0  0  0  0  0  0  0  0
    4.1358    4.1049   15.7012 H   0  0  0  0  0  0  0  0  0  0  0  0
    3.8885    4.1320   13.5934 C   0  0  0  0  0  0  0  0  0  0  0  0
    3.1223    5.4149   13.4299 C   0  0  0  0  0  0  0  0  0  0  0  0
    2.1991    5.6898   14.5859 C   0  0  0  0  0  0  0  0  0  0  0  0
    0.7599    5.5842   14.1327 C   0  0  0  0  0  0  0  0  0  0  0  0
    0.5262    6.5669   13.1257 N   0  0  0  0  0  0  0  0  0  0  0  0
    1.2762    6.2827   11.9509 C   0  0  0  0  0  0  0  0  0  0  0  0
    2.2276    5.1664   12.2001 C   0  0  0  0  0  0  0  0  0  0  0  0
   -0.9004    6.6574   12.8908 C   0  0  0  0  0  0  0  0  0  0  0  0
   -1.5641    6.8883   14.2326 C   0  0  0  0  0  0  0  0  0  0  0  0
   -1.3711    5.3376   12.3454 C   0  0  0  0  0  0  0  0  0  0  0  0
    2.8455   -0.4951   20.0638 N   0  0  0  0  0  0  0  0  0  0  0  0
    2.1336   -1.2477   20.1252 H   0  0  0  0  0  0  0  0  0  0  0  0
    3.6507   -0.1644   21.1831 C   0  0  0  0  0  0  0  0  0  0  0  0
    3.0547    0.7954   22.1668 C   0  0  0  0  0  0  0  0  0  0  0  0
    4.7823    2.0185   23.4023 C   0  0  0  0  0  0  0  0  0  0  0  0
    3.8414    2.0978   22.2256 C   0  0  0  0  0  0  0  0  0  0  0  0
    4.9079    3.0205   17.5079 N   0  0  0  0  0  0  0  0  0  0  0  0
    5.7903    3.0856   17.0022 H   0  0  0  0  0  0  0  0  0  0  0  0
    4.5360    4.1985   18.3200 C   0  0  0  0  0  0  0  0  0  0  0  0
    5.3683    4.2371   19.6024 C   0  0  0  0  0  0  0  0  0  0  0  0
    5.4427    5.6486   20.1172 C   0  0  0  0  0  0  0  0  0  0  0  0
    4.2346    6.4785   19.7120 C   0  0  0  0  0  0  0  0  0  0  0  0
    3.0617    6.0057   20.2579 O   0  0  0  0  0  0  0  0  0  0  0  0
    4.1272    6.5840   18.2057 C   0  0  0  0  0  0  0  0  0  0  0  0
    4.9162    5.4486   17.5597 C   0  0  0  0  0  0  0  0  0  0  0  0
    3.2418    5.2655   20.8669 H   0  0  0  0  0  0  0  0  0  0  0  0
 25 26  1  0  0  0
 26 24  1  0  0  0
 24 23  1  0  0  0
 23 21  1  0  0  0
 21  1  1  0  0  0
  1  2  2  0  0  0
  2  3  1  0  0  0
  3  4  2  0  0  0
  4  7  1  0  0  0
  7  8  2  0  0  0
  7  9  1  0  0  0
  9 11  1  0  0  0
 11 12  1  0  0  0
 12 13  1  0  0  0
 13 14  1  0  0  0
 14 15  1  0  0  0
 15 16  1  0  0  0
 16 17  1  0  0  0
 15 18  1  0  0  0
 18 19  1  0  0  0
 18 20  1  0  0  0
  4  5  1  0  0  0
  5 27  1  0  0  0
 27 29  1  0  0  0
 29 30  1  0  0  0
 30 31  1  0  0  0
 31 32  1  0  0  0
 32 33  1  0  0  0
 32 34  1  0  0  0
 34 35  1  0  0  0
  5  6  2  0  0  0
  6  1  1  0  0  0
 17 12  1  0  0  0
 35 29  1  0  0  0
 21 22  1  0  0  0
  9 10  1  0  0  0
 27 28  1  0  0  0
 33 36  1  0  0  0
M  END
> <minimizedAffinity>
-8.00370

> <CNNscore>
0.9046599269

> <CNNaffinity>
7.1594939232

> <CNN_VS>
6.4769072533

> <CNNaffinity_variance>
0.1952033788

$$$$
[H]O[C@]1([H])C([H])([H])C([H])([H])[C@@]([H])(N([H])c2nc(N([H])C([H])([H])C([H])([H])C([H])([H])C([H])([H])[H])nc([H])c2C(=O)N([H])C([H])([H])C2([H])C([H])([H])C([H])([H])N(C([H])(C([H])([H])[H])C([H])([H])[H])C([H])([H])C2([H])[H])C([H])([H])C1([H])[H]


 36 38  0  0  0  0  0  0  0  0999 V2000
    2.6855    0.8926   16.5033 C   0  0  0  0  0  0  0  0  0  0  0  0
    2.2981    0.0850   17.4915 N   0  0  0  0  0  0  0  0  0  0  0  0
    2.7378    0.1330   18.7468 C   0  0  0  0  0  0  0  0  0  0  0  0
    3.6882    1.0998   19.0994 C   0  0  0  0  0  0  0  0  0  0  0  0
    4.1026    1.9443   18.0975 C   0  0  0  0  0  0  0  0  0  0  0  0
    3.5950    1.8214   16.8316 N   0  0  0  0  0  0  0  0  0  0  0  0
    4.1554    1.1179   20.4678 C   0  0  0  0  0  0  0  0  0  0  0  0
    4.9569    0.2458   20.8735 O   0  0  0  0  0  0  0  0  0  0  0  0
    3.7824    2.0681   21.4468 N   0  0  0  0  0  0  0  0  0  0  0  0
    3.1249    2.8250   21.1871 H   0  0  0  0  0  0  0  0  0  0  0  0
    4.2706    2.0423   22.7932 C   0  0  0  0  0  0  0  0  0  0  0  0
    5.0593    3.2473   23.2239 C   0  0  0  0  0  0  0  0  0  0  0  0
    4.2194    4.4936   23.2974 C   0  0  0  0  0  0  0  0  0  0  0  0
    4.6437    5.4656   22.2189 C   0  0  0  0  0  0  0  0  0  0  0  0
    6.0057    5.8262   22.4411 N   0  0  0  0  0  0  0  0  0  0  0  0
    6.8669    4.7097   22.2531 C   0  0  0  0  0  0  0  0  0  0  0  0
    6.0715    3.4640   22.0824 C   0  0  0  0  0  0  0  0  0  0  0  0
    6.3297    6.9534   21.5908 C   0  0  0  0  0  0  0  0  0  0  0  0
    7.5489    7.6289   22.1835 C   0  0  0  0  0  0  0  0  0  0  0  0
    5.1790    7.9202   21.6342 C   0  0  0  0  0  0  0  0  0  0  0  0
    2.1736    0.7883   15.1744 N   0  0  0  0  0  0  0  0  0  0  0  0
    2.0657   -0.1557   14.7570 H   0  0  0  0  0  0  0  0  0  0  0  0
    1.8215    1.9505   14.4423 C   0  0  0  0  0  0  0  0  0  0  0  0
    2.6563    2.2507   13.2351 C   0  0  0  0  0  0  0  0  0  0  0  0
    2.7439    1.4895   10.9072 C   0  0  0  0  0  0  0  0  0  0  0  0
    1.8511    2.1157   11.9498 C   0  0  0  0  0  0  0  0  0  0  0  0
    5.0413    2.9789   18.3561 N   0  0  0  0  0  0  0  0  0  0  0  0
    5.9631    2.9034   18.7842 H   0  0  0  0  0  0  0  0  0  0  0  0
    4.6195    4.3383   17.9571 C   0  0  0  0  0  0  0  0  0  0  0  0
    3.4660    4.8122   18.8422 C   0  0  0  0  0  0  0  0  0  0  0  0
    3.4258    6.3158   18.8624 C   0  0  0  0  0  0  0  0  0  0  0  0
    3.9985    6.9286   17.5939 C   0  0  0  0  0  0  0  0  0  0  0  0
    3.2630    6.6090   16.4741 O   0  0  0  0  0  0  0  0  0  0  0  0
    5.4526    6.5479   17.4140 C   0  0  0  0  0  0  0  0  0  0  0  0
    5.7551    5.2971   18.2342 C   0  0  0  0  0  0  0  0  0  0  0  0
    2.4643    6.1068   16.7212 H   0  0  0  0  0  0  0  0  0  0  0  0
 25 26  1  0  0  0
 26 24  1  0  0  0
 24 23  1  0  0  0
 23 21  1  0  0  0
 21  1  1  0  0  0
  1  2  2  0  0  0
  2  3  1  0  0  0
  3  4  2  0  0  0
  4  7  1  0  0  0
  7  8  2  0  0  0
  7  9  1  0  0  0
  9 11  1  0  0  0
 11 12  1  0  0  0
 12 13  1  0  0  0
 13 14  1  0  0  0
 14 15  1  0  0  0
 15 16  1  0  0  0
 16 17  1  0  0  0
 15 18  1  0  0  0
 18 19  1  0  0  0
 18 20  1  0  0  0
  4  5  1  0  0  0
  5 27  1  0  0  0
 27 29  1  0  0  0
 29 30  1  0  0  0
 30 31  1  0  0  0
 31 32  1  0  0  0
 32 33  1  0  0  0
 32 34  1  0  0  0
 34 35  1  0  0  0
  5  6  2  0  0  0
  6  1  1  0  0  0
 17 12  1  0  0  0
 35 29  1  0  0  0
 21 22  1  0  0  0
  9 10  1  0  0  0
 27 28  1  0  0  0
 33 36  1  0  0  0
M  END
> <minimizedAffinity>
-7.97915

> <CNNscore>
0.8251710534

> <CNNaffinity>
7.2603425980

> <CNN_VS>
5.9910244942

> <CNNaffinity_variance>
0.0476103500

$$$$
[H]O[C@]1([H])C([H])([H])C([H])([H])[C@@]([H])(N([H])c2nc(N([H])C([H])([H])C([H])([H])C([H])([H])C([H])([H])[H])nc([H])c2C(=O)N([H])C([H])([H])C2([H])C([H])([H])C([H])([H])N(C([H])(C([H])([H])[H])C([H])([H])[H])C([H])([H])C2([H])[H])C([H])([H])C1([H])[H]


 36 38  0  0  0  0  0  0  0  0999 V2000
    4.0218    1.3922   21.8479 C   0  0  0  0  0  0  0  0  0  0  0  0
    3.1200    0.4744   21.4973 N   0  0  0  0  0  0  0  0  0  0  0  0
    2.7813    0.1602   20.2492 C   0  0  0  0  0  0  0  0  0  0  0  0
    3.4025    0.8279   19.1859 C   0  0  0  0  0  0  0  0  0  0  0  0
    4.3364    1.7784   19.5224 C   0  0  0  0  0  0  0  0  0  0  0  0
    4.6218    2.0365   20.8366 N   0  0  0  0  0  0  0  0  0  0  0  0
    3.0036    0.4730   17.8420 C   0  0  0  0  0  0  0  0  0  0  0  0
    2.6321   -0.6937   17.5805 O   0  0  0  0  0  0  0  0  0  0  0  0
    2.9878    1.3524   16.7344 N   0  0  0  0  0  0  0  0  0  0  0  0
    3.2779    2.3372   16.8710 H   0  0  0  0  0  0  0  0  0  0  0  0
    2.5869    0.9522   15.4189 C   0  0  0  0  0  0  0  0  0  0  0  0
    2.8653    1.9426   14.3228 C   0  0  0  0  0  0  0  0  0  0  0  0
    3.3336    3.2724   14.8487 C   0  0  0  0  0  0  0  0  0  0  0  0
    2.2836    4.3292   14.5868 C   0  0  0  0  0  0  0  0  0  0  0  0
    2.0938    4.4433   13.1778 N   0  0  0  0  0  0  0  0  0  0  0  0
    1.5243    3.2552   12.6413 C   0  0  0  0  0  0  0  0  0  0  0  0
    1.4887    2.1848   13.6739 C   0  0  0  0  0  0  0  0  0  0  0  0
    1.3070    5.6302   12.9123 C   0  0  0  0  0  0  0  0  0  0  0  0
    2.1829    6.5851   12.1279 C   0  0  0  0  0  0  0  0  0  0  0  0
    0.9625    6.2694   14.2289 C   0  0  0  0  0  0  0  0  0  0  0  0
    4.3402    1.6825   23.2092 N   0  0  0  0  0  0  0  0  0  0  0  0
    4.3458    0.9031   23.8944 H   0  0  0  0  0  0  0  0  0  0  0  0
    4.6415    3.0075   23.6143 C   0  0  0  0  0  0  0  0  0  0  0  0
    3.5227    3.9992   23.5198 C   0  0  0  0  0  0  0  0  0  0  0  0
    5.3063    5.2560   22.4036 C   0  0  0  0  0  0  0  0  0  0  0  0
    3.8108    5.0709   22.4771 C   0  0  0  0  0  0  0  0  0  0  0  0
    5.0458    2.4922   18.5196 N   0  0  0  0  0  0  0  0  0  0  0  0
    5.6035    2.1186   17.7528 H   0  0  0  0  0  0  0  0  0  0  0  0
    4.9668    3.9657   18.6079 C   0  0  0  0  0  0  0  0  0  0  0  0
    5.7659    4.6043   17.4710 C   0  0  0  0  0  0  0  0  0  0  0  0
    5.2396    5.9859   17.1939 C   0  0  0  0  0  0  0  0  0  0  0  0
    4.6086    6.6236   18.4219 C   0  0  0  0  0  0  0  0  0  0  0  0
    5.5176    6.8304   19.4358 O   0  0  0  0  0  0  0  0  0  0  0  0
    3.4275    5.8124   18.9102 C   0  0  0  0  0  0  0  0  0  0  0  0
    3.5340    4.3874   18.3744 C   0  0  0  0  0  0  0  0  0  0  0  0
    6.4172    6.5946   19.1421 H   0  0  0  0  0  0  0  0  0  0  0  0
 25 26  1  0  0  0
 26 24  1  0  0  0
 24 23  1  0  0  0
 23 21  1  0  0  0
 21  1  1  0  0  0
  1  2  2  0  0  0
  2  3  1  0  0  0
  3  4  2  0  0  0
  4  7  1  0  0  0
  7  8  2  0  0  0
  7  9  1  0  0  0
  9 11  1  0  0  0
 11 12  1  0  0  0
 12 13  1  0  0  0
 13 14  1  0  0  0
 14 15  1  0  0  0
 15 16  1  0  0  0
 16 17  1  0  0  0
 15 18  1  0  0  0
 18 19  1  0  0  0
 18 20  1  0  0  0
  4  5  1  0  0  0
  5 27  1  0  0  0
 27 29  1  0  0  0
 29 30  1  0  0  0
 30 31  1  0  0  0
 31 32  1  0  0  0
 32 33  1  0  0  0
 32 34  1  0  0  0
 34 35  1  0  0  0
  5  6  2  0  0  0
  6  1  1  0  0  0
 17 12  1  0  0  0
 35 29  1  0  0  0
 21 22  1  0  0  0
  9 10  1  0  0  0
 27 28  1  0  0  0
 33 36  1  0  0  0
M  END
> <minimizedAffinity>
-7.98068

> <CNNscore>
0.6351028681

> <CNNaffinity>
7.0781402588

> <CNN_VS>
4.4953470230

> <CNNaffinity_variance>
0.2566578388

$$$$
[H]O[C@]1([H])C([H])([H])C([H])([H])[C@@]([H])(N([H])c2nc(N([H])C([H])([H])C([H])([H])C([H])([H])C([H])([H])[H])nc([H])c2C(=O)N([H])C([H])([H])C2([H])C([H])([H])C([H])([H])N(C([H])(C([H])([H])[H])C([H])([H])[H])C([H])([H])C2([H])[H])C([H])([H])C1([H])[H]


 36 38  0  0  0  0  0  0  0  0999 V2000
    3.9042    1.0578   19.3695 C   0  0  0  0  0  0  0  0  0  0  0  0
    3.1088    0.4888   18.4627 N   0  0  0  0  0  0  0  0  0  0  0  0
    2.9610    0.8911   17.2027 C   0  0  0  0  0  0  0  0  0  0  0  0
    3.6853    2.0025   16.7528 C   0  0  0  0  0  0  0  0  0  0  0  0
    4.5125    2.6056   17.6696 C   0  0  0  0  0  0  0  0  0  0  0  0
    4.6016    2.1224   18.9477 N   0  0  0  0  0  0  0  0  0  0  0  0
    3.4931    2.4224   15.3823 C   0  0  0  0  0  0  0  0  0  0  0  0
    3.9365    3.5261   14.9915 O   0  0  0  0  0  0  0  0  0  0  0  0
    2.8219    1.6771   14.3852 N   0  0  0  0  0  0  0  0  0  0  0  0
    2.4298    0.7502   14.6297 H   0  0  0  0  0  0  0  0  0  0  0  0
    2.6537    2.1378   13.0394 C   0  0  0  0  0  0  0  0  0  0  0  0
    1.2358    2.3920   12.6098 C   0  0  0  0  0  0  0  0  0  0  0  0
    1.0429    2.2342   11.1258 C   0  0  0  0  0  0  0  0  0  0  0  0
    0.7390    3.5771   10.4997 C   0  0  0  0  0  0  0  0  0  0  0  0
   -0.4729    4.0776   11.0611 N   0  0  0  0  0  0  0  0  0  0  0  0
   -0.3117    4.3734   12.4431 C   0  0  0  0  0  0  0  0  0  0  0  0
    1.0060    3.8821   12.9286 C   0  0  0  0  0  0  0  0  0  0  0  0
   -0.9112    5.2134   10.2760 C   0  0  0  0  0  0  0  0  0  0  0  0
   -2.2660    5.6328   10.8079 C   0  0  0  0  0  0  0  0  0  0  0  0
   -1.0755    4.7636    8.8507 C   0  0  0  0  0  0  0  0  0  0  0  0
    4.0178    0.5760   20.7089 N   0  0  0  0  0  0  0  0  0  0  0  0
    4.4456   -0.3563   20.8661 H   0  0  0  0  0  0  0  0  0  0  0  0
    3.5551    1.3557   21.7991 C   0  0  0  0  0  0  0  0  0  0  0  0
    4.5976    2.1202   22.5559 C   0  0  0  0  0  0  0  0  0  0  0  0
    4.0823    4.5159   22.5192 C   0  0  0  0  0  0  0  0  0  0  0  0
    3.9849    3.2631   23.3540 C   0  0  0  0  0  0  0  0  0  0  0  0
    5.3133    3.7218   17.3073 N   0  0  0  0  0  0  0  0  0  0  0  0
    6.1763    3.7312   16.7652 H   0  0  0  0  0  0  0  0  0  0  0  0
    4.8322    5.0352   17.7857 C   0  0  0  0  0  0  0  0  0  0  0  0
    3.3938    4.9160   18.2914 C   0  0  0  0  0  0  0  0  0  0  0  0
    3.1094    6.0158   19.2775 C   0  0  0  0  0  0  0  0  0  0  0  0
    3.9567    7.2534   19.0268 C   0  0  0  0  0  0  0  0  0  0  0  0
    3.6853    7.8422   17.8116 O   0  0  0  0  0  0  0  0  0  0  0  0
    5.4316    6.9392   19.1592 C   0  0  0  0  0  0  0  0  0  0  0  0
    5.6477    5.4376   18.9933 C   0  0  0  0  0  0  0  0  0  0  0  0
    2.9408    7.3913   17.3716 H   0  0  0  0  0  0  0  0  0  0  0  0
 25 26  1  0  0  0
 26 24  1  0  0  0
 24 23  1  0  0  0
 23 21  1  0  0  0
 21  1  1  0  0  0
  1  2  2  0  0  0
  2  3  1  0  0  0
  3  4  2  0  0  0
  4  7  1  0  0  0
  7  8  2  0  0  0
  7  9  1  0  0  0
  9 11  1  0  0  0
 11 12  1  0  0  0
 12 13  1  0  0  0
 13 14  1  0  0  0
 14 15  1  0  0  0
 15 16  1  0  0  0
 16 17  1  0  0  0
 15 18  1  0  0  0
 18 19  1  0  0  0
 18 20  1  0  0  0
  4  5  1  0  0  0
  5 27  1  0  0  0
 27 29  1  0  0  0
 29 30  1  0  0  0
 30 31  1  0  0  0
 31 32  1  0  0  0
 32 33  1  0  0  0
 32 34  1  0  0  0
 34 35  1  0  0  0
  5  6  2  0  0  0
  6  1  1  0  0  0
 17 12  1  0  0  0
 35 29  1  0  0  0
 21 22  1  0  0  0
  9 10  1  0  0  0
 27 28  1  0  0  0
 33 36  1  0  0  0
M  END
> <minimizedAffinity>
-7.18840

> <CNNscore>
0.6223519444

> <CNNaffinity>
6.8460149765

> <CNN_VS>
4.2606306076

> <CNNaffinity_variance>
0.5578712225

$$$$
[H]O[C@]1([H])C([H])([H])C([H])([H])[C@@]([H])(N([H])c2nc(N([H])C([H])([H])C([H])([H])C([H])([H])C([H])([H])[H])nc([H])c2C(=O)N([H])C([H])([H])C2([H])C([H])([H])C([H])([H])N(C([H])(C([H])([H])[H])C([H])([H])[H])C([H])([H])C2([H])[H])C([H])([H])C1([H])[H]


 36 38  0  0  0  0  0  0  0  0999 V2000
    4.0047    1.7310   17.7493 C   0  0  0  0  0  0  0  0  0  0  0  0
    2.9819    1.2188   17.0635 N   0  0  0  0  0  0  0  0  0  0  0  0
    2.4361    1.7540   15.9739 C   0  0  0  0  0  0  0  0  0  0  0  0
    2.9517    2.9567   15.4740 C   0  0  0  0  0  0  0  0  0  0  0  0
    4.0069    3.5037   16.1639 C   0  0  0  0  0  0  0  0  0  0  0  0
    4.5049    2.8822   17.2779 N   0  0  0  0  0  0  0  0  0  0  0  0
    2.3288    3.5191   14.2963 C   0  0  0  0  0  0  0  0  0  0  0  0
    1.7552    4.6305   14.3545 O   0  0  0  0  0  0  0  0  0  0  0  0
    2.2989    2.9133   13.0186 N   0  0  0  0  0  0  0  0  0  0  0  0
    2.7562    1.9933   12.8884 H   0  0  0  0  0  0  0  0  0  0  0  0
    1.6651    3.5095   11.8809 C   0  0  0  0  0  0  0  0  0  0  0  0
    2.5908    4.0922   10.8497 C   0  0  0  0  0  0  0  0  0  0  0  0
    4.0124    3.6294   11.0197 C   0  0  0  0  0  0  0  0  0  0  0  0
    4.8844    4.7888   11.4477 C   0  0  0  0  0  0  0  0  0  0  0  0
    4.8533    5.7836   10.4260 N   0  0  0  0  0  0  0  0  0  0  0  0
    3.5563    6.3560   10.3097 C   0  0  0  0  0  0  0  0  0  0  0  0
    2.5808    5.6046   11.1448 C   0  0  0  0  0  0  0  0  0  0  0  0
    5.8907    6.7574   10.6977 C   0  0  0  0  0  0  0  0  0  0  0  0
    5.6775    7.9191    9.7495 C   0  0  0  0  0  0  0  0  0  0  0  0
    7.2200    6.1260   10.3890 C   0  0  0  0  0  0  0  0  0  0  0  0
    4.5450    1.1055   18.9136 N   0  0  0  0  0  0  0  0  0  0  0  0
    5.1306    0.2570   18.7944 H   0  0  0  0  0  0  0  0  0  0  0  0
    4.2856    1.6332   20.2038 C   0  0  0  0  0  0  0  0  0  0  0  0
    5.4112    2.3789   20.8527 C   0  0  0  0  0  0  0  0  0  0  0  0
    5.8315    4.7890   20.9992 C   0  0  0  0  0  0  0  0  0  0  0  0
    4.9316    3.6792   21.4835 C   0  0  0  0  0  0  0  0  0  0  0  0
    4.6224    4.7061   15.7237 N   0  0  0  0  0  0  0  0  0  0  0  0
    5.1784    4.8607   14.8838 H   0  0  0  0  0  0  0  0  0  0  0  0
    4.4346    5.8789   16.6037 C   0  0  0  0  0  0  0  0  0  0  0  0
    3.2838    5.6260   17.5787 C   0  0  0  0  0  0  0  0  0  0  0  0
    3.4544    6.4874   18.8001 C   0  0  0  0  0  0  0  0  0  0  0  0
    4.2206    7.7674   18.5051 C   0  0  0  0  0  0  0  0  0  0  0  0
    3.5522    8.5931   17.6284 O   0  0  0  0  0  0  0  0  0  0  0  0
    5.6167    7.4631   18.0052 C   0  0  0  0  0  0  0  0  0  0  0  0
    5.6641    6.0349   17.4695 C   0  0  0  0  0  0  0  0  0  0  0  0
    2.6715    8.2295   17.4200 H   0  0  0  0  0  0  0  0  0  0  0  0
 25 26  1  0  0  0
 26 24  1  0  0  0
 24 23  1  0  0  0
 23 21  1  0  0  0
 21  1  1  0  0  0
  1  2  2  0  0  0
  2  3  1  0  0  0
  3  4  2  0  0  0
  4  7  1  0  0  0
  7  8  2  0  0  0
  7  9  1  0  0  0
  9 11  1  0  0  0
 11 12  1  0  0  0
 12 13  1  0  0  0
 13 14  1  0  0  0
 14 15  1  0  0  0
 15 16  1  0  0  0
 16 17  1  0  0  0
 15 18  1  0  0  0
 18 19  1  0  0  0
 18 20  1  0  0  0
  4  5  1  0  0  0
  5 27  1  0  0  0
 27 29  1  0  0  0
 29 30  1  0  0  0
 30 31  1  0  0  0
 31 32  1  0  0  0
 32 33  1  0  0  0
 32 34  1  0  0  0
 34 35  1  0  0  0
  5  6  2  0  0  0
  6  1  1  0  0  0
 17 12  1  0  0  0
 35 29  1  0  0  0
 21 22  1  0  0  0
  9 10  1  0  0  0
 27 28  1  0  0  0
 33 36  1  0  0  0
M  END
> <minimizedAffinity>
-6.32613

> <CNNscore>
0.5388892889

> <CNNaffinity>
6.5715188980

> <CNN_VS>
3.5413210392

> <CNNaffinity_variance>
0.4613919854

$$$$
[H]O[C@]1([H])C([H])([H])C([H])([H])[C@@]([H])(N([H])c2nc(N([H])C([H])([H])C([H])([H])C([H])([H])C([H])([H])[H])nc([H])c2C(=O)N([H])C([H])([H])C2([H])C([H])([H])C([H])([H])N(C([H])(C([H])([H])[H])C([H])([H])[H])C([H])([H])C2([H])[H])C([H])([H])C1([H])[H]


 36 38  0  0  0  0  0  0  0  0999 V2000
    4.3308    1.7053   18.5994 C   0  0  0  0  0  0  0  0  0  0  0  0
    3.4880    1.1569   17.7233 N   0  0  0  0  0  0  0  0  0  0  0  0
    3.1889    1.6512   16.5244 C   0  0  0  0  0  0  0  0  0  0  0  0
    3.7899    2.8473   16.1112 C   0  0  0  0  0  0  0  0  0  0  0  0
    4.6630    3.4312   16.9973 C   0  0  0  0  0  0  0  0  0  0  0  0
    4.9109    2.8504   18.2124 N   0  0  0  0  0  0  0  0  0  0  0  0
    3.4345    3.3651   14.8085 C   0  0  0  0  0  0  0  0  0  0  0  0
    3.5195    4.5915   14.5714 O   0  0  0  0  0  0  0  0  0  0  0  0
    2.9778    2.5901   13.7172 N   0  0  0  0  0  0  0  0  0  0  0  0
    2.8846    1.5652   13.8333 H   0  0  0  0  0  0  0  0  0  0  0  0
    2.6342    3.1505   12.4446 C   0  0  0  0  0  0  0  0  0  0  0  0
    1.1746    3.1109   12.0874 C   0  0  0  0  0  0  0  0  0  0  0  0
    0.9380    3.2104   10.6047 C   0  0  0  0  0  0  0  0  0  0  0  0
    0.2691    4.5268   10.2766 C   0  0  0  0  0  0  0  0  0  0  0  0
   -0.9934    4.5736   10.9386 N   0  0  0  0  0  0  0  0  0  0  0  0
   -0.8283    4.6167   12.3509 C   0  0  0  0  0  0  0  0  0  0  0  0
    0.5975    4.3952   12.7136 C   0  0  0  0  0  0  0  0  0  0  0  0
   -1.7497    5.6915   10.4125 C   0  0  0  0  0  0  0  0  0  0  0  0
   -3.1799    5.5295   10.8841 C   0  0  0  0  0  0  0  0  0  0  0  0
   -1.7289    5.6076    8.9114 C   0  0  0  0  0  0  0  0  0  0  0  0
    4.6090    1.1227   19.8730 N   0  0  0  0  0  0  0  0  0  0  0  0
    5.0259    0.1728   19.9036 H   0  0  0  0  0  0  0  0  0  0  0  0
    4.3208    1.8279   21.0689 C   0  0  0  0  0  0  0  0  0  0  0  0
    5.4458    1.9553   22.0498 C   0  0  0  0  0  0  0  0  0  0  0  0
    5.1014    4.3220   21.5143 C   0  0  0  0  0  0  0  0  0  0  0  0
    6.1352    3.3085   21.9387 C   0  0  0  0  0  0  0  0  0  0  0  0
    5.3484    4.6302   16.6643 N   0  0  0  0  0  0  0  0  0  0  0  0
    5.9193    4.8246   15.8428 H   0  0  0  0  0  0  0  0  0  0  0  0
    5.2187    5.7323   17.6410 C   0  0  0  0  0  0  0  0  0  0  0  0
    6.0160    6.9493   17.1696 C   0  0  0  0  0  0  0  0  0  0  0  0
    5.4487    8.1982   17.7871 C   0  0  0  0  0  0  0  0  0  0  0  0
    4.7752    7.9304   19.1239 C   0  0  0  0  0  0  0  0  0  0  0  0
    5.6587    7.4799   20.0797 O   0  0  0  0  0  0  0  0  0  0  0  0
    3.6134    6.9728   18.9658 C   0  0  0  0  0  0  0  0  0  0  0  0
    3.7769    6.1860   17.6684 C   0  0  0  0  0  0  0  0  0  0  0  0
    6.5707    7.4900   19.7344 H   0  0  0  0  0  0  0  0  0  0  0  0
 25 26  1  0  0  0
 26 24  1  0  0  0
 24 23  1  0  0  0
 23 21  1  0  0  0
 21  1  1  0  0  0
  1  2  2  0  0  0
  2  3  1  0  0  0
  3  4  2  0  0  0
  4  7  1  0  0  0
  7  8  2  0  0  0
  7  9  1  0  0  0
  9 11  1  0  0  0
 11 12  1  0  0  0
 12 13  1  0  0  0
 13 14  1  0  0  0
 14 15  1  0  0  0
 15 16  1  0  0  0
 16 17  1  0  0  0
 15 18  1  0  0  0
 18 19  1  0  0  0
 18 20  1  0  0  0
  4  5  1  0  0  0
  5 27  1  0  0  0
 27 29  1  0  0  0
 29 30  1  0  0  0
 30 31  1  0  0  0
 31 32  1  0  0  0
 32 33  1  0  0  0
 32 34  1  0  0  0
 34 35  1  0  0  0
  5  6  2  0  0  0
  6  1  1  0  0  0
 17 12  1  0  0  0
 35 29  1  0  0  0
 21 22  1  0  0  0
  9 10  1  0  0  0
 27 28  1  0  0  0
 33 36  1  0  0  0
M  END
> <minimizedAffinity>
-6.55377

> <CNNscore>
0.4377306700

> <CNNaffinity>
6.4927344322

> <CNN_VS>
2.8420689106

> <CNNaffinity_variance>
0.6623935103

$$$$
[H]O[C@]1([H])C([H])([H])C([H])([H])[C@@]([H])(N([H])c2nc(N([H])C([H])([H])C([H])([H])C([H])([H])C([H])([H])[H])nc([H])c2C(=O)N([H])C([H])([H])C2([H])C([H])([H])C([H])([H])N(C([H])(C([H])([H])[H])C([H])([H])[H])C([H])([H])C2([H])[H])C([H])([H])C1([H])[H]


 36 38  0  0  0  0  0  0  0  0999 V2000
    4.0547    1.6784   18.9671 C   0  0  0  0  0  0  0  0  0  0  0  0
    3.4181    1.3336   17.8470 N   0  0  0  0  0  0  0  0  0  0  0  0
    3.1968    2.1328   16.8060 C   0  0  0  0  0  0  0  0  0  0  0  0
    3.6562    3.4554   16.8525 C   0  0  0  0  0  0  0  0  0  0  0  0
    4.3160    3.8340   17.9970 C   0  0  0  0  0  0  0  0  0  0  0  0
    4.4982    2.9426   19.0205 N   0  0  0  0  0  0  0  0  0  0  0  0
    3.3890    4.3021   15.7110 C   0  0  0  0  0  0  0  0  0  0  0  0
    4.0832    4.2024   14.6739 O   0  0  0  0  0  0  0  0  0  0  0  0
    2.3715    5.2820   15.6401 N   0  0  0  0  0  0  0  0  0  0  0  0
    1.7514    5.4220   16.4577 H   0  0  0  0  0  0  0  0  0  0  0  0
    2.1477    6.1002   14.4860 C   0  0  0  0  0  0  0  0  0  0  0  0
    0.8932    5.8061   13.7117 C   0  0  0  0  0  0  0  0  0  0  0  0
    0.9741    4.5127   12.9469 C   0  0  0  0  0  0  0  0  0  0  0  0
    0.9957    4.7931   11.4607 C   0  0  0  0  0  0  0  0  0  0  0  0
   -0.2178    5.4524   11.1040 N   0  0  0  0  0  0  0  0  0  0  0  0
   -0.2896    6.7445   11.6945 C   0  0  0  0  0  0  0  0  0  0  0  0
    0.8225    6.9343   12.6644 C   0  0  0  0  0  0  0  0  0  0  0  0
   -0.3253    5.4723    9.6595 C   0  0  0  0  0  0  0  0  0  0  0  0
   -1.6891    6.0352    9.3171 C   0  0  0  0  0  0  0  0  0  0  0  0
   -0.2551    4.0544    9.1639 C   0  0  0  0  0  0  0  0  0  0  0  0
    4.2597    0.7708   20.0502 N   0  0  0  0  0  0  0  0  0  0  0  0
    3.9932   -0.2238   19.9212 H   0  0  0  0  0  0  0  0  0  0  0  0
    4.8150    1.2207   21.2749 C   0  0  0  0  0  0  0  0  0  0  0  0
    3.8514    1.4233   22.4039 C   0  0  0  0  0  0  0  0  0  0  0  0
    5.9007    2.5358   23.1583 C   0  0  0  0  0  0  0  0  0  0  0  0
    4.5050    2.1434   23.5756 C   0  0  0  0  0  0  0  0  0  0  0  0
    4.8480    5.1442   18.1337 N   0  0  0  0  0  0  0  0  0  0  0  0
    5.2470    5.7429   17.4119 H   0  0  0  0  0  0  0  0  0  0  0  0
    4.8229    5.7041   19.5016 C   0  0  0  0  0  0  0  0  0  0  0  0
    3.5427    5.2774   20.2212 C   0  0  0  0  0  0  0  0  0  0  0  0
    3.7588    5.3182   21.7093 C   0  0  0  0  0  0  0  0  0  0  0  0
    4.8138    6.3356   22.1147 C   0  0  0  0  0  0  0  0  0  0  0  0
    4.4443    7.6281   21.8147 O   0  0  0  0  0  0  0  0  0  0  0  0
    6.1571    6.0002   21.5025 C   0  0  0  0  0  0  0  0  0  0  0  0
    5.9517    5.0880   20.2964 C   0  0  0  0  0  0  0  0  0  0  0  0
    3.5346    7.6511   21.4637 H   0  0  0  0  0  0  0  0  0  0  0  0
 25 26  1  0  0  0
 26 24  1  0  0  0
 24 23  1  0  0  0
 23 21  1  0  0  0
 21  1  1  0  0  0
  1  2  2  0  0  0
  2  3  1  0  0  0
  3  4  2  0  0  0
  4  7  1  0  0  0
  7  8  2  0  0  0
  7  9  1  0  0  0
  9 11  1  0  0  0
 11 12  1  0  0  0
 12 13  1  0  0  0
 13 14  1  0  0  0
 14 15  1  0  0  0
 15 16  1  0  0  0
 16 17  1  0  0  0
 15 18  1  0  0  0
 18 19  1  0  0  0
 18 20  1  0  0  0
  4  5  1  0  0  0
  5 27  1  0  0  0
 27 29  1  0  0  0
 29 30  1  0  0  0
 30 31  1  0  0  0
 31 32  1  0  0  0
 32 33  1  0  0  0
 32 34  1  0  0  0
 34 35  1  0  0  0
  5  6  2  0  0  0
  6  1  1  0  0  0
 17 12  1  0  0  0
 35 29  1  0  0  0
 21 22  1  0  0  0
  9 10  1  0  0  0
 27 28  1  0  0  0
 33 36  1  0  0  0
M  END
> <minimizedAffinity>
-7.10327

> <CNNscore>
0.4354029298

> <CNNaffinity>
6.5419950485

> <CNN_VS>
2.8484036922

> <CNNaffinity_variance>
0.4137763381

$$$$
[H]O[C@]1([H])C([H])([H])C([H])([H])[C@@]([H])(N([H])c2nc(N([H])C([H])([H])C([H])([H])C([H])([H])C([H])([H])[H])nc([H])c2C(=O)N([H])C([H])([H])C2([H])C([H])([H])C([H])([H])N(C([H])(C([H])([H])[H])C([H])([H])[H])C([H])([H])C2([H])[H])C([H])([H])C1([H])[H]


 36 38  0  0  0  0  0  0  0  0999 V2000
    3.6751    2.4441   15.9046 C   0  0  0  0  0  0  0  0  0  0  0  0
    3.3717    1.6103   16.9003 N   0  0  0  0  0  0  0  0  0  0  0  0
    3.7390    1.7572   18.1711 C   0  0  0  0  0  0  0  0  0  0  0  0
    4.5104    2.8691   18.5332 C   0  0  0  0  0  0  0  0  0  0  0  0
    4.8354    3.7432   17.5238 C   0  0  0  0  0  0  0  0  0  0  0  0
    4.4131    3.5114   16.2419 N   0  0  0  0  0  0  0  0  0  0  0  0
    4.9042    2.9935   19.9191 C   0  0  0  0  0  0  0  0  0  0  0  0
    5.6613    2.1430   20.4397 O   0  0  0  0  0  0  0  0  0  0  0  0
    4.5029    4.0303   20.7934 N   0  0  0  0  0  0  0  0  0  0  0  0
    3.8789    4.7754   20.4356 H   0  0  0  0  0  0  0  0  0  0  0  0
    4.9177    4.1087   22.1621 C   0  0  0  0  0  0  0  0  0  0  0  0
    5.8029    5.2730   22.5094 C   0  0  0  0  0  0  0  0  0  0  0  0
    5.6523    6.4220   21.5495 C   0  0  0  0  0  0  0  0  0  0  0  0
    6.9218    6.5912   20.7448 C   0  0  0  0  0  0  0  0  0  0  0  0
    7.9920    6.8888   21.6395 N   0  0  0  0  0  0  0  0  0  0  0  0
    8.2705    5.7819   22.4886 C   0  0  0  0  0  0  0  0  0  0  0  0
    7.2327    4.7285   22.3251 C   0  0  0  0  0  0  0  0  0  0  0  0
    9.1360    7.3220   20.8636 C   0  0  0  0  0  0  0  0  0  0  0  0
    8.7793    7.1513   19.4015 C   0  0  0  0  0  0  0  0  0  0  0  0
   10.2911    6.4141   21.1831 C   0  0  0  0  0  0  0  0  0  0  0  0
    3.2488    2.2285   14.5590 N   0  0  0  0  0  0  0  0  0  0  0  0
    3.9576    2.2663   13.8019 H   0  0  0  0  0  0  0  0  0  0  0  0
    1.8860    1.9691   14.2654 C   0  0  0  0  0  0  0  0  0  0  0  0
    1.4914    2.0561   12.8229 C   0  0  0  0  0  0  0  0  0  0  0  0
    2.6155    3.2051   10.9728 C   0  0  0  0  0  0  0  0  0  0  0  0
    2.7073    2.0238   11.9067 C   0  0  0  0  0  0  0  0  0  0  0  0
    5.5890    4.9178   17.7895 N   0  0  0  0  0  0  0  0  0  0  0  0
    6.4737    5.0018   18.2883 H   0  0  0  0  0  0  0  0  0  0  0  0
    5.0079    6.1782   17.2805 C   0  0  0  0  0  0  0  0  0  0  0  0
    4.0493    6.7706   18.3144 C   0  0  0  0  0  0  0  0  0  0  0  0
    3.9228    8.2539   18.0983 C   0  0  0  0  0  0  0  0  0  0  0  0
    4.1654    8.6523   16.6509 C   0  0  0  0  0  0  0  0  0  0  0  0
    3.2236    8.1277   15.7936 O   0  0  0  0  0  0  0  0  0  0  0  0
    5.5653    8.2799   16.2113 C   0  0  0  0  0  0  0  0  0  0  0  0
    6.1159    7.1962   17.1341 C   0  0  0  0  0  0  0  0  0  0  0  0
    2.5305    7.6573   16.2932 H   0  0  0  0  0  0  0  0  0  0  0  0
 25 26  1  0  0  0
 26 24  1  0  0  0
 24 23  1  0  0  0
 23 21  1  0  0  0
 21  1  1  0  0  0
  1  2  2  0  0  0
  2  3  1  0  0  0
  3  4  2  0  0  0
  4  7  1  0  0  0
  7  8  2  0  0  0
  7  9  1  0  0  0
  9 11  1  0  0  0
 11 12  1  0  0  0
 12 13  1  0  0  0
 13 14  1  0  0  0
 14 15  1  0  0  0
 15 16  1  0  0  0
 16 17  1  0  0  0
 15 18  1  0  0  0
 18 19  1  0  0  0
 18 20  1  0  0  0
  4  5  1  0  0  0
  5 27  1  0  0  0
 27 29  1  0  0  0
 29 30  1  0  0  0
 30 31  1  0  0  0
 31 32  1  0  0  0
 32 33  1  0  0  0
 32 34  1  0  0  0
 34 35  1  0  0  0
  5  6  2  0  0  0
  6  1  1  0  0  0
 17 12  1  0  0  0
 35 29  1  0  0  0
 21 22  1  0  0  0
  9 10  1  0  0  0
 27 28  1  0  0  0
 33 36  1  0  0  0
M  END
> <minimizedAffinity>
-6.89103

> <CNNscore>
0.4311544299

> <CNNaffinity>
6.5742545128

> <CNN_VS>
2.8345189095

> <CNNaffinity_variance>
0.1527810693

$$$$
[H]OC1([H])C([H])([H])C([H])([H])C([H])(n2nc(-c3c([H])c([H])c(N([H])C(=O)C4([H])C([H])([H])C4([H])[H])c([H])c3[H])c3c([H])nc(N([H])C([H])([H])C([H])([H])C([H])([H])C([H])([H])[H])nc32)C([H])([H])C1([H])[H]


 36 40  0  0  0  0  0  0  0  0999 V2000
    3.6395    1.1639   18.7425 C   0  0  0  0  0  0  0  0  0  0  0  0
    3.2497    0.5716   17.5996 N   0  0  0  0  0  0  0  0  0  0  0  0
    3.2392    1.1767   16.3988 C   0  0  0  0  0  0  0  0  0  0  0  0
    3.6526    2.4871   16.3245 C   0  0  0  0  0  0  0  0  0  0  0  0
    3.7908    3.4377   15.3430 C   0  0  0  0  0  0  0  0  0  0  0  0
    4.2472    4.5483   15.9026 N   0  0  0  0  0  0  0  0  0  0  0  0
    4.4034    4.3373   17.2001 N   0  0  0  0  0  0  0  0  0  0  0  0
    4.0486    3.0791   17.5046 C   0  0  0  0  0  0  0  0  0  0  0  0
    4.0473    2.4448   18.6923 N   0  0  0  0  0  0  0  0  0  0  0  0
    4.8887    5.3565   18.0972 C   0  0  0  0  0  0  0  0  0  0  0  0
    6.2148    5.9406   17.6578 C   0  0  0  0  0  0  0  0  0  0  0  0
    6.7742    6.6696   18.8699 C   0  0  0  0  0  0  0  0  0  0  0  0
    5.8537    7.7055   19.4081 C   0  0  0  0  0  0  0  0  0  0  0  0
    6.2931    8.0365   20.7062 O   0  0  0  0  0  0  0  0  0  0  0  0
    4.4230    7.2686   19.5249 C   0  0  0  0  0  0  0  0  0  0  0  0
    3.9444    6.4812   18.3276 C   0  0  0  0  0  0  0  0  0  0  0  0
    7.1840    8.4690   20.6822 H   0  0  0  0  0  0  0  0  0  0  0  0
    3.4828    3.2480   13.9384 C   0  0  0  0  0  0  0  0  0  0  0  0
    3.9841    4.0959   12.9827 C   0  0  0  0  0  0  0  0  0  0  0  0
    3.6996    3.9199   11.6534 C   0  0  0  0  0  0  0  0  0  0  0  0
    2.8878    2.8751   11.1881 C   0  0  0  0  0  0  0  0  0  0  0  0
    2.4008    2.0432   12.1628 C   0  0  0  0  0  0  0  0  0  0  0  0
    2.6851    2.2151   13.5180 C   0  0  0  0  0  0  0  0  0  0  0  0
    2.6722    2.7769    9.8094 N   0  0  0  0  0  0  0  0  0  0  0  0
    1.5860    3.3482    9.1354 C   0  0  0  0  0  0  0  0  0  0  0  0
    0.6888    4.0080    9.6551 O   0  0  0  0  0  0  0  0  0  0  0  0
    3.4074    2.2150    9.2722 H   0  0  0  0  0  0  0  0  0  0  0  0
    1.5018    3.1399    7.6373 C   0  0  0  0  0  0  0  0  0  0  0  0
    0.6725    4.1152    6.8475 C   0  0  0  0  0  0  0  0  0  0  0  0
    2.1522    4.2241    6.8127 C   0  0  0  0  0  0  0  0  0  0  0  0
    3.6154    0.4367   19.9722 N   0  0  0  0  0  0  0  0  0  0  0  0
    3.2920   -0.5334   19.9934 H   0  0  0  0  0  0  0  0  0  0  0  0
    4.0481    1.0676   21.1952 C   0  0  0  0  0  0  0  0  0  0  0  0
    5.5215    0.8380   21.4170 C   0  0  0  0  0  0  0  0  0  0  0  0
    5.8717    2.6486   23.0066 C   0  0  0  0  0  0  0  0  0  0  0  0
    6.2826    2.1019   21.6521 C   0  0  0  0  0  0  0  0  0  0  0  0
 35 36  1  0  0  0
 36 34  1  0  0  0
 34 33  1  0  0  0
 33 31  1  0  0  0
 31  1  1  0  0  0
  1  2  2  0  0  0
  2  3  1  0  0  0
  3  4  2  0  0  0
  4  5  1  0  0  0
  5  6  2  0  0  0
  6  7  1  0  0  0
  7 10  1  0  0  0
 10 11  1  0  0  0
 11 12  1  0  0  0
 12 13  1  0  0  0
 13 14  1  0  0  0
 13 15  1  0  0  0
 15 16  1  0  0  0
  7  8  1  0  0  0
  8  9  2  0  0  0
  5 18  1  0  0  0
 18 19  2  0  0  0
 19 20  1  0  0  0
 20 21  2  0  0  0
 21 24  1  0  0  0
 24 25  1  0  0  0
 25 26  2  0  0  0
 25 28  1  0  0  0
 28 29  1  0  0  0
 29 30  1  0  0  0
 21 22  1  0  0  0
 22 23  2  0  0  0
  9  1  1  0  0  0
 23 18  1  0  0  0
  8  4  1  0  0  0
 30 28  1  0  0  0
 16 10  1  0  0  0
 31 32  1  0  0  0
 14 17  1  0  0  0
 24 27  1  0  0  0
M  END
> <minimizedAffinity>
-7.26397

> <CNNscore>
0.6500858068

> <CNNaffinity>
7.0643935204

> <CNN_VS>
4.5924620628

> <CNNaffinity_variance>
0.4646690786

$$$$
[H]OC1([H])C([H])([H])C([H])([H])C([H])(n2nc(-c3c([H])c([H])c(N([H])C(=O)C4([H])C([H])([H])C4([H])[H])c([H])c3[H])c3c([H])nc(N([H])C([H])([H])C([H])([H])C([H])([H])C([H])([H])[H])nc32)C([H])([H])C1([H])[H]


 36 40  0  0  0  0  0  0  0  0999 V2000
    3.3001    0.8875   18.0526 C   0  0  0  0  0  0  0  0  0  0  0  0
    3.0231    0.8880   16.7365 N   0  0  0  0  0  0  0  0  0  0  0  0
    3.1551    1.9601   15.9356 C   0  0  0  0  0  0  0  0  0  0  0  0
    3.6024    3.1377   16.4895 C   0  0  0  0  0  0  0  0  0  0  0  0
    3.8661    4.4121   16.0510 C   0  0  0  0  0  0  0  0  0  0  0  0
    4.2835    5.1282   17.0844 N   0  0  0  0  0  0  0  0  0  0  0  0
    4.2943    4.3563   18.1598 N   0  0  0  0  0  0  0  0  0  0  0  0
    3.8816    3.1200   17.8392 C   0  0  0  0  0  0  0  0  0  0  0  0
    3.7385    2.0283   18.6144 N   0  0  0  0  0  0  0  0  0  0  0  0
    4.7020    4.8398   19.4556 C   0  0  0  0  0  0  0  0  0  0  0  0
    5.7795    5.9003   19.3727 C   0  0  0  0  0  0  0  0  0  0  0  0
    6.3739    6.0043   20.7689 C   0  0  0  0  0  0  0  0  0  0  0  0
    5.3634    6.3095   21.8157 C   0  0  0  0  0  0  0  0  0  0  0  0
    5.9407    6.0146   23.0676 O   0  0  0  0  0  0  0  0  0  0  0  0
    4.0986    5.5087   21.7138 C   0  0  0  0  0  0  0  0  0  0  0  0
    3.5967    5.3716   20.2954 C   0  0  0  0  0  0  0  0  0  0  0  0
    6.7031    6.6173   23.2601 H   0  0  0  0  0  0  0  0  0  0  0  0
    3.7072    4.8829   14.6883 C   0  0  0  0  0  0  0  0  0  0  0  0
    3.1554    6.1113   14.4234 C   0  0  0  0  0  0  0  0  0  0  0  0
    3.0059    6.5634   13.1379 C   0  0  0  0  0  0  0  0  0  0  0  0
    3.4017    5.8102   12.0229 C   0  0  0  0  0  0  0  0  0  0  0  0
    3.9498    4.5883   12.3157 C   0  0  0  0  0  0  0  0  0  0  0  0
    4.1056    4.1201   13.6209 C   0  0  0  0  0  0  0  0  0  0  0  0
    3.2178    6.3709   10.7546 N   0  0  0  0  0  0  0  0  0  0  0  0
    4.1299    7.2294   10.1289 C   0  0  0  0  0  0  0  0  0  0  0  0
    5.2032    7.5989   10.6001 O   0  0  0  0  0  0  0  0  0  0  0  0
    2.3038    6.1040   10.2667 H   0  0  0  0  0  0  0  0  0  0  0  0
    3.7708    7.7522    8.7532 C   0  0  0  0  0  0  0  0  0  0  0  0
    4.8947    8.2487    7.8854 C   0  0  0  0  0  0  0  0  0  0  0  0
    4.2935    6.9208    7.6068 C   0  0  0  0  0  0  0  0  0  0  0  0
    3.1278   -0.3043   18.8217 N   0  0  0  0  0  0  0  0  0  0  0  0
    3.3874   -1.2137   18.4322 H   0  0  0  0  0  0  0  0  0  0  0  0
    2.5851   -0.2326   20.1564 C   0  0  0  0  0  0  0  0  0  0  0  0
    3.6891   -0.2952   21.1811 C   0  0  0  0  0  0  0  0  0  0  0  0
    5.0026    1.6266   21.8948 C   0  0  0  0  0  0  0  0  0  0  0  0
    3.6988    0.8792   22.1045 C   0  0  0  0  0  0  0  0  0  0  0  0
 35 36  1  0  0  0
 36 34  1  0  0  0
 34 33  1  0  0  0
 33 31  1  0  0  0
 31  1  1  0  0  0
  1  2  2  0  0  0
  2  3  1  0  0  0
  3  4  2  0  0  0
  4  5  1  0  0  0
  5  6  2  0  0  0
  6  7  1  0  0  0
  7 10  1  0  0  0
 10 11  1  0  0  0
 11 12  1  0  0  0
 12 13  1  0  0  0
 13 14  1  0  0  0
 13 15  1  0  0  0
 15 16  1  0  0  0
  7  8  1  0  0  0
  8  9  2  0  0  0
  5 18  1  0  0  0
 18 19  2  0  0  0
 19 20  1  0  0  0
 20 21  2  0  0  0
 21 24  1  0  0  0
 24 25  1  0  0  0
 25 26  2  0  0  0
 25 28  1  0  0  0
 28 29  1  0  0  0
 29 30  1  0  0  0
 21 22  1  0  0  0
 22 23  2  0  0  0
  9  1  1  0  0  0
 23 18  1  0  0  0
  8  4  1  0  0  0
 30 28  1  0  0  0
 16 10  1  0  0  0
 31 32  1  0  0  0
 14 17  1  0  0  0
 24 27  1  0  0  0
M  END
> <minimizedAffinity>
-7.50659

> <CNNscore>
0.4269585311

> <CNNaffinity>
6.8318495750

> <CNN_VS>
2.9169163704

> <CNNaffinity_variance>
0.2925373912

$$$$
[H]OC1([H])C([H])([H])C([H])([H])C([H])(n2nc(-c3c([H])c([H])c(N([H])C(=O)C4([H])C([H])([H])C4([H])[H])c([H])c3[H])c3c([H])nc(N([H])C([H])([H])C([H])([H])C([H])([H])C([H])([H])[H])nc32)C([H])([H])C1([H])[H]


 36 40  0  0  0  0  0  0  0  0999 V2000
    4.1349    1.5502   19.8448 C   0  0  0  0  0  0  0  0  0  0  0  0
    3.8598    0.7896   18.7701 N   0  0  0  0  0  0  0  0  0  0  0  0
    3.5739    1.2779   17.5503 C   0  0  0  0  0  0  0  0  0  0  0  0
    3.5595    2.6434   17.3806 C   0  0  0  0  0  0  0  0  0  0  0  0
    3.3257    3.5204   16.3500 C   0  0  0  0  0  0  0  0  0  0  0  0
    3.4613    4.7532   16.8156 N   0  0  0  0  0  0  0  0  0  0  0  0
    3.7722    4.6903   18.1009 N   0  0  0  0  0  0  0  0  0  0  0  0
    3.8435    3.4082   18.4917 C   0  0  0  0  0  0  0  0  0  0  0  0
    4.1262    2.8876   19.7009 N   0  0  0  0  0  0  0  0  0  0  0  0
    3.9887    5.8684   18.9034 C   0  0  0  0  0  0  0  0  0  0  0  0
    5.2855    5.8158   19.6833 C   0  0  0  0  0  0  0  0  0  0  0  0
    5.1754    6.8910   20.7535 C   0  0  0  0  0  0  0  0  0  0  0  0
    4.9061    8.2443   20.2001 C   0  0  0  0  0  0  0  0  0  0  0  0
    4.4602    9.0598   21.2601 O   0  0  0  0  0  0  0  0  0  0  0  0
    3.8473    8.2843   19.1376 C   0  0  0  0  0  0  0  0  0  0  0  0
    3.9580    7.1482   18.1479 C   0  0  0  0  0  0  0  0  0  0  0  0
    5.1748    9.1928   21.9333 H   0  0  0  0  0  0  0  0  0  0  0  0
    2.9851    3.1490   14.9899 C   0  0  0  0  0  0  0  0  0  0  0  0
    1.9869    2.2431   14.7321 C   0  0  0  0  0  0  0  0  0  0  0  0
    1.6579    1.8907   13.4489 C   0  0  0  0  0  0  0  0  0  0  0  0
    2.3114    2.4256   12.3290 C   0  0  0  0  0  0  0  0  0  0  0  0
    3.3034    3.3277   12.6146 C   0  0  0  0  0  0  0  0  0  0  0  0
    3.6449    3.6920   13.9176 C   0  0  0  0  0  0  0  0  0  0  0  0
    1.8882    2.0093   11.0624 N   0  0  0  0  0  0  0  0  0  0  0  0
    2.5900    1.1116   10.2487 C   0  0  0  0  0  0  0  0  0  0  0  0
    3.6563    0.5714   10.5340 O   0  0  0  0  0  0  0  0  0  0  0  0
    0.9639    2.4329   10.7289 H   0  0  0  0  0  0  0  0  0  0  0  0
    1.9906    0.7719    8.8996 C   0  0  0  0  0  0  0  0  0  0  0  0
    2.3949   -0.5334    8.2706 C   0  0  0  0  0  0  0  0  0  0  0  0
    1.0584   -0.4154    8.9051 C   0  0  0  0  0  0  0  0  0  0  0  0
    4.4275    0.9373   21.1018 N   0  0  0  0  0  0  0  0  0  0  0  0
    5.1379    0.2045   21.1674 H   0  0  0  0  0  0  0  0  0  0  0  0
    3.7208    1.3492   22.2901 C   0  0  0  0  0  0  0  0  0  0  0  0
    4.6842    1.8753   23.3236 C   0  0  0  0  0  0  0  0  0  0  0  0
    3.5640    4.0369   23.3095 C   0  0  0  0  0  0  0  0  0  0  0  0
    4.9126    3.3477   23.2158 C   0  0  0  0  0  0  0  0  0  0  0  0
 35 36  1  0  0  0
 36 34  1  0  0  0
 34 33  1  0  0  0
 33 31  1  0  0  0
 31  1  1  0  0  0
  1  2  2  0  0  0
  2  3  1  0  0  0
  3  4  2  0  0  0
  4  5  1  0  0  0
  5  6  2  0  0  0
  6  7  1  0  0  0
  7 10  1  0  0  0
 10 11  1  0  0  0
 11 12  1  0  0  0
 12 13  1  0  0  0
 13 14  1  0  0  0
 13 15  1  0  0  0
 15 16  1  0  0  0
  7  8  1  0  0  0
  8  9  2  0  0  0
  5 18  1  0  0  0
 18 19  2  0  0  0
 19 20  1  0  0  0
 20 21  2  0  0  0
 21 24  1  0  0  0
 24 25  1  0  0  0
 25 26  2  0  0  0
 25 28  1  0  0  0
 28 29  1  0  0  0
 29 30  1  0  0  0
 21 22  1  0  0  0
 22 23  2  0  0  0
  9  1  1  0  0  0
 23 18  1  0  0  0
  8  4  1  0  0  0
 30 28  1  0  0  0
 16 10  1  0  0  0
 31 32  1  0  0  0
 14 17  1  0  0  0
 24 27  1  0  0  0
M  END
> <minimizedAffinity>
-8.23893

> <CNNscore>
0.4167660177

> <CNNaffinity>
6.9640054703

> <CNN_VS>
2.9023609161

> <CNNaffinity_variance>
0.4516151547

$$$$
[H]OC1([H])C([H])([H])C([H])([H])C([H])(n2nc(-c3c([H])c([H])c(N([H])C(=O)C4([H])C([H])([H])C4([H])[H])c([H])c3[H])c3c([H])nc(N([H])C([H])([H])C([H])([H])C([H])([H])C([H])([H])[H])nc32)C([H])([H])C1([H])[H]


 36 40  0  0  0  0  0  0  0  0999 V2000
    1.0248    2.5753   10.1081 C   0  0  0  0  0  0  0  0  0  0  0  0
    0.7831    1.8220   11.1958 N   0  0  0  0  0  0  0  0  0  0  0  0
    1.4526    1.9321   12.3568 C   0  0  0  0  0  0  0  0  0  0  0  0
    2.4515    2.8741   12.4476 C   0  0  0  0  0  0  0  0  0  0  0  0
    3.3424    3.2978   13.4031 C   0  0  0  0  0  0  0  0  0  0  0  0
    4.0785    4.2683   12.8824 N   0  0  0  0  0  0  0  0  0  0  0  0
    3.6879    4.4754   11.6346 N   0  0  0  0  0  0  0  0  0  0  0  0
    2.6864    3.6375   11.3242 C   0  0  0  0  0  0  0  0  0  0  0  0
    1.9973    3.5023   10.1752 N   0  0  0  0  0  0  0  0  0  0  0  0
    4.2950    5.4731   10.7890 C   0  0  0  0  0  0  0  0  0  0  0  0
    3.6704    6.8422   10.9570 C   0  0  0  0  0  0  0  0  0  0  0  0
    4.1152    7.6568    9.7520 C   0  0  0  0  0  0  0  0  0  0  0  0
    5.5928    7.7267    9.6039 C   0  0  0  0  0  0  0  0  0  0  0  0
    5.8718    8.1650    8.2934 O   0  0  0  0  0  0  0  0  0  0  0  0
    6.3010    6.4172    9.7910 C   0  0  0  0  0  0  0  0  0  0  0  0
    5.7655    5.6149   10.9539 C   0  0  0  0  0  0  0  0  0  0  0  0
    5.5532    9.0923    8.1515 H   0  0  0  0  0  0  0  0  0  0  0  0
    3.4520    2.7638   14.7472 C   0  0  0  0  0  0  0  0  0  0  0  0
    3.0606    1.4798   15.0331 C   0  0  0  0  0  0  0  0  0  0  0  0
    3.1650    0.9681   16.3005 C   0  0  0  0  0  0  0  0  0  0  0  0
    3.6721    1.7135   17.3751 C   0  0  0  0  0  0  0  0  0  0  0  0
    4.0557    2.9918   17.0620 C   0  0  0  0  0  0  0  0  0  0  0  0
    3.9528    3.5207   15.7749 C   0  0  0  0  0  0  0  0  0  0  0  0
    3.7494    1.0912   18.6255 N   0  0  0  0  0  0  0  0  0  0  0  0
    2.8446    0.1277   19.0875 C   0  0  0  0  0  0  0  0  0  0  0  0
    1.8753   -0.2998   18.4647 O   0  0  0  0  0  0  0  0  0  0  0  0
    4.5667    1.4049   19.2407 H   0  0  0  0  0  0  0  0  0  0  0  0
    3.0727   -0.4416   20.4726 C   0  0  0  0  0  0  0  0  0  0  0  0
    4.2637    0.0618   21.2412 C   0  0  0  0  0  0  0  0  0  0  0  0
    2.9088    0.5518   21.5973 C   0  0  0  0  0  0  0  0  0  0  0  0
    0.2583    2.3836    8.9177 N   0  0  0  0  0  0  0  0  0  0  0  0
    0.7229    2.1723    8.0314 H   0  0  0  0  0  0  0  0  0  0  0  0
   -1.1801    2.4870    8.9581 C   0  0  0  0  0  0  0  0  0  0  0  0
   -1.6522    3.6400    8.1093 C   0  0  0  0  0  0  0  0  0  0  0  0
   -0.6187    5.8097    7.7195 C   0  0  0  0  0  0  0  0  0  0  0  0
   -1.3826    4.9725    8.7286 C   0  0  0  0  0  0  0  0  0  0  0  0
 35 36  1  0  0  0
 36 34  1  0  0  0
 34 33  1  0  0  0
 33 31  1  0  0  0
 31  1  1  0  0  0
  1  2  2  0  0  0
  2  3  1  0  0  0
  3  4  2  0  0  0
  4  5  1  0  0  0
  5  6  2  0  0  0
  6  7  1  0  0  0
  7 10  1  0  0  0
 10 11  1  0  0  0
 11 12  1  0  0  0
 12 13  1  0  0  0
 13 14  1  0  0  0
 13 15  1  0  0  0
 15 16  1  0  0  0
  7  8  1  0  0  0
  8  9  2  0  0  0
  5 18  1  0  0  0
 18 19  2  0  0  0
 19 20  1  0  0  0
 20 21  2  0  0  0
 21 24  1  0  0  0
 24 25  1  0  0  0
 25 26  2  0  0  0
 25 28  1  0  0  0
 28 29  1  0  0  0
 29 30  1  0  0  0
 21 22  1  0  0  0
 22 23  2  0  0  0
  9  1  1  0  0  0
 23 18  1  0  0  0
  8  4  1  0  0  0
 30 28  1  0  0  0
 16 10  1  0  0  0
 31 32  1  0  0  0
 14 17  1  0  0  0
 24 27  1  0  0  0
M  END
> <minimizedAffinity>
-6.98282

> <CNNscore>
0.3855553865

> <CNNaffinity>
6.5005445480

> <CNN_VS>
2.5063199997

> <CNNaffinity_variance>
0.4232307374

$$$$
[H]OC1([H])C([H])([H])C([H])([H])C([H])(n2nc(-c3c([H])c([H])c(N([H])C(=O)C4([H])C([H])([H])C4([H])[H])c([H])c3[H])c3c([H])nc(N([H])C([H])([H])C([H])([H])C([H])([H])C([H])([H])[H])nc32)C([H])([H])C1([H])[H]


 36 40  0  0  0  0  0  0  0  0999 V2000
    0.1306    4.9283   11.1672 C   0  0  0  0  0  0  0  0  0  0  0  0
   -0.2208    4.2839   12.2944 N   0  0  0  0  0  0  0  0  0  0  0  0
    0.6542    3.7883   13.1871 C   0  0  0  0  0  0  0  0  0  0  0  0
    1.9987    3.9458   12.9402 C   0  0  0  0  0  0  0  0  0  0  0  0
    3.1757    3.6068   13.5612 C   0  0  0  0  0  0  0  0  0  0  0  0
    4.1792    4.0424   12.8142 N   0  0  0  0  0  0  0  0  0  0  0  0
    3.6829    4.6442   11.7446 N   0  0  0  0  0  0  0  0  0  0  0  0
    2.3417    4.6082   11.7810 C   0  0  0  0  0  0  0  0  0  0  0  0
    1.4399    5.0931   10.9065 N   0  0  0  0  0  0  0  0  0  0  0  0
    4.5204    5.2311   10.7281 C   0  0  0  0  0  0  0  0  0  0  0  0
    4.6603    6.7312   10.8786 C   0  0  0  0  0  0  0  0  0  0  0  0
    5.2048    7.2369    9.5514 C   0  0  0  0  0  0  0  0  0  0  0  0
    6.4835    6.5892    9.1567 C   0  0  0  0  0  0  0  0  0  0  0  0
    6.6878    6.8447    7.7854 O   0  0  0  0  0  0  0  0  0  0  0  0
    6.5096    5.0998    9.3363 C   0  0  0  0  0  0  0  0  0  0  0  0
    5.8850    4.6487   10.6359 C   0  0  0  0  0  0  0  0  0  0  0  0
    6.8251    7.8116    7.6188 H   0  0  0  0  0  0  0  0  0  0  0  0
    3.2884    2.8907   14.8175 C   0  0  0  0  0  0  0  0  0  0  0  0
    3.7587    3.5124   15.9472 C   0  0  0  0  0  0  0  0  0  0  0  0
    3.8642    2.8421   17.1383 C   0  0  0  0  0  0  0  0  0  0  0  0
    3.5033    1.4941   17.2794 C   0  0  0  0  0  0  0  0  0  0  0  0
    3.0367    0.8978   16.1366 C   0  0  0  0  0  0  0  0  0  0  0  0
    2.9262    1.5723   14.9202 C   0  0  0  0  0  0  0  0  0  0  0  0
    3.6364    0.9090   18.5430 N   0  0  0  0  0  0  0  0  0  0  0  0
    2.7272   -0.0029   19.0928 C   0  0  0  0  0  0  0  0  0  0  0  0
    1.7049   -0.4111   18.5463 O   0  0  0  0  0  0  0  0  0  0  0  0
    4.5022    1.2093   19.0952 H   0  0  0  0  0  0  0  0  0  0  0  0
    3.0212   -0.5370   20.4795 C   0  0  0  0  0  0  0  0  0  0  0  0
    4.1617    0.0881   21.2354 C   0  0  0  0  0  0  0  0  0  0  0  0
    2.7673    0.4431   21.5993 C   0  0  0  0  0  0  0  0  0  0  0  0
   -0.8744    5.4200   10.2787 N   0  0  0  0  0  0  0  0  0  0  0  0
   -0.8150    6.3701    9.9050 H   0  0  0  0  0  0  0  0  0  0  0  0
   -1.9828    4.5770    9.9016 C   0  0  0  0  0  0  0  0  0  0  0  0
   -3.2887    5.1950   10.3323 C   0  0  0  0  0  0  0  0  0  0  0  0
   -5.2893    5.1172   11.7177 C   0  0  0  0  0  0  0  0  0  0  0  0
   -3.9855    4.4107   11.3959 C   0  0  0  0  0  0  0  0  0  0  0  0
 35 36  1  0  0  0
 36 34  1  0  0  0
 34 33  1  0  0  0
 33 31  1  0  0  0
 31  1  1  0  0  0
  1  2  2  0  0  0
  2  3  1  0  0  0
  3  4  2  0  0  0
  4  5  1  0  0  0
  5  6  2  0  0  0
  6  7  1  0  0  0
  7 10  1  0  0  0
 10 11  1  0  0  0
 11 12  1  0  0  0
 12 13  1  0  0  0
 13 14  1  0  0  0
 13 15  1  0  0  0
 15 16  1  0  0  0
  7  8  1  0  0  0
  8  9  2  0  0  0
  5 18  1  0  0  0
 18 19  2  0  0  0
 19 20  1  0  0  0
 20 21  2  0  0  0
 21 24  1  0  0  0
 24 25  1  0  0  0
 25 26  2  0  0  0
 25 28  1  0  0  0
 28 29  1  0  0  0
 29 30  1  0  0  0
 21 22  1  0  0  0
 22 23  2  0  0  0
  9  1  1  0  0  0
 23 18  1  0  0  0
  8  4  1  0  0  0
 30 28  1  0  0  0
 16 10  1  0  0  0
 31 32  1  0  0  0
 14 17  1  0  0  0
 24 27  1  0  0  0
M  END
> <minimizedAffinity>
-7.64893

> <CNNscore>
0.3555905521

> <CNNaffinity>
6.3390612602

> <CNN_VS>
2.2541103363

> <CNNaffinity_variance>
0.1447038054

$$$$
[H]OC1([H])C([H])([H])C([H])([H])C([H])(n2nc(-c3c([H])c([H])c(N([H])C(=O)C4([H])C([H])([H])C4([H])[H])c([H])c3[H])c3c([H])nc(N([H])C([H])([H])C([H])([H])C([H])([H])C([H])([H])[H])nc32)C([H])([H])C1([H])[H]


 36 40  0  0  0  0  0  0  0  0999 V2000
    3.2416    3.0113   16.6194 C   0  0  0  0  0  0  0  0  0  0  0  0
    3.1288    1.8281   15.9899 N   0  0  0  0  0  0  0  0  0  0  0  0
    2.8635    1.6905   14.6789 C   0  0  0  0  0  0  0  0  0  0  0  0
    2.6951    2.8285   13.9239 C   0  0  0  0  0  0  0  0  0  0  0  0
    2.4225    3.1263   12.6112 C   0  0  0  0  0  0  0  0  0  0  0  0
    2.3787    4.4443   12.4854 N   0  0  0  0  0  0  0  0  0  0  0  0
    2.6132    4.9922   13.6675 N   0  0  0  0  0  0  0  0  0  0  0  0
    2.8140    4.0326   14.5842 C   0  0  0  0  0  0  0  0  0  0  0  0
    3.0806    4.1365   15.9000 N   0  0  0  0  0  0  0  0  0  0  0  0
    2.6348    6.4198   13.8684 C   0  0  0  0  0  0  0  0  0  0  0  0
    3.9832    6.9252   14.3365 C   0  0  0  0  0  0  0  0  0  0  0  0
    3.7406    8.3244   14.8814 C   0  0  0  0  0  0  0  0  0  0  0  0
    3.1096    9.2379   13.8928 C   0  0  0  0  0  0  0  0  0  0  0  0
    2.6012   10.3476   14.5982 O   0  0  0  0  0  0  0  0  0  0  0  0
    1.9647    8.6376   13.1310 C   0  0  0  0  0  0  0  0  0  0  0  0
    2.2303    7.2195   12.6824 C   0  0  0  0  0  0  0  0  0  0  0  0
    3.3323   10.8753   15.0086 H   0  0  0  0  0  0  0  0  0  0  0  0
    2.2159    2.1556   11.5535 C   0  0  0  0  0  0  0  0  0  0  0  0
    0.9885    1.5740   11.3560 C   0  0  0  0  0  0  0  0  0  0  0  0
    0.7858    0.6586   10.3560 C   0  0  0  0  0  0  0  0  0  0  0  0
    1.8064    0.2609    9.4799 C   0  0  0  0  0  0  0  0  0  0  0  0
    3.0213    0.8569    9.6988 C   0  0  0  0  0  0  0  0  0  0  0  0
    3.2365    1.7894   10.7143 C   0  0  0  0  0  0  0  0  0  0  0  0
    1.4897   -0.6693    8.4842 N   0  0  0  0  0  0  0  0  0  0  0  0
    1.0036   -0.3350    7.2143 C   0  0  0  0  0  0  0  0  0  0  0  0
    0.7959    0.8052    6.8056 O   0  0  0  0  0  0  0  0  0  0  0  0
    1.6387   -1.6939    8.7540 H   0  0  0  0  0  0  0  0  0  0  0  0
    0.7057   -1.4698    6.2563 C   0  0  0  0  0  0  0  0  0  0  0  0
    0.6081   -2.8558    6.8327 C   0  0  0  0  0  0  0  0  0  0  0  0
   -0.6344   -2.1335    6.4625 C   0  0  0  0  0  0  0  0  0  0  0  0
    3.5262    3.0553   18.0189 N   0  0  0  0  0  0  0  0  0  0  0  0
    2.9025    3.5533   18.6585 H   0  0  0  0  0  0  0  0  0  0  0  0
    4.6984    2.3957   18.5405 C   0  0  0  0  0  0  0  0  0  0  0  0
    4.3059    1.2514   19.4402 C   0  0  0  0  0  0  0  0  0  0  0  0
    3.1469    0.6924   21.5071 C   0  0  0  0  0  0  0  0  0  0  0  0
    4.1205    1.6628   20.8644 C   0  0  0  0  0  0  0  0  0  0  0  0
 35 36  1  0  0  0
 36 34  1  0  0  0
 34 33  1  0  0  0
 33 31  1  0  0  0
 31  1  1  0  0  0
  1  2  2  0  0  0
  2  3  1  0  0  0
  3  4  2  0  0  0
  4  5  1  0  0  0
  5  6  2  0  0  0
  6  7  1  0  0  0
  7 10  1  0  0  0
 10 11  1  0  0  0
 11 12  1  0  0  0
 12 13  1  0  0  0
 13 14  1  0  0  0
 13 15  1  0  0  0
 15 16  1  0  0  0
  7  8  1  0  0  0
  8  9  2  0  0  0
  5 18  1  0  0  0
 18 19  2  0  0  0
 19 20  1  0  0  0
 20 21  2  0  0  0
 21 24  1  0  0  0
 24 25  1  0  0  0
 25 26  2  0  0  0
 25 28  1  0  0  0
 28 29  1  0  0  0
 29 30  1  0  0  0
 21 22  1  0  0  0
 22 23  2  0  0  0
  9  1  1  0  0  0
 23 18  1  0  0  0
  8  4  1  0  0  0
 30 28  1  0  0  0
 16 10  1  0  0  0
 31 32  1  0  0  0
 14 17  1  0  0  0
 24 27  1  0  0  0
M  END
> <minimizedAffinity>
-6.15987

> <CNNscore>
0.2484076172

> <CNNaffinity>
6.4667882919

> <CNN_VS>
1.6063994169

> <CNNaffinity_variance>
0.4488977492

$$$$
[H]OC1([H])C([H])([H])C([H])([H])C([H])(n2nc(-c3c([H])c([H])c(N([H])C(=O)C4([H])C([H])([H])C4([H])[H])c([H])c3[H])c3c([H])nc(N([H])C([H])([H])C([H])([H])C([H])([H])C([H])([H])[H])nc32)C([H])([H])C1([H])[H]


 36 40  0  0  0  0  0  0  0  0999 V2000
    1.2923    2.2308   12.2450 C   0  0  0  0  0  0  0  0  0  0  0  0
    1.2360    1.6084   13.4360 N   0  0  0  0  0  0  0  0  0  0  0  0
    1.9389    1.9828   14.5195 C   0  0  0  0  0  0  0  0  0  0  0  0
    2.7725    3.0724   14.4127 C   0  0  0  0  0  0  0  0  0  0  0  0
    3.6308    3.7592   15.2358 C   0  0  0  0  0  0  0  0  0  0  0  0
    4.1683    4.7502   14.5404 N   0  0  0  0  0  0  0  0  0  0  0  0
    3.6833    4.7175   13.3091 N   0  0  0  0  0  0  0  0  0  0  0  0
    2.8184    3.6985   13.1855 C   0  0  0  0  0  0  0  0  0  0  0  0
    2.1010    3.2982   12.1186 N   0  0  0  0  0  0  0  0  0  0  0  0
    4.0720    5.6695   12.2984 C   0  0  0  0  0  0  0  0  0  0  0  0
    4.9966    5.0743   11.2575 C   0  0  0  0  0  0  0  0  0  0  0  0
    5.6239    6.2538   10.5302 C   0  0  0  0  0  0  0  0  0  0  0  0
    4.6218    7.1747    9.9320 C   0  0  0  0  0  0  0  0  0  0  0  0
    5.2793    8.3839    9.6271 O   0  0  0  0  0  0  0  0  0  0  0  0
    3.4705    7.5137   10.8326 C   0  0  0  0  0  0  0  0  0  0  0  0
    2.9385    6.3191   11.5892 C   0  0  0  0  0  0  0  0  0  0  0  0
    5.9623    8.2510    8.9219 H   0  0  0  0  0  0  0  0  0  0  0  0
    3.8981    3.4419   16.6257 C   0  0  0  0  0  0  0  0  0  0  0  0
    3.7064    4.3744   17.6144 C   0  0  0  0  0  0  0  0  0  0  0  0
    3.9537    4.0796   18.9301 C   0  0  0  0  0  0  0  0  0  0  0  0
    4.4132    2.8218   19.3474 C   0  0  0  0  0  0  0  0  0  0  0  0
    4.5957    1.9097   18.3405 C   0  0  0  0  0  0  0  0  0  0  0  0
    4.3467    2.2012   16.9989 C   0  0  0  0  0  0  0  0  0  0  0  0
    4.6202    2.6209   20.7162 N   0  0  0  0  0  0  0  0  0  0  0  0
    3.9038    1.7078   21.4995 C   0  0  0  0  0  0  0  0  0  0  0  0
    3.0110    0.9659   21.0962 O   0  0  0  0  0  0  0  0  0  0  0  0
    5.3828    3.2294   21.1557 H   0  0  0  0  0  0  0  0  0  0  0  0
    4.2528    1.6209   22.9710 C   0  0  0  0  0  0  0  0  0  0  0  0
    5.5466    2.2472   23.4146 C   0  0  0  0  0  0  0  0  0  0  0  0
    4.2673    2.9455   23.6947 C   0  0  0  0  0  0  0  0  0  0  0  0
    0.5057    1.7574   11.1501 N   0  0  0  0  0  0  0  0  0  0  0  0
   -0.3615    2.2339   10.8917 H   0  0  0  0  0  0  0  0  0  0  0  0
    0.9308    0.6008   10.3999 C   0  0  0  0  0  0  0  0  0  0  0  0
    2.0177    0.9730    9.4237 C   0  0  0  0  0  0  0  0  0  0  0  0
    3.4341   -1.0005    9.2588 C   0  0  0  0  0  0  0  0  0  0  0  0
    3.3539    0.4170    9.7946 C   0  0  0  0  0  0  0  0  0  0  0  0
 35 36  1  0  0  0
 36 34  1  0  0  0
 34 33  1  0  0  0
 33 31  1  0  0  0
 31  1  1  0  0  0
  1  2  2  0  0  0
  2  3  1  0  0  0
  3  4  2  0  0  0
  4  5  1  0  0  0
  5  6  2  0  0  0
  6  7  1  0  0  0
  7 10  1  0  0  0
 10 11  1  0  0  0
 11 12  1  0  0  0
 12 13  1  0  0  0
 13 14  1  0  0  0
 13 15  1  0  0  0
 15 16  1  0  0  0
  7  8  1  0  0  0
  8  9  2  0  0  0
  5 18  1  0  0  0
 18 19  2  0  0  0
 19 20  1  0  0  0
 20 21  2  0  0  0
 21 24  1  0  0  0
 24 25  1  0  0  0
 25 26  2  0  0  0
 25 28  1  0  0  0
 28 29  1  0  0  0
 29 30  1  0  0  0
 21 22  1  0  0  0
 22 23  2  0  0  0
  9  1  1  0  0  0
 23 18  1  0  0  0
  8  4  1  0  0  0
 30 28  1  0  0  0
 16 10  1  0  0  0
 31 32  1  0  0  0
 14 17  1  0  0  0
 24 27  1  0  0  0
M  END
> <minimizedAffinity>
-7.50062

> <CNNscore>
0.1995334923

> <CNNaffinity>
6.2363963127

> <CNN_VS>
1.2443699837

> <CNNaffinity_variance>
0.1302244365

$$$$
[H]OC1([H])C([H])([H])C([H])([H])C([H])(n2nc(-c3c([H])c([H])c(N([H])C(=O)C4([H])C([H])([H])C4([H])[H])c([H])c3[H])c3c([H])nc(N([H])C([H])([H])C([H])([H])C([H])([H])C([H])([H])[H])nc32)C([H])([H])C1([H])[H]


 36 40  0  0  0  0  0  0  0  0999 V2000
    5.0783    8.2181    9.8586 C   0  0  0  0  0  0  0  0  0  0  0  0
    5.7845    8.2523   11.0028 N   0  0  0  0  0  0  0  0  0  0  0  0
    5.4110    7.6418   12.1412 C   0  0  0  0  0  0  0  0  0  0  0  0
    4.2312    6.9336   12.1456 C   0  0  0  0  0  0  0  0  0  0  0  0
    3.5113    6.1957   13.0530 C   0  0  0  0  0  0  0  0  0  0  0  0
    2.4198    5.7480   12.4507 N   0  0  0  0  0  0  0  0  0  0  0  0
    2.4210    6.1736   11.1971 N   0  0  0  0  0  0  0  0  0  0  0  0
    3.5199    6.9086   10.9651 C   0  0  0  0  0  0  0  0  0  0  0  0
    3.9218    7.5314    9.8409 N   0  0  0  0  0  0  0  0  0  0  0  0
    1.3630    5.8557   10.2706 C   0  0  0  0  0  0  0  0  0  0  0  0
    1.0194    4.3811   10.2574 C   0  0  0  0  0  0  0  0  0  0  0  0
    0.2141    4.1495    8.9879 C   0  0  0  0  0  0  0  0  0  0  0  0
   -0.9947    5.0098    8.8946 C   0  0  0  0  0  0  0  0  0  0  0  0
   -1.4359    4.9852    7.5559 O   0  0  0  0  0  0  0  0  0  0  0  0
   -0.7663    6.4478    9.2573 C   0  0  0  0  0  0  0  0  0  0  0  0
    0.1049    6.6193   10.4797 C   0  0  0  0  0  0  0  0  0  0  0  0
   -1.7422    4.0792    7.2974 H   0  0  0  0  0  0  0  0  0  0  0  0
    3.8893    5.9579   14.4330 C   0  0  0  0  0  0  0  0  0  0  0  0
    4.0794    7.0006   15.3049 C   0  0  0  0  0  0  0  0  0  0  0  0
    4.4331    6.7822   16.6112 C   0  0  0  0  0  0  0  0  0  0  0  0
    4.6219    5.4953   17.1361 C   0  0  0  0  0  0  0  0  0  0  0  0
    4.4255    4.4727   16.2446 C   0  0  0  0  0  0  0  0  0  0  0  0
    4.0656    4.6858   14.9134 C   0  0  0  0  0  0  0  0  0  0  0  0
    4.9680    5.3828   18.4868 N   0  0  0  0  0  0  0  0  0  0  0  0
    4.0546    5.4476   19.5461 C   0  0  0  0  0  0  0  0  0  0  0  0
    2.8410    5.6056   19.4350 O   0  0  0  0  0  0  0  0  0  0  0  0
    6.0112    5.2439   18.6797 H   0  0  0  0  0  0  0  0  0  0  0  0
    4.6008    5.3123   20.9525 C   0  0  0  0  0  0  0  0  0  0  0  0
    3.6222    4.9878   22.0477 C   0  0  0  0  0  0  0  0  0  0  0  0
    4.5148    3.9206   21.5309 C   0  0  0  0  0  0  0  0  0  0  0  0
    5.5586    8.8998    8.6983 N   0  0  0  0  0  0  0  0  0  0  0  0
    6.5581    9.0823    8.5820 H   0  0  0  0  0  0  0  0  0  0  0  0
    4.6341    9.3363    7.6805 C   0  0  0  0  0  0  0  0  0  0  0  0
    5.2532    9.2066    6.3120 C   0  0  0  0  0  0  0  0  0  0  0  0
    6.9620    9.9109    4.7272 C   0  0  0  0  0  0  0  0  0  0  0  0
    6.2507   10.2788    6.0161 C   0  0  0  0  0  0  0  0  0  0  0  0
 35 36  1  0  0  0
 36 34  1  0  0  0
 34 33  1  0  0  0
 33 31  1  0  0  0
 31  1  1  0  0  0
  1  2  2  0  0  0
  2  3  1  0  0  0
  3  4  2  0  0  0
  4  5  1  0  0  0
  5  6  2  0  0  0
  6  7  1  0  0  0
  7 10  1  0  0  0
 10 11  1  0  0  0
 11 12  1  0  0  0
 12 13  1  0  0  0
 13 14  1  0  0  0
 13 15  1  0  0  0
 15 16  1  0  0  0
  7  8  1  0  0  0
  8  9  2  0  0  0
  5 18  1  0  0  0
 18 19  2  0  0  0
 19 20  1  0  0  0
 20 21  2  0  0  0
 21 24  1  0  0  0
 24 25  1  0  0  0
 25 26  2  0  0  0
 25 28  1  0  0  0
 28 29  1  0  0  0
 29 30  1  0  0  0
 21 22  1  0  0  0
 22 23  2  0  0  0
  9  1  1  0  0  0
 23 18  1  0  0  0
  8  4  1  0  0  0
 30 28  1  0  0  0
 16 10  1  0  0  0
 31 32  1  0  0  0
 14 17  1  0  0  0
 24 27  1  0  0  0
M  END
> <minimizedAffinity>
-6.27520

> <CNNscore>
0.1819220036

> <CNNaffinity>
5.7495512962

> <CNN_VS>
1.0459698439

> <CNNaffinity_variance>
0.9145415425

$$$$
[H]OC1([H])C([H])([H])C([H])([H])C([H])(n2nc(-c3c([H])c([H])c(N([H])C(=O)C4([H])C([H])([H])C4([H])[H])c([H])c3[H])c3c([H])nc(N([H])C([H])([H])C([H])([H])C([H])([H])C([H])([H])[H])nc32)C([H])([H])C1([H])[H]


 36 40  0  0  0  0  0  0  0  0999 V2000
    4.6340    1.9752   20.3661 C   0  0  0  0  0  0  0  0  0  0  0  0
    4.3402    1.1432   19.3509 N   0  0  0  0  0  0  0  0  0  0  0  0
    4.0271    1.5476   18.1073 C   0  0  0  0  0  0  0  0  0  0  0  0
    4.0032    2.8985   17.8466 C   0  0  0  0  0  0  0  0  0  0  0  0
    3.7443    3.7036   16.7645 C   0  0  0  0  0  0  0  0  0  0  0  0
    3.8841    4.9652   17.1434 N   0  0  0  0  0  0  0  0  0  0  0  0
    4.2216    4.9899   18.4232 N   0  0  0  0  0  0  0  0  0  0  0  0
    4.3066    3.7372   18.8977 C   0  0  0  0  0  0  0  0  0  0  0  0
    4.6164    3.2999   20.1330 N   0  0  0  0  0  0  0  0  0  0  0  0
    4.4494    6.2199   19.1402 C   0  0  0  0  0  0  0  0  0  0  0  0
    5.9087    6.4384   19.4799 C   0  0  0  0  0  0  0  0  0  0  0  0
    5.9330    7.5185   20.5505 C   0  0  0  0  0  0  0  0  0  0  0  0
    5.2585    8.7754   20.1314 C   0  0  0  0  0  0  0  0  0  0  0  0
    5.0151    9.5384   21.2916 O   0  0  0  0  0  0  0  0  0  0  0  0
    3.9370    8.5765   19.4492 C   0  0  0  0  0  0  0  0  0  0  0  0
    3.9492    7.4400   18.4538 C   0  0  0  0  0  0  0  0  0  0  0  0
    5.8636    9.8280   21.7131 H   0  0  0  0  0  0  0  0  0  0  0  0
    3.3776    3.2406   15.4398 C   0  0  0  0  0  0  0  0  0  0  0  0
    2.5400    2.1663   15.2719 C   0  0  0  0  0  0  0  0  0  0  0  0
    2.1868    1.7261   14.0226 C   0  0  0  0  0  0  0  0  0  0  0  0
    2.6520    2.3366   12.8487 C   0  0  0  0  0  0  0  0  0  0  0  0
    3.4861    3.4066   13.0449 C   0  0  0  0  0  0  0  0  0  0  0  0
    3.8509    3.8613   14.3126 C   0  0  0  0  0  0  0  0  0  0  0  0
    2.2188    1.8174   11.6241 N   0  0  0  0  0  0  0  0  0  0  0  0
    1.1154    2.2961   10.9073 C   0  0  0  0  0  0  0  0  0  0  0  0
    0.3900    3.2273   11.2491 O   0  0  0  0  0  0  0  0  0  0  0  0
    2.7939    0.9972   11.2480 H   0  0  0  0  0  0  0  0  0  0  0  0
    0.7803    1.6135    9.5972 C   0  0  0  0  0  0  0  0  0  0  0  0
    1.4218    0.2800    9.3266 C   0  0  0  0  0  0  0  0  0  0  0  0
   -0.0035    0.3310    9.7372 C   0  0  0  0  0  0  0  0  0  0  0  0
    4.9551    1.4490   21.6551 N   0  0  0  0  0  0  0  0  0  0  0  0
    5.8239    0.9294   21.8002 H   0  0  0  0  0  0  0  0  0  0  0  0
    4.0533    1.6478   22.7634 C   0  0  0  0  0  0  0  0  0  0  0  0
    4.5583    2.7439   23.6671 C   0  0  0  0  0  0  0  0  0  0  0  0
    4.4900    5.0595   22.9180 C   0  0  0  0  0  0  0  0  0  0  0  0
    3.7079    3.9717   23.6305 C   0  0  0  0  0  0  0  0  0  0  0  0
 35 36  1  0  0  0
 36 34  1  0  0  0
 34 33  1  0  0  0
 33 31  1  0  0  0
 31  1  1  0  0  0
  1  2  2  0  0  0
  2  3  1  0  0  0
  3  4  2  0  0  0
  4  5  1  0  0  0
  5  6  2  0  0  0
  6  7  1  0  0  0
  7 10  1  0  0  0
 10 11  1  0  0  0
 11 12  1  0  0  0
 12 13  1  0  0  0
 13 14  1  0  0  0
 13 15  1  0  0  0
 15 16  1  0  0  0
  7  8  1  0  0  0
  8  9  2  0  0  0
  5 18  1  0  0  0
 18 19  2  0  0  0
 19 20  1  0  0  0
 20 21  2  0  0  0
 21 24  1  0  0  0
 24 25  1  0  0  0
 25 26  2  0  0  0
 25 28  1  0  0  0
 28 29  1  0  0  0
 29 30  1  0  0  0
 21 22  1  0  0  0
 22 23  2  0  0  0
  9  1  1  0  0  0
 23 18  1  0  0  0
  8  4  1  0  0  0
 30 28  1  0  0  0
 16 10  1  0  0  0
 31 32  1  0  0  0
 14 17  1  0  0  0
 24 27  1  0  0  0
M  END
> <minimizedAffinity>
-8.38083

> <CNNscore>
0.1636564732

> <CNNaffinity>
6.6880326271

> <CNN_VS>
1.0945398808

> <CNNaffinity_variance>
0.5468475819

$$$$
[H]c1nc(N([H])[H])c2c(-c3c([H])c([H])c(N([H])C(=O)c4c([H])n(C([H])(C([H])([H])[H])C([H])([H])[H])c(=O)n(-c5c([H])c([H])c([H])c(F)c5[H])c4=O)c([H])c3[H])c([H])c(C(=O)N(C([H])([H])[H])C([H])([H])[H])n2n1


 45 49  0  0  0  0  0  0  0  0999 V2000
    2.7706    4.4681   12.9629 C   0  0  0  0  0  0  0  0  0  0  0  0
    2.3164    5.0812   14.1177 C   0  0  0  0  0  0  0  0  0  0  0  0
    2.5870    4.6181   15.3847 C   0  0  0  0  0  0  0  0  0  0  0  0
    3.3483    3.4849   15.5585 C   0  0  0  0  0  0  0  0  0  0  0  0
    3.8216    2.8444   14.4151 C   0  0  0  0  0  0  0  0  0  0  0  0
    3.5331    3.3334   13.1585 C   0  0  0  0  0  0  0  0  0  0  0  0
    3.6411    2.9611   16.8810 C   0  0  0  0  0  0  0  0  0  0  0  0
    4.3802    3.6202   17.8306 C   0  0  0  0  0  0  0  0  0  0  0  0
    4.4271    2.8542   19.0253 C   0  0  0  0  0  0  0  0  0  0  0  0
    3.7104    1.7484   18.7539 N   0  0  0  0  0  0  0  0  0  0  0  0
    3.4174    0.6824   19.4455 N   0  0  0  0  0  0  0  0  0  0  0  0
    2.7118   -0.3324   19.0124 C   0  0  0  0  0  0  0  0  0  0  0  0
    2.2389   -0.3086   17.7699 N   0  0  0  0  0  0  0  0  0  0  0  0
    2.4881    0.7431   16.9864 C   0  0  0  0  0  0  0  0  0  0  0  0
    2.0266    0.7911   15.6413 N   0  0  0  0  0  0  0  0  0  0  0  0
    3.2361    1.8109   17.4609 C   0  0  0  0  0  0  0  0  0  0  0  0
    1.0057    0.8547   15.4646 H   0  0  0  0  0  0  0  0  0  0  0  0
    2.7442    0.7589   14.8881 H   0  0  0  0  0  0  0  0  0  0  0  0
    5.1457    3.2268   20.1997 C   0  0  0  0  0  0  0  0  0  0  0  0
    5.8724    2.1839   20.6671 O   0  0  0  0  0  0  0  0  0  0  0  0
    5.2589    4.3686   20.9310 N   0  0  0  0  0  0  0  0  0  0  0  0
    6.1504    4.2186   22.1581 C   0  0  0  0  0  0  0  0  0  0  0  0
    4.7565    5.6754   20.7706 C   0  0  0  0  0  0  0  0  0  0  0  0
    3.1723    5.8372   10.8932 C   0  0  0  0  0  0  0  0  0  0  0  0
    4.3422    6.1767   11.3026 O   0  0  0  0  0  0  0  0  0  0  0  0
    2.4048    5.0128   11.7089 N   0  0  0  0  0  0  0  0  0  0  0  0
    1.4249    4.7451   11.3913 H   0  0  0  0  0  0  0  0  0  0  0  0
    3.5205    7.6726    7.6684 N   0  0  0  0  0  0  0  0  0  0  0  0
    3.7623    7.1093    8.8550 C   0  0  0  0  0  0  0  0  0  0  0  0
    2.8147    6.3875    9.5958 C   0  0  0  0  0  0  0  0  0  0  0  0
    1.5793    6.2927    9.0042 C   0  0  0  0  0  0  0  0  0  0  0  0
    0.6411    5.6686    9.5681 O   0  0  0  0  0  0  0  0  0  0  0  0
    1.3179    6.8607    7.7966 N   0  0  0  0  0  0  0  0  0  0  0  0
    2.2724    7.5223    7.1716 C   0  0  0  0  0  0  0  0  0  0  0  0
    2.0301    8.0526    6.0456 O   0  0  0  0  0  0  0  0  0  0  0  0
    0.0232    6.7049    7.2625 C   0  0  0  0  0  0  0  0  0  0  0  0
   -0.9415    7.6747    7.5448 C   0  0  0  0  0  0  0  0  0  0  0  0
   -2.2040    7.5702    7.0477 C   0  0  0  0  0  0  0  0  0  0  0  0
   -2.5863    6.4941    6.2388 C   0  0  0  0  0  0  0  0  0  0  0  0
   -1.6344    5.5427    5.9644 C   0  0  0  0  0  0  0  0  0  0  0  0
   -2.0002    4.5011    5.1832 F   0  0  0  0  0  0  0  0  0  0  0  0
   -0.3521    5.6413    6.4642 C   0  0  0  0  0  0  0  0  0  0  0  0
    5.0147    9.6148    7.7260 C   0  0  0  0  0  0  0  0  0  0  0  0
    4.5362    8.4106    6.9426 C   0  0  0  0  0  0  0  0  0  0  0  0
    5.7308    7.4846    6.7419 C   0  0  0  0  0  0  0  0  0  0  0  0
 43 44  1  0  0  0
 44 45  1  0  0  0
 44 28  1  0  0  0
 28 29  1  0  0  0
 29 30  2  0  0  0
 30 24  1  0  0  0
 24 25  2  0  0  0
 24 26  1  0  0  0
 26  1  1  0  0  0
  1  2  2  0  0  0
  2  3  1  0  0  0
  3  4  2  0  0  0
  4  5  1  0  0  0
  5  6  2  0  0  0
  4  7  1  0  0  0
  7  8  1  0  0  0
  8  9  2  0  0  0
  9 19  1  0  0  0
 19 20  2  0  0  0
 19 21  1  0  0  0
 21 22  1  0  0  0
 21 23  1  0  0  0
  9 10  1  0  0  0
 10 11  1  0  0  0
 11 12  2  0  0  0
 12 13  1  0  0  0
 13 14  2  0  0  0
 14 15  1  0  0  0
 14 16  1  0  0  0
 30 31  1  0  0  0
 31 32  2  0  0  0
 31 33  1  0  0  0
 33 36  1  0  0  0
 36 37  2  0  0  0
 37 38  1  0  0  0
 38 39  2  0  0  0
 39 40  1  0  0  0
 40 41  1  0  0  0
 40 42  2  0  0  0
 33 34  1  0  0  0
 34 35  2  0  0  0
 34 28  1  0  0  0
  6  1  1  0  0  0
 16  7  2  0  0  0
 42 36  1  0  0  0
 16 10  1  0  0  0
 26 27  1  0  0  0
 15 17  1  0  0  0
 15 18  1  0  0  0
M  END
> <minimizedAffinity>
-8.05932

> <CNNscore>
0.6452765465

> <CNNaffinity>
7.1446790695

> <CNN_VS>
4.6102938652

> <CNNaffinity_variance>
0.5662215352

$$$$
[H]c1nc(N([H])[H])c2c(-c3c([H])c([H])c(N([H])C(=O)c4c([H])n(C([H])(C([H])([H])[H])C([H])([H])[H])c(=O)n(-c5c([H])c([H])c([H])c(F)c5[H])c4=O)c([H])c3[H])c([H])c(C(=O)N(C([H])([H])[H])C([H])([H])[H])n2n1


 45 49  0  0  0  0  0  0  0  0999 V2000
    2.6016    4.9317   13.3379 C   0  0  0  0  0  0  0  0  0  0  0  0
    3.5608    3.9402   13.4494 C   0  0  0  0  0  0  0  0  0  0  0  0
    3.8848    3.3215   14.6349 C   0  0  0  0  0  0  0  0  0  0  0  0
    3.2431    3.6787   15.7988 C   0  0  0  0  0  0  0  0  0  0  0  0
    2.2711    4.6740   15.7199 C   0  0  0  0  0  0  0  0  0  0  0  0
    1.9689    5.2753   14.5163 C   0  0  0  0  0  0  0  0  0  0  0  0
    3.5704    3.0560   17.0693 C   0  0  0  0  0  0  0  0  0  0  0  0
    4.3120    3.6525   18.0576 C   0  0  0  0  0  0  0  0  0  0  0  0
    4.3964    2.7933   19.1849 C   0  0  0  0  0  0  0  0  0  0  0  0
    3.6987    1.6971   18.8357 N   0  0  0  0  0  0  0  0  0  0  0  0
    3.4408    0.5721   19.4426 N   0  0  0  0  0  0  0  0  0  0  0  0
    2.7496   -0.4200   18.9394 C   0  0  0  0  0  0  0  0  0  0  0  0
    2.2544   -0.3061   17.7107 N   0  0  0  0  0  0  0  0  0  0  0  0
    2.4672    0.8111   17.0117 C   0  0  0  0  0  0  0  0  0  0  0  0
    1.9810    0.9577   15.6825 N   0  0  0  0  0  0  0  0  0  0  0  0
    3.2004    1.8536   17.5597 C   0  0  0  0  0  0  0  0  0  0  0  0
    0.9560    1.0123   15.5278 H   0  0  0  0  0  0  0  0  0  0  0  0
    2.6856    1.0031   14.9179 H   0  0  0  0  0  0  0  0  0  0  0  0
    5.1275    3.0856   20.3742 C   0  0  0  0  0  0  0  0  0  0  0  0
    4.9717    4.3846   20.7245 O   0  0  0  0  0  0  0  0  0  0  0  0
    5.9228    2.3651   21.2107 N   0  0  0  0  0  0  0  0  0  0  0  0
    6.5128    3.1897   22.3487 C   0  0  0  0  0  0  0  0  0  0  0  0
    6.2850    1.0046   21.2700 C   0  0  0  0  0  0  0  0  0  0  0  0
    1.2642    5.3461   11.2500 C   0  0  0  0  0  0  0  0  0  0  0  0
    0.3366    4.5490   11.6442 O   0  0  0  0  0  0  0  0  0  0  0  0
    2.3715    5.5229   12.0727 N   0  0  0  0  0  0  0  0  0  0  0  0
    3.1573    6.1617   11.7454 H   0  0  0  0  0  0  0  0  0  0  0  0
    1.9054    7.2165    8.0910 N   0  0  0  0  0  0  0  0  0  0  0  0
    2.0485    6.6025    9.2683 C   0  0  0  0  0  0  0  0  0  0  0  0
    1.0085    5.9616    9.9579 C   0  0  0  0  0  0  0  0  0  0  0  0
   -0.2090    6.0064    9.3247 C   0  0  0  0  0  0  0  0  0  0  0  0
   -1.2238    5.4663    9.8404 O   0  0  0  0  0  0  0  0  0  0  0  0
   -0.3704    6.6277    8.1258 N   0  0  0  0  0  0  0  0  0  0  0  0
    0.6664    7.2050    7.5505 C   0  0  0  0  0  0  0  0  0  0  0  0
    0.5175    7.7848    6.4326 O   0  0  0  0  0  0  0  0  0  0  0  0
   -1.6549    6.6164    7.5464 C   0  0  0  0  0  0  0  0  0  0  0  0
   -1.9799    5.5936    6.6524 C   0  0  0  0  0  0  0  0  0  0  0  0
   -3.2091    5.5377    6.0712 C   0  0  0  0  0  0  0  0  0  0  0  0
   -4.1922    6.4961    6.3425 C   0  0  0  0  0  0  0  0  0  0  0  0
   -3.8678    7.5002    7.2217 C   0  0  0  0  0  0  0  0  0  0  0  0
   -4.8152    8.4284    7.4861 F   0  0  0  0  0  0  0  0  0  0  0  0
   -2.6239    7.5640    7.8154 C   0  0  0  0  0  0  0  0  0  0  0  0
    3.2759    9.2460    7.9853 C   0  0  0  0  0  0  0  0  0  0  0  0
    3.0142    7.8662    7.4191 C   0  0  0  0  0  0  0  0  0  0  0  0
    4.2622    7.0235    7.6582 C   0  0  0  0  0  0  0  0  0  0  0  0
 43 44  1  0  0  0
 44 45  1  0  0  0
 44 28  1  0  0  0
 28 29  1  0  0  0
 29 30  2  0  0  0
 30 24  1  0  0  0
 24 25  2  0  0  0
 24 26  1  0  0  0
 26  1  1  0  0  0
  1  2  2  0  0  0
  2  3  1  0  0  0
  3  4  2  0  0  0
  4  5  1  0  0  0
  5  6  2  0  0  0
  4  7  1  0  0  0
  7  8  1  0  0  0
  8  9  2  0  0  0
  9 19  1  0  0  0
 19 20  2  0  0  0
 19 21  1  0  0  0
 21 22  1  0  0  0
 21 23  1  0  0  0
  9 10  1  0  0  0
 10 11  1  0  0  0
 11 12  2  0  0  0
 12 13  1  0  0  0
 13 14  2  0  0  0
 14 15  1  0  0  0
 14 16  1  0  0  0
 30 31  1  0  0  0
 31 32  2  0  0  0
 31 33  1  0  0  0
 33 36  1  0  0  0
 36 37  2  0  0  0
 37 38  1  0  0  0
 38 39  2  0  0  0
 39 40  1  0  0  0
 40 41  1  0  0  0
 40 42  2  0  0  0
 33 34  1  0  0  0
 34 35  2  0  0  0
 34 28  1  0  0  0
  6  1  1  0  0  0
 16  7  2  0  0  0
 42 36  1  0  0  0
 16 10  1  0  0  0
 26 27  1  0  0  0
 15 17  1  0  0  0
 15 18  1  0  0  0
M  END
> <minimizedAffinity>
-8.40437

> <CNNscore>
0.6260098815

> <CNNaffinity>
6.9916825294

> <CNN_VS>
4.3768625259

> <CNNaffinity_variance>
0.4147189260

$$$$
[H]c1nc(N([H])[H])c2c(-c3c([H])c([H])c(N([H])C(=O)c4c([H])n(C([H])(C([H])([H])[H])C([H])([H])[H])c(=O)n(-c5c([H])c([H])c([H])c(F)c5[H])c4=O)c([H])c3[H])c([H])c(C(=O)N(C([H])([H])[H])C([H])([H])[H])n2n1


 45 49  0  0  0  0  0  0  0  0999 V2000
    3.0873    5.2351   13.2216 C   0  0  0  0  0  0  0  0  0  0  0  0
    4.0110    4.2134   13.3571 C   0  0  0  0  0  0  0  0  0  0  0  0
    4.2192    3.5232   14.5291 C   0  0  0  0  0  0  0  0  0  0  0  0
    3.4893    3.8344   15.6535 C   0  0  0  0  0  0  0  0  0  0  0  0
    2.5501    4.8585   15.5496 C   0  0  0  0  0  0  0  0  0  0  0  0
    2.3648    5.5317   14.3605 C   0  0  0  0  0  0  0  0  0  0  0  0
    3.6936    3.1355   16.9100 C   0  0  0  0  0  0  0  0  0  0  0  0
    4.3789    3.6498   17.9815 C   0  0  0  0  0  0  0  0  0  0  0  0
    4.3431    2.7323   19.0647 C   0  0  0  0  0  0  0  0  0  0  0  0
    3.6332    1.6855   18.6062 N   0  0  0  0  0  0  0  0  0  0  0  0
    3.2864    0.5433   19.1313 N   0  0  0  0  0  0  0  0  0  0  0  0
    2.5987   -0.3923   18.5255 C   0  0  0  0  0  0  0  0  0  0  0  0
    2.2045   -0.1961   17.2709 N   0  0  0  0  0  0  0  0  0  0  0  0
    2.5131    0.9448   16.6503 C   0  0  0  0  0  0  0  0  0  0  0  0
    2.1369    1.1783   15.2981 N   0  0  0  0  0  0  0  0  0  0  0  0
    3.2412    1.9266   17.3066 C   0  0  0  0  0  0  0  0  0  0  0  0
    1.1298    1.2837   15.0699 H   0  0  0  0  0  0  0  0  0  0  0  0
    2.8997    1.2322   14.5920 H   0  0  0  0  0  0  0  0  0  0  0  0
    4.9909    2.9335   20.3194 C   0  0  0  0  0  0  0  0  0  0  0  0
    4.7337    4.1745   20.7972 O   0  0  0  0  0  0  0  0  0  0  0  0
    5.7864    2.1727   21.1192 N   0  0  0  0  0  0  0  0  0  0  0  0
    6.2619    2.8994   22.3717 C   0  0  0  0  0  0  0  0  0  0  0  0
    6.2320    0.8374   21.0535 C   0  0  0  0  0  0  0  0  0  0  0  0
    2.1392    5.5711   10.9178 C   0  0  0  0  0  0  0  0  0  0  0  0
    1.3774    4.5438   11.0435 O   0  0  0  0  0  0  0  0  0  0  0  0
    2.9787    5.8996   11.9767 N   0  0  0  0  0  0  0  0  0  0  0  0
    3.6316    6.7338   11.8743 H   0  0  0  0  0  0  0  0  0  0  0  0
    0.5594    6.8386    7.7894 N   0  0  0  0  0  0  0  0  0  0  0  0
    0.7726    6.2594    8.9738 C   0  0  0  0  0  0  0  0  0  0  0  0
    2.0057    6.2564    9.6425 C   0  0  0  0  0  0  0  0  0  0  0  0
    3.0159    6.9091    8.9801 C   0  0  0  0  0  0  0  0  0  0  0  0
    4.1720    6.9786    9.4762 O   0  0  0  0  0  0  0  0  0  0  0  0
    2.8144    7.5035    7.7737 N   0  0  0  0  0  0  0  0  0  0  0  0
    1.6188    7.4553    7.2193 C   0  0  0  0  0  0  0  0  0  0  0  0
    1.4293    8.0090    6.0944 O   0  0  0  0  0  0  0  0  0  0  0  0
    3.9077    8.1575    7.1715 C   0  0  0  0  0  0  0  0  0  0  0  0
    4.1977    9.4701    7.5508 C   0  0  0  0  0  0  0  0  0  0  0  0
    5.2460   10.1412    7.0008 C   0  0  0  0  0  0  0  0  0  0  0  0
    6.0717    9.5488    6.0386 C   0  0  0  0  0  0  0  0  0  0  0  0
    5.7823    8.2581    5.6684 C   0  0  0  0  0  0  0  0  0  0  0  0
    6.5779    7.6823    4.7385 F   0  0  0  0  0  0  0  0  0  0  0  0
    4.7215    7.5706    6.2213 C   0  0  0  0  0  0  0  0  0  0  0  0
   -0.9295    5.5429    6.3361 C   0  0  0  0  0  0  0  0  0  0  0  0
   -0.7364    6.8122    7.1388 C   0  0  0  0  0  0  0  0  0  0  0  0
   -1.8044    6.8388    8.2266 C   0  0  0  0  0  0  0  0  0  0  0  0
 43 44  1  0  0  0
 44 45  1  0  0  0
 44 28  1  0  0  0
 28 29  1  0  0  0
 29 30  2  0  0  0
 30 24  1  0  0  0
 24 25  2  0  0  0
 24 26  1  0  0  0
 26  1  1  0  0  0
  1  2  2  0  0  0
  2  3  1  0  0  0
  3  4  2  0  0  0
  4  5  1  0  0  0
  5  6  2  0  0  0
  4  7  1  0  0  0
  7  8  1  0  0  0
  8  9  2  0  0  0
  9 19  1  0  0  0
 19 20  2  0  0  0
 19 21  1  0  0  0
 21 22  1  0  0  0
 21 23  1  0  0  0
  9 10  1  0  0  0
 10 11  1  0  0  0
 11 12  2  0  0  0
 12 13  1  0  0  0
 13 14  2  0  0  0
 14 15  1  0  0  0
 14 16  1  0  0  0
 30 31  1  0  0  0
 31 32  2  0  0  0
 31 33  1  0  0  0
 33 36  1  0  0  0
 36 37  2  0  0  0
 37 38  1  0  0  0
 38 39  2  0  0  0
 39 40  1  0  0  0
 40 41  1  0  0  0
 40 42  2  0  0  0
 33 34  1  0  0  0
 34 35  2  0  0  0
 34 28  1  0  0  0
  6  1  1  0  0  0
 16  7  2  0  0  0
 42 36  1  0  0  0
 16 10  1  0  0  0
 26 27  1  0  0  0
 15 17  1  0  0  0
 15 18  1  0  0  0
M  END
> <minimizedAffinity>
-8.88675

> <CNNscore>
0.4958576858

> <CNNaffinity>
6.9250235558

> <CNN_VS>
3.4338262081

> <CNNaffinity_variance>
0.4445798397

$$$$
[H]c1nc(N([H])[H])c2c(-c3c([H])c([H])c(N([H])C(=O)c4c([H])n(C([H])(C([H])([H])[H])C([H])([H])[H])c(=O)n(-c5c([H])c([H])c([H])c(F)c5[H])c4=O)c([H])c3[H])c([H])c(C(=O)N(C([H])([H])[H])C([H])([H])[H])n2n1


 45 49  0  0  0  0  0  0  0  0999 V2000
    1.8206    5.5050   14.9696 C   0  0  0  0  0  0  0  0  0  0  0  0
    2.3426    4.7722   13.9178 C   0  0  0  0  0  0  0  0  0  0  0  0
    1.7656    4.7105   12.6702 C   0  0  0  0  0  0  0  0  0  0  0  0
    0.6037    5.4010   12.4111 C   0  0  0  0  0  0  0  0  0  0  0  0
    0.0530    6.1493   13.4496 C   0  0  0  0  0  0  0  0  0  0  0  0
    0.6553    6.1910   14.6894 C   0  0  0  0  0  0  0  0  0  0  0  0
   -0.0390    5.3465   11.1100 C   0  0  0  0  0  0  0  0  0  0  0  0
   -1.3626    5.0456   10.9104 C   0  0  0  0  0  0  0  0  0  0  0  0
   -1.6762    5.1343    9.5283 C   0  0  0  0  0  0  0  0  0  0  0  0
   -0.5213    5.4868    8.9349 N   0  0  0  0  0  0  0  0  0  0  0  0
   -0.1836    5.6976    7.6931 N   0  0  0  0  0  0  0  0  0  0  0  0
    1.0161    6.0187    7.2775 C   0  0  0  0  0  0  0  0  0  0  0  0
    1.9958    6.1493    8.1668 N   0  0  0  0  0  0  0  0  0  0  0  0
    1.7442    5.9529    9.4631 C   0  0  0  0  0  0  0  0  0  0  0  0
    2.7729    6.0521   10.4411 N   0  0  0  0  0  0  0  0  0  0  0  0
    0.4674    5.6146    9.8873 C   0  0  0  0  0  0  0  0  0  0  0  0
    3.1991    6.9802   10.6267 H   0  0  0  0  0  0  0  0  0  0  0  0
    3.0537    5.1773   10.9301 H   0  0  0  0  0  0  0  0  0  0  0  0
   -2.9552    4.8454    8.9669 C   0  0  0  0  0  0  0  0  0  0  0  0
   -3.5482    3.8230    9.6284 O   0  0  0  0  0  0  0  0  0  0  0  0
   -3.6894    5.3586    7.9427 N   0  0  0  0  0  0  0  0  0  0  0  0
   -5.0149    4.6386    7.7247 C   0  0  0  0  0  0  0  0  0  0  0  0
   -3.5002    6.4441    7.0643 C   0  0  0  0  0  0  0  0  0  0  0  0
    3.7653    5.0095   16.4837 C   0  0  0  0  0  0  0  0  0  0  0  0
    4.4513    4.5362   15.5054 O   0  0  0  0  0  0  0  0  0  0  0  0
    2.4800    5.4714   16.2215 N   0  0  0  0  0  0  0  0  0  0  0  0
    1.8937    5.8429   17.0283 H   0  0  0  0  0  0  0  0  0  0  0  0
    4.9121    3.7734   19.8072 N   0  0  0  0  0  0  0  0  0  0  0  0
    4.3348    3.8751   18.6072 C   0  0  0  0  0  0  0  0  0  0  0  0
    4.4594    4.9869   17.7610 C   0  0  0  0  0  0  0  0  0  0  0  0
    5.2397    6.0001   18.2608 C   0  0  0  0  0  0  0  0  0  0  0  0
    5.4314    7.0534   17.5964 O   0  0  0  0  0  0  0  0  0  0  0  0
    5.8341    5.9113   19.4806 N   0  0  0  0  0  0  0  0  0  0  0  0
    5.6603    4.8253   20.2085 C   0  0  0  0  0  0  0  0  0  0  0  0
    6.2139    4.7410   21.3462 O   0  0  0  0  0  0  0  0  0  0  0  0
    6.6240    6.9969   19.9085 C   0  0  0  0  0  0  0  0  0  0  0  0
    7.9391    6.7538   20.3113 C   0  0  0  0  0  0  0  0  0  0  0  0
    8.7419    7.7705   20.7278 C   0  0  0  0  0  0  0  0  0  0  0  0
    8.2867    9.0933   20.7704 C   0  0  0  0  0  0  0  0  0  0  0  0
    6.9926    9.3274   20.3739 C   0  0  0  0  0  0  0  0  0  0  0  0
    6.5491   10.6044   20.4139 F   0  0  0  0  0  0  0  0  0  0  0  0
    6.1723    8.3022   19.9499 C   0  0  0  0  0  0  0  0  0  0  0  0
    3.2890    2.2707   20.8633 C   0  0  0  0  0  0  0  0  0  0  0  0
    4.7506    2.6008   20.6450 C   0  0  0  0  0  0  0  0  0  0  0  0
    5.3887    1.4199   19.9218 C   0  0  0  0  0  0  0  0  0  0  0  0
 43 44  1  0  0  0
 44 45  1  0  0  0
 44 28  1  0  0  0
 28 29  1  0  0  0
 29 30  2  0  0  0
 30 24  1  0  0  0
 24 25  2  0  0  0
 24 26  1  0  0  0
 26  1  1  0  0  0
  1  2  2  0  0  0
  2  3  1  0  0  0
  3  4  2  0  0  0
  4  5  1  0  0  0
  5  6  2  0  0  0
  4  7  1  0  0  0
  7  8  1  0  0  0
  8  9  2  0  0  0
  9 19  1  0  0  0
 19 20  2  0  0  0
 19 21  1  0  0  0
 21 22  1  0  0  0
 21 23  1  0  0  0
  9 10  1  0  0  0
 10 11  1  0  0  0
 11 12  2  0  0  0
 12 13  1  0  0  0
 13 14  2  0  0  0
 14 15  1  0  0  0
 14 16  1  0  0  0
 30 31  1  0  0  0
 31 32  2  0  0  0
 31 33  1  0  0  0
 33 36  1  0  0  0
 36 37  2  0  0  0
 37 38  1  0  0  0
 38 39  2  0  0  0
 39 40  1  0  0  0
 40 41  1  0  0  0
 40 42  2  0  0  0
 33 34  1  0  0  0
 34 35  2  0  0  0
 34 28  1  0  0  0
  6  1  1  0  0  0
 16  7  2  0  0  0
 42 36  1  0  0  0
 16 10  1  0  0  0
 26 27  1  0  0  0
 15 17  1  0  0  0
 15 18  1  0  0  0
M  END
> <minimizedAffinity>
-6.26071

> <CNNscore>
0.2121583968

> <CNNaffinity>
6.3893866539

> <CNN_VS>
1.3555619717

> <CNNaffinity_variance>
0.9620755911

$$$$
[H]c1nc(N([H])[H])c2c(-c3c([H])c([H])c(N([H])C(=O)c4c([H])n(C([H])(C([H])([H])[H])C([H])([H])[H])c(=O)n(-c5c([H])c([H])c([H])c(F)c5[H])c4=O)c([H])c3[H])c([H])c(C(=O)N(C([H])([H])[H])C([H])([H])[H])n2n1


 45 49  0  0  0  0  0  0  0  0999 V2000
    2.1462    4.9572   13.7976 C   0  0  0  0  0  0  0  0  0  0  0  0
    3.4186    4.4206   13.8900 C   0  0  0  0  0  0  0  0  0  0  0  0
    4.0817    4.2295   15.0804 C   0  0  0  0  0  0  0  0  0  0  0  0
    3.4822    4.5780   16.2691 C   0  0  0  0  0  0  0  0  0  0  0  0
    2.2001    5.1205   16.2101 C   0  0  0  0  0  0  0  0  0  0  0  0
    1.5617    5.2996   15.0010 C   0  0  0  0  0  0  0  0  0  0  0  0
    4.1591    4.4028   17.5420 C   0  0  0  0  0  0  0  0  0  0  0  0
    4.7710    5.4125   18.2409 C   0  0  0  0  0  0  0  0  0  0  0  0
    5.2842    4.9112   19.4663 C   0  0  0  0  0  0  0  0  0  0  0  0
    4.9639    3.6045   19.4651 N   0  0  0  0  0  0  0  0  0  0  0  0
    5.1833    2.6308   20.3043 N   0  0  0  0  0  0  0  0  0  0  0  0
    4.8141    1.3857   20.1346 C   0  0  0  0  0  0  0  0  0  0  0  0
    4.1594    1.0500   19.0271 N   0  0  0  0  0  0  0  0  0  0  0  0
    3.8890    1.9811   18.1095 C   0  0  0  0  0  0  0  0  0  0  0  0
    3.2189    1.6546   16.8975 N   0  0  0  0  0  0  0  0  0  0  0  0
    4.2859    3.2960   18.3050 C   0  0  0  0  0  0  0  0  0  0  0  0
    2.2259    1.3552   16.9397 H   0  0  0  0  0  0  0  0  0  0  0  0
    3.7638    1.7317   16.0141 H   0  0  0  0  0  0  0  0  0  0  0  0
    6.0154    5.6845   20.4160 C   0  0  0  0  0  0  0  0  0  0  0  0
    6.9697    6.4218   19.7995 O   0  0  0  0  0  0  0  0  0  0  0  0
    5.9640    5.8404   21.7666 N   0  0  0  0  0  0  0  0  0  0  0  0
    7.0302    6.7840   22.3106 C   0  0  0  0  0  0  0  0  0  0  0  0
    5.1051    5.3431   22.7671 C   0  0  0  0  0  0  0  0  0  0  0  0
    1.5562    6.3053   11.7594 C   0  0  0  0  0  0  0  0  0  0  0  0
    2.1005    7.3584   12.2556 O   0  0  0  0  0  0  0  0  0  0  0  0
    1.5710    5.1393   12.5173 N   0  0  0  0  0  0  0  0  0  0  0  0
    1.1017    4.2675   12.1269 H   0  0  0  0  0  0  0  0  0  0  0  0
    1.2313    7.4942    8.2423 N   0  0  0  0  0  0  0  0  0  0  0  0
    1.6844    7.2413    9.4729 C   0  0  0  0  0  0  0  0  0  0  0  0
    0.9851    6.4995   10.4366 C   0  0  0  0  0  0  0  0  0  0  0  0
   -0.2376    6.0330   10.0212 C   0  0  0  0  0  0  0  0  0  0  0  0
   -0.9635    5.3516   10.7934 O   0  0  0  0  0  0  0  0  0  0  0  0
   -0.7125    6.2822    8.7715 N   0  0  0  0  0  0  0  0  0  0  0  0
    0.0160    6.9907    7.9309 C   0  0  0  0  0  0  0  0  0  0  0  0
   -0.4255    7.2239    6.7653 O   0  0  0  0  0  0  0  0  0  0  0  0
   -1.9745    5.7564    8.4301 C   0  0  0  0  0  0  0  0  0  0  0  0
   -3.1030    6.5654    8.5814 C   0  0  0  0  0  0  0  0  0  0  0  0
   -4.3422    6.1036    8.2604 C   0  0  0  0  0  0  0  0  0  0  0  0
   -4.5368    4.8076    7.7691 C   0  0  0  0  0  0  0  0  0  0  0  0
   -3.4241    4.0156    7.6226 C   0  0  0  0  0  0  0  0  0  0  0  0
   -3.6083    2.7626    7.1484 F   0  0  0  0  0  0  0  0  0  0  0  0
   -2.1643    4.4763    7.9454 C   0  0  0  0  0  0  0  0  0  0  0  0
    2.3234    9.6468    7.8163 C   0  0  0  0  0  0  0  0  0  0  0  0
    1.9941    8.2686    7.2824 C   0  0  0  0  0  0  0  0  0  0  0  0
    3.3111    7.5404    7.0377 C   0  0  0  0  0  0  0  0  0  0  0  0
 43 44  1  0  0  0
 44 45  1  0  0  0
 44 28  1  0  0  0
 28 29  1  0  0  0
 29 30  2  0  0  0
 30 24  1  0  0  0
 24 25  2  0  0  0
 24 26  1  0  0  0
 26  1  1  0  0  0
  1  2  2  0  0  0
  2  3  1  0  0  0
  3  4  2  0  0  0
  4  5  1  0  0  0
  5  6  2  0  0  0
  4  7  1  0  0  0
  7  8  1  0  0  0
  8  9  2  0  0  0
  9 19  1  0  0  0
 19 20  2  0  0  0
 19 21  1  0  0  0
 21 22  1  0  0  0
 21 23  1  0  0  0
  9 10  1  0  0  0
 10 11  1  0  0  0
 11 12  2  0  0  0
 12 13  1  0  0  0
 13 14  2  0  0  0
 14 15  1  0  0  0
 14 16  1  0  0  0
 30 31  1  0  0  0
 31 32  2  0  0  0
 31 33  1  0  0  0
 33 36  1  0  0  0
 36 37  2  0  0  0
 37 38  1  0  0  0
 38 39  2  0  0  0
 39 40  1  0  0  0
 40 41  1  0  0  0
 40 42  2  0  0  0
 33 34  1  0  0  0
 34 35  2  0  0  0
 34 28  1  0  0  0
  6  1  1  0  0  0
 16  7  2  0  0  0
 42 36  1  0  0  0
 16 10  1  0  0  0
 26 27  1  0  0  0
 15 17  1  0  0  0
 15 18  1  0  0  0
M  END
> <minimizedAffinity>
-7.78449

> <CNNscore>
0.1756494343

> <CNNaffinity>
6.4736809731

> <CNN_VS>
1.1370984316

> <CNNaffinity_variance>
0.6975526810

$$$$
[H]c1nc(N([H])[H])c2c(-c3c([H])c([H])c(N([H])C(=O)c4c([H])n(C([H])(C([H])([H])[H])C([H])([H])[H])c(=O)n(-c5c([H])c([H])c([H])c(F)c5[H])c4=O)c([H])c3[H])c([H])c(C(=O)N(C([H])([H])[H])C([H])([H])[H])n2n1


 45 49  0  0  0  0  0  0  0  0999 V2000
    2.0725    5.5066   15.0775 C   0  0  0  0  0  0  0  0  0  0  0  0
    2.2595    4.2372   14.5588 C   0  0  0  0  0  0  0  0  0  0  0  0
    1.8320    3.8530   13.3086 C   0  0  0  0  0  0  0  0  0  0  0  0
    1.1776    4.7503   12.4960 C   0  0  0  0  0  0  0  0  0  0  0  0
    0.9743    6.0376   12.9891 C   0  0  0  0  0  0  0  0  0  0  0  0
    1.4147    6.3922   14.2467 C   0  0  0  0  0  0  0  0  0  0  0  0
    0.7009    4.3739   11.1768 C   0  0  0  0  0  0  0  0  0  0  0  0
   -0.5645    3.9153   10.9106 C   0  0  0  0  0  0  0  0  0  0  0  0
   -0.7156    3.6933    9.5163 C   0  0  0  0  0  0  0  0  0  0  0  0
    0.4740    4.0262    8.9834 N   0  0  0  0  0  0  0  0  0  0  0  0
    0.9423    4.0129    7.7664 N   0  0  0  0  0  0  0  0  0  0  0  0
    2.1573    4.3554    7.4175 C   0  0  0  0  0  0  0  0  0  0  0  0
    3.0116    4.7547    8.3549 N   0  0  0  0  0  0  0  0  0  0  0  0
    2.6210    4.8010    9.6306 C   0  0  0  0  0  0  0  0  0  0  0  0
    3.5154    5.1922   10.6658 N   0  0  0  0  0  0  0  0  0  0  0  0
    1.3299    4.4363    9.9836 C   0  0  0  0  0  0  0  0  0  0  0  0
    3.8493    6.1747   10.6939 H   0  0  0  0  0  0  0  0  0  0  0  0
    3.7971    4.4646   11.3546 H   0  0  0  0  0  0  0  0  0  0  0  0
   -1.8943    3.1776    8.9005 C   0  0  0  0  0  0  0  0  0  0  0  0
   -1.8852    1.8232    8.9090 O   0  0  0  0  0  0  0  0  0  0  0  0
   -2.9950    3.7327    8.3246 N   0  0  0  0  0  0  0  0  0  0  0  0
   -3.9716    2.7053    7.7645 C   0  0  0  0  0  0  0  0  0  0  0  0
   -3.4430    5.0600    8.1719 C   0  0  0  0  0  0  0  0  0  0  0  0
    3.6527    6.5114   16.7548 C   0  0  0  0  0  0  0  0  0  0  0  0
    4.3994    6.9827   15.8211 O   0  0  0  0  0  0  0  0  0  0  0  0
    2.5251    5.7839   16.3896 N   0  0  0  0  0  0  0  0  0  0  0  0
    1.9128    5.3680   17.1542 H   0  0  0  0  0  0  0  0  0  0  0  0
    5.0048    8.4887   19.6097 N   0  0  0  0  0  0  0  0  0  0  0  0
    4.5393    8.1179   18.4141 C   0  0  0  0  0  0  0  0  0  0  0  0
    4.1172    6.8181   18.0979 C   0  0  0  0  0  0  0  0  0  0  0  0
    4.2158    5.9187   19.1307 C   0  0  0  0  0  0  0  0  0  0  0  0
    3.8671    4.7180   18.9749 O   0  0  0  0  0  0  0  0  0  0  0  0
    4.6877    6.2811   20.3535 N   0  0  0  0  0  0  0  0  0  0  0  0
    5.0626    7.5286   20.5596 C   0  0  0  0  0  0  0  0  0  0  0  0
    5.5028    7.8681   21.6993 O   0  0  0  0  0  0  0  0  0  0  0  0
    4.7457    5.2925   21.3560 C   0  0  0  0  0  0  0  0  0  0  0  0
    5.8520    4.4409   21.3968 C   0  0  0  0  0  0  0  0  0  0  0  0
    5.9551    3.4742   22.3490 C   0  0  0  0  0  0  0  0  0  0  0  0
    4.9639    3.2935   23.3203 C   0  0  0  0  0  0  0  0  0  0  0  0
    3.8776    4.1330   23.2757 C   0  0  0  0  0  0  0  0  0  0  0  0
    2.9175    3.9612   24.2126 F   0  0  0  0  0  0  0  0  0  0  0  0
    3.7656    5.1158   22.3138 C   0  0  0  0  0  0  0  0  0  0  0  0
    6.6940   10.1985   19.1291 C   0  0  0  0  0  0  0  0  0  0  0  0
    5.4301    9.8475   19.8854 C   0  0  0  0  0  0  0  0  0  0  0  0
    4.3284   10.7867   19.4069 C   0  0  0  0  0  0  0  0  0  0  0  0
 43 44  1  0  0  0
 44 45  1  0  0  0
 44 28  1  0  0  0
 28 29  1  0  0  0
 29 30  2  0  0  0
 30 24  1  0  0  0
 24 25  2  0  0  0
 24 26  1  0  0  0
 26  1  1  0  0  0
  1  2  2  0  0  0
  2  3  1  0  0  0
  3  4  2  0  0  0
  4  5  1  0  0  0
  5  6  2  0  0  0
  4  7  1  0  0  0
  7  8  1  0  0  0
  8  9  2  0  0  0
  9 19  1  0  0  0
 19 20  2  0  0  0
 19 21  1  0  0  0
 21 22  1  0  0  0
 21 23  1  0  0  0
  9 10  1  0  0  0
 10 11  1  0  0  0
 11 12  2  0  0  0
 12 13  1  0  0  0
 13 14  2  0  0  0
 14 15  1  0  0  0
 14 16  1  0  0  0
 30 31  1  0  0  0
 31 32  2  0  0  0
 31 33  1  0  0  0
 33 36  1  0  0  0
 36 37  2  0  0  0
 37 38  1  0  0  0
 38 39  2  0  0  0
 39 40  1  0  0  0
 40 41  1  0  0  0
 40 42  2  0  0  0
 33 34  1  0  0  0
 34 35  2  0  0  0
 34 28  1  0  0  0
  6  1  1  0  0  0
 16  7  2  0  0  0
 42 36  1  0  0  0
 16 10  1  0  0  0
 26 27  1  0  0  0
 15 17  1  0  0  0
 15 18  1  0  0  0
M  END
> <minimizedAffinity>
-8.38797

> <CNNscore>
0.1385308355

> <CNNaffinity>
6.2211847305

> <CNN_VS>
0.8618259430

> <CNNaffinity_variance>
1.1883493662

$$$$
[H]c1nc(N([H])[H])c2c(-c3c([H])c([H])c(N([H])C(=O)c4c([H])n(C([H])(C([H])([H])[H])C([H])([H])[H])c(=O)n(-c5c([H])c([H])c([H])c(F)c5[H])c4=O)c([H])c3[H])c([H])c(C(=O)N(C([H])([H])[H])C([H])([H])[H])n2n1


 45 49  0  0  0  0  0  0  0  0999 V2000
    2.3709    4.8520   13.6126 C   0  0  0  0  0  0  0  0  0  0  0  0
    3.6058    4.2579   13.8065 C   0  0  0  0  0  0  0  0  0  0  0  0
    4.1720    4.0609   15.0449 C   0  0  0  0  0  0  0  0  0  0  0  0
    3.5068    4.4624   16.1808 C   0  0  0  0  0  0  0  0  0  0  0  0
    2.2601    5.0636   16.0194 C   0  0  0  0  0  0  0  0  0  0  0  0
    1.7192    5.2470   14.7643 C   0  0  0  0  0  0  0  0  0  0  0  0
    4.0816    4.2824   17.5022 C   0  0  0  0  0  0  0  0  0  0  0  0
    4.6440    5.2878   18.2473 C   0  0  0  0  0  0  0  0  0  0  0  0
    5.0572    4.7828   19.5085 C   0  0  0  0  0  0  0  0  0  0  0  0
    4.7294    3.4782   19.4814 N   0  0  0  0  0  0  0  0  0  0  0  0
    4.8766    2.5028   20.3342 N   0  0  0  0  0  0  0  0  0  0  0  0
    4.5135    1.2602   20.1354 C   0  0  0  0  0  0  0  0  0  0  0  0
    3.9447    0.9291   18.9801 N   0  0  0  0  0  0  0  0  0  0  0  0
    3.7524    1.8623   18.0450 C   0  0  0  0  0  0  0  0  0  0  0  0
    3.1764    1.5406   16.7844 N   0  0  0  0  0  0  0  0  0  0  0  0
    4.1415    3.1745   18.2718 C   0  0  0  0  0  0  0  0  0  0  0  0
    2.1812    1.2477   16.7491 H   0  0  0  0  0  0  0  0  0  0  0  0
    3.7887    1.6144   15.9460 H   0  0  0  0  0  0  0  0  0  0  0  0
    5.7174    5.5509   20.5127 C   0  0  0  0  0  0  0  0  0  0  0  0
    6.6870    6.3220   19.9651 O   0  0  0  0  0  0  0  0  0  0  0  0
    5.5887    5.6763   21.8614 N   0  0  0  0  0  0  0  0  0  0  0  0
    6.6017    6.6307   22.4826 C   0  0  0  0  0  0  0  0  0  0  0  0
    4.6880    5.1388   22.8025 C   0  0  0  0  0  0  0  0  0  0  0  0
    0.8799    5.8828   11.8708 C   0  0  0  0  0  0  0  0  0  0  0  0
    0.2660    6.5800   12.7588 O   0  0  0  0  0  0  0  0  0  0  0  0
    1.8983    5.0340   12.2910 N   0  0  0  0  0  0  0  0  0  0  0  0
    2.3971    4.4335   11.5677 H   0  0  0  0  0  0  0  0  0  0  0  0
   -1.3953    5.7622    8.9216 N   0  0  0  0  0  0  0  0  0  0  0  0
   -0.8773    5.6392   10.1464 C   0  0  0  0  0  0  0  0  0  0  0  0
    0.3984    6.0917   10.5150 C   0  0  0  0  0  0  0  0  0  0  0  0
    1.1064    6.6903    9.5022 C   0  0  0  0  0  0  0  0  0  0  0  0
    2.2656    7.1405    9.7053 O   0  0  0  0  0  0  0  0  0  0  0  0
    0.5926    6.8229    8.2502 N   0  0  0  0  0  0  0  0  0  0  0  0
   -0.6181    6.3662    7.9950 C   0  0  0  0  0  0  0  0  0  0  0  0
   -1.0986    6.4891    6.8280 O   0  0  0  0  0  0  0  0  0  0  0  0
    1.3883    7.4582    7.2761 C   0  0  0  0  0  0  0  0  0  0  0  0
    1.2801    8.8416    7.1177 C   0  0  0  0  0  0  0  0  0  0  0  0
    2.0312    9.5002    6.1936 C   0  0  0  0  0  0  0  0  0  0  0  0
    2.9372    8.8239    5.3687 C   0  0  0  0  0  0  0  0  0  0  0  0
    3.0397    7.4634    5.5278 C   0  0  0  0  0  0  0  0  0  0  0  0
    3.9139    6.8063    4.7323 F   0  0  0  0  0  0  0  0  0  0  0  0
    2.2820    6.7882    6.4625 C   0  0  0  0  0  0  0  0  0  0  0  0
   -2.9016    3.8304    9.0051 C   0  0  0  0  0  0  0  0  0  0  0  0
   -2.7209    5.2757    8.5912 C   0  0  0  0  0  0  0  0  0  0  0  0
   -3.7311    6.1102    9.3709 C   0  0  0  0  0  0  0  0  0  0  0  0
 43 44  1  0  0  0
 44 45  1  0  0  0
 44 28  1  0  0  0
 28 29  1  0  0  0
 29 30  2  0  0  0
 30 24  1  0  0  0
 24 25  2  0  0  0
 24 26  1  0  0  0
 26  1  1  0  0  0
  1  2  2  0  0  0
  2  3  1  0  0  0
  3  4  2  0  0  0
  4  5  1  0  0  0
  5  6  2  0  0  0
  4  7  1  0  0  0
  7  8  1  0  0  0
  8  9  2  0  0  0
  9 19  1  0  0  0
 19 20  2  0  0  0
 19 21  1  0  0  0
 21 22  1  0  0  0
 21 23  1  0  0  0
  9 10  1  0  0  0
 10 11  1  0  0  0
 11 12  2  0  0  0
 12 13  1  0  0  0
 13 14  2  0  0  0
 14 15  1  0  0  0
 14 16  1  0  0  0
 30 31  1  0  0  0
 31 32  2  0  0  0
 31 33  1  0  0  0
 33 36  1  0  0  0
 36 37  2  0  0  0
 37 38  1  0  0  0
 38 39  2  0  0  0
 39 40  1  0  0  0
 40 41  1  0  0  0
 40 42  2  0  0  0
 33 34  1  0  0  0
 34 35  2  0  0  0
 34 28  1  0  0  0
  6  1  1  0  0  0
 16  7  2  0  0  0
 42 36  1  0  0  0
 16 10  1  0  0  0
 26 27  1  0  0  0
 15 17  1  0  0  0
 15 18  1  0  0  0
M  END
> <minimizedAffinity>
-8.04547

> <CNNscore>
0.1260393858

> <CNNaffinity>
6.3528609276

> <CNN_VS>
0.8007106781

> <CNNaffinity_variance>
0.5367713571

$$$$
[H]c1nc(N([H])[H])c2c(-c3c([H])c([H])c(N([H])C(=O)c4c([H])n(C([H])(C([H])([H])[H])C([H])([H])[H])c(=O)n(-c5c([H])c([H])c([H])c(F)c5[H])c4=O)c([H])c3[H])c([H])c(C(=O)N(C([H])([H])[H])C([H])([H])[H])n2n1


 45 49  0  0  0  0  0  0  0  0999 V2000
    1.7770    5.5835   15.0768 C   0  0  0  0  0  0  0  0  0  0  0  0
    2.0334    4.6864   14.0545 C   0  0  0  0  0  0  0  0  0  0  0  0
    1.5197    4.8099   12.7840 C   0  0  0  0  0  0  0  0  0  0  0  0
    0.7006    5.8702   12.4697 C   0  0  0  0  0  0  0  0  0  0  0  0
    0.4236    6.7919   13.4774 C   0  0  0  0  0  0  0  0  0  0  0  0
    0.9538    6.6404   14.7413 C   0  0  0  0  0  0  0  0  0  0  0  0
    0.1304    6.0232   11.1429 C   0  0  0  0  0  0  0  0  0  0  0  0
   -1.0646    5.4794   10.7444 C   0  0  0  0  0  0  0  0  0  0  0  0
   -1.3516    5.8672    9.4089 C   0  0  0  0  0  0  0  0  0  0  0  0
   -0.3107    6.6369    9.0424 N   0  0  0  0  0  0  0  0  0  0  0  0
   -0.0043    7.2565    7.9366 N   0  0  0  0  0  0  0  0  0  0  0  0
    1.0830    7.9588    7.7371 C   0  0  0  0  0  0  0  0  0  0  0  0
    1.9705    8.0712    8.7208 N   0  0  0  0  0  0  0  0  0  0  0  0
    1.7419    7.4707    9.8909 C   0  0  0  0  0  0  0  0  0  0  0  0
    2.6824    7.5412   10.9564 N   0  0  0  0  0  0  0  0  0  0  0  0
    0.5844    6.7315   10.0868 C   0  0  0  0  0  0  0  0  0  0  0  0
    2.8492    8.4565   11.4168 H   0  0  0  0  0  0  0  0  0  0  0  0
    3.1657    6.6600   11.2267 H   0  0  0  0  0  0  0  0  0  0  0  0
   -2.4964    5.4451    8.6703 C   0  0  0  0  0  0  0  0  0  0  0  0
   -2.6467    4.1012    8.7474 O   0  0  0  0  0  0  0  0  0  0  0  0
   -3.4443    6.0790    7.9281 N   0  0  0  0  0  0  0  0  0  0  0  0
   -4.4566    5.1307    7.2966 C   0  0  0  0  0  0  0  0  0  0  0  0
   -3.7116    7.4348    7.6520 C   0  0  0  0  0  0  0  0  0  0  0  0
    3.4008    6.0053   16.9490 C   0  0  0  0  0  0  0  0  0  0  0  0
    3.9835    6.9354   16.2807 O   0  0  0  0  0  0  0  0  0  0  0  0
    2.3324    5.3413   16.3559 N   0  0  0  0  0  0  0  0  0  0  0  0
    1.8578    4.5527   16.8902 H   0  0  0  0  0  0  0  0  0  0  0  0
    5.0830    6.7339   20.1937 N   0  0  0  0  0  0  0  0  0  0  0  0
    4.5181    6.8483   18.9889 C   0  0  0  0  0  0  0  0  0  0  0  0
    3.9679    5.7779   18.2683 C   0  0  0  0  0  0  0  0  0  0  0  0
    4.0490    4.5620   18.9010 C   0  0  0  0  0  0  0  0  0  0  0  0
    3.5897    3.5216   18.3587 O   0  0  0  0  0  0  0  0  0  0  0  0
    4.6211    4.4296   20.1275 N   0  0  0  0  0  0  0  0  0  0  0  0
    5.1135    5.4938   20.7311 C   0  0  0  0  0  0  0  0  0  0  0  0
    5.6473    5.3719   21.8748 O   0  0  0  0  0  0  0  0  0  0  0  0
    4.6524    3.1441   20.7037 C   0  0  0  0  0  0  0  0  0  0  0  0
    3.5928    2.7490   21.5236 C   0  0  0  0  0  0  0  0  0  0  0  0
    3.5761    1.5157   22.0984 C   0  0  0  0  0  0  0  0  0  0  0  0
    4.6127    0.5978   21.8943 C   0  0  0  0  0  0  0  0  0  0  0  0
    5.6527    0.9910   21.0878 C   0  0  0  0  0  0  0  0  0  0  0  0
    6.6564    0.1068   20.8883 F   0  0  0  0  0  0  0  0  0  0  0  0
    5.6772    2.2395   20.5010 C   0  0  0  0  0  0  0  0  0  0  0  0
    7.0120    8.2356   20.3713 C   0  0  0  0  0  0  0  0  0  0  0  0
    5.6391    7.8735   20.8973 C   0  0  0  0  0  0  0  0  0  0  0  0
    4.7205    9.0656   20.6526 C   0  0  0  0  0  0  0  0  0  0  0  0
 43 44  1  0  0  0
 44 45  1  0  0  0
 44 28  1  0  0  0
 28 29  1  0  0  0
 29 30  2  0  0  0
 30 24  1  0  0  0
 24 25  2  0  0  0
 24 26  1  0  0  0
 26  1  1  0  0  0
  1  2  2  0  0  0
  2  3  1  0  0  0
  3  4  2  0  0  0
  4  5  1  0  0  0
  5  6  2  0  0  0
  4  7  1  0  0  0
  7  8  1  0  0  0
  8  9  2  0  0  0
  9 19  1  0  0  0
 19 20  2  0  0  0
 19 21  1  0  0  0
 21 22  1  0  0  0
 21 23  1  0  0  0
  9 10  1  0  0  0
 10 11  1  0  0  0
 11 12  2  0  0  0
 12 13  1  0  0  0
 13 14  2  0  0  0
 14 15  1  0  0  0
 14 16  1  0  0  0
 30 31  1  0  0  0
 31 32  2  0  0  0
 31 33  1  0  0  0
 33 36  1  0  0  0
 36 37  2  0  0  0
 37 38  1  0  0  0
 38 39  2  0  0  0
 39 40  1  0  0  0
 40 41  1  0  0  0
 40 42  2  0  0  0
 33 34  1  0  0  0
 34 35  2  0  0  0
 34 28  1  0  0  0
  6  1  1  0  0  0
 16  7  2  0  0  0
 42 36  1  0  0  0
 16 10  1  0  0  0
 26 27  1  0  0  0
 15 17  1  0  0  0
 15 18  1  0  0  0
M  END
> <minimizedAffinity>
-8.60152

> <CNNscore>
0.0916761458

> <CNNaffinity>
6.2832231522

> <CNN_VS>
0.5760216713

> <CNNaffinity_variance>
0.6479104757

$$$$
[H]c1nc(N([H])[H])c2c(-c3c([H])c([H])c(N([H])C(=O)c4c([H])n(C([H])(C([H])([H])[H])C([H])([H])[H])c(=O)n(-c5c([H])c([H])c([H])c(F)c5[H])c4=O)c([H])c3[H])c([H])c(C(=O)N(C([H])([H])[H])C([H])([H])[H])n2n1


 45 49  0  0  0  0  0  0  0  0999 V2000
    3.1666    4.4563   15.3158 C   0  0  0  0  0  0  0  0  0  0  0  0
    4.4055    3.8898   15.5602 C   0  0  0  0  0  0  0  0  0  0  0  0
    4.9898    3.8401   16.8049 C   0  0  0  0  0  0  0  0  0  0  0  0
    4.3399    4.3720   17.8952 C   0  0  0  0  0  0  0  0  0  0  0  0
    3.0897    4.9494   17.6824 C   0  0  0  0  0  0  0  0  0  0  0  0
    2.5306    4.9837   16.4223 C   0  0  0  0  0  0  0  0  0  0  0  0
    4.9340    4.3489   19.2202 C   0  0  0  0  0  0  0  0  0  0  0  0
    5.6171    5.3974   19.7827 C   0  0  0  0  0  0  0  0  0  0  0  0
    6.0159    5.0624   21.1037 C   0  0  0  0  0  0  0  0  0  0  0  0
    5.5581    3.8119   21.2952 N   0  0  0  0  0  0  0  0  0  0  0  0
    5.6327    2.9770   22.2941 N   0  0  0  0  0  0  0  0  0  0  0  0
    5.1408    1.7633   22.3065 C   0  0  0  0  0  0  0  0  0  0  0  0
    4.5064    1.3110   21.2291 N   0  0  0  0  0  0  0  0  0  0  0  0
    4.3803    2.0958   20.1565 C   0  0  0  0  0  0  0  0  0  0  0  0
    3.7366    1.6365   18.9737 N   0  0  0  0  0  0  0  0  0  0  0  0
    4.9059    3.3797   20.1599 C   0  0  0  0  0  0  0  0  0  0  0  0
    2.7163    1.4469   19.0006 H   0  0  0  0  0  0  0  0  0  0  0  0
    4.3272    1.5098   18.1262 H   0  0  0  0  0  0  0  0  0  0  0  0
    6.7804    5.9098   21.9593 C   0  0  0  0  0  0  0  0  0  0  0  0
    7.8347    5.2379   22.4803 O   0  0  0  0  0  0  0  0  0  0  0  0
    6.6858    7.2085   22.3538 N   0  0  0  0  0  0  0  0  0  0  0  0
    7.7684    7.6236   23.3431 C   0  0  0  0  0  0  0  0  0  0  0  0
    5.8193    8.2649   22.0089 C   0  0  0  0  0  0  0  0  0  0  0  0
    2.9102    5.4532   13.0222 C   0  0  0  0  0  0  0  0  0  0  0  0
    3.6361    6.4641   13.3424 O   0  0  0  0  0  0  0  0  0  0  0  0
    2.6747    4.4814   13.9889 N   0  0  0  0  0  0  0  0  0  0  0  0
    2.0549    3.6521   13.7426 H   0  0  0  0  0  0  0  0  0  0  0  0
    1.0626    4.4172    9.9560 N   0  0  0  0  0  0  0  0  0  0  0  0
    1.5409    4.4900   11.2008 C   0  0  0  0  0  0  0  0  0  0  0  0
    2.4259    5.4806   11.6517 C   0  0  0  0  0  0  0  0  0  0  0  0
    2.7825    6.4036   10.6998 C   0  0  0  0  0  0  0  0  0  0  0  0
    3.5714    7.3454   10.9793 O   0  0  0  0  0  0  0  0  0  0  0  0
    2.3040    6.3428    9.4283 N   0  0  0  0  0  0  0  0  0  0  0  0
    1.4747    5.3734    9.0939 C   0  0  0  0  0  0  0  0  0  0  0  0
    1.0277    5.3154    7.9086 O   0  0  0  0  0  0  0  0  0  0  0  0
    2.7185    7.3380    8.5209 C   0  0  0  0  0  0  0  0  0  0  0  0
    3.9277    7.1678    7.8429 C   0  0  0  0  0  0  0  0  0  0  0  0
    4.3673    8.0991    6.9534 C   0  0  0  0  0  0  0  0  0  0  0  0
    3.6319    9.2587    6.6828 C   0  0  0  0  0  0  0  0  0  0  0  0
    2.4438    9.4219    7.3524 C   0  0  0  0  0  0  0  0  0  0  0  0
    1.7304   10.5414    7.0937 F   0  0  0  0  0  0  0  0  0  0  0  0
    1.9908    8.4823    8.2555 C   0  0  0  0  0  0  0  0  0  0  0  0
    0.5109    2.0378   10.1608 C   0  0  0  0  0  0  0  0  0  0  0  0
    0.1494    3.3705    9.5394 C   0  0  0  0  0  0  0  0  0  0  0  0
   -1.2448    3.7465   10.0292 C   0  0  0  0  0  0  0  0  0  0  0  0
 43 44  1  0  0  0
 44 45  1  0  0  0
 44 28  1  0  0  0
 28 29  1  0  0  0
 29 30  2  0  0  0
 30 24  1  0  0  0
 24 25  2  0  0  0
 24 26  1  0  0  0
 26  1  1  0  0  0
  1  2  2  0  0  0
  2  3  1  0  0  0
  3  4  2  0  0  0
  4  5  1  0  0  0
  5  6  2  0  0  0
  4  7  1  0  0  0
  7  8  1  0  0  0
  8  9  2  0  0  0
  9 19  1  0  0  0
 19 20  2  0  0  0
 19 21  1  0  0  0
 21 22  1  0  0  0
 21 23  1  0  0  0
  9 10  1  0  0  0
 10 11  1  0  0  0
 11 12  2  0  0  0
 12 13  1  0  0  0
 13 14  2  0  0  0
 14 15  1  0  0  0
 14 16  1  0  0  0
 30 31  1  0  0  0
 31 32  2  0  0  0
 31 33  1  0  0  0
 33 36  1  0  0  0
 36 37  2  0  0  0
 37 38  1  0  0  0
 38 39  2  0  0  0
 39 40  1  0  0  0
 40 41  1  0  0  0
 40 42  2  0  0  0
 33 34  1  0  0  0
 34 35  2  0  0  0
 34 28  1  0  0  0
  6  1  1  0  0  0
 16  7  2  0  0  0
 42 36  1  0  0  0
 16 10  1  0  0  0
 26 27  1  0  0  0
 15 17  1  0  0  0
 15 18  1  0  0  0
M  END
> <minimizedAffinity>
-8.34361

> <CNNscore>
0.0902416930

> <CNNaffinity>
6.3391532898

> <CNN_VS>
0.5720559359

> <CNNaffinity_variance>
0.6741502881

$$$$
[H]OC(C([H])([H])[H])(C([H])([H])[H])C1([H])C([H])([H])C([H])([H])N(C([H])([H])c2c([H])c([H])c3nc(N([H])C(=O)c4c([H])c([H])c(F)c([H])c4[H])n([C@]4([H])C([H])([H])C([H])([H])[C@]([H])(C(=O)N([H])C([H])(C([H])([H])[H])C([H])([H])[H])C([H])([H])C4([H])[H])c3c2[H])C([H])([H])C1([H])[H]


 45 49  0  0  0  0  0  0  0  0999 V2000
    4.6597    4.2229   16.7035 N   0  0  0  0  0  0  0  0  0  0  0  0
    4.5317    3.1540   17.4630 C   0  0  0  0  0  0  0  0  0  0  0  0
    3.8725    2.1707   16.7559 N   0  0  0  0  0  0  0  0  0  0  0  0
    3.5905    2.6254   15.5545 C   0  0  0  0  0  0  0  0  0  0  0  0
    2.9475    2.0351   14.4834 C   0  0  0  0  0  0  0  0  0  0  0  0
    2.7994    2.7897   13.3179 C   0  0  0  0  0  0  0  0  0  0  0  0
    3.2633    4.0649   13.2109 C   0  0  0  0  0  0  0  0  0  0  0  0
    3.9087    4.6057   14.3380 C   0  0  0  0  0  0  0  0  0  0  0  0
    4.0794    3.9114   15.5065 C   0  0  0  0  0  0  0  0  0  0  0  0
    5.5825    7.3833   19.2020 C   0  0  0  0  0  0  0  0  0  0  0  0
    6.4186    6.1347   19.1032 C   0  0  0  0  0  0  0  0  0  0  0  0
    6.4619    5.6607   17.7015 C   0  0  0  0  0  0  0  0  0  0  0  0
    5.2136    5.4768   16.9358 C   0  0  0  0  0  0  0  0  0  0  0  0
    4.3039    6.5905   17.3119 C   0  0  0  0  0  0  0  0  0  0  0  0
    4.1751    6.8807   18.7925 C   0  0  0  0  0  0  0  0  0  0  0  0
    6.3444    9.0318   20.9418 N   0  0  0  0  0  0  0  0  0  0  0  0
    5.5510    7.9315   20.5671 C   0  0  0  0  0  0  0  0  0  0  0  0
    4.7723    7.3690   21.4062 O   0  0  0  0  0  0  0  0  0  0  0  0
    6.9718    9.4617   20.2166 H   0  0  0  0  0  0  0  0  0  0  0  0
    6.9231   11.0549   22.0522 C   0  0  0  0  0  0  0  0  0  0  0  0
    6.3786    9.6333   22.2438 C   0  0  0  0  0  0  0  0  0  0  0  0
    7.3770    8.9106   23.1216 C   0  0  0  0  0  0  0  0  0  0  0  0
    4.9380    2.8260   18.7618 N   0  0  0  0  0  0  0  0  0  0  0  0
    4.3467    3.3784   19.9122 C   0  0  0  0  0  0  0  0  0  0  0  0
    3.4099    4.2270   19.8509 O   0  0  0  0  0  0  0  0  0  0  0  0
    5.6908    2.1441   18.9197 H   0  0  0  0  0  0  0  0  0  0  0  0
    4.7991    2.9851   21.2363 C   0  0  0  0  0  0  0  0  0  0  0  0
    4.1323    3.4027   22.3719 C   0  0  0  0  0  0  0  0  0  0  0  0
    4.5353    3.0506   23.6300 C   0  0  0  0  0  0  0  0  0  0  0  0
    5.6375    2.2531   23.8481 C   0  0  0  0  0  0  0  0  0  0  0  0
    6.0603    1.8877   25.0827 F   0  0  0  0  0  0  0  0  0  0  0  0
    6.3006    1.8391   22.7019 C   0  0  0  0  0  0  0  0  0  0  0  0
    5.9185    2.1769   21.4292 C   0  0  0  0  0  0  0  0  0  0  0  0
    3.0973    4.8729   11.9890 C   0  0  0  0  0  0  0  0  0  0  0  0
    2.8334    6.2427   12.1514 N   0  0  0  0  0  0  0  0  0  0  0  0
    2.2477    6.6997   13.3548 C   0  0  0  0  0  0  0  0  0  0  0  0
    2.7204    8.1342   13.6985 C   0  0  0  0  0  0  0  0  0  0  0  0
    4.2489    7.9855   13.7515 C   0  0  0  0  0  0  0  0  0  0  0  0
    4.7241    7.8325   12.3476 C   0  0  0  0  0  0  0  0  0  0  0  0
    3.6534    7.1818   11.4662 C   0  0  0  0  0  0  0  0  0  0  0  0
    4.8003    9.1459   14.5058 C   0  0  0  0  0  0  0  0  0  0  0  0
    6.0973    8.8229   15.2134 C   0  0  0  0  0  0  0  0  0  0  0  0
    3.7942    9.7491   15.4632 C   0  0  0  0  0  0  0  0  0  0  0  0
    5.0993   10.1574   13.5661 O   0  0  0  0  0  0  0  0  0  0  0  0
    4.3026   10.4450   13.0637 H   0  0  0  0  0  0  0  0  0  0  0  0
 20 21  1  0  0  0
 21 22  1  0  0  0
 21 16  1  0  0  0
 16 17  1  0  0  0
 17 18  2  0  0  0
 17 10  1  0  0  0
 10 11  1  0  0  0
 11 12  1  0  0  0
 12 13  1  0  0  0
 13 14  1  0  0  0
 14 15  1  0  0  0
 13  1  1  0  0  0
  1  2  1  0  0  0
  2 23  1  0  0  0
 23 24  1  0  0  0
 24 25  2  0  0  0
 24 27  1  0  0  0
 27 28  2  0  0  0
 28 29  1  0  0  0
 29 30  2  0  0  0
 30 31  1  0  0  0
 30 32  1  0  0  0
 32 33  2  0  0  0
  2  3  2  0  0  0
  3  4  1  0  0  0
  4  5  2  0  0  0
  5  6  1  0  0  0
  6  7  2  0  0  0
  7 34  1  0  0  0
 34 35  1  0  0  0
 35 36  1  0  0  0
 36 37  1  0  0  0
 37 38  1  0  0  0
 38 39  1  0  0  0
 39 40  1  0  0  0
 38 41  1  0  0  0
 41 42  1  0  0  0
 41 43  1  0  0  0
 41 44  1  0  0  0
  7  8  1  0  0  0
  8  9  2  0  0  0
 15 10  1  0  0  0
  9  1  1  0  0  0
 33 27  1  0  0  0
  9  4  1  0  0  0
 40 35  1  0  0  0
 16 19  1  0  0  0
 23 26  1  0  0  0
 44 45  1  0  0  0
M  END
> <minimizedAffinity>
-9.96712

> <CNNscore>
0.2766280174

> <CNNaffinity>
6.8077025414

> <CNN_VS>
1.8832012415

> <CNNaffinity_variance>
0.4166173041

$$$$
[H]OC(C([H])([H])[H])(C([H])([H])[H])C1([H])C([H])([H])C([H])([H])N(C([H])([H])c2c([H])c([H])c3nc(N([H])C(=O)c4c([H])c([H])c(F)c([H])c4[H])n([C@]4([H])C([H])([H])C([H])([H])[C@]([H])(C(=O)N([H])C([H])(C([H])([H])[H])C([H])([H])[H])C([H])([H])C4([H])[H])c3c2[H])C([H])([H])C1([H])[H]


 45 49  0  0  0  0  0  0  0  0999 V2000
    5.0703    4.9349   21.3257 N   0  0  0  0  0  0  0  0  0  0  0  0
    6.0371    5.0255   22.2161 C   0  0  0  0  0  0  0  0  0  0  0  0
    6.5422    3.7674   22.4677 N   0  0  0  0  0  0  0  0  0  0  0  0
    5.8916    2.8917   21.7332 C   0  0  0  0  0  0  0  0  0  0  0  0
    6.0189    1.5203   21.6220 C   0  0  0  0  0  0  0  0  0  0  0  0
    5.1660    0.8580   20.7368 C   0  0  0  0  0  0  0  0  0  0  0  0
    4.2326    1.5144   19.9946 C   0  0  0  0  0  0  0  0  0  0  0  0
    4.1559    2.9100   20.1553 C   0  0  0  0  0  0  0  0  0  0  0  0
    4.9657    3.6097   21.0104 C   0  0  0  0  0  0  0  0  0  0  0  0
    3.9539    7.3849   18.1899 C   0  0  0  0  0  0  0  0  0  0  0  0
    3.5902    5.9258   18.2704 C   0  0  0  0  0  0  0  0  0  0  0  0
    3.2848    5.5539   19.6703 C   0  0  0  0  0  0  0  0  0  0  0  0
    4.2302    5.8842   20.7546 C   0  0  0  0  0  0  0  0  0  0  0  0
    4.7883    7.2281   20.4515 C   0  0  0  0  0  0  0  0  0  0  0  0
    5.2546    7.4557   19.0290 C   0  0  0  0  0  0  0  0  0  0  0  0
    3.4964    8.8831   16.2223 N   0  0  0  0  0  0  0  0  0  0  0  0
    4.2131    7.8237   16.8095 C   0  0  0  0  0  0  0  0  0  0  0  0
    5.1182    7.2044   16.1583 O   0  0  0  0  0  0  0  0  0  0  0  0
    2.7590    9.3627   16.7971 H   0  0  0  0  0  0  0  0  0  0  0  0
    3.4023   10.8872   14.9435 C   0  0  0  0  0  0  0  0  0  0  0  0
    3.6804    9.3793   14.8889 C   0  0  0  0  0  0  0  0  0  0  0  0
    2.6360    8.7876   13.9678 C   0  0  0  0  0  0  0  0  0  0  0  0
    6.6410    6.0903   22.8953 N   0  0  0  0  0  0  0  0  0  0  0  0
    7.7264    6.8158   22.3724 C   0  0  0  0  0  0  0  0  0  0  0  0
    8.2446    6.5441   21.2503 O   0  0  0  0  0  0  0  0  0  0  0  0
    6.2926    6.3915   23.8143 H   0  0  0  0  0  0  0  0  0  0  0  0
    8.3005    7.9245   23.1165 C   0  0  0  0  0  0  0  0  0  0  0  0
    7.7250    8.3704   24.2907 C   0  0  0  0  0  0  0  0  0  0  0  0
    8.2410    9.4116   25.0110 C   0  0  0  0  0  0  0  0  0  0  0  0
    9.3734   10.0869   24.6108 C   0  0  0  0  0  0  0  0  0  0  0  0
    9.9078   11.1217   25.3039 F   0  0  0  0  0  0  0  0  0  0  0  0
    9.9438    9.6323   23.4307 C   0  0  0  0  0  0  0  0  0  0  0  0
    9.4477    8.5912   22.6891 C   0  0  0  0  0  0  0  0  0  0  0  0
    3.3187    0.8202   19.0693 C   0  0  0  0  0  0  0  0  0  0  0  0
    3.6360    0.8538   17.7017 N   0  0  0  0  0  0  0  0  0  0  0  0
    2.5950    0.8130   16.7454 C   0  0  0  0  0  0  0  0  0  0  0  0
    2.9772    1.5998   15.4670 C   0  0  0  0  0  0  0  0  0  0  0  0
    3.2865    3.0033   16.0110 C   0  0  0  0  0  0  0  0  0  0  0  0
    4.5924    2.9201   16.7236 C   0  0  0  0  0  0  0  0  0  0  0  0
    4.8263    1.5174   17.2931 C   0  0  0  0  0  0  0  0  0  0  0  0
    3.2219    3.9641   14.8741 C   0  0  0  0  0  0  0  0  0  0  0  0
    2.1157    4.9835   15.0296 C   0  0  0  0  0  0  0  0  0  0  0  0
    3.1379    3.2712   13.5304 C   0  0  0  0  0  0  0  0  0  0  0  0
    4.4344    4.6890   14.8639 O   0  0  0  0  0  0  0  0  0  0  0  0
    5.2170    4.1023   14.7498 H   0  0  0  0  0  0  0  0  0  0  0  0
 20 21  1  0  0  0
 21 22  1  0  0  0
 21 16  1  0  0  0
 16 17  1  0  0  0
 17 18  2  0  0  0
 17 10  1  0  0  0
 10 11  1  0  0  0
 11 12  1  0  0  0
 12 13  1  0  0  0
 13 14  1  0  0  0
 14 15  1  0  0  0
 13  1  1  0  0  0
  1  2  1  0  0  0
  2 23  1  0  0  0
 23 24  1  0  0  0
 24 25  2  0  0  0
 24 27  1  0  0  0
 27 28  2  0  0  0
 28 29  1  0  0  0
 29 30  2  0  0  0
 30 31  1  0  0  0
 30 32  1  0  0  0
 32 33  2  0  0  0
  2  3  2  0  0  0
  3  4  1  0  0  0
  4  5  2  0  0  0
  5  6  1  0  0  0
  6  7  2  0  0  0
  7 34  1  0  0  0
 34 35  1  0  0  0
 35 36  1  0  0  0
 36 37  1  0  0  0
 37 38  1  0  0  0
 38 39  1  0  0  0
 39 40  1  0  0  0
 38 41  1  0  0  0
 41 42  1  0  0  0
 41 43  1  0  0  0
 41 44  1  0  0  0
  7  8  1  0  0  0
  8  9  2  0  0  0
 15 10  1  0  0  0
  9  1  1  0  0  0
 33 27  1  0  0  0
  9  4  1  0  0  0
 40 35  1  0  0  0
 16 19  1  0  0  0
 23 26  1  0  0  0
 44 45  1  0  0  0
M  END
> <minimizedAffinity>
-10.40055

> <CNNscore>
0.2040811628

> <CNNaffinity>
6.9535036087

> <CNN_VS>
1.4190790653

> <CNNaffinity_variance>
0.3424119353

$$$$
[H]OC(C([H])([H])[H])(C([H])([H])[H])C1([H])C([H])([H])C([H])([H])N(C([H])([H])c2c([H])c([H])c3nc(N([H])C(=O)c4c([H])c([H])c(F)c([H])c4[H])n([C@]4([H])C([H])([H])C([H])([H])[C@]([H])(C(=O)N([H])C([H])(C([H])([H])[H])C([H])([H])[H])C([H])([H])C4([H])[H])c3c2[H])C([H])([H])C1([H])[H]


 45 49  0  0  0  0  0  0  0  0999 V2000
    2.7365    4.9178   14.6132 N   0  0  0  0  0  0  0  0  0  0  0  0
    3.0827    5.9452   15.3618 C   0  0  0  0  0  0  0  0  0  0  0  0
    2.5605    7.0998   14.8181 N   0  0  0  0  0  0  0  0  0  0  0  0
    1.8869    6.7928   13.7310 C   0  0  0  0  0  0  0  0  0  0  0  0
    1.1857    7.5814   12.8391 C   0  0  0  0  0  0  0  0  0  0  0  0
    0.5629    6.9482   11.7618 C   0  0  0  0  0  0  0  0  0  0  0  0
    0.6259    5.6018   11.5716 C   0  0  0  0  0  0  0  0  0  0  0  0
    1.3555    4.8575   12.5167 C   0  0  0  0  0  0  0  0  0  0  0  0
    1.9874    5.4271   13.5904 C   0  0  0  0  0  0  0  0  0  0  0  0
    3.4307    1.4802   16.8000 C   0  0  0  0  0  0  0  0  0  0  0  0
    2.0518    2.0044   16.4974 C   0  0  0  0  0  0  0  0  0  0  0  0
    2.0107    2.5688   15.1296 C   0  0  0  0  0  0  0  0  0  0  0  0
    3.0172    3.5588   14.6991 C   0  0  0  0  0  0  0  0  0  0  0  0
    4.3168    3.1434   15.2888 C   0  0  0  0  0  0  0  0  0  0  0  0
    4.2976    2.7636   16.7544 C   0  0  0  0  0  0  0  0  0  0  0  0
    4.4024    1.3262   19.1147 N   0  0  0  0  0  0  0  0  0  0  0  0
    3.5146    0.8551   18.1295 C   0  0  0  0  0  0  0  0  0  0  0  0
    2.7474   -0.1377   18.3593 O   0  0  0  0  0  0  0  0  0  0  0  0
    5.0160    2.1461   18.8791 H   0  0  0  0  0  0  0  0  0  0  0  0
    3.5771    1.5533   21.3345 C   0  0  0  0  0  0  0  0  0  0  0  0
    4.5519    0.7832   20.4341 C   0  0  0  0  0  0  0  0  0  0  0  0
    5.9396    1.0775   20.9606 C   0  0  0  0  0  0  0  0  0  0  0  0
    3.8082    6.0852   16.5508 N   0  0  0  0  0  0  0  0  0  0  0  0
    3.2956    5.7206   17.8087 C   0  0  0  0  0  0  0  0  0  0  0  0
    2.1294    5.2514   17.9544 O   0  0  0  0  0  0  0  0  0  0  0  0
    4.7671    6.4553   16.5399 H   0  0  0  0  0  0  0  0  0  0  0  0
    4.1036    5.8721   19.0073 C   0  0  0  0  0  0  0  0  0  0  0  0
    4.6924    4.7795   19.6142 C   0  0  0  0  0  0  0  0  0  0  0  0
    5.4558    4.8908   20.7430 C   0  0  0  0  0  0  0  0  0  0  0  0
    5.6884    6.1049   21.3513 C   0  0  0  0  0  0  0  0  0  0  0  0
    6.4406    6.2460   22.4699 F   0  0  0  0  0  0  0  0  0  0  0  0
    5.0928    7.1959   20.7350 C   0  0  0  0  0  0  0  0  0  0  0  0
    4.3232    7.1130   19.6033 C   0  0  0  0  0  0  0  0  0  0  0  0
   -0.0163    4.9279   10.4285 C   0  0  0  0  0  0  0  0  0  0  0  0
   -1.2915    4.3775   10.6364 N   0  0  0  0  0  0  0  0  0  0  0  0
   -2.0970    4.8684   11.6901 C   0  0  0  0  0  0  0  0  0  0  0  0
   -3.6019    4.7758   11.3348 C   0  0  0  0  0  0  0  0  0  0  0  0
   -3.6947    5.5862   10.0325 C   0  0  0  0  0  0  0  0  0  0  0  0
   -3.0730    4.7626    8.9577 C   0  0  0  0  0  0  0  0  0  0  0  0
   -1.9915    3.8364    9.5224 C   0  0  0  0  0  0  0  0  0  0  0  0
   -5.1205    5.9647    9.8245 C   0  0  0  0  0  0  0  0  0  0  0  0
   -5.2943    7.0459    8.7814 C   0  0  0  0  0  0  0  0  0  0  0  0
   -5.8183    6.3375   11.1155 C   0  0  0  0  0  0  0  0  0  0  0  0
   -5.7934    4.8239    9.3330 O   0  0  0  0  0  0  0  0  0  0  0  0
   -5.7463    4.0660    9.9600 H   0  0  0  0  0  0  0  0  0  0  0  0
 20 21  1  0  0  0
 21 22  1  0  0  0
 21 16  1  0  0  0
 16 17  1  0  0  0
 17 18  2  0  0  0
 17 10  1  0  0  0
 10 11  1  0  0  0
 11 12  1  0  0  0
 12 13  1  0  0  0
 13 14  1  0  0  0
 14 15  1  0  0  0
 13  1  1  0  0  0
  1  2  1  0  0  0
  2 23  1  0  0  0
 23 24  1  0  0  0
 24 25  2  0  0  0
 24 27  1  0  0  0
 27 28  2  0  0  0
 28 29  1  0  0  0
 29 30  2  0  0  0
 30 31  1  0  0  0
 30 32  1  0  0  0
 32 33  2  0  0  0
  2  3  2  0  0  0
  3  4  1  0  0  0
  4  5  2  0  0  0
  5  6  1  0  0  0
  6  7  2  0  0  0
  7 34  1  0  0  0
 34 35  1  0  0  0
 35 36  1  0  0  0
 36 37  1  0  0  0
 37 38  1  0  0  0
 38 39  1  0  0  0
 39 40  1  0  0  0
 38 41  1  0  0  0
 41 42  1  0  0  0
 41 43  1  0  0  0
 41 44  1  0  0  0
  7  8  1  0  0  0
  8  9  2  0  0  0
 15 10  1  0  0  0
  9  1  1  0  0  0
 33 27  1  0  0  0
  9  4  1  0  0  0
 40 35  1  0  0  0
 16 19  1  0  0  0
 23 26  1  0  0  0
 44 45  1  0  0  0
M  END
> <minimizedAffinity>
-9.41128

> <CNNscore>
0.1986040026

> <CNNaffinity>
6.6993865967

> <CNN_VS>
1.3305250406

> <CNNaffinity_variance>
0.1788754761

$$$$
[H]OC(C([H])([H])[H])(C([H])([H])[H])C1([H])C([H])([H])C([H])([H])N(C([H])([H])c2c([H])c([H])c3nc(N([H])C(=O)c4c([H])c([H])c(F)c([H])c4[H])n([C@]4([H])C([H])([H])C([H])([H])[C@]([H])(C(=O)N([H])C([H])(C([H])([H])[H])C([H])([H])[H])C([H])([H])C4([H])[H])c3c2[H])C([H])([H])C1([H])[H]


 45 49  0  0  0  0  0  0  0  0999 V2000
    3.4942    5.6118   15.1639 N   0  0  0  0  0  0  0  0  0  0  0  0
    4.1202    6.4560   15.9583 C   0  0  0  0  0  0  0  0  0  0  0  0
    3.8654    7.7457   15.5420 N   0  0  0  0  0  0  0  0  0  0  0  0
    3.0790    7.7063   14.4886 C   0  0  0  0  0  0  0  0  0  0  0  0
    2.5427    8.7158   13.7123 C   0  0  0  0  0  0  0  0  0  0  0  0
    1.7267    8.3480   12.6407 C   0  0  0  0  0  0  0  0  0  0  0  0
    1.4500    7.0478   12.3474 C   0  0  0  0  0  0  0  0  0  0  0  0
    2.0274    6.0698   13.1777 C   0  0  0  0  0  0  0  0  0  0  0  0
    2.8365    6.3741   14.2403 C   0  0  0  0  0  0  0  0  0  0  0  0
    3.5690    1.9214   17.0232 C   0  0  0  0  0  0  0  0  0  0  0  0
    2.3358    2.7817   16.9404 C   0  0  0  0  0  0  0  0  0  0  0  0
    2.2779    3.4631   15.6275 C   0  0  0  0  0  0  0  0  0  0  0  0
    3.4404    4.2230   15.1279 C   0  0  0  0  0  0  0  0  0  0  0  0
    4.6570    3.4603   15.5120 C   0  0  0  0  0  0  0  0  0  0  0  0
    4.7135    2.9627   16.9410 C   0  0  0  0  0  0  0  0  0  0  0  0
    4.5022    1.5766   19.3331 N   0  0  0  0  0  0  0  0  0  0  0  0
    3.6488    1.1747   18.2886 C   0  0  0  0  0  0  0  0  0  0  0  0
    2.9107    0.1412   18.4063 O   0  0  0  0  0  0  0  0  0  0  0  0
    5.0927    2.4340   19.1900 H   0  0  0  0  0  0  0  0  0  0  0  0
    3.6978    1.6277   21.5716 C   0  0  0  0  0  0  0  0  0  0  0  0
    4.6451    0.9146   20.5978 C   0  0  0  0  0  0  0  0  0  0  0  0
    6.0437    1.1233   21.1360 C   0  0  0  0  0  0  0  0  0  0  0  0
    4.9219    6.3123   17.0969 N   0  0  0  0  0  0  0  0  0  0  0  0
    4.3981    6.0430   18.3740 C   0  0  0  0  0  0  0  0  0  0  0  0
    3.1559    5.9260   18.5853 O   0  0  0  0  0  0  0  0  0  0  0  0
    5.9450    6.3874   17.0311 H   0  0  0  0  0  0  0  0  0  0  0  0
    5.2824    5.8857   19.5167 C   0  0  0  0  0  0  0  0  0  0  0  0
    6.3839    6.7024   19.6847 C   0  0  0  0  0  0  0  0  0  0  0  0
    7.2344    6.5770   20.7480 C   0  0  0  0  0  0  0  0  0  0  0  0
    7.0473    5.6237   21.7250 C   0  0  0  0  0  0  0  0  0  0  0  0
    7.8728    5.4760   22.7897 F   0  0  0  0  0  0  0  0  0  0  0  0
    5.9391    4.8083   21.5474 C   0  0  0  0  0  0  0  0  0  0  0  0
    5.0704    4.9121   20.4916 C   0  0  0  0  0  0  0  0  0  0  0  0
    0.6017    6.6513   11.2088 C   0  0  0  0  0  0  0  0  0  0  0  0
    1.2499    6.2533   10.0283 N   0  0  0  0  0  0  0  0  0  0  0  0
    1.1424    4.9114    9.5949 C   0  0  0  0  0  0  0  0  0  0  0  0
    1.1946    4.8156    8.0498 C   0  0  0  0  0  0  0  0  0  0  0  0
    0.0316    5.7201    7.6132 C   0  0  0  0  0  0  0  0  0  0  0  0
    0.4579    7.1282    7.8493 C   0  0  0  0  0  0  0  0  0  0  0  0
    1.4591    7.2194    9.0052 C   0  0  0  0  0  0  0  0  0  0  0  0
   -0.3233    5.3711    6.2090 C   0  0  0  0  0  0  0  0  0  0  0  0
   -1.6161    6.0108    5.7542 C   0  0  0  0  0  0  0  0  0  0  0  0
   -0.3421    3.8764    5.9676 C   0  0  0  0  0  0  0  0  0  0  0  0
    0.6930    5.8880    5.3750 O   0  0  0  0  0  0  0  0  0  0  0  0
    1.5772    5.5117    5.5901 H   0  0  0  0  0  0  0  0  0  0  0  0
 20 21  1  0  0  0
 21 22  1  0  0  0
 21 16  1  0  0  0
 16 17  1  0  0  0
 17 18  2  0  0  0
 17 10  1  0  0  0
 10 11  1  0  0  0
 11 12  1  0  0  0
 12 13  1  0  0  0
 13 14  1  0  0  0
 14 15  1  0  0  0
 13  1  1  0  0  0
  1  2  1  0  0  0
  2 23  1  0  0  0
 23 24  1  0  0  0
 24 25  2  0  0  0
 24 27  1  0  0  0
 27 28  2  0  0  0
 28 29  1  0  0  0
 29 30  2  0  0  0
 30 31  1  0  0  0
 30 32  1  0  0  0
 32 33  2  0  0  0
  2  3  2  0  0  0
  3  4  1  0  0  0
  4  5  2  0  0  0
  5  6  1  0  0  0
  6  7  2  0  0  0
  7 34  1  0  0  0
 34 35  1  0  0  0
 35 36  1  0  0  0
 36 37  1  0  0  0
 37 38  1  0  0  0
 38 39  1  0  0  0
 39 40  1  0  0  0
 38 41  1  0  0  0
 41 42  1  0  0  0
 41 43  1  0  0  0
 41 44  1  0  0  0
  7  8  1  0  0  0
  8  9  2  0  0  0
 15 10  1  0  0  0
  9  1  1  0  0  0
 33 27  1  0  0  0
  9  4  1  0  0  0
 40 35  1  0  0  0
 16 19  1  0  0  0
 23 26  1  0  0  0
 44 45  1  0  0  0
M  END
> <minimizedAffinity>
-7.83795

> <CNNscore>
0.1230938360

> <CNNaffinity>
6.3878865242

> <CNN_VS>
0.7863094807

> <CNNaffinity_variance>
0.2348838300

$$$$
[H]OC(C([H])([H])[H])(C([H])([H])[H])C1([H])C([H])([H])C([H])([H])N(C([H])([H])c2c([H])c([H])c3nc(N([H])C(=O)c4c([H])c([H])c(F)c([H])c4[H])n([C@]4([H])C([H])([H])C([H])([H])[C@]([H])(C(=O)N([H])C([H])(C([H])([H])[H])C([H])([H])[H])C([H])([H])C4([H])[H])c3c2[H])C([H])([H])C1([H])[H]


 45 49  0  0  0  0  0  0  0  0999 V2000
    4.9701    6.7279   17.2116 N   0  0  0  0  0  0  0  0  0  0  0  0
    4.4625    7.1556   16.0734 C   0  0  0  0  0  0  0  0  0  0  0  0
    3.9285    8.4134   16.2585 N   0  0  0  0  0  0  0  0  0  0  0  0
    4.1043    8.7714   17.5117 C   0  0  0  0  0  0  0  0  0  0  0  0
    3.7546    9.9240   18.1888 C   0  0  0  0  0  0  0  0  0  0  0  0
    4.0865   10.0087   19.5424 C   0  0  0  0  0  0  0  0  0  0  0  0
    4.7334    9.0069   20.1988 C   0  0  0  0  0  0  0  0  0  0  0  0
    5.0608    7.8613   19.4506 C   0  0  0  0  0  0  0  0  0  0  0  0
    4.7576    7.7244   18.1218 C   0  0  0  0  0  0  0  0  0  0  0  0
    4.8755    2.9107   18.7933 C   0  0  0  0  0  0  0  0  0  0  0  0
    4.4952    3.2271   17.3710 C   0  0  0  0  0  0  0  0  0  0  0  0
    5.3835    4.2797   16.8287 C   0  0  0  0  0  0  0  0  0  0  0  0
    5.5918    5.5377   17.5719 C   0  0  0  0  0  0  0  0  0  0  0  0
    5.6577    5.1856   19.0145 C   0  0  0  0  0  0  0  0  0  0  0  0
    4.5862    4.2455   19.5252 C   0  0  0  0  0  0  0  0  0  0  0  0
    3.8955    1.6795   20.7552 N   0  0  0  0  0  0  0  0  0  0  0  0
    4.0594    1.8282   19.3653 C   0  0  0  0  0  0  0  0  0  0  0  0
    3.5010    1.0221   18.5497 O   0  0  0  0  0  0  0  0  0  0  0  0
    4.3760    2.3670   21.3883 H   0  0  0  0  0  0  0  0  0  0  0  0
    3.2073    0.9366   22.9081 C   0  0  0  0  0  0  0  0  0  0  0  0
    3.1206    0.6597   21.4015 C   0  0  0  0  0  0  0  0  0  0  0  0
    3.7598   -0.6939   21.1806 C   0  0  0  0  0  0  0  0  0  0  0  0
    4.3905    6.6288   14.7785 N   0  0  0  0  0  0  0  0  0  0  0  0
    3.2993    5.8693   14.3197 C   0  0  0  0  0  0  0  0  0  0  0  0
    2.3075    5.5957   15.0564 O   0  0  0  0  0  0  0  0  0  0  0  0
    5.1454    6.7962   14.1012 H   0  0  0  0  0  0  0  0  0  0  0  0
    3.2725    5.3637   12.9573 C   0  0  0  0  0  0  0  0  0  0  0  0
    4.3388    4.6557   12.4373 C   0  0  0  0  0  0  0  0  0  0  0  0
    4.3429    4.1696   11.1594 C   0  0  0  0  0  0  0  0  0  0  0  0
    3.2794    4.3553   10.3034 C   0  0  0  0  0  0  0  0  0  0  0  0
    3.2549    3.8851    9.0325 F   0  0  0  0  0  0  0  0  0  0  0  0
    2.2137    5.0675   10.8343 C   0  0  0  0  0  0  0  0  0  0  0  0
    2.1831    5.5657   12.1113 C   0  0  0  0  0  0  0  0  0  0  0  0
    5.0737    9.0829   21.6312 C   0  0  0  0  0  0  0  0  0  0  0  0
    6.4139    9.3384   21.9640 N   0  0  0  0  0  0  0  0  0  0  0  0
    6.8474    9.1490   23.2967 C   0  0  0  0  0  0  0  0  0  0  0  0
    8.3330    8.7130   23.3461 C   0  0  0  0  0  0  0  0  0  0  0  0
    8.3426    7.4390   22.4869 C   0  0  0  0  0  0  0  0  0  0  0  0
    8.1937    7.8658   21.0672 C   0  0  0  0  0  0  0  0  0  0  0  0
    7.4092    9.1772   20.9603 C   0  0  0  0  0  0  0  0  0  0  0  0
    9.5769    6.6710   22.8130 C   0  0  0  0  0  0  0  0  0  0  0  0
    9.8329    6.5759   24.3005 C   0  0  0  0  0  0  0  0  0  0  0  0
   10.7969    7.1928   22.0836 C   0  0  0  0  0  0  0  0  0  0  0  0
    9.3851    5.3484   22.3554 O   0  0  0  0  0  0  0  0  0  0  0  0
    9.2256    5.3107   21.3843 H   0  0  0  0  0  0  0  0  0  0  0  0
 20 21  1  0  0  0
 21 22  1  0  0  0
 21 16  1  0  0  0
 16 17  1  0  0  0
 17 18  2  0  0  0
 17 10  1  0  0  0
 10 11  1  0  0  0
 11 12  1  0  0  0
 12 13  1  0  0  0
 13 14  1  0  0  0
 14 15  1  0  0  0
 13  1  1  0  0  0
  1  2  1  0  0  0
  2 23  1  0  0  0
 23 24  1  0  0  0
 24 25  2  0  0  0
 24 27  1  0  0  0
 27 28  2  0  0  0
 28 29  1  0  0  0
 29 30  2  0  0  0
 30 31  1  0  0  0
 30 32  1  0  0  0
 32 33  2  0  0  0
  2  3  2  0  0  0
  3  4  1  0  0  0
  4  5  2  0  0  0
  5  6  1  0  0  0
  6  7  2  0  0  0
  7 34  1  0  0  0
 34 35  1  0  0  0
 35 36  1  0  0  0
 36 37  1  0  0  0
 37 38  1  0  0  0
 38 39  1  0  0  0
 39 40  1  0  0  0
 38 41  1  0  0  0
 41 42  1  0  0  0
 41 43  1  0  0  0
 41 44  1  0  0  0
  7  8  1  0  0  0
  8  9  2  0  0  0
 15 10  1  0  0  0
  9  1  1  0  0  0
 33 27  1  0  0  0
  9  4  1  0  0  0
 40 35  1  0  0  0
 16 19  1  0  0  0
 23 26  1  0  0  0
 44 45  1  0  0  0
M  END
> <minimizedAffinity>
-9.49227

> <CNNscore>
0.1153788194

> <CNNaffinity>
6.8316984177

> <CNN_VS>
0.7882332802

> <CNNaffinity_variance>
0.1538050175

$$$$
[H]OC(C([H])([H])[H])(C([H])([H])[H])C1([H])C([H])([H])C([H])([H])N(C([H])([H])c2c([H])c([H])c3nc(N([H])C(=O)c4c([H])c([H])c(F)c([H])c4[H])n([C@]4([H])C([H])([H])C([H])([H])[C@]([H])(C(=O)N([H])C([H])(C([H])([H])[H])C([H])([H])[H])C([H])([H])C4([H])[H])c3c2[H])C([H])([H])C1([H])[H]


 45 49  0  0  0  0  0  0  0  0999 V2000
    3.7689    5.4547   16.7326 N   0  0  0  0  0  0  0  0  0  0  0  0
    3.3358    4.4308   17.4398 C   0  0  0  0  0  0  0  0  0  0  0  0
    2.5892    3.6022   16.6291 N   0  0  0  0  0  0  0  0  0  0  0  0
    2.5575    4.1081   15.4155 C   0  0  0  0  0  0  0  0  0  0  0  0
    1.9508    3.6623   14.2569 C   0  0  0  0  0  0  0  0  0  0  0  0
    2.1044    4.4349   13.1040 C   0  0  0  0  0  0  0  0  0  0  0  0
    2.8223    5.5913   13.0913 C   0  0  0  0  0  0  0  0  0  0  0  0
    3.4144    5.9879   14.3044 C   0  0  0  0  0  0  0  0  0  0  0  0
    3.2944    5.2698   15.4648 C   0  0  0  0  0  0  0  0  0  0  0  0
    5.9282    7.7025   19.4467 C   0  0  0  0  0  0  0  0  0  0  0  0
    6.5035    6.5266   18.7022 C   0  0  0  0  0  0  0  0  0  0  0  0
    5.9795    6.4947   17.3182 C   0  0  0  0  0  0  0  0  0  0  0  0
    4.5271    6.5710   17.0671 C   0  0  0  0  0  0  0  0  0  0  0  0
    3.9656    7.5363   18.0481 C   0  0  0  0  0  0  0  0  0  0  0  0
    4.4151    7.3708   19.4846 C   0  0  0  0  0  0  0  0  0  0  0  0
    7.6056    7.1094   21.2243 N   0  0  0  0  0  0  0  0  0  0  0  0
    6.4598    7.8160   20.8140 C   0  0  0  0  0  0  0  0  0  0  0  0
    5.8396    8.5844   21.6215 O   0  0  0  0  0  0  0  0  0  0  0  0
    8.0825    6.4872   20.5244 H   0  0  0  0  0  0  0  0  0  0  0  0
    9.3567    8.1577   22.4471 C   0  0  0  0  0  0  0  0  0  0  0  0
    8.1952    7.1587   22.5312 C   0  0  0  0  0  0  0  0  0  0  0  0
    8.8105    5.8191   22.8723 C   0  0  0  0  0  0  0  0  0  0  0  0
    3.5011    4.0239   18.7689 N   0  0  0  0  0  0  0  0  0  0  0  0
    4.5900    3.2466   19.2026 C   0  0  0  0  0  0  0  0  0  0  0  0
    5.4937    2.8466   18.4122 O   0  0  0  0  0  0  0  0  0  0  0  0
    2.8221    4.2987   19.4901 H   0  0  0  0  0  0  0  0  0  0  0  0
    4.7178    2.8697   20.6005 C   0  0  0  0  0  0  0  0  0  0  0  0
    5.5809    3.5410   21.4449 C   0  0  0  0  0  0  0  0  0  0  0  0
    5.7237    3.2081   22.7633 C   0  0  0  0  0  0  0  0  0  0  0  0
    5.0132    2.1769   23.3379 C   0  0  0  0  0  0  0  0  0  0  0  0
    5.1335    1.8245   24.6410 F   0  0  0  0  0  0  0  0  0  0  0  0
    4.1495    1.5086   22.4821 C   0  0  0  0  0  0  0  0  0  0  0  0
    3.9867    1.8214   21.1571 C   0  0  0  0  0  0  0  0  0  0  0  0
    2.9762    6.4200   11.8818 C   0  0  0  0  0  0  0  0  0  0  0  0
    1.8050    6.9078   11.2798 N   0  0  0  0  0  0  0  0  0  0  0  0
    1.1970    6.1662   10.2404 C   0  0  0  0  0  0  0  0  0  0  0  0
   -0.3397    6.3604   10.2382 C   0  0  0  0  0  0  0  0  0  0  0  0
   -0.7408    5.9178   11.6540 C   0  0  0  0  0  0  0  0  0  0  0  0
   -0.2962    6.9876   12.5910 C   0  0  0  0  0  0  0  0  0  0  0  0
    0.9317    7.7260   12.0491 C   0  0  0  0  0  0  0  0  0  0  0  0
   -2.2002    5.6183   11.6485 C   0  0  0  0  0  0  0  0  0  0  0  0
   -2.8173    5.7318   10.2725 C   0  0  0  0  0  0  0  0  0  0  0  0
   -2.9680    6.4448   12.6586 C   0  0  0  0  0  0  0  0  0  0  0  0
   -2.3569    4.2719   12.0466 O   0  0  0  0  0  0  0  0  0  0  0  0
   -1.9943    4.1062   12.9470 H   0  0  0  0  0  0  0  0  0  0  0  0
 20 21  1  0  0  0
 21 22  1  0  0  0
 21 16  1  0  0  0
 16 17  1  0  0  0
 17 18  2  0  0  0
 17 10  1  0  0  0
 10 11  1  0  0  0
 11 12  1  0  0  0
 12 13  1  0  0  0
 13 14  1  0  0  0
 14 15  1  0  0  0
 13  1  1  0  0  0
  1  2  1  0  0  0
  2 23  1  0  0  0
 23 24  1  0  0  0
 24 25  2  0  0  0
 24 27  1  0  0  0
 27 28  2  0  0  0
 28 29  1  0  0  0
 29 30  2  0  0  0
 30 31  1  0  0  0
 30 32  1  0  0  0
 32 33  2  0  0  0
  2  3  2  0  0  0
  3  4  1  0  0  0
  4  5  2  0  0  0
  5  6  1  0  0  0
  6  7  2  0  0  0
  7 34  1  0  0  0
 34 35  1  0  0  0
 35 36  1  0  0  0
 36 37  1  0  0  0
 37 38  1  0  0  0
 38 39  1  0  0  0
 39 40  1  0  0  0
 38 41  1  0  0  0
 41 42  1  0  0  0
 41 43  1  0  0  0
 41 44  1  0  0  0
  7  8  1  0  0  0
  8  9  2  0  0  0
 15 10  1  0  0  0
  9  1  1  0  0  0
 33 27  1  0  0  0
  9  4  1  0  0  0
 40 35  1  0  0  0
 16 19  1  0  0  0
 23 26  1  0  0  0
 44 45  1  0  0  0
M  END
> <minimizedAffinity>
-9.13485

> <CNNscore>
0.1083149537

> <CNNaffinity>
6.6559166908

> <CNN_VS>
0.7209352851

> <CNNaffinity_variance>
0.1129843742

$$$$
[H]OC(C([H])([H])[H])(C([H])([H])[H])C1([H])C([H])([H])C([H])([H])N(C([H])([H])c2c([H])c([H])c3nc(N([H])C(=O)c4c([H])c([H])c(F)c([H])c4[H])n([C@]4([H])C([H])([H])C([H])([H])[C@]([H])(C(=O)N([H])C([H])(C([H])([H])[H])C([H])([H])[H])C([H])([H])C4([H])[H])c3c2[H])C([H])([H])C1([H])[H]


 45 49  0  0  0  0  0  0  0  0999 V2000
    3.9561    5.9730   11.5014 N   0  0  0  0  0  0  0  0  0  0  0  0
    4.3910    4.8236   11.9763 C   0  0  0  0  0  0  0  0  0  0  0  0
    5.0115    4.1202   10.9656 N   0  0  0  0  0  0  0  0  0  0  0  0
    4.9653    4.8313    9.8602 C   0  0  0  0  0  0  0  0  0  0  0  0
    5.4403    4.5728    8.5887 C   0  0  0  0  0  0  0  0  0  0  0  0
    5.2341    5.5448    7.6078 C   0  0  0  0  0  0  0  0  0  0  0  0
    4.5919    6.7169    7.8660 C   0  0  0  0  0  0  0  0  0  0  0  0
    4.1339    6.9170    9.1812 C   0  0  0  0  0  0  0  0  0  0  0  0
    4.3071    5.9970   10.1812 C   0  0  0  0  0  0  0  0  0  0  0  0
    3.2715    8.6057   14.6129 C   0  0  0  0  0  0  0  0  0  0  0  0
    4.3272    8.8236   13.5614 C   0  0  0  0  0  0  0  0  0  0  0  0
    3.8324    8.3704   12.2419 C   0  0  0  0  0  0  0  0  0  0  0  0
    3.2535    7.0220   12.0836 C   0  0  0  0  0  0  0  0  0  0  0  0
    2.4571    6.7435   13.3074 C   0  0  0  0  0  0  0  0  0  0  0  0
    3.1237    7.0634   14.6288 C   0  0  0  0  0  0  0  0  0  0  0  0
    2.9632   10.0805   16.6267 N   0  0  0  0  0  0  0  0  0  0  0  0
    3.6896    9.0916   15.9374 C   0  0  0  0  0  0  0  0  0  0  0  0
    4.7430    8.5802   16.4432 O   0  0  0  0  0  0  0  0  0  0  0  0
    2.1024   10.4735   16.1697 H   0  0  0  0  0  0  0  0  0  0  0  0
    2.0706   11.4163   18.3816 C   0  0  0  0  0  0  0  0  0  0  0  0
    3.2926   10.6127   17.9176 C   0  0  0  0  0  0  0  0  0  0  0  0
    4.4303   11.6026   17.7942 C   0  0  0  0  0  0  0  0  0  0  0  0
    4.3770    4.2226   13.2405 N   0  0  0  0  0  0  0  0  0  0  0  0
    3.4103    3.2779   13.6292 C   0  0  0  0  0  0  0  0  0  0  0  0
    2.4716    2.9150   12.8621 O   0  0  0  0  0  0  0  0  0  0  0  0
    5.0986    4.4484   13.9369 H   0  0  0  0  0  0  0  0  0  0  0  0
    3.4578    2.6737   14.9503 C   0  0  0  0  0  0  0  0  0  0  0  0
    2.8011    1.4878   15.2170 C   0  0  0  0  0  0  0  0  0  0  0  0
    2.8262    0.8970   16.4497 C   0  0  0  0  0  0  0  0  0  0  0  0
    3.5109    1.4483   17.5107 C   0  0  0  0  0  0  0  0  0  0  0  0
    3.5540    0.8856   18.7429 F   0  0  0  0  0  0  0  0  0  0  0  0
    4.1667    2.6389   17.2332 C   0  0  0  0  0  0  0  0  0  0  0  0
    4.1583    3.2528   16.0072 C   0  0  0  0  0  0  0  0  0  0  0  0
    4.3573    7.7412    6.8321 C   0  0  0  0  0  0  0  0  0  0  0  0
    3.2729    7.5438    5.9618 N   0  0  0  0  0  0  0  0  0  0  0  0
    2.3123    6.5505    6.2624 C   0  0  0  0  0  0  0  0  0  0  0  0
    0.9099    6.9508    5.7403 C   0  0  0  0  0  0  0  0  0  0  0  0
    0.6637    8.3026    6.4283 C   0  0  0  0  0  0  0  0  0  0  0  0
    1.5399    9.3031    5.7565 C   0  0  0  0  0  0  0  0  0  0  0  0
    2.8042    8.6461    5.1941 C   0  0  0  0  0  0  0  0  0  0  0  0
   -0.7990    8.5822    6.3875 C   0  0  0  0  0  0  0  0  0  0  0  0
   -1.5835    7.7490    7.3762 C   0  0  0  0  0  0  0  0  0  0  0  0
   -1.3767    8.4586    4.9933 C   0  0  0  0  0  0  0  0  0  0  0  0
   -0.9825    9.9304    6.7674 O   0  0  0  0  0  0  0  0  0  0  0  0
   -0.5154   10.5532    6.1643 H   0  0  0  0  0  0  0  0  0  0  0  0
 20 21  1  0  0  0
 21 22  1  0  0  0
 21 16  1  0  0  0
 16 17  1  0  0  0
 17 18  2  0  0  0
 17 10  1  0  0  0
 10 11  1  0  0  0
 11 12  1  0  0  0
 12 13  1  0  0  0
 13 14  1  0  0  0
 14 15  1  0  0  0
 13  1  1  0  0  0
  1  2  1  0  0  0
  2 23  1  0  0  0
 23 24  1  0  0  0
 24 25  2  0  0  0
 24 27  1  0  0  0
 27 28  2  0  0  0
 28 29  1  0  0  0
 29 30  2  0  0  0
 30 31  1  0  0  0
 30 32  1  0  0  0
 32 33  2  0  0  0
  2  3  2  0  0  0
  3  4  1  0  0  0
  4  5  2  0  0  0
  5  6  1  0  0  0
  6  7  2  0  0  0
  7 34  1  0  0  0
 34 35  1  0  0  0
 35 36  1  0  0  0
 36 37  1  0  0  0
 37 38  1  0  0  0
 38 39  1  0  0  0
 39 40  1  0  0  0
 38 41  1  0  0  0
 41 42  1  0  0  0
 41 43  1  0  0  0
 41 44  1  0  0  0
  7  8  1  0  0  0
  8  9  2  0  0  0
 15 10  1  0  0  0
  9  1  1  0  0  0
 33 27  1  0  0  0
  9  4  1  0  0  0
 40 35  1  0  0  0
 16 19  1  0  0  0
 23 26  1  0  0  0
 44 45  1  0  0  0
M  END
> <minimizedAffinity>
-8.21006

> <CNNscore>
0.1037311256

> <CNNaffinity>
6.3315019608

> <CNN_VS>
0.6567738056

> <CNNaffinity_variance>
0.0938050225

$$$$
[H]OC(C([H])([H])[H])(C([H])([H])[H])C1([H])C([H])([H])C([H])([H])N(C([H])([H])c2c([H])c([H])c3nc(N([H])C(=O)c4c([H])c([H])c(F)c([H])c4[H])n([C@]4([H])C([H])([H])C([H])([H])[C@]([H])(C(=O)N([H])C([H])(C([H])([H])[H])C([H])([H])[H])C([H])([H])C4([H])[H])c3c2[H])C([H])([H])C1([H])[H]


 45 49  0  0  0  0  0  0  0  0999 V2000
    2.7894    6.3899   12.1688 N   0  0  0  0  0  0  0  0  0  0  0  0
    3.7303    5.6101   12.6612 C   0  0  0  0  0  0  0  0  0  0  0  0
    4.8055    5.5948   11.7981 N   0  0  0  0  0  0  0  0  0  0  0  0
    4.5364    6.3665   10.7677 C   0  0  0  0  0  0  0  0  0  0  0  0
    5.2784    6.6815    9.6455 C   0  0  0  0  0  0  0  0  0  0  0  0
    4.7082    7.5489    8.7116 C   0  0  0  0  0  0  0  0  0  0  0  0
    3.4666    8.0824    8.8748 C   0  0  0  0  0  0  0  0  0  0  0  0
    2.7650    7.7210   10.0395 C   0  0  0  0  0  0  0  0  0  0  0  0
    3.2753    6.8732   10.9868 C   0  0  0  0  0  0  0  0  0  0  0  0
   -1.3247    6.0103   12.0598 C   0  0  0  0  0  0  0  0  0  0  0  0
   -0.4251    5.0596   12.8045 C   0  0  0  0  0  0  0  0  0  0  0  0
    0.6957    5.8006   13.4258 C   0  0  0  0  0  0  0  0  0  0  0  0
    1.5180    6.7248   12.6208 C   0  0  0  0  0  0  0  0  0  0  0  0
    0.5985    7.4233   11.6849 C   0  0  0  0  0  0  0  0  0  0  0  0
   -0.3947    6.5521   10.9450 C   0  0  0  0  0  0  0  0  0  0  0  0
   -3.7811    5.8893   11.5339 N   0  0  0  0  0  0  0  0  0  0  0  0
   -2.4897    5.3339   11.4679 C   0  0  0  0  0  0  0  0  0  0  0  0
   -2.2858    4.2163   10.8878 O   0  0  0  0  0  0  0  0  0  0  0  0
   -3.9007    6.8115   12.0233 H   0  0  0  0  0  0  0  0  0  0  0  0
   -5.8628    6.4714   10.5398 C   0  0  0  0  0  0  0  0  0  0  0  0
   -4.9716    5.3051   10.9866 C   0  0  0  0  0  0  0  0  0  0  0  0
   -5.7362    4.5769   12.0704 C   0  0  0  0  0  0  0  0  0  0  0  0
    3.8600    4.8612   13.8368 N   0  0  0  0  0  0  0  0  0  0  0  0
    3.3890    3.5418   13.9609 C   0  0  0  0  0  0  0  0  0  0  0  0
    2.7982    2.9423   13.0160 O   0  0  0  0  0  0  0  0  0  0  0  0
    4.3274    5.2572   14.6623 H   0  0  0  0  0  0  0  0  0  0  0  0
    3.5691    2.8072   15.2021 C   0  0  0  0  0  0  0  0  0  0  0  0
    2.9582    1.5845   15.4031 C   0  0  0  0  0  0  0  0  0  0  0  0
    3.1075    0.8717   16.5602 C   0  0  0  0  0  0  0  0  0  0  0  0
    3.8801    1.3285   17.6056 C   0  0  0  0  0  0  0  0  0  0  0  0
    4.0468    0.6442   18.7635 F   0  0  0  0  0  0  0  0  0  0  0  0
    4.4891    2.5570   17.3945 C   0  0  0  0  0  0  0  0  0  0  0  0
    4.3567    3.2925   16.2449 C   0  0  0  0  0  0  0  0  0  0  0  0
    2.8520    8.9868    7.8860 C   0  0  0  0  0  0  0  0  0  0  0  0
    2.0395    8.4072    6.8980 N   0  0  0  0  0  0  0  0  0  0  0  0
    1.6172    7.0655    7.0445 C   0  0  0  0  0  0  0  0  0  0  0  0
    0.2264    6.8423    6.4001 C   0  0  0  0  0  0  0  0  0  0  0  0
   -0.6548    7.8696    7.1278 C   0  0  0  0  0  0  0  0  0  0  0  0
   -0.2847    9.2146    6.6043 C   0  0  0  0  0  0  0  0  0  0  0  0
    1.1759    9.2493    6.1438 C   0  0  0  0  0  0  0  0  0  0  0  0
   -2.0779    7.4670    6.9488 C   0  0  0  0  0  0  0  0  0  0  0  0
   -2.5178    6.4109    7.9379 C   0  0  0  0  0  0  0  0  0  0  0  0
   -2.3893    7.0449    5.5284 C   0  0  0  0  0  0  0  0  0  0  0  0
   -2.8744    8.6062    7.2005 O   0  0  0  0  0  0  0  0  0  0  0  0
   -2.6666    9.3478    6.5868 H   0  0  0  0  0  0  0  0  0  0  0  0
 20 21  1  0  0  0
 21 22  1  0  0  0
 21 16  1  0  0  0
 16 17  1  0  0  0
 17 18  2  0  0  0
 17 10  1  0  0  0
 10 11  1  0  0  0
 11 12  1  0  0  0
 12 13  1  0  0  0
 13 14  1  0  0  0
 14 15  1  0  0  0
 13  1  1  0  0  0
  1  2  1  0  0  0
  2 23  1  0  0  0
 23 24  1  0  0  0
 24 25  2  0  0  0
 24 27  1  0  0  0
 27 28  2  0  0  0
 28 29  1  0  0  0
 29 30  2  0  0  0
 30 31  1  0  0  0
 30 32  1  0  0  0
 32 33  2  0  0  0
  2  3  2  0  0  0
  3  4  1  0  0  0
  4  5  2  0  0  0
  5  6  1  0  0  0
  6  7  2  0  0  0
  7 34  1  0  0  0
 34 35  1  0  0  0
 35 36  1  0  0  0
 36 37  1  0  0  0
 37 38  1  0  0  0
 38 39  1  0  0  0
 39 40  1  0  0  0
 38 41  1  0  0  0
 41 42  1  0  0  0
 41 43  1  0  0  0
 41 44  1  0  0  0
  7  8  1  0  0  0
  8  9  2  0  0  0
 15 10  1  0  0  0
  9  1  1  0  0  0
 33 27  1  0  0  0
  9  4  1  0  0  0
 40 35  1  0  0  0
 16 19  1  0  0  0
 23 26  1  0  0  0
 44 45  1  0  0  0
M  END
> <minimizedAffinity>
-8.55255

> <CNNscore>
0.0998053849

> <CNNaffinity>
5.9228682518

> <CNN_VS>
0.5911341310

> <CNNaffinity_variance>
0.4108421206

$$$$
[H]OC(C([H])([H])[H])(C([H])([H])[H])C1([H])C([H])([H])C([H])([H])N(C([H])([H])c2c([H])c([H])c3nc(N([H])C(=O)c4c([H])c([H])c(F)c([H])c4[H])n([C@]4([H])C([H])([H])C([H])([H])[C@]([H])(C(=O)N([H])C([H])(C([H])([H])[H])C([H])([H])[H])C([H])([H])C4([H])[H])c3c2[H])C([H])([H])C1([H])[H]


 45 49  0  0  0  0  0  0  0  0999 V2000
    3.4732    4.7056   14.9476 N   0  0  0  0  0  0  0  0  0  0  0  0
    3.2216    5.8672   15.5162 C   0  0  0  0  0  0  0  0  0  0  0  0
    2.6446    6.7106   14.5903 N   0  0  0  0  0  0  0  0  0  0  0  0
    2.5348    6.0748   13.4443 C   0  0  0  0  0  0  0  0  0  0  0  0
    2.0284    6.4766   12.2230 C   0  0  0  0  0  0  0  0  0  0  0  0
    2.0491    5.5539   11.1754 C   0  0  0  0  0  0  0  0  0  0  0  0
    2.5436    4.2942   11.3227 C   0  0  0  0  0  0  0  0  0  0  0  0
    3.0433    3.9494   12.5919 C   0  0  0  0  0  0  0  0  0  0  0  0
    3.0494    4.8152   13.6534 C   0  0  0  0  0  0  0  0  0  0  0  0
    4.3888    2.0759   18.0017 C   0  0  0  0  0  0  0  0  0  0  0  0
    3.0655    2.0814   17.2830 C   0  0  0  0  0  0  0  0  0  0  0  0
    3.2686    2.3681   15.8450 C   0  0  0  0  0  0  0  0  0  0  0  0
    4.0618    3.5384   15.4210 C   0  0  0  0  0  0  0  0  0  0  0  0
    5.2021    3.6574   16.3669 C   0  0  0  0  0  0  0  0  0  0  0  0
    4.8676    3.5405   17.8391 C   0  0  0  0  0  0  0  0  0  0  0  0
    4.7712    2.5705   20.4378 N   0  0  0  0  0  0  0  0  0  0  0  0
    4.2519    1.7395   19.4277 C   0  0  0  0  0  0  0  0  0  0  0  0
    3.6405    0.6584   19.7183 O   0  0  0  0  0  0  0  0  0  0  0  0
    5.2684    3.4505   20.1502 H   0  0  0  0  0  0  0  0  0  0  0  0
    4.1892    3.6299   22.4870 C   0  0  0  0  0  0  0  0  0  0  0  0
    4.6848    2.3257   21.8487 C   0  0  0  0  0  0  0  0  0  0  0  0
    6.0647    2.0727   22.4155 C   0  0  0  0  0  0  0  0  0  0  0  0
    3.3853    6.3756   16.8101 N   0  0  0  0  0  0  0  0  0  0  0  0
    4.4904    7.1571   17.1923 C   0  0  0  0  0  0  0  0  0  0  0  0
    5.4265    7.4438   16.3904 O   0  0  0  0  0  0  0  0  0  0  0  0
    2.6787    6.2007   17.5359 H   0  0  0  0  0  0  0  0  0  0  0  0
    4.5968    7.6730   18.5469 C   0  0  0  0  0  0  0  0  0  0  0  0
    4.4056    9.0143   18.8171 C   0  0  0  0  0  0  0  0  0  0  0  0
    4.5010    9.5287   20.0803 C   0  0  0  0  0  0  0  0  0  0  0  0
    4.7955    8.7394   21.1705 C   0  0  0  0  0  0  0  0  0  0  0  0
    4.8961    9.2207   22.4335 F   0  0  0  0  0  0  0  0  0  0  0  0
    4.9861    7.3943   20.8892 C   0  0  0  0  0  0  0  0  0  0  0  0
    4.8963    6.8521   19.6331 C   0  0  0  0  0  0  0  0  0  0  0  0
    2.5826    3.3196   10.2173 C   0  0  0  0  0  0  0  0  0  0  0  0
    1.3695    3.0224    9.5751 N   0  0  0  0  0  0  0  0  0  0  0  0
    0.1856    2.9150   10.3413 C   0  0  0  0  0  0  0  0  0  0  0  0
   -1.0531    3.3582    9.5237 C   0  0  0  0  0  0  0  0  0  0  0  0
   -0.6917    4.7931    9.1091 C   0  0  0  0  0  0  0  0  0  0  0  0
    0.3552    4.6947    8.0535 C   0  0  0  0  0  0  0  0  0  0  0  0
    1.1967    3.4257    8.2219 C   0  0  0  0  0  0  0  0  0  0  0  0
   -1.9486    5.4923    8.7205 C   0  0  0  0  0  0  0  0  0  0  0  0
   -1.6967    6.8375    8.0769 C   0  0  0  0  0  0  0  0  0  0  0  0
   -2.9264    5.6141    9.8702 C   0  0  0  0  0  0  0  0  0  0  0  0
   -2.5905    4.6970    7.7453 O   0  0  0  0  0  0  0  0  0  0  0  0
   -2.8095    3.7986    8.0839 H   0  0  0  0  0  0  0  0  0  0  0  0
 20 21  1  0  0  0
 21 22  1  0  0  0
 21 16  1  0  0  0
 16 17  1  0  0  0
 17 18  2  0  0  0
 17 10  1  0  0  0
 10 11  1  0  0  0
 11 12  1  0  0  0
 12 13  1  0  0  0
 13 14  1  0  0  0
 14 15  1  0  0  0
 13  1  1  0  0  0
  1  2  1  0  0  0
  2 23  1  0  0  0
 23 24  1  0  0  0
 24 25  2  0  0  0
 24 27  1  0  0  0
 27 28  2  0  0  0
 28 29  1  0  0  0
 29 30  2  0  0  0
 30 31  1  0  0  0
 30 32  1  0  0  0
 32 33  2  0  0  0
  2  3  2  0  0  0
  3  4  1  0  0  0
  4  5  2  0  0  0
  5  6  1  0  0  0
  6  7  2  0  0  0
  7 34  1  0  0  0
 34 35  1  0  0  0
 35 36  1  0  0  0
 36 37  1  0  0  0
 37 38  1  0  0  0
 38 39  1  0  0  0
 39 40  1  0  0  0
 38 41  1  0  0  0
 41 42  1  0  0  0
 41 43  1  0  0  0
 41 44  1  0  0  0
  7  8  1  0  0  0
  8  9  2  0  0  0
 15 10  1  0  0  0
  9  1  1  0  0  0
 33 27  1  0  0  0
  9  4  1  0  0  0
 40 35  1  0  0  0
 16 19  1  0  0  0
 23 26  1  0  0  0
 44 45  1  0  0  0
M  END
> <minimizedAffinity>
-8.54958

> <CNNscore>
0.0828606859

> <CNNaffinity>
6.3116450310

> <CNN_VS>
0.5229872465

> <CNNaffinity_variance>
0.4616567194

$$$$
[H]O[C@]1([H])C([H])([H])C([H])([H])[C@@]([H])(N([H])c2nc(N([H])C([H])([H])C([H])([H])C([H])([H])C([H])([H])[H])nc([H])c2-c2nc(N3C([H])([H])C([H])([H])OC([H])([H])C3([H])[H])c([H])nc2[H])C([H])([H])C1([H])[H]


 34 37  0  0  0  0  0  0  0  0999 V2000
    2.9946    0.2481   18.5067 C   0  0  0  0  0  0  0  0  0  0  0  0
    2.3458   -0.0089   17.3738 N   0  0  0  0  0  0  0  0  0  0  0  0
    2.4361    0.6913   16.2474 C   0  0  0  0  0  0  0  0  0  0  0  0
    3.3022    1.8136   16.2537 C   0  0  0  0  0  0  0  0  0  0  0  0
    3.9950    2.1144   17.3976 C   0  0  0  0  0  0  0  0  0  0  0  0
    3.8235    1.3332   18.4839 N   0  0  0  0  0  0  0  0  0  0  0  0
    3.3608    2.5259   15.0040 C   0  0  0  0  0  0  0  0  0  0  0  0
    3.7758    3.8135   14.9088 C   0  0  0  0  0  0  0  0  0  0  0  0
    3.7317    4.4748   13.7108 N   0  0  0  0  0  0  0  0  0  0  0  0
    3.2687    3.8307   12.6263 C   0  0  0  0  0  0  0  0  0  0  0  0
    2.8350    2.5169   12.6870 C   0  0  0  0  0  0  0  0  0  0  0  0
    2.9065    1.9320   13.8862 N   0  0  0  0  0  0  0  0  0  0  0  0
    2.3588    1.8992   11.5080 N   0  0  0  0  0  0  0  0  0  0  0  0
    0.9405    1.6785   11.3390 C   0  0  0  0  0  0  0  0  0  0  0  0
    0.6367    1.9015    9.8727 C   0  0  0  0  0  0  0  0  0  0  0  0
    1.3572    1.0970    9.0247 O   0  0  0  0  0  0  0  0  0  0  0  0
    2.4375    0.4809    9.6055 C   0  0  0  0  0  0  0  0  0  0  0  0
    3.2454    1.4734   10.4505 C   0  0  0  0  0  0  0  0  0  0  0  0
    2.8648   -0.5270   19.6869 N   0  0  0  0  0  0  0  0  0  0  0  0
    2.1674   -1.3016   19.7097 H   0  0  0  0  0  0  0  0  0  0  0  0
    3.6532   -0.2926   20.8568 C   0  0  0  0  0  0  0  0  0  0  0  0
    2.9893    0.6713   21.7758 C   0  0  0  0  0  0  0  0  0  0  0  0
    5.3240    1.3579   21.6586 C   0  0  0  0  0  0  0  0  0  0  0  0
    3.9543    1.8077   22.1268 C   0  0  0  0  0  0  0  0  0  0  0  0
    4.9849    3.1348   17.4776 N   0  0  0  0  0  0  0  0  0  0  0  0
    5.6777    3.3597   16.7457 H   0  0  0  0  0  0  0  0  0  0  0  0
    5.1205    3.9302   18.6987 C   0  0  0  0  0  0  0  0  0  0  0  0
    5.9063    5.2109   18.4433 C   0  0  0  0  0  0  0  0  0  0  0  0
    5.2216    6.3132   19.2631 C   0  0  0  0  0  0  0  0  0  0  0  0
    3.9317    6.6374   18.5411 C   0  0  0  0  0  0  0  0  0  0  0  0
    3.2545    7.6924   19.1477 O   0  0  0  0  0  0  0  0  0  0  0  0
    3.0976    5.3897   18.4867 C   0  0  0  0  0  0  0  0  0  0  0  0
    3.7407    4.2215   19.2199 C   0  0  0  0  0  0  0  0  0  0  0  0
    2.3135    7.7079   18.8794 H   0  0  0  0  0  0  0  0  0  0  0  0
 23 24  1  0  0  0
 24 22  1  0  0  0
 22 21  1  0  0  0
 21 19  1  0  0  0
 19  1  1  0  0  0
  1  2  2  0  0  0
  2  3  1  0  0  0
  3  4  2  0  0  0
  4  5  1  0  0  0
  5 25  1  0  0  0
 25 27  1  0  0  0
 27 28  1  0  0  0
 28 29  1  0  0  0
 29 30  1  0  0  0
 30 31  1  0  0  0
 30 32  1  0  0  0
 32 33  1  0  0  0
  5  6  2  0  0  0
  4  7  1  0  0  0
  7  8  2  0  0  0
  8  9  1  0  0  0
  9 10  2  0  0  0
 10 11  1  0  0  0
 11 12  2  0  0  0
 11 13  1  0  0  0
 13 14  1  0  0  0
 14 15  1  0  0  0
 15 16  1  0  0  0
 16 17  1  0  0  0
 17 18  1  0  0  0
  6  1  1  0  0  0
 12  7  1  0  0  0
 18 13  1  0  0  0
 33 27  1  0  0  0
 19 20  1  0  0  0
 25 26  1  0  0  0
 31 34  1  0  0  0
M  END
> <minimizedAffinity>
-7.85000

> <CNNscore>
0.9581846595

> <CNNaffinity>
7.4008889198

> <CNN_VS>
7.0914182663

> <CNNaffinity_variance>
0.0432856195

$$$$
[H]O[C@]1([H])C([H])([H])C([H])([H])[C@@]([H])(N([H])c2nc(N([H])C([H])([H])C([H])([H])C([H])([H])C([H])([H])[H])nc([H])c2-c2nc(N3C([H])([H])C([H])([H])OC([H])([H])C3([H])[H])c([H])nc2[H])C([H])([H])C1([H])[H]


 34 37  0  0  0  0  0  0  0  0999 V2000
    3.4581    3.3199   13.8973 C   0  0  0  0  0  0  0  0  0  0  0  0
    2.6754    2.2603   14.0850 N   0  0  0  0  0  0  0  0  0  0  0  0
    2.5779    1.5516   15.2054 C   0  0  0  0  0  0  0  0  0  0  0  0
    3.3806    1.9618   16.2995 C   0  0  0  0  0  0  0  0  0  0  0  0
    4.1994    3.0513   16.1539 C   0  0  0  0  0  0  0  0  0  0  0  0
    4.2184    3.6944   14.9681 N   0  0  0  0  0  0  0  0  0  0  0  0
    3.2254    1.1586   17.4842 C   0  0  0  0  0  0  0  0  0  0  0  0
    2.3838    0.0972   17.5496 C   0  0  0  0  0  0  0  0  0  0  0  0
    2.2067   -0.5825   18.7247 N   0  0  0  0  0  0  0  0  0  0  0  0
    2.8782   -0.1826   19.8176 C   0  0  0  0  0  0  0  0  0  0  0  0
    3.7442    0.8977   19.7880 C   0  0  0  0  0  0  0  0  0  0  0  0
    3.8704    1.5143   18.6094 N   0  0  0  0  0  0  0  0  0  0  0  0
    4.4185    1.2658   20.9747 N   0  0  0  0  0  0  0  0  0  0  0  0
    5.7888    0.8526   21.1762 C   0  0  0  0  0  0  0  0  0  0  0  0
    6.4867    1.9913   21.8891 C   0  0  0  0  0  0  0  0  0  0  0  0
    5.9054    2.3426   23.0826 O   0  0  0  0  0  0  0  0  0  0  0  0
    4.6386    1.8474   23.2661 C   0  0  0  0  0  0  0  0  0  0  0  0
    3.7840    2.0491   22.0089 C   0  0  0  0  0  0  0  0  0  0  0  0
    3.5310    4.0450   12.6809 N   0  0  0  0  0  0  0  0  0  0  0  0
    4.4204    4.5289   12.4325 H   0  0  0  0  0  0  0  0  0  0  0  0
    2.4311    4.1438   11.7723 C   0  0  0  0  0  0  0  0  0  0  0  0
    2.6923    3.3870   10.5179 C   0  0  0  0  0  0  0  0  0  0  0  0
    3.1657    1.0088   10.2808 C   0  0  0  0  0  0  0  0  0  0  0  0
    2.0612    1.9944   10.6070 C   0  0  0  0  0  0  0  0  0  0  0  0
    4.9472    3.6270   17.2201 N   0  0  0  0  0  0  0  0  0  0  0  0
    5.6449    3.1342   17.8004 H   0  0  0  0  0  0  0  0  0  0  0  0
    4.7117    5.0170   17.6135 C   0  0  0  0  0  0  0  0  0  0  0  0
    3.2668    5.2348   18.0468 C   0  0  0  0  0  0  0  0  0  0  0  0
    3.3114    6.1858   19.2507 C   0  0  0  0  0  0  0  0  0  0  0  0
    3.8242    5.3682   20.4163 C   0  0  0  0  0  0  0  0  0  0  0  0
    3.8300    6.1053   21.5979 O   0  0  0  0  0  0  0  0  0  0  0  0
    5.1916    4.8561   20.0652 C   0  0  0  0  0  0  0  0  0  0  0  0
    5.6775    5.3592   18.7137 C   0  0  0  0  0  0  0  0  0  0  0  0
    4.4191    5.6979   22.2647 H   0  0  0  0  0  0  0  0  0  0  0  0
 23 24  1  0  0  0
 24 22  1  0  0  0
 22 21  1  0  0  0
 21 19  1  0  0  0
 19  1  1  0  0  0
  1  2  2  0  0  0
  2  3  1  0  0  0
  3  4  2  0  0  0
  4  5  1  0  0  0
  5 25  1  0  0  0
 25 27  1  0  0  0
 27 28  1  0  0  0
 28 29  1  0  0  0
 29 30  1  0  0  0
 30 31  1  0  0  0
 30 32  1  0  0  0
 32 33  1  0  0  0
  5  6  2  0  0  0
  4  7  1  0  0  0
  7  8  2  0  0  0
  8  9  1  0  0  0
  9 10  2  0  0  0
 10 11  1  0  0  0
 11 12  2  0  0  0
 11 13  1  0  0  0
 13 14  1  0  0  0
 14 15  1  0  0  0
 15 16  1  0  0  0
 16 17  1  0  0  0
 17 18  1  0  0  0
  6  1  1  0  0  0
 12  7  1  0  0  0
 18 13  1  0  0  0
 33 27  1  0  0  0
 19 20  1  0  0  0
 25 26  1  0  0  0
 31 34  1  0  0  0
M  END
> <minimizedAffinity>
-8.14582

> <CNNscore>
0.7817770839

> <CNNaffinity>
7.1935663223

> <CNN_VS>
5.6237654686

> <CNNaffinity_variance>
0.1633748561

$$$$
[H]O[C@]1([H])C([H])([H])C([H])([H])[C@@]([H])(N([H])c2nc(N([H])C([H])([H])C([H])([H])C([H])([H])C([H])([H])[H])nc([H])c2-c2nc(N3C([H])([H])C([H])([H])OC([H])([H])C3([H])[H])c([H])nc2[H])C([H])([H])C1([H])[H]


 34 37  0  0  0  0  0  0  0  0999 V2000
    3.4613    3.4105   13.8418 C   0  0  0  0  0  0  0  0  0  0  0  0
    2.6789    2.3477   14.0119 N   0  0  0  0  0  0  0  0  0  0  0  0
    2.5784    1.6230   15.1218 C   0  0  0  0  0  0  0  0  0  0  0  0
    3.3771    2.0183   16.2243 C   0  0  0  0  0  0  0  0  0  0  0  0
    4.1955    3.1104   16.0968 C   0  0  0  0  0  0  0  0  0  0  0  0
    4.2177    3.7703   14.9204 N   0  0  0  0  0  0  0  0  0  0  0  0
    3.2187    1.1982   17.3970 C   0  0  0  0  0  0  0  0  0  0  0  0
    2.3756    0.1371   17.4454 C   0  0  0  0  0  0  0  0  0  0  0  0
    2.1954   -0.5593   18.6103 N   0  0  0  0  0  0  0  0  0  0  0  0
    2.8655   -0.1762   19.7101 C   0  0  0  0  0  0  0  0  0  0  0  0
    3.7329    0.9034   19.6977 C   0  0  0  0  0  0  0  0  0  0  0  0
    3.8620    1.5367   18.5284 N   0  0  0  0  0  0  0  0  0  0  0  0
    4.4056    1.2533   20.8908 N   0  0  0  0  0  0  0  0  0  0  0  0
    5.7651    0.8104   21.1016 C   0  0  0  0  0  0  0  0  0  0  0  0
    6.4814    1.9319   21.8237 C   0  0  0  0  0  0  0  0  0  0  0  0
    5.8983    2.2917   23.0137 O   0  0  0  0  0  0  0  0  0  0  0  0
    4.6198    1.8230   23.1857 C   0  0  0  0  0  0  0  0  0  0  0  0
    3.7796    2.0467   21.9225 C   0  0  0  0  0  0  0  0  0  0  0  0
    3.5376    4.1528   12.6361 N   0  0  0  0  0  0  0  0  0  0  0  0
    3.8729    3.6789   11.7703 H   0  0  0  0  0  0  0  0  0  0  0  0
    3.1727    5.5331   12.5533 C   0  0  0  0  0  0  0  0  0  0  0  0
    1.7000    5.7140   12.6677 C   0  0  0  0  0  0  0  0  0  0  0  0
   -0.0685    6.6680   14.0455 C   0  0  0  0  0  0  0  0  0  0  0  0
    1.3874    6.8385   13.6594 C   0  0  0  0  0  0  0  0  0  0  0  0
    4.9392    3.6715   17.1736 N   0  0  0  0  0  0  0  0  0  0  0  0
    5.6309    3.1695   17.7530 H   0  0  0  0  0  0  0  0  0  0  0  0
    4.7077    5.0585   17.5799 C   0  0  0  0  0  0  0  0  0  0  0  0
    3.2641    5.2758   18.0177 C   0  0  0  0  0  0  0  0  0  0  0  0
    3.3130    6.2158   19.2301 C   0  0  0  0  0  0  0  0  0  0  0  0
    3.8260    5.3865   20.3873 C   0  0  0  0  0  0  0  0  0  0  0  0
    3.8357    6.1130   21.5755 O   0  0  0  0  0  0  0  0  0  0  0  0
    5.1916    4.8744   20.0292 C   0  0  0  0  0  0  0  0  0  0  0  0
    5.6763    5.3885   18.6814 C   0  0  0  0  0  0  0  0  0  0  0  0
    4.4249    5.6982   22.2375 H   0  0  0  0  0  0  0  0  0  0  0  0
 23 24  1  0  0  0
 24 22  1  0  0  0
 22 21  1  0  0  0
 21 19  1  0  0  0
 19  1  1  0  0  0
  1  2  2  0  0  0
  2  3  1  0  0  0
  3  4  2  0  0  0
  4  5  1  0  0  0
  5 25  1  0  0  0
 25 27  1  0  0  0
 27 28  1  0  0  0
 28 29  1  0  0  0
 29 30  1  0  0  0
 30 31  1  0  0  0
 30 32  1  0  0  0
 32 33  1  0  0  0
  5  6  2  0  0  0
  4  7  1  0  0  0
  7  8  2  0  0  0
  8  9  1  0  0  0
  9 10  2  0  0  0
 10 11  1  0  0  0
 11 12  2  0  0  0
 11 13  1  0  0  0
 13 14  1  0  0  0
 14 15  1  0  0  0
 15 16  1  0  0  0
 16 17  1  0  0  0
 17 18  1  0  0  0
  6  1  1  0  0  0
 12  7  1  0  0  0
 18 13  1  0  0  0
 33 27  1  0  0  0
 19 20  1  0  0  0
 25 26  1  0  0  0
 31 34  1  0  0  0
M  END
> <minimizedAffinity>
-8.30201

> <CNNscore>
0.6830556393

> <CNNaffinity>
6.9561491013

> <CNN_VS>
4.7514367104

> <CNNaffinity_variance>
0.3555729389

$$$$
[H]O[C@]1([H])C([H])([H])C([H])([H])[C@@]([H])(N([H])c2nc(N([H])C([H])([H])C([H])([H])C([H])([H])C([H])([H])[H])nc([H])c2-c2nc(N3C([H])([H])C([H])([H])OC([H])([H])C3([H])[H])c([H])nc2[H])C([H])([H])C1([H])[H]


 34 37  0  0  0  0  0  0  0  0999 V2000
    3.8191    0.9402   19.3300 C   0  0  0  0  0  0  0  0  0  0  0  0
    2.9943    0.4462   18.4101 N   0  0  0  0  0  0  0  0  0  0  0  0
    2.7649    0.9666   17.2085 C   0  0  0  0  0  0  0  0  0  0  0  0
    3.4621    2.1556   16.8770 C   0  0  0  0  0  0  0  0  0  0  0  0
    4.3261    2.6986   17.7921 C   0  0  0  0  0  0  0  0  0  0  0  0
    4.4793    2.0844   18.9834 N   0  0  0  0  0  0  0  0  0  0  0  0
    3.1754    2.6654   15.5615 C   0  0  0  0  0  0  0  0  0  0  0  0
    3.1295    1.8761   14.4596 C   0  0  0  0  0  0  0  0  0  0  0  0
    2.9385    2.4205   13.2180 N   0  0  0  0  0  0  0  0  0  0  0  0
    2.7983    3.7518   13.1036 C   0  0  0  0  0  0  0  0  0  0  0  0
    2.8417    4.5882   14.2066 C   0  0  0  0  0  0  0  0  0  0  0  0
    3.0299    3.9908   15.3868 N   0  0  0  0  0  0  0  0  0  0  0  0
    2.6880    5.9804   14.0151 N   0  0  0  0  0  0  0  0  0  0  0  0
    1.9413    6.4677   12.8776 C   0  0  0  0  0  0  0  0  0  0  0  0
    1.1887    7.6956   13.3445 C   0  0  0  0  0  0  0  0  0  0  0  0
    1.9943    8.6835   13.8552 O   0  0  0  0  0  0  0  0  0  0  0  0
    3.2701    8.2778   14.1576 C   0  0  0  0  0  0  0  0  0  0  0  0
    3.2557    6.9492   14.9233 C   0  0  0  0  0  0  0  0  0  0  0  0
    4.0308    0.3508   20.6021 N   0  0  0  0  0  0  0  0  0  0  0  0
    4.8483   -0.2819   20.7372 H   0  0  0  0  0  0  0  0  0  0  0  0
    3.1668    0.5863   21.7171 C   0  0  0  0  0  0  0  0  0  0  0  0
    3.5771    1.7986   22.4764 C   0  0  0  0  0  0  0  0  0  0  0  0
    5.3668    2.2710   24.0606 C   0  0  0  0  0  0  0  0  0  0  0  0
    5.1000    1.8236   22.6372 C   0  0  0  0  0  0  0  0  0  0  0  0
    5.1716    3.8111   17.5184 N   0  0  0  0  0  0  0  0  0  0  0  0
    6.0975    3.7656   17.0635 H   0  0  0  0  0  0  0  0  0  0  0  0
    4.7766    5.1544   17.9450 C   0  0  0  0  0  0  0  0  0  0  0  0
    3.3442    5.1734   18.4654 C   0  0  0  0  0  0  0  0  0  0  0  0
    3.3336    6.1140   19.6782 C   0  0  0  0  0  0  0  0  0  0  0  0
    4.0202    5.3653   20.7998 C   0  0  0  0  0  0  0  0  0  0  0  0
    3.9985    6.0890   21.9895 O   0  0  0  0  0  0  0  0  0  0  0  0
    5.4202    5.0437   20.3617 C   0  0  0  0  0  0  0  0  0  0  0  0
    5.7523    5.6162   18.9914 C   0  0  0  0  0  0  0  0  0  0  0  0
    4.6757    5.7601   22.6146 H   0  0  0  0  0  0  0  0  0  0  0  0
 23 24  1  0  0  0
 24 22  1  0  0  0
 22 21  1  0  0  0
 21 19  1  0  0  0
 19  1  1  0  0  0
  1  2  2  0  0  0
  2  3  1  0  0  0
  3  4  2  0  0  0
  4  5  1  0  0  0
  5 25  1  0  0  0
 25 27  1  0  0  0
 27 28  1  0  0  0
 28 29  1  0  0  0
 29 30  1  0  0  0
 30 31  1  0  0  0
 30 32  1  0  0  0
 32 33  1  0  0  0
  5  6  2  0  0  0
  4  7  1  0  0  0
  7  8  2  0  0  0
  8  9  1  0  0  0
  9 10  2  0  0  0
 10 11  1  0  0  0
 11 12  2  0  0  0
 11 13  1  0  0  0
 13 14  1  0  0  0
 14 15  1  0  0  0
 15 16  1  0  0  0
 16 17  1  0  0  0
 17 18  1  0  0  0
  6  1  1  0  0  0
 12  7  1  0  0  0
 18 13  1  0  0  0
 33 27  1  0  0  0
 19 20  1  0  0  0
 25 26  1  0  0  0
 31 34  1  0  0  0
M  END
> <minimizedAffinity>
-8.03782

> <CNNscore>
0.6684270501

> <CNNaffinity>
7.0832281113

> <CNN_VS>
4.7346210480

> <CNNaffinity_variance>
0.1844940186

$$$$
[H]O[C@]1([H])C([H])([H])C([H])([H])[C@@]([H])(N([H])c2nc(N([H])C([H])([H])C([H])([H])C([H])([H])C([H])([H])[H])nc([H])c2-c2nc(N3C([H])([H])C([H])([H])OC([H])([H])C3([H])[H])c([H])nc2[H])C([H])([H])C1([H])[H]


 34 37  0  0  0  0  0  0  0  0999 V2000
    3.1022    2.9410   13.4862 C   0  0  0  0  0  0  0  0  0  0  0  0
    2.4944    1.8212   13.8697 N   0  0  0  0  0  0  0  0  0  0  0  0
    2.5395    1.2867   15.0860 C   0  0  0  0  0  0  0  0  0  0  0  0
    3.3046    1.9718   16.0633 C   0  0  0  0  0  0  0  0  0  0  0  0
    3.9449    3.1326   15.7149 C   0  0  0  0  0  0  0  0  0  0  0  0
    3.8301    3.5816   14.4479 N   0  0  0  0  0  0  0  0  0  0  0  0
    3.3090    1.3466   17.3601 C   0  0  0  0  0  0  0  0  0  0  0  0
    2.6671    0.1800   17.6175 C   0  0  0  0  0  0  0  0  0  0  0  0
    2.6281   -0.3302   18.8874 N   0  0  0  0  0  0  0  0  0  0  0  0
    3.2344    0.3423   19.8800 C   0  0  0  0  0  0  0  0  0  0  0  0
    3.8975    1.5370   19.6540 C   0  0  0  0  0  0  0  0  0  0  0  0
    3.8973    1.9766   18.3923 N   0  0  0  0  0  0  0  0  0  0  0  0
    4.5135    2.1935   20.7439 N   0  0  0  0  0  0  0  0  0  0  0  0
    4.1754    1.8076   22.0951 C   0  0  0  0  0  0  0  0  0  0  0  0
    5.4487    1.9072   22.9079 C   0  0  0  0  0  0  0  0  0  0  0  0
    6.0268    3.1526   22.8894 O   0  0  0  0  0  0  0  0  0  0  0  0
    5.5570    3.9836   21.9032 C   0  0  0  0  0  0  0  0  0  0  0  0
    5.4807    3.2499   20.5588 C   0  0  0  0  0  0  0  0  0  0  0  0
    3.0273    3.4732   12.1740 N   0  0  0  0  0  0  0  0  0  0  0  0
    3.0098    2.8189   11.3626 H   0  0  0  0  0  0  0  0  0  0  0  0
    2.9747    4.8779   11.9110 C   0  0  0  0  0  0  0  0  0  0  0  0
    1.6425    5.4458   12.2535 C   0  0  0  0  0  0  0  0  0  0  0  0
   -0.6395    4.6100   12.4256 C   0  0  0  0  0  0  0  0  0  0  0  0
    0.5451    4.7039   11.4847 C   0  0  0  0  0  0  0  0  0  0  0  0
    4.6299    3.9673   16.6431 N   0  0  0  0  0  0  0  0  0  0  0  0
    5.6436    3.9446   16.8384 H   0  0  0  0  0  0  0  0  0  0  0  0
    3.8808    4.9210   17.4627 C   0  0  0  0  0  0  0  0  0  0  0  0
    4.8099    5.9206   18.1412 C   0  0  0  0  0  0  0  0  0  0  0  0
    4.1004    7.2806   18.0882 C   0  0  0  0  0  0  0  0  0  0  0  0
    4.1960    7.7515   16.6532 C   0  0  0  0  0  0  0  0  0  0  0  0
    3.6566    9.0255   16.4935 O   0  0  0  0  0  0  0  0  0  0  0  0
    3.5143    6.7377   15.7798 C   0  0  0  0  0  0  0  0  0  0  0  0
    2.8786    5.6085   16.5777 C   0  0  0  0  0  0  0  0  0  0  0  0
    3.4486    9.2051   15.5543 H   0  0  0  0  0  0  0  0  0  0  0  0
 23 24  1  0  0  0
 24 22  1  0  0  0
 22 21  1  0  0  0
 21 19  1  0  0  0
 19  1  1  0  0  0
  1  2  2  0  0  0
  2  3  1  0  0  0
  3  4  2  0  0  0
  4  5  1  0  0  0
  5 25  1  0  0  0
 25 27  1  0  0  0
 27 28  1  0  0  0
 28 29  1  0  0  0
 29 30  1  0  0  0
 30 31  1  0  0  0
 30 32  1  0  0  0
 32 33  1  0  0  0
  5  6  2  0  0  0
  4  7  1  0  0  0
  7  8  2  0  0  0
  8  9  1  0  0  0
  9 10  2  0  0  0
 10 11  1  0  0  0
 11 12  2  0  0  0
 11 13  1  0  0  0
 13 14  1  0  0  0
 14 15  1  0  0  0
 15 16  1  0  0  0
 16 17  1  0  0  0
 17 18  1  0  0  0
  6  1  1  0  0  0
 12  7  1  0  0  0
 18 13  1  0  0  0
 33 27  1  0  0  0
 19 20  1  0  0  0
 25 26  1  0  0  0
 31 34  1  0  0  0
M  END
> <minimizedAffinity>
-6.95035

> <CNNscore>
0.6107717156

> <CNNaffinity>
6.9012603760

> <CNN_VS>
4.2150945663

> <CNNaffinity_variance>
0.2330199778

$$$$
[H]O[C@]1([H])C([H])([H])C([H])([H])[C@@]([H])(N([H])c2nc(N([H])C([H])([H])C([H])([H])C([H])([H])C([H])([H])[H])nc([H])c2-c2nc(N3C([H])([H])C([H])([H])OC([H])([H])C3([H])[H])c([H])nc2[H])C([H])([H])C1([H])[H]


 34 37  0  0  0  0  0  0  0  0999 V2000
    3.2030    3.5210   13.6116 C   0  0  0  0  0  0  0  0  0  0  0  0
    3.0763    2.1993   13.6994 N   0  0  0  0  0  0  0  0  0  0  0  0
    3.0586    1.4907   14.8239 C   0  0  0  0  0  0  0  0  0  0  0  0
    3.1863    2.2080   16.0400 C   0  0  0  0  0  0  0  0  0  0  0  0
    3.3148    3.5720   15.9988 C   0  0  0  0  0  0  0  0  0  0  0  0
    3.3218    4.1868   14.7980 N   0  0  0  0  0  0  0  0  0  0  0  0
    3.1538    1.3855   17.2212 C   0  0  0  0  0  0  0  0  0  0  0  0
    2.3592    0.2926   17.3361 C   0  0  0  0  0  0  0  0  0  0  0  0
    2.2996   -0.4072   18.5113 N   0  0  0  0  0  0  0  0  0  0  0  0
    3.0396    0.0046   19.5545 C   0  0  0  0  0  0  0  0  0  0  0  0
    3.8605    1.1170   19.4736 C   0  0  0  0  0  0  0  0  0  0  0  0
    3.8714    1.7518   18.2980 N   0  0  0  0  0  0  0  0  0  0  0  0
    4.6118    1.4960   20.6095 N   0  0  0  0  0  0  0  0  0  0  0  0
    4.1415    2.5726   21.4513 C   0  0  0  0  0  0  0  0  0  0  0  0
    4.4886    2.1950   22.8758 C   0  0  0  0  0  0  0  0  0  0  0  0
    5.8268    1.9667   23.0825 O   0  0  0  0  0  0  0  0  0  0  0  0
    6.5591    1.7965   21.9342 C   0  0  0  0  0  0  0  0  0  0  0  0
    5.8483    0.8415   20.9675 C   0  0  0  0  0  0  0  0  0  0  0  0
    3.2190    4.2353   12.3868 N   0  0  0  0  0  0  0  0  0  0  0  0
    2.5121    4.0037   11.6564 H   0  0  0  0  0  0  0  0  0  0  0  0
    4.1685    5.2670   12.1055 C   0  0  0  0  0  0  0  0  0  0  0  0
    5.2085    4.8025   11.1477 C   0  0  0  0  0  0  0  0  0  0  0  0
    4.4361    6.8246   10.0295 C   0  0  0  0  0  0  0  0  0  0  0  0
    4.9677    5.4289    9.7710 C   0  0  0  0  0  0  0  0  0  0  0  0
    3.3192    4.4014   17.1562 N   0  0  0  0  0  0  0  0  0  0  0  0
    2.5859    4.4244   17.8827 H   0  0  0  0  0  0  0  0  0  0  0  0
    4.4001    5.3666   17.3620 C   0  0  0  0  0  0  0  0  0  0  0  0
    3.9772    6.7712   16.9486 C   0  0  0  0  0  0  0  0  0  0  0  0
    4.5746    7.7300   17.9877 C   0  0  0  0  0  0  0  0  0  0  0  0
    3.7506    7.5572   19.2451 C   0  0  0  0  0  0  0  0  0  0  0  0
    4.1460    8.4431   20.2444 O   0  0  0  0  0  0  0  0  0  0  0  0
    3.8607    6.1257   19.6858 C   0  0  0  0  0  0  0  0  0  0  0  0
    4.8026    5.3128   18.8096 C   0  0  0  0  0  0  0  0  0  0  0  0
    3.8354    8.1448   21.1231 H   0  0  0  0  0  0  0  0  0  0  0  0
 23 24  1  0  0  0
 24 22  1  0  0  0
 22 21  1  0  0  0
 21 19  1  0  0  0
 19  1  1  0  0  0
  1  2  2  0  0  0
  2  3  1  0  0  0
  3  4  2  0  0  0
  4  5  1  0  0  0
  5 25  1  0  0  0
 25 27  1  0  0  0
 27 28  1  0  0  0
 28 29  1  0  0  0
 29 30  1  0  0  0
 30 31  1  0  0  0
 30 32  1  0  0  0
 32 33  1  0  0  0
  5  6  2  0  0  0
  4  7  1  0  0  0
  7  8  2  0  0  0
  8  9  1  0  0  0
  9 10  2  0  0  0
 10 11  1  0  0  0
 11 12  2  0  0  0
 11 13  1  0  0  0
 13 14  1  0  0  0
 14 15  1  0  0  0
 15 16  1  0  0  0
 16 17  1  0  0  0
 17 18  1  0  0  0
  6  1  1  0  0  0
 12  7  1  0  0  0
 18 13  1  0  0  0
 33 27  1  0  0  0
 19 20  1  0  0  0
 25 26  1  0  0  0
 31 34  1  0  0  0
M  END
> <minimizedAffinity>
-7.35001

> <CNNscore>
0.5981679559

> <CNNaffinity>
6.9441957474

> <CNN_VS>
4.1537952423

> <CNNaffinity_variance>
0.1892625540

$$$$
[H]O[C@]1([H])C([H])([H])C([H])([H])[C@@]([H])(N([H])c2nc(N([H])C([H])([H])C([H])([H])C([H])([H])C([H])([H])[H])nc([H])c2-c2nc(N3C([H])([H])C([H])([H])OC([H])([H])C3([H])[H])c([H])nc2[H])C([H])([H])C1([H])[H]


 34 37  0  0  0  0  0  0  0  0999 V2000
    4.1949    1.5530   18.5873 C   0  0  0  0  0  0  0  0  0  0  0  0
    3.4069    0.8852   17.7485 N   0  0  0  0  0  0  0  0  0  0  0  0
    3.0387    1.2884   16.5364 C   0  0  0  0  0  0  0  0  0  0  0  0
    3.5302    2.5436   16.0976 C   0  0  0  0  0  0  0  0  0  0  0  0
    4.3494    3.2653   16.9264 C   0  0  0  0  0  0  0  0  0  0  0  0
    4.6558    2.7576   18.1381 N   0  0  0  0  0  0  0  0  0  0  0  0
    3.1012    2.9206   14.7760 C   0  0  0  0  0  0  0  0  0  0  0  0
    2.9629    2.0285   13.7640 C   0  0  0  0  0  0  0  0  0  0  0  0
    2.6357    2.4483   12.5026 N   0  0  0  0  0  0  0  0  0  0  0  0
    2.4542    3.7605   12.2780 C   0  0  0  0  0  0  0  0  0  0  0  0
    2.5890    4.6996   13.2869 C   0  0  0  0  0  0  0  0  0  0  0  0
    2.9085    4.2210   14.4928 N   0  0  0  0  0  0  0  0  0  0  0  0
    2.3849    6.0647   12.9817 N   0  0  0  0  0  0  0  0  0  0  0  0
    2.9298    6.6138   11.7608 C   0  0  0  0  0  0  0  0  0  0  0  0
    1.9214    7.6197   11.2477 C   0  0  0  0  0  0  0  0  0  0  0  0
    1.6272    8.6205   12.1407 O   0  0  0  0  0  0  0  0  0  0  0  0
    2.0264    8.3686   13.4295 C   0  0  0  0  0  0  0  0  0  0  0  0
    1.6434    6.9455   13.8535 C   0  0  0  0  0  0  0  0  0  0  0  0
    4.5597    1.0836   19.8745 N   0  0  0  0  0  0  0  0  0  0  0  0
    4.7727    0.0711   20.0025 H   0  0  0  0  0  0  0  0  0  0  0  0
    4.6490    1.9425   21.0144 C   0  0  0  0  0  0  0  0  0  0  0  0
    6.0378    1.9978   21.5462 C   0  0  0  0  0  0  0  0  0  0  0  0
    4.7945    2.4591   23.5900 C   0  0  0  0  0  0  0  0  0  0  0  0
    6.0678    2.8083   22.8454 C   0  0  0  0  0  0  0  0  0  0  0  0
    5.0019    4.4705   16.5402 N   0  0  0  0  0  0  0  0  0  0  0  0
    5.5323    4.6140   15.6660 H   0  0  0  0  0  0  0  0  0  0  0  0
    5.0057    5.6233   17.4421 C   0  0  0  0  0  0  0  0  0  0  0  0
    6.4175    6.1549   17.6585 C   0  0  0  0  0  0  0  0  0  0  0  0
    6.3081    7.6858   17.6816 C   0  0  0  0  0  0  0  0  0  0  0  0
    6.0730    8.1142   16.2494 C   0  0  0  0  0  0  0  0  0  0  0  0
    6.0399    9.5011   16.1268 O   0  0  0  0  0  0  0  0  0  0  0  0
    4.8005    7.4760   15.7711 C   0  0  0  0  0  0  0  0  0  0  0  0
    4.1016    6.6735   16.8589 C   0  0  0  0  0  0  0  0  0  0  0  0
    5.6050    9.7710   15.2928 H   0  0  0  0  0  0  0  0  0  0  0  0
 23 24  1  0  0  0
 24 22  1  0  0  0
 22 21  1  0  0  0
 21 19  1  0  0  0
 19  1  1  0  0  0
  1  2  2  0  0  0
  2  3  1  0  0  0
  3  4  2  0  0  0
  4  5  1  0  0  0
  5 25  1  0  0  0
 25 27  1  0  0  0
 27 28  1  0  0  0
 28 29  1  0  0  0
 29 30  1  0  0  0
 30 31  1  0  0  0
 30 32  1  0  0  0
 32 33  1  0  0  0
  5  6  2  0  0  0
  4  7  1  0  0  0
  7  8  2  0  0  0
  8  9  1  0  0  0
  9 10  2  0  0  0
 10 11  1  0  0  0
 11 12  2  0  0  0
 11 13  1  0  0  0
 13 14  1  0  0  0
 14 15  1  0  0  0
 15 16  1  0  0  0
 16 17  1  0  0  0
 17 18  1  0  0  0
  6  1  1  0  0  0
 12  7  1  0  0  0
 18 13  1  0  0  0
 33 27  1  0  0  0
 19 20  1  0  0  0
 25 26  1  0  0  0
 31 34  1  0  0  0
M  END
> <minimizedAffinity>
-7.06370

> <CNNscore>
0.5510743856

> <CNNaffinity>
6.6623525620

> <CNN_VS>
3.6714518070

> <CNNaffinity_variance>
0.3253431916

$$$$
[H]O[C@]1([H])C([H])([H])C([H])([H])[C@@]([H])(N([H])c2nc(N([H])C([H])([H])C([H])([H])C([H])([H])C([H])([H])[H])nc([H])c2-c2nc(N3C([H])([H])C([H])([H])OC([H])([H])C3([H])[H])c([H])nc2[H])C([H])([H])C1([H])[H]


 34 37  0  0  0  0  0  0  0  0999 V2000
    3.8112    1.7043   17.7719 C   0  0  0  0  0  0  0  0  0  0  0  0
    2.9582    1.3576   16.8113 N   0  0  0  0  0  0  0  0  0  0  0  0
    2.7166    2.0430   15.6983 C   0  0  0  0  0  0  0  0  0  0  0  0
    3.4326    3.2533   15.5182 C   0  0  0  0  0  0  0  0  0  0  0  0
    4.3258    3.6485   16.4799 C   0  0  0  0  0  0  0  0  0  0  0  0
    4.4888    2.8729   17.5716 N   0  0  0  0  0  0  0  0  0  0  0  0
    3.1313    3.9451   14.2921 C   0  0  0  0  0  0  0  0  0  0  0  0
    1.8638    4.1951   13.8797 C   0  0  0  0  0  0  0  0  0  0  0  0
    1.6272    4.7795   12.6645 N   0  0  0  0  0  0  0  0  0  0  0  0
    2.6701    5.1021   11.8812 C   0  0  0  0  0  0  0  0  0  0  0  0
    3.9773    4.8598   12.2692 C   0  0  0  0  0  0  0  0  0  0  0  0
    4.1358    4.2885   13.4665 N   0  0  0  0  0  0  0  0  0  0  0  0
    5.0279    5.2234   11.3960 N   0  0  0  0  0  0  0  0  0  0  0  0
    5.2799    6.6201   11.1230 C   0  0  0  0  0  0  0  0  0  0  0  0
    6.7812    6.7773   11.0070 C   0  0  0  0  0  0  0  0  0  0  0  0
    7.3527    5.9838   10.0430 O   0  0  0  0  0  0  0  0  0  0  0  0
    6.5462    4.9705    9.5883 C   0  0  0  0  0  0  0  0  0  0  0  0
    5.8715    4.2411   10.7564 C   0  0  0  0  0  0  0  0  0  0  0  0
    4.0349    0.9410   18.9457 N   0  0  0  0  0  0  0  0  0  0  0  0
    4.1243   -0.0947   18.8667 H   0  0  0  0  0  0  0  0  0  0  0  0
    4.1440    1.5319   20.2434 C   0  0  0  0  0  0  0  0  0  0  0  0
    4.8681    0.6388   21.1884 C   0  0  0  0  0  0  0  0  0  0  0  0
    6.1662    2.5681   21.9155 C   0  0  0  0  0  0  0  0  0  0  0  0
    6.2967    1.1492   21.3986 C   0  0  0  0  0  0  0  0  0  0  0  0
    5.1895    4.7723   16.3432 N   0  0  0  0  0  0  0  0  0  0  0  0
    6.1080    4.7712   15.8715 H   0  0  0  0  0  0  0  0  0  0  0  0
    4.8270    6.0535   16.9510 C   0  0  0  0  0  0  0  0  0  0  0  0
    3.4148    6.0174   17.5231 C   0  0  0  0  0  0  0  0  0  0  0  0
    3.4599    6.7964   18.8448 C   0  0  0  0  0  0  0  0  0  0  0  0
    4.1772    5.9058   19.8359 C   0  0  0  0  0  0  0  0  0  0  0  0
    4.2078    6.4726   21.1077 O   0  0  0  0  0  0  0  0  0  0  0  0
    5.5563    5.6316   19.3084 C   0  0  0  0  0  0  0  0  0  0  0  0
    5.8458    6.3709   18.0102 C   0  0  0  0  0  0  0  0  0  0  0  0
    4.9030    6.0617   21.6603 H   0  0  0  0  0  0  0  0  0  0  0  0
 23 24  1  0  0  0
 24 22  1  0  0  0
 22 21  1  0  0  0
 21 19  1  0  0  0
 19  1  1  0  0  0
  1  2  2  0  0  0
  2  3  1  0  0  0
  3  4  2  0  0  0
  4  5  1  0  0  0
  5 25  1  0  0  0
 25 27  1  0  0  0
 27 28  1  0  0  0
 28 29  1  0  0  0
 29 30  1  0  0  0
 30 31  1  0  0  0
 30 32  1  0  0  0
 32 33  1  0  0  0
  5  6  2  0  0  0
  4  7  1  0  0  0
  7  8  2  0  0  0
  8  9  1  0  0  0
  9 10  2  0  0  0
 10 11  1  0  0  0
 11 12  2  0  0  0
 11 13  1  0  0  0
 13 14  1  0  0  0
 14 15  1  0  0  0
 15 16  1  0  0  0
 16 17  1  0  0  0
 17 18  1  0  0  0
  6  1  1  0  0  0
 12  7  1  0  0  0
 18 13  1  0  0  0
 33 27  1  0  0  0
 19 20  1  0  0  0
 25 26  1  0  0  0
 31 34  1  0  0  0
M  END
> <minimizedAffinity>
-7.36026

> <CNNscore>
0.4151495397

> <CNNaffinity>
6.6396818161

> <CNN_VS>
2.7564609051

> <CNNaffinity_variance>
0.3255362213

$$$$
[H]O[C@]1([H])C([H])([H])C([H])([H])[C@@]([H])(N([H])c2nc(N([H])C([H])([H])C([H])([H])C([H])([H])C([H])([H])[H])nc([H])c2-c2nc(N3C([H])([H])C([H])([H])OC([H])([H])C3([H])[H])c([H])nc2[H])C([H])([H])C1([H])[H]


 34 37  0  0  0  0  0  0  0  0999 V2000
    3.9669    1.8874   18.3070 C   0  0  0  0  0  0  0  0  0  0  0  0
    3.2294    1.3244   17.3533 N   0  0  0  0  0  0  0  0  0  0  0  0
    3.0241    1.8144   16.1348 C   0  0  0  0  0  0  0  0  0  0  0  0
    3.6475    3.0489   15.8230 C   0  0  0  0  0  0  0  0  0  0  0  0
    4.4208    3.6637   16.7731 C   0  0  0  0  0  0  0  0  0  0  0  0
    4.5575    3.0742   17.9788 N   0  0  0  0  0  0  0  0  0  0  0  0
    3.3919    3.5230   14.4879 C   0  0  0  0  0  0  0  0  0  0  0  0
    3.3601    4.8404   14.1676 C   0  0  0  0  0  0  0  0  0  0  0  0
    3.0274    5.2438   12.9022 N   0  0  0  0  0  0  0  0  0  0  0  0
    2.7299    4.3149   11.9781 C   0  0  0  0  0  0  0  0  0  0  0  0
    2.7504    2.9613   12.2703 C   0  0  0  0  0  0  0  0  0  0  0  0
    3.0842    2.6382   13.5230 N   0  0  0  0  0  0  0  0  0  0  0  0
    2.4257    2.0372   11.2510 N   0  0  0  0  0  0  0  0  0  0  0  0
    1.1330    1.3908   11.2569 C   0  0  0  0  0  0  0  0  0  0  0  0
    0.7060    1.2579    9.8106 C   0  0  0  0  0  0  0  0  0  0  0  0
    1.5934    0.5607    9.0283 O   0  0  0  0  0  0  0  0  0  0  0  0
    2.8356    0.3934    9.5875 C   0  0  0  0  0  0  0  0  0  0  0  0
    3.3473    1.7080   10.1889 C   0  0  0  0  0  0  0  0  0  0  0  0
    4.1560    1.3277   19.5960 N   0  0  0  0  0  0  0  0  0  0  0  0
    3.4284    0.6887   19.9822 H   0  0  0  0  0  0  0  0  0  0  0  0
    5.3084    1.6024   20.3971 C   0  0  0  0  0  0  0  0  0  0  0  0
    5.0704    2.7470   21.3179 C   0  0  0  0  0  0  0  0  0  0  0  0
    3.8558    3.5356   23.2772 C   0  0  0  0  0  0  0  0  0  0  0  0
    4.2679    2.2794   22.5357 C   0  0  0  0  0  0  0  0  0  0  0  0
    5.1946    4.8335   16.5275 N   0  0  0  0  0  0  0  0  0  0  0  0
    5.8232    4.9808   15.7217 H   0  0  0  0  0  0  0  0  0  0  0  0
    5.1856    5.9342   17.4923 C   0  0  0  0  0  0  0  0  0  0  0  0
    6.6000    6.3975   17.8201 C   0  0  0  0  0  0  0  0  0  0  0  0
    6.5443    7.9279   17.9238 C   0  0  0  0  0  0  0  0  0  0  0  0
    6.4112    8.4429   16.5071 C   0  0  0  0  0  0  0  0  0  0  0  0
    6.4351    9.8347   16.4619 O   0  0  0  0  0  0  0  0  0  0  0  0
    5.1476    7.8821   15.9203 C   0  0  0  0  0  0  0  0  0  0  0  0
    4.3564    7.0492   16.9183 C   0  0  0  0  0  0  0  0  0  0  0  0
    6.0611   10.1666   15.6208 H   0  0  0  0  0  0  0  0  0  0  0  0
 23 24  1  0  0  0
 24 22  1  0  0  0
 22 21  1  0  0  0
 21 19  1  0  0  0
 19  1  1  0  0  0
  1  2  2  0  0  0
  2  3  1  0  0  0
  3  4  2  0  0  0
  4  5  1  0  0  0
  5 25  1  0  0  0
 25 27  1  0  0  0
 27 28  1  0  0  0
 28 29  1  0  0  0
 29 30  1  0  0  0
 30 31  1  0  0  0
 30 32  1  0  0  0
 32 33  1  0  0  0
  5  6  2  0  0  0
  4  7  1  0  0  0
  7  8  2  0  0  0
  8  9  1  0  0  0
  9 10  2  0  0  0
 10 11  1  0  0  0
 11 12  2  0  0  0
 11 13  1  0  0  0
 13 14  1  0  0  0
 14 15  1  0  0  0
 15 16  1  0  0  0
 16 17  1  0  0  0
 17 18  1  0  0  0
  6  1  1  0  0  0
 12  7  1  0  0  0
 18 13  1  0  0  0
 33 27  1  0  0  0
 19 20  1  0  0  0
 25 26  1  0  0  0
 31 34  1  0  0  0
M  END
> <minimizedAffinity>
-6.40845

> <CNNscore>
0.4082670510

> <CNNaffinity>
6.7767295837

> <CNN_VS>
2.7667152882

> <CNNaffinity_variance>
0.4068475664

$$$$
[H]c1nc(-c2c([H])nc(N([H])C([H])([H])C([H])([H])C([H])([H])C([H])([H])[H])nc2N([H])[C@]2([H])C([H])([H])C([H])([H])[C@@]([H])(C([H])([H])N([H])[H])C([H])([H])C2([H])[H])c([H])c([H])c1[H]


 30 32  0  0  0  0  0  0  0  0999 V2000
    2.9735    0.6339   17.7378 C   0  0  0  0  0  0  0  0  0  0  0  0
    2.6296   -0.1153   18.7852 N   0  0  0  0  0  0  0  0  0  0  0  0
    3.0723    0.1131   19.9996 C   0  0  0  0  0  0  0  0  0  0  0  0
    3.9488    1.1885   20.2342 C   0  0  0  0  0  0  0  0  0  0  0  0
    4.3025    1.9611   19.1757 C   0  0  0  0  0  0  0  0  0  0  0  0
    3.7971    1.6534   17.9401 N   0  0  0  0  0  0  0  0  0  0  0  0
    4.4104    1.4189   21.5910 C   0  0  0  0  0  0  0  0  0  0  0  0
    3.6987    1.4001   22.7462 C   0  0  0  0  0  0  0  0  0  0  0  0
    4.2575    1.7277   23.9926 C   0  0  0  0  0  0  0  0  0  0  0  0
    5.5808    2.0899   24.0839 C   0  0  0  0  0  0  0  0  0  0  0  0
    6.2841    2.1040   22.8989 C   0  0  0  0  0  0  0  0  0  0  0  0
    5.7262    1.7863   21.7244 N   0  0  0  0  0  0  0  0  0  0  0  0
    2.4732    0.3451   16.4594 N   0  0  0  0  0  0  0  0  0  0  0  0
    2.4373   -0.6346   16.1193 H   0  0  0  0  0  0  0  0  0  0  0  0
    2.0065    1.4250   15.6159 C   0  0  0  0  0  0  0  0  0  0  0  0
    2.9397    1.6063   14.4386 C   0  0  0  0  0  0  0  0  0  0  0  0
    3.0844    3.2725   12.6556 C   0  0  0  0  0  0  0  0  0  0  0  0
    2.1457    2.3116   13.3560 C   0  0  0  0  0  0  0  0  0  0  0  0
    5.0576    3.1513   19.2312 N   0  0  0  0  0  0  0  0  0  0  0  0
    5.6755    3.3754   20.0051 H   0  0  0  0  0  0  0  0  0  0  0  0
    4.9277    4.1399   18.1912 C   0  0  0  0  0  0  0  0  0  0  0  0
    4.8785    3.4868   16.8080 C   0  0  0  0  0  0  0  0  0  0  0  0
    4.6381    4.6041   15.8335 C   0  0  0  0  0  0  0  0  0  0  0  0
    3.1936    5.0257   15.9326 C   0  0  0  0  0  0  0  0  0  0  0  0
    2.6712    4.7464   17.2996 C   0  0  0  0  0  0  0  0  0  0  0  0
    3.6801    4.9802   18.4109 C   0  0  0  0  0  0  0  0  0  0  0  0
    3.0859    6.4939   15.5592 C   0  0  0  0  0  0  0  0  0  0  0  0
    4.4201    7.0162   15.3391 N   0  0  0  0  0  0  0  0  0  0  0  0
    5.0727    6.2260   15.2017 H   0  0  0  0  0  0  0  0  0  0  0  0
    4.4524    7.7150   14.5634 H   0  0  0  0  0  0  0  0  0  0  0  0
 17 18  1  0  0  0
 18 16  1  0  0  0
 16 15  1  0  0  0
 15 13  1  0  0  0
 13  1  1  0  0  0
  1  2  2  0  0  0
  2  3  1  0  0  0
  3  4  2  0  0  0
  4  5  1  0  0  0
  5 19  1  0  0  0
 19 21  1  0  0  0
 21 22  1  0  0  0
 22 23  1  0  0  0
 23 24  1  0  0  0
 24 27  1  0  0  0
 27 28  1  0  0  0
 24 25  1  0  0  0
 25 26  1  0  0  0
  5  6  2  0  0  0
  4  7  1  0  0  0
  7  8  2  0  0  0
  8  9  1  0  0  0
  9 10  2  0  0  0
 10 11  1  0  0  0
 11 12  2  0  0  0
  6  1  1  0  0  0
 12  7  1  0  0  0
 26 21  1  0  0  0
 13 14  1  0  0  0
 19 20  1  0  0  0
 28 29  1  0  0  0
 28 30  1  0  0  0
M  END
> <minimizedAffinity>
-6.83414

> <CNNscore>
0.8445122838

> <CNNaffinity>
7.1026077271

> <CNN_VS>
5.9982395172

> <CNNaffinity_variance>
0.1810621768

$$$$
[H]c1nc(-c2c([H])nc(N([H])C([H])([H])C([H])([H])C([H])([H])C([H])([H])[H])nc2N([H])[C@]2([H])C([H])([H])C([H])([H])[C@@]([H])(C([H])([H])N([H])[H])C([H])([H])C2([H])[H])c([H])c([H])c1[H]


 30 32  0  0  0  0  0  0  0  0999 V2000
    2.9558    0.6997   17.4466 C   0  0  0  0  0  0  0  0  0  0  0  0
    2.5767   -0.0200   18.5025 N   0  0  0  0  0  0  0  0  0  0  0  0
    3.0401    0.1924   19.7120 C   0  0  0  0  0  0  0  0  0  0  0  0
    3.9786    1.2175   19.9319 C   0  0  0  0  0  0  0  0  0  0  0  0
    4.3687    1.9598   18.8647 C   0  0  0  0  0  0  0  0  0  0  0  0
    3.8381    1.6718   17.6350 N   0  0  0  0  0  0  0  0  0  0  0  0
    4.4619    1.4318   21.2838 C   0  0  0  0  0  0  0  0  0  0  0  0
    3.7589    1.4580   22.4442 C   0  0  0  0  0  0  0  0  0  0  0  0
    4.3436    1.7636   23.6843 C   0  0  0  0  0  0  0  0  0  0  0  0
    5.6848    2.0561   23.7635 C   0  0  0  0  0  0  0  0  0  0  0  0
    6.3789    2.0256   22.5734 C   0  0  0  0  0  0  0  0  0  0  0  0
    5.7962    1.7302   21.4052 N   0  0  0  0  0  0  0  0  0  0  0  0
    2.4310    0.4299   16.1739 N   0  0  0  0  0  0  0  0  0  0  0  0
    2.3491   -0.5482   15.8370 H   0  0  0  0  0  0  0  0  0  0  0  0
    2.0037    1.5270   15.3318 C   0  0  0  0  0  0  0  0  0  0  0  0
    3.0745    1.8476   14.3117 C   0  0  0  0  0  0  0  0  0  0  0  0
    3.8979    3.9879   13.4648 C   0  0  0  0  0  0  0  0  0  0  0  0
    2.6563    3.1357   13.6291 C   0  0  0  0  0  0  0  0  0  0  0  0
    5.1913    3.1051   18.9053 N   0  0  0  0  0  0  0  0  0  0  0  0
    6.1850    3.0619   19.1093 H   0  0  0  0  0  0  0  0  0  0  0  0
    4.6204    4.4135   18.7108 C   0  0  0  0  0  0  0  0  0  0  0  0
    3.8538    4.8744   19.9526 C   0  0  0  0  0  0  0  0  0  0  0  0
    3.4044    6.2777   19.6616 C   0  0  0  0  0  0  0  0  0  0  0  0
    4.5937    7.1974   19.7796 C   0  0  0  0  0  0  0  0  0  0  0  0
    5.8483    6.4538   19.4751 C   0  0  0  0  0  0  0  0  0  0  0  0
    5.7066    5.4209   18.3703 C   0  0  0  0  0  0  0  0  0  0  0  0
    4.3858    8.3864   18.8579 C   0  0  0  0  0  0  0  0  0  0  0  0
    3.1428    9.0403   19.2165 N   0  0  0  0  0  0  0  0  0  0  0  0
    2.8614    8.7329   20.1629 H   0  0  0  0  0  0  0  0  0  0  0  0
    3.1960   10.0791   19.1210 H   0  0  0  0  0  0  0  0  0  0  0  0
 17 18  1  0  0  0
 18 16  1  0  0  0
 16 15  1  0  0  0
 15 13  1  0  0  0
 13  1  1  0  0  0
  1  2  2  0  0  0
  2  3  1  0  0  0
  3  4  2  0  0  0
  4  5  1  0  0  0
  5 19  1  0  0  0
 19 21  1  0  0  0
 21 22  1  0  0  0
 22 23  1  0  0  0
 23 24  1  0  0  0
 24 27  1  0  0  0
 27 28  1  0  0  0
 24 25  1  0  0  0
 25 26  1  0  0  0
  5  6  2  0  0  0
  4  7  1  0  0  0
  7  8  2  0  0  0
  8  9  1  0  0  0
  9 10  2  0  0  0
 10 11  1  0  0  0
 11 12  2  0  0  0
  6  1  1  0  0  0
 12  7  1  0  0  0
 26 21  1  0  0  0
 13 14  1  0  0  0
 19 20  1  0  0  0
 28 29  1  0  0  0
 28 30  1  0  0  0
M  END
> <minimizedAffinity>
-7.64719

> <CNNscore>
0.8141655922

> <CNNaffinity>
7.1035041809

> <CNN_VS>
5.7834286690

> <CNNaffinity_variance>
0.1262717694

$$$$
[H]c1nc(-c2c([H])nc(N([H])C([H])([H])C([H])([H])C([H])([H])C([H])([H])[H])nc2N([H])[C@]2([H])C([H])([H])C([H])([H])[C@@]([H])(C([H])([H])N([H])[H])C([H])([H])C2([H])[H])c([H])c([H])c1[H]


 30 32  0  0  0  0  0  0  0  0999 V2000
    3.1237    2.5349   14.6120 C   0  0  0  0  0  0  0  0  0  0  0  0
    2.4338    1.5278   15.1473 N   0  0  0  0  0  0  0  0  0  0  0  0
    2.6253    1.1080   16.3761 C   0  0  0  0  0  0  0  0  0  0  0  0
    3.5941    1.7297   17.1852 C   0  0  0  0  0  0  0  0  0  0  0  0
    4.2997    2.7594   16.6521 C   0  0  0  0  0  0  0  0  0  0  0  0
    4.0396    3.1347   15.3604 N   0  0  0  0  0  0  0  0  0  0  0  0
    3.7720    1.2471   18.5426 C   0  0  0  0  0  0  0  0  0  0  0  0
    4.7676    1.5270   19.4211 C   0  0  0  0  0  0  0  0  0  0  0  0
    4.8647    0.9194   20.6839 C   0  0  0  0  0  0  0  0  0  0  0  0
    3.9281   -0.0060   21.0802 C   0  0  0  0  0  0  0  0  0  0  0  0
    2.9273   -0.2764   20.1723 C   0  0  0  0  0  0  0  0  0  0  0  0
    2.8586    0.3183   18.9752 N   0  0  0  0  0  0  0  0  0  0  0  0
    2.8813    2.9433   13.2920 N   0  0  0  0  0  0  0  0  0  0  0  0
    3.1949    3.8772   12.9660 H   0  0  0  0  0  0  0  0  0  0  0  0
    2.1891    2.0517   12.3857 C   0  0  0  0  0  0  0  0  0  0  0  0
    2.7600    2.1819   10.9904 C   0  0  0  0  0  0  0  0  0  0  0  0
    0.8291    0.7846   10.4471 C   0  0  0  0  0  0  0  0  0  0  0  0
    2.3175    0.9525   10.2205 C   0  0  0  0  0  0  0  0  0  0  0  0
    5.2112    3.5868   17.3410 N   0  0  0  0  0  0  0  0  0  0  0  0
    6.0709    3.2358   17.7517 H   0  0  0  0  0  0  0  0  0  0  0  0
    4.9145    4.9826   17.5391 C   0  0  0  0  0  0  0  0  0  0  0  0
    3.7073    5.1676   18.4614 C   0  0  0  0  0  0  0  0  0  0  0  0
    3.5708    6.6489   18.6689 C   0  0  0  0  0  0  0  0  0  0  0  0
    4.6498    7.1024   19.6198 C   0  0  0  0  0  0  0  0  0  0  0  0
    5.8310    6.1996   19.5225 C   0  0  0  0  0  0  0  0  0  0  0  0
    6.1213    5.7047   18.1159 C   0  0  0  0  0  0  0  0  0  0  0  0
    4.9977    8.5482   19.3112 C   0  0  0  0  0  0  0  0  0  0  0  0
    6.2753    8.8589   19.9214 N   0  0  0  0  0  0  0  0  0  0  0  0
    6.7609    7.9761   20.1542 H   0  0  0  0  0  0  0  0  0  0  0  0
    6.8521    9.5024   19.3347 H   0  0  0  0  0  0  0  0  0  0  0  0
 17 18  1  0  0  0
 18 16  1  0  0  0
 16 15  1  0  0  0
 15 13  1  0  0  0
 13  1  1  0  0  0
  1  2  2  0  0  0
  2  3  1  0  0  0
  3  4  2  0  0  0
  4  5  1  0  0  0
  5 19  1  0  0  0
 19 21  1  0  0  0
 21 22  1  0  0  0
 22 23  1  0  0  0
 23 24  1  0  0  0
 24 27  1  0  0  0
 27 28  1  0  0  0
 24 25  1  0  0  0
 25 26  1  0  0  0
  5  6  2  0  0  0
  4  7  1  0  0  0
  7  8  2  0  0  0
  8  9  1  0  0  0
  9 10  2  0  0  0
 10 11  1  0  0  0
 11 12  2  0  0  0
  6  1  1  0  0  0
 12  7  1  0  0  0
 26 21  1  0  0  0
 13 14  1  0  0  0
 19 20  1  0  0  0
 28 29  1  0  0  0
 28 30  1  0  0  0
M  END
> <minimizedAffinity>
-6.55925

> <CNNscore>
0.7659781575

> <CNNaffinity>
6.5984869003

> <CNN_VS>
5.0542969704

> <CNNaffinity_variance>
0.2699465156

$$$$
[H]c1nc(-c2c([H])nc(N([H])C([H])([H])C([H])([H])C([H])([H])C([H])([H])[H])nc2N([H])[C@]2([H])C([H])([H])C([H])([H])[C@@]([H])(C([H])([H])N([H])[H])C([H])([H])C2([H])[H])c([H])c([H])c1[H]


 30 32  0  0  0  0  0  0  0  0999 V2000
    3.8331    1.2749   18.6365 C   0  0  0  0  0  0  0  0  0  0  0  0
    3.2111    0.5287   17.7239 N   0  0  0  0  0  0  0  0  0  0  0  0
    3.0334    0.9219   16.4842 C   0  0  0  0  0  0  0  0  0  0  0  0
    3.5098    2.1808   16.0742 C   0  0  0  0  0  0  0  0  0  0  0  0
    4.1488    2.9475   16.9940 C   0  0  0  0  0  0  0  0  0  0  0  0
    4.2910    2.4636   18.2678 N   0  0  0  0  0  0  0  0  0  0  0  0
    3.3056    2.5792   14.6934 C   0  0  0  0  0  0  0  0  0  0  0  0
    2.5858    1.9568   13.7261 C   0  0  0  0  0  0  0  0  0  0  0  0
    2.5414    2.4092   12.3970 C   0  0  0  0  0  0  0  0  0  0  0  0
    3.2477    3.5281   12.0230 C   0  0  0  0  0  0  0  0  0  0  0  0
    3.9730    4.1432   13.0203 C   0  0  0  0  0  0  0  0  0  0  0  0
    3.9968    3.6907   14.2798 N   0  0  0  0  0  0  0  0  0  0  0  0
    3.9949    0.8080   19.9495 N   0  0  0  0  0  0  0  0  0  0  0  0
    4.2286   -0.1873   20.1271 H   0  0  0  0  0  0  0  0  0  0  0  0
    3.8333    1.7257   21.0573 C   0  0  0  0  0  0  0  0  0  0  0  0
    4.8984    1.4729   22.1021 C   0  0  0  0  0  0  0  0  0  0  0  0
    5.8349    3.6517   21.5091 C   0  0  0  0  0  0  0  0  0  0  0  0
    6.1546    2.1754   21.6244 C   0  0  0  0  0  0  0  0  0  0  0  0
    4.8071    4.1698   16.7440 N   0  0  0  0  0  0  0  0  0  0  0  0
    5.5724    4.2573   16.0825 H   0  0  0  0  0  0  0  0  0  0  0  0
    4.4429    5.3522   17.4822 C   0  0  0  0  0  0  0  0  0  0  0  0
    5.6399    5.9173   18.2502 C   0  0  0  0  0  0  0  0  0  0  0  0
    5.1584    7.1912   18.8837 C   0  0  0  0  0  0  0  0  0  0  0  0
    5.0581    8.2511   17.8157 C   0  0  0  0  0  0  0  0  0  0  0  0
    4.8003    7.6203   16.4908 C   0  0  0  0  0  0  0  0  0  0  0  0
    3.8830    6.4107   16.5457 C   0  0  0  0  0  0  0  0  0  0  0  0
    3.9743    9.2399   18.2082 C   0  0  0  0  0  0  0  0  0  0  0  0
    3.2188    8.6861   19.3144 N   0  0  0  0  0  0  0  0  0  0  0  0
    3.7646    7.9208   19.7453 H   0  0  0  0  0  0  0  0  0  0  0  0
    2.9224    9.4158   20.0005 H   0  0  0  0  0  0  0  0  0  0  0  0
 17 18  1  0  0  0
 18 16  1  0  0  0
 16 15  1  0  0  0
 15 13  1  0  0  0
 13  1  1  0  0  0
  1  2  2  0  0  0
  2  3  1  0  0  0
  3  4  2  0  0  0
  4  5  1  0  0  0
  5 19  1  0  0  0
 19 21  1  0  0  0
 21 22  1  0  0  0
 22 23  1  0  0  0
 23 24  1  0  0  0
 24 27  1  0  0  0
 27 28  1  0  0  0
 24 25  1  0  0  0
 25 26  1  0  0  0
  5  6  2  0  0  0
  4  7  1  0  0  0
  7  8  2  0  0  0
  8  9  1  0  0  0
  9 10  2  0  0  0
 10 11  1  0  0  0
 11 12  2  0  0  0
  6  1  1  0  0  0
 12  7  1  0  0  0
 26 21  1  0  0  0
 13 14  1  0  0  0
 19 20  1  0  0  0
 28 29  1  0  0  0
 28 30  1  0  0  0
M  END
> <minimizedAffinity>
-7.03960

> <CNNscore>
0.6758962274

> <CNNaffinity>
6.9197454453

> <CNN_VS>
4.6770296097

> <CNNaffinity_variance>
0.5273591876

$$$$
[H]c1nc(-c2c([H])nc(N([H])C([H])([H])C([H])([H])C([H])([H])C([H])([H])[H])nc2N([H])[C@]2([H])C([H])([H])C([H])([H])[C@@]([H])(C([H])([H])N([H])[H])C([H])([H])C2([H])[H])c([H])c([H])c1[H]


 30 32  0  0  0  0  0  0  0  0999 V2000
    4.1476    1.2506   19.7220 C   0  0  0  0  0  0  0  0  0  0  0  0
    3.3216    0.5753   18.9230 N   0  0  0  0  0  0  0  0  0  0  0  0
    3.0894    0.9260   17.6797 C   0  0  0  0  0  0  0  0  0  0  0  0
    3.7264    2.0593   17.1415 C   0  0  0  0  0  0  0  0  0  0  0  0
    4.5732    2.7522   17.9446 C   0  0  0  0  0  0  0  0  0  0  0  0
    4.7589    2.3203   19.2314 N   0  0  0  0  0  0  0  0  0  0  0  0
    3.4550    2.4121   15.7598 C   0  0  0  0  0  0  0  0  0  0  0  0
    2.9040    1.6517   14.7803 C   0  0  0  0  0  0  0  0  0  0  0  0
    2.7756    2.0923   13.4527 C   0  0  0  0  0  0  0  0  0  0  0  0
    3.2188    3.3433   13.0931 C   0  0  0  0  0  0  0  0  0  0  0  0
    3.7764    4.0976   14.1025 C   0  0  0  0  0  0  0  0  0  0  0  0
    3.8855    3.6528   15.3602 N   0  0  0  0  0  0  0  0  0  0  0  0
    4.3593    0.8342   21.0448 N   0  0  0  0  0  0  0  0  0  0  0  0
    5.0348    0.0747   21.2539 H   0  0  0  0  0  0  0  0  0  0  0  0
    3.6276    1.4722   22.1187 C   0  0  0  0  0  0  0  0  0  0  0  0
    4.5701    1.8395   23.2441 C   0  0  0  0  0  0  0  0  0  0  0  0
    3.5551    4.0626   23.3063 C   0  0  0  0  0  0  0  0  0  0  0  0
    4.8608    3.3214   23.1046 C   0  0  0  0  0  0  0  0  0  0  0  0
    5.3986    3.8266   17.5517 N   0  0  0  0  0  0  0  0  0  0  0  0
    6.2185    3.7048   16.9655 H   0  0  0  0  0  0  0  0  0  0  0  0
    5.1297    5.1585   18.0309 C   0  0  0  0  0  0  0  0  0  0  0  0
    3.7551    5.2409   18.6987 C   0  0  0  0  0  0  0  0  0  0  0  0
    3.6441    6.6369   19.2415 C   0  0  0  0  0  0  0  0  0  0  0  0
    4.4999    6.7408   20.4788 C   0  0  0  0  0  0  0  0  0  0  0  0
    5.6293    5.7721   20.4034 C   0  0  0  0  0  0  0  0  0  0  0  0
    6.2070    5.5977   19.0093 C   0  0  0  0  0  0  0  0  0  0  0  0
    4.9752    8.1758   20.6257 C   0  0  0  0  0  0  0  0  0  0  0  0
    4.6407    8.6419   21.9569 N   0  0  0  0  0  0  0  0  0  0  0  0
    4.4382    7.8256   22.5586 H   0  0  0  0  0  0  0  0  0  0  0  0
    5.3717    9.2735   22.3541 H   0  0  0  0  0  0  0  0  0  0  0  0
 17 18  1  0  0  0
 18 16  1  0  0  0
 16 15  1  0  0  0
 15 13  1  0  0  0
 13  1  1  0  0  0
  1  2  2  0  0  0
  2  3  1  0  0  0
  3  4  2  0  0  0
  4  5  1  0  0  0
  5 19  1  0  0  0
 19 21  1  0  0  0
 21 22  1  0  0  0
 22 23  1  0  0  0
 23 24  1  0  0  0
 24 27  1  0  0  0
 27 28  1  0  0  0
 24 25  1  0  0  0
 25 26  1  0  0  0
  5  6  2  0  0  0
  4  7  1  0  0  0
  7  8  2  0  0  0
  8  9  1  0  0  0
  9 10  2  0  0  0
 10 11  1  0  0  0
 11 12  2  0  0  0
  6  1  1  0  0  0
 12  7  1  0  0  0
 26 21  1  0  0  0
 13 14  1  0  0  0
 19 20  1  0  0  0
 28 29  1  0  0  0
 28 30  1  0  0  0
M  END
> <minimizedAffinity>
-7.90510

> <CNNscore>
0.4922021925

> <CNNaffinity>
6.7382841110

> <CNN_VS>
3.3165981770

> <CNNaffinity_variance>
0.4261438251

$$$$
[H]c1nc(-c2c([H])nc(N([H])C([H])([H])C([H])([H])C([H])([H])C([H])([H])[H])nc2N([H])[C@]2([H])C([H])([H])C([H])([H])[C@@]([H])(C([H])([H])N([H])[H])C([H])([H])C2([H])[H])c([H])c([H])c1[H]


 30 32  0  0  0  0  0  0  0  0999 V2000
    3.1490    2.6742   14.8363 C   0  0  0  0  0  0  0  0  0  0  0  0
    2.4405    1.6238   15.2501 N   0  0  0  0  0  0  0  0  0  0  0  0
    2.5970    1.0823   16.4355 C   0  0  0  0  0  0  0  0  0  0  0  0
    3.5466    1.6133   17.3277 C   0  0  0  0  0  0  0  0  0  0  0  0
    4.2710    2.6858   16.9186 C   0  0  0  0  0  0  0  0  0  0  0  0
    4.0473    3.1898   15.6645 N   0  0  0  0  0  0  0  0  0  0  0  0
    3.6859    0.9966   18.6344 C   0  0  0  0  0  0  0  0  0  0  0  0
    2.8401    0.1451   19.2675 C   0  0  0  0  0  0  0  0  0  0  0  0
    3.0573   -0.3134   20.5773 C   0  0  0  0  0  0  0  0  0  0  0  0
    4.1647    0.0994   21.2801 C   0  0  0  0  0  0  0  0  0  0  0  0
    5.0089    0.9650   20.6192 C   0  0  0  0  0  0  0  0  0  0  0  0
    4.7778    1.3856   19.3696 N   0  0  0  0  0  0  0  0  0  0  0  0
    2.9439    3.2138   13.5577 N   0  0  0  0  0  0  0  0  0  0  0  0
    3.6545    3.0826   12.8129 H   0  0  0  0  0  0  0  0  0  0  0  0
    1.7320    3.9565   13.2834 C   0  0  0  0  0  0  0  0  0  0  0  0
    1.9985    5.4427   13.3840 C   0  0  0  0  0  0  0  0  0  0  0  0
   -0.0181    6.7043   13.9475 C   0  0  0  0  0  0  0  0  0  0  0  0
    0.7900    6.1443   12.7950 C   0  0  0  0  0  0  0  0  0  0  0  0
    5.1675    3.4338   17.7103 N   0  0  0  0  0  0  0  0  0  0  0  0
    6.0598    3.0671   18.0268 H   0  0  0  0  0  0  0  0  0  0  0  0
    4.8097    4.7566   18.1552 C   0  0  0  0  0  0  0  0  0  0  0  0
    3.7146    4.7053   19.2232 C   0  0  0  0  0  0  0  0  0  0  0  0
    3.5113    6.1239   19.6728 C   0  0  0  0  0  0  0  0  0  0  0  0
    4.6673    6.5181   20.5573 C   0  0  0  0  0  0  0  0  0  0  0  0
    5.8824    5.7380   20.1901 C   0  0  0  0  0  0  0  0  0  0  0  0
    6.0298    5.4810   18.7002 C   0  0  0  0  0  0  0  0  0  0  0  0
    4.8831    8.0169   20.4413 C   0  0  0  0  0  0  0  0  0  0  0  0
    4.5600    8.6325   21.7132 N   0  0  0  0  0  0  0  0  0  0  0  0
    4.5499    7.9040   22.4471 H   0  0  0  0  0  0  0  0  0  0  0  0
    5.1892    9.4349   21.9398 H   0  0  0  0  0  0  0  0  0  0  0  0
 17 18  1  0  0  0
 18 16  1  0  0  0
 16 15  1  0  0  0
 15 13  1  0  0  0
 13  1  1  0  0  0
  1  2  2  0  0  0
  2  3  1  0  0  0
  3  4  2  0  0  0
  4  5  1  0  0  0
  5 19  1  0  0  0
 19 21  1  0  0  0
 21 22  1  0  0  0
 22 23  1  0  0  0
 23 24  1  0  0  0
 24 27  1  0  0  0
 27 28  1  0  0  0
 24 25  1  0  0  0
 25 26  1  0  0  0
  5  6  2  0  0  0
  4  7  1  0  0  0
  7  8  2  0  0  0
  8  9  1  0  0  0
  9 10  2  0  0  0
 10 11  1  0  0  0
 11 12  2  0  0  0
  6  1  1  0  0  0
 12  7  1  0  0  0
 26 21  1  0  0  0
 13 14  1  0  0  0
 19 20  1  0  0  0
 28 29  1  0  0  0
 28 30  1  0  0  0
M  END
> <minimizedAffinity>
-7.11279

> <CNNscore>
0.4026988149

> <CNNaffinity>
6.3358964920

> <CNN_VS>
2.5514581203

> <CNNaffinity_variance>
0.1649248302

$$$$
[H]c1nc(-c2c([H])nc(N([H])C([H])([H])C([H])([H])C([H])([H])C([H])([H])[H])nc2N([H])[C@]2([H])C([H])([H])C([H])([H])[C@@]([H])(C([H])([H])N([H])[H])C([H])([H])C2([H])[H])c([H])c([H])c1[H]


 30 32  0  0  0  0  0  0  0  0999 V2000
    4.1601    1.5906   19.3217 C   0  0  0  0  0  0  0  0  0  0  0  0
    3.7141    1.0059   18.2101 N   0  0  0  0  0  0  0  0  0  0  0  0
    3.4942    1.6667   17.0975 C   0  0  0  0  0  0  0  0  0  0  0  0
    3.7311    3.0528   17.0483 C   0  0  0  0  0  0  0  0  0  0  0  0
    4.1897    3.6582   18.1732 C   0  0  0  0  0  0  0  0  0  0  0  0
    4.3912    2.8962   19.2937 N   0  0  0  0  0  0  0  0  0  0  0  0
    3.4877    3.7503   15.7987 C   0  0  0  0  0  0  0  0  0  0  0  0
    3.8179    3.3753   14.5371 C   0  0  0  0  0  0  0  0  0  0  0  0
    3.5975    4.1919   13.4156 C   0  0  0  0  0  0  0  0  0  0  0  0
    3.0254    5.4333   13.5653 C   0  0  0  0  0  0  0  0  0  0  0  0
    2.6999    5.7945   14.8546 C   0  0  0  0  0  0  0  0  0  0  0  0
    2.9205    4.9957   15.9057 N   0  0  0  0  0  0  0  0  0  0  0  0
    4.3766    0.8381   20.4858 N   0  0  0  0  0  0  0  0  0  0  0  0
    3.9313   -0.0923   20.5992 H   0  0  0  0  0  0  0  0  0  0  0  0
    5.2270    1.3692   21.5299 C   0  0  0  0  0  0  0  0  0  0  0  0
    4.3829    1.9530   22.6419 C   0  0  0  0  0  0  0  0  0  0  0  0
    3.6764    4.1422   23.4692 C   0  0  0  0  0  0  0  0  0  0  0  0
    4.8178    3.3961   22.8092 C   0  0  0  0  0  0  0  0  0  0  0  0
    4.6082    5.0009   18.2825 N   0  0  0  0  0  0  0  0  0  0  0  0
    4.5216    5.6680   17.5220 H   0  0  0  0  0  0  0  0  0  0  0  0
    5.2422    5.4653   19.4900 C   0  0  0  0  0  0  0  0  0  0  0  0
    6.5646    6.1730   19.1854 C   0  0  0  0  0  0  0  0  0  0  0  0
    7.0649    6.6952   20.5018 C   0  0  0  0  0  0  0  0  0  0  0  0
    6.2471    7.9040   20.8815 C   0  0  0  0  0  0  0  0  0  0  0  0
    4.8864    7.8107   20.2820 C   0  0  0  0  0  0  0  0  0  0  0  0
    4.3167    6.4029   20.2483 C   0  0  0  0  0  0  0  0  0  0  0  0
    6.2077    8.0118   22.3959 C   0  0  0  0  0  0  0  0  0  0  0  0
    6.4222    6.6943   22.9610 N   0  0  0  0  0  0  0  0  0  0  0  0
    6.8306    6.0795   22.2368 H   0  0  0  0  0  0  0  0  0  0  0  0
    6.9857    6.7238   23.8401 H   0  0  0  0  0  0  0  0  0  0  0  0
 17 18  1  0  0  0
 18 16  1  0  0  0
 16 15  1  0  0  0
 15 13  1  0  0  0
 13  1  1  0  0  0
  1  2  2  0  0  0
  2  3  1  0  0  0
  3  4  2  0  0  0
  4  5  1  0  0  0
  5 19  1  0  0  0
 19 21  1  0  0  0
 21 22  1  0  0  0
 22 23  1  0  0  0
 23 24  1  0  0  0
 24 27  1  0  0  0
 27 28  1  0  0  0
 24 25  1  0  0  0
 25 26  1  0  0  0
  5  6  2  0  0  0
  4  7  1  0  0  0
  7  8  2  0  0  0
  8  9  1  0  0  0
  9 10  2  0  0  0
 10 11  1  0  0  0
 11 12  2  0  0  0
  6  1  1  0  0  0
 12  7  1  0  0  0
 26 21  1  0  0  0
 13 14  1  0  0  0
 19 20  1  0  0  0
 28 29  1  0  0  0
 28 30  1  0  0  0
M  END
> <minimizedAffinity>
-6.75586

> <CNNscore>
0.3669600785

> <CNNaffinity>
6.6192407608

> <CNN_VS>
2.4289970398

> <CNNaffinity_variance>
0.3599582314

$$$$
[H]c1nc(-c2c([H])nc(N([H])C([H])([H])C([H])([H])C([H])([H])C([H])([H])[H])nc2N([H])[C@]2([H])C([H])([H])C([H])([H])[C@@]([H])(C([H])([H])N([H])[H])C([H])([H])C2([H])[H])c([H])c([H])c1[H]


 30 32  0  0  0  0  0  0  0  0999 V2000
    4.6120    1.6252   20.4796 C   0  0  0  0  0  0  0  0  0  0  0  0
    3.9362    0.7630   19.7203 N   0  0  0  0  0  0  0  0  0  0  0  0
    3.5317    1.0502   18.5051 C   0  0  0  0  0  0  0  0  0  0  0  0
    3.8097    2.3153   17.9556 C   0  0  0  0  0  0  0  0  0  0  0  0
    4.5011    3.2000   18.7182 C   0  0  0  0  0  0  0  0  0  0  0  0
    4.8852    2.8219   19.9777 N   0  0  0  0  0  0  0  0  0  0  0  0
    3.3569    2.5955   16.6051 C   0  0  0  0  0  0  0  0  0  0  0  0
    3.4367    1.8102   15.5013 C   0  0  0  0  0  0  0  0  0  0  0  0
    3.0336    2.2416   14.2268 C   0  0  0  0  0  0  0  0  0  0  0  0
    2.5328    3.5102   14.0520 C   0  0  0  0  0  0  0  0  0  0  0  0
    2.4624    4.2909   15.1854 C   0  0  0  0  0  0  0  0  0  0  0  0
    2.8531    3.8538   16.3886 N   0  0  0  0  0  0  0  0  0  0  0  0
    5.0196    1.2685   21.7737 N   0  0  0  0  0  0  0  0  0  0  0  0
    5.9203    0.7751   21.9225 H   0  0  0  0  0  0  0  0  0  0  0  0
    4.1737    1.5938   22.9025 C   0  0  0  0  0  0  0  0  0  0  0  0
    4.7439    2.7754   23.6565 C   0  0  0  0  0  0  0  0  0  0  0  0
    4.2893    4.9989   22.7479 C   0  0  0  0  0  0  0  0  0  0  0  0
    3.7070    3.8799   23.5869 C   0  0  0  0  0  0  0  0  0  0  0  0
    4.9861    4.4568   18.2994 N   0  0  0  0  0  0  0  0  0  0  0  0
    5.3684    4.6181   17.3727 H   0  0  0  0  0  0  0  0  0  0  0  0
    5.0084    5.5665   19.2179 C   0  0  0  0  0  0  0  0  0  0  0  0
    6.3372    6.3221   19.1429 C   0  0  0  0  0  0  0  0  0  0  0  0
    6.1919    7.5026   20.0600 C   0  0  0  0  0  0  0  0  0  0  0  0
    5.3140    8.5281   19.3880 C   0  0  0  0  0  0  0  0  0  0  0  0
    4.3748    7.8590   18.4446 C   0  0  0  0  0  0  0  0  0  0  0  0
    3.8567    6.5162   18.9304 C   0  0  0  0  0  0  0  0  0  0  0  0
    4.5904    9.3283   20.4570 C   0  0  0  0  0  0  0  0  0  0  0  0
    4.5899    8.5640   21.6887 N   0  0  0  0  0  0  0  0  0  0  0  0
    5.3102    7.8246   21.6266 H   0  0  0  0  0  0  0  0  0  0  0  0
    4.6940    9.1687   22.5339 H   0  0  0  0  0  0  0  0  0  0  0  0
 17 18  1  0  0  0
 18 16  1  0  0  0
 16 15  1  0  0  0
 15 13  1  0  0  0
 13  1  1  0  0  0
  1  2  2  0  0  0
  2  3  1  0  0  0
  3  4  2  0  0  0
  4  5  1  0  0  0
  5 19  1  0  0  0
 19 21  1  0  0  0
 21 22  1  0  0  0
 22 23  1  0  0  0
 23 24  1  0  0  0
 24 27  1  0  0  0
 27 28  1  0  0  0
 24 25  1  0  0  0
 25 26  1  0  0  0
  5  6  2  0  0  0
  4  7  1  0  0  0
  7  8  2  0  0  0
  8  9  1  0  0  0
  9 10  2  0  0  0
 10 11  1  0  0  0
 11 12  2  0  0  0
  6  1  1  0  0  0
 12  7  1  0  0  0
 26 21  1  0  0  0
 13 14  1  0  0  0
 19 20  1  0  0  0
 28 29  1  0  0  0
 28 30  1  0  0  0
M  END
> <minimizedAffinity>
-7.75631

> <CNNscore>
0.3227314353

> <CNNaffinity>
6.4941644669

> <CNN_VS>
2.0958709717

> <CNNaffinity_variance>
0.4124855399

$$$$
[H]c1nc(-c2c([H])nc(N([H])C([H])([H])C([H])([H])C([H])([H])C([H])([H])[H])nc2N([H])[C@]2([H])C([H])([H])C([H])([H])[C@@]([H])(C([H])([H])N([H])[H])C([H])([H])C2([H])[H])c([H])c([H])c1[H]


 30 32  0  0  0  0  0  0  0  0999 V2000
    3.2513    3.5644   13.4615 C   0  0  0  0  0  0  0  0  0  0  0  0
    2.4988    2.4730   13.5996 N   0  0  0  0  0  0  0  0  0  0  0  0
    2.4748    1.7600   14.7014 C   0  0  0  0  0  0  0  0  0  0  0  0
    3.2678    2.1415   15.7993 C   0  0  0  0  0  0  0  0  0  0  0  0
    4.0349    3.2539   15.6716 C   0  0  0  0  0  0  0  0  0  0  0  0
    4.0038    3.9407   14.4866 N   0  0  0  0  0  0  0  0  0  0  0  0
    3.2087    1.3363   17.0057 C   0  0  0  0  0  0  0  0  0  0  0  0
    2.4151    0.2701   17.2787 C   0  0  0  0  0  0  0  0  0  0  0  0
    2.3993   -0.3698   18.5290 C   0  0  0  0  0  0  0  0  0  0  0  0
    3.2097    0.0781   19.5456 C   0  0  0  0  0  0  0  0  0  0  0  0
    4.0057    1.1627   19.2475 C   0  0  0  0  0  0  0  0  0  0  0  0
    4.0011    1.7531   18.0462 N   0  0  0  0  0  0  0  0  0  0  0  0
    3.2419    4.2899   12.2608 N   0  0  0  0  0  0  0  0  0  0  0  0
    2.5246    4.0959   11.5364 H   0  0  0  0  0  0  0  0  0  0  0  0
    4.2414    5.3132   12.0384 C   0  0  0  0  0  0  0  0  0  0  0  0
    3.5992    6.5469   11.4422 C   0  0  0  0  0  0  0  0  0  0  0  0
    1.7518    8.1154   11.7629 C   0  0  0  0  0  0  0  0  0  0  0  0
    2.5498    7.0151   12.4318 C   0  0  0  0  0  0  0  0  0  0  0  0
    4.7887    3.8655   16.6952 N   0  0  0  0  0  0  0  0  0  0  0  0
    5.6106    3.4336   17.1063 H   0  0  0  0  0  0  0  0  0  0  0  0
    4.3709    5.1300   17.2447 C   0  0  0  0  0  0  0  0  0  0  0  0
    3.5756    4.9373   18.5380 C   0  0  0  0  0  0  0  0  0  0  0  0
    3.2947    6.3180   19.0582 C   0  0  0  0  0  0  0  0  0  0  0  0
    4.5626    6.8734   19.6565 C   0  0  0  0  0  0  0  0  0  0  0  0
    5.7507    6.2643   18.9952 C   0  0  0  0  0  0  0  0  0  0  0  0
    5.5760    6.0188   17.5063 C   0  0  0  0  0  0  0  0  0  0  0  0
    4.5409    8.3867   19.5307 C   0  0  0  0  0  0  0  0  0  0  0  0
    3.1893    8.8074   19.2185 N   0  0  0  0  0  0  0  0  0  0  0  0
    2.5365    8.0375   19.4432 H   0  0  0  0  0  0  0  0  0  0  0  0
    2.9351    9.7092   19.6803 H   0  0  0  0  0  0  0  0  0  0  0  0
 17 18  1  0  0  0
 18 16  1  0  0  0
 16 15  1  0  0  0
 15 13  1  0  0  0
 13  1  1  0  0  0
  1  2  2  0  0  0
  2  3  1  0  0  0
  3  4  2  0  0  0
  4  5  1  0  0  0
  5 19  1  0  0  0
 19 21  1  0  0  0
 21 22  1  0  0  0
 22 23  1  0  0  0
 23 24  1  0  0  0
 24 27  1  0  0  0
 27 28  1  0  0  0
 24 25  1  0  0  0
 25 26  1  0  0  0
  5  6  2  0  0  0
  4  7  1  0  0  0
  7  8  2  0  0  0
  8  9  1  0  0  0
  9 10  2  0  0  0
 10 11  1  0  0  0
 11 12  2  0  0  0
  6  1  1  0  0  0
 12  7  1  0  0  0
 26 21  1  0  0  0
 13 14  1  0  0  0
 19 20  1  0  0  0
 28 29  1  0  0  0
 28 30  1  0  0  0
M  END
> <minimizedAffinity>
-6.60692

> <CNNscore>
0.3090575933

> <CNNaffinity>
6.2066984177

> <CNN_VS>
1.9182273149

> <CNNaffinity_variance>
0.0746385604

$$$$
[H]OC([H])([H])C([H])([H])C([H])([H])C([H])([H])N([H])C(=O)c1c([H])nc(N([H])C([H])([H])C([H])([H])C([H])([H])C([H])([H])[H])nc1N([H])C1([H])C([H])([H])C([H])([H])C([H])(O[H])C([H])([H])C1([H])[H]


 32 33  0  0  0  0  0  0  0  0999 V2000
    2.8816    0.2373   18.2665 C   0  0  0  0  0  0  0  0  0  0  0  0
    2.3934    0.2164   17.0291 N   0  0  0  0  0  0  0  0  0  0  0  0
    2.5043    0.9064   16.0530 C   0  0  0  0  0  0  0  0  0  0  0  0
    3.5243    2.3144   16.1562 C   0  0  0  0  0  0  0  0  0  0  0  0
    3.8342    2.0856   17.3586 C   0  0  0  0  0  0  0  0  0  0  0  0
    3.7100    1.3283   18.4063 N   0  0  0  0  0  0  0  0  0  0  0  0
    3.1848    2.5650   14.8392 C   0  0  0  0  0  0  0  0  0  0  0  0
    3.0413    1.8258   13.8628 O   0  0  0  0  0  0  0  0  0  0  0  0
    2.9152    3.9836   14.5475 N   0  0  0  0  0  0  0  0  0  0  0  0
    3.0217    4.7191   15.2745 H   0  0  0  0  0  0  0  0  0  0  0  0
    2.4973    4.2891   13.1955 C   0  0  0  0  0  0  0  0  0  0  0  0
    1.1756    5.0247   13.2189 C   0  0  0  0  0  0  0  0  0  0  0  0
    1.0082    6.0844   14.2319 C   0  0  0  0  0  0  0  0  0  0  0  0
   -0.3236    6.7790   13.9272 C   0  0  0  0  0  0  0  0  0  0  0  0
   -1.0782    6.9765   15.0587 O   0  0  0  0  0  0  0  0  0  0  0  0
   -2.0178    7.2596   14.8581 H   0  0  0  0  0  0  0  0  0  0  0  0
    2.5461   -0.6788   19.2308 N   0  0  0  0  0  0  0  0  0  0  0  0
    2.3057   -1.6652   18.9888 H   0  0  0  0  0  0  0  0  0  0  0  0
    2.4901   -0.3401   20.6648 C   0  0  0  0  0  0  0  0  0  0  0  0
    3.8820   -0.4944   21.2493 C   0  0  0  0  0  0  0  0  0  0  0  0
    3.5113    1.6911   22.4475 C   0  0  0  0  0  0  0  0  0  0  0  0
    4.4889    0.7890   21.6864 C   0  0  0  0  0  0  0  0  0  0  0  0
    4.8644    3.2374   17.5753 N   0  0  0  0  0  0  0  0  0  0  0  0
    5.8239    3.1040   17.2712 H   0  0  0  0  0  0  0  0  0  0  0  0
    4.4325    4.4253   18.1794 C   0  0  0  0  0  0  0  0  0  0  0  0
    5.1993    5.6480   17.7240 C   0  0  0  0  0  0  0  0  0  0  0  0
    5.6951    6.5053   18.8202 C   0  0  0  0  0  0  0  0  0  0  0  0
    4.8097    6.6475   20.0228 C   0  0  0  0  0  0  0  0  0  0  0  0
    3.9962    7.7815   19.9579 O   0  0  0  0  0  0  0  0  0  0  0  0
    3.9792    5.4644   20.3455 C   0  0  0  0  0  0  0  0  0  0  0  0
    4.5244    4.2552   19.7126 C   0  0  0  0  0  0  0  0  0  0  0  0
    4.1590    8.3070   20.7965 H   0  0  0  0  0  0  0  0  0  0  0  0
 21 22  1  0  0  0
 22 20  1  0  0  0
 20 19  1  0  0  0
 19 17  1  0  0  0
 17  1  1  0  0  0
  1  2  2  0  0  0
  2  3  1  0  0  0
  3  4  2  0  0  0
  4  7  1  0  0  0
  7  8  2  0  0  0
  7  9  1  0  0  0
  9 11  1  0  0  0
 11 12  1  0  0  0
 12 13  1  0  0  0
 13 14  1  0  0  0
 14 15  1  0  0  0
  4  5  1  0  0  0
  5 23  1  0  0  0
 23 25  1  0  0  0
 25 26  1  0  0  0
 26 27  1  0  0  0
 27 28  1  0  0  0
 28 29  1  0  0  0
 28 30  1  0  0  0
 30 31  1  0  0  0
  5  6  2  0  0  0
  6  1  1  0  0  0
 31 25  1  0  0  0
 17 18  1  0  0  0
  9 10  1  0  0  0
 15 16  1  0  0  0
 23 24  1  0  0  0
 29 32  1  0  0  0
M  END
> <minimizedAffinity>
-7.07277

> <CNNscore>
0.8882794976

> <CNNaffinity>
6.6222991943

> <CNN_VS>
5.8824524879

> <CNNaffinity_variance>
0.1661599576

$$$$
[H]OC([H])([H])C([H])([H])C([H])([H])C([H])([H])N([H])C(=O)c1c([H])nc(N([H])C([H])([H])C([H])([H])C([H])([H])C([H])([H])[H])nc1N([H])C1([H])C([H])([H])C([H])([H])C([H])(O[H])C([H])([H])C1([H])[H]


 32 33  0  0  0  0  0  0  0  0999 V2000
    3.0094    1.6629   16.2651 C   0  0  0  0  0  0  0  0  0  0  0  0
    2.9836    0.9193   17.3679 N   0  0  0  0  0  0  0  0  0  0  0  0
    3.4690    0.9950   18.4633 C   0  0  0  0  0  0  0  0  0  0  0  0
    4.4806    2.3677   18.8185 C   0  0  0  0  0  0  0  0  0  0  0  0
    4.3240    2.8664   17.6692 C   0  0  0  0  0  0  0  0  0  0  0  0
    3.7889    2.7756   16.4893 N   0  0  0  0  0  0  0  0  0  0  0  0
    4.6520    1.8213   20.0773 C   0  0  0  0  0  0  0  0  0  0  0  0
    4.0232    0.9663   20.7050 O   0  0  0  0  0  0  0  0  0  0  0  0
    5.8266    2.3371   20.8015 N   0  0  0  0  0  0  0  0  0  0  0  0
    6.4323    3.0797   20.3983 H   0  0  0  0  0  0  0  0  0  0  0  0
    6.0833    1.7520   22.1006 C   0  0  0  0  0  0  0  0  0  0  0  0
    5.8121    2.7699   23.1865 C   0  0  0  0  0  0  0  0  0  0  0  0
    4.4705    2.7636   23.8008 C   0  0  0  0  0  0  0  0  0  0  0  0
    3.8340    4.1211   23.4833 C   0  0  0  0  0  0  0  0  0  0  0  0
    4.7733    5.1113   23.3220 O   0  0  0  0  0  0  0  0  0  0  0  0
    4.3738    6.0293   23.2955 H   0  0  0  0  0  0  0  0  0  0  0  0
    2.3816    1.3113   15.0972 N   0  0  0  0  0  0  0  0  0  0  0  0
    1.7281    0.4988   15.0501 H   0  0  0  0  0  0  0  0  0  0  0  0
    2.5883    2.0401   13.8322 C   0  0  0  0  0  0  0  0  0  0  0  0
    1.4030    1.7707   12.9237 C   0  0  0  0  0  0  0  0  0  0  0  0
    0.7531    1.0633   10.5942 C   0  0  0  0  0  0  0  0  0  0  0  0
    1.7340    1.8421   11.4774 C   0  0  0  0  0  0  0  0  0  0  0  0
    5.1065    4.2018   17.8669 N   0  0  0  0  0  0  0  0  0  0  0  0
    6.0911    4.2371   17.6211 H   0  0  0  0  0  0  0  0  0  0  0  0
    4.4247    5.3156   18.3739 C   0  0  0  0  0  0  0  0  0  0  0  0
    3.9659    6.2818   17.3032 C   0  0  0  0  0  0  0  0  0  0  0  0
    4.3139    7.6942   17.5608 C   0  0  0  0  0  0  0  0  0  0  0  0
    4.2563    8.1572   18.9865 C   0  0  0  0  0  0  0  0  0  0  0  0
    3.0337    8.7524   19.3075 O   0  0  0  0  0  0  0  0  0  0  0  0
    4.5858    7.1315   20.0029 C   0  0  0  0  0  0  0  0  0  0  0  0
    5.3384    6.0222   19.4005 C   0  0  0  0  0  0  0  0  0  0  0  0
    3.2390    9.6609   19.6794 H   0  0  0  0  0  0  0  0  0  0  0  0
 21 22  1  0  0  0
 22 20  1  0  0  0
 20 19  1  0  0  0
 19 17  1  0  0  0
 17  1  1  0  0  0
  1  2  2  0  0  0
  2  3  1  0  0  0
  3  4  2  0  0  0
  4  7  1  0  0  0
  7  8  2  0  0  0
  7  9  1  0  0  0
  9 11  1  0  0  0
 11 12  1  0  0  0
 12 13  1  0  0  0
 13 14  1  0  0  0
 14 15  1  0  0  0
  4  5  1  0  0  0
  5 23  1  0  0  0
 23 25  1  0  0  0
 25 26  1  0  0  0
 26 27  1  0  0  0
 27 28  1  0  0  0
 28 29  1  0  0  0
 28 30  1  0  0  0
 30 31  1  0  0  0
  5  6  2  0  0  0
  6  1  1  0  0  0
 31 25  1  0  0  0
 17 18  1  0  0  0
  9 10  1  0  0  0
 15 16  1  0  0  0
 23 24  1  0  0  0
 29 32  1  0  0  0
M  END
> <minimizedAffinity>
-7.08929

> <CNNscore>
0.6719138622

> <CNNaffinity>
6.3471846581

> <CNN_VS>
4.2647614479

> <CNNaffinity_variance>
0.1972515881

$$$$
[H]OC([H])([H])C([H])([H])C([H])([H])C([H])([H])N([H])C(=O)c1c([H])nc(N([H])C([H])([H])C([H])([H])C([H])([H])C([H])([H])[H])nc1N([H])C1([H])C([H])([H])C([H])([H])C([H])(O[H])C([H])([H])C1([H])[H]


 32 33  0  0  0  0  0  0  0  0999 V2000
    3.8995    1.6579   17.9164 C   0  0  0  0  0  0  0  0  0  0  0  0
    3.1127    1.3289   16.8953 N   0  0  0  0  0  0  0  0  0  0  0  0
    2.8271    1.8247   15.8399 C   0  0  0  0  0  0  0  0  0  0  0  0
    3.5520    3.3546   15.4302 C   0  0  0  0  0  0  0  0  0  0  0  0
    4.2082    3.4093   16.5075 C   0  0  0  0  0  0  0  0  0  0  0  0
    4.5130    2.8601   17.6442 N   0  0  0  0  0  0  0  0  0  0  0  0
    2.8332    3.2946   14.2502 C   0  0  0  0  0  0  0  0  0  0  0  0
    1.7687    2.7483   13.9523 O   0  0  0  0  0  0  0  0  0  0  0  0
    3.4377    4.0498   13.1392 N   0  0  0  0  0  0  0  0  0  0  0  0
    4.3486    4.5394   13.2453 H   0  0  0  0  0  0  0  0  0  0  0  0
    2.6917    4.0671   11.8986 C   0  0  0  0  0  0  0  0  0  0  0  0
    2.1687    5.4613   11.6316 C   0  0  0  0  0  0  0  0  0  0  0  0
    3.1643    6.5373   11.4633 C   0  0  0  0  0  0  0  0  0  0  0  0
    2.5526    7.8031   12.0734 C   0  0  0  0  0  0  0  0  0  0  0  0
    1.6639    8.4143   11.2217 O   0  0  0  0  0  0  0  0  0  0  0  0
    1.3960    9.3299   11.5266 H   0  0  0  0  0  0  0  0  0  0  0  0
    4.0125    0.9089   19.0600 N   0  0  0  0  0  0  0  0  0  0  0  0
    3.9337   -0.1318   19.0429 H   0  0  0  0  0  0  0  0  0  0  0  0
    4.2406    1.5113   20.3863 C   0  0  0  0  0  0  0  0  0  0  0  0
    5.3957    0.7856   21.0510 C   0  0  0  0  0  0  0  0  0  0  0  0
    5.9431    2.6135   22.6968 C   0  0  0  0  0  0  0  0  0  0  0  0
    6.4455    1.6953   21.5773 C   0  0  0  0  0  0  0  0  0  0  0  0
    5.0214    4.7138   16.2394 N   0  0  0  0  0  0  0  0  0  0  0  0
    5.5294    4.8069   15.3651 H   0  0  0  0  0  0  0  0  0  0  0  0
    5.0222    5.7214   17.2126 C   0  0  0  0  0  0  0  0  0  0  0  0
    6.0586    5.5140   18.2959 C   0  0  0  0  0  0  0  0  0  0  0  0
    5.5401    5.6391   19.6736 C   0  0  0  0  0  0  0  0  0  0  0  0
    4.4864    6.6805   19.9092 C   0  0  0  0  0  0  0  0  0  0  0  0
    5.0202    7.8898   20.3616 O   0  0  0  0  0  0  0  0  0  0  0  0
    3.5805    6.9397   18.7664 C   0  0  0  0  0  0  0  0  0  0  0  0
    3.6033    5.8180   17.8171 C   0  0  0  0  0  0  0  0  0  0  0  0
    4.5456    8.1182   21.2151 H   0  0  0  0  0  0  0  0  0  0  0  0
 21 22  1  0  0  0
 22 20  1  0  0  0
 20 19  1  0  0  0
 19 17  1  0  0  0
 17  1  1  0  0  0
  1  2  2  0  0  0
  2  3  1  0  0  0
  3  4  2  0  0  0
  4  7  1  0  0  0
  7  8  2  0  0  0
  7  9  1  0  0  0
  9 11  1  0  0  0
 11 12  1  0  0  0
 12 13  1  0  0  0
 13 14  1  0  0  0
 14 15  1  0  0  0
  4  5  1  0  0  0
  5 23  1  0  0  0
 23 25  1  0  0  0
 25 26  1  0  0  0
 26 27  1  0  0  0
 27 28  1  0  0  0
 28 29  1  0  0  0
 28 30  1  0  0  0
 30 31  1  0  0  0
  5  6  2  0  0  0
  6  1  1  0  0  0
 31 25  1  0  0  0
 17 18  1  0  0  0
  9 10  1  0  0  0
 15 16  1  0  0  0
 23 24  1  0  0  0
 29 32  1  0  0  0
M  END
> <minimizedAffinity>
-6.07530

> <CNNscore>
0.5401502848

> <CNNaffinity>
6.0342054367

> <CNN_VS>
3.2593777180

> <CNNaffinity_variance>
0.5151884556

$$$$
[H]OC([H])([H])C([H])([H])C([H])([H])C([H])([H])N([H])C(=O)c1c([H])nc(N([H])C([H])([H])C([H])([H])C([H])([H])C([H])([H])[H])nc1N([H])C1([H])C([H])([H])C([H])([H])C([H])(O[H])C([H])([H])C1([H])[H]


 32 33  0  0  0  0  0  0  0  0999 V2000
    2.8680    2.0278   16.0272 C   0  0  0  0  0  0  0  0  0  0  0  0
    3.1341    3.3306   15.9867 N   0  0  0  0  0  0  0  0  0  0  0  0
    3.7174    4.1078   16.6916 C   0  0  0  0  0  0  0  0  0  0  0  0
    4.4314    3.5048   18.1614 C   0  0  0  0  0  0  0  0  0  0  0  0
    4.0498    2.3215   17.9416 C   0  0  0  0  0  0  0  0  0  0  0  0
    3.4205    1.4897   17.1678 N   0  0  0  0  0  0  0  0  0  0  0  0
    4.8493    4.8009   18.4022 C   0  0  0  0  0  0  0  0  0  0  0  0
    5.7747    5.4746   17.9436 O   0  0  0  0  0  0  0  0  0  0  0  0
    4.0152    5.5309   19.3725 N   0  0  0  0  0  0  0  0  0  0  0  0
    3.2148    5.0750   19.8545 H   0  0  0  0  0  0  0  0  0  0  0  0
    4.3766    6.9119   19.6135 C   0  0  0  0  0  0  0  0  0  0  0  0
    4.9405    7.0606   21.0095 C   0  0  0  0  0  0  0  0  0  0  0  0
    6.3663    6.7333   21.2023 C   0  0  0  0  0  0  0  0  0  0  0  0
    6.4685    5.9738   22.5295 C   0  0  0  0  0  0  0  0  0  0  0  0
    5.2364    5.6069   23.0154 O   0  0  0  0  0  0  0  0  0  0  0  0
    5.2710    5.2749   23.9596 H   0  0  0  0  0  0  0  0  0  0  0  0
    2.1166    1.3765   15.0823 N   0  0  0  0  0  0  0  0  0  0  0  0
    1.9411    0.3489   15.1353 H   0  0  0  0  0  0  0  0  0  0  0  0
    1.5157    2.0692   13.9277 C   0  0  0  0  0  0  0  0  0  0  0  0
    2.4955    2.0120   12.7703 C   0  0  0  0  0  0  0  0  0  0  0  0
    3.5063    3.3136   10.8640 C   0  0  0  0  0  0  0  0  0  0  0  0
    2.9100    3.3499   12.2754 C   0  0  0  0  0  0  0  0  0  0  0  0
    4.7257    1.6108   19.1552 N   0  0  0  0  0  0  0  0  0  0  0  0
    5.3296    0.8125   18.9850 H   0  0  0  0  0  0  0  0  0  0  0  0
    4.4827    2.0996   20.4454 C   0  0  0  0  0  0  0  0  0  0  0  0
    5.7341    2.5560   21.1640 C   0  0  0  0  0  0  0  0  0  0  0  0
    5.8863    2.0202   22.5323 C   0  0  0  0  0  0  0  0  0  0  0  0
    4.6339    1.8690   23.3441 C   0  0  0  0  0  0  0  0  0  0  0  0
    4.3924    2.9722   24.1667 O   0  0  0  0  0  0  0  0  0  0  0  0
    3.4095    1.5532   22.5729 C   0  0  0  0  0  0  0  0  0  0  0  0
    3.7506    1.0043   21.2530 C   0  0  0  0  0  0  0  0  0  0  0  0
    4.2907    2.6236   25.1016 H   0  0  0  0  0  0  0  0  0  0  0  0
 21 22  1  0  0  0
 22 20  1  0  0  0
 20 19  1  0  0  0
 19 17  1  0  0  0
 17  1  1  0  0  0
  1  2  2  0  0  0
  2  3  1  0  0  0
  3  4  2  0  0  0
  4  7  1  0  0  0
  7  8  2  0  0  0
  7  9  1  0  0  0
  9 11  1  0  0  0
 11 12  1  0  0  0
 12 13  1  0  0  0
 13 14  1  0  0  0
 14 15  1  0  0  0
  4  5  1  0  0  0
  5 23  1  0  0  0
 23 25  1  0  0  0
 25 26  1  0  0  0
 26 27  1  0  0  0
 27 28  1  0  0  0
 28 29  1  0  0  0
 28 30  1  0  0  0
 30 31  1  0  0  0
  5  6  2  0  0  0
  6  1  1  0  0  0
 31 25  1  0  0  0
 17 18  1  0  0  0
  9 10  1  0  0  0
 15 16  1  0  0  0
 23 24  1  0  0  0
 29 32  1  0  0  0
M  END
> <minimizedAffinity>
-6.69159

> <CNNscore>
0.4498029649

> <CNNaffinity>
6.2788252831

> <CNN_VS>
2.8242342472

> <CNNaffinity_variance>
0.3257876039

$$$$
[H]OC([H])([H])C([H])([H])C([H])([H])C([H])([H])N([H])C(=O)c1c([H])nc(N([H])C([H])([H])C([H])([H])C([H])([H])C([H])([H])[H])nc1N([H])C1([H])C([H])([H])C([H])([H])C([H])(O[H])C([H])([H])C1([H])[H]


 32 33  0  0  0  0  0  0  0  0999 V2000
    4.5227    1.7157   20.2623 C   0  0  0  0  0  0  0  0  0  0  0  0
    3.9078    1.0362   19.2979 N   0  0  0  0  0  0  0  0  0  0  0  0
    3.4907    1.2927   18.2018 C   0  0  0  0  0  0  0  0  0  0  0  0
    3.6706    2.9236   17.6173 C   0  0  0  0  0  0  0  0  0  0  0  0
    4.2529    3.3087   18.6693 C   0  0  0  0  0  0  0  0  0  0  0  0
    4.7045    3.0173   19.8516 N   0  0  0  0  0  0  0  0  0  0  0  0
    3.0327    2.5017   16.4651 C   0  0  0  0  0  0  0  0  0  0  0  0
    1.9218    2.0057   16.2641 O   0  0  0  0  0  0  0  0  0  0  0  0
    3.8162    2.7074   15.2347 N   0  0  0  0  0  0  0  0  0  0  0  0
    4.7802    3.0958   15.2612 H   0  0  0  0  0  0  0  0  0  0  0  0
    3.1670    2.3366   13.9950 C   0  0  0  0  0  0  0  0  0  0  0  0
    3.2461    3.4818   13.0096 C   0  0  0  0  0  0  0  0  0  0  0  0
    1.9996    4.2189   12.7266 C   0  0  0  0  0  0  0  0  0  0  0  0
    0.8484    3.2233   12.9063 C   0  0  0  0  0  0  0  0  0  0  0  0
    0.2178    2.9372   11.7192 O   0  0  0  0  0  0  0  0  0  0  0  0
   -0.6410    2.4369   11.8428 H   0  0  0  0  0  0  0  0  0  0  0  0
    4.8599    1.1739   21.4765 N   0  0  0  0  0  0  0  0  0  0  0  0
    5.7090    0.5782   21.5934 H   0  0  0  0  0  0  0  0  0  0  0  0
    4.0518    1.3811   22.6922 C   0  0  0  0  0  0  0  0  0  0  0  0
    4.6809    2.4996   23.5022 C   0  0  0  0  0  0  0  0  0  0  0  0
    4.4149    4.9199   22.8534 C   0  0  0  0  0  0  0  0  0  0  0  0
    3.8315    3.7144   23.5985 C   0  0  0  0  0  0  0  0  0  0  0  0
    4.5888    4.7731   18.2479 N   0  0  0  0  0  0  0  0  0  0  0  0
    4.8245    4.9653   17.2791 H   0  0  0  0  0  0  0  0  0  0  0  0
    4.5500    5.7815   19.2196 C   0  0  0  0  0  0  0  0  0  0  0  0
    3.4906    6.8305   18.9594 C   0  0  0  0  0  0  0  0  0  0  0  0
    3.9735    8.2243   19.0415 C   0  0  0  0  0  0  0  0  0  0  0  0
    5.0063    8.5232   20.0875 C   0  0  0  0  0  0  0  0  0  0  0  0
    4.4447    9.0052   21.2725 O   0  0  0  0  0  0  0  0  0  0  0  0
    5.9361    7.4134   20.3998 C   0  0  0  0  0  0  0  0  0  0  0  0
    5.9523    6.4241   19.3130 C   0  0  0  0  0  0  0  0  0  0  0  0
    4.8950    9.8779   21.4762 H   0  0  0  0  0  0  0  0  0  0  0  0
 21 22  1  0  0  0
 22 20  1  0  0  0
 20 19  1  0  0  0
 19 17  1  0  0  0
 17  1  1  0  0  0
  1  2  2  0  0  0
  2  3  1  0  0  0
  3  4  2  0  0  0
  4  7  1  0  0  0
  7  8  2  0  0  0
  7  9  1  0  0  0
  9 11  1  0  0  0
 11 12  1  0  0  0
 12 13  1  0  0  0
 13 14  1  0  0  0
 14 15  1  0  0  0
  4  5  1  0  0  0
  5 23  1  0  0  0
 23 25  1  0  0  0
 25 26  1  0  0  0
 26 27  1  0  0  0
 27 28  1  0  0  0
 28 29  1  0  0  0
 28 30  1  0  0  0
 30 31  1  0  0  0
  5  6  2  0  0  0
  6  1  1  0  0  0
 31 25  1  0  0  0
 17 18  1  0  0  0
  9 10  1  0  0  0
 15 16  1  0  0  0
 23 24  1  0  0  0
 29 32  1  0  0  0
M  END
> <minimizedAffinity>
-6.73051

> <CNNscore>
0.4032064676

> <CNNaffinity>
6.0760393143

> <CNN_VS>
2.4498982430

> <CNNaffinity_variance>
0.6567116976

$$$$
[H]OC([H])([H])C([H])([H])C([H])([H])C([H])([H])N([H])C(=O)c1c([H])nc(N([H])C([H])([H])C([H])([H])C([H])([H])C([H])([H])[H])nc1N([H])C1([H])C([H])([H])C([H])([H])C([H])(O[H])C([H])([H])C1([H])[H]


 32 33  0  0  0  0  0  0  0  0999 V2000
    3.8491    1.6187   18.8447 C   0  0  0  0  0  0  0  0  0  0  0  0
    3.2026    1.5402   17.6846 N   0  0  0  0  0  0  0  0  0  0  0  0
    2.9939    2.2872   16.7683 C   0  0  0  0  0  0  0  0  0  0  0  0
    3.6401    3.9019   16.8638 C   0  0  0  0  0  0  0  0  0  0  0  0
    4.1721    3.6955   17.9901 C   0  0  0  0  0  0  0  0  0  0  0  0
    4.3952    2.8762   18.9727 N   0  0  0  0  0  0  0  0  0  0  0  0
    3.0575    4.1279   15.6301 C   0  0  0  0  0  0  0  0  0  0  0  0
    2.0103    4.6863   15.2952 O   0  0  0  0  0  0  0  0  0  0  0  0
    3.8496    3.6319   14.4914 N   0  0  0  0  0  0  0  0  0  0  0  0
    4.7434    3.1198   14.6314 H   0  0  0  0  0  0  0  0  0  0  0  0
    3.3102    3.8977   13.1745 C   0  0  0  0  0  0  0  0  0  0  0  0
    4.3933    4.4549   12.2772 C   0  0  0  0  0  0  0  0  0  0  0  0
    4.4237    3.9836   10.8794 C   0  0  0  0  0  0  0  0  0  0  0  0
    3.1738    3.1198   10.6783 C   0  0  0  0  0  0  0  0  0  0  0  0
    3.4428    1.9716    9.9726 O   0  0  0  0  0  0  0  0  0  0  0  0
    2.6154    1.4907    9.6772 H   0  0  0  0  0  0  0  0  0  0  0  0
    3.8964    0.5965   19.7583 N   0  0  0  0  0  0  0  0  0  0  0  0
    3.5562   -0.3623   19.5252 H   0  0  0  0  0  0  0  0  0  0  0  0
    4.4156    0.7759   21.1266 C   0  0  0  0  0  0  0  0  0  0  0  0
    5.9276    0.6540   21.0862 C   0  0  0  0  0  0  0  0  0  0  0  0
    5.6943    2.4554   22.8328 C   0  0  0  0  0  0  0  0  0  0  0  0
    6.6290    1.6845   21.8942 C   0  0  0  0  0  0  0  0  0  0  0  0
    4.9079    5.0593   18.1732 N   0  0  0  0  0  0  0  0  0  0  0  0
    5.5590    5.3679   17.4578 H   0  0  0  0  0  0  0  0  0  0  0  0
    4.6438    5.8209   19.3190 C   0  0  0  0  0  0  0  0  0  0  0  0
    4.2652    7.2548   19.0170 C   0  0  0  0  0  0  0  0  0  0  0  0
    5.0099    8.2638   19.7979 C   0  0  0  0  0  0  0  0  0  0  0  0
    5.3356    7.9150   21.2201 C   0  0  0  0  0  0  0  0  0  0  0  0
    4.3898    8.4080   22.1226 O   0  0  0  0  0  0  0  0  0  0  0  0
    5.5661    6.4764   21.4861 C   0  0  0  0  0  0  0  0  0  0  0  0
    5.8811    5.7592   20.2426 C   0  0  0  0  0  0  0  0  0  0  0  0
    4.8888    8.9516   22.8019 H   0  0  0  0  0  0  0  0  0  0  0  0
 21 22  1  0  0  0
 22 20  1  0  0  0
 20 19  1  0  0  0
 19 17  1  0  0  0
 17  1  1  0  0  0
  1  2  2  0  0  0
  2  3  1  0  0  0
  3  4  2  0  0  0
  4  7  1  0  0  0
  7  8  2  0  0  0
  7  9  1  0  0  0
  9 11  1  0  0  0
 11 12  1  0  0  0
 12 13  1  0  0  0
 13 14  1  0  0  0
 14 15  1  0  0  0
  4  5  1  0  0  0
  5 23  1  0  0  0
 23 25  1  0  0  0
 25 26  1  0  0  0
 26 27  1  0  0  0
 27 28  1  0  0  0
 28 29  1  0  0  0
 28 30  1  0  0  0
 30 31  1  0  0  0
  5  6  2  0  0  0
  6  1  1  0  0  0
 31 25  1  0  0  0
 17 18  1  0  0  0
  9 10  1  0  0  0
 15 16  1  0  0  0
 23 24  1  0  0  0
 29 32  1  0  0  0
M  END
> <minimizedAffinity>
-6.17795

> <CNNscore>
0.3809345067

> <CNNaffinity>
6.1098189354

> <CNN_VS>
2.3274409771

> <CNNaffinity_variance>
0.9311187863

$$$$
[H]OC([H])([H])C([H])([H])C([H])([H])C([H])([H])N([H])C(=O)c1c([H])nc(N([H])C([H])([H])C([H])([H])C([H])([H])C([H])([H])[H])nc1N([H])C1([H])C([H])([H])C([H])([H])C([H])(O[H])C([H])([H])C1([H])[H]


 32 33  0  0  0  0  0  0  0  0999 V2000
    3.2940    4.6774   16.9269 C   0  0  0  0  0  0  0  0  0  0  0  0
    3.7121    3.9018   17.9236 N   0  0  0  0  0  0  0  0  0  0  0  0
    4.0418    4.0770   19.0646 C   0  0  0  0  0  0  0  0  0  0  0  0
    4.0134    5.7042   19.6853 C   0  0  0  0  0  0  0  0  0  0  0  0
    3.5986    6.1856   18.5943 C   0  0  0  0  0  0  0  0  0  0  0  0
    3.2393    5.9823   17.3629 N   0  0  0  0  0  0  0  0  0  0  0  0
    4.4677    5.1768   20.8803 C   0  0  0  0  0  0  0  0  0  0  0  0
    5.5370    4.6562   21.2059 O   0  0  0  0  0  0  0  0  0  0  0  0
    3.5018    5.2785   21.9879 N   0  0  0  0  0  0  0  0  0  0  0  0
    2.5512    5.6752   21.8471 H   0  0  0  0  0  0  0  0  0  0  0  0
    3.9534    4.7941   23.2753 C   0  0  0  0  0  0  0  0  0  0  0  0
    3.2728    3.4825   23.5996 C   0  0  0  0  0  0  0  0  0  0  0  0
    4.0460    2.2454   23.3783 C   0  0  0  0  0  0  0  0  0  0  0  0
    5.4904    2.5486   23.7915 C   0  0  0  0  0  0  0  0  0  0  0  0
    5.7984    2.0292   25.0260 O   0  0  0  0  0  0  0  0  0  0  0  0
    6.6683    2.3691   25.3878 H   0  0  0  0  0  0  0  0  0  0  0  0
    3.0186    4.2115   15.6664 N   0  0  0  0  0  0  0  0  0  0  0  0
    3.4209    3.3152   15.3139 H   0  0  0  0  0  0  0  0  0  0  0  0
    2.1517    4.9389   14.7212 C   0  0  0  0  0  0  0  0  0  0  0  0
    3.0137    5.4714   13.5914 C   0  0  0  0  0  0  0  0  0  0  0  0
    2.8761    3.2759   12.3625 C   0  0  0  0  0  0  0  0  0  0  0  0
    3.7678    4.4143   12.8700 C   0  0  0  0  0  0  0  0  0  0  0  0
    3.4118    7.6719   19.0313 N   0  0  0  0  0  0  0  0  0  0  0  0
    2.4840    7.9985   19.2834 H   0  0  0  0  0  0  0  0  0  0  0  0
    4.5328    8.5113   19.0678 C   0  0  0  0  0  0  0  0  0  0  0  0
    5.7997    7.8490   18.5708 C   0  0  0  0  0  0  0  0  0  0  0  0
    6.9644    8.0018   19.4668 C   0  0  0  0  0  0  0  0  0  0  0  0
    7.0998    9.3120   20.1847 C   0  0  0  0  0  0  0  0  0  0  0  0
    7.9295   10.2101   19.5086 O   0  0  0  0  0  0  0  0  0  0  0  0
    5.8257    9.9838   20.5297 C   0  0  0  0  0  0  0  0  0  0  0  0
    4.7099    9.0274   20.5136 C   0  0  0  0  0  0  0  0  0  0  0  0
    8.6386   10.4984   20.1566 H   0  0  0  0  0  0  0  0  0  0  0  0
 21 22  1  0  0  0
 22 20  1  0  0  0
 20 19  1  0  0  0
 19 17  1  0  0  0
 17  1  1  0  0  0
  1  2  2  0  0  0
  2  3  1  0  0  0
  3  4  2  0  0  0
  4  7  1  0  0  0
  7  8  2  0  0  0
  7  9  1  0  0  0
  9 11  1  0  0  0
 11 12  1  0  0  0
 12 13  1  0  0  0
 13 14  1  0  0  0
 14 15  1  0  0  0
  4  5  1  0  0  0
  5 23  1  0  0  0
 23 25  1  0  0  0
 25 26  1  0  0  0
 26 27  1  0  0  0
 27 28  1  0  0  0
 28 29  1  0  0  0
 28 30  1  0  0  0
 30 31  1  0  0  0
  5  6  2  0  0  0
  6  1  1  0  0  0
 31 25  1  0  0  0
 17 18  1  0  0  0
  9 10  1  0  0  0
 15 16  1  0  0  0
 23 24  1  0  0  0
 29 32  1  0  0  0
M  END
> <minimizedAffinity>
-6.23553

> <CNNscore>
0.3797631860

> <CNNaffinity>
5.8325233459

> <CNN_VS>
2.2149777412

> <CNNaffinity_variance>
0.2742945850

$$$$
[H]OC([H])([H])C([H])([H])C([H])([H])C([H])([H])N([H])C(=O)c1c([H])nc(N([H])C([H])([H])C([H])([H])C([H])([H])C([H])([H])[H])nc1N([H])C1([H])C([H])([H])C([H])([H])C([H])(O[H])C([H])([H])C1([H])[H]


 32 33  0  0  0  0  0  0  0  0999 V2000
    4.0975    3.7908   20.0190 C   0  0  0  0  0  0  0  0  0  0  0  0
    3.8292    3.3701   18.7858 N   0  0  0  0  0  0  0  0  0  0  0  0
    3.4545    3.8847   17.7680 C   0  0  0  0  0  0  0  0  0  0  0  0
    3.1468    5.5990   17.7813 C   0  0  0  0  0  0  0  0  0  0  0  0
    3.4722    5.7168   18.9955 C   0  0  0  0  0  0  0  0  0  0  0  0
    3.8829    5.1491   20.0891 N   0  0  0  0  0  0  0  0  0  0  0  0
    2.7903    5.4699   16.4514 C   0  0  0  0  0  0  0  0  0  0  0  0
    1.7089    5.2600   15.8973 O   0  0  0  0  0  0  0  0  0  0  0  0
    3.9098    5.6426   15.5096 N   0  0  0  0  0  0  0  0  0  0  0  0
    4.8819    5.8017   15.8421 H   0  0  0  0  0  0  0  0  0  0  0  0
    3.5764    5.5759   14.1024 C   0  0  0  0  0  0  0  0  0  0  0  0
    4.0530    4.2626   13.5218 C   0  0  0  0  0  0  0  0  0  0  0  0
    4.2833    4.2099   12.0653 C   0  0  0  0  0  0  0  0  0  0  0  0
    3.0444    3.5532   11.4468 C   0  0  0  0  0  0  0  0  0  0  0  0
    3.3372    2.8816   10.2840 O   0  0  0  0  0  0  0  0  0  0  0  0
    2.5200    2.6043    9.7757 H   0  0  0  0  0  0  0  0  0  0  0  0
    4.4791    2.9574   21.0395 N   0  0  0  0  0  0  0  0  0  0  0  0
    4.0326    2.0245   21.1805 H   0  0  0  0  0  0  0  0  0  0  0  0
    5.5296    3.3169   22.0097 C   0  0  0  0  0  0  0  0  0  0  0  0
    6.5848    2.2264   22.0010 C   0  0  0  0  0  0  0  0  0  0  0  0
    7.2639   -0.0405   21.1352 C   0  0  0  0  0  0  0  0  0  0  0  0
    6.1288    0.9629   21.3666 C   0  0  0  0  0  0  0  0  0  0  0  0
    3.3506    7.2659   19.1383 N   0  0  0  0  0  0  0  0  0  0  0  0
    2.4323    7.6777   19.2733 H   0  0  0  0  0  0  0  0  0  0  0  0
    4.5146    8.0431   19.0810 C   0  0  0  0  0  0  0  0  0  0  0  0
    5.7147    7.2945   18.5425 C   0  0  0  0  0  0  0  0  0  0  0  0
    6.9344    7.4154   19.3673 C   0  0  0  0  0  0  0  0  0  0  0  0
    7.1792    8.7413   20.0249 C   0  0  0  0  0  0  0  0  0  0  0  0
    8.0160    9.5672   19.2701 O   0  0  0  0  0  0  0  0  0  0  0  0
    5.9639    9.4942   20.4118 C   0  0  0  0  0  0  0  0  0  0  0  0
    4.7999    8.6007   20.4937 C   0  0  0  0  0  0  0  0  0  0  0  0
    8.7747    9.8393   19.8669 H   0  0  0  0  0  0  0  0  0  0  0  0
 21 22  1  0  0  0
 22 20  1  0  0  0
 20 19  1  0  0  0
 19 17  1  0  0  0
 17  1  1  0  0  0
  1  2  2  0  0  0
  2  3  1  0  0  0
  3  4  2  0  0  0
  4  7  1  0  0  0
  7  8  2  0  0  0
  7  9  1  0  0  0
  9 11  1  0  0  0
 11 12  1  0  0  0
 12 13  1  0  0  0
 13 14  1  0  0  0
 14 15  1  0  0  0
  4  5  1  0  0  0
  5 23  1  0  0  0
 23 25  1  0  0  0
 25 26  1  0  0  0
 26 27  1  0  0  0
 27 28  1  0  0  0
 28 29  1  0  0  0
 28 30  1  0  0  0
 30 31  1  0  0  0
  5  6  2  0  0  0
  6  1  1  0  0  0
 31 25  1  0  0  0
 17 18  1  0  0  0
  9 10  1  0  0  0
 15 16  1  0  0  0
 23 24  1  0  0  0
 29 32  1  0  0  0
M  END
> <minimizedAffinity>
-6.29922

> <CNNscore>
0.3681624234

> <CNNaffinity>
5.8676867485

> <CNN_VS>
2.1602618694

> <CNNaffinity_variance>
0.6366838217

$$$$
[H]OC([H])([H])C([H])([H])C([H])([H])C([H])([H])N([H])C(=O)c1c([H])nc(N([H])C([H])([H])C([H])([H])C([H])([H])C([H])([H])[H])nc1N([H])C1([H])C([H])([H])C([H])([H])C([H])(O[H])C([H])([H])C1([H])[H]


 32 33  0  0  0  0  0  0  0  0999 V2000
    3.3117    0.8092   17.1859 C   0  0  0  0  0  0  0  0  0  0  0  0
    2.8545    1.1771   15.9919 N   0  0  0  0  0  0  0  0  0  0  0  0
    2.9998    2.1294   15.2756 C   0  0  0  0  0  0  0  0  0  0  0  0
    4.0367    3.4170   15.8240 C   0  0  0  0  0  0  0  0  0  0  0  0
    4.3129    2.8258   16.9049 C   0  0  0  0  0  0  0  0  0  0  0  0
    4.1516    1.7877   17.6685 N   0  0  0  0  0  0  0  0  0  0  0  0
    3.7341    4.0645   14.6401 C   0  0  0  0  0  0  0  0  0  0  0  0
    4.1635    3.9393   13.4910 O   0  0  0  0  0  0  0  0  0  0  0  0
    2.6763    5.0821   14.7650 N   0  0  0  0  0  0  0  0  0  0  0  0
    2.2425    5.3072   15.6825 H   0  0  0  0  0  0  0  0  0  0  0  0
    2.2816    5.7463   13.5406 C   0  0  0  0  0  0  0  0  0  0  0  0
    2.5112    7.2364   13.6660 C   0  0  0  0  0  0  0  0  0  0  0  0
    3.8715    7.7374   13.3911 C   0  0  0  0  0  0  0  0  0  0  0  0
    4.2773    7.1823   12.0214 C   0  0  0  0  0  0  0  0  0  0  0  0
    3.8582    7.9868   10.9889 O   0  0  0  0  0  0  0  0  0  0  0  0
    3.9533    7.5529   10.0913 H   0  0  0  0  0  0  0  0  0  0  0  0
    2.9390   -0.3500   17.8175 N   0  0  0  0  0  0  0  0  0  0  0  0
    3.1671   -1.2878   17.4199 H   0  0  0  0  0  0  0  0  0  0  0  0
    2.1873   -0.3587   19.0859 C   0  0  0  0  0  0  0  0  0  0  0  0
    3.1798   -0.4294   20.2317 C   0  0  0  0  0  0  0  0  0  0  0  0
    4.5390    1.4167   21.2777 C   0  0  0  0  0  0  0  0  0  0  0  0
    3.1604    0.7684   21.1100 C   0  0  0  0  0  0  0  0  0  0  0  0
    5.3535    3.8345   17.4833 N   0  0  0  0  0  0  0  0  0  0  0  0
    6.1807    4.0563   16.9378 H   0  0  0  0  0  0  0  0  0  0  0  0
    5.1123    4.4089   18.7380 C   0  0  0  0  0  0  0  0  0  0  0  0
    3.6838    4.8725   18.9255 C   0  0  0  0  0  0  0  0  0  0  0  0
    3.5481    6.2519   19.4367 C   0  0  0  0  0  0  0  0  0  0  0  0
    4.5642    6.7047   20.4431 C   0  0  0  0  0  0  0  0  0  0  0  0
    4.1271    6.5349   21.7592 O   0  0  0  0  0  0  0  0  0  0  0  0
    5.9149    6.1156   20.2937 C   0  0  0  0  0  0  0  0  0  0  0  0
    6.1030    5.5776   18.9390 C   0  0  0  0  0  0  0  0  0  0  0  0
    4.2060    7.4266   22.2114 H   0  0  0  0  0  0  0  0  0  0  0  0
 21 22  1  0  0  0
 22 20  1  0  0  0
 20 19  1  0  0  0
 19 17  1  0  0  0
 17  1  1  0  0  0
  1  2  2  0  0  0
  2  3  1  0  0  0
  3  4  2  0  0  0
  4  7  1  0  0  0
  7  8  2  0  0  0
  7  9  1  0  0  0
  9 11  1  0  0  0
 11 12  1  0  0  0
 12 13  1  0  0  0
 13 14  1  0  0  0
 14 15  1  0  0  0
  4  5  1  0  0  0
  5 23  1  0  0  0
 23 25  1  0  0  0
 25 26  1  0  0  0
 26 27  1  0  0  0
 27 28  1  0  0  0
 28 29  1  0  0  0
 28 30  1  0  0  0
 30 31  1  0  0  0
  5  6  2  0  0  0
  6  1  1  0  0  0
 31 25  1  0  0  0
 17 18  1  0  0  0
  9 10  1  0  0  0
 15 16  1  0  0  0
 23 24  1  0  0  0
 29 32  1  0  0  0
M  END
> <minimizedAffinity>
-6.31282

> <CNNscore>
0.3560855985

> <CNNaffinity>
5.8260793686

> <CNN_VS>
2.0745830536

> <CNNaffinity_variance>
0.1404654682

$$$$
[H]c1nc(N([H])[H])c2c(-c3c([H])c([H])c(N([H])C(=O)c4c([H])n(C([H])(C([H])([H])[H])C([H])([H])[H])c(=O)n(-c5c([H])c([H])c([H])c(F)c5[H])c4=O)c([H])c3[H])c([H])c(-c3c(C([H])([H])[H])nn(C([H])([H])[H])c3C([H])([H])[H])n2n1


 48 53  0  0  0  0  0  0  0  0999 V2000
    2.8791    5.8474   15.1946 C   0  0  0  0  0  0  0  0  0  0  0  0
    3.3117    4.7477   14.5186 C   0  0  0  0  0  0  0  0  0  0  0  0
    2.8412    4.4462   13.2529 C   0  0  0  0  0  0  0  0  0  0  0  0
    1.9164    5.2318   12.6110 C   0  0  0  0  0  0  0  0  0  0  0  0
    1.4628    6.3616   13.3001 C   0  0  0  0  0  0  0  0  0  0  0  0
    1.9342    6.6506   14.5468 C   0  0  0  0  0  0  0  0  0  0  0  0
    1.4188    5.0004   11.2531 C   0  0  0  0  0  0  0  0  0  0  0  0
    0.2698    4.1995   11.0453 C   0  0  0  0  0  0  0  0  0  0  0  0
   -0.0548    4.1675    9.7083 C   0  0  0  0  0  0  0  0  0  0  0  0
    0.8646    4.9244    9.0908 N   0  0  0  0  0  0  0  0  0  0  0  0
    1.1176    5.3076    7.8661 N   0  0  0  0  0  0  0  0  0  0  0  0
    2.0841    6.0847    7.4130 C   0  0  0  0  0  0  0  0  0  0  0  0
    2.9622    6.5765    8.3086 N   0  0  0  0  0  0  0  0  0  0  0  0
    2.7855    6.2392    9.6004 C   0  0  0  0  0  0  0  0  0  0  0  0
    3.7281    6.7033   10.5810 N   0  0  0  0  0  0  0  0  0  0  0  0
    1.7563    5.4262   10.0245 C   0  0  0  0  0  0  0  0  0  0  0  0
    3.6877    7.7035   10.8374 H   0  0  0  0  0  0  0  0  0  0  0  0
    4.4000    6.0210   10.9849 H   0  0  0  0  0  0  0  0  0  0  0  0
   -1.2597    3.5185    9.1444 C   0  0  0  0  0  0  0  0  0  0  0  0
   -2.4988    4.1299    9.0683 C   0  0  0  0  0  0  0  0  0  0  0  0
   -2.9412    5.5113    9.3802 C   0  0  0  0  0  0  0  0  0  0  0  0
   -3.3697    3.2110    8.5810 N   0  0  0  0  0  0  0  0  0  0  0  0
   -2.7866    2.0861    8.3454 N   0  0  0  0  0  0  0  0  0  0  0  0
   -3.4559    0.9216    7.8105 C   0  0  0  0  0  0  0  0  0  0  0  0
   -1.4716    2.2500    8.6896 C   0  0  0  0  0  0  0  0  0  0  0  0
   -0.5565    1.1069    8.5851 C   0  0  0  0  0  0  0  0  0  0  0  0
    4.3824    7.1081   16.7864 C   0  0  0  0  0  0  0  0  0  0  0  0
    5.1551    7.5977   15.9560 O   0  0  0  0  0  0  0  0  0  0  0  0
    3.3188    6.2689   16.4684 N   0  0  0  0  0  0  0  0  0  0  0  0
    2.7800    5.8711   17.3130 H   0  0  0  0  0  0  0  0  0  0  0  0
    5.3141    9.0121   19.8934 N   0  0  0  0  0  0  0  0  0  0  0  0
    4.9934    8.7519   18.5991 C   0  0  0  0  0  0  0  0  0  0  0  0
    4.6590    7.4761   18.1989 C   0  0  0  0  0  0  0  0  0  0  0  0
    4.6415    6.4410   19.1118 C   0  0  0  0  0  0  0  0  0  0  0  0
    4.3477    5.2519   18.8563 O   0  0  0  0  0  0  0  0  0  0  0  0
    4.9640    6.7355   20.3881 N   0  0  0  0  0  0  0  0  0  0  0  0
    5.2850    7.9723   20.7473 C   0  0  0  0  0  0  0  0  0  0  0  0
    5.5775    8.2042   21.9377 O   0  0  0  0  0  0  0  0  0  0  0  0
    4.9537    5.6685   21.3223 C   0  0  0  0  0  0  0  0  0  0  0  0
    6.0672    4.8665   21.4092 C   0  0  0  0  0  0  0  0  0  0  0  0
    6.1246    3.7993   22.2790 C   0  0  0  0  0  0  0  0  0  0  0  0
    5.0566    3.5095   23.0882 C   0  0  0  0  0  0  0  0  0  0  0  0
    3.9298    4.3020   23.0168 C   0  0  0  0  0  0  0  0  0  0  0  0
    2.8801    4.0120   23.8159 F   0  0  0  0  0  0  0  0  0  0  0  0
    3.8857    5.3829   22.1295 C   0  0  0  0  0  0  0  0  0  0  0  0
    7.0843   10.6732   19.8208 C   0  0  0  0  0  0  0  0  0  0  0  0
    5.6749   10.3412   20.2555 C   0  0  0  0  0  0  0  0  0  0  0  0
    4.7549   11.3998   19.7319 C   0  0  0  0  0  0  0  0  0  0  0  0
 46 47  1  0  0  0
 47 48  1  0  0  0
 47 31  1  0  0  0
 31 32  1  0  0  0
 32 33  2  0  0  0
 33 27  1  0  0  0
 27 28  2  0  0  0
 27 29  1  0  0  0
 29  1  1  0  0  0
  1  2  2  0  0  0
  2  3  1  0  0  0
  3  4  2  0  0  0
  4  5  1  0  0  0
  5  6  2  0  0  0
  4  7  1  0  0  0
  7  8  1  0  0  0
  8  9  2  0  0  0
  9 19  1  0  0  0
 19 20  1  0  0  0
 20 21  1  0  0  0
 20 22  2  0  0  0
 22 23  1  0  0  0
 23 24  1  0  0  0
 23 25  1  0  0  0
 25 26  1  0  0  0
  9 10  1  0  0  0
 10 11  1  0  0  0
 11 12  2  0  0  0
 12 13  1  0  0  0
 13 14  2  0  0  0
 14 15  1  0  0  0
 14 16  1  0  0  0
 33 34  1  0  0  0
 34 35  2  0  0  0
 34 36  1  0  0  0
 36 39  1  0  0  0
 39 40  2  0  0  0
 40 41  1  0  0  0
 41 42  2  0  0  0
 42 43  1  0  0  0
 43 44  1  0  0  0
 43 45  2  0  0  0
 36 37  1  0  0  0
 37 38  2  0  0  0
 37 31  1  0  0  0
  6  1  1  0  0  0
 16  7  2  0  0  0
 45 39  1  0  0  0
 25 19  2  0  0  0
 16 10  1  0  0  0
 29 30  1  0  0  0
 15 17  1  0  0  0
 15 18  1  0  0  0
M  END
> <minimizedAffinity>
-8.58562

> <CNNscore>
0.1317560673

> <CNNaffinity>
6.4618010521

> <CNN_VS>
0.8513814807

> <CNNaffinity_variance>
1.3229949474

$$$$
[H]c1nc(N([H])[H])c2c(-c3c([H])c([H])c(N([H])C(=O)c4c([H])n(C([H])(C([H])([H])[H])C([H])([H])[H])c(=O)n(-c5c([H])c([H])c([H])c(F)c5[H])c4=O)c([H])c3[H])c([H])c(-c3c(C([H])([H])[H])nn(C([H])([H])[H])c3C([H])([H])[H])n2n1


 48 53  0  0  0  0  0  0  0  0999 V2000
    3.7527    4.6925   15.0885 C   0  0  0  0  0  0  0  0  0  0  0  0
    3.6171    3.4419   14.5681 C   0  0  0  0  0  0  0  0  0  0  0  0
    3.1707    3.2424   13.2738 C   0  0  0  0  0  0  0  0  0  0  0  0
    2.8394    4.2864   12.4461 C   0  0  0  0  0  0  0  0  0  0  0  0
    2.9714    5.5750   12.9743 C   0  0  0  0  0  0  0  0  0  0  0  0
    3.4138    5.7608   14.2508 C   0  0  0  0  0  0  0  0  0  0  0  0
    2.4139    4.1475   11.0517 C   0  0  0  0  0  0  0  0  0  0  0  0
    3.3721    4.1887   10.0100 C   0  0  0  0  0  0  0  0  0  0  0  0
    2.7647    3.9769    8.7935 C   0  0  0  0  0  0  0  0  0  0  0  0
    1.4607    3.8094    9.0603 N   0  0  0  0  0  0  0  0  0  0  0  0
    0.3715    3.5668    8.3781 N   0  0  0  0  0  0  0  0  0  0  0  0
   -0.8691    3.4155    8.8043 C   0  0  0  0  0  0  0  0  0  0  0  0
   -1.0918    3.5197   10.1288 N   0  0  0  0  0  0  0  0  0  0  0  0
   -0.0299    3.7684   10.9190 C   0  0  0  0  0  0  0  0  0  0  0  0
   -0.2317    3.9348   12.3322 N   0  0  0  0  0  0  0  0  0  0  0  0
    1.2487    3.9145   10.4251 C   0  0  0  0  0  0  0  0  0  0  0  0
   -0.4408    3.0852   12.8818 H   0  0  0  0  0  0  0  0  0  0  0  0
   -0.1585    4.8903   12.7345 H   0  0  0  0  0  0  0  0  0  0  0  0
    3.4768    3.8436    7.5027 C   0  0  0  0  0  0  0  0  0  0  0  0
    4.2235    2.7341    7.1467 C   0  0  0  0  0  0  0  0  0  0  0  0
    4.4296    1.4249    7.8136 C   0  0  0  0  0  0  0  0  0  0  0  0
    4.7932    3.0032    5.9453 N   0  0  0  0  0  0  0  0  0  0  0  0
    4.4685    4.1760    5.5209 N   0  0  0  0  0  0  0  0  0  0  0  0
    4.9137    4.7361    4.2646 C   0  0  0  0  0  0  0  0  0  0  0  0
    3.6503    4.7217    6.4734 C   0  0  0  0  0  0  0  0  0  0  0  0
    3.1600    6.0939    6.2949 C   0  0  0  0  0  0  0  0  0  0  0  0
    3.5072    5.3124   17.5254 C   0  0  0  0  0  0  0  0  0  0  0  0
    2.2747    5.3838   17.5706 O   0  0  0  0  0  0  0  0  0  0  0  0
    4.2336    5.0112   16.3773 N   0  0  0  0  0  0  0  0  0  0  0  0
    5.3049    5.0544   16.4876 H   0  0  0  0  0  0  0  0  0  0  0  0
    5.3711    6.9824   20.3332 N   0  0  0  0  0  0  0  0  0  0  0  0
    4.6725    6.8180   19.1797 C   0  0  0  0  0  0  0  0  0  0  0  0
    4.2018    5.5760   18.8120 C   0  0  0  0  0  0  0  0  0  0  0  0
    4.4312    4.4773   19.6155 C   0  0  0  0  0  0  0  0  0  0  0  0
    4.0446    3.3110   19.3793 O   0  0  0  0  0  0  0  0  0  0  0  0
    5.1271    4.6772   20.7537 N   0  0  0  0  0  0  0  0  0  0  0  0
    5.5718    5.8834   21.0838 C   0  0  0  0  0  0  0  0  0  0  0  0
    6.2118    6.0272   22.1449 O   0  0  0  0  0  0  0  0  0  0  0  0
    5.3690    3.5453   21.5732 C   0  0  0  0  0  0  0  0  0  0  0  0
    6.4019    2.7033   21.2346 C   0  0  0  0  0  0  0  0  0  0  0  0
    6.6861    1.5738   21.9709 C   0  0  0  0  0  0  0  0  0  0  0  0
    5.9334    1.2600   23.0729 C   0  0  0  0  0  0  0  0  0  0  0  0
    4.8925    2.0918   23.4300 C   0  0  0  0  0  0  0  0  0  0  0  0
    4.1537    1.7780   24.5163 F   0  0  0  0  0  0  0  0  0  0  0  0
    4.6159    3.2359   22.6736 C   0  0  0  0  0  0  0  0  0  0  0  0
    6.3720    9.0061   19.4383 C   0  0  0  0  0  0  0  0  0  0  0  0
    5.8570    8.2804   20.6604 C   0  0  0  0  0  0  0  0  0  0  0  0
    4.8625    9.1607   21.3513 C   0  0  0  0  0  0  0  0  0  0  0  0
 46 47  1  0  0  0
 47 48  1  0  0  0
 47 31  1  0  0  0
 31 32  1  0  0  0
 32 33  2  0  0  0
 33 27  1  0  0  0
 27 28  2  0  0  0
 27 29  1  0  0  0
 29  1  1  0  0  0
  1  2  2  0  0  0
  2  3  1  0  0  0
  3  4  2  0  0  0
  4  5  1  0  0  0
  5  6  2  0  0  0
  4  7  1  0  0  0
  7  8  1  0  0  0
  8  9  2  0  0  0
  9 19  1  0  0  0
 19 20  1  0  0  0
 20 21  1  0  0  0
 20 22  2  0  0  0
 22 23  1  0  0  0
 23 24  1  0  0  0
 23 25  1  0  0  0
 25 26  1  0  0  0
  9 10  1  0  0  0
 10 11  1  0  0  0
 11 12  2  0  0  0
 12 13  1  0  0  0
 13 14  2  0  0  0
 14 15  1  0  0  0
 14 16  1  0  0  0
 33 34  1  0  0  0
 34 35  2  0  0  0
 34 36  1  0  0  0
 36 39  1  0  0  0
 39 40  2  0  0  0
 40 41  1  0  0  0
 41 42  2  0  0  0
 42 43  1  0  0  0
 43 44  1  0  0  0
 43 45  2  0  0  0
 36 37  1  0  0  0
 37 38  2  0  0  0
 37 31  1  0  0  0
  6  1  1  0  0  0
 16  7  2  0  0  0
 45 39  1  0  0  0
 25 19  2  0  0  0
 16 10  1  0  0  0
 29 30  1  0  0  0
 15 17  1  0  0  0
 15 18  1  0  0  0
M  END
> <minimizedAffinity>
-8.22965

> <CNNscore>
0.0974433124

> <CNNaffinity>
6.6869812012

> <CNN_VS>
0.6516016126

> <CNNaffinity_variance>
1.2140977383

$$$$
[H]c1nc(N([H])[H])c2c(-c3c([H])c([H])c(N([H])C(=O)c4c([H])n(C([H])(C([H])([H])[H])C([H])([H])[H])c(=O)n(-c5c([H])c([H])c([H])c(F)c5[H])c4=O)c([H])c3[H])c([H])c(-c3c(C([H])([H])[H])nn(C([H])([H])[H])c3C([H])([H])[H])n2n1


 48 53  0  0  0  0  0  0  0  0999 V2000
    1.9660    5.7265   15.4364 C   0  0  0  0  0  0  0  0  0  0  0  0
    2.2021    4.6685   14.6129 C   0  0  0  0  0  0  0  0  0  0  0  0
    1.4739    4.4804   13.4515 C   0  0  0  0  0  0  0  0  0  0  0  0
    0.4775    5.3424   13.0662 C   0  0  0  0  0  0  0  0  0  0  0  0
    0.2250    6.4301   13.9089 C   0  0  0  0  0  0  0  0  0  0  0  0
    0.9495    6.6072   15.0506 C   0  0  0  0  0  0  0  0  0  0  0  0
   -0.2922    5.2321   11.8251 C   0  0  0  0  0  0  0  0  0  0  0  0
   -1.4478    4.4152   11.7771 C   0  0  0  0  0  0  0  0  0  0  0  0
   -2.0469    4.5073   10.5416 C   0  0  0  0  0  0  0  0  0  0  0  0
   -1.2894    5.3558    9.8304 N   0  0  0  0  0  0  0  0  0  0  0  0
   -1.3061    5.8702    8.6280 N   0  0  0  0  0  0  0  0  0  0  0  0
   -0.4682    6.7239    8.0690 C   0  0  0  0  0  0  0  0  0  0  0  0
    0.5721    7.1539    8.8092 N   0  0  0  0  0  0  0  0  0  0  0  0
    0.6770    6.6811   10.0659 C   0  0  0  0  0  0  0  0  0  0  0  0
    1.7987    7.0772   10.8722 N   0  0  0  0  0  0  0  0  0  0  0  0
   -0.2279    5.7923   10.6058 C   0  0  0  0  0  0  0  0  0  0  0  0
    1.7992    8.0440   11.2367 H   0  0  0  0  0  0  0  0  0  0  0  0
    2.5503    6.3823   11.0519 H   0  0  0  0  0  0  0  0  0  0  0  0
   -3.3344    3.8755   10.1752 C   0  0  0  0  0  0  0  0  0  0  0  0
   -4.5564    4.2590   10.6991 C   0  0  0  0  0  0  0  0  0  0  0  0
   -4.9407    5.3735   11.5999 C   0  0  0  0  0  0  0  0  0  0  0  0
   -5.4896    3.4080   10.2037 N   0  0  0  0  0  0  0  0  0  0  0  0
   -4.9612    2.5326    9.4193 N   0  0  0  0  0  0  0  0  0  0  0  0
   -5.7081    1.5019    8.7336 C   0  0  0  0  0  0  0  0  0  0  0  0
   -3.6189    2.8002    9.3855 C   0  0  0  0  0  0  0  0  0  0  0  0
   -2.7333    1.9228    8.6104 C   0  0  0  0  0  0  0  0  0  0  0  0
    3.9241    6.6250   16.7561 C   0  0  0  0  0  0  0  0  0  0  0  0
    4.6494    6.9448   15.8085 O   0  0  0  0  0  0  0  0  0  0  0  0
    2.6713    6.0347   16.6202 N   0  0  0  0  0  0  0  0  0  0  0  0
    2.1934    5.7544   17.5448 H   0  0  0  0  0  0  0  0  0  0  0  0
    5.6944    8.2621   19.6428 N   0  0  0  0  0  0  0  0  0  0  0  0
    5.1352    8.0864   18.4171 C   0  0  0  0  0  0  0  0  0  0  0  0
    4.4813    6.9147   18.1025 C   0  0  0  0  0  0  0  0  0  0  0  0
    4.3816    5.9001   19.0331 C   0  0  0  0  0  0  0  0  0  0  0  0
    3.8070    4.8033   18.8534 O   0  0  0  0  0  0  0  0  0  0  0  0
    4.9471    6.1091   20.2399 N   0  0  0  0  0  0  0  0  0  0  0  0
    5.5736    7.2460   20.5170 C   0  0  0  0  0  0  0  0  0  0  0  0
    6.0840    7.4009   21.6447 O   0  0  0  0  0  0  0  0  0  0  0  0
    4.8508    5.0619   21.1913 C   0  0  0  0  0  0  0  0  0  0  0  0
    3.8458    5.1215   22.1279 C   0  0  0  0  0  0  0  0  0  0  0  0
    3.6998    4.1517   23.0957 C   0  0  0  0  0  0  0  0  0  0  0  0
    4.5668    3.0909   23.1470 C   0  0  0  0  0  0  0  0  0  0  0  0
    5.5819    3.0121   22.2164 C   0  0  0  0  0  0  0  0  0  0  0  0
    6.4337    1.9652   22.2715 F   0  0  0  0  0  0  0  0  0  0  0  0
    5.7177    4.0037   21.2387 C   0  0  0  0  0  0  0  0  0  0  0  0
    7.1960    9.9367   18.7268 C   0  0  0  0  0  0  0  0  0  0  0  0
    6.3794    9.4806   19.9145 C   0  0  0  0  0  0  0  0  0  0  0  0
    5.4942   10.6092   20.3434 C   0  0  0  0  0  0  0  0  0  0  0  0
 46 47  1  0  0  0
 47 48  1  0  0  0
 47 31  1  0  0  0
 31 32  1  0  0  0
 32 33  2  0  0  0
 33 27  1  0  0  0
 27 28  2  0  0  0
 27 29  1  0  0  0
 29  1  1  0  0  0
  1  2  2  0  0  0
  2  3  1  0  0  0
  3  4  2  0  0  0
  4  5  1  0  0  0
  5  6  2  0  0  0
  4  7  1  0  0  0
  7  8  1  0  0  0
  8  9  2  0  0  0
  9 19  1  0  0  0
 19 20  1  0  0  0
 20 21  1  0  0  0
 20 22  2  0  0  0
 22 23  1  0  0  0
 23 24  1  0  0  0
 23 25  1  0  0  0
 25 26  1  0  0  0
  9 10  1  0  0  0
 10 11  1  0  0  0
 11 12  2  0  0  0
 12 13  1  0  0  0
 13 14  2  0  0  0
 14 15  1  0  0  0
 14 16  1  0  0  0
 33 34  1  0  0  0
 34 35  2  0  0  0
 34 36  1  0  0  0
 36 39  1  0  0  0
 39 40  2  0  0  0
 40 41  1  0  0  0
 41 42  2  0  0  0
 42 43  1  0  0  0
 43 44  1  0  0  0
 43 45  2  0  0  0
 36 37  1  0  0  0
 37 38  2  0  0  0
 37 31  1  0  0  0
  6  1  1  0  0  0
 16  7  2  0  0  0
 45 39  1  0  0  0
 25 19  2  0  0  0
 16 10  1  0  0  0
 29 30  1  0  0  0
 15 17  1  0  0  0
 15 18  1  0  0  0
M  END
> <minimizedAffinity>
-9.13071

> <CNNscore>
0.0926618055

> <CNNaffinity>
6.4518089294

> <CNN_VS>
0.5978362560

> <CNNaffinity_variance>
0.4087025225

$$$$
[H]c1nc(N([H])[H])c2c(-c3c([H])c([H])c(N([H])C(=O)c4c([H])n(C([H])(C([H])([H])[H])C([H])([H])[H])c(=O)n(-c5c([H])c([H])c([H])c(F)c5[H])c4=O)c([H])c3[H])c([H])c(-c3c(C([H])([H])[H])nn(C([H])([H])[H])c3C([H])([H])[H])n2n1


 48 53  0  0  0  0  0  0  0  0999 V2000
    3.7261    4.0953   14.8835 C   0  0  0  0  0  0  0  0  0  0  0  0
    3.5180    2.7743   14.6283 C   0  0  0  0  0  0  0  0  0  0  0  0
    3.2848    2.3145   13.3444 C   0  0  0  0  0  0  0  0  0  0  0  0
    3.2482    3.1576   12.2617 C   0  0  0  0  0  0  0  0  0  0  0  0
    3.4565    4.5175   12.5153 C   0  0  0  0  0  0  0  0  0  0  0  0
    3.6871    4.9603   13.7843 C   0  0  0  0  0  0  0  0  0  0  0  0
    3.0612    2.7307   10.8733 C   0  0  0  0  0  0  0  0  0  0  0  0
    3.9998    3.1077    9.8825 C   0  0  0  0  0  0  0  0  0  0  0  0
    3.6649    2.5495    8.6701 C   0  0  0  0  0  0  0  0  0  0  0  0
    2.5459    1.8429    8.8897 N   0  0  0  0  0  0  0  0  0  0  0  0
    1.7424    1.0869    8.1871 N   0  0  0  0  0  0  0  0  0  0  0  0
    0.6579    0.4361    8.5661 C   0  0  0  0  0  0  0  0  0  0  0  0
    0.2868    0.5385    9.8570 N   0  0  0  0  0  0  0  0  0  0  0  0
    1.0529    1.2965   10.6647 C   0  0  0  0  0  0  0  0  0  0  0  0
    0.6649    1.4710   12.0374 N   0  0  0  0  0  0  0  0  0  0  0  0
    2.1802    1.9541   10.2210 C   0  0  0  0  0  0  0  0  0  0  0  0
    0.7962    0.6651   12.6705 H   0  0  0  0  0  0  0  0  0  0  0  0
    0.2750    2.3890   12.3298 H   0  0  0  0  0  0  0  0  0  0  0  0
    4.4834    2.6411    7.4402 C   0  0  0  0  0  0  0  0  0  0  0  0
    4.4534    3.7202    6.5743 C   0  0  0  0  0  0  0  0  0  0  0  0
    3.7630    5.0312    6.6510 C   0  0  0  0  0  0  0  0  0  0  0  0
    5.2591    3.4156    5.5263 N   0  0  0  0  0  0  0  0  0  0  0  0
    5.7884    2.2482    5.6613 N   0  0  0  0  0  0  0  0  0  0  0  0
    6.7008    1.6561    4.7089 C   0  0  0  0  0  0  0  0  0  0  0  0
    5.3201    1.7432    6.8446 C   0  0  0  0  0  0  0  0  0  0  0  0
    5.7075    0.3856    7.2468 C   0  0  0  0  0  0  0  0  0  0  0  0
    3.1195    5.0985   17.1214 C   0  0  0  0  0  0  0  0  0  0  0  0
    1.8900    5.0770   17.0021 O   0  0  0  0  0  0  0  0  0  0  0  0
    4.0099    4.6660   16.1434 N   0  0  0  0  0  0  0  0  0  0  0  0
    5.0524    4.8135   16.3744 H   0  0  0  0  0  0  0  0  0  0  0  0
    4.3990    7.3883   19.8171 N   0  0  0  0  0  0  0  0  0  0  0  0
    3.8672    6.9688   18.6394 C   0  0  0  0  0  0  0  0  0  0  0  0
    3.6182    5.6319   18.4152 C   0  0  0  0  0  0  0  0  0  0  0  0
    3.9032    4.6965   19.3895 C   0  0  0  0  0  0  0  0  0  0  0  0
    3.7112    3.4640   19.2916 O   0  0  0  0  0  0  0  0  0  0  0  0
    4.4290    5.1484   20.5466 N   0  0  0  0  0  0  0  0  0  0  0  0
    4.6618    6.4412   20.7366 C   0  0  0  0  0  0  0  0  0  0  0  0
    5.1494    6.8194   21.8208 O   0  0  0  0  0  0  0  0  0  0  0  0
    4.7290    4.1844   21.5427 C   0  0  0  0  0  0  0  0  0  0  0  0
    3.9682    4.1710   22.6880 C   0  0  0  0  0  0  0  0  0  0  0  0
    4.2113    3.2771   23.7080 C   0  0  0  0  0  0  0  0  0  0  0  0
    5.2326    2.3687   23.6018 C   0  0  0  0  0  0  0  0  0  0  0  0
    6.0077    2.3653   22.4608 C   0  0  0  0  0  0  0  0  0  0  0  0
    7.0130    1.4687   22.3613 F   0  0  0  0  0  0  0  0  0  0  0  0
    5.7490    3.2782   21.4325 C   0  0  0  0  0  0  0  0  0  0  0  0
    6.0676    9.1364   19.5767 C   0  0  0  0  0  0  0  0  0  0  0  0
    4.6599    8.7769   19.9946 C   0  0  0  0  0  0  0  0  0  0  0  0
    3.7067    9.6848   19.2816 C   0  0  0  0  0  0  0  0  0  0  0  0
 46 47  1  0  0  0
 47 48  1  0  0  0
 47 31  1  0  0  0
 31 32  1  0  0  0
 32 33  2  0  0  0
 33 27  1  0  0  0
 27 28  2  0  0  0
 27 29  1  0  0  0
 29  1  1  0  0  0
  1  2  2  0  0  0
  2  3  1  0  0  0
  3  4  2  0  0  0
  4  5  1  0  0  0
  5  6  2  0  0  0
  4  7  1  0  0  0
  7  8  1  0  0  0
  8  9  2  0  0  0
  9 19  1  0  0  0
 19 20  1  0  0  0
 20 21  1  0  0  0
 20 22  2  0  0  0
 22 23  1  0  0  0
 23 24  1  0  0  0
 23 25  1  0  0  0
 25 26  1  0  0  0
  9 10  1  0  0  0
 10 11  1  0  0  0
 11 12  2  0  0  0
 12 13  1  0  0  0
 13 14  2  0  0  0
 14 15  1  0  0  0
 14 16  1  0  0  0
 33 34  1  0  0  0
 34 35  2  0  0  0
 34 36  1  0  0  0
 36 39  1  0  0  0
 39 40  2  0  0  0
 40 41  1  0  0  0
 41 42  2  0  0  0
 42 43  1  0  0  0
 43 44  1  0  0  0
 43 45  2  0  0  0
 36 37  1  0  0  0
 37 38  2  0  0  0
 37 31  1  0  0  0
  6  1  1  0  0  0
 16  7  2  0  0  0
 45 39  1  0  0  0
 25 19  2  0  0  0
 16 10  1  0  0  0
 29 30  1  0  0  0
 15 17  1  0  0  0
 15 18  1  0  0  0
M  END
> <minimizedAffinity>
-9.81569

> <CNNscore>
0.0814658329

> <CNNaffinity>
6.6496419907

> <CNN_VS>
0.5417186022

> <CNNaffinity_variance>
0.7243479490

$$$$
[H]c1nc(N([H])[H])c2c(-c3c([H])c([H])c(N([H])C(=O)c4c([H])n(C([H])(C([H])([H])[H])C([H])([H])[H])c(=O)n(-c5c([H])c([H])c([H])c(F)c5[H])c4=O)c([H])c3[H])c([H])c(-c3c(C([H])([H])[H])nn(C([H])([H])[H])c3C([H])([H])[H])n2n1


 48 53  0  0  0  0  0  0  0  0999 V2000
    2.3881    5.7103   15.3491 C   0  0  0  0  0  0  0  0  0  0  0  0
    2.2087    4.4403   14.8927 C   0  0  0  0  0  0  0  0  0  0  0  0
    1.7606    4.1909   13.6076 C   0  0  0  0  0  0  0  0  0  0  0  0
    1.4714    5.2023   12.7256 C   0  0  0  0  0  0  0  0  0  0  0  0
    1.6486    6.5107   13.1877 C   0  0  0  0  0  0  0  0  0  0  0  0
    2.0922    6.7456   14.4556 C   0  0  0  0  0  0  0  0  0  0  0  0
    1.0468    5.0074   11.3375 C   0  0  0  0  0  0  0  0  0  0  0  0
    2.0121    4.9287   10.3046 C   0  0  0  0  0  0  0  0  0  0  0  0
    1.4003    4.6827    9.0967 C   0  0  0  0  0  0  0  0  0  0  0  0
    0.0869    4.6110    9.3602 N   0  0  0  0  0  0  0  0  0  0  0  0
   -1.0109    4.3952    8.6828 N   0  0  0  0  0  0  0  0  0  0  0  0
   -2.2610    4.3451    9.1050 C   0  0  0  0  0  0  0  0  0  0  0  0
   -2.4851    4.5408   10.4189 N   0  0  0  0  0  0  0  0  0  0  0  0
   -1.4149    4.7706   11.2034 C   0  0  0  0  0  0  0  0  0  0  0  0
   -1.6148    5.0321   12.6024 N   0  0  0  0  0  0  0  0  0  0  0  0
   -0.1267    4.8091   10.7143 C   0  0  0  0  0  0  0  0  0  0  0  0
   -1.8790    4.2308   13.1988 H   0  0  0  0  0  0  0  0  0  0  0  0
   -1.4856    6.0035   12.9487 H   0  0  0  0  0  0  0  0  0  0  0  0
    2.1109    4.4303    7.8230 C   0  0  0  0  0  0  0  0  0  0  0  0
    2.1100    5.3090    6.7540 C   0  0  0  0  0  0  0  0  0  0  0  0
    1.5613    6.6788    6.5998 C   0  0  0  0  0  0  0  0  0  0  0  0
    2.7852    4.7092    5.7417 N   0  0  0  0  0  0  0  0  0  0  0  0
    3.2071    3.5402    6.0830 N   0  0  0  0  0  0  0  0  0  0  0  0
    3.9684    2.6678    5.2173 C   0  0  0  0  0  0  0  0  0  0  0  0
    2.7988    3.3410    7.3746 C   0  0  0  0  0  0  0  0  0  0  0  0
    3.0853    2.0570    8.0259 C   0  0  0  0  0  0  0  0  0  0  0  0
    4.1044    6.6392   16.9536 C   0  0  0  0  0  0  0  0  0  0  0  0
    5.0042    6.8737   16.1402 O   0  0  0  0  0  0  0  0  0  0  0  0
    2.8751    6.0771   16.6226 N   0  0  0  0  0  0  0  0  0  0  0  0
    2.2241    5.8735   17.4572 H   0  0  0  0  0  0  0  0  0  0  0  0
    5.1256    8.5290   20.0411 N   0  0  0  0  0  0  0  0  0  0  0  0
    4.7745    8.2738   18.7537 C   0  0  0  0  0  0  0  0  0  0  0  0
    4.4153    7.0028   18.3601 C   0  0  0  0  0  0  0  0  0  0  0  0
    4.4037    5.9673   19.2727 C   0  0  0  0  0  0  0  0  0  0  0  0
    4.0893    4.7822   19.0230 O   0  0  0  0  0  0  0  0  0  0  0  0
    4.7568    6.2568   20.5421 N   0  0  0  0  0  0  0  0  0  0  0  0
    5.1011    7.4891   20.8950 C   0  0  0  0  0  0  0  0  0  0  0  0
    5.4216    7.7164   22.0791 O   0  0  0  0  0  0  0  0  0  0  0  0
    4.7524    5.1894   21.4759 C   0  0  0  0  0  0  0  0  0  0  0  0
    3.7057    5.1031   22.3634 C   0  0  0  0  0  0  0  0  0  0  0  0
    3.6414    4.1058   23.3121 C   0  0  0  0  0  0  0  0  0  0  0  0
    4.6348    3.1644   23.3932 C   0  0  0  0  0  0  0  0  0  0  0  0
    5.6937    3.2329   22.5119 C   0  0  0  0  0  0  0  0  0  0  0  0
    6.6700    2.3033   22.5963 F   0  0  0  0  0  0  0  0  0  0  0  0
    5.7456    4.2506   21.5531 C   0  0  0  0  0  0  0  0  0  0  0  0
    6.9697   10.1086   20.0915 C   0  0  0  0  0  0  0  0  0  0  0  0
    5.5111    9.8531   20.3961 C   0  0  0  0  0  0  0  0  0  0  0  0
    4.6959   10.9315   19.7528 C   0  0  0  0  0  0  0  0  0  0  0  0
 46 47  1  0  0  0
 47 48  1  0  0  0
 47 31  1  0  0  0
 31 32  1  0  0  0
 32 33  2  0  0  0
 33 27  1  0  0  0
 27 28  2  0  0  0
 27 29  1  0  0  0
 29  1  1  0  0  0
  1  2  2  0  0  0
  2  3  1  0  0  0
  3  4  2  0  0  0
  4  5  1  0  0  0
  5  6  2  0  0  0
  4  7  1  0  0  0
  7  8  1  0  0  0
  8  9  2  0  0  0
  9 19  1  0  0  0
 19 20  1  0  0  0
 20 21  1  0  0  0
 20 22  2  0  0  0
 22 23  1  0  0  0
 23 24  1  0  0  0
 23 25  1  0  0  0
 25 26  1  0  0  0
  9 10  1  0  0  0
 10 11  1  0  0  0
 11 12  2  0  0  0
 12 13  1  0  0  0
 13 14  2  0  0  0
 14 15  1  0  0  0
 14 16  1  0  0  0
 33 34  1  0  0  0
 34 35  2  0  0  0
 34 36  1  0  0  0
 36 39  1  0  0  0
 39 40  2  0  0  0
 40 41  1  0  0  0
 41 42  2  0  0  0
 42 43  1  0  0  0
 43 44  1  0  0  0
 43 45  2  0  0  0
 36 37  1  0  0  0
 37 38  2  0  0  0
 37 31  1  0  0  0
  6  1  1  0  0  0
 16  7  2  0  0  0
 45 39  1  0  0  0
 25 19  2  0  0  0
 16 10  1  0  0  0
 29 30  1  0  0  0
 15 17  1  0  0  0
 15 18  1  0  0  0
M  END
> <minimizedAffinity>
-8.62560

> <CNNscore>
0.0798498094

> <CNNaffinity>
6.4655365944

> <CNN_VS>
0.5162718892

> <CNNaffinity_variance>
1.0939724445

$$$$
[H]c1nc(N([H])[H])c2c(-c3c([H])c([H])c(N([H])C(=O)c4c([H])n(C([H])(C([H])([H])[H])C([H])([H])[H])c(=O)n(-c5c([H])c([H])c([H])c(F)c5[H])c4=O)c([H])c3[H])c([H])c(-c3c(C([H])([H])[H])nn(C([H])([H])[H])c3C([H])([H])[H])n2n1


 48 53  0  0  0  0  0  0  0  0999 V2000
    3.4216    4.3499   15.0764 C   0  0  0  0  0  0  0  0  0  0  0  0
    3.3544    3.0767   14.5993 C   0  0  0  0  0  0  0  0  0  0  0  0
    2.8306    2.8003   13.3489 C   0  0  0  0  0  0  0  0  0  0  0  0
    2.3502    3.7866   12.5237 C   0  0  0  0  0  0  0  0  0  0  0  0
    2.4111    5.0978   13.0078 C   0  0  0  0  0  0  0  0  0  0  0  0
    2.9308    5.3595   14.2411 C   0  0  0  0  0  0  0  0  0  0  0  0
    1.8344    3.5692   11.1703 C   0  0  0  0  0  0  0  0  0  0  0  0
    0.4648    3.2694   10.9726 C   0  0  0  0  0  0  0  0  0  0  0  0
    0.1874    3.1669    9.6287 C   0  0  0  0  0  0  0  0  0  0  0  0
    1.3492    3.3931    8.9973 N   0  0  0  0  0  0  0  0  0  0  0  0
    1.7652    3.4538    7.7588 N   0  0  0  0  0  0  0  0  0  0  0  0
    2.9743    3.7045    7.2913 C   0  0  0  0  0  0  0  0  0  0  0  0
    3.9545    3.9364    8.1860 N   0  0  0  0  0  0  0  0  0  0  0  0
    3.6253    3.8970    9.4913 C   0  0  0  0  0  0  0  0  0  0  0  0
    4.6511    4.0911   10.4789 N   0  0  0  0  0  0  0  0  0  0  0  0
    2.3450    3.6344    9.9295 C   0  0  0  0  0  0  0  0  0  0  0  0
    5.0134    5.0512   10.6000 H   0  0  0  0  0  0  0  0  0  0  0  0
    4.9789    3.2678   11.0218 H   0  0  0  0  0  0  0  0  0  0  0  0
   -1.1632    2.9728    9.0548 C   0  0  0  0  0  0  0  0  0  0  0  0
   -2.0113    4.0120    8.7143 C   0  0  0  0  0  0  0  0  0  0  0  0
   -1.8188    5.4831    8.7037 C   0  0  0  0  0  0  0  0  0  0  0  0
   -3.1805    3.4578    8.3067 N   0  0  0  0  0  0  0  0  0  0  0  0
   -3.1371    2.1708    8.3605 N   0  0  0  0  0  0  0  0  0  0  0  0
   -4.2301    1.3055    7.9774 C   0  0  0  0  0  0  0  0  0  0  0  0
   -1.8917    1.8427    8.8251 C   0  0  0  0  0  0  0  0  0  0  0  0
   -1.5611    0.4302    9.0505 C   0  0  0  0  0  0  0  0  0  0  0  0
    3.3040    5.0955   17.4874 C   0  0  0  0  0  0  0  0  0  0  0  0
    2.0748    5.1437   17.6021 O   0  0  0  0  0  0  0  0  0  0  0  0
    3.9691    4.7477   16.3156 N   0  0  0  0  0  0  0  0  0  0  0  0
    5.0437    4.8190   16.3595 H   0  0  0  0  0  0  0  0  0  0  0  0
    5.3075    6.9465   20.0772 N   0  0  0  0  0  0  0  0  0  0  0  0
    4.5481    6.7069   18.9764 C   0  0  0  0  0  0  0  0  0  0  0  0
    4.0659    5.4425   18.7147 C   0  0  0  0  0  0  0  0  0  0  0  0
    4.3458    4.3980   19.5726 C   0  0  0  0  0  0  0  0  0  0  0  0
    3.9543    3.2180   19.4325 O   0  0  0  0  0  0  0  0  0  0  0  0
    5.1013    4.6721   20.6560 N   0  0  0  0  0  0  0  0  0  0  0  0
    5.5557    5.8982   20.8839 C   0  0  0  0  0  0  0  0  0  0  0  0
    6.2517    6.1112   21.8971 O   0  0  0  0  0  0  0  0  0  0  0  0
    5.3947    3.5955   21.5312 C   0  0  0  0  0  0  0  0  0  0  0  0
    6.3616    2.6933   21.1547 C   0  0  0  0  0  0  0  0  0  0  0  0
    6.6884    1.6113   21.9429 C   0  0  0  0  0  0  0  0  0  0  0  0
    6.0465    1.4076   23.1370 C   0  0  0  0  0  0  0  0  0  0  0  0
    5.0733    2.3013   23.5334 C   0  0  0  0  0  0  0  0  0  0  0  0
    4.4436    2.0958   24.7105 F   0  0  0  0  0  0  0  0  0  0  0  0
    4.7523    3.3960   22.7234 C   0  0  0  0  0  0  0  0  0  0  0  0
    6.1742    8.9399   18.9940 C   0  0  0  0  0  0  0  0  0  0  0  0
    5.8022    8.2641   20.2941 C   0  0  0  0  0  0  0  0  0  0  0  0
    4.8701    9.1622   21.0462 C   0  0  0  0  0  0  0  0  0  0  0  0
 46 47  1  0  0  0
 47 48  1  0  0  0
 47 31  1  0  0  0
 31 32  1  0  0  0
 32 33  2  0  0  0
 33 27  1  0  0  0
 27 28  2  0  0  0
 27 29  1  0  0  0
 29  1  1  0  0  0
  1  2  2  0  0  0
  2  3  1  0  0  0
  3  4  2  0  0  0
  4  5  1  0  0  0
  5  6  2  0  0  0
  4  7  1  0  0  0
  7  8  1  0  0  0
  8  9  2  0  0  0
  9 19  1  0  0  0
 19 20  1  0  0  0
 20 21  1  0  0  0
 20 22  2  0  0  0
 22 23  1  0  0  0
 23 24  1  0  0  0
 23 25  1  0  0  0
 25 26  1  0  0  0
  9 10  1  0  0  0
 10 11  1  0  0  0
 11 12  2  0  0  0
 12 13  1  0  0  0
 13 14  2  0  0  0
 14 15  1  0  0  0
 14 16  1  0  0  0
 33 34  1  0  0  0
 34 35  2  0  0  0
 34 36  1  0  0  0
 36 39  1  0  0  0
 39 40  2  0  0  0
 40 41  1  0  0  0
 41 42  2  0  0  0
 42 43  1  0  0  0
 43 44  1  0  0  0
 43 45  2  0  0  0
 36 37  1  0  0  0
 37 38  2  0  0  0
 37 31  1  0  0  0
  6  1  1  0  0  0
 16  7  2  0  0  0
 45 39  1  0  0  0
 25 19  2  0  0  0
 16 10  1  0  0  0
 29 30  1  0  0  0
 15 17  1  0  0  0
 15 18  1  0  0  0
M  END
> <minimizedAffinity>
-8.57500

> <CNNscore>
0.0786605850

> <CNNaffinity>
6.6604261398

> <CNN_VS>
0.5239130259

> <CNNaffinity_variance>
0.9117190242

$$$$
[H]c1nc(N([H])[H])c2c(-c3c([H])c([H])c(N([H])C(=O)c4c([H])n(C([H])(C([H])([H])[H])C([H])([H])[H])c(=O)n(-c5c([H])c([H])c([H])c(F)c5[H])c4=O)c([H])c3[H])c([H])c(-c3c(C([H])([H])[H])nn(C([H])([H])[H])c3C([H])([H])[H])n2n1


 48 53  0  0  0  0  0  0  0  0999 V2000
    3.2923    5.5720   14.8858 C   0  0  0  0  0  0  0  0  0  0  0  0
    3.8247    4.6151   14.0769 C   0  0  0  0  0  0  0  0  0  0  0  0
    3.3563    4.4137   12.7907 C   0  0  0  0  0  0  0  0  0  0  0  0
    2.3338    5.1606   12.2603 C   0  0  0  0  0  0  0  0  0  0  0  0
    1.7776    6.1432   13.0861 C   0  0  0  0  0  0  0  0  0  0  0  0
    2.2478    6.3346   14.3519 C   0  0  0  0  0  0  0  0  0  0  0  0
    1.8283    5.0362   10.8913 C   0  0  0  0  0  0  0  0  0  0  0  0
    2.1020    6.0479    9.9393 C   0  0  0  0  0  0  0  0  0  0  0  0
    1.5889    5.6993    8.7109 C   0  0  0  0  0  0  0  0  0  0  0  0
    1.0065    4.5034    8.8841 N   0  0  0  0  0  0  0  0  0  0  0  0
    0.3663    3.6381    8.1410 N   0  0  0  0  0  0  0  0  0  0  0  0
   -0.1499    2.4685    8.4710 C   0  0  0  0  0  0  0  0  0  0  0  0
   -0.0228    2.0682    9.7511 N   0  0  0  0  0  0  0  0  0  0  0  0
    0.6242    2.8920   10.5976 C   0  0  0  0  0  0  0  0  0  0  0  0
    0.7392    2.5246   11.9822 N   0  0  0  0  0  0  0  0  0  0  0  0
    1.1497    4.1037   10.2026 C   0  0  0  0  0  0  0  0  0  0  0  0
    1.4012    1.7663   12.2153 H   0  0  0  0  0  0  0  0  0  0  0  0
    0.1594    3.0319   12.6797 H   0  0  0  0  0  0  0  0  0  0  0  0
    1.7848    6.4688    7.4616 C   0  0  0  0  0  0  0  0  0  0  0  0
    2.9877    6.5382    6.7810 C   0  0  0  0  0  0  0  0  0  0  0  0
    4.2849    5.8497    6.9920 C   0  0  0  0  0  0  0  0  0  0  0  0
    2.8123    7.3947    5.7438 N   0  0  0  0  0  0  0  0  0  0  0  0
    1.6117    7.8625    5.7154 N   0  0  0  0  0  0  0  0  0  0  0  0
    1.1254    8.7890    4.7179 C   0  0  0  0  0  0  0  0  0  0  0  0
    0.9511    7.3030    6.7761 C   0  0  0  0  0  0  0  0  0  0  0  0
   -0.4384    7.6953    7.0416 C   0  0  0  0  0  0  0  0  0  0  0  0
    3.0951    5.5931   17.4044 C   0  0  0  0  0  0  0  0  0  0  0  0
    2.0070    5.0169   17.5055 O   0  0  0  0  0  0  0  0  0  0  0  0
    3.7172    5.8873   16.1948 N   0  0  0  0  0  0  0  0  0  0  0  0
    4.6306    6.4540   16.2746 H   0  0  0  0  0  0  0  0  0  0  0  0
    4.7863    7.5244   20.1533 N   0  0  0  0  0  0  0  0  0  0  0  0
    4.1380    7.2539   18.9904 C   0  0  0  0  0  0  0  0  0  0  0  0
    3.7305    5.9713   18.6929 C   0  0  0  0  0  0  0  0  0  0  0  0
    3.9729    4.9397   19.5775 C   0  0  0  0  0  0  0  0  0  0  0  0
    3.6414    3.7451   19.4088 O   0  0  0  0  0  0  0  0  0  0  0  0
    4.6176    5.2446   20.7225 N   0  0  0  0  0  0  0  0  0  0  0  0
    5.0020    6.4878   20.9841 C   0  0  0  0  0  0  0  0  0  0  0  0
    5.5960    6.7292   22.0542 O   0  0  0  0  0  0  0  0  0  0  0  0
    4.8732    4.1814   21.6257 C   0  0  0  0  0  0  0  0  0  0  0  0
    4.1102    4.0967   22.7664 C   0  0  0  0  0  0  0  0  0  0  0  0
    4.3119    3.1035   23.7001 C   0  0  0  0  0  0  0  0  0  0  0  0
    5.2927    2.1649   23.5092 C   0  0  0  0  0  0  0  0  0  0  0  0
    6.0693    2.2319   22.3711 C   0  0  0  0  0  0  0  0  0  0  0  0
    7.0346    1.3050   22.1881 F   0  0  0  0  0  0  0  0  0  0  0  0
    5.8528    3.2454   21.4311 C   0  0  0  0  0  0  0  0  0  0  0  0
    6.6246    9.0963   19.9333 C   0  0  0  0  0  0  0  0  0  0  0  0
    5.2084    8.8606   20.4071 C   0  0  0  0  0  0  0  0  0  0  0  0
    4.3273    9.9146   19.8121 C   0  0  0  0  0  0  0  0  0  0  0  0
 46 47  1  0  0  0
 47 48  1  0  0  0
 47 31  1  0  0  0
 31 32  1  0  0  0
 32 33  2  0  0  0
 33 27  1  0  0  0
 27 28  2  0  0  0
 27 29  1  0  0  0
 29  1  1  0  0  0
  1  2  2  0  0  0
  2  3  1  0  0  0
  3  4  2  0  0  0
  4  5  1  0  0  0
  5  6  2  0  0  0
  4  7  1  0  0  0
  7  8  1  0  0  0
  8  9  2  0  0  0
  9 19  1  0  0  0
 19 20  1  0  0  0
 20 21  1  0  0  0
 20 22  2  0  0  0
 22 23  1  0  0  0
 23 24  1  0  0  0
 23 25  1  0  0  0
 25 26  1  0  0  0
  9 10  1  0  0  0
 10 11  1  0  0  0
 11 12  2  0  0  0
 12 13  1  0  0  0
 13 14  2  0  0  0
 14 15  1  0  0  0
 14 16  1  0  0  0
 33 34  1  0  0  0
 34 35  2  0  0  0
 34 36  1  0  0  0
 36 39  1  0  0  0
 39 40  2  0  0  0
 40 41  1  0  0  0
 41 42  2  0  0  0
 42 43  1  0  0  0
 43 44  1  0  0  0
 43 45  2  0  0  0
 36 37  1  0  0  0
 37 38  2  0  0  0
 37 31  1  0  0  0
  6  1  1  0  0  0
 16  7  2  0  0  0
 45 39  1  0  0  0
 25 19  2  0  0  0
 16 10  1  0  0  0
 29 30  1  0  0  0
 15 17  1  0  0  0
 15 18  1  0  0  0
M  END
> <minimizedAffinity>
-9.53391

> <CNNscore>
0.0769704208

> <CNNaffinity>
6.5089979172

> <CNN_VS>
0.5010002851

> <CNNaffinity_variance>
1.0055201054

$$$$
[H]c1nc(N([H])[H])c2c(-c3c([H])c([H])c(N([H])C(=O)c4c([H])n(C([H])(C([H])([H])[H])C([H])([H])[H])c(=O)n(-c5c([H])c([H])c([H])c(F)c5[H])c4=O)c([H])c3[H])c([H])c(-c3c(C([H])([H])[H])nn(C([H])([H])[H])c3C([H])([H])[H])n2n1


 48 53  0  0  0  0  0  0  0  0999 V2000
    3.5593    4.1140   15.6576 C   0  0  0  0  0  0  0  0  0  0  0  0
    2.7873    4.6582   16.6380 C   0  0  0  0  0  0  0  0  0  0  0  0
    3.2467    4.7761   17.9377 C   0  0  0  0  0  0  0  0  0  0  0  0
    4.4978    4.3524   18.3116 C   0  0  0  0  0  0  0  0  0  0  0  0
    5.2964    3.7877   17.3115 C   0  0  0  0  0  0  0  0  0  0  0  0
    4.8346    3.6776   16.0331 C   0  0  0  0  0  0  0  0  0  0  0  0
    5.0648    4.4972   19.6542 C   0  0  0  0  0  0  0  0  0  0  0  0
    5.7599    5.6792   20.0072 C   0  0  0  0  0  0  0  0  0  0  0  0
    6.1505    5.6280   21.3257 C   0  0  0  0  0  0  0  0  0  0  0  0
    5.7164    4.4466   21.7899 N   0  0  0  0  0  0  0  0  0  0  0  0
    5.7434    3.8008   22.9270 N   0  0  0  0  0  0  0  0  0  0  0  0
    5.2465    2.6159   23.2308 C   0  0  0  0  0  0  0  0  0  0  0  0
    4.6112    1.9362   22.2564 N   0  0  0  0  0  0  0  0  0  0  0  0
    4.5291    2.5193   21.0452 C   0  0  0  0  0  0  0  0  0  0  0  0
    3.9020    1.8074   19.9658 N   0  0  0  0  0  0  0  0  0  0  0  0
    5.0618    3.7625   20.7789 C   0  0  0  0  0  0  0  0  0  0  0  0
    2.8727    1.7210   19.9931 H   0  0  0  0  0  0  0  0  0  0  0  0
    4.5036    1.4163   19.2139 H   0  0  0  0  0  0  0  0  0  0  0  0
    6.8009    6.7363   22.0603 C   0  0  0  0  0  0  0  0  0  0  0  0
    6.2902    8.0209   22.1251 C   0  0  0  0  0  0  0  0  0  0  0  0
    5.0164    8.6048   21.6375 C   0  0  0  0  0  0  0  0  0  0  0  0
    7.1904    8.7762   22.8028 N   0  0  0  0  0  0  0  0  0  0  0  0
    8.2121    8.0801   23.1668 N   0  0  0  0  0  0  0  0  0  0  0  0
    9.3297    8.6099   23.9154 C   0  0  0  0  0  0  0  0  0  0  0  0
    7.9955    6.8059   22.7152 C   0  0  0  0  0  0  0  0  0  0  0  0
    9.0281    5.7849   22.9307 C   0  0  0  0  0  0  0  0  0  0  0  0
    2.9565    2.8184   13.5742 C   0  0  0  0  0  0  0  0  0  0  0  0
    3.0491    1.6770   14.0378 O   0  0  0  0  0  0  0  0  0  0  0  0
    3.2070    3.9810   14.2968 N   0  0  0  0  0  0  0  0  0  0  0  0
    3.1479    4.8956   13.7295 H   0  0  0  0  0  0  0  0  0  0  0  0
    1.7888    1.9103   10.1161 N   0  0  0  0  0  0  0  0  0  0  0  0
    2.0712    1.8053   11.4408 C   0  0  0  0  0  0  0  0  0  0  0  0
    2.5479    2.8883   12.1476 C   0  0  0  0  0  0  0  0  0  0  0  0
    2.7427    4.1010   11.5178 C   0  0  0  0  0  0  0  0  0  0  0  0
    3.1637    5.1445   12.0650 O   0  0  0  0  0  0  0  0  0  0  0  0
    2.4509    4.1696   10.2025 N   0  0  0  0  0  0  0  0  0  0  0  0
    1.9954    3.1109    9.5441 C   0  0  0  0  0  0  0  0  0  0  0  0
    1.7373    3.2147    8.3280 O   0  0  0  0  0  0  0  0  0  0  0  0
    2.6601    5.4143    9.5558 C   0  0  0  0  0  0  0  0  0  0  0  0
    1.6012    6.2862    9.4606 C   0  0  0  0  0  0  0  0  0  0  0  0
    1.7219    7.5055    8.8302 C   0  0  0  0  0  0  0  0  0  0  0  0
    2.9182    7.8809    8.2755 C   0  0  0  0  0  0  0  0  0  0  0  0
    3.9932    7.0207    8.3603 C   0  0  0  0  0  0  0  0  0  0  0  0
    5.1693    7.3951    7.8118 F   0  0  0  0  0  0  0  0  0  0  0  0
    3.8564    5.7860    9.0041 C   0  0  0  0  0  0  0  0  0  0  0  0
    2.4153   -0.2684    9.2447 C   0  0  0  0  0  0  0  0  0  0  0  0
    1.3199    0.7583    9.4225 C   0  0  0  0  0  0  0  0  0  0  0  0
    0.1402    0.0887   10.0558 C   0  0  0  0  0  0  0  0  0  0  0  0
 46 47  1  0  0  0
 47 48  1  0  0  0
 47 31  1  0  0  0
 31 32  1  0  0  0
 32 33  2  0  0  0
 33 27  1  0  0  0
 27 28  2  0  0  0
 27 29  1  0  0  0
 29  1  1  0  0  0
  1  2  2  0  0  0
  2  3  1  0  0  0
  3  4  2  0  0  0
  4  5  1  0  0  0
  5  6  2  0  0  0
  4  7  1  0  0  0
  7  8  1  0  0  0
  8  9  2  0  0  0
  9 19  1  0  0  0
 19 20  1  0  0  0
 20 21  1  0  0  0
 20 22  2  0  0  0
 22 23  1  0  0  0
 23 24  1  0  0  0
 23 25  1  0  0  0
 25 26  1  0  0  0
  9 10  1  0  0  0
 10 11  1  0  0  0
 11 12  2  0  0  0
 12 13  1  0  0  0
 13 14  2  0  0  0
 14 15  1  0  0  0
 14 16  1  0  0  0
 33 34  1  0  0  0
 34 35  2  0  0  0
 34 36  1  0  0  0
 36 39  1  0  0  0
 39 40  2  0  0  0
 40 41  1  0  0  0
 41 42  2  0  0  0
 42 43  1  0  0  0
 43 44  1  0  0  0
 43 45  2  0  0  0
 36 37  1  0  0  0
 37 38  2  0  0  0
 37 31  1  0  0  0
  6  1  1  0  0  0
 16  7  2  0  0  0
 45 39  1  0  0  0
 25 19  2  0  0  0
 16 10  1  0  0  0
 29 30  1  0  0  0
 15 17  1  0  0  0
 15 18  1  0  0  0
M  END
> <minimizedAffinity>
-9.17275

> <CNNscore>
0.0605298616

> <CNNaffinity>
6.5837554932

> <CNN_VS>
0.3985137939

> <CNNaffinity_variance>
0.4938464165

$$$$
[H]c1nc(N([H])[H])c2c(-c3c([H])c([H])c(N([H])C(=O)c4c([H])n(C([H])(C([H])([H])[H])C([H])([H])[H])c(=O)n(-c5c([H])c([H])c([H])c(F)c5[H])c4=O)c([H])c3[H])c([H])c(-c3c(C([H])([H])[H])nn(C([H])([H])[H])c3C([H])([H])[H])n2n1


 48 53  0  0  0  0  0  0  0  0999 V2000
    3.7671    3.9887   14.9982 C   0  0  0  0  0  0  0  0  0  0  0  0
    3.2147    2.9279   14.3478 C   0  0  0  0  0  0  0  0  0  0  0  0
    2.7625    3.0350   13.0446 C   0  0  0  0  0  0  0  0  0  0  0  0
    2.8426    4.2091   12.3377 C   0  0  0  0  0  0  0  0  0  0  0  0
    3.4047    5.3057   12.9998 C   0  0  0  0  0  0  0  0  0  0  0  0
    3.8488    5.1891   14.2839 C   0  0  0  0  0  0  0  0  0  0  0  0
    2.4341    4.3757   10.9412 C   0  0  0  0  0  0  0  0  0  0  0  0
    3.0720    3.6288    9.9214 C   0  0  0  0  0  0  0  0  0  0  0  0
    2.4927    3.8938    8.7016 C   0  0  0  0  0  0  0  0  0  0  0  0
    1.5192    4.7841    8.9450 N   0  0  0  0  0  0  0  0  0  0  0  0
    0.6117    5.4186    8.2490 N   0  0  0  0  0  0  0  0  0  0  0  0
   -0.3052    6.2789    8.6524 C   0  0  0  0  0  0  0  0  0  0  0  0
   -0.3475    6.5771    9.9654 N   0  0  0  0  0  0  0  0  0  0  0  0
    0.5486    5.9722   10.7684 C   0  0  0  0  0  0  0  0  0  0  0  0
    0.5687    6.2993   12.1677 N   0  0  0  0  0  0  0  0  0  0  0  0
    1.4852    5.0766   10.2985 C   0  0  0  0  0  0  0  0  0  0  0  0
   -0.2011    5.9293   12.7493 H   0  0  0  0  0  0  0  0  0  0  0  0
    1.3472    6.8854   12.5289 H   0  0  0  0  0  0  0  0  0  0  0  0
    2.8333    3.2077    7.4350 C   0  0  0  0  0  0  0  0  0  0  0  0
    3.8605    3.6044    6.5968 C   0  0  0  0  0  0  0  0  0  0  0  0
    4.9052    4.6484    6.7380 C   0  0  0  0  0  0  0  0  0  0  0  0
    3.8178    2.8028    5.5033 N   0  0  0  0  0  0  0  0  0  0  0  0
    2.8606    1.9436    5.5849 N   0  0  0  0  0  0  0  0  0  0  0  0
    2.5746    0.9494    4.5749 C   0  0  0  0  0  0  0  0  0  0  0  0
    2.2303    2.1754    6.7780 C   0  0  0  0  0  0  0  0  0  0  0  0
    1.0472    1.3803    7.1289 C   0  0  0  0  0  0  0  0  0  0  0  0
    3.6477    4.2735   17.5056 C   0  0  0  0  0  0  0  0  0  0  0  0
    2.4701    4.6372   17.5905 O   0  0  0  0  0  0  0  0  0  0  0  0
    4.2936    3.9808   16.3082 N   0  0  0  0  0  0  0  0  0  0  0  0
    5.3410    3.7428   16.3982 H   0  0  0  0  0  0  0  0  0  0  0  0
    4.9822    2.9980   20.7827 N   0  0  0  0  0  0  0  0  0  0  0  0
    4.3727    3.0166   19.5686 C   0  0  0  0  0  0  0  0  0  0  0  0
    4.3677    4.1608   18.8002 C   0  0  0  0  0  0  0  0  0  0  0  0
    4.9877    5.3078   19.2533 C   0  0  0  0  0  0  0  0  0  0  0  0
    5.0471    6.3941   18.6353 O   0  0  0  0  0  0  0  0  0  0  0  0
    5.5839    5.2531   20.4621 N   0  0  0  0  0  0  0  0  0  0  0  0
    5.5722    4.1392   21.1838 C   0  0  0  0  0  0  0  0  0  0  0  0
    6.1347    4.1290   22.2973 O   0  0  0  0  0  0  0  0  0  0  0  0
    6.2127    6.4354   20.9292 C   0  0  0  0  0  0  0  0  0  0  0  0
    7.5510    6.6102   20.6664 C   0  0  0  0  0  0  0  0  0  0  0  0
    8.2352    7.7233   21.1039 C   0  0  0  0  0  0  0  0  0  0  0  0
    7.5869    8.6948   21.8218 C   0  0  0  0  0  0  0  0  0  0  0  0
    6.2441    8.5388   22.0961 C   0  0  0  0  0  0  0  0  0  0  0  0
    5.6101    9.4986   22.8042 F   0  0  0  0  0  0  0  0  0  0  0  0
    5.5617    7.4037   21.6449 C   0  0  0  0  0  0  0  0  0  0  0  0
    3.5773    1.1509   21.4987 C   0  0  0  0  0  0  0  0  0  0  0  0
    4.9419    1.7996   21.5508 C   0  0  0  0  0  0  0  0  0  0  0  0
    5.9674    0.7793   21.1654 C   0  0  0  0  0  0  0  0  0  0  0  0
 46 47  1  0  0  0
 47 48  1  0  0  0
 47 31  1  0  0  0
 31 32  1  0  0  0
 32 33  2  0  0  0
 33 27  1  0  0  0
 27 28  2  0  0  0
 27 29  1  0  0  0
 29  1  1  0  0  0
  1  2  2  0  0  0
  2  3  1  0  0  0
  3  4  2  0  0  0
  4  5  1  0  0  0
  5  6  2  0  0  0
  4  7  1  0  0  0
  7  8  1  0  0  0
  8  9  2  0  0  0
  9 19  1  0  0  0
 19 20  1  0  0  0
 20 21  1  0  0  0
 20 22  2  0  0  0
 22 23  1  0  0  0
 23 24  1  0  0  0
 23 25  1  0  0  0
 25 26  1  0  0  0
  9 10  1  0  0  0
 10 11  1  0  0  0
 11 12  2  0  0  0
 12 13  1  0  0  0
 13 14  2  0  0  0
 14 15  1  0  0  0
 14 16  1  0  0  0
 33 34  1  0  0  0
 34 35  2  0  0  0
 34 36  1  0  0  0
 36 39  1  0  0  0
 39 40  2  0  0  0
 40 41  1  0  0  0
 41 42  2  0  0  0
 42 43  1  0  0  0
 43 44  1  0  0  0
 43 45  2  0  0  0
 36 37  1  0  0  0
 37 38  2  0  0  0
 37 31  1  0  0  0
  6  1  1  0  0  0
 16  7  2  0  0  0
 45 39  1  0  0  0
 25 19  2  0  0  0
 16 10  1  0  0  0
 29 30  1  0  0  0
 15 17  1  0  0  0
 15 18  1  0  0  0
M  END
> <minimizedAffinity>
-8.44275

> <CNNscore>
0.0574398786

> <CNNaffinity>
6.8036222458

> <CNN_VS>
0.3907992244

> <CNNaffinity_variance>
1.0082386732

$$$$
[H]O[C@]1([H])C([H])([H])C([H])([H])[C@@]([H])(N([H])c2nc(N([H])C([H])([H])C([H])([H])C([H])([H])C([H])([H])[H])nc([H])c2C(=O)N([H])C([H])([H])c2c([H])c([H])c(-n3c([H])c([H])c([H])c3[H])c([H])c2[H])C([H])([H])C1([H])[H]


 38 41  0  0  0  0  0  0  0  0999 V2000
    2.9375    0.2591   18.1968 C   0  0  0  0  0  0  0  0  0  0  0  0
    2.1748    0.0192   17.1122 N   0  0  0  0  0  0  0  0  0  0  0  0
    2.2812    0.8504   16.0712 C   0  0  0  0  0  0  0  0  0  0  0  0
    3.1660    1.9520   16.0990 C   0  0  0  0  0  0  0  0  0  0  0  0
    3.9312    2.1702   17.2192 C   0  0  0  0  0  0  0  0  0  0  0  0
    3.7768    1.2842   18.2519 N   0  0  0  0  0  0  0  0  0  0  0  0
    3.2006    2.8064   14.9313 C   0  0  0  0  0  0  0  0  0  0  0  0
    4.2346    3.4020   14.5364 O   0  0  0  0  0  0  0  0  0  0  0  0
    2.0517    3.0260   14.1503 N   0  0  0  0  0  0  0  0  0  0  0  0
    1.1207    2.6210   14.3215 H   0  0  0  0  0  0  0  0  0  0  0  0
    2.1070    3.9046   12.9617 C   0  0  0  0  0  0  0  0  0  0  0  0
    1.4389    3.1997   11.8691 C   0  0  0  0  0  0  0  0  0  0  0  0
    1.6339    1.8509   11.6843 C   0  0  0  0  0  0  0  0  0  0  0  0
    0.9891    1.1739   10.6404 C   0  0  0  0  0  0  0  0  0  0  0  0
    0.1442    1.8306    9.7700 C   0  0  0  0  0  0  0  0  0  0  0  0
   -0.0345    3.1817    9.9767 C   0  0  0  0  0  0  0  0  0  0  0  0
    0.6019    3.8596   11.0102 C   0  0  0  0  0  0  0  0  0  0  0  0
   -0.5289    1.1733    8.6943 N   0  0  0  0  0  0  0  0  0  0  0  0
   -1.6684    0.4404    8.7711 C   0  0  0  0  0  0  0  0  0  0  0  0
   -1.9778   -0.0185    7.5103 C   0  0  0  0  0  0  0  0  0  0  0  0
   -1.0093    0.4404    6.6378 C   0  0  0  0  0  0  0  0  0  0  0  0
   -0.1314    1.1734    7.4090 C   0  0  0  0  0  0  0  0  0  0  0  0
    2.8292   -0.6229   19.3163 N   0  0  0  0  0  0  0  0  0  0  0  0
    2.8373   -1.6456   19.1309 H   0  0  0  0  0  0  0  0  0  0  0  0
    2.7141   -0.0618   20.6383 C   0  0  0  0  0  0  0  0  0  0  0  0
    4.0468   -0.2114   21.3329 C   0  0  0  0  0  0  0  0  0  0  0  0
    6.1195    1.1040   21.3144 C   0  0  0  0  0  0  0  0  0  0  0  0
    4.6364    1.1464   21.6640 C   0  0  0  0  0  0  0  0  0  0  0  0
    4.8512    3.2222   17.3237 N   0  0  0  0  0  0  0  0  0  0  0  0
    5.7908    3.2864   16.9187 H   0  0  0  0  0  0  0  0  0  0  0  0
    4.4418    4.3896   18.1127 C   0  0  0  0  0  0  0  0  0  0  0  0
    5.1867    4.4164   19.4553 C   0  0  0  0  0  0  0  0  0  0  0  0
    5.4138    5.8296   19.9272 C   0  0  0  0  0  0  0  0  0  0  0  0
    4.1569    6.6372   19.5879 C   0  0  0  0  0  0  0  0  0  0  0  0
    3.0848    5.9365   20.1386 O   0  0  0  0  0  0  0  0  0  0  0  0
    3.9824    6.7941   18.0943 C   0  0  0  0  0  0  0  0  0  0  0  0
    4.7899    5.6853   17.4395 C   0  0  0  0  0  0  0  0  0  0  0  0
    3.1309    6.0926   21.1217 H   0  0  0  0  0  0  0  0  0  0  0  0
 27 28  1  0  0  0
 28 26  1  0  0  0
 26 25  1  0  0  0
 25 23  1  0  0  0
 23  1  1  0  0  0
  1  2  2  0  0  0
  2  3  1  0  0  0
  3  4  2  0  0  0
  4  7  1  0  0  0
  7  8  2  0  0  0
  7  9  1  0  0  0
  9 11  1  0  0  0
 11 12  1  0  0  0
 12 13  2  0  0  0
 13 14  1  0  0  0
 14 15  2  0  0  0
 15 16  1  0  0  0
 16 17  2  0  0  0
 15 18  1  0  0  0
 18 19  1  0  0  0
 19 20  2  0  0  0
 20 21  1  0  0  0
 21 22  2  0  0  0
  4  5  1  0  0  0
  5 29  1  0  0  0
 29 31  1  0  0  0
 31 32  1  0  0  0
 32 33  1  0  0  0
 33 34  1  0  0  0
 34 35  1  0  0  0
 34 36  1  0  0  0
 36 37  1  0  0  0
  5  6  2  0  0  0
  6  1  1  0  0  0
 17 12  1  0  0  0
 22 18  1  0  0  0
 37 31  1  0  0  0
 23 24  1  0  0  0
  9 10  1  0  0  0
 29 30  1  0  0  0
 35 38  1  0  0  0
M  END
> <minimizedAffinity>
-7.14584

> <CNNscore>
0.8598443866

> <CNNaffinity>
6.9914102554

> <CNN_VS>
6.0115246773

> <CNNaffinity_variance>
0.1010407582

$$$$
[H]O[C@]1([H])C([H])([H])C([H])([H])[C@@]([H])(N([H])c2nc(N([H])C([H])([H])C([H])([H])C([H])([H])C([H])([H])[H])nc([H])c2C(=O)N([H])C([H])([H])c2c([H])c([H])c(-n3c([H])c([H])c([H])c3[H])c([H])c2[H])C([H])([H])C1([H])[H]


 38 41  0  0  0  0  0  0  0  0999 V2000
    2.9526    0.4409   18.1521 C   0  0  0  0  0  0  0  0  0  0  0  0
    2.1506    0.3933   17.0703 N   0  0  0  0  0  0  0  0  0  0  0  0
    2.2734    1.3568   16.1525 C   0  0  0  0  0  0  0  0  0  0  0  0
    3.2151    2.3996   16.3046 C   0  0  0  0  0  0  0  0  0  0  0  0
    4.0193    2.4206   17.4185 C   0  0  0  0  0  0  0  0  0  0  0  0
    3.8455    1.4063   18.3220 N   0  0  0  0  0  0  0  0  0  0  0  0
    3.2640    3.4075   15.2670 C   0  0  0  0  0  0  0  0  0  0  0  0
    4.1487    3.4438   14.3748 O   0  0  0  0  0  0  0  0  0  0  0  0
    2.3016    4.4303   15.1936 N   0  0  0  0  0  0  0  0  0  0  0  0
    1.5069    4.5567   15.8359 H   0  0  0  0  0  0  0  0  0  0  0  0
    2.3702    5.4525   14.1266 C   0  0  0  0  0  0  0  0  0  0  0  0
    1.0457    5.5295   13.5130 C   0  0  0  0  0  0  0  0  0  0  0  0
    0.5171    4.4455   12.8518 C   0  0  0  0  0  0  0  0  0  0  0  0
   -0.7550    4.5173   12.2683 C   0  0  0  0  0  0  0  0  0  0  0  0
   -1.5143    5.6670   12.3362 C   0  0  0  0  0  0  0  0  0  0  0  0
   -0.9621    6.7388   13.0044 C   0  0  0  0  0  0  0  0  0  0  0  0
    0.2992    6.6745   13.5855 C   0  0  0  0  0  0  0  0  0  0  0  0
   -2.8140    5.7766   11.7524 N   0  0  0  0  0  0  0  0  0  0  0  0
   -3.9578    6.1607   12.3734 C   0  0  0  0  0  0  0  0  0  0  0  0
   -4.9842    6.1288   11.4562 C   0  0  0  0  0  0  0  0  0  0  0  0
   -4.4631    5.7166   10.2444 C   0  0  0  0  0  0  0  0  0  0  0  0
   -3.1181    5.5088   10.4695 C   0  0  0  0  0  0  0  0  0  0  0  0
    2.8273   -0.5839   19.1405 N   0  0  0  0  0  0  0  0  0  0  0  0
    3.0012   -1.5656   18.8465 H   0  0  0  0  0  0  0  0  0  0  0  0
    2.4687   -0.2153   20.4864 C   0  0  0  0  0  0  0  0  0  0  0  0
    3.7278   -0.1866   21.3199 C   0  0  0  0  0  0  0  0  0  0  0  0
    3.8738    2.1345   22.1062 C   0  0  0  0  0  0  0  0  0  0  0  0
    3.5501    0.7073   22.5325 C   0  0  0  0  0  0  0  0  0  0  0  0
    4.9955    3.4019   17.6384 N   0  0  0  0  0  0  0  0  0  0  0  0
    5.9582    3.4294   17.2873 H   0  0  0  0  0  0  0  0  0  0  0  0
    4.6160    4.5427   18.4793 C   0  0  0  0  0  0  0  0  0  0  0  0
    5.4366    4.5475   19.7773 C   0  0  0  0  0  0  0  0  0  0  0  0
    5.6708    5.9517   20.2718 C   0  0  0  0  0  0  0  0  0  0  0  0
    4.3852    6.7481   20.0260 C   0  0  0  0  0  0  0  0  0  0  0  0
    3.3565    6.0173   20.6190 O   0  0  0  0  0  0  0  0  0  0  0  0
    4.1226    6.9395   18.5495 C   0  0  0  0  0  0  0  0  0  0  0  0
    4.9065    5.8601   17.8211 C   0  0  0  0  0  0  0  0  0  0  0  0
    3.4570    6.1496   21.6015 H   0  0  0  0  0  0  0  0  0  0  0  0
 27 28  1  0  0  0
 28 26  1  0  0  0
 26 25  1  0  0  0
 25 23  1  0  0  0
 23  1  1  0  0  0
  1  2  2  0  0  0
  2  3  1  0  0  0
  3  4  2  0  0  0
  4  7  1  0  0  0
  7  8  2  0  0  0
  7  9  1  0  0  0
  9 11  1  0  0  0
 11 12  1  0  0  0
 12 13  2  0  0  0
 13 14  1  0  0  0
 14 15  2  0  0  0
 15 16  1  0  0  0
 16 17  2  0  0  0
 15 18  1  0  0  0
 18 19  1  0  0  0
 19 20  2  0  0  0
 20 21  1  0  0  0
 21 22  2  0  0  0
  4  5  1  0  0  0
  5 29  1  0  0  0
 29 31  1  0  0  0
 31 32  1  0  0  0
 32 33  1  0  0  0
 33 34  1  0  0  0
 34 35  1  0  0  0
 34 36  1  0  0  0
 36 37  1  0  0  0
  5  6  2  0  0  0
  6  1  1  0  0  0
 17 12  1  0  0  0
 22 18  1  0  0  0
 37 31  1  0  0  0
 23 24  1  0  0  0
  9 10  1  0  0  0
 29 30  1  0  0  0
 35 38  1  0  0  0
M  END
> <minimizedAffinity>
-8.09771

> <CNNscore>
0.7423458695

> <CNNaffinity>
7.0068063736

> <CNN_VS>
5.2014737129

> <CNNaffinity_variance>
0.2630212605

$$$$
[H]O[C@]1([H])C([H])([H])C([H])([H])[C@@]([H])(N([H])c2nc(N([H])C([H])([H])C([H])([H])C([H])([H])C([H])([H])[H])nc([H])c2C(=O)N([H])C([H])([H])c2c([H])c([H])c(-n3c([H])c([H])c([H])c3[H])c([H])c2[H])C([H])([H])C1([H])[H]


 38 41  0  0  0  0  0  0  0  0999 V2000
    3.0011   -0.1365   19.4304 C   0  0  0  0  0  0  0  0  0  0  0  0
    2.0201   -0.5313   18.5953 N   0  0  0  0  0  0  0  0  0  0  0  0
    1.9584    0.0326   17.3853 C   0  0  0  0  0  0  0  0  0  0  0  0
    2.8915    1.0157   16.9852 C   0  0  0  0  0  0  0  0  0  0  0  0
    3.8809    1.3971   17.8590 C   0  0  0  0  0  0  0  0  0  0  0  0
    3.8910    0.7831   19.0830 N   0  0  0  0  0  0  0  0  0  0  0  0
    2.7349    1.5814   15.6622 C   0  0  0  0  0  0  0  0  0  0  0  0
    3.5045    1.3260   14.7018 O   0  0  0  0  0  0  0  0  0  0  0  0
    1.6872    2.4715   15.3657 N   0  0  0  0  0  0  0  0  0  0  0  0
    0.9640    2.7915   16.0250 H   0  0  0  0  0  0  0  0  0  0  0  0
    1.5454    3.0406   14.0078 C   0  0  0  0  0  0  0  0  0  0  0  0
    2.0697    4.4044   14.0515 C   0  0  0  0  0  0  0  0  0  0  0  0
    3.2143    4.6914   14.7579 C   0  0  0  0  0  0  0  0  0  0  0  0
    3.7202    5.9978   14.7953 C   0  0  0  0  0  0  0  0  0  0  0  0
    3.0936    7.0317   14.1310 C   0  0  0  0  0  0  0  0  0  0  0  0
    1.9487    6.7179   13.4304 C   0  0  0  0  0  0  0  0  0  0  0  0
    1.4413    5.4242   13.3890 C   0  0  0  0  0  0  0  0  0  0  0  0
    3.5800    8.3753   14.1479 N   0  0  0  0  0  0  0  0  0  0  0  0
    2.8587    9.5013   14.3791 C   0  0  0  0  0  0  0  0  0  0  0  0
    3.7049   10.5848   14.3027 C   0  0  0  0  0  0  0  0  0  0  0  0
    4.9742   10.1179   14.0184 C   0  0  0  0  0  0  0  0  0  0  0  0
    4.8547    8.7464   13.9304 C   0  0  0  0  0  0  0  0  0  0  0  0
    3.0742   -0.7321   20.7277 N   0  0  0  0  0  0  0  0  0  0  0  0
    2.5253   -1.5986   20.8955 H   0  0  0  0  0  0  0  0  0  0  0  0
    3.8961   -0.1114   21.7353 C   0  0  0  0  0  0  0  0  0  0  0  0
    3.1267    1.0463   22.3255 C   0  0  0  0  0  0  0  0  0  0  0  0
    5.3294    2.0720   21.9749 C   0  0  0  0  0  0  0  0  0  0  0  0
    4.0726    2.1165   22.8363 C   0  0  0  0  0  0  0  0  0  0  0  0
    4.8613    2.3455   17.5373 N   0  0  0  0  0  0  0  0  0  0  0  0
    5.5590    2.3078   16.7872 H   0  0  0  0  0  0  0  0  0  0  0  0
    4.9191    3.5527   18.3693 C   0  0  0  0  0  0  0  0  0  0  0  0
    5.8862    4.5777   17.7590 C   0  0  0  0  0  0  0  0  0  0  0  0
    5.4506    5.9885   18.0608 C   0  0  0  0  0  0  0  0  0  0  0  0
    4.9174    6.0098   19.4970 C   0  0  0  0  0  0  0  0  0  0  0  0
    5.9218    5.4595   20.2921 O   0  0  0  0  0  0  0  0  0  0  0  0
    3.6373    5.2161   19.6274 C   0  0  0  0  0  0  0  0  0  0  0  0
    3.5952    4.2552   18.4504 C   0  0  0  0  0  0  0  0  0  0  0  0
    6.6307    6.1565   20.3602 H   0  0  0  0  0  0  0  0  0  0  0  0
 27 28  1  0  0  0
 28 26  1  0  0  0
 26 25  1  0  0  0
 25 23  1  0  0  0
 23  1  1  0  0  0
  1  2  2  0  0  0
  2  3  1  0  0  0
  3  4  2  0  0  0
  4  7  1  0  0  0
  7  8  2  0  0  0
  7  9  1  0  0  0
  9 11  1  0  0  0
 11 12  1  0  0  0
 12 13  2  0  0  0
 13 14  1  0  0  0
 14 15  2  0  0  0
 15 16  1  0  0  0
 16 17  2  0  0  0
 15 18  1  0  0  0
 18 19  1  0  0  0
 19 20  2  0  0  0
 20 21  1  0  0  0
 21 22  2  0  0  0
  4  5  1  0  0  0
  5 29  1  0  0  0
 29 31  1  0  0  0
 31 32  1  0  0  0
 32 33  1  0  0  0
 33 34  1  0  0  0
 34 35  1  0  0  0
 34 36  1  0  0  0
 36 37  1  0  0  0
  5  6  2  0  0  0
  6  1  1  0  0  0
 17 12  1  0  0  0
 22 18  1  0  0  0
 37 31  1  0  0  0
 23 24  1  0  0  0
  9 10  1  0  0  0
 29 30  1  0  0  0
 35 38  1  0  0  0
M  END
> <minimizedAffinity>
-7.13813

> <CNNscore>
0.7069213390

> <CNNaffinity>
6.9735107422

> <CNN_VS>
4.9297237396

> <CNNaffinity_variance>
0.1710308343

$$$$
[H]O[C@]1([H])C([H])([H])C([H])([H])[C@@]([H])(N([H])c2nc(N([H])C([H])([H])C([H])([H])C([H])([H])C([H])([H])[H])nc([H])c2C(=O)N([H])C([H])([H])c2c([H])c([H])c(-n3c([H])c([H])c([H])c3[H])c([H])c2[H])C([H])([H])C1([H])[H]


 38 41  0  0  0  0  0  0  0  0999 V2000
    3.9486    1.3413   21.8226 C   0  0  0  0  0  0  0  0  0  0  0  0
    3.0432    0.3749   21.5737 N   0  0  0  0  0  0  0  0  0  0  0  0
    2.7520    0.0979   20.2992 C   0  0  0  0  0  0  0  0  0  0  0  0
    3.3716    0.7941   19.2368 C   0  0  0  0  0  0  0  0  0  0  0  0
    4.2914    1.7740   19.5225 C   0  0  0  0  0  0  0  0  0  0  0  0
    4.5465    2.0112   20.8468 N   0  0  0  0  0  0  0  0  0  0  0  0
    2.9804    0.4362   17.8901 C   0  0  0  0  0  0  0  0  0  0  0  0
    2.6876   -0.7349   17.5396 O   0  0  0  0  0  0  0  0  0  0  0  0
    2.9026    1.4005   16.8693 N   0  0  0  0  0  0  0  0  0  0  0  0
    3.1042    2.4049   16.9731 H   0  0  0  0  0  0  0  0  0  0  0  0
    2.5029    1.0143   15.4986 C   0  0  0  0  0  0  0  0  0  0  0  0
    2.6221    2.2053   14.6595 C   0  0  0  0  0  0  0  0  0  0  0  0
    1.7215    2.4405   13.6471 C   0  0  0  0  0  0  0  0  0  0  0  0
    1.8323    3.5852   12.8461 C   0  0  0  0  0  0  0  0  0  0  0  0
    2.8392    4.5072   13.0436 C   0  0  0  0  0  0  0  0  0  0  0  0
    3.7285    4.2484   14.0645 C   0  0  0  0  0  0  0  0  0  0  0  0
    3.6244    3.1150   14.8628 C   0  0  0  0  0  0  0  0  0  0  0  0
    2.9836    5.6842   12.2461 N   0  0  0  0  0  0  0  0  0  0  0  0
    4.0494    6.0235   11.4777 C   0  0  0  0  0  0  0  0  0  0  0  0
    3.7865    7.2343   10.8772 C   0  0  0  0  0  0  0  0  0  0  0  0
    2.5329    7.6507   11.2834 C   0  0  0  0  0  0  0  0  0  0  0  0
    2.0696    6.6645   12.1294 C   0  0  0  0  0  0  0  0  0  0  0  0
    4.2651    1.6466   23.1826 N   0  0  0  0  0  0  0  0  0  0  0  0
    4.1337    0.8977   23.8913 H   0  0  0  0  0  0  0  0  0  0  0  0
    4.7463    2.9651   23.5082 C   0  0  0  0  0  0  0  0  0  0  0  0
    3.5899    3.9303   23.3999 C   0  0  0  0  0  0  0  0  0  0  0  0
    5.4717    5.0742   22.3147 C   0  0  0  0  0  0  0  0  0  0  0  0
    3.9662    5.1274   22.5476 C   0  0  0  0  0  0  0  0  0  0  0  0
    4.9710    2.4967   18.5326 N   0  0  0  0  0  0  0  0  0  0  0  0
    5.4897    2.1348   17.7258 H   0  0  0  0  0  0  0  0  0  0  0  0
    4.9566    3.9594   18.6470 C   0  0  0  0  0  0  0  0  0  0  0  0
    5.8058    4.5919   17.5348 C   0  0  0  0  0  0  0  0  0  0  0  0
    5.2614    5.9371   17.1283 C   0  0  0  0  0  0  0  0  0  0  0  0
    4.7858    6.6463   18.4004 C   0  0  0  0  0  0  0  0  0  0  0  0
    5.8650    6.6257   19.2829 O   0  0  0  0  0  0  0  0  0  0  0  0
    3.5858    5.9554   19.0074 C   0  0  0  0  0  0  0  0  0  0  0  0
    3.5807    4.5332   18.4710 C   0  0  0  0  0  0  0  0  0  0  0  0
    6.5127    7.3010   18.9400 H   0  0  0  0  0  0  0  0  0  0  0  0
 27 28  1  0  0  0
 28 26  1  0  0  0
 26 25  1  0  0  0
 25 23  1  0  0  0
 23  1  1  0  0  0
  1  2  2  0  0  0
  2  3  1  0  0  0
  3  4  2  0  0  0
  4  7  1  0  0  0
  7  8  2  0  0  0
  7  9  1  0  0  0
  9 11  1  0  0  0
 11 12  1  0  0  0
 12 13  2  0  0  0
 13 14  1  0  0  0
 14 15  2  0  0  0
 15 16  1  0  0  0
 16 17  2  0  0  0
 15 18  1  0  0  0
 18 19  1  0  0  0
 19 20  2  0  0  0
 20 21  1  0  0  0
 21 22  2  0  0  0
  4  5  1  0  0  0
  5 29  1  0  0  0
 29 31  1  0  0  0
 31 32  1  0  0  0
 32 33  1  0  0  0
 33 34  1  0  0  0
 34 35  1  0  0  0
 34 36  1  0  0  0
 36 37  1  0  0  0
  5  6  2  0  0  0
  6  1  1  0  0  0
 17 12  1  0  0  0
 22 18  1  0  0  0
 37 31  1  0  0  0
 23 24  1  0  0  0
  9 10  1  0  0  0
 29 30  1  0  0  0
 35 38  1  0  0  0
M  END
> <minimizedAffinity>
-8.19108

> <CNNscore>
0.6071168184

> <CNNaffinity>
7.1531958580

> <CNN_VS>
4.3428254128

> <CNNaffinity_variance>
0.2548621595

$$$$
[H]O[C@]1([H])C([H])([H])C([H])([H])[C@@]([H])(N([H])c2nc(N([H])C([H])([H])C([H])([H])C([H])([H])C([H])([H])[H])nc([H])c2C(=O)N([H])C([H])([H])c2c([H])c([H])c(-n3c([H])c([H])c([H])c3[H])c([H])c2[H])C([H])([H])C1([H])[H]


 38 41  0  0  0  0  0  0  0  0999 V2000
    4.1419    1.9209   17.9894 C   0  0  0  0  0  0  0  0  0  0  0  0
    3.3851    1.3120   17.0556 N   0  0  0  0  0  0  0  0  0  0  0  0
    3.2084    1.9329   15.8854 C   0  0  0  0  0  0  0  0  0  0  0  0
    3.7952    3.1923   15.6269 C   0  0  0  0  0  0  0  0  0  0  0  0
    4.5623    3.7877   16.5989 C   0  0  0  0  0  0  0  0  0  0  0  0
    4.7055    3.1020   17.7756 N   0  0  0  0  0  0  0  0  0  0  0  0
    3.5342    3.7948   14.3370 C   0  0  0  0  0  0  0  0  0  0  0  0
    3.7756    4.9993   14.0711 O   0  0  0  0  0  0  0  0  0  0  0  0
    2.9818    3.0505   13.2793 N   0  0  0  0  0  0  0  0  0  0  0  0
    2.7230    2.0545   13.3146 H   0  0  0  0  0  0  0  0  0  0  0  0
    2.7204    3.6851   11.9691 C   0  0  0  0  0  0  0  0  0  0  0  0
    3.1494    2.7432   10.9368 C   0  0  0  0  0  0  0  0  0  0  0  0
    4.1938    3.0534   10.0975 C   0  0  0  0  0  0  0  0  0  0  0  0
    4.6089    2.1482    9.1115 C   0  0  0  0  0  0  0  0  0  0  0  0
    3.9902    0.9259    8.9500 C   0  0  0  0  0  0  0  0  0  0  0  0
    2.9466    0.6391    9.8037 C   0  0  0  0  0  0  0  0  0  0  0  0
    2.5297    1.5323   10.7840 C   0  0  0  0  0  0  0  0  0  0  0  0
    4.3857   -0.0210    7.9554 N   0  0  0  0  0  0  0  0  0  0  0  0
    5.5441   -0.7266    7.9153 C   0  0  0  0  0  0  0  0  0  0  0  0
    5.5310   -1.5233    6.7924 C   0  0  0  0  0  0  0  0  0  0  0  0
    4.3402   -1.3048    6.1259 C   0  0  0  0  0  0  0  0  0  0  0  0
    3.6600   -0.3690    6.8773 C   0  0  0  0  0  0  0  0  0  0  0  0
    4.3350    1.2660   19.2452 N   0  0  0  0  0  0  0  0  0  0  0  0
    4.5983    0.2606   19.2327 H   0  0  0  0  0  0  0  0  0  0  0  0
    4.1572    2.0199   20.4601 C   0  0  0  0  0  0  0  0  0  0  0  0
    5.5135    2.4957   20.9237 C   0  0  0  0  0  0  0  0  0  0  0  0
    7.0886    0.6865   21.4461 C   0  0  0  0  0  0  0  0  0  0  0  0
    6.0386    1.6166   22.0428 C   0  0  0  0  0  0  0  0  0  0  0  0
    5.2008    5.0223   16.4195 N   0  0  0  0  0  0  0  0  0  0  0  0
    5.9578    5.2569   15.7692 H   0  0  0  0  0  0  0  0  0  0  0  0
    4.7487    6.1350   17.2622 C   0  0  0  0  0  0  0  0  0  0  0  0
    5.5774    6.1998   18.5535 C   0  0  0  0  0  0  0  0  0  0  0  0
    5.7160    7.6178   19.0445 C   0  0  0  0  0  0  0  0  0  0  0  0
    4.3756    8.3213   18.8083 C   0  0  0  0  0  0  0  0  0  0  0  0
    3.4057    7.5209   19.4104 O   0  0  0  0  0  0  0  0  0  0  0  0
    4.0884    8.4912   17.3337 C   0  0  0  0  0  0  0  0  0  0  0  0
    4.9405    7.4684   16.6002 C   0  0  0  0  0  0  0  0  0  0  0  0
    3.5046    7.6616   20.3919 H   0  0  0  0  0  0  0  0  0  0  0  0
 27 28  1  0  0  0
 28 26  1  0  0  0
 26 25  1  0  0  0
 25 23  1  0  0  0
 23  1  1  0  0  0
  1  2  2  0  0  0
  2  3  1  0  0  0
  3  4  2  0  0  0
  4  7  1  0  0  0
  7  8  2  0  0  0
  7  9  1  0  0  0
  9 11  1  0  0  0
 11 12  1  0  0  0
 12 13  2  0  0  0
 13 14  1  0  0  0
 14 15  2  0  0  0
 15 16  1  0  0  0
 16 17  2  0  0  0
 15 18  1  0  0  0
 18 19  1  0  0  0
 19 20  2  0  0  0
 20 21  1  0  0  0
 21 22  2  0  0  0
  4  5  1  0  0  0
  5 29  1  0  0  0
 29 31  1  0  0  0
 31 32  1  0  0  0
 32 33  1  0  0  0
 33 34  1  0  0  0
 34 35  1  0  0  0
 34 36  1  0  0  0
 36 37  1  0  0  0
  5  6  2  0  0  0
  6  1  1  0  0  0
 17 12  1  0  0  0
 22 18  1  0  0  0
 37 31  1  0  0  0
 23 24  1  0  0  0
  9 10  1  0  0  0
 29 30  1  0  0  0
 35 38  1  0  0  0
M  END
> <minimizedAffinity>
-7.10893

> <CNNscore>
0.3563968241

> <CNNaffinity>
6.3549966812

> <CNN_VS>
2.2649006844

> <CNNaffinity_variance>
0.4104709029

$$$$
[H]O[C@]1([H])C([H])([H])C([H])([H])[C@@]([H])(N([H])c2nc(N([H])C([H])([H])C([H])([H])C([H])([H])C([H])([H])[H])nc([H])c2C(=O)N([H])C([H])([H])c2c([H])c([H])c(-n3c([H])c([H])c([H])c3[H])c([H])c2[H])C([H])([H])C1([H])[H]


 38 41  0  0  0  0  0  0  0  0999 V2000
    4.1204    2.8497   19.3407 C   0  0  0  0  0  0  0  0  0  0  0  0
    4.1427    2.5330   18.0312 N   0  0  0  0  0  0  0  0  0  0  0  0
    3.9148    3.5061   17.1440 C   0  0  0  0  0  0  0  0  0  0  0  0
    3.6570    4.8321   17.5593 C   0  0  0  0  0  0  0  0  0  0  0  0
    3.6414    5.1241   18.9018 C   0  0  0  0  0  0  0  0  0  0  0  0
    3.8817    4.0846   19.7603 N   0  0  0  0  0  0  0  0  0  0  0  0
    3.4052    5.8147   16.5268 C   0  0  0  0  0  0  0  0  0  0  0  0
    3.7593    7.0178   16.6114 O   0  0  0  0  0  0  0  0  0  0  0  0
    2.7336    5.4736   15.3393 N   0  0  0  0  0  0  0  0  0  0  0  0
    2.3741    4.5394   15.0977 H   0  0  0  0  0  0  0  0  0  0  0  0
    2.4839    6.4929   14.2969 C   0  0  0  0  0  0  0  0  0  0  0  0
    1.1589    6.2283   13.7390 C   0  0  0  0  0  0  0  0  0  0  0  0
    0.9999    5.3288   12.7109 C   0  0  0  0  0  0  0  0  0  0  0  0
   -0.2710    5.0708   12.1797 C   0  0  0  0  0  0  0  0  0  0  0  0
   -1.3963    5.7041   12.6651 C   0  0  0  0  0  0  0  0  0  0  0  0
   -1.2100    6.6007   13.6955 C   0  0  0  0  0  0  0  0  0  0  0  0
    0.0478    6.8613   14.2271 C   0  0  0  0  0  0  0  0  0  0  0  0
   -2.7069    5.4668   12.1475 N   0  0  0  0  0  0  0  0  0  0  0  0
   -3.0935    4.4455   11.3418 C   0  0  0  0  0  0  0  0  0  0  0  0
   -4.4363    4.5868   11.0720 C   0  0  0  0  0  0  0  0  0  0  0  0
   -4.8875    5.7184   11.7244 C   0  0  0  0  0  0  0  0  0  0  0  0
   -3.7877    6.2341   12.3782 C   0  0  0  0  0  0  0  0  0  0  0  0
    4.3607    1.8153   20.2975 N   0  0  0  0  0  0  0  0  0  0  0  0
    3.8788    0.9048   20.1591 H   0  0  0  0  0  0  0  0  0  0  0  0
    5.2502    2.0775   21.4002 C   0  0  0  0  0  0  0  0  0  0  0  0
    4.4859    1.8634   22.6850 C   0  0  0  0  0  0  0  0  0  0  0  0
    3.5167    3.9869   23.4453 C   0  0  0  0  0  0  0  0  0  0  0  0
    4.6887    3.0303   23.6327 C   0  0  0  0  0  0  0  0  0  0  0  0
    3.4187    6.4145   19.4011 N   0  0  0  0  0  0  0  0  0  0  0  0
    2.5369    6.9358   19.4421 H   0  0  0  0  0  0  0  0  0  0  0  0
    4.5818    7.1328   19.9341 C   0  0  0  0  0  0  0  0  0  0  0  0
    4.3740    8.6499   19.8169 C   0  0  0  0  0  0  0  0  0  0  0  0
    5.0656    9.3852   20.9359 C   0  0  0  0  0  0  0  0  0  0  0  0
    6.4044    8.6849   21.1903 C   0  0  0  0  0  0  0  0  0  0  0  0
    7.0527    8.6271   19.9573 O   0  0  0  0  0  0  0  0  0  0  0  0
    6.2079    7.2970   21.7566 C   0  0  0  0  0  0  0  0  0  0  0  0
    4.7932    6.8729   21.3972 C   0  0  0  0  0  0  0  0  0  0  0  0
    7.3735    9.5522   19.7723 H   0  0  0  0  0  0  0  0  0  0  0  0
 27 28  1  0  0  0
 28 26  1  0  0  0
 26 25  1  0  0  0
 25 23  1  0  0  0
 23  1  1  0  0  0
  1  2  2  0  0  0
  2  3  1  0  0  0
  3  4  2  0  0  0
  4  7  1  0  0  0
  7  8  2  0  0  0
  7  9  1  0  0  0
  9 11  1  0  0  0
 11 12  1  0  0  0
 12 13  2  0  0  0
 13 14  1  0  0  0
 14 15  2  0  0  0
 15 16  1  0  0  0
 16 17  2  0  0  0
 15 18  1  0  0  0
 18 19  1  0  0  0
 19 20  2  0  0  0
 20 21  1  0  0  0
 21 22  2  0  0  0
  4  5  1  0  0  0
  5 29  1  0  0  0
 29 31  1  0  0  0
 31 32  1  0  0  0
 32 33  1  0  0  0
 33 34  1  0  0  0
 34 35  1  0  0  0
 34 36  1  0  0  0
 36 37  1  0  0  0
  5  6  2  0  0  0
  6  1  1  0  0  0
 17 12  1  0  0  0
 22 18  1  0  0  0
 37 31  1  0  0  0
 23 24  1  0  0  0
  9 10  1  0  0  0
 29 30  1  0  0  0
 35 38  1  0  0  0
M  END
> <minimizedAffinity>
-8.15271

> <CNNscore>
0.2668030262

> <CNNaffinity>
6.3942561150

> <CNN_VS>
1.7060068846

> <CNNaffinity_variance>
0.3530646265

$$$$
[H]O[C@]1([H])C([H])([H])C([H])([H])[C@@]([H])(N([H])c2nc(N([H])C([H])([H])C([H])([H])C([H])([H])C([H])([H])[H])nc([H])c2C(=O)N([H])C([H])([H])c2c([H])c([H])c(-n3c([H])c([H])c([H])c3[H])c([H])c2[H])C([H])([H])C1([H])[H]


 38 41  0  0  0  0  0  0  0  0999 V2000
    4.1719    3.1291   18.7474 C   0  0  0  0  0  0  0  0  0  0  0  0
    4.5359    3.1635   17.4505 N   0  0  0  0  0  0  0  0  0  0  0  0
    4.6446    4.3566   16.8584 C   0  0  0  0  0  0  0  0  0  0  0  0
    4.3868    5.5529   17.5653 C   0  0  0  0  0  0  0  0  0  0  0  0
    4.0179    5.4853   18.8872 C   0  0  0  0  0  0  0  0  0  0  0  0
    3.9240    4.2345   19.4365 N   0  0  0  0  0  0  0  0  0  0  0  0
    4.5142    6.7965   16.8358 C   0  0  0  0  0  0  0  0  0  0  0  0
    5.4958    7.5729   16.9522 O   0  0  0  0  0  0  0  0  0  0  0  0
    3.5236    7.2200   15.9317 N   0  0  0  0  0  0  0  0  0  0  0  0
    2.6553    6.7135   15.7090 H   0  0  0  0  0  0  0  0  0  0  0  0
    3.6713    8.4954   15.1974 C   0  0  0  0  0  0  0  0  0  0  0  0
    3.2817    8.2459   13.8107 C   0  0  0  0  0  0  0  0  0  0  0  0
    1.9968    8.4968   13.3893 C   0  0  0  0  0  0  0  0  0  0  0  0
    1.6246    8.2630   12.0586 C   0  0  0  0  0  0  0  0  0  0  0  0
    2.5257    7.7776   11.1337 C   0  0  0  0  0  0  0  0  0  0  0  0
    3.8066    7.5345   11.5812 C   0  0  0  0  0  0  0  0  0  0  0  0
    4.1827    7.7642   12.8997 C   0  0  0  0  0  0  0  0  0  0  0  0
    2.1813    7.5263    9.7698 N   0  0  0  0  0  0  0  0  0  0  0  0
    2.5152    8.2799    8.6917 C   0  0  0  0  0  0  0  0  0  0  0  0
    1.9846    7.6905    7.5661 C   0  0  0  0  0  0  0  0  0  0  0  0
    1.3095    6.5499    7.9576 C   0  0  0  0  0  0  0  0  0  0  0  0
    1.4547    6.4838    9.3278 C   0  0  0  0  0  0  0  0  0  0  0  0
    4.0507    1.8576   19.3890 N   0  0  0  0  0  0  0  0  0  0  0  0
    3.2204    1.2758   19.1603 H   0  0  0  0  0  0  0  0  0  0  0  0
    5.0734    1.4430   20.3154 C   0  0  0  0  0  0  0  0  0  0  0  0
    4.5643    1.6780   21.7176 C   0  0  0  0  0  0  0  0  0  0  0  0
    5.2899    2.2209   23.9993 C   0  0  0  0  0  0  0  0  0  0  0  0
    5.5617    2.4886   22.5234 C   0  0  0  0  0  0  0  0  0  0  0  0
    3.7672    6.6204   19.6700 N   0  0  0  0  0  0  0  0  0  0  0  0
    2.8861    7.1323   19.7819 H   0  0  0  0  0  0  0  0  0  0  0  0
    4.8958    7.1671   20.4318 C   0  0  0  0  0  0  0  0  0  0  0  0
    4.7399    8.6850   20.6046 C   0  0  0  0  0  0  0  0  0  0  0  0
    5.3464    9.1533   21.9024 C   0  0  0  0  0  0  0  0  0  0  0  0
    6.6374    8.3582   22.1221 C   0  0  0  0  0  0  0  0  0  0  0  0
    7.3932    8.5166   20.9613 O   0  0  0  0  0  0  0  0  0  0  0  0
    6.3534    6.8957   22.3797 C   0  0  0  0  0  0  0  0  0  0  0  0
    4.9665    6.6140   21.8254 C   0  0  0  0  0  0  0  0  0  0  0  0
    7.7540    9.4450   20.9934 H   0  0  0  0  0  0  0  0  0  0  0  0
 27 28  1  0  0  0
 28 26  1  0  0  0
 26 25  1  0  0  0
 25 23  1  0  0  0
 23  1  1  0  0  0
  1  2  2  0  0  0
  2  3  1  0  0  0
  3  4  2  0  0  0
  4  7  1  0  0  0
  7  8  2  0  0  0
  7  9  1  0  0  0
  9 11  1  0  0  0
 11 12  1  0  0  0
 12 13  2  0  0  0
 13 14  1  0  0  0
 14 15  2  0  0  0
 15 16  1  0  0  0
 16 17  2  0  0  0
 15 18  1  0  0  0
 18 19  1  0  0  0
 19 20  2  0  0  0
 20 21  1  0  0  0
 21 22  2  0  0  0
  4  5  1  0  0  0
  5 29  1  0  0  0
 29 31  1  0  0  0
 31 32  1  0  0  0
 32 33  1  0  0  0
 33 34  1  0  0  0
 34 35  1  0  0  0
 34 36  1  0  0  0
 36 37  1  0  0  0
  5  6  2  0  0  0
  6  1  1  0  0  0
 17 12  1  0  0  0
 22 18  1  0  0  0
 37 31  1  0  0  0
 23 24  1  0  0  0
  9 10  1  0  0  0
 29 30  1  0  0  0
 35 38  1  0  0  0
M  END
> <minimizedAffinity>
-7.41675

> <CNNscore>
0.2384394109

> <CNNaffinity>
6.0710697174

> <CNN_VS>
1.4475822449

> <CNNaffinity_variance>
0.2963583469

$$$$
[H]O[C@]1([H])C([H])([H])C([H])([H])[C@@]([H])(N([H])c2nc(N([H])C([H])([H])C([H])([H])C([H])([H])C([H])([H])[H])nc([H])c2C(=O)N([H])C([H])([H])c2c([H])c([H])c(-n3c([H])c([H])c([H])c3[H])c([H])c2[H])C([H])([H])C1([H])[H]


 38 41  0  0  0  0  0  0  0  0999 V2000
    4.8355    2.2443   19.6015 C   0  0  0  0  0  0  0  0  0  0  0  0
    4.3666    1.6528   18.4852 N   0  0  0  0  0  0  0  0  0  0  0  0
    3.7372    2.4147   17.5857 C   0  0  0  0  0  0  0  0  0  0  0  0
    3.5640    3.8021   17.7918 C   0  0  0  0  0  0  0  0  0  0  0  0
    4.0539    4.3765   18.9398 C   0  0  0  0  0  0  0  0  0  0  0  0
    4.6884    3.5435   19.8222 N   0  0  0  0  0  0  0  0  0  0  0  0
    2.8551    4.5424   16.7699 C   0  0  0  0  0  0  0  0  0  0  0  0
    1.7398    5.0911   16.9569 O   0  0  0  0  0  0  0  0  0  0  0  0
    3.3847    4.6954   15.4760 N   0  0  0  0  0  0  0  0  0  0  0  0
    4.2832    4.3173   15.1445 H   0  0  0  0  0  0  0  0  0  0  0  0
    2.6436    5.4538   14.4448 C   0  0  0  0  0  0  0  0  0  0  0  0
    3.5051    5.5414   13.2671 C   0  0  0  0  0  0  0  0  0  0  0  0
    3.7886    6.7605   12.6971 C   0  0  0  0  0  0  0  0  0  0  0  0
    4.6190    6.8451   11.5713 C   0  0  0  0  0  0  0  0  0  0  0  0
    5.1757    5.7191   11.0012 C   0  0  0  0  0  0  0  0  0  0  0  0
    4.8762    4.5099   11.5912 C   0  0  0  0  0  0  0  0  0  0  0  0
    4.0533    4.4186   12.7080 C   0  0  0  0  0  0  0  0  0  0  0  0
    6.0255    5.7674    9.8532 N   0  0  0  0  0  0  0  0  0  0  0  0
    7.3540    5.4942    9.8094 C   0  0  0  0  0  0  0  0  0  0  0  0
    7.7915    5.6621    8.5146 C   0  0  0  0  0  0  0  0  0  0  0  0
    6.7108    6.0468    7.7438 C   0  0  0  0  0  0  0  0  0  0  0  0
    5.6376    6.1005    8.6088 C   0  0  0  0  0  0  0  0  0  0  0  0
    5.5081    1.4374   20.5707 N   0  0  0  0  0  0  0  0  0  0  0  0
    6.4208    1.0178   20.3036 H   0  0  0  0  0  0  0  0  0  0  0  0
    4.8979    1.2424   21.8612 C   0  0  0  0  0  0  0  0  0  0  0  0
    5.5254    2.2140   22.8323 C   0  0  0  0  0  0  0  0  0  0  0  0
    4.3870    4.3612   23.1794 C   0  0  0  0  0  0  0  0  0  0  0  0
    4.4614    2.9150   23.6554 C   0  0  0  0  0  0  0  0  0  0  0  0
    3.9485    5.7468   19.2143 N   0  0  0  0  0  0  0  0  0  0  0  0
    3.1291    6.3540   19.1098 H   0  0  0  0  0  0  0  0  0  0  0  0
    5.1530    6.4215   19.7111 C   0  0  0  0  0  0  0  0  0  0  0  0
    5.9039    7.0971   18.5543 C   0  0  0  0  0  0  0  0  0  0  0  0
    6.6176    8.3410   19.0174 C   0  0  0  0  0  0  0  0  0  0  0  0
    7.1939    8.0522   20.4073 C   0  0  0  0  0  0  0  0  0  0  0  0
    7.9457    6.8849   20.2811 O   0  0  0  0  0  0  0  0  0  0  0  0
    6.1012    7.8755   21.4372 C   0  0  0  0  0  0  0  0  0  0  0  0
    4.8330    7.5262   20.6756 C   0  0  0  0  0  0  0  0  0  0  0  0
    8.7781    7.1455   19.7992 H   0  0  0  0  0  0  0  0  0  0  0  0
 27 28  1  0  0  0
 28 26  1  0  0  0
 26 25  1  0  0  0
 25 23  1  0  0  0
 23  1  1  0  0  0
  1  2  2  0  0  0
  2  3  1  0  0  0
  3  4  2  0  0  0
  4  7  1  0  0  0
  7  8  2  0  0  0
  7  9  1  0  0  0
  9 11  1  0  0  0
 11 12  1  0  0  0
 12 13  2  0  0  0
 13 14  1  0  0  0
 14 15  2  0  0  0
 15 16  1  0  0  0
 16 17  2  0  0  0
 15 18  1  0  0  0
 18 19  1  0  0  0
 19 20  2  0  0  0
 20 21  1  0  0  0
 21 22  2  0  0  0
  4  5  1  0  0  0
  5 29  1  0  0  0
 29 31  1  0  0  0
 31 32  1  0  0  0
 32 33  1  0  0  0
 33 34  1  0  0  0
 34 35  1  0  0  0
 34 36  1  0  0  0
 36 37  1  0  0  0
  5  6  2  0  0  0
  6  1  1  0  0  0
 17 12  1  0  0  0
 22 18  1  0  0  0
 37 31  1  0  0  0
 23 24  1  0  0  0
  9 10  1  0  0  0
 29 30  1  0  0  0
 35 38  1  0  0  0
M  END
> <minimizedAffinity>
-6.85136

> <CNNscore>
0.2234024704

> <CNNaffinity>
6.3294830322

> <CNN_VS>
1.4140220881

> <CNNaffinity_variance>
0.5588295460

$$$$
[H]O[C@]1([H])C([H])([H])C([H])([H])[C@@]([H])(N([H])c2nc(N([H])C([H])([H])C([H])([H])C([H])([H])C([H])([H])[H])nc([H])c2C(=O)N([H])C([H])([H])c2c([H])c([H])c(-n3c([H])c([H])c([H])c3[H])c([H])c2[H])C([H])([H])C1([H])[H]


 38 41  0  0  0  0  0  0  0  0999 V2000
    4.2652    2.0270   18.8715 C   0  0  0  0  0  0  0  0  0  0  0  0
    4.5268    1.6634   17.6006 N   0  0  0  0  0  0  0  0  0  0  0  0
    4.3137    2.5598   16.6326 C   0  0  0  0  0  0  0  0  0  0  0  0
    3.8279    3.8543   16.9251 C   0  0  0  0  0  0  0  0  0  0  0  0
    3.5710    4.1957   18.2310 C   0  0  0  0  0  0  0  0  0  0  0  0
    3.8092    3.2342   19.1765 N   0  0  0  0  0  0  0  0  0  0  0  0
    3.6123    4.7509   15.8096 C   0  0  0  0  0  0  0  0  0  0  0  0
    3.9095    5.9720   15.8321 O   0  0  0  0  0  0  0  0  0  0  0  0
    3.0439    4.2983   14.6054 N   0  0  0  0  0  0  0  0  0  0  0  0
    2.7418    3.3342   14.4071 H   0  0  0  0  0  0  0  0  0  0  0  0
    2.8296    5.2309   13.4776 C   0  0  0  0  0  0  0  0  0  0  0  0
    3.5749    4.7081   12.3339 C   0  0  0  0  0  0  0  0  0  0  0  0
    4.8050    5.2275   12.0042 C   0  0  0  0  0  0  0  0  0  0  0  0
    5.5222    4.7225   10.9112 C   0  0  0  0  0  0  0  0  0  0  0  0
    5.0241    3.6965   10.1353 C   0  0  0  0  0  0  0  0  0  0  0  0
    3.7897    3.1934   10.4867 C   0  0  0  0  0  0  0  0  0  0  0  0
    3.0729    3.6895   11.5696 C   0  0  0  0  0  0  0  0  0  0  0  0
    5.7266    3.1577    9.0136 N   0  0  0  0  0  0  0  0  0  0  0  0
    5.5411    3.4725    7.7067 C   0  0  0  0  0  0  0  0  0  0  0  0
    6.4174    2.7276    6.9498 C   0  0  0  0  0  0  0  0  0  0  0  0
    7.1588    1.9368    7.8071 C   0  0  0  0  0  0  0  0  0  0  0  0
    6.7012    2.2323    9.0745 C   0  0  0  0  0  0  0  0  0  0  0  0
    4.4878    1.0746   19.9137 N   0  0  0  0  0  0  0  0  0  0  0  0
    5.4589    0.7347   20.0613 H   0  0  0  0  0  0  0  0  0  0  0  0
    3.3682    0.6315   20.7051 C   0  0  0  0  0  0  0  0  0  0  0  0
    3.7639    0.6955   22.1611 C   0  0  0  0  0  0  0  0  0  0  0  0
    4.7422    2.2809   23.7600 C   0  0  0  0  0  0  0  0  0  0  0  0
    3.6791    2.1184   22.6798 C   0  0  0  0  0  0  0  0  0  0  0  0
    3.1114    5.4631   18.6137 N   0  0  0  0  0  0  0  0  0  0  0  0
    2.2830    5.9657   18.2789 H   0  0  0  0  0  0  0  0  0  0  0  0
    3.9030    6.1842   19.6168 C   0  0  0  0  0  0  0  0  0  0  0  0
    3.7770    5.5044   20.9881 C   0  0  0  0  0  0  0  0  0  0  0  0
    5.0369    5.6691   21.7985 C   0  0  0  0  0  0  0  0  0  0  0  0
    5.5638    7.0862   21.5501 C   0  0  0  0  0  0  0  0  0  0  0  0
    4.5026    7.9482   21.8230 O   0  0  0  0  0  0  0  0  0  0  0  0
    6.0418    7.2607   20.1264 C   0  0  0  0  0  0  0  0  0  0  0  0
    5.3707    6.1742   19.3021 C   0  0  0  0  0  0  0  0  0  0  0  0
    4.4134    7.9680   22.8153 H   0  0  0  0  0  0  0  0  0  0  0  0
 27 28  1  0  0  0
 28 26  1  0  0  0
 26 25  1  0  0  0
 25 23  1  0  0  0
 23  1  1  0  0  0
  1  2  2  0  0  0
  2  3  1  0  0  0
  3  4  2  0  0  0
  4  7  1  0  0  0
  7  8  2  0  0  0
  7  9  1  0  0  0
  9 11  1  0  0  0
 11 12  1  0  0  0
 12 13  2  0  0  0
 13 14  1  0  0  0
 14 15  2  0  0  0
 15 16  1  0  0  0
 16 17  2  0  0  0
 15 18  1  0  0  0
 18 19  1  0  0  0
 19 20  2  0  0  0
 20 21  1  0  0  0
 21 22  2  0  0  0
  4  5  1  0  0  0
  5 29  1  0  0  0
 29 31  1  0  0  0
 31 32  1  0  0  0
 32 33  1  0  0  0
 33 34  1  0  0  0
 34 35  1  0  0  0
 34 36  1  0  0  0
 36 37  1  0  0  0
  5  6  2  0  0  0
  6  1  1  0  0  0
 17 12  1  0  0  0
 22 18  1  0  0  0
 37 31  1  0  0  0
 23 24  1  0  0  0
  9 10  1  0  0  0
 29 30  1  0  0  0
 35 38  1  0  0  0
M  END
> <minimizedAffinity>
-7.37969

> <CNNscore>
0.1936691254

> <CNNaffinity>
6.5033469200

> <CNN_VS>
1.2594975233

> <CNNaffinity_variance>
0.4362631738

$$$$
[H]O[C@]1([H])C([H])([H])C([H])([H])[C@@]([H])(N([H])c2nc(N([H])C([H])([H])C([H])([H])C([H])([H])C([H])([H])[H])nc([H])c2-c2nc([H])c(C([H])([H])N([H])C3([H])C([H])([H])C([H])([H])C([H])([H])C([H])([H])C3([H])[H])c([H])c2[H])C([H])([H])C1([H])[H]


 37 40  0  0  0  0  0  0  0  0999 V2000
    4.1082    1.3483   19.2747 C   0  0  0  0  0  0  0  0  0  0  0  0
    3.3679    0.6788   18.3855 N   0  0  0  0  0  0  0  0  0  0  0  0
    3.1496    1.0749   17.1240 C   0  0  0  0  0  0  0  0  0  0  0  0
    3.7492    2.2857   16.7166 C   0  0  0  0  0  0  0  0  0  0  0  0
    4.5086    2.9928   17.5915 C   0  0  0  0  0  0  0  0  0  0  0  0
    4.6588    2.4807   18.8657 N   0  0  0  0  0  0  0  0  0  0  0  0
    3.5227    2.6817   15.3354 C   0  0  0  0  0  0  0  0  0  0  0  0
    2.8047    1.8585   14.4503 C   0  0  0  0  0  0  0  0  0  0  0  0
    2.5974    2.1863   13.1282 C   0  0  0  0  0  0  0  0  0  0  0  0
    3.0970    3.3520   12.6222 C   0  0  0  0  0  0  0  0  0  0  0  0
    3.7996    4.1575   13.4852 C   0  0  0  0  0  0  0  0  0  0  0  0
    3.9764    3.8019   14.7578 N   0  0  0  0  0  0  0  0  0  0  0  0
    2.8932    3.7425   11.1810 C   0  0  0  0  0  0  0  0  0  0  0  0
    1.9094    2.8830   10.5910 N   0  0  0  0  0  0  0  0  0  0  0  0
    1.0247    3.4343   10.5065 H   0  0  0  0  0  0  0  0  0  0  0  0
    2.2586    2.3966    9.2966 C   0  0  0  0  0  0  0  0  0  0  0  0
    3.6207    1.7424    9.3562 C   0  0  0  0  0  0  0  0  0  0  0  0
    3.5877    0.3574    9.9384 C   0  0  0  0  0  0  0  0  0  0  0  0
    2.6150   -0.5455    9.1919 C   0  0  0  0  0  0  0  0  0  0  0  0
    1.2465    0.0882    9.3689 C   0  0  0  0  0  0  0  0  0  0  0  0
    1.2916    1.4341    8.6948 C   0  0  0  0  0  0  0  0  0  0  0  0
    4.2976    0.8598   20.6179 N   0  0  0  0  0  0  0  0  0  0  0  0
    4.6097   -0.1032   20.7229 H   0  0  0  0  0  0  0  0  0  0  0  0
    4.0005    1.7491   21.6765 C   0  0  0  0  0  0  0  0  0  0  0  0
    5.0876    2.3535   22.4633 C   0  0  0  0  0  0  0  0  0  0  0  0
    3.4692    3.9102   23.5324 C   0  0  0  0  0  0  0  0  0  0  0  0
    4.6681    3.0396   23.7128 C   0  0  0  0  0  0  0  0  0  0  0  0
    5.1699    4.1848   17.2664 N   0  0  0  0  0  0  0  0  0  0  0  0
    5.8343    4.2958   16.5084 H   0  0  0  0  0  0  0  0  0  0  0  0
    4.9473    5.4051   18.0557 C   0  0  0  0  0  0  0  0  0  0  0  0
    3.6118    5.4661   18.6950 C   0  0  0  0  0  0  0  0  0  0  0  0
    3.6462    5.4057   20.2011 C   0  0  0  0  0  0  0  0  0  0  0  0
    4.7305    6.1965   20.8419 C   0  0  0  0  0  0  0  0  0  0  0  0
    4.2326    7.1929   21.7127 O   0  0  0  0  0  0  0  0  0  0  0  0
    5.7620    6.7468   19.8997 C   0  0  0  0  0  0  0  0  0  0  0  0
    6.1204    5.6311   18.9344 C   0  0  0  0  0  0  0  0  0  0  0  0
    3.2588    7.1621   21.7762 H   0  0  0  0  0  0  0  0  0  0  0  0
 26 27  1  0  0  0
 27 25  1  0  0  0
 25 24  1  0  0  0
 24 22  1  0  0  0
 22  1  1  0  0  0
  1  2  2  0  0  0
  2  3  1  0  0  0
  3  4  2  0  0  0
  4  5  1  0  0  0
  5 28  1  0  0  0
 28 30  1  0  0  0
 30 31  1  0  0  0
 31 32  1  0  0  0
 32 33  1  0  0  0
 33 34  1  0  0  0
 33 35  1  0  0  0
 35 36  1  0  0  0
  5  6  2  0  0  0
  4  7  1  0  0  0
  7  8  2  0  0  0
  8  9  1  0  0  0
  9 10  2  0  0  0
 10 13  1  0  0  0
 13 14  1  0  0  0
 14 16  1  0  0  0
 16 17  1  0  0  0
 17 18  1  0  0  0
 18 19  1  0  0  0
 19 20  1  0  0  0
 20 21  1  0  0  0
 10 11  1  0  0  0
 11 12  2  0  0  0
  6  1  1  0  0  0
 12  7  1  0  0  0
 36 30  1  0  0  0
 21 16  1  0  0  0
 22 23  1  0  0  0
 28 29  1  0  0  0
 34 37  1  0  0  0
 14 15  1  0  0  0
M  END
> <minimizedAffinity>
-8.00346

> <CNNscore>
0.5319299102

> <CNNaffinity>
7.0922369957

> <CNN_VS>
3.7725729942

> <CNNaffinity_variance>
0.4410011172

$$$$
[H]O[C@]1([H])C([H])([H])C([H])([H])[C@@]([H])(N([H])c2nc(N([H])C([H])([H])C([H])([H])C([H])([H])C([H])([H])[H])nc([H])c2-c2nc([H])c(C([H])([H])N([H])C3([H])C([H])([H])C([H])([H])C([H])([H])C([H])([H])C3([H])[H])c([H])c2[H])C([H])([H])C1([H])[H]


 37 40  0  0  0  0  0  0  0  0999 V2000
    2.5750    1.8582   15.0967 C   0  0  0  0  0  0  0  0  0  0  0  0
    2.5379    1.1308   16.2176 N   0  0  0  0  0  0  0  0  0  0  0  0
    3.1566    1.4596   17.3599 C   0  0  0  0  0  0  0  0  0  0  0  0
    3.8964    2.6614   17.3683 C   0  0  0  0  0  0  0  0  0  0  0  0
    3.9565    3.4270   16.2492 C   0  0  0  0  0  0  0  0  0  0  0  0
    3.2762    2.9806   15.1328 N   0  0  0  0  0  0  0  0  0  0  0  0
    4.5358    3.0132   18.6266 C   0  0  0  0  0  0  0  0  0  0  0  0
    4.1063    2.4539   19.8429 C   0  0  0  0  0  0  0  0  0  0  0  0
    4.6673    2.7867   21.0565 C   0  0  0  0  0  0  0  0  0  0  0  0
    5.6846    3.6954   21.1180 C   0  0  0  0  0  0  0  0  0  0  0  0
    6.1053    4.2436   19.9307 C   0  0  0  0  0  0  0  0  0  0  0  0
    5.5346    3.8928   18.7780 N   0  0  0  0  0  0  0  0  0  0  0  0
    6.3205    4.0864   22.4271 C   0  0  0  0  0  0  0  0  0  0  0  0
    7.2156    5.1848   22.2104 N   0  0  0  0  0  0  0  0  0  0  0  0
    7.3580    5.2715   21.1780 H   0  0  0  0  0  0  0  0  0  0  0  0
    6.7369    6.4350   22.7023 C   0  0  0  0  0  0  0  0  0  0  0  0
    7.8927    7.2269   23.2715 C   0  0  0  0  0  0  0  0  0  0  0  0
    8.7326    7.8903   22.2166 C   0  0  0  0  0  0  0  0  0  0  0  0
    7.8968    8.7806   21.3070 C   0  0  0  0  0  0  0  0  0  0  0  0
    6.9032    7.8561   20.6259 C   0  0  0  0  0  0  0  0  0  0  0  0
    6.0225    7.2817   21.7040 C   0  0  0  0  0  0  0  0  0  0  0  0
    1.8839    1.4390   13.9028 N   0  0  0  0  0  0  0  0  0  0  0  0
    1.1597    0.7318   14.0087 H   0  0  0  0  0  0  0  0  0  0  0  0
    2.2943    2.0207   12.6810 C   0  0  0  0  0  0  0  0  0  0  0  0
    1.3502    2.1264   11.5568 C   0  0  0  0  0  0  0  0  0  0  0  0
   -0.1289    4.0494   11.0093 C   0  0  0  0  0  0  0  0  0  0  0  0
    1.2451    3.4711   10.9337 C   0  0  0  0  0  0  0  0  0  0  0  0
    4.6363    4.6502   16.1748 N   0  0  0  0  0  0  0  0  0  0  0  0
    5.6079    4.7627   15.9067 H   0  0  0  0  0  0  0  0  0  0  0  0
    3.9567    5.9078   16.5179 C   0  0  0  0  0  0  0  0  0  0  0  0
    2.9101    5.7558   17.5559 C   0  0  0  0  0  0  0  0  0  0  0  0
    3.2254    6.4521   18.8555 C   0  0  0  0  0  0  0  0  0  0  0  0
    3.8405    7.7993   18.7192 C   0  0  0  0  0  0  0  0  0  0  0  0
    3.0578    8.8152   19.3144 O   0  0  0  0  0  0  0  0  0  0  0  0
    4.2661    8.1691   17.3275 C   0  0  0  0  0  0  0  0  0  0  0  0
    4.9766    6.9601   16.7456 C   0  0  0  0  0  0  0  0  0  0  0  0
    2.2651    8.4498   19.7518 H   0  0  0  0  0  0  0  0  0  0  0  0
 26 27  1  0  0  0
 27 25  1  0  0  0
 25 24  1  0  0  0
 24 22  1  0  0  0
 22  1  1  0  0  0
  1  2  2  0  0  0
  2  3  1  0  0  0
  3  4  2  0  0  0
  4  5  1  0  0  0
  5 28  1  0  0  0
 28 30  1  0  0  0
 30 31  1  0  0  0
 31 32  1  0  0  0
 32 33  1  0  0  0
 33 34  1  0  0  0
 33 35  1  0  0  0
 35 36  1  0  0  0
  5  6  2  0  0  0
  4  7  1  0  0  0
  7  8  2  0  0  0
  8  9  1  0  0  0
  9 10  2  0  0  0
 10 13  1  0  0  0
 13 14  1  0  0  0
 14 16  1  0  0  0
 16 17  1  0  0  0
 17 18  1  0  0  0
 18 19  1  0  0  0
 19 20  1  0  0  0
 20 21  1  0  0  0
 10 11  1  0  0  0
 11 12  2  0  0  0
  6  1  1  0  0  0
 12  7  1  0  0  0
 36 30  1  0  0  0
 21 16  1  0  0  0
 22 23  1  0  0  0
 28 29  1  0  0  0
 34 37  1  0  0  0
 14 15  1  0  0  0
M  END
> <minimizedAffinity>
-6.79028

> <CNNscore>
0.4902189672

> <CNNaffinity>
7.1001691818

> <CNN_VS>
3.4806375504

> <CNNaffinity_variance>
0.5795785785

$$$$
[H]O[C@]1([H])C([H])([H])C([H])([H])[C@@]([H])(N([H])c2nc(N([H])C([H])([H])C([H])([H])C([H])([H])C([H])([H])[H])nc([H])c2-c2nc([H])c(C([H])([H])N([H])C3([H])C([H])([H])C([H])([H])C([H])([H])C([H])([H])C3([H])[H])c([H])c2[H])C([H])([H])C1([H])[H]


 37 40  0  0  0  0  0  0  0  0999 V2000
    4.7304    1.5055   19.9601 C   0  0  0  0  0  0  0  0  0  0  0  0
    3.8026    0.8446   19.2606 N   0  0  0  0  0  0  0  0  0  0  0  0
    3.2991    1.2523   18.0876 C   0  0  0  0  0  0  0  0  0  0  0  0
    3.7910    2.4665   17.5631 C   0  0  0  0  0  0  0  0  0  0  0  0
    4.7342    3.1653   18.2446 C   0  0  0  0  0  0  0  0  0  0  0  0
    5.1741    2.6415   19.4447 N   0  0  0  0  0  0  0  0  0  0  0  0
    3.2518    2.8753   16.2755 C   0  0  0  0  0  0  0  0  0  0  0  0
    3.2544    2.0012   15.1743 C   0  0  0  0  0  0  0  0  0  0  0  0
    2.7808    2.3640   13.9324 C   0  0  0  0  0  0  0  0  0  0  0  0
    2.2816    3.6181   13.7261 C   0  0  0  0  0  0  0  0  0  0  0  0
    2.2789    4.4742   14.8006 C   0  0  0  0  0  0  0  0  0  0  0  0
    2.7466    4.0816   15.9857 N   0  0  0  0  0  0  0  0  0  0  0  0
    1.7579    4.0518   12.3812 C   0  0  0  0  0  0  0  0  0  0  0  0
    0.3908    4.4613   12.5139 N   0  0  0  0  0  0  0  0  0  0  0  0
    0.1394    4.3840   13.5262 H   0  0  0  0  0  0  0  0  0  0  0  0
    0.1376    5.7997   12.0913 C   0  0  0  0  0  0  0  0  0  0  0  0
   -1.1853    5.8542   11.3605 C   0  0  0  0  0  0  0  0  0  0  0  0
   -2.3718    5.8526   12.2827 C   0  0  0  0  0  0  0  0  0  0  0  0
   -2.2981    6.9839   13.2993 C   0  0  0  0  0  0  0  0  0  0  0  0
   -1.0466    6.7207   14.1181 C   0  0  0  0  0  0  0  0  0  0  0  0
    0.1260    6.8204   13.1784 C   0  0  0  0  0  0  0  0  0  0  0  0
    5.2245    1.0046   21.2185 N   0  0  0  0  0  0  0  0  0  0  0  0
    4.8019    0.1513   21.5776 H   0  0  0  0  0  0  0  0  0  0  0  0
    6.2304    1.7601   21.8642 C   0  0  0  0  0  0  0  0  0  0  0  0
    5.9294    2.4819   23.1111 C   0  0  0  0  0  0  0  0  0  0  0  0
    3.8807    3.7891   23.6396 C   0  0  0  0  0  0  0  0  0  0  0  0
    4.5102    2.4387   23.5488 C   0  0  0  0  0  0  0  0  0  0  0  0
    5.3051    4.3601   17.7857 N   0  0  0  0  0  0  0  0  0  0  0  0
    5.9449    4.4384   17.0028 H   0  0  0  0  0  0  0  0  0  0  0  0
    5.0151    5.6358   18.4564 C   0  0  0  0  0  0  0  0  0  0  0  0
    3.7428    5.6339   19.2162 C   0  0  0  0  0  0  0  0  0  0  0  0
    3.9162    5.7566   20.7089 C   0  0  0  0  0  0  0  0  0  0  0  0
    4.9553    6.7257   21.1481 C   0  0  0  0  0  0  0  0  0  0  0  0
    4.4255    7.7615   21.9514 O   0  0  0  0  0  0  0  0  0  0  0  0
    5.8303    7.2639   20.0530 C   0  0  0  0  0  0  0  0  0  0  0  0
    6.2274    6.0845   19.1832 C   0  0  0  0  0  0  0  0  0  0  0  0
    3.4709    7.6380   22.1153 H   0  0  0  0  0  0  0  0  0  0  0  0
 26 27  1  0  0  0
 27 25  1  0  0  0
 25 24  1  0  0  0
 24 22  1  0  0  0
 22  1  1  0  0  0
  1  2  2  0  0  0
  2  3  1  0  0  0
  3  4  2  0  0  0
  4  5  1  0  0  0
  5 28  1  0  0  0
 28 30  1  0  0  0
 30 31  1  0  0  0
 31 32  1  0  0  0
 32 33  1  0  0  0
 33 34  1  0  0  0
 33 35  1  0  0  0
 35 36  1  0  0  0
  5  6  2  0  0  0
  4  7  1  0  0  0
  7  8  2  0  0  0
  8  9  1  0  0  0
  9 10  2  0  0  0
 10 13  1  0  0  0
 13 14  1  0  0  0
 14 16  1  0  0  0
 16 17  1  0  0  0
 17 18  1  0  0  0
 18 19  1  0  0  0
 19 20  1  0  0  0
 20 21  1  0  0  0
 10 11  1  0  0  0
 11 12  2  0  0  0
  6  1  1  0  0  0
 12  7  1  0  0  0
 36 30  1  0  0  0
 21 16  1  0  0  0
 22 23  1  0  0  0
 28 29  1  0  0  0
 34 37  1  0  0  0
 14 15  1  0  0  0
M  END
> <minimizedAffinity>
-8.53306

> <CNNscore>
0.4011016190

> <CNNaffinity>
7.0940527916

> <CNN_VS>
2.8454360962

> <CNNaffinity_variance>
0.5136066675

$$$$
[H]O[C@]1([H])C([H])([H])C([H])([H])[C@@]([H])(N([H])c2nc(N([H])C([H])([H])C([H])([H])C([H])([H])C([H])([H])[H])nc([H])c2-c2nc([H])c(C([H])([H])N([H])C3([H])C([H])([H])C([H])([H])C([H])([H])C([H])([H])C3([H])[H])c([H])c2[H])C([H])([H])C1([H])[H]


 37 40  0  0  0  0  0  0  0  0999 V2000
    4.4669    1.4421   19.6168 C   0  0  0  0  0  0  0  0  0  0  0  0
    3.6405    0.8273   18.7647 N   0  0  0  0  0  0  0  0  0  0  0  0
    3.3509    1.2679   17.5327 C   0  0  0  0  0  0  0  0  0  0  0  0
    3.9683    2.4665   17.1161 C   0  0  0  0  0  0  0  0  0  0  0  0
    4.8142    3.1187   17.9535 C   0  0  0  0  0  0  0  0  0  0  0  0
    5.0321    2.5644   19.2000 N   0  0  0  0  0  0  0  0  0  0  0  0
    3.6622    2.9108   15.7653 C   0  0  0  0  0  0  0  0  0  0  0  0
    3.1978    2.0106   14.7903 C   0  0  0  0  0  0  0  0  0  0  0  0
    2.9274    2.3891   13.4934 C   0  0  0  0  0  0  0  0  0  0  0  0
    3.1078    3.6853   13.1034 C   0  0  0  0  0  0  0  0  0  0  0  0
    3.5622    4.5665   14.0544 C   0  0  0  0  0  0  0  0  0  0  0  0
    3.8111    4.1576   15.2987 N   0  0  0  0  0  0  0  0  0  0  0  0
    2.8257    4.1355   11.6932 C   0  0  0  0  0  0  0  0  0  0  0  0
    3.9826    4.7975   11.1661 N   0  0  0  0  0  0  0  0  0  0  0  0
    4.4260    4.1478   10.4768 H   0  0  0  0  0  0  0  0  0  0  0  0
    3.7008    6.0284   10.5031 C   0  0  0  0  0  0  0  0  0  0  0  0
    3.8839    7.1746   11.4723 C   0  0  0  0  0  0  0  0  0  0  0  0
    5.3245    7.5452   11.6859 C   0  0  0  0  0  0  0  0  0  0  0  0
    6.0259    7.8643   10.3726 C   0  0  0  0  0  0  0  0  0  0  0  0
    5.9697    6.5861    9.5547 C   0  0  0  0  0  0  0  0  0  0  0  0
    4.5166    6.2975    9.2842 C   0  0  0  0  0  0  0  0  0  0  0  0
    4.7297    0.9080   20.9299 N   0  0  0  0  0  0  0  0  0  0  0  0
    4.1056    0.1790   21.2689 H   0  0  0  0  0  0  0  0  0  0  0  0
    5.8114    1.4661   21.6496 C   0  0  0  0  0  0  0  0  0  0  0  0
    5.5881    2.5994   22.5618 C   0  0  0  0  0  0  0  0  0  0  0  0
    3.8743    3.9950   23.7023 C   0  0  0  0  0  0  0  0  0  0  0  0
    4.2596    2.6338   23.2264 C   0  0  0  0  0  0  0  0  0  0  0  0
    5.4979    4.2939   17.6141 N   0  0  0  0  0  0  0  0  0  0  0  0
    6.2170    4.3662   16.9027 H   0  0  0  0  0  0  0  0  0  0  0  0
    5.2173    5.5543   18.3170 C   0  0  0  0  0  0  0  0  0  0  0  0
    3.8627    5.6146   18.9148 C   0  0  0  0  0  0  0  0  0  0  0  0
    3.8553    5.6510   20.4221 C   0  0  0  0  0  0  0  0  0  0  0  0
    4.8972    6.5139   21.0398 C   0  0  0  0  0  0  0  0  0  0  0  0
    4.3455    7.5477   21.8310 O   0  0  0  0  0  0  0  0  0  0  0  0
    5.9390    7.0349   20.0923 C   0  0  0  0  0  0  0  0  0  0  0  0
    6.3574    5.8718   19.2107 C   0  0  0  0  0  0  0  0  0  0  0  0
    3.3716    7.4909   21.8700 H   0  0  0  0  0  0  0  0  0  0  0  0
 26 27  1  0  0  0
 27 25  1  0  0  0
 25 24  1  0  0  0
 24 22  1  0  0  0
 22  1  1  0  0  0
  1  2  2  0  0  0
  2  3  1  0  0  0
  3  4  2  0  0  0
  4  5  1  0  0  0
  5 28  1  0  0  0
 28 30  1  0  0  0
 30 31  1  0  0  0
 31 32  1  0  0  0
 32 33  1  0  0  0
 33 34  1  0  0  0
 33 35  1  0  0  0
 35 36  1  0  0  0
  5  6  2  0  0  0
  4  7  1  0  0  0
  7  8  2  0  0  0
  8  9  1  0  0  0
  9 10  2  0  0  0
 10 13  1  0  0  0
 13 14  1  0  0  0
 14 16  1  0  0  0
 16 17  1  0  0  0
 17 18  1  0  0  0
 18 19  1  0  0  0
 19 20  1  0  0  0
 20 21  1  0  0  0
 10 11  1  0  0  0
 11 12  2  0  0  0
  6  1  1  0  0  0
 12  7  1  0  0  0
 36 30  1  0  0  0
 21 16  1  0  0  0
 22 23  1  0  0  0
 28 29  1  0  0  0
 34 37  1  0  0  0
 14 15  1  0  0  0
M  END
> <minimizedAffinity>
-7.76543

> <CNNscore>
0.3500100076

> <CNNaffinity>
6.8226265907

> <CNN_VS>
2.3879876137

> <CNNaffinity_variance>
0.4154357910

$$$$
[H]O[C@]1([H])C([H])([H])C([H])([H])[C@@]([H])(N([H])c2nc(N([H])C([H])([H])C([H])([H])C([H])([H])C([H])([H])[H])nc([H])c2-c2nc([H])c(C([H])([H])N([H])C3([H])C([H])([H])C([H])([H])C([H])([H])C([H])([H])C3([H])[H])c([H])c2[H])C([H])([H])C1([H])[H]


 37 40  0  0  0  0  0  0  0  0999 V2000
    3.7640    2.2992   16.7754 C   0  0  0  0  0  0  0  0  0  0  0  0
    3.8402    1.9377   18.0601 N   0  0  0  0  0  0  0  0  0  0  0  0
    4.4221    2.6657   19.0230 C   0  0  0  0  0  0  0  0  0  0  0  0
    4.9910    3.8997   18.6421 C   0  0  0  0  0  0  0  0  0  0  0  0
    4.9324    4.3008   17.3468 C   0  0  0  0  0  0  0  0  0  0  0  0
    4.3059    3.4614   16.4461 N   0  0  0  0  0  0  0  0  0  0  0  0
    5.5916    4.6863   19.7080 C   0  0  0  0  0  0  0  0  0  0  0  0
    5.2883    4.4355   21.0577 C   0  0  0  0  0  0  0  0  0  0  0  0
    5.8137    5.1795   22.0914 C   0  0  0  0  0  0  0  0  0  0  0  0
    6.6679    6.2125   21.8305 C   0  0  0  0  0  0  0  0  0  0  0  0
    6.9650    6.4598   20.5123 C   0  0  0  0  0  0  0  0  0  0  0  0
    6.4343    5.7144   19.5427 N   0  0  0  0  0  0  0  0  0  0  0  0
    7.2597    7.0501   22.9346 C   0  0  0  0  0  0  0  0  0  0  0  0
    8.3807    7.7837   22.4248 N   0  0  0  0  0  0  0  0  0  0  0  0
    8.4580    7.5653   21.4050 H   0  0  0  0  0  0  0  0  0  0  0  0
    8.2699    9.1980   22.5721 C   0  0  0  0  0  0  0  0  0  0  0  0
    7.2839    9.5126   23.6747 C   0  0  0  0  0  0  0  0  0  0  0  0
    7.8633    9.3500   25.0516 C   0  0  0  0  0  0  0  0  0  0  0  0
    9.1245   10.1833   25.2353 C   0  0  0  0  0  0  0  0  0  0  0  0
   10.1220    9.6491   24.2227 C   0  0  0  0  0  0  0  0  0  0  0  0
    9.5482    9.9117   22.8553 C   0  0  0  0  0  0  0  0  0  0  0  0
    3.1221    1.4613   15.7933 N   0  0  0  0  0  0  0  0  0  0  0  0
    2.7171    0.5870   16.1212 H   0  0  0  0  0  0  0  0  0  0  0  0
    3.1396    1.9086   14.4520 C   0  0  0  0  0  0  0  0  0  0  0  0
    1.8970    1.9354   13.6637 C   0  0  0  0  0  0  0  0  0  0  0  0
    0.7286    3.9761   12.8540 C   0  0  0  0  0  0  0  0  0  0  0  0
    1.8242    2.9899   12.6195 C   0  0  0  0  0  0  0  0  0  0  0  0
    5.4380    5.5230   16.8836 N   0  0  0  0  0  0  0  0  0  0  0  0
    6.4000    5.6907   16.6099 H   0  0  0  0  0  0  0  0  0  0  0  0
    4.5678    6.7034   16.7797 C   0  0  0  0  0  0  0  0  0  0  0  0
    3.5063    6.7540   17.8125 C   0  0  0  0  0  0  0  0  0  0  0  0
    3.6554    7.8884   18.7944 C   0  0  0  0  0  0  0  0  0  0  0  0
    4.0745    9.1869   18.2029 C   0  0  0  0  0  0  0  0  0  0  0  0
    3.1256   10.2125   18.4192 O   0  0  0  0  0  0  0  0  0  0  0  0
    4.5076    9.1242   16.7665 C   0  0  0  0  0  0  0  0  0  0  0  0
    5.4125    7.9129   16.6291 C   0  0  0  0  0  0  0  0  0  0  0  0
    2.3743    9.9003   18.9591 H   0  0  0  0  0  0  0  0  0  0  0  0
 26 27  1  0  0  0
 27 25  1  0  0  0
 25 24  1  0  0  0
 24 22  1  0  0  0
 22  1  1  0  0  0
  1  2  2  0  0  0
  2  3  1  0  0  0
  3  4  2  0  0  0
  4  5  1  0  0  0
  5 28  1  0  0  0
 28 30  1  0  0  0
 30 31  1  0  0  0
 31 32  1  0  0  0
 32 33  1  0  0  0
 33 34  1  0  0  0
 33 35  1  0  0  0
 35 36  1  0  0  0
  5  6  2  0  0  0
  4  7  1  0  0  0
  7  8  2  0  0  0
  8  9  1  0  0  0
  9 10  2  0  0  0
 10 13  1  0  0  0
 13 14  1  0  0  0
 14 16  1  0  0  0
 16 17  1  0  0  0
 17 18  1  0  0  0
 18 19  1  0  0  0
 19 20  1  0  0  0
 20 21  1  0  0  0
 10 11  1  0  0  0
 11 12  2  0  0  0
  6  1  1  0  0  0
 12  7  1  0  0  0
 36 30  1  0  0  0
 21 16  1  0  0  0
 22 23  1  0  0  0
 28 29  1  0  0  0
 34 37  1  0  0  0
 14 15  1  0  0  0
M  END
> <minimizedAffinity>
-6.68785

> <CNNscore>
0.2690193057

> <CNNaffinity>
6.3840456009

> <CNN_VS>
1.7174315453

> <CNNaffinity_variance>
0.2203229219

$$$$
[H]O[C@]1([H])C([H])([H])C([H])([H])[C@@]([H])(N([H])c2nc(N([H])C([H])([H])C([H])([H])C([H])([H])C([H])([H])[H])nc([H])c2-c2nc([H])c(C([H])([H])N([H])C3([H])C([H])([H])C([H])([H])C([H])([H])C([H])([H])C3([H])[H])c([H])c2[H])C([H])([H])C1([H])[H]


 37 40  0  0  0  0  0  0  0  0999 V2000
    1.2958    2.6740   13.1146 C   0  0  0  0  0  0  0  0  0  0  0  0
    1.9236    1.8766   13.9846 N   0  0  0  0  0  0  0  0  0  0  0  0
    2.4600    2.2854   15.1425 C   0  0  0  0  0  0  0  0  0  0  0  0
    2.3477    3.6569   15.4553 C   0  0  0  0  0  0  0  0  0  0  0  0
    1.7163    4.4973   14.5967 C   0  0  0  0  0  0  0  0  0  0  0  0
    1.2049    3.9558   13.4333 N   0  0  0  0  0  0  0  0  0  0  0  0
    2.9115    4.0733   16.7299 C   0  0  0  0  0  0  0  0  0  0  0  0
    4.0750    3.4729   17.2424 C   0  0  0  0  0  0  0  0  0  0  0  0
    4.6196    3.8197   18.4595 C   0  0  0  0  0  0  0  0  0  0  0  0
    4.0301    4.7826   19.2275 C   0  0  0  0  0  0  0  0  0  0  0  0
    2.8927    5.3700   18.7289 C   0  0  0  0  0  0  0  0  0  0  0  0
    2.3995    5.0044   17.5455 N   0  0  0  0  0  0  0  0  0  0  0  0
    4.5950    5.1861   20.5650 C   0  0  0  0  0  0  0  0  0  0  0  0
    5.7045    4.3375   20.8870 N   0  0  0  0  0  0  0  0  0  0  0  0
    6.5505    4.9475   20.9654 H   0  0  0  0  0  0  0  0  0  0  0  0
    5.5560    3.6196   22.1103 C   0  0  0  0  0  0  0  0  0  0  0  0
    4.1241    3.1532   22.2484 C   0  0  0  0  0  0  0  0  0  0  0  0
    3.8151    1.9366   21.4221 C   0  0  0  0  0  0  0  0  0  0  0  0
    4.7635    0.7869   21.7337 C   0  0  0  0  0  0  0  0  0  0  0  0
    6.1497    1.2851   21.3646 C   0  0  0  0  0  0  0  0  0  0  0  0
    6.4597    2.4447   22.2740 C   0  0  0  0  0  0  0  0  0  0  0  0
    0.7438    2.1617   11.8851 N   0  0  0  0  0  0  0  0  0  0  0  0
   -0.1800    1.7373   11.9313 H   0  0  0  0  0  0  0  0  0  0  0  0
    1.5471    2.2613   10.7256 C   0  0  0  0  0  0  0  0  0  0  0  0
    2.9207    1.7326   10.7283 C   0  0  0  0  0  0  0  0  0  0  0  0
    3.2997   -0.3284    9.3888 C   0  0  0  0  0  0  0  0  0  0  0  0
    3.3887    1.1608    9.4393 C   0  0  0  0  0  0  0  0  0  0  0  0
    1.5269    5.8645   14.8390 N   0  0  0  0  0  0  0  0  0  0  0  0
    0.9039    6.2526   15.5387 H   0  0  0  0  0  0  0  0  0  0  0  0
    2.2387    6.8732   14.0406 C   0  0  0  0  0  0  0  0  0  0  0  0
    3.5989    6.4550   13.6274 C   0  0  0  0  0  0  0  0  0  0  0  0
    3.7596    6.2626   12.1407 C   0  0  0  0  0  0  0  0  0  0  0  0
    3.0887    7.2846   11.2938 C   0  0  0  0  0  0  0  0  0  0  0  0
    3.9979    7.9882   10.4708 O   0  0  0  0  0  0  0  0  0  0  0  0
    2.1669    8.2161   12.0267 C   0  0  0  0  0  0  0  0  0  0  0  0
    1.3366    7.3655   12.9713 C   0  0  0  0  0  0  0  0  0  0  0  0
    4.9088    7.6511   10.5698 H   0  0  0  0  0  0  0  0  0  0  0  0
 26 27  1  0  0  0
 27 25  1  0  0  0
 25 24  1  0  0  0
 24 22  1  0  0  0
 22  1  1  0  0  0
  1  2  2  0  0  0
  2  3  1  0  0  0
  3  4  2  0  0  0
  4  5  1  0  0  0
  5 28  1  0  0  0
 28 30  1  0  0  0
 30 31  1  0  0  0
 31 32  1  0  0  0
 32 33  1  0  0  0
 33 34  1  0  0  0
 33 35  1  0  0  0
 35 36  1  0  0  0
  5  6  2  0  0  0
  4  7  1  0  0  0
  7  8  2  0  0  0
  8  9  1  0  0  0
  9 10  2  0  0  0
 10 13  1  0  0  0
 13 14  1  0  0  0
 14 16  1  0  0  0
 16 17  1  0  0  0
 17 18  1  0  0  0
 18 19  1  0  0  0
 19 20  1  0  0  0
 20 21  1  0  0  0
 10 11  1  0  0  0
 11 12  2  0  0  0
  6  1  1  0  0  0
 12  7  1  0  0  0
 36 30  1  0  0  0
 21 16  1  0  0  0
 22 23  1  0  0  0
 28 29  1  0  0  0
 34 37  1  0  0  0
 14 15  1  0  0  0
M  END
> <minimizedAffinity>
-7.20838

> <CNNscore>
0.2464820743

> <CNNaffinity>
6.6445465088

> <CNN_VS>
1.6377615929

> <CNNaffinity_variance>
0.0707123727

$$$$
[H]O[C@]1([H])C([H])([H])C([H])([H])[C@@]([H])(N([H])c2nc(N([H])C([H])([H])C([H])([H])C([H])([H])C([H])([H])[H])nc([H])c2-c2nc([H])c(C([H])([H])N([H])C3([H])C([H])([H])C([H])([H])C([H])([H])C([H])([H])C3([H])[H])c([H])c2[H])C([H])([H])C1([H])[H]


 37 40  0  0  0  0  0  0  0  0999 V2000
    2.7620    2.7335   16.9035 C   0  0  0  0  0  0  0  0  0  0  0  0
    2.2170    3.9492   16.7937 N   0  0  0  0  0  0  0  0  0  0  0  0
    2.5752    5.0134   17.5251 C   0  0  0  0  0  0  0  0  0  0  0  0
    3.6019    4.8256   18.4749 C   0  0  0  0  0  0  0  0  0  0  0  0
    4.1798    3.6055   18.6145 C   0  0  0  0  0  0  0  0  0  0  0  0
    3.7228    2.5858   17.8023 N   0  0  0  0  0  0  0  0  0  0  0  0
    3.9944    6.0006   19.2372 C   0  0  0  0  0  0  0  0  0  0  0  0
    3.8386    7.2952   18.7115 C   0  0  0  0  0  0  0  0  0  0  0  0
    4.2273    8.4286   19.3915 C   0  0  0  0  0  0  0  0  0  0  0  0
    4.7924    8.3275   20.6305 C   0  0  0  0  0  0  0  0  0  0  0  0
    4.9463    7.0634   21.1458 C   0  0  0  0  0  0  0  0  0  0  0  0
    4.5556    5.9931   20.4535 N   0  0  0  0  0  0  0  0  0  0  0  0
    5.2328    9.5443   21.4028 C   0  0  0  0  0  0  0  0  0  0  0  0
    5.6603    9.1464   22.7118 N   0  0  0  0  0  0  0  0  0  0  0  0
    5.7494    8.1044   22.7069 H   0  0  0  0  0  0  0  0  0  0  0  0
    6.9122    9.7004   23.1116 C   0  0  0  0  0  0  0  0  0  0  0  0
    7.4724    8.8966   24.2636 C   0  0  0  0  0  0  0  0  0  0  0  0
    8.1087    7.6058   23.8310 C   0  0  0  0  0  0  0  0  0  0  0  0
    9.1930    7.8332   22.7864 C   0  0  0  0  0  0  0  0  0  0  0  0
    8.4899    8.4522   21.5913 C   0  0  0  0  0  0  0  0  0  0  0  0
    7.9448    9.7828   22.0389 C   0  0  0  0  0  0  0  0  0  0  0  0
    2.3229    1.6335   16.0815 N   0  0  0  0  0  0  0  0  0  0  0  0
    1.6599    0.9806   16.4937 H   0  0  0  0  0  0  0  0  0  0  0  0
    2.8767    1.5355   14.7841 C   0  0  0  0  0  0  0  0  0  0  0  0
    2.2873    2.2924   13.6678 C   0  0  0  0  0  0  0  0  0  0  0  0
    3.2196    4.5849   13.4218 C   0  0  0  0  0  0  0  0  0  0  0  0
    3.2251    3.1762   12.9282 C   0  0  0  0  0  0  0  0  0  0  0  0
    5.2274    3.3343   19.5050 N   0  0  0  0  0  0  0  0  0  0  0  0
    6.1577    3.7343   19.4510 H   0  0  0  0  0  0  0  0  0  0  0  0
    5.0414    2.3901   20.6164 C   0  0  0  0  0  0  0  0  0  0  0  0
    6.2305    2.2568   21.4906 C   0  0  0  0  0  0  0  0  0  0  0  0
    6.0261    2.7738   22.8920 C   0  0  0  0  0  0  0  0  0  0  0  0
    4.7090    2.4484   23.5013 C   0  0  0  0  0  0  0  0  0  0  0  0
    4.8330    1.6819   24.6829 O   0  0  0  0  0  0  0  0  0  0  0  0
    3.6981    1.8593   22.5602 C   0  0  0  0  0  0  0  0  0  0  0  0
    3.7494    2.6805   21.2842 C   0  0  0  0  0  0  0  0  0  0  0  0
    5.7685    1.5335   24.9197 H   0  0  0  0  0  0  0  0  0  0  0  0
 26 27  1  0  0  0
 27 25  1  0  0  0
 25 24  1  0  0  0
 24 22  1  0  0  0
 22  1  1  0  0  0
  1  2  2  0  0  0
  2  3  1  0  0  0
  3  4  2  0  0  0
  4  5  1  0  0  0
  5 28  1  0  0  0
 28 30  1  0  0  0
 30 31  1  0  0  0
 31 32  1  0  0  0
 32 33  1  0  0  0
 33 34  1  0  0  0
 33 35  1  0  0  0
 35 36  1  0  0  0
  5  6  2  0  0  0
  4  7  1  0  0  0
  7  8  2  0  0  0
  8  9  1  0  0  0
  9 10  2  0  0  0
 10 13  1  0  0  0
 13 14  1  0  0  0
 14 16  1  0  0  0
 16 17  1  0  0  0
 17 18  1  0  0  0
 18 19  1  0  0  0
 19 20  1  0  0  0
 20 21  1  0  0  0
 10 11  1  0  0  0
 11 12  2  0  0  0
  6  1  1  0  0  0
 12  7  1  0  0  0
 36 30  1  0  0  0
 21 16  1  0  0  0
 22 23  1  0  0  0
 28 29  1  0  0  0
 34 37  1  0  0  0
 14 15  1  0  0  0
M  END
> <minimizedAffinity>
-8.17409

> <CNNscore>
0.2288487256

> <CNNaffinity>
6.6388688087

> <CNN_VS>
1.5192966461

> <CNNaffinity_variance>
0.3036060631

$$$$
[H]O[C@]1([H])C([H])([H])C([H])([H])[C@@]([H])(N([H])c2nc(N([H])C([H])([H])C([H])([H])C([H])([H])C([H])([H])[H])nc([H])c2-c2nc([H])c(C([H])([H])N([H])C3([H])C([H])([H])C([H])([H])C([H])([H])C([H])([H])C3([H])[H])c([H])c2[H])C([H])([H])C1([H])[H]


 37 40  0  0  0  0  0  0  0  0999 V2000
    3.8870    2.9037   17.0547 C   0  0  0  0  0  0  0  0  0  0  0  0
    4.8863    3.5485   16.4443 N   0  0  0  0  0  0  0  0  0  0  0  0
    5.6248    4.5152   17.0063 C   0  0  0  0  0  0  0  0  0  0  0  0
    5.3170    4.8687   18.3373 C   0  0  0  0  0  0  0  0  0  0  0  0
    4.3096    4.2354   18.9901 C   0  0  0  0  0  0  0  0  0  0  0  0
    3.6199    3.2554   18.3028 N   0  0  0  0  0  0  0  0  0  0  0  0
    6.1496    5.8998   18.9369 C   0  0  0  0  0  0  0  0  0  0  0  0
    6.7800    6.8773   18.1472 C   0  0  0  0  0  0  0  0  0  0  0  0
    7.6000    7.8497   18.6767 C   0  0  0  0  0  0  0  0  0  0  0  0
    7.8333    7.8952   20.0213 C   0  0  0  0  0  0  0  0  0  0  0  0
    7.2189    6.9406   20.7948 C   0  0  0  0  0  0  0  0  0  0  0  0
    6.4324    6.0174   20.2410 N   0  0  0  0  0  0  0  0  0  0  0  0
    8.7264    8.9418   20.6360 C   0  0  0  0  0  0  0  0  0  0  0  0
    8.4191    9.0684   22.0303 N   0  0  0  0  0  0  0  0  0  0  0  0
    7.8337    8.2436   22.2963 H   0  0  0  0  0  0  0  0  0  0  0  0
    9.5634    9.0975   22.8811 C   0  0  0  0  0  0  0  0  0  0  0  0
    9.2154    9.8132   24.1670 C   0  0  0  0  0  0  0  0  0  0  0  0
    8.4411    8.9580   25.1300 C   0  0  0  0  0  0  0  0  0  0  0  0
    9.1715    7.6596   25.4448 C   0  0  0  0  0  0  0  0  0  0  0  0
    9.2858    6.9207   24.1232 C   0  0  0  0  0  0  0  0  0  0  0  0
   10.1424    7.7649   23.2169 C   0  0  0  0  0  0  0  0  0  0  0  0
    3.1341    1.8730   16.3842 N   0  0  0  0  0  0  0  0  0  0  0  0
    2.9665    1.9932   15.3876 H   0  0  0  0  0  0  0  0  0  0  0  0
    2.6625    0.7997   17.1749 C   0  0  0  0  0  0  0  0  0  0  0  0
    3.3318    0.4628   18.4417 C   0  0  0  0  0  0  0  0  0  0  0  0
    2.9064   -0.0698   20.8335 C   0  0  0  0  0  0  0  0  0  0  0  0
    2.5125   -0.3067   19.4134 C   0  0  0  0  0  0  0  0  0  0  0  0
    3.9560    4.4951   20.3211 N   0  0  0  0  0  0  0  0  0  0  0  0
    3.5958    5.3773   20.6679 H   0  0  0  0  0  0  0  0  0  0  0  0
    4.1124    3.4606   21.3540 C   0  0  0  0  0  0  0  0  0  0  0  0
    5.3888    2.7135   21.2608 C   0  0  0  0  0  0  0  0  0  0  0  0
    6.3234    2.9432   22.4215 C   0  0  0  0  0  0  0  0  0  0  0  0
    5.6732    2.9910   23.7582 C   0  0  0  0  0  0  0  0  0  0  0  0
    6.1554    1.9892   24.6316 O   0  0  0  0  0  0  0  0  0  0  0  0
    4.1724    3.0348   23.7372 C   0  0  0  0  0  0  0  0  0  0  0  0
    3.7735    4.0435   22.6749 C   0  0  0  0  0  0  0  0  0  0  0  0
    6.8663    1.4626   24.2185 H   0  0  0  0  0  0  0  0  0  0  0  0
 26 27  1  0  0  0
 27 25  1  0  0  0
 25 24  1  0  0  0
 24 22  1  0  0  0
 22  1  1  0  0  0
  1  2  2  0  0  0
  2  3  1  0  0  0
  3  4  2  0  0  0
  4  5  1  0  0  0
  5 28  1  0  0  0
 28 30  1  0  0  0
 30 31  1  0  0  0
 31 32  1  0  0  0
 32 33  1  0  0  0
 33 34  1  0  0  0
 33 35  1  0  0  0
 35 36  1  0  0  0
  5  6  2  0  0  0
  4  7  1  0  0  0
  7  8  2  0  0  0
  8  9  1  0  0  0
  9 10  2  0  0  0
 10 13  1  0  0  0
 13 14  1  0  0  0
 14 16  1  0  0  0
 16 17  1  0  0  0
 17 18  1  0  0  0
 18 19  1  0  0  0
 19 20  1  0  0  0
 20 21  1  0  0  0
 10 11  1  0  0  0
 11 12  2  0  0  0
  6  1  1  0  0  0
 12  7  1  0  0  0
 36 30  1  0  0  0
 21 16  1  0  0  0
 22 23  1  0  0  0
 28 29  1  0  0  0
 34 37  1  0  0  0
 14 15  1  0  0  0
M  END
> <minimizedAffinity>
-7.02823

> <CNNscore>
0.2207003385

> <CNNaffinity>
6.6894745827

> <CNN_VS>
1.4763692617

> <CNNaffinity_variance>
0.0743918270

$$$$
[H]O[C@]1([H])C([H])([H])C([H])([H])[C@@]([H])(N([H])c2nc(N([H])C([H])([H])C([H])([H])C([H])([H])C([H])([H])[H])nc([H])c2-c2nc([H])c(C([H])([H])N([H])C3([H])C([H])([H])C([H])([H])C([H])([H])C([H])([H])C3([H])[H])c([H])c2[H])C([H])([H])C1([H])[H]


 37 40  0  0  0  0  0  0  0  0999 V2000
    4.1796    3.0829   17.1072 C   0  0  0  0  0  0  0  0  0  0  0  0
    5.2542    3.7017   16.6077 N   0  0  0  0  0  0  0  0  0  0  0  0
    5.9646    4.6357   17.2547 C   0  0  0  0  0  0  0  0  0  0  0  0
    5.5392    4.9822   18.5549 C   0  0  0  0  0  0  0  0  0  0  0  0
    4.4526    4.3747   19.0958 C   0  0  0  0  0  0  0  0  0  0  0  0
    3.8027    3.4273   18.3287 N   0  0  0  0  0  0  0  0  0  0  0  0
    6.3415    5.9769   19.2495 C   0  0  0  0  0  0  0  0  0  0  0  0
    7.0957    6.9285   18.5405 C   0  0  0  0  0  0  0  0  0  0  0  0
    7.8909    7.8652   19.1637 C   0  0  0  0  0  0  0  0  0  0  0  0
    7.9747    7.8992   20.5262 C   0  0  0  0  0  0  0  0  0  0  0  0
    7.2392    6.9699   21.2209 C   0  0  0  0  0  0  0  0  0  0  0  0
    6.4820    6.0810   20.5776 N   0  0  0  0  0  0  0  0  0  0  0  0
    8.8362    8.9069   21.2427 C   0  0  0  0  0  0  0  0  0  0  0  0
    9.1507    8.4165   22.5523 N   0  0  0  0  0  0  0  0  0  0  0  0
    8.6629    7.4985   22.6665 H   0  0  0  0  0  0  0  0  0  0  0  0
   10.5437    8.2143   22.7821 C   0  0  0  0  0  0  0  0  0  0  0  0
   10.7428    7.5913   24.1455 C   0  0  0  0  0  0  0  0  0  0  0  0
   10.4590    6.1158   24.1697 C   0  0  0  0  0  0  0  0  0  0  0  0
   11.2859    5.3650   23.1347 C   0  0  0  0  0  0  0  0  0  0  0  0
   10.8599    5.9192   21.7867 C   0  0  0  0  0  0  0  0  0  0  0  0
   11.2425    7.3756   21.7661 C   0  0  0  0  0  0  0  0  0  0  0  0
    3.4634    2.0869   16.3498 N   0  0  0  0  0  0  0  0  0  0  0  0
    3.8988    1.1717   16.2563 H   0  0  0  0  0  0  0  0  0  0  0  0
    2.2329    2.4762   15.7720 C   0  0  0  0  0  0  0  0  0  0  0  0
    1.9193    2.1114   14.3810 C   0  0  0  0  0  0  0  0  0  0  0  0
    2.6771    2.0300   12.0137 C   0  0  0  0  0  0  0  0  0  0  0  0
    2.8294    2.6754   13.3509 C   0  0  0  0  0  0  0  0  0  0  0  0
    3.9786    4.6289   20.3899 N   0  0  0  0  0  0  0  0  0  0  0  0
    3.5815    5.5075   20.7040 H   0  0  0  0  0  0  0  0  0  0  0  0
    4.0499    3.5937   21.4314 C   0  0  0  0  0  0  0  0  0  0  0  0
    5.2336    2.7100   21.3134 C   0  0  0  0  0  0  0  0  0  0  0  0
    6.2201    2.8469   22.4453 C   0  0  0  0  0  0  0  0  0  0  0  0
    5.6171    2.9790   23.7983 C   0  0  0  0  0  0  0  0  0  0  0  0
    6.0111    1.9389   24.6712 O   0  0  0  0  0  0  0  0  0  0  0  0
    4.1302    3.1872   23.8173 C   0  0  0  0  0  0  0  0  0  0  0  0
    3.8143    4.2232   22.7533 C   0  0  0  0  0  0  0  0  0  0  0  0
    6.6480    1.3333   24.2459 H   0  0  0  0  0  0  0  0  0  0  0  0
 26 27  1  0  0  0
 27 25  1  0  0  0
 25 24  1  0  0  0
 24 22  1  0  0  0
 22  1  1  0  0  0
  1  2  2  0  0  0
  2  3  1  0  0  0
  3  4  2  0  0  0
  4  5  1  0  0  0
  5 28  1  0  0  0
 28 30  1  0  0  0
 30 31  1  0  0  0
 31 32  1  0  0  0
 32 33  1  0  0  0
 33 34  1  0  0  0
 33 35  1  0  0  0
 35 36  1  0  0  0
  5  6  2  0  0  0
  4  7  1  0  0  0
  7  8  2  0  0  0
  8  9  1  0  0  0
  9 10  2  0  0  0
 10 13  1  0  0  0
 13 14  1  0  0  0
 14 16  1  0  0  0
 16 17  1  0  0  0
 17 18  1  0  0  0
 18 19  1  0  0  0
 19 20  1  0  0  0
 20 21  1  0  0  0
 10 11  1  0  0  0
 11 12  2  0  0  0
  6  1  1  0  0  0
 12  7  1  0  0  0
 36 30  1  0  0  0
 21 16  1  0  0  0
 22 23  1  0  0  0
 28 29  1  0  0  0
 34 37  1  0  0  0
 14 15  1  0  0  0
M  END
> <minimizedAffinity>
-7.31320

> <CNNscore>
0.1965749562

> <CNNaffinity>
6.7117414474

> <CNN_VS>
1.3193602562

> <CNNaffinity_variance>
0.0324874148

$$$$
[H]c1c([H])c(C([H])([H])C([H])([H])C([H])([H])N([H])c2nc([H])c3c(-c4c([H])c([H])c(N5C([H])([H])C([H])([H])OC([H])([H])C5([H])[H])c([H])c4[H])nn(C([H])([H])C4([H])C([H])([H])C([H])([H])C([H])(N([H])[H])C([H])([H])C4([H])[H])c3n2)c([H])c([H])c1F


 43 48  0  0  0  0  0  0  0  0999 V2000
    4.4981    3.1697   16.6490 N   0  0  0  0  0  0  0  0  0  0  0  0
    4.0660    3.4748   15.4516 N   0  0  0  0  0  0  0  0  0  0  0  0
    3.1276    2.6110   15.0221 C   0  0  0  0  0  0  0  0  0  0  0  0
    2.9602    1.7017   16.0203 C   0  0  0  0  0  0  0  0  0  0  0  0
    2.1326    0.6040   16.1257 C   0  0  0  0  0  0  0  0  0  0  0  0
    2.1876   -0.1209   17.2594 N   0  0  0  0  0  0  0  0  0  0  0  0
    3.0315    0.2186   18.2671 C   0  0  0  0  0  0  0  0  0  0  0  0
    3.8283    1.2935   18.1401 N   0  0  0  0  0  0  0  0  0  0  0  0
    3.8297    2.0729   17.0282 C   0  0  0  0  0  0  0  0  0  0  0  0
    2.4513    2.6703   13.7520 C   0  0  0  0  0  0  0  0  0  0  0  0
    2.8625    1.9063   12.6957 C   0  0  0  0  0  0  0  0  0  0  0  0
    2.2087    1.9532   11.4555 C   0  0  0  0  0  0  0  0  0  0  0  0
    1.1304    2.7828   11.2895 C   0  0  0  0  0  0  0  0  0  0  0  0
    0.6978    3.5743   12.3706 C   0  0  0  0  0  0  0  0  0  0  0  0
    1.3712    3.5026   13.5900 C   0  0  0  0  0  0  0  0  0  0  0  0
    0.4384    2.8811   10.0717 N   0  0  0  0  0  0  0  0  0  0  0  0
   -0.6903    3.7981    9.8960 C   0  0  0  0  0  0  0  0  0  0  0  0
   -1.4756    3.2596    8.7073 C   0  0  0  0  0  0  0  0  0  0  0  0
   -1.5818    1.8677    8.8998 O   0  0  0  0  0  0  0  0  0  0  0  0
   -0.3881    1.2220    8.5177 C   0  0  0  0  0  0  0  0  0  0  0  0
    0.7934    2.0998    8.9222 C   0  0  0  0  0  0  0  0  0  0  0  0
    3.0319   -0.5959   19.4320 N   0  0  0  0  0  0  0  0  0  0  0  0
    3.3245   -1.5967   19.3534 H   0  0  0  0  0  0  0  0  0  0  0  0
    2.6438   -0.0892   20.7184 C   0  0  0  0  0  0  0  0  0  0  0  0
    3.8160    0.3456   21.5441 C   0  0  0  0  0  0  0  0  0  0  0  0
    3.3417    1.2739   22.6386 C   0  0  0  0  0  0  0  0  0  0  0  0
    4.1436    2.5210   22.5463 C   0  0  0  0  0  0  0  0  0  0  0  0
    5.3613    2.5155   21.8990 C   0  0  0  0  0  0  0  0  0  0  0  0
    6.1338    3.6514   21.7931 C   0  0  0  0  0  0  0  0  0  0  0  0
    5.6920    4.8196   22.3396 C   0  0  0  0  0  0  0  0  0  0  0  0
    6.4098    5.9615   22.2642 F   0  0  0  0  0  0  0  0  0  0  0  0
    4.4773    4.8402   22.9893 C   0  0  0  0  0  0  0  0  0  0  0  0
    3.7067    3.7021   23.0937 C   0  0  0  0  0  0  0  0  0  0  0  0
    5.4865    3.8577   17.4128 C   0  0  0  0  0  0  0  0  0  0  0  0
    3.6521    8.0516   18.0466 N   0  0  0  0  0  0  0  0  0  0  0  0
    4.2680    7.4277   19.2201 C   0  0  0  0  0  0  0  0  0  0  0  0
    3.5340    6.2238   19.6894 C   0  0  0  0  0  0  0  0  0  0  0  0
    3.9216    4.9321   19.0732 C   0  0  0  0  0  0  0  0  0  0  0  0
    5.0430    5.0936   18.1039 C   0  0  0  0  0  0  0  0  0  0  0  0
    6.1554    5.8143   18.8280 C   0  0  0  0  0  0  0  0  0  0  0  0
    5.7433    7.2353   19.0380 C   0  0  0  0  0  0  0  0  0  0  0  0
    4.3984    8.4161   17.3973 H   0  0  0  0  0  0  0  0  0  0  0  0
    2.9745    8.7976   18.3122 H   0  0  0  0  0  0  0  0  0  0  0  0
 35 36  1  0  0  0
 36 37  1  0  0  0
 37 38  1  0  0  0
 38 39  1  0  0  0
 39 34  1  0  0  0
 34  1  1  0  0  0
  1  2  1  0  0  0
  2  3  2  0  0  0
  3 10  1  0  0  0
 10 11  2  0  0  0
 11 12  1  0  0  0
 12 13  2  0  0  0
 13 14  1  0  0  0
 14 15  2  0  0  0
 13 16  1  0  0  0
 16 17  1  0  0  0
 17 18  1  0  0  0
 18 19  1  0  0  0
 19 20  1  0  0  0
 20 21  1  0  0  0
  3  4  1  0  0  0
  4  5  2  0  0  0
  5  6  1  0  0  0
  6  7  2  0  0  0
  7 22  1  0  0  0
 22 24  1  0  0  0
 24 25  1  0  0  0
 25 26  1  0  0  0
 26 27  1  0  0  0
 27 28  2  0  0  0
 28 29  1  0  0  0
 29 30  2  0  0  0
 30 31  1  0  0  0
 30 32  1  0  0  0
 32 33  2  0  0  0
  7  8  1  0  0  0
  8  9  2  0  0  0
 39 40  1  0  0  0
 40 41  1  0  0  0
 41 36  1  0  0  0
  9  1  1  0  0  0
 15 10  1  0  0  0
 21 16  1  0  0  0
  9  4  1  0  0  0
 33 27  1  0  0  0
 35 42  1  0  0  0
 35 43  1  0  0  0
 22 23  1  0  0  0
M  END
> <minimizedAffinity>
-9.26648

> <CNNscore>
0.9536468983

> <CNNaffinity>
8.0024747849

> <CNN_VS>
7.6315350533

> <CNNaffinity_variance>
0.0405442044

$$$$
[H]c1c([H])c(C([H])([H])C([H])([H])C([H])([H])N([H])c2nc([H])c3c(-c4c([H])c([H])c(N5C([H])([H])C([H])([H])OC([H])([H])C5([H])[H])c([H])c4[H])nn(C([H])([H])C4([H])C([H])([H])C([H])([H])C([H])(N([H])[H])C([H])([H])C4([H])[H])c3n2)c([H])c([H])c1F


 43 48  0  0  0  0  0  0  0  0999 V2000
    3.4739    3.9222   17.6290 N   0  0  0  0  0  0  0  0  0  0  0  0
    3.4853    4.2543   16.3628 N   0  0  0  0  0  0  0  0  0  0  0  0
    3.3455    3.1819   15.5619 C   0  0  0  0  0  0  0  0  0  0  0  0
    3.2388    2.1029   16.3839 C   0  0  0  0  0  0  0  0  0  0  0  0
    3.0766    0.7609   16.1121 C   0  0  0  0  0  0  0  0  0  0  0  0
    2.9989   -0.0888   17.1541 N   0  0  0  0  0  0  0  0  0  0  0  0
    3.0776    0.3619   18.4322 C   0  0  0  0  0  0  0  0  0  0  0  0
    3.2356    1.6750   18.6710 N   0  0  0  0  0  0  0  0  0  0  0  0
    3.3222    2.5923   17.6735 C   0  0  0  0  0  0  0  0  0  0  0  0
    3.3146    3.2082   14.1224 C   0  0  0  0  0  0  0  0  0  0  0  0
    4.0080    4.1520   13.4174 C   0  0  0  0  0  0  0  0  0  0  0  0
    3.9881    4.1846   12.0152 C   0  0  0  0  0  0  0  0  0  0  0  0
    3.2578    3.2512   11.3265 C   0  0  0  0  0  0  0  0  0  0  0  0
    2.5396    2.2742   12.0421 C   0  0  0  0  0  0  0  0  0  0  0  0
    2.5819    2.2712   13.4363 C   0  0  0  0  0  0  0  0  0  0  0  0
    3.1910    3.2348    9.9241 N   0  0  0  0  0  0  0  0  0  0  0  0
    2.3851    2.2486    9.2004 C   0  0  0  0  0  0  0  0  0  0  0  0
    2.9616    2.2017    7.7915 C   0  0  0  0  0  0  0  0  0  0  0  0
    4.3625    2.1569    7.9374 O   0  0  0  0  0  0  0  0  0  0  0  0
    4.8748    3.4439    8.2004 C   0  0  0  0  0  0  0  0  0  0  0  0
    3.8974    4.1823    9.1111 C   0  0  0  0  0  0  0  0  0  0  0  0
    2.9873   -0.5965   19.4781 N   0  0  0  0  0  0  0  0  0  0  0  0
    3.2065   -1.5978   19.2713 H   0  0  0  0  0  0  0  0  0  0  0  0
    2.6051   -0.2352   20.8143 C   0  0  0  0  0  0  0  0  0  0  0  0
    3.7683    0.2140   21.6450 C   0  0  0  0  0  0  0  0  0  0  0  0
    3.2969    1.2292   22.6607 C   0  0  0  0  0  0  0  0  0  0  0  0
    4.0998    2.4637   22.4652 C   0  0  0  0  0  0  0  0  0  0  0  0
    3.7259    3.6386   23.0831 C   0  0  0  0  0  0  0  0  0  0  0  0
    4.4443    4.8036   22.9259 C   0  0  0  0  0  0  0  0  0  0  0  0
    5.5580    4.8071   22.1398 C   0  0  0  0  0  0  0  0  0  0  0  0
    6.2981    5.9216   21.9521 F   0  0  0  0  0  0  0  0  0  0  0  0
    5.9438    3.6408   21.5161 C   0  0  0  0  0  0  0  0  0  0  0  0
    5.2229    2.4767   21.6754 C   0  0  0  0  0  0  0  0  0  0  0  0
    3.5988    4.7920   18.7522 C   0  0  0  0  0  0  0  0  0  0  0  0
    6.3716    8.2870   19.9570 N   0  0  0  0  0  0  0  0  0  0  0  0
    6.3135    7.9663   18.5290 C   0  0  0  0  0  0  0  0  0  0  0  0
    6.8986    6.6384   18.2083 C   0  0  0  0  0  0  0  0  0  0  0  0
    5.9798    5.4769   18.2814 C   0  0  0  0  0  0  0  0  0  0  0  0
    4.5898    5.8895   18.6287 C   0  0  0  0  0  0  0  0  0  0  0  0
    4.1858    6.9616   17.6445 C   0  0  0  0  0  0  0  0  0  0  0  0
    4.9481    8.2077   17.9596 C   0  0  0  0  0  0  0  0  0  0  0  0
    5.5009    8.8058   20.2469 H   0  0  0  0  0  0  0  0  0  0  0  0
    7.2353    8.8161   20.2030 H   0  0  0  0  0  0  0  0  0  0  0  0
 35 36  1  0  0  0
 36 37  1  0  0  0
 37 38  1  0  0  0
 38 39  1  0  0  0
 39 34  1  0  0  0
 34  1  1  0  0  0
  1  2  1  0  0  0
  2  3  2  0  0  0
  3 10  1  0  0  0
 10 11  2  0  0  0
 11 12  1  0  0  0
 12 13  2  0  0  0
 13 14  1  0  0  0
 14 15  2  0  0  0
 13 16  1  0  0  0
 16 17  1  0  0  0
 17 18  1  0  0  0
 18 19  1  0  0  0
 19 20  1  0  0  0
 20 21  1  0  0  0
  3  4  1  0  0  0
  4  5  2  0  0  0
  5  6  1  0  0  0
  6  7  2  0  0  0
  7 22  1  0  0  0
 22 24  1  0  0  0
 24 25  1  0  0  0
 25 26  1  0  0  0
 26 27  1  0  0  0
 27 28  2  0  0  0
 28 29  1  0  0  0
 29 30  2  0  0  0
 30 31  1  0  0  0
 30 32  1  0  0  0
 32 33  2  0  0  0
  7  8  1  0  0  0
  8  9  2  0  0  0
 39 40  1  0  0  0
 40 41  1  0  0  0
 41 36  1  0  0  0
  9  1  1  0  0  0
 15 10  1  0  0  0
 21 16  1  0  0  0
  9  4  1  0  0  0
 33 27  1  0  0  0
 35 42  1  0  0  0
 35 43  1  0  0  0
 22 23  1  0  0  0
M  END
> <minimizedAffinity>
-8.60900

> <CNNscore>
0.8421835899

> <CNNaffinity>
7.8324723244

> <CNN_VS>
6.5963797569

> <CNNaffinity_variance>
0.1643697619

$$$$
[H]c1c([H])c(C([H])([H])C([H])([H])C([H])([H])N([H])c2nc([H])c3c(-c4c([H])c([H])c(N5C([H])([H])C([H])([H])OC([H])([H])C5([H])[H])c([H])c4[H])nn(C([H])([H])C4([H])C([H])([H])C([H])([H])C([H])(N([H])[H])C([H])([H])C4([H])[H])c3n2)c([H])c([H])c1F


 43 48  0  0  0  0  0  0  0  0999 V2000
    4.7892    3.7853   16.5419 N   0  0  0  0  0  0  0  0  0  0  0  0
    4.4470    4.4038   15.4400 N   0  0  0  0  0  0  0  0  0  0  0  0
    3.5059    3.7267   14.7567 C   0  0  0  0  0  0  0  0  0  0  0  0
    3.2399    2.6062   15.4813 C   0  0  0  0  0  0  0  0  0  0  0  0
    2.3659    1.5628   15.2611 C   0  0  0  0  0  0  0  0  0  0  0  0
    2.3200    0.5748   16.1750 N   0  0  0  0  0  0  0  0  0  0  0  0
    3.1097    0.6051   17.2789 C   0  0  0  0  0  0  0  0  0  0  0  0
    3.9535    1.6334   17.4708 N   0  0  0  0  0  0  0  0  0  0  0  0
    4.0562    2.6658   16.5947 C   0  0  0  0  0  0  0  0  0  0  0  0
    2.9155    4.1387   13.5094 C   0  0  0  0  0  0  0  0  0  0  0  0
    1.8025    4.9317   13.4817 C   0  0  0  0  0  0  0  0  0  0  0  0
    1.2216    5.3420   12.2727 C   0  0  0  0  0  0  0  0  0  0  0  0
    1.7766    4.9426   11.0848 C   0  0  0  0  0  0  0  0  0  0  0  0
    2.9233    4.1257   11.1010 C   0  0  0  0  0  0  0  0  0  0  0  0
    3.4749    3.7364   12.3216 C   0  0  0  0  0  0  0  0  0  0  0  0
    1.2385    5.3128    9.8419 N   0  0  0  0  0  0  0  0  0  0  0  0
    1.1115    4.3568    8.7393 C   0  0  0  0  0  0  0  0  0  0  0  0
    1.0104    5.1997    7.4748 C   0  0  0  0  0  0  0  0  0  0  0  0
    2.0052    6.1923    7.5792 O   0  0  0  0  0  0  0  0  0  0  0  0
    1.5741    7.2397    8.4189 C   0  0  0  0  0  0  0  0  0  0  0  0
    0.7727    6.6426    9.5727 C   0  0  0  0  0  0  0  0  0  0  0  0
    3.0039   -0.4745   18.1974 N   0  0  0  0  0  0  0  0  0  0  0  0
    3.4118   -1.4027   17.9414 H   0  0  0  0  0  0  0  0  0  0  0  0
    2.3545   -0.3334   19.4704 C   0  0  0  0  0  0  0  0  0  0  0  0
    3.3105   -0.4363   20.6196 C   0  0  0  0  0  0  0  0  0  0  0  0
    2.9070    0.5440   21.6970 C   0  0  0  0  0  0  0  0  0  0  0  0
    4.0492    1.4694   21.9105 C   0  0  0  0  0  0  0  0  0  0  0  0
    3.9355    2.5166   22.8006 C   0  0  0  0  0  0  0  0  0  0  0  0
    4.9722    3.3959   23.0254 C   0  0  0  0  0  0  0  0  0  0  0  0
    6.1482    3.2360   22.3547 C   0  0  0  0  0  0  0  0  0  0  0  0
    7.1956    4.0693   22.5378 F   0  0  0  0  0  0  0  0  0  0  0  0
    6.2764    2.1942   21.4623 C   0  0  0  0  0  0  0  0  0  0  0  0
    5.2374    1.3161   21.2396 C   0  0  0  0  0  0  0  0  0  0  0  0
    5.7519    4.2060   17.5062 C   0  0  0  0  0  0  0  0  0  0  0  0
    3.6420    7.8168   19.4724 N   0  0  0  0  0  0  0  0  0  0  0  0
    4.4004    6.9405   20.3683 C   0  0  0  0  0  0  0  0  0  0  0  0
    3.8072    5.5836   20.4917 C   0  0  0  0  0  0  0  0  0  0  0  0
    4.2464    4.5777   19.4949 C   0  0  0  0  0  0  0  0  0  0  0  0
    5.2678    5.1312   18.5605 C   0  0  0  0  0  0  0  0  0  0  0  0
    6.3738    5.7154   19.4071 C   0  0  0  0  0  0  0  0  0  0  0  0
    5.8666    6.9616   20.0575 C   0  0  0  0  0  0  0  0  0  0  0  0
    4.3007    8.4306   18.9239 H   0  0  0  0  0  0  0  0  0  0  0  0
    2.9302    8.3783   19.9866 H   0  0  0  0  0  0  0  0  0  0  0  0
 35 36  1  0  0  0
 36 37  1  0  0  0
 37 38  1  0  0  0
 38 39  1  0  0  0
 39 34  1  0  0  0
 34  1  1  0  0  0
  1  2  1  0  0  0
  2  3  2  0  0  0
  3 10  1  0  0  0
 10 11  2  0  0  0
 11 12  1  0  0  0
 12 13  2  0  0  0
 13 14  1  0  0  0
 14 15  2  0  0  0
 13 16  1  0  0  0
 16 17  1  0  0  0
 17 18  1  0  0  0
 18 19  1  0  0  0
 19 20  1  0  0  0
 20 21  1  0  0  0
  3  4  1  0  0  0
  4  5  2  0  0  0
  5  6  1  0  0  0
  6  7  2  0  0  0
  7 22  1  0  0  0
 22 24  1  0  0  0
 24 25  1  0  0  0
 25 26  1  0  0  0
 26 27  1  0  0  0
 27 28  2  0  0  0
 28 29  1  0  0  0
 29 30  2  0  0  0
 30 31  1  0  0  0
 30 32  1  0  0  0
 32 33  2  0  0  0
  7  8  1  0  0  0
  8  9  2  0  0  0
 39 40  1  0  0  0
 40 41  1  0  0  0
 41 36  1  0  0  0
  9  1  1  0  0  0
 15 10  1  0  0  0
 21 16  1  0  0  0
  9  4  1  0  0  0
 33 27  1  0  0  0
 35 42  1  0  0  0
 35 43  1  0  0  0
 22 23  1  0  0  0
M  END
> <minimizedAffinity>
-8.80250

> <CNNscore>
0.7255166769

> <CNNaffinity>
7.5444283485

> <CNN_VS>
5.4736084938

> <CNNaffinity_variance>
0.0835331082

$$$$
[H]c1c([H])c(C([H])([H])C([H])([H])C([H])([H])N([H])c2nc([H])c3c(-c4c([H])c([H])c(N5C([H])([H])C([H])([H])OC([H])([H])C5([H])[H])c([H])c4[H])nn(C([H])([H])C4([H])C([H])([H])C([H])([H])C([H])(N([H])[H])C([H])([H])C4([H])[H])c3n2)c([H])c([H])c1F


 43 48  0  0  0  0  0  0  0  0999 V2000
    4.1937    2.0191   18.7159 N   0  0  0  0  0  0  0  0  0  0  0  0
    3.9899    1.7367   17.4540 N   0  0  0  0  0  0  0  0  0  0  0  0
    3.6357    2.8259   16.7474 C   0  0  0  0  0  0  0  0  0  0  0  0
    3.6166    3.8628   17.6281 C   0  0  0  0  0  0  0  0  0  0  0  0
    3.3271    5.2001   17.4577 C   0  0  0  0  0  0  0  0  0  0  0  0
    3.3957    6.0029   18.5367 N   0  0  0  0  0  0  0  0  0  0  0  0
    3.7393    5.5109   19.7545 C   0  0  0  0  0  0  0  0  0  0  0  0
    4.0171    4.2034   19.8947 N   0  0  0  0  0  0  0  0  0  0  0  0
    3.9695    3.3321   18.8543 C   0  0  0  0  0  0  0  0  0  0  0  0
    3.3457    2.8531   15.3370 C   0  0  0  0  0  0  0  0  0  0  0  0
    3.9110    3.7892   14.5168 C   0  0  0  0  0  0  0  0  0  0  0  0
    3.6386    3.8224   13.1412 C   0  0  0  0  0  0  0  0  0  0  0  0
    2.7855    2.8978   12.5973 C   0  0  0  0  0  0  0  0  0  0  0  0
    2.1973    1.9288   13.4325 C   0  0  0  0  0  0  0  0  0  0  0  0
    2.4905    1.9248   14.7961 C   0  0  0  0  0  0  0  0  0  0  0  0
    2.4664    2.8827   11.2300 N   0  0  0  0  0  0  0  0  0  0  0  0
    2.0056    4.0846   10.5308 C   0  0  0  0  0  0  0  0  0  0  0  0
    1.2815    3.5842    9.2878 C   0  0  0  0  0  0  0  0  0  0  0  0
    0.4561    2.5228    9.7099 O   0  0  0  0  0  0  0  0  0  0  0  0
    1.2076    1.3391    9.8577 C   0  0  0  0  0  0  0  0  0  0  0  0
    2.5769    1.6976   10.4293 C   0  0  0  0  0  0  0  0  0  0  0  0
    3.7898    6.4211   20.8451 N   0  0  0  0  0  0  0  0  0  0  0  0
    2.9851    6.4621   21.5117 H   0  0  0  0  0  0  0  0  0  0  0  0
    4.9128    7.2888   21.0645 C   0  0  0  0  0  0  0  0  0  0  0  0
    6.1998    6.7018   20.5706 C   0  0  0  0  0  0  0  0  0  0  0  0
    7.3208    7.6905   20.7951 C   0  0  0  0  0  0  0  0  0  0  0  0
    8.5018    6.9269   21.2733 C   0  0  0  0  0  0  0  0  0  0  0  0
    9.6681    6.9216   20.5374 C   0  0  0  0  0  0  0  0  0  0  0  0
   10.7839    6.2254   20.9477 C   0  0  0  0  0  0  0  0  0  0  0  0
   10.7458    5.5182   22.1124 C   0  0  0  0  0  0  0  0  0  0  0  0
   11.8113    4.8187   22.5603 F   0  0  0  0  0  0  0  0  0  0  0  0
    9.5875    5.5142   22.8583 C   0  0  0  0  0  0  0  0  0  0  0  0
    8.4727    6.2118   22.4452 C   0  0  0  0  0  0  0  0  0  0  0  0
    4.5775    1.1181   19.7524 C   0  0  0  0  0  0  0  0  0  0  0  0
    4.8355    4.2805   23.1122 N   0  0  0  0  0  0  0  0  0  0  0  0
    5.4031    2.9642   23.4138 C   0  0  0  0  0  0  0  0  0  0  0  0
    4.3761    1.8927   23.4878 C   0  0  0  0  0  0  0  0  0  0  0  0
    4.0396    1.2115   22.2145 C   0  0  0  0  0  0  0  0  0  0  0  0
    4.8599    1.7210   21.0786 C   0  0  0  0  0  0  0  0  0  0  0  0
    6.3081    1.6164   21.4947 C   0  0  0  0  0  0  0  0  0  0  0  0
    6.5787    2.6513   22.5382 C   0  0  0  0  0  0  0  0  0  0  0  0
    5.4859    4.8187   22.4808 H   0  0  0  0  0  0  0  0  0  0  0  0
    4.6089    4.8151   23.9778 H   0  0  0  0  0  0  0  0  0  0  0  0
 35 36  1  0  0  0
 36 37  1  0  0  0
 37 38  1  0  0  0
 38 39  1  0  0  0
 39 34  1  0  0  0
 34  1  1  0  0  0
  1  2  1  0  0  0
  2  3  2  0  0  0
  3 10  1  0  0  0
 10 11  2  0  0  0
 11 12  1  0  0  0
 12 13  2  0  0  0
 13 14  1  0  0  0
 14 15  2  0  0  0
 13 16  1  0  0  0
 16 17  1  0  0  0
 17 18  1  0  0  0
 18 19  1  0  0  0
 19 20  1  0  0  0
 20 21  1  0  0  0
  3  4  1  0  0  0
  4  5  2  0  0  0
  5  6  1  0  0  0
  6  7  2  0  0  0
  7 22  1  0  0  0
 22 24  1  0  0  0
 24 25  1  0  0  0
 25 26  1  0  0  0
 26 27  1  0  0  0
 27 28  2  0  0  0
 28 29  1  0  0  0
 29 30  2  0  0  0
 30 31  1  0  0  0
 30 32  1  0  0  0
 32 33  2  0  0  0
  7  8  1  0  0  0
  8  9  2  0  0  0
 39 40  1  0  0  0
 40 41  1  0  0  0
 41 36  1  0  0  0
  9  1  1  0  0  0
 15 10  1  0  0  0
 21 16  1  0  0  0
  9  4  1  0  0  0
 33 27  1  0  0  0
 35 42  1  0  0  0
 35 43  1  0  0  0
 22 23  1  0  0  0
M  END
> <minimizedAffinity>
-9.93622

> <CNNscore>
0.4516578317

> <CNNaffinity>
7.5834555626

> <CNN_VS>
3.4251270294

> <CNNaffinity_variance>
0.2706774175

$$$$
[H]c1c([H])c(C([H])([H])C([H])([H])C([H])([H])N([H])c2nc([H])c3c(-c4c([H])c([H])c(N5C([H])([H])C([H])([H])OC([H])([H])C5([H])[H])c([H])c4[H])nn(C([H])([H])C4([H])C([H])([H])C([H])([H])C([H])(N([H])[H])C([H])([H])C4([H])[H])c3n2)c([H])c([H])c1F


 43 48  0  0  0  0  0  0  0  0999 V2000
    4.9576    4.3921   17.7718 N   0  0  0  0  0  0  0  0  0  0  0  0
    4.6391    4.4840   16.5054 N   0  0  0  0  0  0  0  0  0  0  0  0
    4.0147    3.3767   16.0638 C   0  0  0  0  0  0  0  0  0  0  0  0
    3.9364    2.5325   17.1280 C   0  0  0  0  0  0  0  0  0  0  0  0
    3.3996    1.2686   17.2530 C   0  0  0  0  0  0  0  0  0  0  0  0
    3.4695    0.6699   18.4573 N   0  0  0  0  0  0  0  0  0  0  0  0
    4.0503    1.2913   19.5153 C   0  0  0  0  0  0  0  0  0  0  0  0
    4.5663    2.5235   19.3679 N   0  0  0  0  0  0  0  0  0  0  0  0
    4.5339    3.1911   18.1858 C   0  0  0  0  0  0  0  0  0  0  0  0
    3.5335    3.1630   14.7234 C   0  0  0  0  0  0  0  0  0  0  0  0
    3.9027    3.9898   13.6994 C   0  0  0  0  0  0  0  0  0  0  0  0
    3.4431    3.7886   12.3894 C   0  0  0  0  0  0  0  0  0  0  0  0
    2.6025    2.7400   12.1203 C   0  0  0  0  0  0  0  0  0  0  0  0
    2.2155    1.8817   13.1672 C   0  0  0  0  0  0  0  0  0  0  0  0
    2.6916    2.1111   14.4580 C   0  0  0  0  0  0  0  0  0  0  0  0
    2.1018    2.4897   10.8326 N   0  0  0  0  0  0  0  0  0  0  0  0
    1.5071    3.5499   10.0152 C   0  0  0  0  0  0  0  0  0  0  0  0
    0.6401    2.8369    8.9858 C   0  0  0  0  0  0  0  0  0  0  0  0
   -0.0813    1.8515    9.6889 O   0  0  0  0  0  0  0  0  0  0  0  0
    0.7259    0.7198    9.9244 C   0  0  0  0  0  0  0  0  0  0  0  0
    2.1460    1.1878   10.2317 C   0  0  0  0  0  0  0  0  0  0  0  0
    4.0855    0.5945   20.7537 N   0  0  0  0  0  0  0  0  0  0  0  0
    4.6687   -0.2696   20.8353 H   0  0  0  0  0  0  0  0  0  0  0  0
    3.3457    1.0388   21.9015 C   0  0  0  0  0  0  0  0  0  0  0  0
    4.2069    1.7439   22.9046 C   0  0  0  0  0  0  0  0  0  0  0  0
    3.7179    3.1639   23.0755 C   0  0  0  0  0  0  0  0  0  0  0  0
    4.8340    4.0696   22.7004 C   0  0  0  0  0  0  0  0  0  0  0  0
    6.0966    3.5598   22.4815 C   0  0  0  0  0  0  0  0  0  0  0  0
    7.1567    4.3676   22.1327 C   0  0  0  0  0  0  0  0  0  0  0  0
    6.9642    5.7103   21.9972 C   0  0  0  0  0  0  0  0  0  0  0  0
    7.9690    6.5467   21.6571 F   0  0  0  0  0  0  0  0  0  0  0  0
    5.7083    6.2340   22.2128 C   0  0  0  0  0  0  0  0  0  0  0  0
    4.6495    5.4232   22.5616 C   0  0  0  0  0  0  0  0  0  0  0  0
    5.6255    5.3683   18.5684 C   0  0  0  0  0  0  0  0  0  0  0  0
    3.7516    9.1238   16.6344 N   0  0  0  0  0  0  0  0  0  0  0  0
    4.3870    9.3139   17.9405 C   0  0  0  0  0  0  0  0  0  0  0  0
    3.6715    8.6168   19.0407 C   0  0  0  0  0  0  0  0  0  0  0  0
    4.0668    7.2112   19.2992 C   0  0  0  0  0  0  0  0  0  0  0  0
    5.1757    6.7728   18.4042 C   0  0  0  0  0  0  0  0  0  0  0  0
    6.2879    7.7848   18.5467 C   0  0  0  0  0  0  0  0  0  0  0  0
    5.8623    9.0550   17.8844 C   0  0  0  0  0  0  0  0  0  0  0  0
    4.4867    9.0370   15.8838 H   0  0  0  0  0  0  0  0  0  0  0  0
    3.0686    9.8811   16.4192 H   0  0  0  0  0  0  0  0  0  0  0  0
 35 36  1  0  0  0
 36 37  1  0  0  0
 37 38  1  0  0  0
 38 39  1  0  0  0
 39 34  1  0  0  0
 34  1  1  0  0  0
  1  2  1  0  0  0
  2  3  2  0  0  0
  3 10  1  0  0  0
 10 11  2  0  0  0
 11 12  1  0  0  0
 12 13  2  0  0  0
 13 14  1  0  0  0
 14 15  2  0  0  0
 13 16  1  0  0  0
 16 17  1  0  0  0
 17 18  1  0  0  0
 18 19  1  0  0  0
 19 20  1  0  0  0
 20 21  1  0  0  0
  3  4  1  0  0  0
  4  5  2  0  0  0
  5  6  1  0  0  0
  6  7  2  0  0  0
  7 22  1  0  0  0
 22 24  1  0  0  0
 24 25  1  0  0  0
 25 26  1  0  0  0
 26 27  1  0  0  0
 27 28  2  0  0  0
 28 29  1  0  0  0
 29 30  2  0  0  0
 30 31  1  0  0  0
 30 32  1  0  0  0
 32 33  2  0  0  0
  7  8  1  0  0  0
  8  9  2  0  0  0
 39 40  1  0  0  0
 40 41  1  0  0  0
 41 36  1  0  0  0
  9  1  1  0  0  0
 15 10  1  0  0  0
 21 16  1  0  0  0
  9  4  1  0  0  0
 33 27  1  0  0  0
 35 42  1  0  0  0
 35 43  1  0  0  0
 22 23  1  0  0  0
M  END
> <minimizedAffinity>
-9.35640

> <CNNscore>
0.4512096345

> <CNNaffinity>
7.4782776833

> <CNN_VS>
3.3742709160

> <CNNaffinity_variance>
0.3809240460

$$$$
[H]c1c([H])c(C([H])([H])C([H])([H])C([H])([H])N([H])c2nc([H])c3c(-c4c([H])c([H])c(N5C([H])([H])C([H])([H])OC([H])([H])C5([H])[H])c([H])c4[H])nn(C([H])([H])C4([H])C([H])([H])C([H])([H])C([H])(N([H])[H])C([H])([H])C4([H])[H])c3n2)c([H])c([H])c1F


 43 48  0  0  0  0  0  0  0  0999 V2000
    3.1809    4.9071   17.6663 N   0  0  0  0  0  0  0  0  0  0  0  0
    3.3125    5.7137   16.6437 N   0  0  0  0  0  0  0  0  0  0  0  0
    3.4074    5.0399   15.4827 C   0  0  0  0  0  0  0  0  0  0  0  0
    3.3295    3.7192   15.8003 C   0  0  0  0  0  0  0  0  0  0  0  0
    3.3680    2.5874   15.0137 C   0  0  0  0  0  0  0  0  0  0  0  0
    3.2628    1.3914   15.6237 N   0  0  0  0  0  0  0  0  0  0  0  0
    3.1230    1.3027   16.9712 C   0  0  0  0  0  0  0  0  0  0  0  0
    3.0881    2.4209   17.7160 N   0  0  0  0  0  0  0  0  0  0  0  0
    3.1881    3.6618   17.1737 C   0  0  0  0  0  0  0  0  0  0  0  0
    3.5566    5.6324   14.1786 C   0  0  0  0  0  0  0  0  0  0  0  0
    3.3656    6.9720   13.9846 C   0  0  0  0  0  0  0  0  0  0  0  0
    3.5121    7.5602   12.7196 C   0  0  0  0  0  0  0  0  0  0  0  0
    3.8547    6.7803   11.6457 C   0  0  0  0  0  0  0  0  0  0  0  0
    4.0539    5.3993   11.8337 C   0  0  0  0  0  0  0  0  0  0  0  0
    3.9000    4.8476   13.1055 C   0  0  0  0  0  0  0  0  0  0  0  0
    4.0089    7.3071   10.3533 N   0  0  0  0  0  0  0  0  0  0  0  0
    2.8574    7.6136    9.5013 C   0  0  0  0  0  0  0  0  0  0  0  0
    3.3963    7.6407    8.0771 C   0  0  0  0  0  0  0  0  0  0  0  0
    4.2263    6.5095    7.9454 O   0  0  0  0  0  0  0  0  0  0  0  0
    5.4895    6.7517    8.5230 C   0  0  0  0  0  0  0  0  0  0  0  0
    5.2971    7.5857    9.7870 C   0  0  0  0  0  0  0  0  0  0  0  0
    3.0182    0.0048   17.5411 N   0  0  0  0  0  0  0  0  0  0  0  0
    3.4950   -0.7980   17.0705 H   0  0  0  0  0  0  0  0  0  0  0  0
    2.2780   -0.2425   18.7466 C   0  0  0  0  0  0  0  0  0  0  0  0
    3.1660   -0.4848   19.9288 C   0  0  0  0  0  0  0  0  0  0  0  0
    2.6847    0.3457   21.0963 C   0  0  0  0  0  0  0  0  0  0  0  0
    3.8087    1.2216   21.5159 C   0  0  0  0  0  0  0  0  0  0  0  0
    3.7625    1.8748   22.7296 C   0  0  0  0  0  0  0  0  0  0  0  0
    4.7848    2.6954   23.1533 C   0  0  0  0  0  0  0  0  0  0  0  0
    5.8779    2.8744   22.3587 C   0  0  0  0  0  0  0  0  0  0  0  0
    6.9077    3.6678   22.7262 F   0  0  0  0  0  0  0  0  0  0  0  0
    5.9381    2.2283   21.1434 C   0  0  0  0  0  0  0  0  0  0  0  0
    4.9137    1.4078   20.7223 C   0  0  0  0  0  0  0  0  0  0  0  0
    3.0551    5.2667   19.0406 C   0  0  0  0  0  0  0  0  0  0  0  0
    6.0804    8.5037   20.3538 N   0  0  0  0  0  0  0  0  0  0  0  0
    6.4189    7.1205   20.6970 C   0  0  0  0  0  0  0  0  0  0  0  0
    5.4934    6.5279   21.6973 C   0  0  0  0  0  0  0  0  0  0  0  0
    4.2793    5.8656   21.1625 C   0  0  0  0  0  0  0  0  0  0  0  0
    4.2477    5.8839   19.6720 C   0  0  0  0  0  0  0  0  0  0  0  0
    5.5560    5.3006   19.1930 C   0  0  0  0  0  0  0  0  0  0  0  0
    6.6459    6.2835   19.4745 C   0  0  0  0  0  0  0  0  0  0  0  0
    6.2579    8.6758   19.3290 H   0  0  0  0  0  0  0  0  0  0  0  0
    6.5874    9.1894   20.9531 H   0  0  0  0  0  0  0  0  0  0  0  0
 35 36  1  0  0  0
 36 37  1  0  0  0
 37 38  1  0  0  0
 38 39  1  0  0  0
 39 34  1  0  0  0
 34  1  1  0  0  0
  1  2  1  0  0  0
  2  3  2  0  0  0
  3 10  1  0  0  0
 10 11  2  0  0  0
 11 12  1  0  0  0
 12 13  2  0  0  0
 13 14  1  0  0  0
 14 15  2  0  0  0
 13 16  1  0  0  0
 16 17  1  0  0  0
 17 18  1  0  0  0
 18 19  1  0  0  0
 19 20  1  0  0  0
 20 21  1  0  0  0
  3  4  1  0  0  0
  4  5  2  0  0  0
  5  6  1  0  0  0
  6  7  2  0  0  0
  7 22  1  0  0  0
 22 24  1  0  0  0
 24 25  1  0  0  0
 25 26  1  0  0  0
 26 27  1  0  0  0
 27 28  2  0  0  0
 28 29  1  0  0  0
 29 30  2  0  0  0
 30 31  1  0  0  0
 30 32  1  0  0  0
 32 33  2  0  0  0
  7  8  1  0  0  0
  8  9  2  0  0  0
 39 40  1  0  0  0
 40 41  1  0  0  0
 41 36  1  0  0  0
  9  1  1  0  0  0
 15 10  1  0  0  0
 21 16  1  0  0  0
  9  4  1  0  0  0
 33 27  1  0  0  0
 35 42  1  0  0  0
 35 43  1  0  0  0
 22 23  1  0  0  0
M  END
> <minimizedAffinity>
-8.59792

> <CNNscore>
0.2925889790

> <CNNaffinity>
7.1090941429

> <CNN_VS>
2.0800426006

> <CNNaffinity_variance>
0.2149591893

$$$$
[H]c1c([H])c(C([H])([H])C([H])([H])C([H])([H])N([H])c2nc([H])c3c(-c4c([H])c([H])c(N5C([H])([H])C([H])([H])OC([H])([H])C5([H])[H])c([H])c4[H])nn(C([H])([H])C4([H])C([H])([H])C([H])([H])C([H])(N([H])[H])C([H])([H])C4([H])[H])c3n2)c([H])c([H])c1F


 43 48  0  0  0  0  0  0  0  0999 V2000
    4.0693    2.5480   18.6852 N   0  0  0  0  0  0  0  0  0  0  0  0
    3.8110    2.5852   17.4024 N   0  0  0  0  0  0  0  0  0  0  0  0
    3.5075    3.8291   16.9881 C   0  0  0  0  0  0  0  0  0  0  0  0
    3.5811    4.6265   18.0881 C   0  0  0  0  0  0  0  0  0  0  0  0
    3.3737    5.9801   18.2498 C   0  0  0  0  0  0  0  0  0  0  0  0
    3.5254    6.4985   19.4835 N   0  0  0  0  0  0  0  0  0  0  0  0
    3.8718    5.7129   20.5351 C   0  0  0  0  0  0  0  0  0  0  0  0
    4.0686    4.3961   20.3515 N   0  0  0  0  0  0  0  0  0  0  0  0
    3.9345    3.8010   19.1383 C   0  0  0  0  0  0  0  0  0  0  0  0
    3.1789    4.2067   15.6378 C   0  0  0  0  0  0  0  0  0  0  0  0
    2.0515    4.9279   15.3597 C   0  0  0  0  0  0  0  0  0  0  0  0
    1.7239    5.3044   14.0487 C   0  0  0  0  0  0  0  0  0  0  0  0
    2.5485    4.9444   13.0147 C   0  0  0  0  0  0  0  0  0  0  0  0
    3.7126    4.2015   13.2892 C   0  0  0  0  0  0  0  0  0  0  0  0
    4.0078    3.8442   14.6048 C   0  0  0  0  0  0  0  0  0  0  0  0
    2.2724    5.2835   11.6805 N   0  0  0  0  0  0  0  0  0  0  0  0
    1.6215    4.3449   10.7634 C   0  0  0  0  0  0  0  0  0  0  0  0
    1.9689    4.8318    9.3627 C   0  0  0  0  0  0  0  0  0  0  0  0
    3.3459    5.1312    9.3770 O   0  0  0  0  0  0  0  0  0  0  0  0
    3.5731    6.3909    9.9680 C   0  0  0  0  0  0  0  0  0  0  0  0
    2.6007    6.5675   11.1314 C   0  0  0  0  0  0  0  0  0  0  0  0
    4.0127    6.3338   21.8060 N   0  0  0  0  0  0  0  0  0  0  0  0
    3.2651    6.1983   22.5244 H   0  0  0  0  0  0  0  0  0  0  0  0
    5.1515    7.1427   22.1389 C   0  0  0  0  0  0  0  0  0  0  0  0
    6.4508    6.4395   21.8891 C   0  0  0  0  0  0  0  0  0  0  0  0
    7.4240    7.3985   21.2427 C   0  0  0  0  0  0  0  0  0  0  0  0
    7.0155    7.5619   19.8238 C   0  0  0  0  0  0  0  0  0  0  0  0
    7.0588    6.4861   18.9620 C   0  0  0  0  0  0  0  0  0  0  0  0
    6.6885    6.5982   17.6397 C   0  0  0  0  0  0  0  0  0  0  0  0
    6.2657    7.8015   17.1585 C   0  0  0  0  0  0  0  0  0  0  0  0
    5.8914    7.9659   15.8709 F   0  0  0  0  0  0  0  0  0  0  0  0
    6.2172    8.8852   18.0078 C   0  0  0  0  0  0  0  0  0  0  0  0
    6.5883    8.7699   19.3303 C   0  0  0  0  0  0  0  0  0  0  0  0
    4.4242    1.4065   19.4630 C   0  0  0  0  0  0  0  0  0  0  0  0
    4.6426    3.6165   23.5156 N   0  0  0  0  0  0  0  0  0  0  0  0
    5.0336    2.2049   23.5233 C   0  0  0  0  0  0  0  0  0  0  0  0
    3.8987    1.2870   23.2449 C   0  0  0  0  0  0  0  0  0  0  0  0
    3.6338    0.9779   21.8191 C   0  0  0  0  0  0  0  0  0  0  0  0
    4.6216    1.6345   20.9158 C   0  0  0  0  0  0  0  0  0  0  0  0
    5.9970    1.2495   21.4072 C   0  0  0  0  0  0  0  0  0  0  0  0
    6.2586    1.9623   22.6943 C   0  0  0  0  0  0  0  0  0  0  0  0
    5.4104    4.2021   23.0927 H   0  0  0  0  0  0  0  0  0  0  0  0
    4.3800    3.9536   24.4662 H   0  0  0  0  0  0  0  0  0  0  0  0
 35 36  1  0  0  0
 36 37  1  0  0  0
 37 38  1  0  0  0
 38 39  1  0  0  0
 39 34  1  0  0  0
 34  1  1  0  0  0
  1  2  1  0  0  0
  2  3  2  0  0  0
  3 10  1  0  0  0
 10 11  2  0  0  0
 11 12  1  0  0  0
 12 13  2  0  0  0
 13 14  1  0  0  0
 14 15  2  0  0  0
 13 16  1  0  0  0
 16 17  1  0  0  0
 17 18  1  0  0  0
 18 19  1  0  0  0
 19 20  1  0  0  0
 20 21  1  0  0  0
  3  4  1  0  0  0
  4  5  2  0  0  0
  5  6  1  0  0  0
  6  7  2  0  0  0
  7 22  1  0  0  0
 22 24  1  0  0  0
 24 25  1  0  0  0
 25 26  1  0  0  0
 26 27  1  0  0  0
 27 28  2  0  0  0
 28 29  1  0  0  0
 29 30  2  0  0  0
 30 31  1  0  0  0
 30 32  1  0  0  0
 32 33  2  0  0  0
  7  8  1  0  0  0
  8  9  2  0  0  0
 39 40  1  0  0  0
 40 41  1  0  0  0
 41 36  1  0  0  0
  9  1  1  0  0  0
 15 10  1  0  0  0
 21 16  1  0  0  0
  9  4  1  0  0  0
 33 27  1  0  0  0
 35 42  1  0  0  0
 35 43  1  0  0  0
 22 23  1  0  0  0
M  END
> <minimizedAffinity>
-8.98669

> <CNNscore>
0.2748780549

> <CNNaffinity>
7.1818299294

> <CNN_VS>
1.9741274118

> <CNNaffinity_variance>
0.3398290575

$$$$
[H]c1c([H])c(C([H])([H])C([H])([H])C([H])([H])N([H])c2nc([H])c3c(-c4c([H])c([H])c(N5C([H])([H])C([H])([H])OC([H])([H])C5([H])[H])c([H])c4[H])nn(C([H])([H])C4([H])C([H])([H])C([H])([H])C([H])(N([H])[H])C([H])([H])C4([H])[H])c3n2)c([H])c([H])c1F


 43 48  0  0  0  0  0  0  0  0999 V2000
    4.3781    2.0819   18.8213 N   0  0  0  0  0  0  0  0  0  0  0  0
    4.1271    1.8048   17.5668 N   0  0  0  0  0  0  0  0  0  0  0  0
    3.7292    2.8934   16.8829 C   0  0  0  0  0  0  0  0  0  0  0  0
    3.7316    3.9242   17.7709 C   0  0  0  0  0  0  0  0  0  0  0  0
    3.4167    5.2583   17.6218 C   0  0  0  0  0  0  0  0  0  0  0  0
    3.5179    6.0550   18.7029 N   0  0  0  0  0  0  0  0  0  0  0  0
    3.9177    5.5601   19.9021 C   0  0  0  0  0  0  0  0  0  0  0  0
    4.2192    4.2558   20.0217 N   0  0  0  0  0  0  0  0  0  0  0  0
    4.1414    3.3907   18.9779 C   0  0  0  0  0  0  0  0  0  0  0  0
    3.3817    2.9257   15.4857 C   0  0  0  0  0  0  0  0  0  0  0  0
    3.9297    3.8510   14.6419 C   0  0  0  0  0  0  0  0  0  0  0  0
    3.6013    3.8890   13.2787 C   0  0  0  0  0  0  0  0  0  0  0  0
    2.7096    2.9800   12.7714 C   0  0  0  0  0  0  0  0  0  0  0  0
    2.1388    2.0222   13.6311 C   0  0  0  0  0  0  0  0  0  0  0  0
    2.4880    2.0131   14.9815 C   0  0  0  0  0  0  0  0  0  0  0  0
    2.3340    2.9704   11.4185 N   0  0  0  0  0  0  0  0  0  0  0  0
    0.9628    2.6701   10.9994 C   0  0  0  0  0  0  0  0  0  0  0  0
    1.0640    2.2403    9.5417 C   0  0  0  0  0  0  0  0  0  0  0  0
    2.1511    1.3467    9.4662 O   0  0  0  0  0  0  0  0  0  0  0  0
    3.3714    2.0522    9.4358 C   0  0  0  0  0  0  0  0  0  0  0  0
    3.2608    3.2601   10.3627 C   0  0  0  0  0  0  0  0  0  0  0  0
    3.9998    6.4638   20.9962 N   0  0  0  0  0  0  0  0  0  0  0  0
    3.1675    6.5890   21.6167 H   0  0  0  0  0  0  0  0  0  0  0  0
    5.1915    7.2129   21.2804 C   0  0  0  0  0  0  0  0  0  0  0  0
    4.9055    8.6438   21.6204 C   0  0  0  0  0  0  0  0  0  0  0  0
    5.6766    9.5456   20.6840 C   0  0  0  0  0  0  0  0  0  0  0  0
    4.6866   10.3055   19.8783 C   0  0  0  0  0  0  0  0  0  0  0  0
    4.7349   11.6832   19.8406 C   0  0  0  0  0  0  0  0  0  0  0  0
    3.8344   12.4228   19.1056 C   0  0  0  0  0  0  0  0  0  0  0  0
    2.8637   11.7855   18.3914 C   0  0  0  0  0  0  0  0  0  0  0  0
    1.9563   12.4625   17.6544 F   0  0  0  0  0  0  0  0  0  0  0  0
    2.8031   10.4094   18.4195 C   0  0  0  0  0  0  0  0  0  0  0  0
    3.7055    9.6723   19.1558 C   0  0  0  0  0  0  0  0  0  0  0  0
    4.8164    1.1797   19.8350 C   0  0  0  0  0  0  0  0  0  0  0  0
    4.4446    4.1607   23.3466 N   0  0  0  0  0  0  0  0  0  0  0  0
    4.9621    2.8304   23.6756 C   0  0  0  0  0  0  0  0  0  0  0  0
    3.9484    1.7564   23.5103 C   0  0  0  0  0  0  0  0  0  0  0  0
    3.8495    1.1433   22.1639 C   0  0  0  0  0  0  0  0  0  0  0  0
    4.8534    1.7119   21.2197 C   0  0  0  0  0  0  0  0  0  0  0  0
    6.2058    1.5856   21.8805 C   0  0  0  0  0  0  0  0  0  0  0  0
    6.2772    2.5641   23.0076 C   0  0  0  0  0  0  0  0  0  0  0  0
    5.1916    4.7314   22.8695 H   0  0  0  0  0  0  0  0  0  0  0  0
    4.0631    4.6489   24.1848 H   0  0  0  0  0  0  0  0  0  0  0  0
 35 36  1  0  0  0
 36 37  1  0  0  0
 37 38  1  0  0  0
 38 39  1  0  0  0
 39 34  1  0  0  0
 34  1  1  0  0  0
  1  2  1  0  0  0
  2  3  2  0  0  0
  3 10  1  0  0  0
 10 11  2  0  0  0
 11 12  1  0  0  0
 12 13  2  0  0  0
 13 14  1  0  0  0
 14 15  2  0  0  0
 13 16  1  0  0  0
 16 17  1  0  0  0
 17 18  1  0  0  0
 18 19  1  0  0  0
 19 20  1  0  0  0
 20 21  1  0  0  0
  3  4  1  0  0  0
  4  5  2  0  0  0
  5  6  1  0  0  0
  6  7  2  0  0  0
  7 22  1  0  0  0
 22 24  1  0  0  0
 24 25  1  0  0  0
 25 26  1  0  0  0
 26 27  1  0  0  0
 27 28  2  0  0  0
 28 29  1  0  0  0
 29 30  2  0  0  0
 30 31  1  0  0  0
 30 32  1  0  0  0
 32 33  2  0  0  0
  7  8  1  0  0  0
  8  9  2  0  0  0
 39 40  1  0  0  0
 40 41  1  0  0  0
 41 36  1  0  0  0
  9  1  1  0  0  0
 15 10  1  0  0  0
 21 16  1  0  0  0
  9  4  1  0  0  0
 33 27  1  0  0  0
 35 42  1  0  0  0
 35 43  1  0  0  0
 22 23  1  0  0  0
M  END
> <minimizedAffinity>
-10.61018

> <CNNscore>
0.2506633401

> <CNNaffinity>
7.2075548172

> <CNN_VS>
1.8066697121

> <CNNaffinity_variance>
0.3977162242

$$$$
[H]c1c([H])c(C([H])([H])C([H])([H])C([H])([H])N([H])c2nc([H])c3c(-c4c([H])c([H])c(N5C([H])([H])C([H])([H])OC([H])([H])C5([H])[H])c([H])c4[H])nn(C([H])([H])C4([H])C([H])([H])C([H])([H])C([H])(N([H])[H])C([H])([H])C4([H])[H])c3n2)c([H])c([H])c1F


 43 48  0  0  0  0  0  0  0  0999 V2000
    3.5345    5.5832   18.1933 N   0  0  0  0  0  0  0  0  0  0  0  0
    3.2039    6.0452   17.0140 N   0  0  0  0  0  0  0  0  0  0  0  0
    3.0960    5.0611   16.1023 C   0  0  0  0  0  0  0  0  0  0  0  0
    3.3784    3.9020   16.7565 C   0  0  0  0  0  0  0  0  0  0  0  0
    3.4164    2.5942   16.3214 C   0  0  0  0  0  0  0  0  0  0  0  0
    3.7318    1.6400   17.2179 N   0  0  0  0  0  0  0  0  0  0  0  0
    4.0037    1.9559   18.5099 C   0  0  0  0  0  0  0  0  0  0  0  0
    3.9598    3.2384   18.9095 N   0  0  0  0  0  0  0  0  0  0  0  0
    3.6499    4.2552   18.0646 C   0  0  0  0  0  0  0  0  0  0  0  0
    2.7443    5.2360   14.7168 C   0  0  0  0  0  0  0  0  0  0  0  0
    3.5812    4.8244   13.7175 C   0  0  0  0  0  0  0  0  0  0  0  0
    3.2470    4.9863   12.3648 C   0  0  0  0  0  0  0  0  0  0  0  0
    2.0540    5.5707   12.0273 C   0  0  0  0  0  0  0  0  0  0  0  0
    1.1839    5.9985   13.0482 C   0  0  0  0  0  0  0  0  0  0  0  0
    1.5480    5.8219   14.3830 C   0  0  0  0  0  0  0  0  0  0  0  0
    1.6650    5.7682   10.6927 N   0  0  0  0  0  0  0  0  0  0  0  0
    2.2211    6.8510    9.8778 C   0  0  0  0  0  0  0  0  0  0  0  0
    1.2221    7.0701    8.7492 C   0  0  0  0  0  0  0  0  0  0  0  0
   -0.0549    7.0750    9.3452 O   0  0  0  0  0  0  0  0  0  0  0  0
   -0.4903    5.7575    9.5950 C   0  0  0  0  0  0  0  0  0  0  0  0
    0.7079    4.9227   10.0393 C   0  0  0  0  0  0  0  0  0  0  0  0
    4.3284    0.8931   19.3962 N   0  0  0  0  0  0  0  0  0  0  0  0
    5.2545    0.4168   19.3022 H   0  0  0  0  0  0  0  0  0  0  0  0
    3.4252    0.4501   20.4209 C   0  0  0  0  0  0  0  0  0  0  0  0
    4.0472    0.4669   21.7840 C   0  0  0  0  0  0  0  0  0  0  0  0
    3.4230    1.5707   22.6066 C   0  0  0  0  0  0  0  0  0  0  0  0
    4.3318    2.7441   22.5439 C   0  0  0  0  0  0  0  0  0  0  0  0
    3.8426    4.0126   22.7749 C   0  0  0  0  0  0  0  0  0  0  0  0
    4.6538    5.1251   22.7254 C   0  0  0  0  0  0  0  0  0  0  0  0
    5.9791    4.9801   22.4410 C   0  0  0  0  0  0  0  0  0  0  0  0
    6.8180    6.0372   22.3802 F   0  0  0  0  0  0  0  0  0  0  0  0
    6.4820    3.7188   22.2080 C   0  0  0  0  0  0  0  0  0  0  0  0
    5.6679    2.6076   22.2583 C   0  0  0  0  0  0  0  0  0  0  0  0
    3.7375    6.3325   19.3896 C   0  0  0  0  0  0  0  0  0  0  0  0
    6.3586    9.9294   18.1456 N   0  0  0  0  0  0  0  0  0  0  0  0
    6.8989    9.0645   19.1971 C   0  0  0  0  0  0  0  0  0  0  0  0
    6.1150    9.1253   20.4581 C   0  0  0  0  0  0  0  0  0  0  0  0
    4.9762    8.1827   20.5738 C   0  0  0  0  0  0  0  0  0  0  0  0
    4.8660    7.2959   19.3803 C   0  0  0  0  0  0  0  0  0  0  0  0
    6.2150    6.6456   19.1842 C   0  0  0  0  0  0  0  0  0  0  0  0
    7.1744    7.6804   18.6922 C   0  0  0  0  0  0  0  0  0  0  0  0
    6.4583    9.4618   17.2061 H   0  0  0  0  0  0  0  0  0  0  0  0
    6.7979   10.8746   18.1542 H   0  0  0  0  0  0  0  0  0  0  0  0
 35 36  1  0  0  0
 36 37  1  0  0  0
 37 38  1  0  0  0
 38 39  1  0  0  0
 39 34  1  0  0  0
 34  1  1  0  0  0
  1  2  1  0  0  0
  2  3  2  0  0  0
  3 10  1  0  0  0
 10 11  2  0  0  0
 11 12  1  0  0  0
 12 13  2  0  0  0
 13 14  1  0  0  0
 14 15  2  0  0  0
 13 16  1  0  0  0
 16 17  1  0  0  0
 17 18  1  0  0  0
 18 19  1  0  0  0
 19 20  1  0  0  0
 20 21  1  0  0  0
  3  4  1  0  0  0
  4  5  2  0  0  0
  5  6  1  0  0  0
  6  7  2  0  0  0
  7 22  1  0  0  0
 22 24  1  0  0  0
 24 25  1  0  0  0
 25 26  1  0  0  0
 26 27  1  0  0  0
 27 28  2  0  0  0
 28 29  1  0  0  0
 29 30  2  0  0  0
 30 31  1  0  0  0
 30 32  1  0  0  0
 32 33  2  0  0  0
  7  8  1  0  0  0
  8  9  2  0  0  0
 39 40  1  0  0  0
 40 41  1  0  0  0
 41 36  1  0  0  0
  9  1  1  0  0  0
 15 10  1  0  0  0
 21 16  1  0  0  0
  9  4  1  0  0  0
 33 27  1  0  0  0
 35 42  1  0  0  0
 35 43  1  0  0  0
 22 23  1  0  0  0
M  END
> <minimizedAffinity>
-8.51864

> <CNNscore>
0.2488243878

> <CNNaffinity>
7.0104169846

> <CNN_VS>
1.7443627119

> <CNNaffinity_variance>
0.4497351646

$$$$
[H]O[C@]1([H])C([H])([H])C([H])([H])[C@@]([H])(N([H])c2nc(N([H])C([H])([H])C([H])([H])C([H])([H])C([H])([H])[H])nc([H])c2C(=O)N([H])C([H])([H])c2c([H])nc(-c3c([H])c([H])c([H])c([H])c3OC([H])([H])[H])c([H])c2[H])C([H])([H])C1([H])[H]


 41 44  0  0  0  0  0  0  0  0999 V2000
    3.6995    1.0475   21.7458 C   0  0  0  0  0  0  0  0  0  0  0  0
    2.9609    0.0069   21.3152 N   0  0  0  0  0  0  0  0  0  0  0  0
    2.7104   -0.1648   20.0103 C   0  0  0  0  0  0  0  0  0  0  0  0
    3.2317    0.7597   19.0966 C   0  0  0  0  0  0  0  0  0  0  0  0
    3.9768    1.8054   19.5592 C   0  0  0  0  0  0  0  0  0  0  0  0
    4.2010    1.9329   20.8977 N   0  0  0  0  0  0  0  0  0  0  0  0
    2.9324    0.4936   17.6916 C   0  0  0  0  0  0  0  0  0  0  0  0
    2.9127   -0.6454   17.1579 O   0  0  0  0  0  0  0  0  0  0  0  0
    2.6262    1.5626   16.7860 N   0  0  0  0  0  0  0  0  0  0  0  0
    2.5902    2.5585   17.0038 H   0  0  0  0  0  0  0  0  0  0  0  0
    2.3331    1.2069   15.4016 C   0  0  0  0  0  0  0  0  0  0  0  0
    2.8518    2.2001   14.4585 C   0  0  0  0  0  0  0  0  0  0  0  0
    2.5426    2.0997   13.1266 C   0  0  0  0  0  0  0  0  0  0  0  0
    3.0351    3.0393   12.2200 C   0  0  0  0  0  0  0  0  0  0  0  0
    3.8313    4.0697   12.6488 C   0  0  0  0  0  0  0  0  0  0  0  0
    4.1088    4.1277   13.9703 N   0  0  0  0  0  0  0  0  0  0  0  0
    3.6529    3.2440   14.8648 C   0  0  0  0  0  0  0  0  0  0  0  0
    4.3573    5.0505   11.7181 C   0  0  0  0  0  0  0  0  0  0  0  0
    5.5253    4.8271   11.0435 C   0  0  0  0  0  0  0  0  0  0  0  0
    6.0432    5.7746   10.1442 C   0  0  0  0  0  0  0  0  0  0  0  0
    5.3684    6.9492    9.9344 C   0  0  0  0  0  0  0  0  0  0  0  0
    4.1861    7.1657   10.6229 C   0  0  0  0  0  0  0  0  0  0  0  0
    3.6684    6.2470   11.5055 C   0  0  0  0  0  0  0  0  0  0  0  0
    2.4891    6.4320   12.2089 O   0  0  0  0  0  0  0  0  0  0  0  0
    2.2376    7.4576   13.1154 C   0  0  0  0  0  0  0  0  0  0  0  0
    3.8997    1.1369   23.1592 N   0  0  0  0  0  0  0  0  0  0  0  0
    3.4952    0.3935   23.8040 H   0  0  0  0  0  0  0  0  0  0  0  0
    4.6373    2.2254   23.7079 C   0  0  0  0  0  0  0  0  0  0  0  0
    4.0083    3.5689   23.6114 C   0  0  0  0  0  0  0  0  0  0  0  0
    4.0513    5.6120   22.1187 C   0  0  0  0  0  0  0  0  0  0  0  0
    4.8093    4.6217   22.9312 C   0  0  0  0  0  0  0  0  0  0  0  0
    4.5206    2.7692   18.6826 N   0  0  0  0  0  0  0  0  0  0  0  0
    5.0360    2.5252   17.8433 H   0  0  0  0  0  0  0  0  0  0  0  0
    4.3670    4.2028   18.9358 C   0  0  0  0  0  0  0  0  0  0  0  0
    5.6576    4.9361   18.7561 C   0  0  0  0  0  0  0  0  0  0  0  0
    5.9140    5.2901   17.3024 C   0  0  0  0  0  0  0  0  0  0  0  0
    4.8348    6.2440   16.8042 C   0  0  0  0  0  0  0  0  0  0  0  0
    5.3578    7.4831   16.5381 O   0  0  0  0  0  0  0  0  0  0  0  0
    3.6846    6.2684   17.8030 C   0  0  0  0  0  0  0  0  0  0  0  0
    3.2968    4.8365   18.0993 C   0  0  0  0  0  0  0  0  0  0  0  0
    6.2526    7.5981   16.8946 H   0  0  0  0  0  0  0  0  0  0  0  0
 30 31  1  0  0  0
 31 29  1  0  0  0
 29 28  1  0  0  0
 28 26  1  0  0  0
 26  1  1  0  0  0
  1  2  2  0  0  0
  2  3  1  0  0  0
  3  4  2  0  0  0
  4  7  1  0  0  0
  7  8  2  0  0  0
  7  9  1  0  0  0
  9 11  1  0  0  0
 11 12  1  0  0  0
 12 13  2  0  0  0
 13 14  1  0  0  0
 14 15  2  0  0  0
 15 16  1  0  0  0
 16 17  2  0  0  0
 15 18  1  0  0  0
 18 19  2  0  0  0
 19 20  1  0  0  0
 20 21  2  0  0  0
 21 22  1  0  0  0
 22 23  2  0  0  0
 23 24  1  0  0  0
 24 25  1  0  0  0
  4  5  1  0  0  0
  5 32  1  0  0  0
 32 34  1  0  0  0
 34 35  1  0  0  0
 35 36  1  0  0  0
 36 37  1  0  0  0
 37 38  1  0  0  0
 37 39  1  0  0  0
 39 40  1  0  0  0
  5  6  2  0  0  0
  6  1  1  0  0  0
 17 12  1  0  0  0
 23 18  1  0  0  0
 40 34  1  0  0  0
 26 27  1  0  0  0
  9 10  1  0  0  0
 32 33  1  0  0  0
 38 41  1  0  0  0
M  END
> <minimizedAffinity>
-8.08898

> <CNNscore>
0.6198639274

> <CNNaffinity>
7.0944509506

> <CNN_VS>
4.3975944519

> <CNNaffinity_variance>
0.2717958093

$$$$
[H]O[C@]1([H])C([H])([H])C([H])([H])[C@@]([H])(N([H])c2nc(N([H])C([H])([H])C([H])([H])C([H])([H])C([H])([H])[H])nc([H])c2C(=O)N([H])C([H])([H])c2c([H])nc(-c3c([H])c([H])c([H])c([H])c3OC([H])([H])[H])c([H])c2[H])C([H])([H])C1([H])[H]


 41 44  0  0  0  0  0  0  0  0999 V2000
    4.1777    5.7680   20.5914 C   0  0  0  0  0  0  0  0  0  0  0  0
    3.3723    6.0957   19.5629 N   0  0  0  0  0  0  0  0  0  0  0  0
    3.1967    5.2569   18.5332 C   0  0  0  0  0  0  0  0  0  0  0  0
    3.8672    4.0274   18.5436 C   0  0  0  0  0  0  0  0  0  0  0  0
    4.6776    3.7199   19.5977 C   0  0  0  0  0  0  0  0  0  0  0  0
    4.8210    4.6104   20.6196 N   0  0  0  0  0  0  0  0  0  0  0  0
    3.6092    3.1599   17.3966 C   0  0  0  0  0  0  0  0  0  0  0  0
    3.1956    1.9738   17.4637 O   0  0  0  0  0  0  0  0  0  0  0  0
    3.8193    3.6250   16.0564 N   0  0  0  0  0  0  0  0  0  0  0  0
    4.1532    4.5462   15.7729 H   0  0  0  0  0  0  0  0  0  0  0  0
    3.5305    2.6950   14.9698 C   0  0  0  0  0  0  0  0  0  0  0  0
    2.4655    3.1885   14.0939 C   0  0  0  0  0  0  0  0  0  0  0  0
    2.2139    4.5343   14.0209 C   0  0  0  0  0  0  0  0  0  0  0  0
    1.1989    5.0135   13.1919 C   0  0  0  0  0  0  0  0  0  0  0  0
    0.4438    4.1476   12.4438 C   0  0  0  0  0  0  0  0  0  0  0  0
    0.7285    2.8305   12.5484 N   0  0  0  0  0  0  0  0  0  0  0  0
    1.6939    2.3389   13.3328 C   0  0  0  0  0  0  0  0  0  0  0  0
   -0.6198    4.6291   11.5827 C   0  0  0  0  0  0  0  0  0  0  0  0
   -1.8267    5.0115   12.0990 C   0  0  0  0  0  0  0  0  0  0  0  0
   -2.8630    5.4744   11.2705 C   0  0  0  0  0  0  0  0  0  0  0  0
   -2.6665    5.5464    9.9158 C   0  0  0  0  0  0  0  0  0  0  0  0
   -1.4403    5.1566    9.4029 C   0  0  0  0  0  0  0  0  0  0  0  0
   -0.4180    4.7019   10.2023 C   0  0  0  0  0  0  0  0  0  0  0  0
    0.8196    4.3054    9.7219 O   0  0  0  0  0  0  0  0  0  0  0  0
    1.0379    3.3536    8.7302 C   0  0  0  0  0  0  0  0  0  0  0  0
    4.2965    6.7398   21.6341 N   0  0  0  0  0  0  0  0  0  0  0  0
    3.6339    6.7142   22.4662 H   0  0  0  0  0  0  0  0  0  0  0  0
    5.2997    7.7487   21.5581 C   0  0  0  0  0  0  0  0  0  0  0  0
    4.8391    9.1173   21.2048 C   0  0  0  0  0  0  0  0  0  0  0  0
    3.5026    9.6020   19.1111 C   0  0  0  0  0  0  0  0  0  0  0  0
    4.8360    9.4556   19.7562 C   0  0  0  0  0  0  0  0  0  0  0  0
    5.3816    2.4974   19.6556 N   0  0  0  0  0  0  0  0  0  0  0  0
    6.1511    2.2723   19.0336 H   0  0  0  0  0  0  0  0  0  0  0  0
    5.0388    1.4662   20.6363 C   0  0  0  0  0  0  0  0  0  0  0  0
    6.1021    1.3199   21.6775 C   0  0  0  0  0  0  0  0  0  0  0  0
    5.9491    2.3362   22.7946 C   0  0  0  0  0  0  0  0  0  0  0  0
    4.6325    2.1056   23.5269 C   0  0  0  0  0  0  0  0  0  0  0  0
    4.8518    1.6731   24.8093 O   0  0  0  0  0  0  0  0  0  0  0  0
    3.7583    1.1655   22.7065 C   0  0  0  0  0  0  0  0  0  0  0  0
    3.7096    1.6948   21.2902 C   0  0  0  0  0  0  0  0  0  0  0  0
    5.7698    1.3993   24.9621 H   0  0  0  0  0  0  0  0  0  0  0  0
 30 31  1  0  0  0
 31 29  1  0  0  0
 29 28  1  0  0  0
 28 26  1  0  0  0
 26  1  1  0  0  0
  1  2  2  0  0  0
  2  3  1  0  0  0
  3  4  2  0  0  0
  4  7  1  0  0  0
  7  8  2  0  0  0
  7  9  1  0  0  0
  9 11  1  0  0  0
 11 12  1  0  0  0
 12 13  2  0  0  0
 13 14  1  0  0  0
 14 15  2  0  0  0
 15 16  1  0  0  0
 16 17  2  0  0  0
 15 18  1  0  0  0
 18 19  2  0  0  0
 19 20  1  0  0  0
 20 21  2  0  0  0
 21 22  1  0  0  0
 22 23  2  0  0  0
 23 24  1  0  0  0
 24 25  1  0  0  0
  4  5  1  0  0  0
  5 32  1  0  0  0
 32 34  1  0  0  0
 34 35  1  0  0  0
 35 36  1  0  0  0
 36 37  1  0  0  0
 37 38  1  0  0  0
 37 39  1  0  0  0
 39 40  1  0  0  0
  5  6  2  0  0  0
  6  1  1  0  0  0
 17 12  1  0  0  0
 23 18  1  0  0  0
 40 34  1  0  0  0
 26 27  1  0  0  0
  9 10  1  0  0  0
 32 33  1  0  0  0
 38 41  1  0  0  0
M  END
> <minimizedAffinity>
-8.67936

> <CNNscore>
0.2265811116

> <CNNaffinity>
6.5909500122

> <CNN_VS>
1.4933848381

> <CNNaffinity_variance>
0.4457178712

$$$$
[H]O[C@]1([H])C([H])([H])C([H])([H])[C@@]([H])(N([H])c2nc(N([H])C([H])([H])C([H])([H])C([H])([H])C([H])([H])[H])nc([H])c2C(=O)N([H])C([H])([H])c2c([H])nc(-c3c([H])c([H])c([H])c([H])c3OC([H])([H])[H])c([H])c2[H])C([H])([H])C1([H])[H]


 41 44  0  0  0  0  0  0  0  0999 V2000
    2.8354    2.0779   16.1250 C   0  0  0  0  0  0  0  0  0  0  0  0
    3.0285    3.3732   16.4395 N   0  0  0  0  0  0  0  0  0  0  0  0
    2.5828    4.3490   15.6370 C   0  0  0  0  0  0  0  0  0  0  0  0
    1.9093    3.9989   14.4601 C   0  0  0  0  0  0  0  0  0  0  0  0
    1.7271    2.6790   14.1647 C   0  0  0  0  0  0  0  0  0  0  0  0
    2.2014    1.7263   15.0163 N   0  0  0  0  0  0  0  0  0  0  0  0
    1.4366    5.1181   13.6486 C   0  0  0  0  0  0  0  0  0  0  0  0
    0.2555    5.2719   13.2440 O   0  0  0  0  0  0  0  0  0  0  0  0
    2.3290    6.1643   13.2414 N   0  0  0  0  0  0  0  0  0  0  0  0
    3.3242    6.2376   13.4530 H   0  0  0  0  0  0  0  0  0  0  0  0
    1.7719    7.2473   12.4377 C   0  0  0  0  0  0  0  0  0  0  0  0
    2.5831    7.5218   11.2496 C   0  0  0  0  0  0  0  0  0  0  0  0
    1.9732    7.9091   10.0844 C   0  0  0  0  0  0  0  0  0  0  0  0
    2.7375    8.1695    8.9463 C   0  0  0  0  0  0  0  0  0  0  0  0
    4.1021    8.0411    8.9795 C   0  0  0  0  0  0  0  0  0  0  0  0
    4.6583    7.6572   10.1500 N   0  0  0  0  0  0  0  0  0  0  0  0
    3.9548    7.4003   11.2581 C   0  0  0  0  0  0  0  0  0  0  0  0
    4.9103    8.3009    7.8032 C   0  0  0  0  0  0  0  0  0  0  0  0
    5.1361    9.5781    7.3707 C   0  0  0  0  0  0  0  0  0  0  0  0
    5.9140    9.8369    6.2293 C   0  0  0  0  0  0  0  0  0  0  0  0
    6.4606    8.7919    5.5306 C   0  0  0  0  0  0  0  0  0  0  0  0
    6.2256    7.5019    5.9770 C   0  0  0  0  0  0  0  0  0  0  0  0
    5.4665    7.2348    7.0922 C   0  0  0  0  0  0  0  0  0  0  0  0
    5.2132    5.9575    7.5656 O   0  0  0  0  0  0  0  0  0  0  0  0
    6.1762    5.0269    7.9445 C   0  0  0  0  0  0  0  0  0  0  0  0
    3.3572    1.1197   17.0498 N   0  0  0  0  0  0  0  0  0  0  0  0
    2.9775    0.1258   17.0603 H   0  0  0  0  0  0  0  0  0  0  0  0
    4.3836    1.4957   17.9636 C   0  0  0  0  0  0  0  0  0  0  0  0
    4.0259    1.4803   19.4064 C   0  0  0  0  0  0  0  0  0  0  0  0
    4.9304    1.6283   21.7653 C   0  0  0  0  0  0  0  0  0  0  0  0
    5.1363    1.1982   20.3553 C   0  0  0  0  0  0  0  0  0  0  0  0
    1.0609    2.2709   12.9888 N   0  0  0  0  0  0  0  0  0  0  0  0
    0.0547    2.1499   12.9368 H   0  0  0  0  0  0  0  0  0  0  0  0
    1.7954    1.9970   11.7526 C   0  0  0  0  0  0  0  0  0  0  0  0
    1.0143    2.4059   10.5448 C   0  0  0  0  0  0  0  0  0  0  0  0
    1.1777    3.8827   10.2338 C   0  0  0  0  0  0  0  0  0  0  0  0
    2.6329    4.1818    9.8939 C   0  0  0  0  0  0  0  0  0  0  0  0
    2.7673    4.5394    8.5772 O   0  0  0  0  0  0  0  0  0  0  0  0
    3.4980    2.9936   10.2953 C   0  0  0  0  0  0  0  0  0  0  0  0
    3.1536    2.6301   11.7228 C   0  0  0  0  0  0  0  0  0  0  0  0
    1.9738    4.3488    8.0528 H   0  0  0  0  0  0  0  0  0  0  0  0
 30 31  1  0  0  0
 31 29  1  0  0  0
 29 28  1  0  0  0
 28 26  1  0  0  0
 26  1  1  0  0  0
  1  2  2  0  0  0
  2  3  1  0  0  0
  3  4  2  0  0  0
  4  7  1  0  0  0
  7  8  2  0  0  0
  7  9  1  0  0  0
  9 11  1  0  0  0
 11 12  1  0  0  0
 12 13  2  0  0  0
 13 14  1  0  0  0
 14 15  2  0  0  0
 15 16  1  0  0  0
 16 17  2  0  0  0
 15 18  1  0  0  0
 18 19  2  0  0  0
 19 20  1  0  0  0
 20 21  2  0  0  0
 21 22  1  0  0  0
 22 23  2  0  0  0
 23 24  1  0  0  0
 24 25  1  0  0  0
  4  5  1  0  0  0
  5 32  1  0  0  0
 32 34  1  0  0  0
 34 35  1  0  0  0
 35 36  1  0  0  0
 36 37  1  0  0  0
 37 38  1  0  0  0
 37 39  1  0  0  0
 39 40  1  0  0  0
  5  6  2  0  0  0
  6  1  1  0  0  0
 17 12  1  0  0  0
 23 18  1  0  0  0
 40 34  1  0  0  0
 26 27  1  0  0  0
  9 10  1  0  0  0
 32 33  1  0  0  0
 38 41  1  0  0  0
M  END
> <minimizedAffinity>
-6.10777

> <CNNscore>
0.1852527261

> <CNNaffinity>
5.9278631210

> <CNN_VS>
1.0981527567

> <CNNaffinity_variance>
0.3483475149

$$$$
[H]O[C@]1([H])C([H])([H])C([H])([H])[C@@]([H])(N([H])c2nc(N([H])C([H])([H])C([H])([H])C([H])([H])C([H])([H])[H])nc([H])c2C(=O)N([H])C([H])([H])c2c([H])nc(-c3c([H])c([H])c([H])c([H])c3OC([H])([H])[H])c([H])c2[H])C([H])([H])C1([H])[H]


 41 44  0  0  0  0  0  0  0  0999 V2000
    5.4250    4.5613   22.0139 C   0  0  0  0  0  0  0  0  0  0  0  0
    5.3087    4.1293   20.7436 N   0  0  0  0  0  0  0  0  0  0  0  0
    5.0138    4.9810   19.7523 C   0  0  0  0  0  0  0  0  0  0  0  0
    4.8278    6.3346   20.0598 C   0  0  0  0  0  0  0  0  0  0  0  0
    4.9512    6.7462   21.3552 C   0  0  0  0  0  0  0  0  0  0  0  0
    5.2523    5.8372   22.3252 N   0  0  0  0  0  0  0  0  0  0  0  0
    4.5292    7.2030   18.9235 C   0  0  0  0  0  0  0  0  0  0  0  0
    3.8339    8.2502   18.9746 O   0  0  0  0  0  0  0  0  0  0  0  0
    5.0330    6.9060   17.6140 N   0  0  0  0  0  0  0  0  0  0  0  0
    5.6113    6.1094   17.3463 H   0  0  0  0  0  0  0  0  0  0  0  0
    4.6919    7.8301   16.5377 C   0  0  0  0  0  0  0  0  0  0  0  0
    3.6567    7.2866   15.6557 C   0  0  0  0  0  0  0  0  0  0  0  0
    3.1493    6.0352   15.8930 C   0  0  0  0  0  0  0  0  0  0  0  0
    2.1652    5.5076   15.0560 C   0  0  0  0  0  0  0  0  0  0  0  0
    1.6963    6.2314   13.9903 C   0  0  0  0  0  0  0  0  0  0  0  0
    2.2260    7.4597   13.7963 N   0  0  0  0  0  0  0  0  0  0  0  0
    3.1694    7.9941   14.5794 C   0  0  0  0  0  0  0  0  0  0  0  0
    0.6789    5.6944   13.1065 C   0  0  0  0  0  0  0  0  0  0  0  0
   -0.6404    6.0112   13.2751 C   0  0  0  0  0  0  0  0  0  0  0  0
   -1.6317    5.4910   12.4257 C   0  0  0  0  0  0  0  0  0  0  0  0
   -1.2755    4.6480   11.4052 C   0  0  0  0  0  0  0  0  0  0  0  0
    0.0637    4.3333   11.2431 C   0  0  0  0  0  0  0  0  0  0  0  0
    1.0436    4.8354   12.0669 C   0  0  0  0  0  0  0  0  0  0  0  0
    2.3909    4.5416   11.9318 O   0  0  0  0  0  0  0  0  0  0  0  0
    2.9242    3.2839   11.6661 C   0  0  0  0  0  0  0  0  0  0  0  0
    5.7370    3.5660   22.9925 N   0  0  0  0  0  0  0  0  0  0  0  0
    6.1819    3.8470   23.9173 H   0  0  0  0  0  0  0  0  0  0  0  0
    5.4574    2.1940   22.7289 C   0  0  0  0  0  0  0  0  0  0  0  0
    4.1184    1.6981   23.1426 C   0  0  0  0  0  0  0  0  0  0  0  0
    4.0719    0.5743   20.8756 C   0  0  0  0  0  0  0  0  0  0  0  0
    3.3334    0.9812   22.1022 C   0  0  0  0  0  0  0  0  0  0  0  0
    4.7679    8.0974   21.7210 N   0  0  0  0  0  0  0  0  0  0  0  0
    3.8677    8.4800   21.9912 H   0  0  0  0  0  0  0  0  0  0  0  0
    5.8864    9.0416   21.7359 C   0  0  0  0  0  0  0  0  0  0  0  0
    6.2370    9.4596   23.1280 C   0  0  0  0  0  0  0  0  0  0  0  0
    7.1588    8.4628   23.8070 C   0  0  0  0  0  0  0  0  0  0  0  0
    8.4855    8.3933   23.0601 C   0  0  0  0  0  0  0  0  0  0  0  0
    9.5072    8.8958   23.8239 O   0  0  0  0  0  0  0  0  0  0  0  0
    8.3386    9.0805   21.7084 C   0  0  0  0  0  0  0  0  0  0  0  0
    7.1048    8.5212   21.0350 C   0  0  0  0  0  0  0  0  0  0  0  0
    9.1914    9.3822   24.6015 H   0  0  0  0  0  0  0  0  0  0  0  0
 30 31  1  0  0  0
 31 29  1  0  0  0
 29 28  1  0  0  0
 28 26  1  0  0  0
 26  1  1  0  0  0
  1  2  2  0  0  0
  2  3  1  0  0  0
  3  4  2  0  0  0
  4  7  1  0  0  0
  7  8  2  0  0  0
  7  9  1  0  0  0
  9 11  1  0  0  0
 11 12  1  0  0  0
 12 13  2  0  0  0
 13 14  1  0  0  0
 14 15  2  0  0  0
 15 16  1  0  0  0
 16 17  2  0  0  0
 15 18  1  0  0  0
 18 19  2  0  0  0
 19 20  1  0  0  0
 20 21  2  0  0  0
 21 22  1  0  0  0
 22 23  2  0  0  0
 23 24  1  0  0  0
 24 25  1  0  0  0
  4  5  1  0  0  0
  5 32  1  0  0  0
 32 34  1  0  0  0
 34 35  1  0  0  0
 35 36  1  0  0  0
 36 37  1  0  0  0
 37 38  1  0  0  0
 37 39  1  0  0  0
 39 40  1  0  0  0
  5  6  2  0  0  0
  6  1  1  0  0  0
 17 12  1  0  0  0
 23 18  1  0  0  0
 40 34  1  0  0  0
 26 27  1  0  0  0
  9 10  1  0  0  0
 32 33  1  0  0  0
 38 41  1  0  0  0
M  END
> <minimizedAffinity>
-7.71957

> <CNNscore>
0.1139277294

> <CNNaffinity>
6.2965769768

> <CNN_VS>
0.7173547149

> <CNNaffinity_variance>
0.3096164465

$$$$
[H]O[C@]1([H])C([H])([H])C([H])([H])[C@@]([H])(N([H])c2nc(N([H])C([H])([H])C([H])([H])C([H])([H])C([H])([H])[H])nc([H])c2C(=O)N([H])C([H])([H])c2c([H])nc(-c3c([H])c([H])c([H])c([H])c3OC([H])([H])[H])c([H])c2[H])C([H])([H])C1([H])[H]


 41 44  0  0  0  0  0  0  0  0999 V2000
    4.0472    5.7448    9.8384 C   0  0  0  0  0  0  0  0  0  0  0  0
    4.8477    4.7439   10.2524 N   0  0  0  0  0  0  0  0  0  0  0  0
    4.4122    3.8367   11.1369 C   0  0  0  0  0  0  0  0  0  0  0  0
    3.1046    3.9463   11.6263 C   0  0  0  0  0  0  0  0  0  0  0  0
    2.3142    4.9700   11.1907 C   0  0  0  0  0  0  0  0  0  0  0  0
    2.8077    5.8660   10.2898 N   0  0  0  0  0  0  0  0  0  0  0  0
    2.6970    2.9089   12.5710 C   0  0  0  0  0  0  0  0  0  0  0  0
    1.8452    2.0126   12.3399 O   0  0  0  0  0  0  0  0  0  0  0  0
    3.2681    2.8401   13.8847 N   0  0  0  0  0  0  0  0  0  0  0  0
    3.9696    3.4657   14.2812 H   0  0  0  0  0  0  0  0  0  0  0  0
    2.8086    1.7682   14.7614 C   0  0  0  0  0  0  0  0  0  0  0  0
    3.3616    1.8894   16.1122 C   0  0  0  0  0  0  0  0  0  0  0  0
    4.2431    2.8998   16.3980 C   0  0  0  0  0  0  0  0  0  0  0  0
    4.7779    3.0211   17.6812 C   0  0  0  0  0  0  0  0  0  0  0  0
    4.4300    2.1344   18.6673 C   0  0  0  0  0  0  0  0  0  0  0  0
    3.5580    1.1555   18.3386 N   0  0  0  0  0  0  0  0  0  0  0  0
    3.0273    1.0116   17.1193 C   0  0  0  0  0  0  0  0  0  0  0  0
    4.9827    2.2424   20.0042 C   0  0  0  0  0  0  0  0  0  0  0  0
    5.7552    1.2446   20.5307 C   0  0  0  0  0  0  0  0  0  0  0  0
    6.2899    1.3403   21.8267 C   0  0  0  0  0  0  0  0  0  0  0  0
    6.0356    2.4541   22.5841 C   0  0  0  0  0  0  0  0  0  0  0  0
    5.2517    3.4591   22.0415 C   0  0  0  0  0  0  0  0  0  0  0  0
    4.7226    3.3781   20.7748 C   0  0  0  0  0  0  0  0  0  0  0  0
    3.9361    4.3648   20.2024 O   0  0  0  0  0  0  0  0  0  0  0  0
    3.9602    5.7161   20.5349 C   0  0  0  0  0  0  0  0  0  0  0  0
    4.6161    6.6592    8.8972 N   0  0  0  0  0  0  0  0  0  0  0  0
    5.6526    6.8958    8.9419 H   0  0  0  0  0  0  0  0  0  0  0  0
    3.7946    7.2601    7.9003 C   0  0  0  0  0  0  0  0  0  0  0  0
    4.4986    7.9222    6.7707 C   0  0  0  0  0  0  0  0  0  0  0  0
    5.9852    9.8368    6.0433 C   0  0  0  0  0  0  0  0  0  0  0  0
    5.0130    9.2935    7.0309 C   0  0  0  0  0  0  0  0  0  0  0  0
    0.9911    5.1307   11.6563 N   0  0  0  0  0  0  0  0  0  0  0  0
    0.2698    4.4291   11.5257 H   0  0  0  0  0  0  0  0  0  0  0  0
    0.5759    6.3390   12.3708 C   0  0  0  0  0  0  0  0  0  0  0  0
   -0.7310    6.8585   11.8630 C   0  0  0  0  0  0  0  0  0  0  0  0
   -1.9123    6.1549   12.5063 C   0  0  0  0  0  0  0  0  0  0  0  0
   -1.9239    6.4290   14.0054 C   0  0  0  0  0  0  0  0  0  0  0  0
   -3.0030    7.1983   14.3568 O   0  0  0  0  0  0  0  0  0  0  0  0
   -0.5858    7.0296   14.4176 C   0  0  0  0  0  0  0  0  0  0  0  0
    0.5100    6.1506   13.8563 C   0  0  0  0  0  0  0  0  0  0  0  0
   -3.4467    7.5959   13.5912 H   0  0  0  0  0  0  0  0  0  0  0  0
 30 31  1  0  0  0
 31 29  1  0  0  0
 29 28  1  0  0  0
 28 26  1  0  0  0
 26  1  1  0  0  0
  1  2  2  0  0  0
  2  3  1  0  0  0
  3  4  2  0  0  0
  4  7  1  0  0  0
  7  8  2  0  0  0
  7  9  1  0  0  0
  9 11  1  0  0  0
 11 12  1  0  0  0
 12 13  2  0  0  0
 13 14  1  0  0  0
 14 15  2  0  0  0
 15 16  1  0  0  0
 16 17  2  0  0  0
 15 18  1  0  0  0
 18 19  2  0  0  0
 19 20  1  0  0  0
 20 21  2  0  0  0
 21 22  1  0  0  0
 22 23  2  0  0  0
 23 24  1  0  0  0
 24 25  1  0  0  0
  4  5  1  0  0  0
  5 32  1  0  0  0
 32 34  1  0  0  0
 34 35  1  0  0  0
 35 36  1  0  0  0
 36 37  1  0  0  0
 37 38  1  0  0  0
 37 39  1  0  0  0
 39 40  1  0  0  0
  5  6  2  0  0  0
  6  1  1  0  0  0
 17 12  1  0  0  0
 23 18  1  0  0  0
 40 34  1  0  0  0
 26 27  1  0  0  0
  9 10  1  0  0  0
 32 33  1  0  0  0
 38 41  1  0  0  0
M  END
> <minimizedAffinity>
-7.78863

> <CNNscore>
0.0978592858

> <CNNaffinity>
6.1022458076

> <CNN_VS>
0.5971614122

> <CNNaffinity_variance>
0.2308803350

$$$$
[H]O[C@]1([H])C([H])([H])C([H])([H])[C@@]([H])(N([H])c2nc(N([H])C([H])([H])C([H])([H])C([H])([H])C([H])([H])[H])nc([H])c2C(=O)N([H])C([H])([H])c2c([H])nc(-c3c([H])c([H])c([H])c([H])c3OC([H])([H])[H])c([H])c2[H])C([H])([H])C1([H])[H]


 41 44  0  0  0  0  0  0  0  0999 V2000
    4.4904    2.5485   18.9329 C   0  0  0  0  0  0  0  0  0  0  0  0
    3.8427    2.3975   17.7617 N   0  0  0  0  0  0  0  0  0  0  0  0
    3.6472    3.4413   16.9449 C   0  0  0  0  0  0  0  0  0  0  0  0
    4.1298    4.6983   17.3303 C   0  0  0  0  0  0  0  0  0  0  0  0
    4.7826    4.8241   18.5222 C   0  0  0  0  0  0  0  0  0  0  0  0
    4.9538    3.7290   19.3155 N   0  0  0  0  0  0  0  0  0  0  0  0
    3.8957    5.7815   16.3782 C   0  0  0  0  0  0  0  0  0  0  0  0
    3.5986    6.9647   16.6853 O   0  0  0  0  0  0  0  0  0  0  0  0
    3.9944    5.5575   14.9652 N   0  0  0  0  0  0  0  0  0  0  0  0
    4.2184    4.6785   14.4985 H   0  0  0  0  0  0  0  0  0  0  0  0
    3.7512    6.6963   14.0860 C   0  0  0  0  0  0  0  0  0  0  0  0
    2.5577    6.5055   13.2589 C   0  0  0  0  0  0  0  0  0  0  0  0
    1.5424    7.4255   13.3075 C   0  0  0  0  0  0  0  0  0  0  0  0
    0.3999    7.2504   12.5256 C   0  0  0  0  0  0  0  0  0  0  0  0
    0.2794    6.1602   11.7031 C   0  0  0  0  0  0  0  0  0  0  0  0
    1.3056    5.2807   11.6884 N   0  0  0  0  0  0  0  0  0  0  0  0
    2.4135    5.4192   12.4247 C   0  0  0  0  0  0  0  0  0  0  0  0
   -0.9048    5.9598   10.8895 C   0  0  0  0  0  0  0  0  0  0  0  0
   -1.9895    5.2850   11.3771 C   0  0  0  0  0  0  0  0  0  0  0  0
   -3.1381    5.0830   10.5931 C   0  0  0  0  0  0  0  0  0  0  0  0
   -3.1785    5.5698    9.3123 C   0  0  0  0  0  0  0  0  0  0  0  0
   -2.0744    6.2518    8.8280 C   0  0  0  0  0  0  0  0  0  0  0  0
   -0.9444    6.4565    9.5845 C   0  0  0  0  0  0  0  0  0  0  0  0
    0.1757    7.1344    9.1311 O   0  0  0  0  0  0  0  0  0  0  0  0
    0.7953    6.9449    7.8993 C   0  0  0  0  0  0  0  0  0  0  0  0
    4.6382    1.3692   19.7286 N   0  0  0  0  0  0  0  0  0  0  0  0
    4.6504    0.4110   19.2662 H   0  0  0  0  0  0  0  0  0  0  0  0
    4.7640    1.4746   21.1439 C   0  0  0  0  0  0  0  0  0  0  0  0
    6.1063    1.8441   21.6651 C   0  0  0  0  0  0  0  0  0  0  0  0
    5.5809    2.2641   24.1048 C   0  0  0  0  0  0  0  0  0  0  0  0
    6.1271    2.7811   22.8203 C   0  0  0  0  0  0  0  0  0  0  0  0
    5.2835    6.0687   18.9617 N   0  0  0  0  0  0  0  0  0  0  0  0
    6.1362    6.4814   18.5980 H   0  0  0  0  0  0  0  0  0  0  0  0
    4.5877    6.8525   19.9837 C   0  0  0  0  0  0  0  0  0  0  0  0
    4.9332    6.3907   21.3632 C   0  0  0  0  0  0  0  0  0  0  0  0
    6.2248    7.0107   21.8649 C   0  0  0  0  0  0  0  0  0  0  0  0
    6.0648    8.5224   21.9734 C   0  0  0  0  0  0  0  0  0  0  0  0
    6.1043    8.9288   23.2822 O   0  0  0  0  0  0  0  0  0  0  0  0
    4.7994    8.9486   21.2397 C   0  0  0  0  0  0  0  0  0  0  0  0
    4.8306    8.3265   19.8611 C   0  0  0  0  0  0  0  0  0  0  0  0
    6.0233    8.1917   23.9075 H   0  0  0  0  0  0  0  0  0  0  0  0
 30 31  1  0  0  0
 31 29  1  0  0  0
 29 28  1  0  0  0
 28 26  1  0  0  0
 26  1  1  0  0  0
  1  2  2  0  0  0
  2  3  1  0  0  0
  3  4  2  0  0  0
  4  7  1  0  0  0
  7  8  2  0  0  0
  7  9  1  0  0  0
  9 11  1  0  0  0
 11 12  1  0  0  0
 12 13  2  0  0  0
 13 14  1  0  0  0
 14 15  2  0  0  0
 15 16  1  0  0  0
 16 17  2  0  0  0
 15 18  1  0  0  0
 18 19  2  0  0  0
 19 20  1  0  0  0
 20 21  2  0  0  0
 21 22  1  0  0  0
 22 23  2  0  0  0
 23 24  1  0  0  0
 24 25  1  0  0  0
  4  5  1  0  0  0
  5 32  1  0  0  0
 32 34  1  0  0  0
 34 35  1  0  0  0
 35 36  1  0  0  0
 36 37  1  0  0  0
 37 38  1  0  0  0
 37 39  1  0  0  0
 39 40  1  0  0  0
  5  6  2  0  0  0
  6  1  1  0  0  0
 17 12  1  0  0  0
 23 18  1  0  0  0
 40 34  1  0  0  0
 26 27  1  0  0  0
  9 10  1  0  0  0
 32 33  1  0  0  0
 38 41  1  0  0  0
M  END
> <minimizedAffinity>
-7.65032

> <CNNscore>
0.0967884213

> <CNNaffinity>
6.1667399406

> <CNN_VS>
0.5968690515

> <CNNaffinity_variance>
0.4444109499

$$$$
[H]O[C@]1([H])C([H])([H])C([H])([H])[C@@]([H])(N([H])c2nc(N([H])C([H])([H])C([H])([H])C([H])([H])C([H])([H])[H])nc([H])c2C(=O)N([H])C([H])([H])c2c([H])nc(-c3c([H])c([H])c([H])c([H])c3OC([H])([H])[H])c([H])c2[H])C([H])([H])C1([H])[H]


 41 44  0  0  0  0  0  0  0  0999 V2000
    4.3372    6.8847   11.5239 C   0  0  0  0  0  0  0  0  0  0  0  0
    4.9057    5.6641   11.4942 N   0  0  0  0  0  0  0  0  0  0  0  0
    4.4285    4.6652   12.2487 C   0  0  0  0  0  0  0  0  0  0  0  0
    3.3233    4.9117   13.0728 C   0  0  0  0  0  0  0  0  0  0  0  0
    2.7660    6.1575   13.0843 C   0  0  0  0  0  0  0  0  0  0  0  0
    3.2917    7.1380   12.2969 N   0  0  0  0  0  0  0  0  0  0  0  0
    2.8494    3.7683   13.8491 C   0  0  0  0  0  0  0  0  0  0  0  0
    1.6570    3.3706   13.8995 O   0  0  0  0  0  0  0  0  0  0  0  0
    3.7543    2.9870   14.6413 N   0  0  0  0  0  0  0  0  0  0  0  0
    4.7581    3.1337   14.7483 H   0  0  0  0  0  0  0  0  0  0  0  0
    3.1976    1.8587   15.3801 C   0  0  0  0  0  0  0  0  0  0  0  0
    3.4753    1.9521   16.8151 C   0  0  0  0  0  0  0  0  0  0  0  0
    3.7478    3.1726   17.3770 C   0  0  0  0  0  0  0  0  0  0  0  0
    4.0170    3.2709   18.7427 C   0  0  0  0  0  0  0  0  0  0  0  0
    4.0127    2.1525   19.5356 C   0  0  0  0  0  0  0  0  0  0  0  0
    3.7386    0.9719   18.9373 N   0  0  0  0  0  0  0  0  0  0  0  0
    3.4764    0.8435   17.6321 C   0  0  0  0  0  0  0  0  0  0  0  0
    4.2977    2.2367   20.9555 C   0  0  0  0  0  0  0  0  0  0  0  0
    3.7200    1.3722   21.8433 C   0  0  0  0  0  0  0  0  0  0  0  0
    3.9878    1.4510   23.2206 C   0  0  0  0  0  0  0  0  0  0  0  0
    4.8449    2.4120   23.6903 C   0  0  0  0  0  0  0  0  0  0  0  0
    5.4248    3.2830   22.7826 C   0  0  0  0  0  0  0  0  0  0  0  0
    5.1714    3.2167   21.4326 C   0  0  0  0  0  0  0  0  0  0  0  0
    5.7350    4.0711   20.4987 O   0  0  0  0  0  0  0  0  0  0  0  0
    5.9588    5.4332   20.6763 C   0  0  0  0  0  0  0  0  0  0  0  0
    4.9308    7.8777   10.6828 N   0  0  0  0  0  0  0  0  0  0  0  0
    4.3261    8.4403   10.0120 H   0  0  0  0  0  0  0  0  0  0  0  0
    6.3350    8.1121   10.7374 C   0  0  0  0  0  0  0  0  0  0  0  0
    6.8507    8.7705   11.9664 C   0  0  0  0  0  0  0  0  0  0  0  0
    8.9559    7.4363   11.5279 C   0  0  0  0  0  0  0  0  0  0  0  0
    8.1799    8.3098   12.4500 C   0  0  0  0  0  0  0  0  0  0  0  0
    1.6552    6.4617   13.9008 N   0  0  0  0  0  0  0  0  0  0  0  0
    1.6302    6.2659   14.8961 H   0  0  0  0  0  0  0  0  0  0  0  0
    0.4543    7.0920   13.3500 C   0  0  0  0  0  0  0  0  0  0  0  0
    0.2295    6.6995   11.9248 C   0  0  0  0  0  0  0  0  0  0  0  0
   -0.4968    5.3717   11.8074 C   0  0  0  0  0  0  0  0  0  0  0  0
   -1.8882    5.4874   12.4186 C   0  0  0  0  0  0  0  0  0  0  0  0
   -2.8589    5.3809   11.4563 O   0  0  0  0  0  0  0  0  0  0  0  0
   -1.9747    6.7718   13.2335 C   0  0  0  0  0  0  0  0  0  0  0  0
   -0.7779    6.8164   14.1578 C   0  0  0  0  0  0  0  0  0  0  0  0
   -2.5055    5.4540   10.5558 H   0  0  0  0  0  0  0  0  0  0  0  0
 30 31  1  0  0  0
 31 29  1  0  0  0
 29 28  1  0  0  0
 28 26  1  0  0  0
 26  1  1  0  0  0
  1  2  2  0  0  0
  2  3  1  0  0  0
  3  4  2  0  0  0
  4  7  1  0  0  0
  7  8  2  0  0  0
  7  9  1  0  0  0
  9 11  1  0  0  0
 11 12  1  0  0  0
 12 13  2  0  0  0
 13 14  1  0  0  0
 14 15  2  0  0  0
 15 16  1  0  0  0
 16 17  2  0  0  0
 15 18  1  0  0  0
 18 19  2  0  0  0
 19 20  1  0  0  0
 20 21  2  0  0  0
 21 22  1  0  0  0
 22 23  2  0  0  0
 23 24  1  0  0  0
 24 25  1  0  0  0
  4  5  1  0  0  0
  5 32  1  0  0  0
 32 34  1  0  0  0
 34 35  1  0  0  0
 35 36  1  0  0  0
 36 37  1  0  0  0
 37 38  1  0  0  0
 37 39  1  0  0  0
 39 40  1  0  0  0
  5  6  2  0  0  0
  6  1  1  0  0  0
 17 12  1  0  0  0
 23 18  1  0  0  0
 40 34  1  0  0  0
 26 27  1  0  0  0
  9 10  1  0  0  0
 32 33  1  0  0  0
 38 41  1  0  0  0
M  END
> <minimizedAffinity>
-8.14355

> <CNNscore>
0.0935184360

> <CNNaffinity>
6.2110285759

> <CNN_VS>
0.5808456540

> <CNNaffinity_variance>
0.1531182230

$$$$
[H]O[C@]1([H])C([H])([H])C([H])([H])[C@@]([H])(N([H])c2nc(N([H])C([H])([H])C([H])([H])C([H])([H])C([H])([H])[H])nc([H])c2C(=O)N([H])C([H])([H])c2c([H])nc(-c3c([H])c([H])c([H])c([H])c3OC([H])([H])[H])c([H])c2[H])C([H])([H])C1([H])[H]


 41 44  0  0  0  0  0  0  0  0999 V2000
    3.7885    2.7836   17.1460 C   0  0  0  0  0  0  0  0  0  0  0  0
    3.1663    3.8198   17.7401 N   0  0  0  0  0  0  0  0  0  0  0  0
    2.5636    4.7689   17.0114 C   0  0  0  0  0  0  0  0  0  0  0  0
    2.5910    4.6656   15.6151 C   0  0  0  0  0  0  0  0  0  0  0  0
    3.2285    3.6057   15.0382 C   0  0  0  0  0  0  0  0  0  0  0  0
    3.8260    2.6682   15.8269 N   0  0  0  0  0  0  0  0  0  0  0  0
    1.8953    5.7272   14.8915 C   0  0  0  0  0  0  0  0  0  0  0  0
    0.6470    5.8757   14.8462 O   0  0  0  0  0  0  0  0  0  0  0  0
    2.6233    6.7166   14.1513 N   0  0  0  0  0  0  0  0  0  0  0  0
    3.6361    6.7833   14.0497 H   0  0  0  0  0  0  0  0  0  0  0  0
    1.8496    7.7447   13.4634 C   0  0  0  0  0  0  0  0  0  0  0  0
    1.5819    7.3882   12.0683 C   0  0  0  0  0  0  0  0  0  0  0  0
    0.3072    7.0637   11.6818 C   0  0  0  0  0  0  0  0  0  0  0  0
    0.0432    6.7194   10.3555 C   0  0  0  0  0  0  0  0  0  0  0  0
    1.0517    6.7010    9.4269 C   0  0  0  0  0  0  0  0  0  0  0  0
    2.2915    7.0284    9.8544 N   0  0  0  0  0  0  0  0  0  0  0  0
    2.5777    7.3630   11.1173 C   0  0  0  0  0  0  0  0  0  0  0  0
    0.7953    6.3382    8.0459 C   0  0  0  0  0  0  0  0  0  0  0  0
    0.7227    5.0277    7.6629 C   0  0  0  0  0  0  0  0  0  0  0  0
    0.4794    4.6689    6.3262 C   0  0  0  0  0  0  0  0  0  0  0  0
    0.3104    5.6480    5.3818 C   0  0  0  0  0  0  0  0  0  0  0  0
    0.3859    6.9725    5.7803 C   0  0  0  0  0  0  0  0  0  0  0  0
    0.6233    7.3372    7.0848 C   0  0  0  0  0  0  0  0  0  0  0  0
    0.7039    8.6513    7.5163 O   0  0  0  0  0  0  0  0  0  0  0  0
    1.6388    9.5896    7.0890 C   0  0  0  0  0  0  0  0  0  0  0  0
    4.4029    1.8320   18.0194 N   0  0  0  0  0  0  0  0  0  0  0  0
    4.5488    0.8282   17.6979 H   0  0  0  0  0  0  0  0  0  0  0  0
    4.8163    2.2249   19.3250 C   0  0  0  0  0  0  0  0  0  0  0  0
    4.1552    1.5375   20.4654 C   0  0  0  0  0  0  0  0  0  0  0  0
    6.4383    1.3705   21.5442 C   0  0  0  0  0  0  0  0  0  0  0  0
    5.0548    0.8360   21.4201 C   0  0  0  0  0  0  0  0  0  0  0  0
    3.2915    3.4563   13.6357 N   0  0  0  0  0  0  0  0  0  0  0  0
    3.8415    4.0653   13.0388 H   0  0  0  0  0  0  0  0  0  0  0  0
    2.5569    2.3928   12.9487 C   0  0  0  0  0  0  0  0  0  0  0  0
    1.0811    2.5213   13.1525 C   0  0  0  0  0  0  0  0  0  0  0  0
    0.4532    3.4949   12.1715 C   0  0  0  0  0  0  0  0  0  0  0  0
    0.6205    2.9755   10.7485 C   0  0  0  0  0  0  0  0  0  0  0  0
   -0.5901    2.6320   10.2044 O   0  0  0  0  0  0  0  0  0  0  0  0
    1.6364    1.8401   10.7434 C   0  0  0  0  0  0  0  0  0  0  0  0
    2.8669    2.3151   11.4843 C   0  0  0  0  0  0  0  0  0  0  0  0
   -1.2994    2.5849   10.8645 H   0  0  0  0  0  0  0  0  0  0  0  0
 30 31  1  0  0  0
 31 29  1  0  0  0
 29 28  1  0  0  0
 28 26  1  0  0  0
 26  1  1  0  0  0
  1  2  2  0  0  0
  2  3  1  0  0  0
  3  4  2  0  0  0
  4  7  1  0  0  0
  7  8  2  0  0  0
  7  9  1  0  0  0
  9 11  1  0  0  0
 11 12  1  0  0  0
 12 13  2  0  0  0
 13 14  1  0  0  0
 14 15  2  0  0  0
 15 16  1  0  0  0
 16 17  2  0  0  0
 15 18  1  0  0  0
 18 19  2  0  0  0
 19 20  1  0  0  0
 20 21  2  0  0  0
 21 22  1  0  0  0
 22 23  2  0  0  0
 23 24  1  0  0  0
 24 25  1  0  0  0
  4  5  1  0  0  0
  5 32  1  0  0  0
 32 34  1  0  0  0
 34 35  1  0  0  0
 35 36  1  0  0  0
 36 37  1  0  0  0
 37 38  1  0  0  0
 37 39  1  0  0  0
 39 40  1  0  0  0
  5  6  2  0  0  0
  6  1  1  0  0  0
 17 12  1  0  0  0
 23 18  1  0  0  0
 40 34  1  0  0  0
 26 27  1  0  0  0
  9 10  1  0  0  0
 32 33  1  0  0  0
 38 41  1  0  0  0
M  END
> <minimizedAffinity>
-6.27967

> <CNNscore>
0.0848182067

> <CNNaffinity>
5.8163938522

> <CNN_VS>
0.4933360815

> <CNNaffinity_variance>
0.1626293361

$$$$
[H]O[C@]1([H])C([H])([H])C([H])([H])[C@@]([H])(N([H])c2nc(N([H])C([H])([H])C([H])([H])C([H])([H])C([H])([H])[H])nc([H])c2C(=O)N([H])C([H])([H])c2c([H])nc(-c3c([H])c([H])c([H])c([H])c3OC([H])([H])[H])c([H])c2[H])C([H])([H])C1([H])[H]


 41 44  0  0  0  0  0  0  0  0999 V2000
    6.0347    7.5147   22.2039 C   0  0  0  0  0  0  0  0  0  0  0  0
    6.2428    8.7917   21.8301 N   0  0  0  0  0  0  0  0  0  0  0  0
    5.6000    9.3129   20.7765 C   0  0  0  0  0  0  0  0  0  0  0  0
    4.7035    8.5044   20.0667 C   0  0  0  0  0  0  0  0  0  0  0  0
    4.5109    7.2137   20.4662 C   0  0  0  0  0  0  0  0  0  0  0  0
    5.1914    6.7338   21.5453 N   0  0  0  0  0  0  0  0  0  0  0  0
    4.0271    9.1498   18.9439 C   0  0  0  0  0  0  0  0  0  0  0  0
    2.9143    9.7331   19.0066 O   0  0  0  0  0  0  0  0  0  0  0  0
    4.6145    9.1624   17.6357 N   0  0  0  0  0  0  0  0  0  0  0  0
    5.5048    8.7477   17.3600 H   0  0  0  0  0  0  0  0  0  0  0  0
    3.8739    9.8347   16.5734 C   0  0  0  0  0  0  0  0  0  0  0  0
    3.6685    8.9652   15.4129 C   0  0  0  0  0  0  0  0  0  0  0  0
    3.0886    9.4710   14.2783 C   0  0  0  0  0  0  0  0  0  0  0  0
    2.8857    8.6493   13.1688 C   0  0  0  0  0  0  0  0  0  0  0  0
    3.2620    7.3313   13.2004 C   0  0  0  0  0  0  0  0  0  0  0  0
    3.8297    6.8778   14.3401 N   0  0  0  0  0  0  0  0  0  0  0  0
    4.0382    7.6386   15.4201 C   0  0  0  0  0  0  0  0  0  0  0  0
    3.0513    6.4620   12.0583 C   0  0  0  0  0  0  0  0  0  0  0  0
    1.8215    5.9238   11.7989 C   0  0  0  0  0  0  0  0  0  0  0  0
    1.6112    5.0772   10.6972 C   0  0  0  0  0  0  0  0  0  0  0  0
    2.6564    4.7808    9.8613 C   0  0  0  0  0  0  0  0  0  0  0  0
    3.8982    5.3311   10.1330 C   0  0  0  0  0  0  0  0  0  0  0  0
    4.1175    6.1609   11.2074 C   0  0  0  0  0  0  0  0  0  0  0  0
    5.3457    6.7280   11.5066 O   0  0  0  0  0  0  0  0  0  0  0  0
    5.9817    7.7219   10.7686 C   0  0  0  0  0  0  0  0  0  0  0  0
    6.7774    7.0606   23.3388 N   0  0  0  0  0  0  0  0  0  0  0  0
    6.5267    6.1387   23.8072 H   0  0  0  0  0  0  0  0  0  0  0  0
    7.8520    7.8451   23.8486 C   0  0  0  0  0  0  0  0  0  0  0  0
    9.2257    7.3879   23.5111 C   0  0  0  0  0  0  0  0  0  0  0  0
   10.3010    5.4727   22.2542 C   0  0  0  0  0  0  0  0  0  0  0  0
    9.4107    5.9197   23.3601 C   0  0  0  0  0  0  0  0  0  0  0  0
    3.6238    6.3539   19.7828 N   0  0  0  0  0  0  0  0  0  0  0  0
    2.6935    6.1349   20.1235 H   0  0  0  0  0  0  0  0  0  0  0  0
    3.9997    5.7197   18.5182 C   0  0  0  0  0  0  0  0  0  0  0  0
    5.2051    4.8490   18.6746 C   0  0  0  0  0  0  0  0  0  0  0  0
    4.8458    3.4645   19.1832 C   0  0  0  0  0  0  0  0  0  0  0  0
    3.9629    2.7526   18.1651 C   0  0  0  0  0  0  0  0  0  0  0  0
    4.6174    1.6848   17.6074 O   0  0  0  0  0  0  0  0  0  0  0  0
    3.4598    3.7628   17.1416 C   0  0  0  0  0  0  0  0  0  0  0  0
    2.8812    4.9393   17.8963 C   0  0  0  0  0  0  0  0  0  0  0  0
    5.5689    1.6864   17.7964 H   0  0  0  0  0  0  0  0  0  0  0  0
 30 31  1  0  0  0
 31 29  1  0  0  0
 29 28  1  0  0  0
 28 26  1  0  0  0
 26  1  1  0  0  0
  1  2  2  0  0  0
  2  3  1  0  0  0
  3  4  2  0  0  0
  4  7  1  0  0  0
  7  8  2  0  0  0
  7  9  1  0  0  0
  9 11  1  0  0  0
 11 12  1  0  0  0
 12 13  2  0  0  0
 13 14  1  0  0  0
 14 15  2  0  0  0
 15 16  1  0  0  0
 16 17  2  0  0  0
 15 18  1  0  0  0
 18 19  2  0  0  0
 19 20  1  0  0  0
 20 21  2  0  0  0
 21 22  1  0  0  0
 22 23  2  0  0  0
 23 24  1  0  0  0
 24 25  1  0  0  0
  4  5  1  0  0  0
  5 32  1  0  0  0
 32 34  1  0  0  0
 34 35  1  0  0  0
 35 36  1  0  0  0
 36 37  1  0  0  0
 37 38  1  0  0  0
 37 39  1  0  0  0
 39 40  1  0  0  0
  5  6  2  0  0  0
  6  1  1  0  0  0
 17 12  1  0  0  0
 23 18  1  0  0  0
 40 34  1  0  0  0
 26 27  1  0  0  0
  9 10  1  0  0  0
 32 33  1  0  0  0
 38 41  1  0  0  0
M  END
> <minimizedAffinity>
-7.38739

> <CNNscore>
0.0827182308

> <CNNaffinity>
5.6827316284

> <CNN_VS>
0.4700655043

> <CNNaffinity_variance>
0.3055284917

$$$$
[H]Oc1c([H])c([H])c(-c2c([H])nc(N([H])[H])c(C(=O)N([H])[C@@]3([H])C([H])([H])C([H])([H])C([H])([H])[C@]3([H])OC([H])([H])c3c([H])c([H])c(C([H])([H])[H])c(C([H])([H])[H])c3[H])c2[H])c([H])c1OC([H])([H])[H]


 38 41  0  0  0  0  0  0  0  0999 V2000
    3.8739    1.3856   19.6603 C   0  0  0  0  0  0  0  0  0  0  0  0
    3.1833    0.2098   19.4910 C   0  0  0  0  0  0  0  0  0  0  0  0
    2.6236   -0.0363   18.2984 N   0  0  0  0  0  0  0  0  0  0  0  0
    2.7239    0.8452   17.2617 C   0  0  0  0  0  0  0  0  0  0  0  0
    2.0794    0.4529   16.0506 N   0  0  0  0  0  0  0  0  0  0  0  0
    3.4023    2.0312   17.3817 C   0  0  0  0  0  0  0  0  0  0  0  0
    3.9771    2.2816   18.6103 C   0  0  0  0  0  0  0  0  0  0  0  0
    1.1224    0.7895   15.8437 H   0  0  0  0  0  0  0  0  0  0  0  0
    2.6338   -0.1750   15.4212 H   0  0  0  0  0  0  0  0  0  0  0  0
    4.4637    1.6165   23.3687 C   0  0  0  0  0  0  0  0  0  0  0  0
    3.8745    1.3517   22.1496 C   0  0  0  0  0  0  0  0  0  0  0  0
    4.4821    1.6585   20.9495 C   0  0  0  0  0  0  0  0  0  0  0  0
    5.7436    2.2602   21.0346 C   0  0  0  0  0  0  0  0  0  0  0  0
    6.3420    2.5296   22.2440 C   0  0  0  0  0  0  0  0  0  0  0  0
    5.7136    2.2130   23.4249 C   0  0  0  0  0  0  0  0  0  0  0  0
    6.3008    2.4766   24.6663 O   0  0  0  0  0  0  0  0  0  0  0  0
    7.2181    2.9155   24.6643 H   0  0  0  0  0  0  0  0  0  0  0  0
    4.1102    0.1528   25.3262 C   0  0  0  0  0  0  0  0  0  0  0  0
    3.8570    1.3098   24.5836 O   0  0  0  0  0  0  0  0  0  0  0  0
    3.4793    2.9339   16.2498 C   0  0  0  0  0  0  0  0  0  0  0  0
    3.9751    2.4502   15.1702 O   0  0  0  0  0  0  0  0  0  0  0  0
    3.0402    4.2797   16.3022 N   0  0  0  0  0  0  0  0  0  0  0  0
    2.6451    4.6564   17.1721 H   0  0  0  0  0  0  0  0  0  0  0  0
    3.1502    5.1113   15.1366 C   0  0  0  0  0  0  0  0  0  0  0  0
    1.8810    4.9644   14.3565 C   0  0  0  0  0  0  0  0  0  0  0  0
    1.3637    6.3394   14.0638 C   0  0  0  0  0  0  0  0  0  0  0  0
    2.5553    7.2193   14.2733 C   0  0  0  0  0  0  0  0  0  0  0  0
    3.2199    6.5848   15.4822 C   0  0  0  0  0  0  0  0  0  0  0  0
    4.5065    7.0585   15.5222 O   0  0  0  0  0  0  0  0  0  0  0  0
    4.7962    7.9803   16.4863 C   0  0  0  0  0  0  0  0  0  0  0  0
    5.0576    7.4562   17.8320 C   0  0  0  0  0  0  0  0  0  0  0  0
    5.4663    6.1637   18.0442 C   0  0  0  0  0  0  0  0  0  0  0  0
    5.6876    5.7300   19.3262 C   0  0  0  0  0  0  0  0  0  0  0  0
    5.5035    6.5803   20.4049 C   0  0  0  0  0  0  0  0  0  0  0  0
    5.7395    6.1239   21.8025 C   0  0  0  0  0  0  0  0  0  0  0  0
    5.0929    7.8864   20.2249 C   0  0  0  0  0  0  0  0  0  0  0  0
    4.9049    8.7714   21.4004 C   0  0  0  0  0  0  0  0  0  0  0  0
    4.8839    8.2756   18.9257 C   0  0  0  0  0  0  0  0  0  0  0  0
 18 19  1  0  0  0
 19 10  1  0  0  0
 10 11  2  0  0  0
 11 12  1  0  0  0
 12 13  2  0  0  0
 13 14  1  0  0  0
 14 15  2  0  0  0
 15 16  1  0  0  0
 12  1  1  0  0  0
  1  2  2  0  0  0
  2  3  1  0  0  0
  3  4  2  0  0  0
  4  5  1  0  0  0
  4  6  1  0  0  0
  6  7  2  0  0  0
  6 20  1  0  0  0
 20 21  2  0  0  0
 20 22  1  0  0  0
 22 24  1  0  0  0
 24 25  1  0  0  0
 25 26  1  0  0  0
 26 27  1  0  0  0
 27 28  1  0  0  0
 28 29  1  0  0  0
 29 30  1  0  0  0
 30 31  1  0  0  0
 31 32  2  0  0  0
 32 33  1  0  0  0
 33 34  2  0  0  0
 34 35  1  0  0  0
 34 36  1  0  0  0
 36 37  1  0  0  0
 36 38  2  0  0  0
 15 10  1  0  0  0
  7  1  1  0  0  0
 28 24  1  0  0  0
 38 31  1  0  0  0
 16 17  1  0  0  0
  5  8  1  0  0  0
  5  9  1  0  0  0
 22 23  1  0  0  0
M  END
> <minimizedAffinity>
-8.05683

> <CNNscore>
0.5440515876

> <CNNaffinity>
6.9366722107

> <CNN_VS>
3.7739074230

> <CNNaffinity_variance>
0.1730297059

$$$$
[H]Oc1c([H])c([H])c(-c2c([H])nc(N([H])[H])c(C(=O)N([H])[C@@]3([H])C([H])([H])C([H])([H])C([H])([H])[C@]3([H])OC([H])([H])c3c([H])c([H])c(C([H])([H])[H])c(C([H])([H])[H])c3[H])c2[H])c([H])c1OC([H])([H])[H]


 38 41  0  0  0  0  0  0  0  0999 V2000
    4.3037    5.5615   20.4095 C   0  0  0  0  0  0  0  0  0  0  0  0
    4.6671    6.8735   20.5958 C   0  0  0  0  0  0  0  0  0  0  0  0
    4.4942    7.7343   19.5832 N   0  0  0  0  0  0  0  0  0  0  0  0
    3.9714    7.3401   18.3861 C   0  0  0  0  0  0  0  0  0  0  0  0
    3.8442    8.3626   17.3990 N   0  0  0  0  0  0  0  0  0  0  0  0
    3.5939    6.0424   18.1520 C   0  0  0  0  0  0  0  0  0  0  0  0
    3.7732    5.1590   19.1960 C   0  0  0  0  0  0  0  0  0  0  0  0
    4.5858    8.4871   16.6873 H   0  0  0  0  0  0  0  0  0  0  0  0
    2.9764    8.9470   17.4564 H   0  0  0  0  0  0  0  0  0  0  0  0
    5.6321    2.7657   22.5478 C   0  0  0  0  0  0  0  0  0  0  0  0
    5.4668    3.6510   21.5026 C   0  0  0  0  0  0  0  0  0  0  0  0
    4.4887    4.6241   21.5019 C   0  0  0  0  0  0  0  0  0  0  0  0
    3.6623    4.6666   22.6314 C   0  0  0  0  0  0  0  0  0  0  0  0
    3.8166    3.7896   23.6804 C   0  0  0  0  0  0  0  0  0  0  0  0
    4.8001    2.8295   23.6546 C   0  0  0  0  0  0  0  0  0  0  0  0
    4.9771    1.9270   24.7080 O   0  0  0  0  0  0  0  0  0  0  0  0
    4.3459    2.0067   25.5013 H   0  0  0  0  0  0  0  0  0  0  0  0
    6.9588    0.9939   21.4528 C   0  0  0  0  0  0  0  0  0  0  0  0
    6.6165    1.7814   22.5559 O   0  0  0  0  0  0  0  0  0  0  0  0
    3.0438    5.6745   16.8621 C   0  0  0  0  0  0  0  0  0  0  0  0
    1.8805    5.1343   16.8738 O   0  0  0  0  0  0  0  0  0  0  0  0
    3.7283    5.8866   15.6401 N   0  0  0  0  0  0  0  0  0  0  0  0
    4.6595    6.3198   15.6427 H   0  0  0  0  0  0  0  0  0  0  0  0
    3.1154    5.4940   14.4022 C   0  0  0  0  0  0  0  0  0  0  0  0
    3.5862    6.4436   13.3449 C   0  0  0  0  0  0  0  0  0  0  0  0
    4.0982    5.6299   12.1961 C   0  0  0  0  0  0  0  0  0  0  0  0
    3.4974    4.2786   12.4224 C   0  0  0  0  0  0  0  0  0  0  0  0
    3.5840    4.1323   13.9313 C   0  0  0  0  0  0  0  0  0  0  0  0
    2.7216    3.1254   14.2828 O   0  0  0  0  0  0  0  0  0  0  0  0
    3.2771    1.9247   14.6185 C   0  0  0  0  0  0  0  0  0  0  0  0
    3.4417    1.6607   16.0528 C   0  0  0  0  0  0  0  0  0  0  0  0
    4.3752    2.3193   16.8127 C   0  0  0  0  0  0  0  0  0  0  0  0
    4.4864    2.0235   18.1472 C   0  0  0  0  0  0  0  0  0  0  0  0
    3.6689    1.0703   18.7335 C   0  0  0  0  0  0  0  0  0  0  0  0
    3.7778    0.7381   20.1808 C   0  0  0  0  0  0  0  0  0  0  0  0
    2.7198    0.3900   17.9962 C   0  0  0  0  0  0  0  0  0  0  0  0
    1.8603   -0.6246   18.6534 C   0  0  0  0  0  0  0  0  0  0  0  0
    2.6450    0.7190   16.6661 C   0  0  0  0  0  0  0  0  0  0  0  0
 18 19  1  0  0  0
 19 10  1  0  0  0
 10 11  2  0  0  0
 11 12  1  0  0  0
 12 13  2  0  0  0
 13 14  1  0  0  0
 14 15  2  0  0  0
 15 16  1  0  0  0
 12  1  1  0  0  0
  1  2  2  0  0  0
  2  3  1  0  0  0
  3  4  2  0  0  0
  4  5  1  0  0  0
  4  6  1  0  0  0
  6  7  2  0  0  0
  6 20  1  0  0  0
 20 21  2  0  0  0
 20 22  1  0  0  0
 22 24  1  0  0  0
 24 25  1  0  0  0
 25 26  1  0  0  0
 26 27  1  0  0  0
 27 28  1  0  0  0
 28 29  1  0  0  0
 29 30  1  0  0  0
 30 31  1  0  0  0
 31 32  2  0  0  0
 32 33  1  0  0  0
 33 34  2  0  0  0
 34 35  1  0  0  0
 34 36  1  0  0  0
 36 37  1  0  0  0
 36 38  2  0  0  0
 15 10  1  0  0  0
  7  1  1  0  0  0
 28 24  1  0  0  0
 38 31  1  0  0  0
 16 17  1  0  0  0
  5  8  1  0  0  0
  5  9  1  0  0  0
 22 23  1  0  0  0
M  END
> <minimizedAffinity>
-10.04940

> <CNNscore>
0.3151130378

> <CNNaffinity>
6.7521834373

> <CNN_VS>
2.1277010441

> <CNNaffinity_variance>
0.0848427340

$$$$
[H]Oc1c([H])c([H])c(-c2c([H])nc(N([H])[H])c(C(=O)N([H])[C@@]3([H])C([H])([H])C([H])([H])C([H])([H])[C@]3([H])OC([H])([H])c3c([H])c([H])c(C([H])([H])[H])c(C([H])([H])[H])c3[H])c2[H])c([H])c1OC([H])([H])[H]


 38 41  0  0  0  0  0  0  0  0999 V2000
    4.1330    2.4642   18.4187 C   0  0  0  0  0  0  0  0  0  0  0  0
    3.9853    1.2208   17.8526 C   0  0  0  0  0  0  0  0  0  0  0  0
    3.5661    1.1431   16.5820 N   0  0  0  0  0  0  0  0  0  0  0  0
    3.2863    2.2588   15.8479 C   0  0  0  0  0  0  0  0  0  0  0  0
    2.8498    2.0262   14.5095 N   0  0  0  0  0  0  0  0  0  0  0  0
    3.4183    3.5209   16.3684 C   0  0  0  0  0  0  0  0  0  0  0  0
    3.8498    3.5975   17.6762 C   0  0  0  0  0  0  0  0  0  0  0  0
    1.8373    2.0030   14.2944 H   0  0  0  0  0  0  0  0  0  0  0  0
    3.6079    1.8877   13.7997 H   0  0  0  0  0  0  0  0  0  0  0  0
    5.0931    3.8198   21.7942 C   0  0  0  0  0  0  0  0  0  0  0  0
    4.6604    3.7468   20.4862 C   0  0  0  0  0  0  0  0  0  0  0  0
    4.5861    2.5554   19.7944 C   0  0  0  0  0  0  0  0  0  0  0  0
    4.9778    1.4099   20.4981 C   0  0  0  0  0  0  0  0  0  0  0  0
    5.4113    1.4691   21.8027 C   0  0  0  0  0  0  0  0  0  0  0  0
    5.4752    2.6703   22.4680 C   0  0  0  0  0  0  0  0  0  0  0  0
    5.9121    2.7566   23.7936 O   0  0  0  0  0  0  0  0  0  0  0  0
    6.1838    1.8906   24.2522 H   0  0  0  0  0  0  0  0  0  0  0  0
    6.0569    6.0571   22.1999 C   0  0  0  0  0  0  0  0  0  0  0  0
    5.1707    5.0180   22.4987 O   0  0  0  0  0  0  0  0  0  0  0  0
    3.1079    4.6743   15.5466 C   0  0  0  0  0  0  0  0  0  0  0  0
    1.8850    4.7976   15.1796 O   0  0  0  0  0  0  0  0  0  0  0  0
    4.0784    5.6286   15.1543 N   0  0  0  0  0  0  0  0  0  0  0  0
    5.0547    5.5196   15.4539 H   0  0  0  0  0  0  0  0  0  0  0  0
    3.6913    6.7452   14.3384 C   0  0  0  0  0  0  0  0  0  0  0  0
    4.5403    7.9116   14.7384 C   0  0  0  0  0  0  0  0  0  0  0  0
    5.1400    8.4878   13.4924 C   0  0  0  0  0  0  0  0  0  0  0  0
    4.2771    7.9432   12.3983 C   0  0  0  0  0  0  0  0  0  0  0  0
    4.0055    6.5265   12.8725 C   0  0  0  0  0  0  0  0  0  0  0  0
    2.9244    6.0705   12.1622 O   0  0  0  0  0  0  0  0  0  0  0  0
    2.0303    7.0062   11.7285 C   0  0  0  0  0  0  0  0  0  0  0  0
    0.6203    6.5994   11.7054 C   0  0  0  0  0  0  0  0  0  0  0  0
    0.0893    5.8688   10.6725 C   0  0  0  0  0  0  0  0  0  0  0  0
   -1.2378    5.5250   10.7044 C   0  0  0  0  0  0  0  0  0  0  0  0
   -2.0446    5.9062   11.7647 C   0  0  0  0  0  0  0  0  0  0  0  0
   -3.4873    5.5407   11.8134 C   0  0  0  0  0  0  0  0  0  0  0  0
   -1.5407    6.6417   12.8193 C   0  0  0  0  0  0  0  0  0  0  0  0
   -2.4304    7.0342   13.9393 C   0  0  0  0  0  0  0  0  0  0  0  0
   -0.2086    6.9624   12.7441 C   0  0  0  0  0  0  0  0  0  0  0  0
 18 19  1  0  0  0
 19 10  1  0  0  0
 10 11  2  0  0  0
 11 12  1  0  0  0
 12 13  2  0  0  0
 13 14  1  0  0  0
 14 15  2  0  0  0
 15 16  1  0  0  0
 12  1  1  0  0  0
  1  2  2  0  0  0
  2  3  1  0  0  0
  3  4  2  0  0  0
  4  5  1  0  0  0
  4  6  1  0  0  0
  6  7  2  0  0  0
  6 20  1  0  0  0
 20 21  2  0  0  0
 20 22  1  0  0  0
 22 24  1  0  0  0
 24 25  1  0  0  0
 25 26  1  0  0  0
 26 27  1  0  0  0
 27 28  1  0  0  0
 28 29  1  0  0  0
 29 30  1  0  0  0
 30 31  1  0  0  0
 31 32  2  0  0  0
 32 33  1  0  0  0
 33 34  2  0  0  0
 34 35  1  0  0  0
 34 36  1  0  0  0
 36 37  1  0  0  0
 36 38  2  0  0  0
 15 10  1  0  0  0
  7  1  1  0  0  0
 28 24  1  0  0  0
 38 31  1  0  0  0
 16 17  1  0  0  0
  5  8  1  0  0  0
  5  9  1  0  0  0
 22 23  1  0  0  0
M  END
> <minimizedAffinity>
-8.63107

> <CNNscore>
0.2717924118

> <CNNaffinity>
6.3264183998

> <CNN_VS>
1.7194725275

> <CNNaffinity_variance>
0.3814430833

$$$$
[H]Oc1c([H])c([H])c(-c2c([H])nc(N([H])[H])c(C(=O)N([H])[C@@]3([H])C([H])([H])C([H])([H])C([H])([H])[C@]3([H])OC([H])([H])c3c([H])c([H])c(C([H])([H])[H])c(C([H])([H])[H])c3[H])c2[H])c([H])c1OC([H])([H])[H]


 38 41  0  0  0  0  0  0  0  0999 V2000
    4.1196    2.5052   17.9509 C   0  0  0  0  0  0  0  0  0  0  0  0
    3.8108    1.2114   17.6059 C   0  0  0  0  0  0  0  0  0  0  0  0
    3.2771    0.9824   16.3981 N   0  0  0  0  0  0  0  0  0  0  0  0
    3.0371    1.9943   15.5148 C   0  0  0  0  0  0  0  0  0  0  0  0
    2.4662    1.6044   14.2666 N   0  0  0  0  0  0  0  0  0  0  0  0
    3.3281    3.3011   15.8130 C   0  0  0  0  0  0  0  0  0  0  0  0
    3.8771    3.5335   17.0567 C   0  0  0  0  0  0  0  0  0  0  0  0
    1.4409    1.6533   14.1311 H   0  0  0  0  0  0  0  0  0  0  0  0
    3.1438    1.2803   13.5361 H   0  0  0  0  0  0  0  0  0  0  0  0
    5.5340    4.2565   20.9652 C   0  0  0  0  0  0  0  0  0  0  0  0
    4.9847    4.0277   19.7205 C   0  0  0  0  0  0  0  0  0  0  0  0
    4.6974    2.7601   19.2577 C   0  0  0  0  0  0  0  0  0  0  0  0
    4.9963    1.7049   20.1282 C   0  0  0  0  0  0  0  0  0  0  0  0
    5.5443    1.9195   21.3719 C   0  0  0  0  0  0  0  0  0  0  0  0
    5.8204    3.1937   21.8077 C   0  0  0  0  0  0  0  0  0  0  0  0
    6.3771    3.4378   23.0671 O   0  0  0  0  0  0  0  0  0  0  0  0
    6.5727    2.6311   23.6545 H   0  0  0  0  0  0  0  0  0  0  0  0
    4.9134    6.5899   21.4841 C   0  0  0  0  0  0  0  0  0  0  0  0
    5.8266    5.5324   21.4391 O   0  0  0  0  0  0  0  0  0  0  0  0
    3.0533    4.3397   14.8394 C   0  0  0  0  0  0  0  0  0  0  0  0
    1.8340    4.7283   14.7522 O   0  0  0  0  0  0  0  0  0  0  0  0
    4.0536    4.9126   14.0161 N   0  0  0  0  0  0  0  0  0  0  0  0
    5.0266    4.5935   14.0943 H   0  0  0  0  0  0  0  0  0  0  0  0
    3.7010    5.9383   13.0748 C   0  0  0  0  0  0  0  0  0  0  0  0
    4.1262    7.2502   13.6573 C   0  0  0  0  0  0  0  0  0  0  0  0
    4.9345    7.9689   12.6208 C   0  0  0  0  0  0  0  0  0  0  0  0
    4.5721    7.2767   11.3450 C   0  0  0  0  0  0  0  0  0  0  0  0
    4.4765    5.8246   11.7783 C   0  0  0  0  0  0  0  0  0  0  0  0
    3.7780    5.1636   10.8003 O   0  0  0  0  0  0  0  0  0  0  0  0
    4.4171    4.9656    9.6106 C   0  0  0  0  0  0  0  0  0  0  0  0
    4.9342    3.6142    9.3652 C   0  0  0  0  0  0  0  0  0  0  0  0
    6.2552    3.3805    9.0770 C   0  0  0  0  0  0  0  0  0  0  0  0
    6.6771    2.0956    8.8499 C   0  0  0  0  0  0  0  0  0  0  0  0
    5.7866    1.0353    8.9083 C   0  0  0  0  0  0  0  0  0  0  0  0
    6.2294   -0.3651    8.6639 C   0  0  0  0  0  0  0  0  0  0  0  0
    4.4510    1.2372    9.1958 C   0  0  0  0  0  0  0  0  0  0  0  0
    3.5233    0.0812    9.2509 C   0  0  0  0  0  0  0  0  0  0  0  0
    4.0751    2.5385    9.4156 C   0  0  0  0  0  0  0  0  0  0  0  0
 18 19  1  0  0  0
 19 10  1  0  0  0
 10 11  2  0  0  0
 11 12  1  0  0  0
 12 13  2  0  0  0
 13 14  1  0  0  0
 14 15  2  0  0  0
 15 16  1  0  0  0
 12  1  1  0  0  0
  1  2  2  0  0  0
  2  3  1  0  0  0
  3  4  2  0  0  0
  4  5  1  0  0  0
  4  6  1  0  0  0
  6  7  2  0  0  0
  6 20  1  0  0  0
 20 21  2  0  0  0
 20 22  1  0  0  0
 22 24  1  0  0  0
 24 25  1  0  0  0
 25 26  1  0  0  0
 26 27  1  0  0  0
 27 28  1  0  0  0
 28 29  1  0  0  0
 29 30  1  0  0  0
 30 31  1  0  0  0
 31 32  2  0  0  0
 32 33  1  0  0  0
 33 34  2  0  0  0
 34 35  1  0  0  0
 34 36  1  0  0  0
 36 37  1  0  0  0
 36 38  2  0  0  0
 15 10  1  0  0  0
  7  1  1  0  0  0
 28 24  1  0  0  0
 38 31  1  0  0  0
 16 17  1  0  0  0
  5  8  1  0  0  0
  5  9  1  0  0  0
 22 23  1  0  0  0
M  END
> <minimizedAffinity>
-8.08287

> <CNNscore>
0.2453140765

> <CNNaffinity>
6.0779809952

> <CNN_VS>
1.4910142422

> <CNNaffinity_variance>
0.2496098727

$$$$
[H]Oc1c([H])c([H])c(-c2c([H])nc(N([H])[H])c(C(=O)N([H])[C@@]3([H])C([H])([H])C([H])([H])C([H])([H])[C@]3([H])OC([H])([H])c3c([H])c([H])c(C([H])([H])[H])c(C([H])([H])[H])c3[H])c2[H])c([H])c1OC([H])([H])[H]


 38 41  0  0  0  0  0  0  0  0999 V2000
    4.4400    2.6960   19.1630 C   0  0  0  0  0  0  0  0  0  0  0  0
    4.1625    1.4046   19.5419 C   0  0  0  0  0  0  0  0  0  0  0  0
    3.4953    0.6174   18.6868 N   0  0  0  0  0  0  0  0  0  0  0  0
    3.0909    1.0656   17.4631 C   0  0  0  0  0  0  0  0  0  0  0  0
    2.3907    0.1190   16.6571 N   0  0  0  0  0  0  0  0  0  0  0  0
    3.3442    2.3455   17.0399 C   0  0  0  0  0  0  0  0  0  0  0  0
    4.0309    3.1532   17.9222 C   0  0  0  0  0  0  0  0  0  0  0  0
    1.3554    0.1088   16.6561 H   0  0  0  0  0  0  0  0  0  0  0  0
    2.9884   -0.5323   16.0947 H   0  0  0  0  0  0  0  0  0  0  0  0
    6.1415    5.6797   20.6979 C   0  0  0  0  0  0  0  0  0  0  0  0
    5.4543    4.8746   19.8129 C   0  0  0  0  0  0  0  0  0  0  0  0
    5.1619    3.5540   20.0845 C   0  0  0  0  0  0  0  0  0  0  0  0
    5.6044    3.0674   21.3207 C   0  0  0  0  0  0  0  0  0  0  0  0
    6.2906    3.8598   22.2120 C   0  0  0  0  0  0  0  0  0  0  0  0
    6.5685    5.1729   21.9153 C   0  0  0  0  0  0  0  0  0  0  0  0
    7.2641    5.9984   22.8043 O   0  0  0  0  0  0  0  0  0  0  0  0
    7.5603    5.5884   23.6865 H   0  0  0  0  0  0  0  0  0  0  0  0
    7.4617    7.4409   19.5781 C   0  0  0  0  0  0  0  0  0  0  0  0
    6.4402    7.0130   20.4310 O   0  0  0  0  0  0  0  0  0  0  0  0
    2.8927    2.7730   15.7302 C   0  0  0  0  0  0  0  0  0  0  0  0
    1.6413    2.6316   15.4867 O   0  0  0  0  0  0  0  0  0  0  0  0
    3.7605    3.3195   14.7529 N   0  0  0  0  0  0  0  0  0  0  0  0
    4.7608    3.4278   14.9588 H   0  0  0  0  0  0  0  0  0  0  0  0
    3.2358    3.7197   13.4775 C   0  0  0  0  0  0  0  0  0  0  0  0
    3.0215    2.4783   12.6686 C   0  0  0  0  0  0  0  0  0  0  0  0
    1.6215    2.5163   12.1370 C   0  0  0  0  0  0  0  0  0  0  0  0
    1.2325    3.9554   12.2635 C   0  0  0  0  0  0  0  0  0  0  0  0
    1.8614    4.3473   13.5888 C   0  0  0  0  0  0  0  0  0  0  0  0
    1.9064    5.7179   13.6170 O   0  0  0  0  0  0  0  0  0  0  0  0
    2.9946    6.3125   13.0468 C   0  0  0  0  0  0  0  0  0  0  0  0
    3.8121    7.1566   13.9262 C   0  0  0  0  0  0  0  0  0  0  0  0
    4.7200    8.0591   13.4324 C   0  0  0  0  0  0  0  0  0  0  0  0
    5.4603    8.8146   14.3052 C   0  0  0  0  0  0  0  0  0  0  0  0
    5.3013    8.6765   15.6749 C   0  0  0  0  0  0  0  0  0  0  0  0
    6.0978    9.4895   16.6350 C   0  0  0  0  0  0  0  0  0  0  0  0
    4.3962    7.7774   16.2034 C   0  0  0  0  0  0  0  0  0  0  0  0
    4.2497    7.6533   17.6742 C   0  0  0  0  0  0  0  0  0  0  0  0
    3.6784    7.0437   15.2926 C   0  0  0  0  0  0  0  0  0  0  0  0
 18 19  1  0  0  0
 19 10  1  0  0  0
 10 11  2  0  0  0
 11 12  1  0  0  0
 12 13  2  0  0  0
 13 14  1  0  0  0
 14 15  2  0  0  0
 15 16  1  0  0  0
 12  1  1  0  0  0
  1  2  2  0  0  0
  2  3  1  0  0  0
  3  4  2  0  0  0
  4  5  1  0  0  0
  4  6  1  0  0  0
  6  7  2  0  0  0
  6 20  1  0  0  0
 20 21  2  0  0  0
 20 22  1  0  0  0
 22 24  1  0  0  0
 24 25  1  0  0  0
 25 26  1  0  0  0
 26 27  1  0  0  0
 27 28  1  0  0  0
 28 29  1  0  0  0
 29 30  1  0  0  0
 30 31  1  0  0  0
 31 32  2  0  0  0
 32 33  1  0  0  0
 33 34  2  0  0  0
 34 35  1  0  0  0
 34 36  1  0  0  0
 36 37  1  0  0  0
 36 38  2  0  0  0
 15 10  1  0  0  0
  7  1  1  0  0  0
 28 24  1  0  0  0
 38 31  1  0  0  0
 16 17  1  0  0  0
  5  8  1  0  0  0
  5  9  1  0  0  0
 22 23  1  0  0  0
M  END
> <minimizedAffinity>
-8.12096

> <CNNscore>
0.2129994631

> <CNNaffinity>
6.2428903580

> <CNN_VS>
1.3297322989

> <CNNaffinity_variance>
0.6167234778

$$$$
[H]Oc1c([H])c([H])c(-c2c([H])nc(N([H])[H])c(C(=O)N([H])[C@@]3([H])C([H])([H])C([H])([H])C([H])([H])[C@]3([H])OC([H])([H])c3c([H])c([H])c(C([H])([H])[H])c(C([H])([H])[H])c3[H])c2[H])c([H])c1OC([H])([H])[H]


 38 41  0  0  0  0  0  0  0  0999 V2000
    4.1375    2.4778   18.3435 C   0  0  0  0  0  0  0  0  0  0  0  0
    3.9543    1.2431   17.7687 C   0  0  0  0  0  0  0  0  0  0  0  0
    3.5314    1.1863   16.4983 N   0  0  0  0  0  0  0  0  0  0  0  0
    3.2821    2.3147   15.7725 C   0  0  0  0  0  0  0  0  0  0  0  0
    2.8375    2.1040   14.4332 N   0  0  0  0  0  0  0  0  0  0  0  0
    3.4501    3.5688   16.3019 C   0  0  0  0  0  0  0  0  0  0  0  0
    3.8853    3.6239   17.6095 C   0  0  0  0  0  0  0  0  0  0  0  0
    1.8244    2.1107   14.2194 H   0  0  0  0  0  0  0  0  0  0  0  0
    3.5905    1.9495   13.7212 H   0  0  0  0  0  0  0  0  0  0  0  0
    5.2139    3.7869   21.7022 C   0  0  0  0  0  0  0  0  0  0  0  0
    4.7784    3.7356   20.3940 C   0  0  0  0  0  0  0  0  0  0  0  0
    4.5949    2.5463   19.7192 C   0  0  0  0  0  0  0  0  0  0  0  0
    4.8771    1.3797   20.4403 C   0  0  0  0  0  0  0  0  0  0  0  0
    5.3119    1.4172   21.7452 C   0  0  0  0  0  0  0  0  0  0  0  0
    5.4863    2.6167   22.3935 C   0  0  0  0  0  0  0  0  0  0  0  0
    5.9270    2.6812   23.7191 O   0  0  0  0  0  0  0  0  0  0  0  0
    6.1162    1.8004   24.1907 H   0  0  0  0  0  0  0  0  0  0  0  0
    6.4271    5.8956   22.1270 C   0  0  0  0  0  0  0  0  0  0  0  0
    5.4014    4.9828   22.3898 O   0  0  0  0  0  0  0  0  0  0  0  0
    3.1711    4.7363   15.4888 C   0  0  0  0  0  0  0  0  0  0  0  0
    1.9815    4.8295   15.0181 O   0  0  0  0  0  0  0  0  0  0  0  0
    4.1367    5.7350   15.2117 N   0  0  0  0  0  0  0  0  0  0  0  0
    5.0863    5.6498   15.5937 H   0  0  0  0  0  0  0  0  0  0  0  0
    3.7822    6.8629   14.3966 C   0  0  0  0  0  0  0  0  0  0  0  0
    4.5720    8.0375   14.8842 C   0  0  0  0  0  0  0  0  0  0  0  0
    5.2453    8.6583   13.6987 C   0  0  0  0  0  0  0  0  0  0  0  0
    4.4763    8.1224   12.5327 C   0  0  0  0  0  0  0  0  0  0  0  0
    4.2056    6.6885   12.9524 C   0  0  0  0  0  0  0  0  0  0  0  0
    3.1894    6.2265   12.1554 O   0  0  0  0  0  0  0  0  0  0  0  0
    2.1659    7.0913   11.8953 C   0  0  0  0  0  0  0  0  0  0  0  0
    1.7794    7.2395   10.4873 C   0  0  0  0  0  0  0  0  0  0  0  0
    0.7694    6.4989    9.9268 C   0  0  0  0  0  0  0  0  0  0  0  0
    0.4592    6.6774    8.6030 C   0  0  0  0  0  0  0  0  0  0  0  0
    1.1523    7.5944    7.8289 C   0  0  0  0  0  0  0  0  0  0  0  0
    0.8273    7.7993    6.3903 C   0  0  0  0  0  0  0  0  0  0  0  0
    2.1737    8.3550    8.3630 C   0  0  0  0  0  0  0  0  0  0  0  0
    2.8964    9.3280    7.5079 C   0  0  0  0  0  0  0  0  0  0  0  0
    2.4486    8.1423    9.6905 C   0  0  0  0  0  0  0  0  0  0  0  0
 18 19  1  0  0  0
 19 10  1  0  0  0
 10 11  2  0  0  0
 11 12  1  0  0  0
 12 13  2  0  0  0
 13 14  1  0  0  0
 14 15  2  0  0  0
 15 16  1  0  0  0
 12  1  1  0  0  0
  1  2  2  0  0  0
  2  3  1  0  0  0
  3  4  2  0  0  0
  4  5  1  0  0  0
  4  6  1  0  0  0
  6  7  2  0  0  0
  6 20  1  0  0  0
 20 21  2  0  0  0
 20 22  1  0  0  0
 22 24  1  0  0  0
 24 25  1  0  0  0
 25 26  1  0  0  0
 26 27  1  0  0  0
 27 28  1  0  0  0
 28 29  1  0  0  0
 29 30  1  0  0  0
 30 31  1  0  0  0
 31 32  2  0  0  0
 32 33  1  0  0  0
 33 34  2  0  0  0
 34 35  1  0  0  0
 34 36  1  0  0  0
 36 37  1  0  0  0
 36 38  2  0  0  0
 15 10  1  0  0  0
  7  1  1  0  0  0
 28 24  1  0  0  0
 38 31  1  0  0  0
 16 17  1  0  0  0
  5  8  1  0  0  0
  5  9  1  0  0  0
 22 23  1  0  0  0
M  END
> <minimizedAffinity>
-7.64299

> <CNNscore>
0.2112053484

> <CNNaffinity>
5.8974032402

> <CNN_VS>
1.2455631495

> <CNNaffinity_variance>
0.3923317790

$$$$
[H]Oc1c([H])c([H])c(-c2c([H])nc(N([H])[H])c(C(=O)N([H])[C@@]3([H])C([H])([H])C([H])([H])C([H])([H])[C@]3([H])OC([H])([H])c3c([H])c([H])c(C([H])([H])[H])c(C([H])([H])[H])c3[H])c2[H])c([H])c1OC([H])([H])[H]


 38 41  0  0  0  0  0  0  0  0999 V2000
    4.1787    2.4565   18.3672 C   0  0  0  0  0  0  0  0  0  0  0  0
    4.0426    1.1990   17.8301 C   0  0  0  0  0  0  0  0  0  0  0  0
    3.6144    1.0875   16.5651 N   0  0  0  0  0  0  0  0  0  0  0  0
    3.3146    2.1828   15.8086 C   0  0  0  0  0  0  0  0  0  0  0  0
    2.8705    1.9147   14.4793 N   0  0  0  0  0  0  0  0  0  0  0  0
    3.4344    3.4579   16.2997 C   0  0  0  0  0  0  0  0  0  0  0  0
    3.8752    3.5692   17.6019 C   0  0  0  0  0  0  0  0  0  0  0  0
    1.8568    1.8738   14.2730 H   0  0  0  0  0  0  0  0  0  0  0  0
    3.6248    1.7700   13.7666 H   0  0  0  0  0  0  0  0  0  0  0  0
    5.0958    3.8909   21.7220 C   0  0  0  0  0  0  0  0  0  0  0  0
    4.6531    3.7830   20.4197 C   0  0  0  0  0  0  0  0  0  0  0  0
    4.6415    2.5843   19.7368 C   0  0  0  0  0  0  0  0  0  0  0  0
    5.1083    1.4691   20.4432 C   0  0  0  0  0  0  0  0  0  0  0  0
    5.5525    1.5632   21.7421 C   0  0  0  0  0  0  0  0  0  0  0  0
    5.5529    2.7709   22.3988 C   0  0  0  0  0  0  0  0  0  0  0  0
    5.9992    2.8924   23.7185 O   0  0  0  0  0  0  0  0  0  0  0  0
    6.3269    2.0473   24.1794 H   0  0  0  0  0  0  0  0  0  0  0  0
    5.9969    6.1474   22.1637 C   0  0  0  0  0  0  0  0  0  0  0  0
    5.1105    5.0967   22.4177 O   0  0  0  0  0  0  0  0  0  0  0  0
    3.1027    4.5885   15.4549 C   0  0  0  0  0  0  0  0  0  0  0  0
    1.8570    4.7648   15.2052 O   0  0  0  0  0  0  0  0  0  0  0  0
    4.0769    5.4668   14.9200 N   0  0  0  0  0  0  0  0  0  0  0  0
    5.0716    5.3159   15.1264 H   0  0  0  0  0  0  0  0  0  0  0  0
    3.6677    6.5654   14.0906 C   0  0  0  0  0  0  0  0  0  0  0  0
    4.3424    7.7972   14.6088 C   0  0  0  0  0  0  0  0  0  0  0  0
    5.0117    8.4721   13.4509 C   0  0  0  0  0  0  0  0  0  0  0  0
    4.3348    7.8803   12.2552 C   0  0  0  0  0  0  0  0  0  0  0  0
    4.1612    6.4285   12.6647 C   0  0  0  0  0  0  0  0  0  0  0  0
    3.2174    5.8900   11.8277 O   0  0  0  0  0  0  0  0  0  0  0  0
    3.6501    4.9656   10.9215 C   0  0  0  0  0  0  0  0  0  0  0  0
    2.7984    3.7846   10.7374 C   0  0  0  0  0  0  0  0  0  0  0  0
    1.4398    3.8295   10.9238 C   0  0  0  0  0  0  0  0  0  0  0  0
    0.6981    2.6902   10.7437 C   0  0  0  0  0  0  0  0  0  0  0  0
    1.3041    1.4992   10.3767 C   0  0  0  0  0  0  0  0  0  0  0  0
    0.5123    0.2540   10.1776 C   0  0  0  0  0  0  0  0  0  0  0  0
    2.6690    1.4210   10.1814 C   0  0  0  0  0  0  0  0  0  0  0  0
    3.2873    0.1312    9.7889 C   0  0  0  0  0  0  0  0  0  0  0  0
    3.3697    2.5852   10.3729 C   0  0  0  0  0  0  0  0  0  0  0  0
 18 19  1  0  0  0
 19 10  1  0  0  0
 10 11  2  0  0  0
 11 12  1  0  0  0
 12 13  2  0  0  0
 13 14  1  0  0  0
 14 15  2  0  0  0
 15 16  1  0  0  0
 12  1  1  0  0  0
  1  2  2  0  0  0
  2  3  1  0  0  0
  3  4  2  0  0  0
  4  5  1  0  0  0
  4  6  1  0  0  0
  6  7  2  0  0  0
  6 20  1  0  0  0
 20 21  2  0  0  0
 20 22  1  0  0  0
 22 24  1  0  0  0
 24 25  1  0  0  0
 25 26  1  0  0  0
 26 27  1  0  0  0
 27 28  1  0  0  0
 28 29  1  0  0  0
 29 30  1  0  0  0
 30 31  1  0  0  0
 31 32  2  0  0  0
 32 33  1  0  0  0
 33 34  2  0  0  0
 34 35  1  0  0  0
 34 36  1  0  0  0
 36 37  1  0  0  0
 36 38  2  0  0  0
 15 10  1  0  0  0
  7  1  1  0  0  0
 28 24  1  0  0  0
 38 31  1  0  0  0
 16 17  1  0  0  0
  5  8  1  0  0  0
  5  9  1  0  0  0
 22 23  1  0  0  0
M  END
> <minimizedAffinity>
-7.94337

> <CNNscore>
0.2001626790

> <CNNaffinity>
6.1398458481

> <CNN_VS>
1.2289680243

> <CNNaffinity_variance>
0.2192677557

$$$$
[H]Oc1c([H])c([H])c(-c2c([H])nc(N([H])[H])c(C(=O)N([H])[C@@]3([H])C([H])([H])C([H])([H])C([H])([H])[C@]3([H])OC([H])([H])c3c([H])c([H])c(C([H])([H])[H])c(C([H])([H])[H])c3[H])c2[H])c([H])c1OC([H])([H])[H]


 38 41  0  0  0  0  0  0  0  0999 V2000
    3.8977    1.9247   18.4415 C   0  0  0  0  0  0  0  0  0  0  0  0
    3.2667    0.7436   18.1334 C   0  0  0  0  0  0  0  0  0  0  0  0
    2.7176    0.6108   16.9181 N   0  0  0  0  0  0  0  0  0  0  0  0
    2.7713    1.6113   15.9918 C   0  0  0  0  0  0  0  0  0  0  0  0
    2.1449    1.3314   14.7408 N   0  0  0  0  0  0  0  0  0  0  0  0
    3.3895    2.8077   16.2522 C   0  0  0  0  0  0  0  0  0  0  0  0
    3.9535    2.9413   17.5038 C   0  0  0  0  0  0  0  0  0  0  0  0
    1.1717    1.6414   14.5709 H   0  0  0  0  0  0  0  0  0  0  0  0
    2.7289    0.8099   14.0444 H   0  0  0  0  0  0  0  0  0  0  0  0
    4.9231    3.3437   21.7715 C   0  0  0  0  0  0  0  0  0  0  0  0
    4.3508    3.2133   20.5229 C   0  0  0  0  0  0  0  0  0  0  0  0
    4.4940    2.0753   19.7561 C   0  0  0  0  0  0  0  0  0  0  0  0
    5.2600    1.0468   20.3184 C   0  0  0  0  0  0  0  0  0  0  0  0
    5.8361    1.1643   21.5624 C   0  0  0  0  0  0  0  0  0  0  0  0
    5.6769    2.3101   22.3051 C   0  0  0  0  0  0  0  0  0  0  0  0
    6.2521    2.4537   23.5716 O   0  0  0  0  0  0  0  0  0  0  0  0
    6.7980    1.6727   23.9269 H   0  0  0  0  0  0  0  0  0  0  0  0
    4.0692    5.6272   22.1660 C   0  0  0  0  0  0  0  0  0  0  0  0
    4.7831    4.4886   22.5510 O   0  0  0  0  0  0  0  0  0  0  0  0
    3.4187    3.8392   15.2338 C   0  0  0  0  0  0  0  0  0  0  0  0
    4.1072    3.5805   14.1829 O   0  0  0  0  0  0  0  0  0  0  0  0
    2.7359    5.0736   15.3630 N   0  0  0  0  0  0  0  0  0  0  0  0
    2.1878    5.2701   16.2090 H   0  0  0  0  0  0  0  0  0  0  0  0
    2.8141    6.0453   14.3085 C   0  0  0  0  0  0  0  0  0  0  0  0
    1.5320    5.9790   13.5384 C   0  0  0  0  0  0  0  0  0  0  0  0
    0.9933    7.3724   13.4285 C   0  0  0  0  0  0  0  0  0  0  0  0
    2.1784    8.2358   13.7254 C   0  0  0  0  0  0  0  0  0  0  0  0
    2.8732    7.4652   14.8339 C   0  0  0  0  0  0  0  0  0  0  0  0
    4.1547    7.9481   14.9103 O   0  0  0  0  0  0  0  0  0  0  0  0
    4.3250    9.1547   15.5250 C   0  0  0  0  0  0  0  0  0  0  0  0
    4.4138    9.1335   16.9898 C   0  0  0  0  0  0  0  0  0  0  0  0
    3.5433    9.8376   17.7831 C   0  0  0  0  0  0  0  0  0  0  0  0
    3.6819    9.7839   19.1464 C   0  0  0  0  0  0  0  0  0  0  0  0
    4.6876    9.0288   19.7285 C   0  0  0  0  0  0  0  0  0  0  0  0
    4.8509    8.9608   21.2069 C   0  0  0  0  0  0  0  0  0  0  0  0
    5.5795    8.3091   18.9580 C   0  0  0  0  0  0  0  0  0  0  0  0
    6.6451    7.5106   19.6116 C   0  0  0  0  0  0  0  0  0  0  0  0
    5.4023    8.3930   17.5999 C   0  0  0  0  0  0  0  0  0  0  0  0
 18 19  1  0  0  0
 19 10  1  0  0  0
 10 11  2  0  0  0
 11 12  1  0  0  0
 12 13  2  0  0  0
 13 14  1  0  0  0
 14 15  2  0  0  0
 15 16  1  0  0  0
 12  1  1  0  0  0
  1  2  2  0  0  0
  2  3  1  0  0  0
  3  4  2  0  0  0
  4  5  1  0  0  0
  4  6  1  0  0  0
  6  7  2  0  0  0
  6 20  1  0  0  0
 20 21  2  0  0  0
 20 22  1  0  0  0
 22 24  1  0  0  0
 24 25  1  0  0  0
 25 26  1  0  0  0
 26 27  1  0  0  0
 27 28  1  0  0  0
 28 29  1  0  0  0
 29 30  1  0  0  0
 30 31  1  0  0  0
 31 32  2  0  0  0
 32 33  1  0  0  0
 33 34  2  0  0  0
 34 35  1  0  0  0
 34 36  1  0  0  0
 36 37  1  0  0  0
 36 38  2  0  0  0
 15 10  1  0  0  0
  7  1  1  0  0  0
 28 24  1  0  0  0
 38 31  1  0  0  0
 16 17  1  0  0  0
  5  8  1  0  0  0
  5  9  1  0  0  0
 22 23  1  0  0  0
M  END
> <minimizedAffinity>
-8.88463

> <CNNscore>
0.1999541074

> <CNNaffinity>
6.2712802887

> <CNN_VS>
1.2539682388

> <CNNaffinity_variance>
0.3411696851

$$$$
[H]Oc1c([H])c([H])c(-c2c([H])nc(N([H])[H])c(C(=O)N([H])[C@@]3([H])C([H])([H])C([H])([H])C([H])([H])[C@]3([H])OC([H])([H])c3c([H])c([H])c(C([H])([H])[H])c(C([H])([H])[H])c3[H])c2[H])c([H])c1OC([H])([H])[H]


 38 41  0  0  0  0  0  0  0  0999 V2000
    4.4561    3.0973   18.3606 C   0  0  0  0  0  0  0  0  0  0  0  0
    4.2466    1.7394   18.3413 C   0  0  0  0  0  0  0  0  0  0  0  0
    3.6789    1.1960   17.2557 N   0  0  0  0  0  0  0  0  0  0  0  0
    3.3092    1.9534   16.1826 C   0  0  0  0  0  0  0  0  0  0  0  0
    2.7167    1.2418   15.0969 N   0  0  0  0  0  0  0  0  0  0  0  0
    3.4976    3.3117   16.1547 C   0  0  0  0  0  0  0  0  0  0  0  0
    4.0819    3.8679   17.2734 C   0  0  0  0  0  0  0  0  0  0  0  0
    1.6858    1.1808   15.0221 H   0  0  0  0  0  0  0  0  0  0  0  0
    3.3851    0.8081   14.4165 H   0  0  0  0  0  0  0  0  0  0  0  0
    5.8702    3.5750   21.8140 C   0  0  0  0  0  0  0  0  0  0  0  0
    5.2854    2.9975   20.7058 C   0  0  0  0  0  0  0  0  0  0  0  0
    5.0701    3.6922   19.5334 C   0  0  0  0  0  0  0  0  0  0  0  0
    5.4813    5.0307   19.5269 C   0  0  0  0  0  0  0  0  0  0  0  0
    6.0657    5.6185   20.6252 C   0  0  0  0  0  0  0  0  0  0  0  0
    6.2683    4.9024   21.7810 C   0  0  0  0  0  0  0  0  0  0  0  0
    6.8600    5.4770   22.9102 O   0  0  0  0  0  0  0  0  0  0  0  0
    7.1373    6.4532   22.8454 H   0  0  0  0  0  0  0  0  0  0  0  0
    5.0803    2.3518   23.8086 C   0  0  0  0  0  0  0  0  0  0  0  0
    6.0908    2.8807   23.0002 O   0  0  0  0  0  0  0  0  0  0  0  0
    3.0867    4.0713   14.9901 C   0  0  0  0  0  0  0  0  0  0  0  0
    1.8722    3.9139   14.6087 O   0  0  0  0  0  0  0  0  0  0  0  0
    3.9545    4.9461   14.2913 N   0  0  0  0  0  0  0  0  0  0  0  0
    4.9251    5.0641   14.6055 H   0  0  0  0  0  0  0  0  0  0  0  0
    3.4716    5.6641   13.1452 C   0  0  0  0  0  0  0  0  0  0  0  0
    3.0428    7.0207   13.6110 C   0  0  0  0  0  0  0  0  0  0  0  0
    3.6980    8.0354   12.7248 C   0  0  0  0  0  0  0  0  0  0  0  0
    4.1027    7.2461   11.5200 C   0  0  0  0  0  0  0  0  0  0  0  0
    4.5632    5.9341   12.1299 C   0  0  0  0  0  0  0  0  0  0  0  0
    4.5831    5.0103   11.1162 O   0  0  0  0  0  0  0  0  0  0  0  0
    5.8007    4.5022   10.7668 C   0  0  0  0  0  0  0  0  0  0  0  0
    5.8151    3.5573    9.6438 C   0  0  0  0  0  0  0  0  0  0  0  0
    4.7724    2.6993    9.3999 C   0  0  0  0  0  0  0  0  0  0  0  0
    4.8476    1.8339    8.3387 C   0  0  0  0  0  0  0  0  0  0  0  0
    5.9610    1.8173    7.5138 C   0  0  0  0  0  0  0  0  0  0  0  0
    6.0573    0.8834    6.3580 C   0  0  0  0  0  0  0  0  0  0  0  0
    7.0267    2.6679    7.7325 C   0  0  0  0  0  0  0  0  0  0  0  0
    8.2040    2.6255    6.8312 C   0  0  0  0  0  0  0  0  0  0  0  0
    6.9070    3.5154    8.8051 C   0  0  0  0  0  0  0  0  0  0  0  0
 18 19  1  0  0  0
 19 10  1  0  0  0
 10 11  2  0  0  0
 11 12  1  0  0  0
 12 13  2  0  0  0
 13 14  1  0  0  0
 14 15  2  0  0  0
 15 16  1  0  0  0
 12  1  1  0  0  0
  1  2  2  0  0  0
  2  3  1  0  0  0
  3  4  2  0  0  0
  4  5  1  0  0  0
  4  6  1  0  0  0
  6  7  2  0  0  0
  6 20  1  0  0  0
 20 21  2  0  0  0
 20 22  1  0  0  0
 22 24  1  0  0  0
 24 25  1  0  0  0
 25 26  1  0  0  0
 26 27  1  0  0  0
 27 28  1  0  0  0
 28 29  1  0  0  0
 29 30  1  0  0  0
 30 31  1  0  0  0
 31 32  2  0  0  0
 32 33  1  0  0  0
 33 34  2  0  0  0
 34 35  1  0  0  0
 34 36  1  0  0  0
 36 37  1  0  0  0
 36 38  2  0  0  0
 15 10  1  0  0  0
  7  1  1  0  0  0
 28 24  1  0  0  0
 38 31  1  0  0  0
 16 17  1  0  0  0
  5  8  1  0  0  0
  5  9  1  0  0  0
 22 23  1  0  0  0
M  END
> <minimizedAffinity>
-7.69687

> <CNNscore>
0.1945426762

> <CNNaffinity>
5.9611287117

> <CNN_VS>
1.1596939564

> <CNNaffinity_variance>
0.4020264149

$$$$
[H]OC1([H])C([H])([H])C([H])([H])C([H])(N([H])c2nc(N([H])C([H])([H])C([H])([H])C([H])([H])C([H])([H])[H])nc([H])c2-c2nc([H])nc(N([H])C([H])([H])C([H])([H])C([H])([H])C([H])([H])C([H])([H])[H])c2[H])C([H])([H])C1([H])[H]


 35 37  0  0  0  0  0  0  0  0999 V2000
    3.2758    1.6910   16.4729 C   0  0  0  0  0  0  0  0  0  0  0  0
    2.4016    0.5766   16.5921 C   0  0  0  0  0  0  0  0  0  0  0  0
    2.3179   -0.1044   17.7374 N   0  0  0  0  0  0  0  0  0  0  0  0
    3.0361    0.2098   18.8264 C   0  0  0  0  0  0  0  0  0  0  0  0
    3.8638    1.2493   18.7354 N   0  0  0  0  0  0  0  0  0  0  0  0
    3.9976    1.9939   17.5760 C   0  0  0  0  0  0  0  0  0  0  0  0
    3.6067    4.2283   13.6985 C   0  0  0  0  0  0  0  0  0  0  0  0
    3.7108    3.6556   14.9652 C   0  0  0  0  0  0  0  0  0  0  0  0
    3.3127    2.3764   15.1921 C   0  0  0  0  0  0  0  0  0  0  0  0
    2.8110    1.7279   14.0817 N   0  0  0  0  0  0  0  0  0  0  0  0
    2.7084    2.2606   12.8838 C   0  0  0  0  0  0  0  0  0  0  0  0
    3.1094    3.5184   12.6915 N   0  0  0  0  0  0  0  0  0  0  0  0
    4.0487    5.5586   13.4913 N   0  0  0  0  0  0  0  0  0  0  0  0
    5.0223    5.8117   13.8451 H   0  0  0  0  0  0  0  0  0  0  0  0
    3.2390    6.5539   12.8324 C   0  0  0  0  0  0  0  0  0  0  0  0
    2.3459    7.2240   13.8091 C   0  0  0  0  0  0  0  0  0  0  0  0
    1.0169    6.5188   13.9815 C   0  0  0  0  0  0  0  0  0  0  0  0
   -1.3995    6.4793   13.4339 C   0  0  0  0  0  0  0  0  0  0  0  0
   -0.0749    7.1349   13.1416 C   0  0  0  0  0  0  0  0  0  0  0  0
    2.9242   -0.5324   20.0339 N   0  0  0  0  0  0  0  0  0  0  0  0
    2.2457   -1.3392   20.0592 H   0  0  0  0  0  0  0  0  0  0  0  0
    3.6719   -0.2638   21.2343 C   0  0  0  0  0  0  0  0  0  0  0  0
    3.1453    0.9083   22.0307 C   0  0  0  0  0  0  0  0  0  0  0  0
    4.3406    1.5810   22.6951 C   0  0  0  0  0  0  0  0  0  0  0  0
    5.5136    1.6448   21.7632 C   0  0  0  0  0  0  0  0  0  0  0  0
    5.0046    2.9907   17.5396 N   0  0  0  0  0  0  0  0  0  0  0  0
    5.7937    2.9654   16.8882 H   0  0  0  0  0  0  0  0  0  0  0  0
    4.9190    4.0703   18.5414 C   0  0  0  0  0  0  0  0  0  0  0  0
    3.4823    4.5600   18.6240 C   0  0  0  0  0  0  0  0  0  0  0  0
    3.3974    5.4829   19.8228 C   0  0  0  0  0  0  0  0  0  0  0  0
    4.2792    6.6644   19.6019 C   0  0  0  0  0  0  0  0  0  0  0  0
    3.4727    7.8145   19.4373 O   0  0  0  0  0  0  0  0  0  0  0  0
    5.1239    6.5609   18.3573 C   0  0  0  0  0  0  0  0  0  0  0  0
    5.8197    5.2192   18.2470 C   0  0  0  0  0  0  0  0  0  0  0  0
    3.9584    8.4947   18.8927 H   0  0  0  0  0  0  0  0  0  0  0  0
 18 19  1  0  0  0
 19 17  1  0  0  0
 17 16  1  0  0  0
 16 15  1  0  0  0
 15 13  1  0  0  0
 13  7  1  0  0  0
  7  8  2  0  0  0
  8  9  1  0  0  0
  9 10  2  0  0  0
 10 11  1  0  0  0
 11 12  2  0  0  0
  9  1  1  0  0  0
  1  2  2  0  0  0
  2  3  1  0  0  0
  3  4  2  0  0  0
  4 20  1  0  0  0
 20 22  1  0  0  0
 22 23  1  0  0  0
 23 24  1  0  0  0
 24 25  1  0  0  0
  4  5  1  0  0  0
  5  6  2  0  0  0
  6 26  1  0  0  0
 26 28  1  0  0  0
 28 29  1  0  0  0
 29 30  1  0  0  0
 30 31  1  0  0  0
 31 32  1  0  0  0
 31 33  1  0  0  0
 33 34  1  0  0  0
 12  7  1  0  0  0
  6  1  1  0  0  0
 34 28  1  0  0  0
 13 14  1  0  0  0
 20 21  1  0  0  0
 26 27  1  0  0  0
 32 35  1  0  0  0
M  END
> <minimizedAffinity>
-7.56473

> <CNNscore>
0.9409012794

> <CNNaffinity>
7.3724770546

> <CNN_VS>
6.9367733002

> <CNNaffinity_variance>
0.1380668133

$$$$
[H]OC1([H])C([H])([H])C([H])([H])C([H])(N([H])c2nc(N([H])C([H])([H])C([H])([H])C([H])([H])C([H])([H])[H])nc([H])c2-c2nc([H])nc(N([H])C([H])([H])C([H])([H])C([H])([H])C([H])([H])C([H])([H])[H])c2[H])C([H])([H])C1([H])[H]


 35 37  0  0  0  0  0  0  0  0999 V2000
    3.4026    2.4588   15.6813 C   0  0  0  0  0  0  0  0  0  0  0  0
    2.5218    1.9439   14.6917 C   0  0  0  0  0  0  0  0  0  0  0  0
    2.4735    2.4873   13.4732 N   0  0  0  0  0  0  0  0  0  0  0  0
    3.2346    3.5309   13.1097 C   0  0  0  0  0  0  0  0  0  0  0  0
    4.0654    4.0307   14.0230 N   0  0  0  0  0  0  0  0  0  0  0  0
    4.1605    3.5137   15.3037 C   0  0  0  0  0  0  0  0  0  0  0  0
    4.0411    1.4590   19.2642 C   0  0  0  0  0  0  0  0  0  0  0  0
    4.0564    2.2219   18.0976 C   0  0  0  0  0  0  0  0  0  0  0  0
    3.3924    1.8151   16.9841 C   0  0  0  0  0  0  0  0  0  0  0  0
    2.7287    0.6127   17.1210 N   0  0  0  0  0  0  0  0  0  0  0  0
    2.7097   -0.1137   18.2170 C   0  0  0  0  0  0  0  0  0  0  0  0
    3.3697    0.3128   19.2951 N   0  0  0  0  0  0  0  0  0  0  0  0
    4.7283    1.9211   20.4141 N   0  0  0  0  0  0  0  0  0  0  0  0
    5.0948    2.9223   20.3959 H   0  0  0  0  0  0  0  0  0  0  0  0
    4.9403    1.0960   21.5779 C   0  0  0  0  0  0  0  0  0  0  0  0
    4.7875    1.8986   22.8162 C   0  0  0  0  0  0  0  0  0  0  0  0
    3.5766    2.8075   22.7906 C   0  0  0  0  0  0  0  0  0  0  0  0
    4.8142    4.9105   22.3591 C   0  0  0  0  0  0  0  0  0  0  0  0
    3.8854    4.1927   23.3033 C   0  0  0  0  0  0  0  0  0  0  0  0
    3.1635    4.0874   11.8033 N   0  0  0  0  0  0  0  0  0  0  0  0
    2.2193    4.1386   11.3367 H   0  0  0  0  0  0  0  0  0  0  0  0
    4.2913    4.5894   11.0630 C   0  0  0  0  0  0  0  0  0  0  0  0
    4.2696    4.2226    9.5965 C   0  0  0  0  0  0  0  0  0  0  0  0
    4.0059    2.7243    9.5059 C   0  0  0  0  0  0  0  0  0  0  0  0
    4.9781    2.0580    8.5789 C   0  0  0  0  0  0  0  0  0  0  0  0
    4.9712    4.2034   16.2395 N   0  0  0  0  0  0  0  0  0  0  0  0
    5.8410    3.8182   16.6175 H   0  0  0  0  0  0  0  0  0  0  0  0
    4.4811    5.5091   16.7208 C   0  0  0  0  0  0  0  0  0  0  0  0
    5.5378    6.1393   17.6134 C   0  0  0  0  0  0  0  0  0  0  0  0
    5.0995    7.5651   17.8795 C   0  0  0  0  0  0  0  0  0  0  0  0
    3.8079    7.5556   18.6238 C   0  0  0  0  0  0  0  0  0  0  0  0
    4.0311    8.0333   19.9362 O   0  0  0  0  0  0  0  0  0  0  0  0
    3.2089    6.1800   18.7727 C   0  0  0  0  0  0  0  0  0  0  0  0
    3.1935    5.4170   17.4634 C   0  0  0  0  0  0  0  0  0  0  0  0
    3.3434    7.6599   20.5550 H   0  0  0  0  0  0  0  0  0  0  0  0
 18 19  1  0  0  0
 19 17  1  0  0  0
 17 16  1  0  0  0
 16 15  1  0  0  0
 15 13  1  0  0  0
 13  7  1  0  0  0
  7  8  2  0  0  0
  8  9  1  0  0  0
  9 10  2  0  0  0
 10 11  1  0  0  0
 11 12  2  0  0  0
  9  1  1  0  0  0
  1  2  2  0  0  0
  2  3  1  0  0  0
  3  4  2  0  0  0
  4 20  1  0  0  0
 20 22  1  0  0  0
 22 23  1  0  0  0
 23 24  1  0  0  0
 24 25  1  0  0  0
  4  5  1  0  0  0
  5  6  2  0  0  0
  6 26  1  0  0  0
 26 28  1  0  0  0
 28 29  1  0  0  0
 29 30  1  0  0  0
 30 31  1  0  0  0
 31 32  1  0  0  0
 31 33  1  0  0  0
 33 34  1  0  0  0
 12  7  1  0  0  0
  6  1  1  0  0  0
 34 28  1  0  0  0
 13 14  1  0  0  0
 20 21  1  0  0  0
 26 27  1  0  0  0
 32 35  1  0  0  0
M  END
> <minimizedAffinity>
-6.59341

> <CNNscore>
0.5666393042

> <CNNaffinity>
6.9903702736

> <CNN_VS>
3.9610185623

> <CNNaffinity_variance>
0.2246793807

$$$$
[H]OC1([H])C([H])([H])C([H])([H])C([H])(N([H])c2nc(N([H])C([H])([H])C([H])([H])C([H])([H])C([H])([H])[H])nc([H])c2-c2nc([H])nc(N([H])C([H])([H])C([H])([H])C([H])([H])C([H])([H])C([H])([H])[H])c2[H])C([H])([H])C1([H])[H]


 35 37  0  0  0  0  0  0  0  0999 V2000
    3.6456    1.5148   17.6541 C   0  0  0  0  0  0  0  0  0  0  0  0
    2.7121    0.7530   16.9000 C   0  0  0  0  0  0  0  0  0  0  0  0
    2.4893    1.0288   15.6129 N   0  0  0  0  0  0  0  0  0  0  0  0
    3.1163    2.0196   14.9605 C   0  0  0  0  0  0  0  0  0  0  0  0
    3.9934    2.7477   15.6494 N   0  0  0  0  0  0  0  0  0  0  0  0
    4.2669    2.5135   16.9861 C   0  0  0  0  0  0  0  0  0  0  0  0
    4.8794    1.1717   21.2044 C   0  0  0  0  0  0  0  0  0  0  0  0
    4.7423    1.6735   19.9111 C   0  0  0  0  0  0  0  0  0  0  0  0
    3.8279    1.1550   19.0502 C   0  0  0  0  0  0  0  0  0  0  0  0
    3.0789    0.1175   19.5676 N   0  0  0  0  0  0  0  0  0  0  0  0
    3.2021   -0.3626   20.7856 C   0  0  0  0  0  0  0  0  0  0  0  0
    4.1077    0.1685   21.6089 N   0  0  0  0  0  0  0  0  0  0  0  0
    5.8296    1.7476   22.0838 N   0  0  0  0  0  0  0  0  0  0  0  0
    6.8469    1.7614   21.7642 H   0  0  0  0  0  0  0  0  0  0  0  0
    5.4683    2.3009   23.3657 C   0  0  0  0  0  0  0  0  0  0  0  0
    4.1038    2.8808   23.3133 C   0  0  0  0  0  0  0  0  0  0  0  0
    4.0961    4.3926   23.4002 C   0  0  0  0  0  0  0  0  0  0  0  0
    5.7061    5.9282   22.3090 C   0  0  0  0  0  0  0  0  0  0  0  0
    4.5024    5.0461   22.1022 C   0  0  0  0  0  0  0  0  0  0  0  0
    2.8606    2.2885   13.5880 N   0  0  0  0  0  0  0  0  0  0  0  0
    3.2929    1.6502   12.8685 H   0  0  0  0  0  0  0  0  0  0  0  0
    2.0506    3.3746   13.1019 C   0  0  0  0  0  0  0  0  0  0  0  0
    2.8513    4.5537   12.5976 C   0  0  0  0  0  0  0  0  0  0  0  0
    2.2856    5.8045   13.2593 C   0  0  0  0  0  0  0  0  0  0  0  0
    1.7621    5.5022   14.6315 C   0  0  0  0  0  0  0  0  0  0  0  0
    5.1105    3.4305   17.6617 N   0  0  0  0  0  0  0  0  0  0  0  0
    5.9514    3.1464   18.1714 H   0  0  0  0  0  0  0  0  0  0  0  0
    4.6978    4.8469   17.6659 C   0  0  0  0  0  0  0  0  0  0  0  0
    5.6067    5.6275   18.6012 C   0  0  0  0  0  0  0  0  0  0  0  0
    5.3062    7.0971   18.3864 C   0  0  0  0  0  0  0  0  0  0  0  0
    3.8933    7.3753   18.7719 C   0  0  0  0  0  0  0  0  0  0  0  0
    3.8850    8.1784   19.9360 O   0  0  0  0  0  0  0  0  0  0  0  0
    3.1061    6.1347   19.1106 C   0  0  0  0  0  0  0  0  0  0  0  0
    3.2786    5.0452   18.0715 C   0  0  0  0  0  0  0  0  0  0  0  0
    3.0375    8.0340   20.4421 H   0  0  0  0  0  0  0  0  0  0  0  0
 18 19  1  0  0  0
 19 17  1  0  0  0
 17 16  1  0  0  0
 16 15  1  0  0  0
 15 13  1  0  0  0
 13  7  1  0  0  0
  7  8  2  0  0  0
  8  9  1  0  0  0
  9 10  2  0  0  0
 10 11  1  0  0  0
 11 12  2  0  0  0
  9  1  1  0  0  0
  1  2  2  0  0  0
  2  3  1  0  0  0
  3  4  2  0  0  0
  4 20  1  0  0  0
 20 22  1  0  0  0
 22 23  1  0  0  0
 23 24  1  0  0  0
 24 25  1  0  0  0
  4  5  1  0  0  0
  5  6  2  0  0  0
  6 26  1  0  0  0
 26 28  1  0  0  0
 28 29  1  0  0  0
 29 30  1  0  0  0
 30 31  1  0  0  0
 31 32  1  0  0  0
 31 33  1  0  0  0
 33 34  1  0  0  0
 12  7  1  0  0  0
  6  1  1  0  0  0
 34 28  1  0  0  0
 13 14  1  0  0  0
 20 21  1  0  0  0
 26 27  1  0  0  0
 32 35  1  0  0  0
M  END
> <minimizedAffinity>
-7.32056

> <CNNscore>
0.4958288670

> <CNNaffinity>
7.0744948387

> <CNN_VS>
3.5077388287

> <CNNaffinity_variance>
0.3088594973

$$$$
[H]OC1([H])C([H])([H])C([H])([H])C([H])(N([H])c2nc(N([H])C([H])([H])C([H])([H])C([H])([H])C([H])([H])[H])nc([H])c2-c2nc([H])nc(N([H])C([H])([H])C([H])([H])C([H])([H])C([H])([H])C([H])([H])[H])c2[H])C([H])([H])C1([H])[H]


 35 37  0  0  0  0  0  0  0  0999 V2000
    3.3688    3.0726   15.3977 C   0  0  0  0  0  0  0  0  0  0  0  0
    2.7597    1.8001   15.5713 C   0  0  0  0  0  0  0  0  0  0  0  0
    2.9810    1.0836   16.6759 N   0  0  0  0  0  0  0  0  0  0  0  0
    3.7743    1.5063   17.6721 C   0  0  0  0  0  0  0  0  0  0  0  0
    4.3573    2.6952   17.5285 N   0  0  0  0  0  0  0  0  0  0  0  0
    4.1698    3.4846   16.4068 C   0  0  0  0  0  0  0  0  0  0  0  0
    1.7147    4.8773   12.5251 C   0  0  0  0  0  0  0  0  0  0  0  0
    1.8810    4.2946   13.7806 C   0  0  0  0  0  0  0  0  0  0  0  0
    3.0814    3.7877   14.1658 C   0  0  0  0  0  0  0  0  0  0  0  0
    4.0807    3.9024   13.2207 N   0  0  0  0  0  0  0  0  0  0  0  0
    3.9325    4.4495   12.0341 C   0  0  0  0  0  0  0  0  0  0  0  0
    2.7421    4.9403   11.6849 N   0  0  0  0  0  0  0  0  0  0  0  0
    0.4546    5.4137   12.1617 N   0  0  0  0  0  0  0  0  0  0  0  0
    0.4080    6.4593   11.9578 H   0  0  0  0  0  0  0  0  0  0  0  0
   -0.7359    4.6055   12.0627 C   0  0  0  0  0  0  0  0  0  0  0  0
   -1.9470    5.4442   12.2374 C   0  0  0  0  0  0  0  0  0  0  0  0
   -1.7228    6.6298   13.1524 C   0  0  0  0  0  0  0  0  0  0  0  0
   -4.1862    6.7061   12.8942 C   0  0  0  0  0  0  0  0  0  0  0  0
   -3.0126    7.1760   13.7137 C   0  0  0  0  0  0  0  0  0  0  0  0
    3.9895    0.7224   18.8386 N   0  0  0  0  0  0  0  0  0  0  0  0
    4.0259   -0.3260   18.7318 H   0  0  0  0  0  0  0  0  0  0  0  0
    4.1621    1.2550   20.1647 C   0  0  0  0  0  0  0  0  0  0  0  0
    5.5119    0.9494   20.7732 C   0  0  0  0  0  0  0  0  0  0  0  0
    5.9491    2.1831   21.5538 C   0  0  0  0  0  0  0  0  0  0  0  0
    5.4124    3.4370   20.9309 C   0  0  0  0  0  0  0  0  0  0  0  0
    4.9431    4.6666   16.2901 N   0  0  0  0  0  0  0  0  0  0  0  0
    5.5345    4.8708   15.4800 H   0  0  0  0  0  0  0  0  0  0  0  0
    4.9233    5.5991   17.4332 C   0  0  0  0  0  0  0  0  0  0  0  0
    3.5019    5.7108   17.9600 C   0  0  0  0  0  0  0  0  0  0  0  0
    3.5728    6.4747   19.2667 C   0  0  0  0  0  0  0  0  0  0  0  0
    4.0823    7.8516   19.0086 C   0  0  0  0  0  0  0  0  0  0  0  0
    3.0382    8.7777   19.2376 O   0  0  0  0  0  0  0  0  0  0  0  0
    4.5343    8.0697   17.5868 C   0  0  0  0  0  0  0  0  0  0  0  0
    5.4364    6.9557   17.0951 C   0  0  0  0  0  0  0  0  0  0  0  0
    3.1908    9.6020   18.6967 H   0  0  0  0  0  0  0  0  0  0  0  0
 18 19  1  0  0  0
 19 17  1  0  0  0
 17 16  1  0  0  0
 16 15  1  0  0  0
 15 13  1  0  0  0
 13  7  1  0  0  0
  7  8  2  0  0  0
  8  9  1  0  0  0
  9 10  2  0  0  0
 10 11  1  0  0  0
 11 12  2  0  0  0
  9  1  1  0  0  0
  1  2  2  0  0  0
  2  3  1  0  0  0
  3  4  2  0  0  0
  4 20  1  0  0  0
 20 22  1  0  0  0
 22 23  1  0  0  0
 23 24  1  0  0  0
 24 25  1  0  0  0
  4  5  1  0  0  0
  5  6  2  0  0  0
  6 26  1  0  0  0
 26 28  1  0  0  0
 28 29  1  0  0  0
 29 30  1  0  0  0
 30 31  1  0  0  0
 31 32  1  0  0  0
 31 33  1  0  0  0
 33 34  1  0  0  0
 12  7  1  0  0  0
  6  1  1  0  0  0
 34 28  1  0  0  0
 13 14  1  0  0  0
 20 21  1  0  0  0
 26 27  1  0  0  0
 32 35  1  0  0  0
M  END
> <minimizedAffinity>
-7.16673

> <CNNscore>
0.4759551585

> <CNNaffinity>
6.8310217857

> <CNN_VS>
3.2512600422

> <CNNaffinity_variance>
0.6655107737

$$$$
[H]OC1([H])C([H])([H])C([H])([H])C([H])(N([H])c2nc(N([H])C([H])([H])C([H])([H])C([H])([H])C([H])([H])[H])nc([H])c2-c2nc([H])nc(N([H])C([H])([H])C([H])([H])C([H])([H])C([H])([H])C([H])([H])[H])c2[H])C([H])([H])C1([H])[H]


 35 37  0  0  0  0  0  0  0  0999 V2000
    4.0758    2.1343   18.5457 C   0  0  0  0  0  0  0  0  0  0  0  0
    3.2838    1.0801   18.0149 C   0  0  0  0  0  0  0  0  0  0  0  0
    3.0223    1.0162   16.7073 N   0  0  0  0  0  0  0  0  0  0  0  0
    3.4784    1.9210   15.8276 C   0  0  0  0  0  0  0  0  0  0  0  0
    4.2205    2.9189   16.3044 N   0  0  0  0  0  0  0  0  0  0  0  0
    4.5249    3.0423   17.6493 C   0  0  0  0  0  0  0  0  0  0  0  0
    5.3406    2.8095   22.0370 C   0  0  0  0  0  0  0  0  0  0  0  0
    5.1268    2.9752   20.6694 C   0  0  0  0  0  0  0  0  0  0  0  0
    4.3109    2.1356   19.9797 C   0  0  0  0  0  0  0  0  0  0  0  0
    3.7394    1.1378   20.7432 N   0  0  0  0  0  0  0  0  0  0  0  0
    3.9362    0.9737   22.0330 C   0  0  0  0  0  0  0  0  0  0  0  0
    4.7415    1.8153   22.6835 N   0  0  0  0  0  0  0  0  0  0  0  0
    6.1825    3.7141   22.7304 N   0  0  0  0  0  0  0  0  0  0  0  0
    6.3542    3.5272   23.7661 H   0  0  0  0  0  0  0  0  0  0  0  0
    6.7974    4.8511   22.0907 C   0  0  0  0  0  0  0  0  0  0  0  0
    5.9864    6.0728   22.3156 C   0  0  0  0  0  0  0  0  0  0  0  0
    6.6533    7.3323   21.8036 C   0  0  0  0  0  0  0  0  0  0  0  0
    7.7004    8.3686   19.8110 C   0  0  0  0  0  0  0  0  0  0  0  0
    7.4801    7.0837   20.5660 C   0  0  0  0  0  0  0  0  0  0  0  0
    3.1858    1.8258   14.4395 N   0  0  0  0  0  0  0  0  0  0  0  0
    3.9439    1.4757   13.7957 H   0  0  0  0  0  0  0  0  0  0  0  0
    1.9237    2.1744   13.8414 C   0  0  0  0  0  0  0  0  0  0  0  0
    1.7373    3.6604   13.6344 C   0  0  0  0  0  0  0  0  0  0  0  0
    3.0336    4.2041   13.0456 C   0  0  0  0  0  0  0  0  0  0  0  0
    3.4932    5.4260   13.7832 C   0  0  0  0  0  0  0  0  0  0  0  0
    5.2027    4.2131   18.0719 N   0  0  0  0  0  0  0  0  0  0  0  0
    6.0473    4.1931   18.6498 H   0  0  0  0  0  0  0  0  0  0  0  0
    4.6041    5.5088   17.6984 C   0  0  0  0  0  0  0  0  0  0  0  0
    5.7120    6.4790   17.3220 C   0  0  0  0  0  0  0  0  0  0  0  0
    5.0461    7.6988   16.7181 C   0  0  0  0  0  0  0  0  0  0  0  0
    4.1849    8.3522   17.7446 C   0  0  0  0  0  0  0  0  0  0  0  0
    4.7530    9.5996   18.0934 O   0  0  0  0  0  0  0  0  0  0  0  0
    4.0746    7.5665   19.0267 C   0  0  0  0  0  0  0  0  0  0  0  0
    3.7676    6.1036   18.7776 C   0  0  0  0  0  0  0  0  0  0  0  0
    4.4763    9.8520   19.0180 H   0  0  0  0  0  0  0  0  0  0  0  0
 18 19  1  0  0  0
 19 17  1  0  0  0
 17 16  1  0  0  0
 16 15  1  0  0  0
 15 13  1  0  0  0
 13  7  1  0  0  0
  7  8  2  0  0  0
  8  9  1  0  0  0
  9 10  2  0  0  0
 10 11  1  0  0  0
 11 12  2  0  0  0
  9  1  1  0  0  0
  1  2  2  0  0  0
  2  3  1  0  0  0
  3  4  2  0  0  0
  4 20  1  0  0  0
 20 22  1  0  0  0
 22 23  1  0  0  0
 23 24  1  0  0  0
 24 25  1  0  0  0
  4  5  1  0  0  0
  5  6  2  0  0  0
  6 26  1  0  0  0
 26 28  1  0  0  0
 28 29  1  0  0  0
 29 30  1  0  0  0
 30 31  1  0  0  0
 31 32  1  0  0  0
 31 33  1  0  0  0
 33 34  1  0  0  0
 12  7  1  0  0  0
  6  1  1  0  0  0
 34 28  1  0  0  0
 13 14  1  0  0  0
 20 21  1  0  0  0
 26 27  1  0  0  0
 32 35  1  0  0  0
M  END
> <minimizedAffinity>
-6.51637

> <CNNscore>
0.4428271651

> <CNNaffinity>
6.9316072464

> <CNN_VS>
3.0695040226

> <CNNaffinity_variance>
0.2233129740

$$$$
[H]OC1([H])C([H])([H])C([H])([H])C([H])(N([H])c2nc(N([H])C([H])([H])C([H])([H])C([H])([H])C([H])([H])[H])nc([H])c2-c2nc([H])nc(N([H])C([H])([H])C([H])([H])C([H])([H])C([H])([H])C([H])([H])[H])c2[H])C([H])([H])C1([H])[H]


 35 37  0  0  0  0  0  0  0  0999 V2000
    5.0197    2.7831   20.5236 C   0  0  0  0  0  0  0  0  0  0  0  0
    5.7150    2.3983   21.7021 C   0  0  0  0  0  0  0  0  0  0  0  0
    6.4177    3.2925   22.4013 N   0  0  0  0  0  0  0  0  0  0  0  0
    6.5127    4.5832   22.0471 C   0  0  0  0  0  0  0  0  0  0  0  0
    5.8707    4.9646   20.9442 N   0  0  0  0  0  0  0  0  0  0  0  0
    5.1277    4.0856   20.1749 C   0  0  0  0  0  0  0  0  0  0  0  0
    3.3253    0.6414   17.9184 C   0  0  0  0  0  0  0  0  0  0  0  0
    4.1434    1.6259   18.4705 C   0  0  0  0  0  0  0  0  0  0  0  0
    4.2817    1.7501   19.8165 C   0  0  0  0  0  0  0  0  0  0  0  0
    3.5540    0.8374   20.5531 N   0  0  0  0  0  0  0  0  0  0  0  0
    2.7794   -0.0936   20.0408 C   0  0  0  0  0  0  0  0  0  0  0  0
    2.6651   -0.1921   18.7152 N   0  0  0  0  0  0  0  0  0  0  0  0
    3.2179    0.5266   16.5101 N   0  0  0  0  0  0  0  0  0  0  0  0
    3.7247   -0.2884   16.0454 H   0  0  0  0  0  0  0  0  0  0  0  0
    2.4619    1.4576   15.7089 C   0  0  0  0  0  0  0  0  0  0  0  0
    3.3611    2.2015   14.7930 C   0  0  0  0  0  0  0  0  0  0  0  0
    3.6411    3.6167   15.2535 C   0  0  0  0  0  0  0  0  0  0  0  0
    1.8805    5.3602   15.2904 C   0  0  0  0  0  0  0  0  0  0  0  0
    2.4937    4.2046   16.0376 C   0  0  0  0  0  0  0  0  0  0  0  0
    7.2666    5.5138   22.8132 N   0  0  0  0  0  0  0  0  0  0  0  0
    7.6058    5.2131   23.7653 H   0  0  0  0  0  0  0  0  0  0  0  0
    7.6043    6.8461   22.3851 C   0  0  0  0  0  0  0  0  0  0  0  0
    7.1947    7.9228   23.3641 C   0  0  0  0  0  0  0  0  0  0  0  0
    6.5012    9.0219   22.5680 C   0  0  0  0  0  0  0  0  0  0  0  0
    5.3054    8.4892   21.8368 C   0  0  0  0  0  0  0  0  0  0  0  0
    4.5997    4.5600   18.9481 N   0  0  0  0  0  0  0  0  0  0  0  0
    4.1300    3.9545   18.2695 H   0  0  0  0  0  0  0  0  0  0  0  0
    4.8069    5.9864   18.6333 C   0  0  0  0  0  0  0  0  0  0  0  0
    3.4758    6.7147   18.7237 C   0  0  0  0  0  0  0  0  0  0  0  0
    3.7755    8.1974   18.6362 C   0  0  0  0  0  0  0  0  0  0  0  0
    4.3830    8.5025   17.3096 C   0  0  0  0  0  0  0  0  0  0  0  0
    3.4690    9.2715   16.5523 O   0  0  0  0  0  0  0  0  0  0  0  0
    4.6823    7.2745   16.4876 C   0  0  0  0  0  0  0  0  0  0  0  0
    5.4064    6.2113   17.2887 C   0  0  0  0  0  0  0  0  0  0  0  0
    3.6362    9.1356   15.5782 H   0  0  0  0  0  0  0  0  0  0  0  0
 18 19  1  0  0  0
 19 17  1  0  0  0
 17 16  1  0  0  0
 16 15  1  0  0  0
 15 13  1  0  0  0
 13  7  1  0  0  0
  7  8  2  0  0  0
  8  9  1  0  0  0
  9 10  2  0  0  0
 10 11  1  0  0  0
 11 12  2  0  0  0
  9  1  1  0  0  0
  1  2  2  0  0  0
  2  3  1  0  0  0
  3  4  2  0  0  0
  4 20  1  0  0  0
 20 22  1  0  0  0
 22 23  1  0  0  0
 23 24  1  0  0  0
 24 25  1  0  0  0
  4  5  1  0  0  0
  5  6  2  0  0  0
  6 26  1  0  0  0
 26 28  1  0  0  0
 28 29  1  0  0  0
 29 30  1  0  0  0
 30 31  1  0  0  0
 31 32  1  0  0  0
 31 33  1  0  0  0
 33 34  1  0  0  0
 12  7  1  0  0  0
  6  1  1  0  0  0
 34 28  1  0  0  0
 13 14  1  0  0  0
 20 21  1  0  0  0
 26 27  1  0  0  0
 32 35  1  0  0  0
M  END
> <minimizedAffinity>
-7.39695

> <CNNscore>
0.4133540988

> <CNNaffinity>
6.9676542282

> <CNN_VS>
2.8801083565

> <CNNaffinity_variance>
0.2123352736

$$$$
[H]OC1([H])C([H])([H])C([H])([H])C([H])(N([H])c2nc(N([H])C([H])([H])C([H])([H])C([H])([H])C([H])([H])[H])nc([H])c2-c2nc([H])nc(N([H])C([H])([H])C([H])([H])C([H])([H])C([H])([H])C([H])([H])[H])c2[H])C([H])([H])C1([H])[H]


 35 37  0  0  0  0  0  0  0  0999 V2000
    3.5748    2.3970   17.2209 C   0  0  0  0  0  0  0  0  0  0  0  0
    3.5197    1.6805   15.9946 C   0  0  0  0  0  0  0  0  0  0  0  0
    3.4926    2.3283   14.8275 N   0  0  0  0  0  0  0  0  0  0  0  0
    3.5149    3.6668   14.7360 C   0  0  0  0  0  0  0  0  0  0  0  0
    3.5638    4.3578   15.8736 N   0  0  0  0  0  0  0  0  0  0  0  0
    3.5917    3.7454   17.1149 C   0  0  0  0  0  0  0  0  0  0  0  0
    4.4081    0.9212   20.5931 C   0  0  0  0  0  0  0  0  0  0  0  0
    4.4231    1.8003   19.5114 C   0  0  0  0  0  0  0  0  0  0  0  0
    3.5967    1.6191   18.4481 C   0  0  0  0  0  0  0  0  0  0  0  0
    2.7740    0.5151   18.5445 N   0  0  0  0  0  0  0  0  0  0  0  0
    2.7539   -0.3197   19.5604 C   0  0  0  0  0  0  0  0  0  0  0  0
    3.5759   -0.1146   20.5910 N   0  0  0  0  0  0  0  0  0  0  0  0
    5.2694    1.1494   21.6950 N   0  0  0  0  0  0  0  0  0  0  0  0
    5.1357    0.5350   22.5563 H   0  0  0  0  0  0  0  0  0  0  0  0
    6.2949    2.1634   21.6841 C   0  0  0  0  0  0  0  0  0  0  0  0
    5.9236    3.2848   22.5816 C   0  0  0  0  0  0  0  0  0  0  0  0
    4.8133    2.9304   23.5485 C   0  0  0  0  0  0  0  0  0  0  0  0
    3.8748    4.9230   22.4128 C   0  0  0  0  0  0  0  0  0  0  0  0
    3.7079    3.9575   23.5573 C   0  0  0  0  0  0  0  0  0  0  0  0
    3.4876    4.3295   13.4784 N   0  0  0  0  0  0  0  0  0  0  0  0
    4.0699    3.9307   12.6949 H   0  0  0  0  0  0  0  0  0  0  0  0
    2.7203    5.5130   13.1912 C   0  0  0  0  0  0  0  0  0  0  0  0
    1.2249    5.2943   13.2313 C   0  0  0  0  0  0  0  0  0  0  0  0
    0.5653    6.5599   12.6968 C   0  0  0  0  0  0  0  0  0  0  0  0
   -0.7417    6.8214   13.3837 C   0  0  0  0  0  0  0  0  0  0  0  0
    3.5030    4.5701   18.2641 N   0  0  0  0  0  0  0  0  0  0  0  0
    2.8183    4.4190   19.0099 H   0  0  0  0  0  0  0  0  0  0  0  0
    4.4118    5.7304   18.3314 C   0  0  0  0  0  0  0  0  0  0  0  0
    5.6400    5.3543   19.1441 C   0  0  0  0  0  0  0  0  0  0  0  0
    6.6412    6.4797   18.9798 C   0  0  0  0  0  0  0  0  0  0  0  0
    6.0735    7.7350   19.5493 C   0  0  0  0  0  0  0  0  0  0  0  0
    6.8034    8.0836   20.7094 O   0  0  0  0  0  0  0  0  0  0  0  0
    4.6347    7.6036   19.9807 C   0  0  0  0  0  0  0  0  0  0  0  0
    3.7770    6.9417   18.9210 C   0  0  0  0  0  0  0  0  0  0  0  0
    6.2302    8.6241   21.3215 H   0  0  0  0  0  0  0  0  0  0  0  0
 18 19  1  0  0  0
 19 17  1  0  0  0
 17 16  1  0  0  0
 16 15  1  0  0  0
 15 13  1  0  0  0
 13  7  1  0  0  0
  7  8  2  0  0  0
  8  9  1  0  0  0
  9 10  2  0  0  0
 10 11  1  0  0  0
 11 12  2  0  0  0
  9  1  1  0  0  0
  1  2  2  0  0  0
  2  3  1  0  0  0
  3  4  2  0  0  0
  4 20  1  0  0  0
 20 22  1  0  0  0
 22 23  1  0  0  0
 23 24  1  0  0  0
 24 25  1  0  0  0
  4  5  1  0  0  0
  5  6  2  0  0  0
  6 26  1  0  0  0
 26 28  1  0  0  0
 28 29  1  0  0  0
 29 30  1  0  0  0
 30 31  1  0  0  0
 31 32  1  0  0  0
 31 33  1  0  0  0
 33 34  1  0  0  0
 12  7  1  0  0  0
  6  1  1  0  0  0
 34 28  1  0  0  0
 13 14  1  0  0  0
 20 21  1  0  0  0
 26 27  1  0  0  0
 32 35  1  0  0  0
M  END
> <minimizedAffinity>
-6.84240

> <CNNscore>
0.4004508853

> <CNNaffinity>
6.7734770775

> <CNN_VS>
2.7124447823

> <CNNaffinity_variance>
0.4073715806

$$$$
[H]OC1([H])C([H])([H])C([H])([H])C([H])(N([H])c2nc(N([H])C([H])([H])C([H])([H])C([H])([H])C([H])([H])[H])nc([H])c2-c2nc([H])nc(N([H])C([H])([H])C([H])([H])C([H])([H])C([H])([H])C([H])([H])[H])c2[H])C([H])([H])C1([H])[H]


 35 37  0  0  0  0  0  0  0  0999 V2000
    3.5841    2.9118   16.9779 C   0  0  0  0  0  0  0  0  0  0  0  0
    3.0723    1.5933   17.1185 C   0  0  0  0  0  0  0  0  0  0  0  0
    3.3726    0.8564   18.1905 N   0  0  0  0  0  0  0  0  0  0  0  0
    4.1588    1.3003   19.1832 C   0  0  0  0  0  0  0  0  0  0  0  0
    4.6513    2.5326   19.0701 N   0  0  0  0  0  0  0  0  0  0  0  0
    4.3792    3.3452   17.9828 C   0  0  0  0  0  0  0  0  0  0  0  0
    2.2914    3.9581   13.5899 C   0  0  0  0  0  0  0  0  0  0  0  0
    2.4962    3.1777   14.7268 C   0  0  0  0  0  0  0  0  0  0  0  0
    3.2149    3.6471   15.7801 C   0  0  0  0  0  0  0  0  0  0  0  0
    3.7050    4.9266   15.6137 N   0  0  0  0  0  0  0  0  0  0  0  0
    3.5174    5.6692   14.5447 C   0  0  0  0  0  0  0  0  0  0  0  0
    2.8056    5.1816   13.5271 N   0  0  0  0  0  0  0  0  0  0  0  0
    1.5210    3.4459   12.5165 N   0  0  0  0  0  0  0  0  0  0  0  0
    1.2182    4.1332   11.7596 H   0  0  0  0  0  0  0  0  0  0  0  0
    1.1446    2.0568   12.4223 C   0  0  0  0  0  0  0  0  0  0  0  0
    1.4636    1.5243   11.0748 C   0  0  0  0  0  0  0  0  0  0  0  0
    2.9499    1.4834   10.7877 C   0  0  0  0  0  0  0  0  0  0  0  0
    2.1400    1.2781    8.4548 C   0  0  0  0  0  0  0  0  0  0  0  0
    3.2558    0.9464    9.4111 C   0  0  0  0  0  0  0  0  0  0  0  0
    4.4594    0.4936   20.3147 N   0  0  0  0  0  0  0  0  0  0  0  0
    5.4382    0.1121   20.4060 H   0  0  0  0  0  0  0  0  0  0  0  0
    3.5216    0.1545   21.3529 C   0  0  0  0  0  0  0  0  0  0  0  0
    3.3227    1.2499   22.3757 C   0  0  0  0  0  0  0  0  0  0  0  0
    4.7006    1.7927   22.7353 C   0  0  0  0  0  0  0  0  0  0  0  0
    4.6263    2.7285   23.9045 C   0  0  0  0  0  0  0  0  0  0  0  0
    5.0625    4.5835   17.8919 N   0  0  0  0  0  0  0  0  0  0  0  0
    5.6614    4.8356   17.1010 H   0  0  0  0  0  0  0  0  0  0  0  0
    4.9358    5.5073   19.0353 C   0  0  0  0  0  0  0  0  0  0  0  0
    6.1248    5.3173   19.9630 C   0  0  0  0  0  0  0  0  0  0  0  0
    6.0788    6.4418   20.9776 C   0  0  0  0  0  0  0  0  0  0  0  0
    4.8334    6.3267   21.7887 C   0  0  0  0  0  0  0  0  0  0  0  0
    5.1798    5.9745   23.1139 O   0  0  0  0  0  0  0  0  0  0  0  0
    3.8935    5.2538   21.2999 C   0  0  0  0  0  0  0  0  0  0  0  0
    3.6724    5.3246   19.8023 C   0  0  0  0  0  0  0  0  0  0  0  0
    4.4204    5.4938   23.5470 H   0  0  0  0  0  0  0  0  0  0  0  0
 18 19  1  0  0  0
 19 17  1  0  0  0
 17 16  1  0  0  0
 16 15  1  0  0  0
 15 13  1  0  0  0
 13  7  1  0  0  0
  7  8  2  0  0  0
  8  9  1  0  0  0
  9 10  2  0  0  0
 10 11  1  0  0  0
 11 12  2  0  0  0
  9  1  1  0  0  0
  1  2  2  0  0  0
  2  3  1  0  0  0
  3  4  2  0  0  0
  4 20  1  0  0  0
 20 22  1  0  0  0
 22 23  1  0  0  0
 23 24  1  0  0  0
 24 25  1  0  0  0
  4  5  1  0  0  0
  5  6  2  0  0  0
  6 26  1  0  0  0
 26 28  1  0  0  0
 28 29  1  0  0  0
 29 30  1  0  0  0
 30 31  1  0  0  0
 31 32  1  0  0  0
 31 33  1  0  0  0
 33 34  1  0  0  0
 12  7  1  0  0  0
  6  1  1  0  0  0
 34 28  1  0  0  0
 13 14  1  0  0  0
 20 21  1  0  0  0
 26 27  1  0  0  0
 32 35  1  0  0  0
M  END
> <minimizedAffinity>
-6.51533

> <CNNscore>
0.3984671831

> <CNNaffinity>
6.9986519814

> <CNN_VS>
2.7887332439

> <CNNaffinity_variance>
0.4765500128

$$$$
[H]OC1([H])C([H])([H])C([H])([H])C([H])(N([H])c2nc(N([H])C([H])([H])C([H])([H])C([H])([H])C([H])([H])[H])nc([H])c2-c2nc([H])nc(N([H])C([H])([H])C([H])([H])C([H])([H])C([H])([H])C([H])([H])[H])c2[H])C([H])([H])C1([H])[H]


 35 37  0  0  0  0  0  0  0  0999 V2000
    2.8963    2.5598   15.8443 C   0  0  0  0  0  0  0  0  0  0  0  0
    3.1144    1.8571   14.6282 C   0  0  0  0  0  0  0  0  0  0  0  0
    2.9942    2.4772   13.4520 N   0  0  0  0  0  0  0  0  0  0  0  0
    2.6672    3.7739   13.3415 C   0  0  0  0  0  0  0  0  0  0  0  0
    2.4558    4.4505   14.4691 N   0  0  0  0  0  0  0  0  0  0  0  0
    2.5624    3.8646   15.7189 C   0  0  0  0  0  0  0  0  0  0  0  0
    4.0121    1.2287   19.1951 C   0  0  0  0  0  0  0  0  0  0  0  0
    3.9021    2.0828   18.0988 C   0  0  0  0  0  0  0  0  0  0  0  0
    3.0419    1.8128   17.0822 C   0  0  0  0  0  0  0  0  0  0  0  0
    2.3177    0.6484   17.2396 N   0  0  0  0  0  0  0  0  0  0  0  0
    2.4157   -0.1632   18.2696 C   0  0  0  0  0  0  0  0  0  0  0  0
    3.2680    0.1295   19.2534 N   0  0  0  0  0  0  0  0  0  0  0  0
    4.9051    1.5492   20.2476 N   0  0  0  0  0  0  0  0  0  0  0  0
    4.8519    2.5346   20.6517 H   0  0  0  0  0  0  0  0  0  0  0  0
    5.8592    0.6041   20.7736 C   0  0  0  0  0  0  0  0  0  0  0  0
    6.7518    1.2632   21.7583 C   0  0  0  0  0  0  0  0  0  0  0  0
    6.2033    2.5780   22.2718 C   0  0  0  0  0  0  0  0  0  0  0  0
    4.3839    1.9464   23.8311 C   0  0  0  0  0  0  0  0  0  0  0  0
    5.7805    2.4998   23.7183 C   0  0  0  0  0  0  0  0  0  0  0  0
    2.5490    4.4084   12.0747 N   0  0  0  0  0  0  0  0  0  0  0  0
    2.6053    3.8061   11.2110 H   0  0  0  0  0  0  0  0  0  0  0  0
    2.3575    5.8218   11.8798 C   0  0  0  0  0  0  0  0  0  0  0  0
    2.8196    6.3187   10.5288 C   0  0  0  0  0  0  0  0  0  0  0  0
    1.7203    7.2164    9.9737 C   0  0  0  0  0  0  0  0  0  0  0  0
    0.3694    6.5890   10.1465 C   0  0  0  0  0  0  0  0  0  0  0  0
    2.1823    4.6335   16.8471 N   0  0  0  0  0  0  0  0  0  0  0  0
    1.2688    4.5478   17.3009 H   0  0  0  0  0  0  0  0  0  0  0  0
    3.1457    5.6412   17.3300 C   0  0  0  0  0  0  0  0  0  0  0  0
    4.5190    5.3321   16.7563 C   0  0  0  0  0  0  0  0  0  0  0  0
    5.4089    6.5163   17.0753 C   0  0  0  0  0  0  0  0  0  0  0  0
    5.5426    6.6513   18.5539 C   0  0  0  0  0  0  0  0  0  0  0  0
    6.8715    6.3402   18.9247 O   0  0  0  0  0  0  0  0  0  0  0  0
    4.6576    5.7068   19.3273 C   0  0  0  0  0  0  0  0  0  0  0  0
    3.2313    5.7094   18.8153 C   0  0  0  0  0  0  0  0  0  0  0  0
    6.8935    6.0138   19.8672 H   0  0  0  0  0  0  0  0  0  0  0  0
 18 19  1  0  0  0
 19 17  1  0  0  0
 17 16  1  0  0  0
 16 15  1  0  0  0
 15 13  1  0  0  0
 13  7  1  0  0  0
  7  8  2  0  0  0
  8  9  1  0  0  0
  9 10  2  0  0  0
 10 11  1  0  0  0
 11 12  2  0  0  0
  9  1  1  0  0  0
  1  2  2  0  0  0
  2  3  1  0  0  0
  3  4  2  0  0  0
  4 20  1  0  0  0
 20 22  1  0  0  0
 22 23  1  0  0  0
 23 24  1  0  0  0
 24 25  1  0  0  0
  4  5  1  0  0  0
  5  6  2  0  0  0
  6 26  1  0  0  0
 26 28  1  0  0  0
 28 29  1  0  0  0
 29 30  1  0  0  0
 30 31  1  0  0  0
 31 32  1  0  0  0
 31 33  1  0  0  0
 33 34  1  0  0  0
 12  7  1  0  0  0
  6  1  1  0  0  0
 34 28  1  0  0  0
 13 14  1  0  0  0
 20 21  1  0  0  0
 26 27  1  0  0  0
 32 35  1  0  0  0
M  END
> <minimizedAffinity>
-6.30936

> <CNNscore>
0.3612267077

> <CNNaffinity>
6.7168312073

> <CNN_VS>
2.4262988567

> <CNNaffinity_variance>
0.2004795969

$$$$
[H]O[C@]1([H])C([H])([H])C([H])([H])[C@@]([H])(N([H])c2nc(N([H])C([H])(C([H])([H])[H])C([H])([H])[H])nc([H])c2C(=O)N([H])c2c([H])c([H])c(S(=O)(=O)N3C([H])([H])C([H])([H])OC([H])([H])C3([H])[H])c([H])c2[H])C([H])([H])C1([H])[H]


 40 43  0  0  0  0  0  0  0  0999 V2000
    1.2913    2.6274   10.0455 C   0  0  0  0  0  0  0  0  0  0  0  0
    1.0378    1.5785   10.8503 N   0  0  0  0  0  0  0  0  0  0  0  0
    1.3736    1.6108   12.1617 C   0  0  0  0  0  0  0  0  0  0  0  0
    1.9939    2.7398   12.7101 C   0  0  0  0  0  0  0  0  0  0  0  0
    2.2501    3.7990   11.8947 C   0  0  0  0  0  0  0  0  0  0  0  0
    1.8797    3.6954   10.5714 N   0  0  0  0  0  0  0  0  0  0  0  0
    2.3101    2.7386   14.1181 C   0  0  0  0  0  0  0  0  0  0  0  0
    2.0075    3.7213   14.8256 O   0  0  0  0  0  0  0  0  0  0  0  0
    2.9598    1.6633   14.7647 N   0  0  0  0  0  0  0  0  0  0  0  0
    3.2278    0.8287   14.1504 H   0  0  0  0  0  0  0  0  0  0  0  0
    3.3028    1.5532   16.1319 C   0  0  0  0  0  0  0  0  0  0  0  0
    2.7284    0.6394   16.9513 C   0  0  0  0  0  0  0  0  0  0  0  0
    3.0945    0.6051   18.2928 C   0  0  0  0  0  0  0  0  0  0  0  0
    4.0154    1.4562   18.8310 C   0  0  0  0  0  0  0  0  0  0  0  0
    4.5885    2.3761   17.9856 C   0  0  0  0  0  0  0  0  0  0  0  0
    4.2635    2.4525   16.6576 C   0  0  0  0  0  0  0  0  0  0  0  0
    4.4236    1.3507   20.5124 S   0  0  0  0  0  0  0  0  0  0  0  0
    5.8421    0.8734   20.6449 O   0  0  0  0  0  0  0  0  0  0  0  0
    3.5597    0.2388   21.0932 O   0  0  0  0  0  0  0  0  0  0  0  0
    4.1478    2.8351   21.2659 N   0  0  0  0  0  0  0  0  0  0  0  0
    4.9205    3.9284   20.8272 C   0  0  0  0  0  0  0  0  0  0  0  0
    4.4049    5.2712   21.2836 C   0  0  0  0  0  0  0  0  0  0  0  0
    3.5077    5.1516   22.3415 O   0  0  0  0  0  0  0  0  0  0  0  0
    3.8646    4.1781   23.2417 C   0  0  0  0  0  0  0  0  0  0  0  0
    3.7497    2.8210   22.6202 C   0  0  0  0  0  0  0  0  0  0  0  0
    0.9246    2.5198    8.6734 N   0  0  0  0  0  0  0  0  0  0  0  0
    1.6748    2.1549    8.0140 H   0  0  0  0  0  0  0  0  0  0  0  0
   -1.1240    3.8376    9.0347 C   0  0  0  0  0  0  0  0  0  0  0  0
   -0.3851    2.8760    8.1632 C   0  0  0  0  0  0  0  0  0  0  0  0
   -1.2475    1.6638    7.9143 C   0  0  0  0  0  0  0  0  0  0  0  0
    2.8995    4.9626   12.2939 N   0  0  0  0  0  0  0  0  0  0  0  0
    3.7298    5.0397   12.8794 H   0  0  0  0  0  0  0  0  0  0  0  0
    2.3803    6.2770   11.8400 C   0  0  0  0  0  0  0  0  0  0  0  0
    1.0658    6.6124   12.4423 C   0  0  0  0  0  0  0  0  0  0  0  0
    1.1307    7.5270   13.6459 C   0  0  0  0  0  0  0  0  0  0  0  0
    2.5466    7.7470   14.1262 C   0  0  0  0  0  0  0  0  0  0  0  0
    2.4916    8.7180   15.1316 O   0  0  0  0  0  0  0  0  0  0  0  0
    3.2952    8.3531   12.9561 C   0  0  0  0  0  0  0  0  0  0  0  0
    3.4195    7.3408   11.8719 C   0  0  0  0  0  0  0  0  0  0  0  0
    1.7222    9.3194   15.0383 H   0  0  0  0  0  0  0  0  0  0  0  0
 28 29  1  0  0  0
 29 30  1  0  0  0
 29 26  1  0  0  0
 26  1  1  0  0  0
  1  2  2  0  0  0
  2  3  1  0  0  0
  3  4  2  0  0  0
  4  7  1  0  0  0
  7  8  2  0  0  0
  7  9  1  0  0  0
  9 11  1  0  0  0
 11 12  2  0  0  0
 12 13  1  0  0  0
 13 14  2  0  0  0
 14 15  1  0  0  0
 15 16  2  0  0  0
 14 17  1  0  0  0
 17 18  2  0  0  0
 17 19  2  0  0  0
 17 20  1  0  0  0
 20 21  1  0  0  0
 21 22  1  0  0  0
 22 23  1  0  0  0
 23 24  1  0  0  0
 24 25  1  0  0  0
  4  5  1  0  0  0
  5 31  1  0  0  0
 31 33  1  0  0  0
 33 34  1  0  0  0
 34 35  1  0  0  0
 35 36  1  0  0  0
 36 37  1  0  0  0
 36 38  1  0  0  0
 38 39  1  0  0  0
  5  6  2  0  0  0
  6  1  1  0  0  0
 16 11  1  0  0  0
 25 20  1  0  0  0
 39 33  1  0  0  0
 26 27  1  0  0  0
  9 10  1  0  0  0
 31 32  1  0  0  0
 37 40  1  0  0  0
M  END
> <minimizedAffinity>
-7.99017

> <CNNscore>
0.2651203573

> <CNNaffinity>
6.4557199478

> <CNN_VS>
1.7115427256

> <CNNaffinity_variance>
0.0983206630

$$$$
[H]O[C@]1([H])C([H])([H])C([H])([H])[C@@]([H])(N([H])c2nc(N([H])C([H])(C([H])([H])[H])C([H])([H])[H])nc([H])c2C(=O)N([H])c2c([H])c([H])c(S(=O)(=O)N3C([H])([H])C([H])([H])OC([H])([H])C3([H])[H])c([H])c2[H])C([H])([H])C1([H])[H]


 40 43  0  0  0  0  0  0  0  0999 V2000
    4.3152    2.6445   19.3120 C   0  0  0  0  0  0  0  0  0  0  0  0
    3.9962    1.6841   18.4242 N   0  0  0  0  0  0  0  0  0  0  0  0
    3.5817    2.0017   17.1749 C   0  0  0  0  0  0  0  0  0  0  0  0
    3.4754    3.3404   16.7789 C   0  0  0  0  0  0  0  0  0  0  0  0
    3.7975    4.3099   17.6781 C   0  0  0  0  0  0  0  0  0  0  0  0
    4.2125    3.9123   18.9306 N   0  0  0  0  0  0  0  0  0  0  0  0
    3.0539    3.6301   15.4295 C   0  0  0  0  0  0  0  0  0  0  0  0
    2.1823    4.4989   15.2218 O   0  0  0  0  0  0  0  0  0  0  0  0
    3.5815    2.9724   14.2957 N   0  0  0  0  0  0  0  0  0  0  0  0
    4.3196    2.2198   14.4809 H   0  0  0  0  0  0  0  0  0  0  0  0
    3.2520    3.1866   12.9374 C   0  0  0  0  0  0  0  0  0  0  0  0
    3.7712    4.2116   12.2192 C   0  0  0  0  0  0  0  0  0  0  0  0
    3.3817    4.3783   10.8943 C   0  0  0  0  0  0  0  0  0  0  0  0
    2.4922    3.5498   10.2741 C   0  0  0  0  0  0  0  0  0  0  0  0
    1.9760    2.5150   11.0172 C   0  0  0  0  0  0  0  0  0  0  0  0
    2.3255    2.3066   12.3246 C   0  0  0  0  0  0  0  0  0  0  0  0
    2.0576    3.8187    8.6177 S   0  0  0  0  0  0  0  0  0  0  0  0
    1.4931    2.5493    8.0454 O   0  0  0  0  0  0  0  0  0  0  0  0
    3.3607    4.0637    7.8681 O   0  0  0  0  0  0  0  0  0  0  0  0
    0.9989    5.1278    8.5056 N   0  0  0  0  0  0  0  0  0  0  0  0
    1.5627    6.3817    8.1983 C   0  0  0  0  0  0  0  0  0  0  0  0
    0.5557    7.4256    7.7816 C   0  0  0  0  0  0  0  0  0  0  0  0
   -0.7415    7.0696    8.1406 O   0  0  0  0  0  0  0  0  0  0  0  0
   -0.8108    6.4578    9.3679 C   0  0  0  0  0  0  0  0  0  0  0  0
   -0.1523    5.1141    9.3224 C   0  0  0  0  0  0  0  0  0  0  0  0
    4.7299    2.2395   20.6131 N   0  0  0  0  0  0  0  0  0  0  0  0
    4.5761    2.9432   21.3953 H   0  0  0  0  0  0  0  0  0  0  0  0
    4.3911   -0.0178   21.5369 C   0  0  0  0  0  0  0  0  0  0  0  0
    5.3309    0.9511   20.8981 C   0  0  0  0  0  0  0  0  0  0  0  0
    6.5710    1.0774   21.7474 C   0  0  0  0  0  0  0  0  0  0  0  0
    3.6955    5.6759   17.4355 N   0  0  0  0  0  0  0  0  0  0  0  0
    3.0717    6.1444   16.7801 H   0  0  0  0  0  0  0  0  0  0  0  0
    4.5591    6.6153   18.1937 C   0  0  0  0  0  0  0  0  0  0  0  0
    5.7616    7.0314   17.4294 C   0  0  0  0  0  0  0  0  0  0  0  0
    5.6418    8.3679   16.7304 C   0  0  0  0  0  0  0  0  0  0  0  0
    4.2350    8.9177   16.7763 C   0  0  0  0  0  0  0  0  0  0  0  0
    4.2824   10.2092   16.2411 O   0  0  0  0  0  0  0  0  0  0  0  0
    3.8867    9.0520   18.2451 C   0  0  0  0  0  0  0  0  0  0  0  0
    3.7805    7.6976   18.8532 C   0  0  0  0  0  0  0  0  0  0  0  0
    5.1626   10.6308   16.3416 H   0  0  0  0  0  0  0  0  0  0  0  0
 28 29  1  0  0  0
 29 30  1  0  0  0
 29 26  1  0  0  0
 26  1  1  0  0  0
  1  2  2  0  0  0
  2  3  1  0  0  0
  3  4  2  0  0  0
  4  7  1  0  0  0
  7  8  2  0  0  0
  7  9  1  0  0  0
  9 11  1  0  0  0
 11 12  2  0  0  0
 12 13  1  0  0  0
 13 14  2  0  0  0
 14 15  1  0  0  0
 15 16  2  0  0  0
 14 17  1  0  0  0
 17 18  2  0  0  0
 17 19  2  0  0  0
 17 20  1  0  0  0
 20 21  1  0  0  0
 21 22  1  0  0  0
 22 23  1  0  0  0
 23 24  1  0  0  0
 24 25  1  0  0  0
  4  5  1  0  0  0
  5 31  1  0  0  0
 31 33  1  0  0  0
 33 34  1  0  0  0
 34 35  1  0  0  0
 35 36  1  0  0  0
 36 37  1  0  0  0
 36 38  1  0  0  0
 38 39  1  0  0  0
  5  6  2  0  0  0
  6  1  1  0  0  0
 16 11  1  0  0  0
 25 20  1  0  0  0
 39 33  1  0  0  0
 26 27  1  0  0  0
  9 10  1  0  0  0
 31 32  1  0  0  0
 37 40  1  0  0  0
M  END
> <minimizedAffinity>
-6.64898

> <CNNscore>
0.2632689476

> <CNNaffinity>
6.6521081924

> <CNN_VS>
1.7512935400

> <CNNaffinity_variance>
0.5160465837

$$$$
[H]O[C@]1([H])C([H])([H])C([H])([H])[C@@]([H])(N([H])c2nc(N([H])C([H])(C([H])([H])[H])C([H])([H])[H])nc([H])c2C(=O)N([H])c2c([H])c([H])c(S(=O)(=O)N3C([H])([H])C([H])([H])OC([H])([H])C3([H])[H])c([H])c2[H])C([H])([H])C1([H])[H]


 40 43  0  0  0  0  0  0  0  0999 V2000
    4.3666    2.0529   19.8017 C   0  0  0  0  0  0  0  0  0  0  0  0
    4.2888    1.0931   18.8609 N   0  0  0  0  0  0  0  0  0  0  0  0
    4.0092    1.4028   17.5727 C   0  0  0  0  0  0  0  0  0  0  0  0
    3.7940    2.7324   17.1908 C   0  0  0  0  0  0  0  0  0  0  0  0
    3.8721    3.7013   18.1435 C   0  0  0  0  0  0  0  0  0  0  0  0
    4.1616    3.3122   19.4333 N   0  0  0  0  0  0  0  0  0  0  0  0
    3.5243    3.0171   15.8020 C   0  0  0  0  0  0  0  0  0  0  0  0
    3.8886    4.1030   15.3062 O   0  0  0  0  0  0  0  0  0  0  0  0
    2.8539    2.1172   14.9434 N   0  0  0  0  0  0  0  0  0  0  0  0
    2.5331    1.1928   15.3773 H   0  0  0  0  0  0  0  0  0  0  0  0
    2.5518    2.2884   13.5728 C   0  0  0  0  0  0  0  0  0  0  0  0
    3.4140    2.8776   12.7092 C   0  0  0  0  0  0  0  0  0  0  0  0
    3.0398    3.0375   11.3791 C   0  0  0  0  0  0  0  0  0  0  0  0
    1.8328    2.6246   10.8946 C   0  0  0  0  0  0  0  0  0  0  0  0
    0.9709    2.0284   11.7840 C   0  0  0  0  0  0  0  0  0  0  0  0
    1.2896    1.8472   13.1034 C   0  0  0  0  0  0  0  0  0  0  0  0
    1.4385    2.8548    9.2224 S   0  0  0  0  0  0  0  0  0  0  0  0
    2.2218    1.8766    8.3935 O   0  0  0  0  0  0  0  0  0  0  0  0
    1.9685    4.2316    8.8437 O   0  0  0  0  0  0  0  0  0  0  0  0
   -0.2296    2.7282    9.0016 N   0  0  0  0  0  0  0  0  0  0  0  0
   -0.6834    1.7342    8.1123 C   0  0  0  0  0  0  0  0  0  0  0  0
   -2.1610    1.4446    8.2124 C   0  0  0  0  0  0  0  0  0  0  0  0
   -2.8458    2.4581    8.8777 O   0  0  0  0  0  0  0  0  0  0  0  0
   -2.3815    3.7129    8.5690 C   0  0  0  0  0  0  0  0  0  0  0  0
   -0.9981    3.9076    9.1069 C   0  0  0  0  0  0  0  0  0  0  0  0
    4.6501    1.6547   21.1395 N   0  0  0  0  0  0  0  0  0  0  0  0
    3.8987    1.0828   21.6286 H   0  0  0  0  0  0  0  0  0  0  0  0
    6.9770    1.0002   21.6092 C   0  0  0  0  0  0  0  0  0  0  0  0
    5.8797    1.9883   21.8317 C   0  0  0  0  0  0  0  0  0  0  0  0
    5.6664    2.1720   23.3135 C   0  0  0  0  0  0  0  0  0  0  0  0
    3.6372    5.0532   17.9146 N   0  0  0  0  0  0  0  0  0  0  0  0
    2.7357    5.5228   17.8445 H   0  0  0  0  0  0  0  0  0  0  0  0
    4.7901    5.9746   17.7560 C   0  0  0  0  0  0  0  0  0  0  0  0
    4.4127    7.2588   17.1144 C   0  0  0  0  0  0  0  0  0  0  0  0
    4.1693    8.4034   18.0735 C   0  0  0  0  0  0  0  0  0  0  0  0
    4.1523    7.9524   19.5157 C   0  0  0  0  0  0  0  0  0  0  0  0
    4.0754    9.1052   20.3043 O   0  0  0  0  0  0  0  0  0  0  0  0
    5.5062    7.3217   19.7722 C   0  0  0  0  0  0  0  0  0  0  0  0
    5.6212    6.0627   18.9864 C   0  0  0  0  0  0  0  0  0  0  0  0
    4.4518    9.8954   19.8611 H   0  0  0  0  0  0  0  0  0  0  0  0
 28 29  1  0  0  0
 29 30  1  0  0  0
 29 26  1  0  0  0
 26  1  1  0  0  0
  1  2  2  0  0  0
  2  3  1  0  0  0
  3  4  2  0  0  0
  4  7  1  0  0  0
  7  8  2  0  0  0
  7  9  1  0  0  0
  9 11  1  0  0  0
 11 12  2  0  0  0
 12 13  1  0  0  0
 13 14  2  0  0  0
 14 15  1  0  0  0
 15 16  2  0  0  0
 14 17  1  0  0  0
 17 18  2  0  0  0
 17 19  2  0  0  0
 17 20  1  0  0  0
 20 21  1  0  0  0
 21 22  1  0  0  0
 22 23  1  0  0  0
 23 24  1  0  0  0
 24 25  1  0  0  0
  4  5  1  0  0  0
  5 31  1  0  0  0
 31 33  1  0  0  0
 33 34  1  0  0  0
 34 35  1  0  0  0
 35 36  1  0  0  0
 36 37  1  0  0  0
 36 38  1  0  0  0
 38 39  1  0  0  0
  5  6  2  0  0  0
  6  1  1  0  0  0
 16 11  1  0  0  0
 25 20  1  0  0  0
 39 33  1  0  0  0
 26 27  1  0  0  0
  9 10  1  0  0  0
 31 32  1  0  0  0
 37 40  1  0  0  0
M  END
> <minimizedAffinity>
-7.33978

> <CNNscore>
0.2529890835

> <CNNaffinity>
6.6456551552

> <CNN_VS>
1.6812782288

> <CNNaffinity_variance>
0.5374145508

$$$$
[H]O[C@]1([H])C([H])([H])C([H])([H])[C@@]([H])(N([H])c2nc(N([H])C([H])(C([H])([H])[H])C([H])([H])[H])nc([H])c2C(=O)N([H])c2c([H])c([H])c(S(=O)(=O)N3C([H])([H])C([H])([H])OC([H])([H])C3([H])[H])c([H])c2[H])C([H])([H])C1([H])[H]


 40 43  0  0  0  0  0  0  0  0999 V2000
    4.0470    2.0145   19.0815 C   0  0  0  0  0  0  0  0  0  0  0  0
    3.7115    1.4435   17.9095 N   0  0  0  0  0  0  0  0  0  0  0  0
    3.3319    2.1983   16.8514 C   0  0  0  0  0  0  0  0  0  0  0  0
    3.2798    3.5936   16.9545 C   0  0  0  0  0  0  0  0  0  0  0  0
    3.6185    4.1691   18.1404 C   0  0  0  0  0  0  0  0  0  0  0  0
    3.9958    3.3383   19.1731 N   0  0  0  0  0  0  0  0  0  0  0  0
    2.8941    4.3580   15.7928 C   0  0  0  0  0  0  0  0  0  0  0  0
    1.8566    5.0513   15.8194 O   0  0  0  0  0  0  0  0  0  0  0  0
    3.6391    4.3710   14.5924 N   0  0  0  0  0  0  0  0  0  0  0  0
    4.5211    3.7650   14.5714 H   0  0  0  0  0  0  0  0  0  0  0  0
    3.3611    5.0899   13.4070 C   0  0  0  0  0  0  0  0  0  0  0  0
    3.7673    6.3696   13.2240 C   0  0  0  0  0  0  0  0  0  0  0  0
    3.4351    7.0253   12.0431 C   0  0  0  0  0  0  0  0  0  0  0  0
    2.7120    6.4360   11.0470 C   0  0  0  0  0  0  0  0  0  0  0  0
    2.3088    5.1375   11.2490 C   0  0  0  0  0  0  0  0  0  0  0  0
    2.6086    4.4470   12.3929 C   0  0  0  0  0  0  0  0  0  0  0  0
    2.3396    7.3161    9.6009 S   0  0  0  0  0  0  0  0  0  0  0  0
    1.8612    8.6913    9.9718 O   0  0  0  0  0  0  0  0  0  0  0  0
    1.1396    6.6190    8.9731 O   0  0  0  0  0  0  0  0  0  0  0  0
    3.6794    7.3317    8.5753 N   0  0  0  0  0  0  0  0  0  0  0  0
    3.6017    8.1539    7.4340 C   0  0  0  0  0  0  0  0  0  0  0  0
    4.9268    8.3888    6.7513 C   0  0  0  0  0  0  0  0  0  0  0  0
    5.8872    7.4613    7.1463 O   0  0  0  0  0  0  0  0  0  0  0  0
    5.3785    6.1960    7.3062 C   0  0  0  0  0  0  0  0  0  0  0  0
    4.4445    6.1496    8.4753 C   0  0  0  0  0  0  0  0  0  0  0  0
    4.4228    1.1597   20.1570 N   0  0  0  0  0  0  0  0  0  0  0  0
    5.4524    0.8995   20.2126 H   0  0  0  0  0  0  0  0  0  0  0  0
    3.7134    1.1923   22.5149 C   0  0  0  0  0  0  0  0  0  0  0  0
    3.4875    0.6513   21.1415 C   0  0  0  0  0  0  0  0  0  0  0  0
    3.4802   -0.8561   21.1938 C   0  0  0  0  0  0  0  0  0  0  0  0
    3.5687    5.5355   18.3966 N   0  0  0  0  0  0  0  0  0  0  0  0
    2.7613    6.1520   18.3184 H   0  0  0  0  0  0  0  0  0  0  0  0
    4.7966    6.2351   18.8505 C   0  0  0  0  0  0  0  0  0  0  0  0
    5.5806    6.8037   17.7256 C   0  0  0  0  0  0  0  0  0  0  0  0
    5.3453    8.2753   17.4641 C   0  0  0  0  0  0  0  0  0  0  0  0
    4.1925    8.8263   18.2710 C   0  0  0  0  0  0  0  0  0  0  0  0
    4.1719   10.2095   18.0637 O   0  0  0  0  0  0  0  0  0  0  0  0
    4.5518    8.5948   19.7249 C   0  0  0  0  0  0  0  0  0  0  0  0
    4.5441    7.1336   20.0087 C   0  0  0  0  0  0  0  0  0  0  0  0
    5.0536   10.5731   17.8333 H   0  0  0  0  0  0  0  0  0  0  0  0
 28 29  1  0  0  0
 29 30  1  0  0  0
 29 26  1  0  0  0
 26  1  1  0  0  0
  1  2  2  0  0  0
  2  3  1  0  0  0
  3  4  2  0  0  0
  4  7  1  0  0  0
  7  8  2  0  0  0
  7  9  1  0  0  0
  9 11  1  0  0  0
 11 12  2  0  0  0
 12 13  1  0  0  0
 13 14  2  0  0  0
 14 15  1  0  0  0
 15 16  2  0  0  0
 14 17  1  0  0  0
 17 18  2  0  0  0
 17 19  2  0  0  0
 17 20  1  0  0  0
 20 21  1  0  0  0
 21 22  1  0  0  0
 22 23  1  0  0  0
 23 24  1  0  0  0
 24 25  1  0  0  0
  4  5  1  0  0  0
  5 31  1  0  0  0
 31 33  1  0  0  0
 33 34  1  0  0  0
 34 35  1  0  0  0
 35 36  1  0  0  0
 36 37  1  0  0  0
 36 38  1  0  0  0
 38 39  1  0  0  0
  5  6  2  0  0  0
  6  1  1  0  0  0
 16 11  1  0  0  0
 25 20  1  0  0  0
 39 33  1  0  0  0
 26 27  1  0  0  0
  9 10  1  0  0  0
 31 32  1  0  0  0
 37 40  1  0  0  0
M  END
> <minimizedAffinity>
-7.25074

> <CNNscore>
0.2230942100

> <CNNaffinity>
6.3703155518

> <CNN_VS>
1.4211804867

> <CNNaffinity_variance>
0.4551796913

$$$$
[H]O[C@]1([H])C([H])([H])C([H])([H])[C@@]([H])(N([H])c2nc(N([H])C([H])(C([H])([H])[H])C([H])([H])[H])nc([H])c2C(=O)N([H])c2c([H])c([H])c(S(=O)(=O)N3C([H])([H])C([H])([H])OC([H])([H])C3([H])[H])c([H])c2[H])C([H])([H])C1([H])[H]


 40 43  0  0  0  0  0  0  0  0999 V2000
    4.7434    4.0046   20.6943 C   0  0  0  0  0  0  0  0  0  0  0  0
    4.6015    3.0865   19.7200 N   0  0  0  0  0  0  0  0  0  0  0  0
    4.0325    3.4118   18.5352 C   0  0  0  0  0  0  0  0  0  0  0  0
    3.5778    4.7145   18.2977 C   0  0  0  0  0  0  0  0  0  0  0  0
    3.7213    5.6412   19.2841 C   0  0  0  0  0  0  0  0  0  0  0  0
    4.3104    5.2385   20.4631 N   0  0  0  0  0  0  0  0  0  0  0  0
    3.0014    5.0210   17.0106 C   0  0  0  0  0  0  0  0  0  0  0  0
    1.7617    5.0197   16.8668 O   0  0  0  0  0  0  0  0  0  0  0  0
    3.7754    5.3314   15.8700 N   0  0  0  0  0  0  0  0  0  0  0  0
    4.8381    5.3190   15.9965 H   0  0  0  0  0  0  0  0  0  0  0  0
    3.3163    5.6578   14.5731 C   0  0  0  0  0  0  0  0  0  0  0  0
    3.0052    6.9266   14.2130 C   0  0  0  0  0  0  0  0  0  0  0  0
    2.5333    7.1714   12.9277 C   0  0  0  0  0  0  0  0  0  0  0  0
    2.3669    6.1849   11.9995 C   0  0  0  0  0  0  0  0  0  0  0  0
    2.6878    4.9041   12.3814 C   0  0  0  0  0  0  0  0  0  0  0  0
    3.1557    4.6089   13.6341 C   0  0  0  0  0  0  0  0  0  0  0  0
    1.7772    6.5678   10.4151 S   0  0  0  0  0  0  0  0  0  0  0  0
    2.7783    6.1075    9.3936 O   0  0  0  0  0  0  0  0  0  0  0  0
    1.7622    8.0879   10.3201 O   0  0  0  0  0  0  0  0  0  0  0  0
    0.2445    5.8975   10.1938 N   0  0  0  0  0  0  0  0  0  0  0  0
   -0.6658    6.0164   11.2624 C   0  0  0  0  0  0  0  0  0  0  0  0
   -2.0963    5.7108   10.8913 C   0  0  0  0  0  0  0  0  0  0  0  0
   -2.1844    5.0159    9.6880 O   0  0  0  0  0  0  0  0  0  0  0  0
   -1.1893    4.0827    9.5322 C   0  0  0  0  0  0  0  0  0  0  0  0
    0.1394    4.7538    9.3732 C   0  0  0  0  0  0  0  0  0  0  0  0
    5.3374    3.5901   21.9206 N   0  0  0  0  0  0  0  0  0  0  0  0
    6.3798    3.7737   22.0233 H   0  0  0  0  0  0  0  0  0  0  0  0
    3.6297    3.8598   23.6741 C   0  0  0  0  0  0  0  0  0  0  0  0
    4.5997    2.9514   22.9931 C   0  0  0  0  0  0  0  0  0  0  0  0
    5.5130    2.3344   24.0229 C   0  0  0  0  0  0  0  0  0  0  0  0
    3.2753    6.9563   19.2017 N   0  0  0  0  0  0  0  0  0  0  0  0
    2.3109    7.2829   19.1663 H   0  0  0  0  0  0  0  0  0  0  0  0
    4.2677    8.0596   19.1691 C   0  0  0  0  0  0  0  0  0  0  0  0
    5.2830    7.8852   18.1004 C   0  0  0  0  0  0  0  0  0  0  0  0
    5.0091    8.6577   16.8286 C   0  0  0  0  0  0  0  0  0  0  0  0
    3.6367    9.2903   16.8234 C   0  0  0  0  0  0  0  0  0  0  0  0
    3.5606   10.0938   15.6810 O   0  0  0  0  0  0  0  0  0  0  0  0
    3.5971   10.2124   18.0253 C   0  0  0  0  0  0  0  0  0  0  0  0
    3.6314    9.4001   19.2721 C   0  0  0  0  0  0  0  0  0  0  0  0
    4.4386   10.4123   15.3804 H   0  0  0  0  0  0  0  0  0  0  0  0
 28 29  1  0  0  0
 29 30  1  0  0  0
 29 26  1  0  0  0
 26  1  1  0  0  0
  1  2  2  0  0  0
  2  3  1  0  0  0
  3  4  2  0  0  0
  4  7  1  0  0  0
  7  8  2  0  0  0
  7  9  1  0  0  0
  9 11  1  0  0  0
 11 12  2  0  0  0
 12 13  1  0  0  0
 13 14  2  0  0  0
 14 15  1  0  0  0
 15 16  2  0  0  0
 14 17  1  0  0  0
 17 18  2  0  0  0
 17 19  2  0  0  0
 17 20  1  0  0  0
 20 21  1  0  0  0
 21 22  1  0  0  0
 22 23  1  0  0  0
 23 24  1  0  0  0
 24 25  1  0  0  0
  4  5  1  0  0  0
  5 31  1  0  0  0
 31 33  1  0  0  0
 33 34  1  0  0  0
 34 35  1  0  0  0
 35 36  1  0  0  0
 36 37  1  0  0  0
 36 38  1  0  0  0
 38 39  1  0  0  0
  5  6  2  0  0  0
  6  1  1  0  0  0
 16 11  1  0  0  0
 25 20  1  0  0  0
 39 33  1  0  0  0
 26 27  1  0  0  0
  9 10  1  0  0  0
 31 32  1  0  0  0
 37 40  1  0  0  0
M  END
> <minimizedAffinity>
-7.97197

> <CNNscore>
0.1796125919

> <CNNaffinity>
6.1649737358

> <CNN_VS>
1.1073069572

> <CNNaffinity_variance>
0.2981326580

$$$$
[H]O[C@]1([H])C([H])([H])C([H])([H])[C@@]([H])(N([H])c2nc(N([H])C([H])(C([H])([H])[H])C([H])([H])[H])nc([H])c2C(=O)N([H])c2c([H])c([H])c(S(=O)(=O)N3C([H])([H])C([H])([H])OC([H])([H])C3([H])[H])c([H])c2[H])C([H])([H])C1([H])[H]


 40 43  0  0  0  0  0  0  0  0999 V2000
    5.1307    4.5036   20.7590 C   0  0  0  0  0  0  0  0  0  0  0  0
    5.1111    3.5250   19.8348 N   0  0  0  0  0  0  0  0  0  0  0  0
    4.5000    3.7084   18.6405 C   0  0  0  0  0  0  0  0  0  0  0  0
    3.8731    4.9238   18.3407 C   0  0  0  0  0  0  0  0  0  0  0  0
    3.8933    5.9117   19.2767 C   0  0  0  0  0  0  0  0  0  0  0  0
    4.5346    5.6542   20.4689 N   0  0  0  0  0  0  0  0  0  0  0  0
    3.2569    5.0821   17.0454 C   0  0  0  0  0  0  0  0  0  0  0  0
    2.0313    5.3022   16.9610 O   0  0  0  0  0  0  0  0  0  0  0  0
    3.9753    5.0012   15.8314 N   0  0  0  0  0  0  0  0  0  0  0  0
    5.0237    4.8002   15.9096 H   0  0  0  0  0  0  0  0  0  0  0  0
    3.4768    5.1532   14.5170 C   0  0  0  0  0  0  0  0  0  0  0  0
    3.2929    4.0989   13.6858 C   0  0  0  0  0  0  0  0  0  0  0  0
    2.8243    4.3248   12.3958 C   0  0  0  0  0  0  0  0  0  0  0  0
    2.5362    5.5711   11.9202 C   0  0  0  0  0  0  0  0  0  0  0  0
    2.7278    6.6288   12.7769 C   0  0  0  0  0  0  0  0  0  0  0  0
    3.1873    6.4615   14.0559 C   0  0  0  0  0  0  0  0  0  0  0  0
    1.9519    5.7738   10.3009 S   0  0  0  0  0  0  0  0  0  0  0  0
    2.0707    7.2205    9.9130 O   0  0  0  0  0  0  0  0  0  0  0  0
    0.4577    5.4817   10.3457 O   0  0  0  0  0  0  0  0  0  0  0  0
    2.7760    4.7351    9.2573 N   0  0  0  0  0  0  0  0  0  0  0  0
    4.0341    5.1639    8.7901 C   0  0  0  0  0  0  0  0  0  0  0  0
    4.8589    4.0740    8.1504 C   0  0  0  0  0  0  0  0  0  0  0  0
    4.0847    2.9684    7.8085 O   0  0  0  0  0  0  0  0  0  0  0  0
    2.8470    3.3090    7.3212 C   0  0  0  0  0  0  0  0  0  0  0  0
    2.0073    3.9179    8.4007 C   0  0  0  0  0  0  0  0  0  0  0  0
    5.7788    4.2375   21.9991 N   0  0  0  0  0  0  0  0  0  0  0  0
    6.7713    4.6060   22.0990 H   0  0  0  0  0  0  0  0  0  0  0  0
    5.3177    2.0292   22.9862 C   0  0  0  0  0  0  0  0  0  0  0  0
    5.1572    3.5103   23.0887 C   0  0  0  0  0  0  0  0  0  0  0  0
    3.6936    3.8448   23.2339 C   0  0  0  0  0  0  0  0  0  0  0  0
    3.2738    7.1488   19.1311 N   0  0  0  0  0  0  0  0  0  0  0  0
    2.2758    7.3366   19.0481 H   0  0  0  0  0  0  0  0  0  0  0  0
    4.1048    8.3782   19.0963 C   0  0  0  0  0  0  0  0  0  0  0  0
    5.3362    8.2142   18.2840 C   0  0  0  0  0  0  0  0  0  0  0  0
    5.2423    8.7437   16.8697 C   0  0  0  0  0  0  0  0  0  0  0  0
    3.8337    9.1453   16.4977 C   0  0  0  0  0  0  0  0  0  0  0  0
    3.9003    9.7548   15.2404 O   0  0  0  0  0  0  0  0  0  0  0  0
    3.4266   10.2124   17.4938 C   0  0  0  0  0  0  0  0  0  0  0  0
    3.2986    9.6027   18.8456 C   0  0  0  0  0  0  0  0  0  0  0  0
    4.7751   10.1609   15.0601 H   0  0  0  0  0  0  0  0  0  0  0  0
 28 29  1  0  0  0
 29 30  1  0  0  0
 29 26  1  0  0  0
 26  1  1  0  0  0
  1  2  2  0  0  0
  2  3  1  0  0  0
  3  4  2  0  0  0
  4  7  1  0  0  0
  7  8  2  0  0  0
  7  9  1  0  0  0
  9 11  1  0  0  0
 11 12  2  0  0  0
 12 13  1  0  0  0
 13 14  2  0  0  0
 14 15  1  0  0  0
 15 16  2  0  0  0
 14 17  1  0  0  0
 17 18  2  0  0  0
 17 19  2  0  0  0
 17 20  1  0  0  0
 20 21  1  0  0  0
 21 22  1  0  0  0
 22 23  1  0  0  0
 23 24  1  0  0  0
 24 25  1  0  0  0
  4  5  1  0  0  0
  5 31  1  0  0  0
 31 33  1  0  0  0
 33 34  1  0  0  0
 34 35  1  0  0  0
 35 36  1  0  0  0
 36 37  1  0  0  0
 36 38  1  0  0  0
 38 39  1  0  0  0
  5  6  2  0  0  0
  6  1  1  0  0  0
 16 11  1  0  0  0
 25 20  1  0  0  0
 39 33  1  0  0  0
 26 27  1  0  0  0
  9 10  1  0  0  0
 31 32  1  0  0  0
 37 40  1  0  0  0
M  END
> <minimizedAffinity>
-7.21712

> <CNNscore>
0.1631432325

> <CNNaffinity>
6.1800031662

> <CNN_VS>
1.0082256794

> <CNNaffinity_variance>
0.3007641435

$$$$
[H]O[C@]1([H])C([H])([H])C([H])([H])[C@@]([H])(N([H])c2nc(N([H])C([H])(C([H])([H])[H])C([H])([H])[H])nc([H])c2C(=O)N([H])c2c([H])c([H])c(S(=O)(=O)N3C([H])([H])C([H])([H])OC([H])([H])C3([H])[H])c([H])c2[H])C([H])([H])C1([H])[H]


 40 43  0  0  0  0  0  0  0  0999 V2000
    5.9868    6.1385   21.7436 C   0  0  0  0  0  0  0  0  0  0  0  0
    6.0734    4.9164   21.1857 N   0  0  0  0  0  0  0  0  0  0  0  0
    5.3812    4.6141   20.0619 C   0  0  0  0  0  0  0  0  0  0  0  0
    4.5576    5.5696   19.4545 C   0  0  0  0  0  0  0  0  0  0  0  0
    4.4706    6.8043   20.0204 C   0  0  0  0  0  0  0  0  0  0  0  0
    5.2041    7.0405   21.1629 N   0  0  0  0  0  0  0  0  0  0  0  0
    3.8592    5.2100   18.2439 C   0  0  0  0  0  0  0  0  0  0  0  0
    2.6123    5.2515   18.2081 O   0  0  0  0  0  0  0  0  0  0  0  0
    4.5178    4.8020   17.0624 N   0  0  0  0  0  0  0  0  0  0  0  0
    5.5864    4.7566   17.1030 H   0  0  0  0  0  0  0  0  0  0  0  0
    3.9357    4.4430   15.8248 C   0  0  0  0  0  0  0  0  0  0  0  0
    3.6725    5.3541   14.8569 C   0  0  0  0  0  0  0  0  0  0  0  0
    3.0735    4.9342   13.6738 C   0  0  0  0  0  0  0  0  0  0  0  0
    2.7343    3.6339   13.4364 C   0  0  0  0  0  0  0  0  0  0  0  0
    3.0089    2.7231   14.4286 C   0  0  0  0  0  0  0  0  0  0  0  0
    3.5968    3.0837   15.6116 C   0  0  0  0  0  0  0  0  0  0  0  0
    1.9935    3.1853   11.9349 S   0  0  0  0  0  0  0  0  0  0  0  0
    1.7313    1.7058   11.9388 O   0  0  0  0  0  0  0  0  0  0  0  0
    3.0431    3.4139   10.8551 O   0  0  0  0  0  0  0  0  0  0  0  0
    0.6029    4.1069   11.6811 N   0  0  0  0  0  0  0  0  0  0  0  0
    0.6186    5.0018   10.5932 C   0  0  0  0  0  0  0  0  0  0  0  0
   -0.7407    5.5370   10.2148 C   0  0  0  0  0  0  0  0  0  0  0  0
   -1.6754    5.3469   11.2290 O   0  0  0  0  0  0  0  0  0  0  0  0
   -1.1535    5.5412   12.4842 C   0  0  0  0  0  0  0  0  0  0  0  0
   -0.1608    4.4695   12.8115 C   0  0  0  0  0  0  0  0  0  0  0  0
    6.7307    6.3833   22.9333 N   0  0  0  0  0  0  0  0  0  0  0  0
    6.5276    5.7397   23.7551 H   0  0  0  0  0  0  0  0  0  0  0  0
    8.5288    7.6472   21.8229 C   0  0  0  0  0  0  0  0  0  0  0  0
    7.7175    7.4382   23.0590 C   0  0  0  0  0  0  0  0  0  0  0  0
    8.6412    7.2164   24.2306 C   0  0  0  0  0  0  0  0  0  0  0  0
    3.6588    7.8317   19.5508 N   0  0  0  0  0  0  0  0  0  0  0  0
    2.6426    7.8343   19.4763 H   0  0  0  0  0  0  0  0  0  0  0  0
    4.2811    9.1020   19.1009 C   0  0  0  0  0  0  0  0  0  0  0  0
    5.5311    8.8857   18.3302 C   0  0  0  0  0  0  0  0  0  0  0  0
    5.3676    8.9231   16.8265 C   0  0  0  0  0  0  0  0  0  0  0  0
    3.9166    8.9624   16.4060 C   0  0  0  0  0  0  0  0  0  0  0  0
    3.8970    9.1490   15.0198 O   0  0  0  0  0  0  0  0  0  0  0  0
    3.3327   10.2108   17.0361 C   0  0  0  0  0  0  0  0  0  0  0  0
    3.2907   10.0442   18.5147 C   0  0  0  0  0  0  0  0  0  0  0  0
    4.6967    9.6094   14.6864 H   0  0  0  0  0  0  0  0  0  0  0  0
 28 29  1  0  0  0
 29 30  1  0  0  0
 29 26  1  0  0  0
 26  1  1  0  0  0
  1  2  2  0  0  0
  2  3  1  0  0  0
  3  4  2  0  0  0
  4  7  1  0  0  0
  7  8  2  0  0  0
  7  9  1  0  0  0
  9 11  1  0  0  0
 11 12  2  0  0  0
 12 13  1  0  0  0
 13 14  2  0  0  0
 14 15  1  0  0  0
 15 16  2  0  0  0
 14 17  1  0  0  0
 17 18  2  0  0  0
 17 19  2  0  0  0
 17 20  1  0  0  0
 20 21  1  0  0  0
 21 22  1  0  0  0
 22 23  1  0  0  0
 23 24  1  0  0  0
 24 25  1  0  0  0
  4  5  1  0  0  0
  5 31  1  0  0  0
 31 33  1  0  0  0
 33 34  1  0  0  0
 34 35  1  0  0  0
 35 36  1  0  0  0
 36 37  1  0  0  0
 36 38  1  0  0  0
 38 39  1  0  0  0
  5  6  2  0  0  0
  6  1  1  0  0  0
 16 11  1  0  0  0
 25 20  1  0  0  0
 39 33  1  0  0  0
 26 27  1  0  0  0
  9 10  1  0  0  0
 31 32  1  0  0  0
 37 40  1  0  0  0
M  END
> <minimizedAffinity>
-7.71816

> <CNNscore>
0.1589322984

> <CNNaffinity>
5.7855734825

> <CNN_VS>
0.9195144773

> <CNNaffinity_variance>
0.2215095758

$$$$
[H]O[C@]1([H])C([H])([H])C([H])([H])[C@@]([H])(N([H])c2nc(N([H])C([H])(C([H])([H])[H])C([H])([H])[H])nc([H])c2C(=O)N([H])c2c([H])c([H])c(S(=O)(=O)N3C([H])([H])C([H])([H])OC([H])([H])C3([H])[H])c([H])c2[H])C([H])([H])C1([H])[H]


 40 43  0  0  0  0  0  0  0  0999 V2000
    5.0645    1.7614   20.1665 C   0  0  0  0  0  0  0  0  0  0  0  0
    4.4028    1.1233   19.1830 N   0  0  0  0  0  0  0  0  0  0  0  0
    4.0403    1.7743   18.0524 C   0  0  0  0  0  0  0  0  0  0  0  0
    4.3468    3.1297   17.8819 C   0  0  0  0  0  0  0  0  0  0  0  0
    5.0151    3.7734   18.8777 C   0  0  0  0  0  0  0  0  0  0  0  0
    5.3525    3.0469   19.9990 N   0  0  0  0  0  0  0  0  0  0  0  0
    3.9629    3.7750   16.6495 C   0  0  0  0  0  0  0  0  0  0  0  0
    4.8156    4.3876   15.9749 O   0  0  0  0  0  0  0  0  0  0  0  0
    2.6435    3.7560   16.1442 N   0  0  0  0  0  0  0  0  0  0  0  0
    1.9142    3.2396   16.7333 H   0  0  0  0  0  0  0  0  0  0  0  0
    2.1642    4.3397   14.9489 C   0  0  0  0  0  0  0  0  0  0  0  0
    1.7215    5.6193   14.8946 C   0  0  0  0  0  0  0  0  0  0  0  0
    1.2382    6.1201   13.6903 C   0  0  0  0  0  0  0  0  0  0  0  0
    1.1880    5.3777   12.5464 C   0  0  0  0  0  0  0  0  0  0  0  0
    1.6417    4.0822   12.6193 C   0  0  0  0  0  0  0  0  0  0  0  0
    2.1267    3.5402   13.7795 C   0  0  0  0  0  0  0  0  0  0  0  0
    0.5756    6.0724   11.0811 S   0  0  0  0  0  0  0  0  0  0  0  0
    0.1651    7.4935   11.3450 O   0  0  0  0  0  0  0  0  0  0  0  0
   -0.7123    5.3255   10.7594 O   0  0  0  0  0  0  0  0  0  0  0  0
    1.7230    5.9284    9.8523 N   0  0  0  0  0  0  0  0  0  0  0  0
    1.6176    4.8061    9.0072 C   0  0  0  0  0  0  0  0  0  0  0  0
    2.4394    4.9045    7.7453 C   0  0  0  0  0  0  0  0  0  0  0  0
    3.4171    5.8915    7.8369 O   0  0  0  0  0  0  0  0  0  0  0  0
    4.0006    5.9564    9.0782 C   0  0  0  0  0  0  0  0  0  0  0  0
    3.0156    6.4403   10.0965 C   0  0  0  0  0  0  0  0  0  0  0  0
    5.4021    1.0193   21.3344 N   0  0  0  0  0  0  0  0  0  0  0  0
    6.1584    0.2807   21.2193 H   0  0  0  0  0  0  0  0  0  0  0  0
    3.3085    1.4933   22.5410 C   0  0  0  0  0  0  0  0  0  0  0  0
    4.7755    1.2272   22.6253 C   0  0  0  0  0  0  0  0  0  0  0  0
    5.4390    2.3327   23.4082 C   0  0  0  0  0  0  0  0  0  0  0  0
    5.3433    5.1251   18.8615 N   0  0  0  0  0  0  0  0  0  0  0  0
    6.1496    5.5622   18.4179 H   0  0  0  0  0  0  0  0  0  0  0  0
    4.4515    6.0978   19.5413 C   0  0  0  0  0  0  0  0  0  0  0  0
    3.6766    5.4864   20.6499 C   0  0  0  0  0  0  0  0  0  0  0  0
    4.2614    5.6982   22.0292 C   0  0  0  0  0  0  0  0  0  0  0  0
    5.6408    6.3137   21.9814 C   0  0  0  0  0  0  0  0  0  0  0  0
    6.0072    6.6000   23.3006 O   0  0  0  0  0  0  0  0  0  0  0  0
    5.4827    7.6377   21.2611 C   0  0  0  0  0  0  0  0  0  0  0  0
    5.1344    7.3859   19.8360 C   0  0  0  0  0  0  0  0  0  0  0  0
    5.2345    6.7492   23.8865 H   0  0  0  0  0  0  0  0  0  0  0  0
 28 29  1  0  0  0
 29 30  1  0  0  0
 29 26  1  0  0  0
 26  1  1  0  0  0
  1  2  2  0  0  0
  2  3  1  0  0  0
  3  4  2  0  0  0
  4  7  1  0  0  0
  7  8  2  0  0  0
  7  9  1  0  0  0
  9 11  1  0  0  0
 11 12  2  0  0  0
 12 13  1  0  0  0
 13 14  2  0  0  0
 14 15  1  0  0  0
 15 16  2  0  0  0
 14 17  1  0  0  0
 17 18  2  0  0  0
 17 19  2  0  0  0
 17 20  1  0  0  0
 20 21  1  0  0  0
 21 22  1  0  0  0
 22 23  1  0  0  0
 23 24  1  0  0  0
 24 25  1  0  0  0
  4  5  1  0  0  0
  5 31  1  0  0  0
 31 33  1  0  0  0
 33 34  1  0  0  0
 34 35  1  0  0  0
 35 36  1  0  0  0
 36 37  1  0  0  0
 36 38  1  0  0  0
 38 39  1  0  0  0
  5  6  2  0  0  0
  6  1  1  0  0  0
 16 11  1  0  0  0
 25 20  1  0  0  0
 39 33  1  0  0  0
 26 27  1  0  0  0
  9 10  1  0  0  0
 31 32  1  0  0  0
 37 40  1  0  0  0
M  END
> <minimizedAffinity>
-7.65018

> <CNNscore>
0.1508379132

> <CNNaffinity>
6.4146318436

> <CNN_VS>
0.9675697088

> <CNNaffinity_variance>
0.2688990533

$$$$
[H]O[C@]1([H])C([H])([H])C([H])([H])[C@@]([H])(N([H])c2nc(N([H])C([H])(C([H])([H])[H])C([H])([H])[H])nc([H])c2C(=O)N([H])c2c([H])c([H])c(S(=O)(=O)N3C([H])([H])C([H])([H])OC([H])([H])C3([H])[H])c([H])c2[H])C([H])([H])C1([H])[H]


 40 43  0  0  0  0  0  0  0  0999 V2000
    4.7511    3.6391   20.6589 C   0  0  0  0  0  0  0  0  0  0  0  0
    4.6490    2.8003   19.6109 N   0  0  0  0  0  0  0  0  0  0  0  0
    4.1083    3.2126   18.4400 C   0  0  0  0  0  0  0  0  0  0  0  0
    3.6420    4.5247   18.2942 C   0  0  0  0  0  0  0  0  0  0  0  0
    3.7453    5.3710   19.3551 C   0  0  0  0  0  0  0  0  0  0  0  0
    4.3072    4.8823   20.5145 N   0  0  0  0  0  0  0  0  0  0  0  0
    3.0970    4.9263   17.0198 C   0  0  0  0  0  0  0  0  0  0  0  0
    1.8643    5.0688   16.8862 O   0  0  0  0  0  0  0  0  0  0  0  0
    3.8949    5.1756   15.8806 N   0  0  0  0  0  0  0  0  0  0  0  0
    4.9501    5.0399   15.9980 H   0  0  0  0  0  0  0  0  0  0  0  0
    3.4686    5.5841   14.5958 C   0  0  0  0  0  0  0  0  0  0  0  0
    3.2842    6.8876   14.2744 C   0  0  0  0  0  0  0  0  0  0  0  0
    2.8372    7.2158   12.9988 C   0  0  0  0  0  0  0  0  0  0  0  0
    2.5726    6.2785   12.0429 C   0  0  0  0  0  0  0  0  0  0  0  0
    2.7657    4.9615   12.3857 C   0  0  0  0  0  0  0  0  0  0  0  0
    3.2037    4.5844   13.6271 C   0  0  0  0  0  0  0  0  0  0  0  0
    2.0216    6.7645   10.4729 S   0  0  0  0  0  0  0  0  0  0  0  0
    0.8196    7.6528   10.6270 O   0  0  0  0  0  0  0  0  0  0  0  0
    1.5146    5.5021    9.7879 O   0  0  0  0  0  0  0  0  0  0  0  0
    3.2824    7.4929    9.6203 N   0  0  0  0  0  0  0  0  0  0  0  0
    2.9454    8.1602    8.4262 C   0  0  0  0  0  0  0  0  0  0  0  0
    4.0315    9.0642    7.8968 C   0  0  0  0  0  0  0  0  0  0  0  0
    5.2694    8.7792    8.4669 O   0  0  0  0  0  0  0  0  0  0  0  0
    5.4815    7.4345    8.6466 C   0  0  0  0  0  0  0  0  0  0  0  0
    4.5580    6.8927    9.6930 C   0  0  0  0  0  0  0  0  0  0  0  0
    5.3169    3.1347   21.8648 N   0  0  0  0  0  0  0  0  0  0  0  0
    6.3785    3.0833   21.9000 H   0  0  0  0  0  0  0  0  0  0  0  0
    3.5572    1.6171   22.6798 C   0  0  0  0  0  0  0  0  0  0  0  0
    4.5274    2.7055   23.0027 C   0  0  0  0  0  0  0  0  0  0  0  0
    3.7930    3.8526   23.6507 C   0  0  0  0  0  0  0  0  0  0  0  0
    3.2832    6.6831   19.3651 N   0  0  0  0  0  0  0  0  0  0  0  0
    2.3846    7.0215   19.7059 H   0  0  0  0  0  0  0  0  0  0  0  0
    4.1554    7.7648   18.8432 C   0  0  0  0  0  0  0  0  0  0  0  0
    3.8584    9.0847   19.4539 C   0  0  0  0  0  0  0  0  0  0  0  0
    4.7684    9.4776   20.5971 C   0  0  0  0  0  0  0  0  0  0  0  0
    5.6707    8.3452   21.0300 C   0  0  0  0  0  0  0  0  0  0  0  0
    6.5597    8.8685   21.9747 O   0  0  0  0  0  0  0  0  0  0  0  0
    6.4836    7.9682   19.8079 C   0  0  0  0  0  0  0  0  0  0  0  0
    5.5865    7.3635   18.7855 C   0  0  0  0  0  0  0  0  0  0  0  0
    6.7114    9.8312   21.8624 H   0  0  0  0  0  0  0  0  0  0  0  0
 28 29  1  0  0  0
 29 30  1  0  0  0
 29 26  1  0  0  0
 26  1  1  0  0  0
  1  2  2  0  0  0
  2  3  1  0  0  0
  3  4  2  0  0  0
  4  7  1  0  0  0
  7  8  2  0  0  0
  7  9  1  0  0  0
  9 11  1  0  0  0
 11 12  2  0  0  0
 12 13  1  0  0  0
 13 14  2  0  0  0
 14 15  1  0  0  0
 15 16  2  0  0  0
 14 17  1  0  0  0
 17 18  2  0  0  0
 17 19  2  0  0  0
 17 20  1  0  0  0
 20 21  1  0  0  0
 21 22  1  0  0  0
 22 23  1  0  0  0
 23 24  1  0  0  0
 24 25  1  0  0  0
  4  5  1  0  0  0
  5 31  1  0  0  0
 31 33  1  0  0  0
 33 34  1  0  0  0
 34 35  1  0  0  0
 35 36  1  0  0  0
 36 37  1  0  0  0
 36 38  1  0  0  0
 38 39  1  0  0  0
  5  6  2  0  0  0
  6  1  1  0  0  0
 16 11  1  0  0  0
 25 20  1  0  0  0
 39 33  1  0  0  0
 26 27  1  0  0  0
  9 10  1  0  0  0
 31 32  1  0  0  0
 37 40  1  0  0  0
M  END
> <minimizedAffinity>
-8.41657

> <CNNscore>
0.1497665197

> <CNNaffinity>
6.1366376877

> <CNN_VS>
0.9190628529

> <CNNaffinity_variance>
0.2987567782

$$$$
[H]c1nc(N([H])[H])c(C(=O)N([H])[C@@]2([H])C([H])([H])C([H])([H])C([H])([H])[C@]2([H])OC([H])([H])c2c([H])c([H])c([H])c([H])c2[H])c([H])c1-c1c([H])nn(C2([H])C([H])([H])C([H])([H])N(C([H])([H])C3([H])C([H])([H])N([H])C([H])([H])C3([H])[H])C([H])([H])C2([H])[H])c1[H]


 44 49  0  0  0  0  0  0  0  0999 V2000
    1.9703    1.2184   14.8296 N   0  0  0  0  0  0  0  0  0  0  0  0
    2.6479    1.4681   16.0517 C   0  0  0  0  0  0  0  0  0  0  0  0
    2.8544    0.5185   16.9748 N   0  0  0  0  0  0  0  0  0  0  0  0
    3.5001    0.7834   18.1309 C   0  0  0  0  0  0  0  0  0  0  0  0
    3.9793    2.0566   18.4128 C   0  0  0  0  0  0  0  0  0  0  0  0
    3.7800    3.0427   17.4842 C   0  0  0  0  0  0  0  0  0  0  0  0
    3.1096    2.7551   16.2911 C   0  0  0  0  0  0  0  0  0  0  0  0
    0.9522    1.3870   14.7554 H   0  0  0  0  0  0  0  0  0  0  0  0
    2.4847    0.8673   14.0048 H   0  0  0  0  0  0  0  0  0  0  0  0
    4.6614    2.3448   19.6691 C   0  0  0  0  0  0  0  0  0  0  0  0
    5.4643    1.5265   20.4394 C   0  0  0  0  0  0  0  0  0  0  0  0
    5.8644    2.2425   21.4912 N   0  0  0  0  0  0  0  0  0  0  0  0
    5.3834    3.4764   21.4741 N   0  0  0  0  0  0  0  0  0  0  0  0
    4.6413    3.5605   20.3629 C   0  0  0  0  0  0  0  0  0  0  0  0
    5.6467    4.4897   22.4718 C   0  0  0  0  0  0  0  0  0  0  0  0
    4.6937    5.6251   22.3457 C   0  0  0  0  0  0  0  0  0  0  0  0
    5.0155    6.6563   21.3260 C   0  0  0  0  0  0  0  0  0  0  0  0
    6.3884    7.0766   21.4429 N   0  0  0  0  0  0  0  0  0  0  0  0
    7.2437    5.9536   21.2347 C   0  0  0  0  0  0  0  0  0  0  0  0
    7.0937    4.9291   22.3402 C   0  0  0  0  0  0  0  0  0  0  0  0
    6.6261    7.8374   22.6266 C   0  0  0  0  0  0  0  0  0  0  0  0
    7.3732    9.1164   22.2824 C   0  0  0  0  0  0  0  0  0  0  0  0
    8.8495    8.9331   22.5753 C   0  0  0  0  0  0  0  0  0  0  0  0
    9.4757    9.6702   21.3898 C   0  0  0  0  0  0  0  0  0  0  0  0
    8.6287    9.1920   20.3168 N   0  0  0  0  0  0  0  0  0  0  0  0
    7.2953    9.4202   20.8262 C   0  0  0  0  0  0  0  0  0  0  0  0
    8.7525    8.1441   20.2917 H   0  0  0  0  0  0  0  0  0  0  0  0
    2.8502    3.7719   15.2792 C   0  0  0  0  0  0  0  0  0  0  0  0
    2.3107    4.8702   15.5815 O   0  0  0  0  0  0  0  0  0  0  0  0
    3.2204    3.4972   13.9370 N   0  0  0  0  0  0  0  0  0  0  0  0
    3.6556    2.6347   13.5949 H   0  0  0  0  0  0  0  0  0  0  0  0
    2.9578    4.5383   12.9464 C   0  0  0  0  0  0  0  0  0  0  0  0
    4.0650    4.6494   11.9462 C   0  0  0  0  0  0  0  0  0  0  0  0
    3.4282    4.9838   10.6323 C   0  0  0  0  0  0  0  0  0  0  0  0
    1.9364    5.1139   10.9177 C   0  0  0  0  0  0  0  0  0  0  0  0
    1.7717    4.1060   12.0669 C   0  0  0  0  0  0  0  0  0  0  0  0
    0.6113    4.3123   12.7553 O   0  0  0  0  0  0  0  0  0  0  0  0
    0.2668    5.5843   13.0819 C   0  0  0  0  0  0  0  0  0  0  0  0
   -1.1788    5.8859   12.9232 C   0  0  0  0  0  0  0  0  0  0  0  0
   -1.7229    6.8176   13.7696 C   0  0  0  0  0  0  0  0  0  0  0  0
   -3.0553    7.1471   13.6848 C   0  0  0  0  0  0  0  0  0  0  0  0
   -3.8496    6.5333   12.7413 C   0  0  0  0  0  0  0  0  0  0  0  0
   -3.2863    5.5897   11.8883 C   0  0  0  0  0  0  0  0  0  0  0  0
   -1.9558    5.2768   11.9889 C   0  0  0  0  0  0  0  0  0  0  0  0
  1  2  1  0  0  0
  2  3  2  0  0  0
  3  4  1  0  0  0
  4  5  2  0  0  0
  5  6  1  0  0  0
  6  7  2  0  0  0
  7 28  1  0  0  0
 28 29  2  0  0  0
 28 30  1  0  0  0
 30 32  1  0  0  0
 32 33  1  0  0  0
 33 34  1  0  0  0
 34 35  1  0  0  0
 35 36  1  0  0  0
 36 37  1  0  0  0
 37 38  1  0  0  0
 38 39  1  0  0  0
 39 40  2  0  0  0
 40 41  1  0  0  0
 41 42  2  0  0  0
 42 43  1  0  0  0
 43 44  2  0  0  0
  5 10  1  0  0  0
 10 11  1  0  0  0
 11 12  2  0  0  0
 12 13  1  0  0  0
 13 14  1  0  0  0
 13 15  1  0  0  0
 15 16  1  0  0  0
 16 17  1  0  0  0
 17 18  1  0  0  0
 18 21  1  0  0  0
 21 22  1  0  0  0
 22 23  1  0  0  0
 23 24  1  0  0  0
 24 25  1  0  0  0
 25 26  1  0  0  0
 18 19  1  0  0  0
 19 20  1  0  0  0
  7  2  1  0  0  0
 36 32  1  0  0  0
 44 39  1  0  0  0
 14 10  2  0  0  0
 20 15  1  0  0  0
 26 22  1  0  0  0
  1  8  1  0  0  0
  1  9  1  0  0  0
 30 31  1  0  0  0
 25 27  1  0  0  0
M  END
> <minimizedAffinity>
-9.06961

> <CNNscore>
0.6043473482

> <CNNaffinity>
7.3449249268

> <CNN_VS>
4.4388856888

> <CNNaffinity_variance>
0.2950239480

$$$$
[H]c1nc(N([H])[H])c(C(=O)N([H])[C@@]2([H])C([H])([H])C([H])([H])C([H])([H])[C@]2([H])OC([H])([H])c2c([H])c([H])c([H])c([H])c2[H])c([H])c1-c1c([H])nn(C2([H])C([H])([H])C([H])([H])N(C([H])([H])C3([H])C([H])([H])N([H])C([H])([H])C3([H])[H])C([H])([H])C2([H])[H])c1[H]


 44 49  0  0  0  0  0  0  0  0999 V2000
    1.9709    1.4414   14.4017 N   0  0  0  0  0  0  0  0  0  0  0  0
    2.6113    1.7144   15.6388 C   0  0  0  0  0  0  0  0  0  0  0  0
    2.8064    0.7780   16.5777 N   0  0  0  0  0  0  0  0  0  0  0  0
    3.4166    1.0650   17.7478 C   0  0  0  0  0  0  0  0  0  0  0  0
    3.8694    2.3481   18.0282 C   0  0  0  0  0  0  0  0  0  0  0  0
    3.6812    3.3210   17.0836 C   0  0  0  0  0  0  0  0  0  0  0  0
    3.0476    3.0106   15.8761 C   0  0  0  0  0  0  0  0  0  0  0  0
    0.9528    1.5940   14.2982 H   0  0  0  0  0  0  0  0  0  0  0  0
    2.5125    1.0890   13.5952 H   0  0  0  0  0  0  0  0  0  0  0  0
    4.5129    2.6600   19.2991 C   0  0  0  0  0  0  0  0  0  0  0  0
    5.3034    1.8610   20.1018 C   0  0  0  0  0  0  0  0  0  0  0  0
    5.6658    2.5947   21.1550 N   0  0  0  0  0  0  0  0  0  0  0  0
    5.1713    3.8225   21.1088 N   0  0  0  0  0  0  0  0  0  0  0  0
    4.4595    3.8840   19.9765 C   0  0  0  0  0  0  0  0  0  0  0  0
    5.3951    4.8512   22.1004 C   0  0  0  0  0  0  0  0  0  0  0  0
    4.4814    6.0061   21.8888 C   0  0  0  0  0  0  0  0  0  0  0  0
    4.8949    7.0063   20.8712 C   0  0  0  0  0  0  0  0  0  0  0  0
    6.2675    7.3959   21.0688 N   0  0  0  0  0  0  0  0  0  0  0  0
    7.1057    6.2483   20.9404 C   0  0  0  0  0  0  0  0  0  0  0  0
    6.8583    5.2526   22.0546 C   0  0  0  0  0  0  0  0  0  0  0  0
    6.4473    8.1770   22.2495 C   0  0  0  0  0  0  0  0  0  0  0  0
    7.9228    8.4845   22.4510 C   0  0  0  0  0  0  0  0  0  0  0  0
    8.2404    9.8443   21.8602 C   0  0  0  0  0  0  0  0  0  0  0  0
    9.2159   10.3945   22.9026 C   0  0  0  0  0  0  0  0  0  0  0  0
    8.5399    9.9949   24.1195 N   0  0  0  0  0  0  0  0  0  0  0  0
    8.2663    8.5931   23.8964 C   0  0  0  0  0  0  0  0  0  0  0  0
    7.6015   10.4779   24.1045 H   0  0  0  0  0  0  0  0  0  0  0  0
    2.8011    4.0124   14.8461 C   0  0  0  0  0  0  0  0  0  0  0  0
    1.6304    4.2784   14.4620 O   0  0  0  0  0  0  0  0  0  0  0  0
    3.9147    4.6865   14.2811 N   0  0  0  0  0  0  0  0  0  0  0  0
    4.8990    4.5343   14.5224 H   0  0  0  0  0  0  0  0  0  0  0  0
    3.6368    5.6924   13.2586 C   0  0  0  0  0  0  0  0  0  0  0  0
    4.0668    7.0594   13.6888 C   0  0  0  0  0  0  0  0  0  0  0  0
    4.5695    7.7594   12.4637 C   0  0  0  0  0  0  0  0  0  0  0  0
    4.3661    6.7784   11.3148 C   0  0  0  0  0  0  0  0  0  0  0  0
    4.5453    5.4366   12.0436 C   0  0  0  0  0  0  0  0  0  0  0  0
    4.0350    4.3981   11.3195 O   0  0  0  0  0  0  0  0  0  0  0  0
    4.2837    4.3518    9.9856 C   0  0  0  0  0  0  0  0  0  0  0  0
    5.0396    3.1511    9.5462 C   0  0  0  0  0  0  0  0  0  0  0  0
    6.4035    3.2638    9.4609 C   0  0  0  0  0  0  0  0  0  0  0  0
    7.1706    2.1956    9.0586 C   0  0  0  0  0  0  0  0  0  0  0  0
    6.5611    1.0026    8.7373 C   0  0  0  0  0  0  0  0  0  0  0  0
    5.1767    0.9005    8.8276 C   0  0  0  0  0  0  0  0  0  0  0  0
    4.4310    1.9770    9.2319 C   0  0  0  0  0  0  0  0  0  0  0  0
  1  2  1  0  0  0
  2  3  2  0  0  0
  3  4  1  0  0  0
  4  5  2  0  0  0
  5  6  1  0  0  0
  6  7  2  0  0  0
  7 28  1  0  0  0
 28 29  2  0  0  0
 28 30  1  0  0  0
 30 32  1  0  0  0
 32 33  1  0  0  0
 33 34  1  0  0  0
 34 35  1  0  0  0
 35 36  1  0  0  0
 36 37  1  0  0  0
 37 38  1  0  0  0
 38 39  1  0  0  0
 39 40  2  0  0  0
 40 41  1  0  0  0
 41 42  2  0  0  0
 42 43  1  0  0  0
 43 44  2  0  0  0
  5 10  1  0  0  0
 10 11  1  0  0  0
 11 12  2  0  0  0
 12 13  1  0  0  0
 13 14  1  0  0  0
 13 15  1  0  0  0
 15 16  1  0  0  0
 16 17  1  0  0  0
 17 18  1  0  0  0
 18 21  1  0  0  0
 21 22  1  0  0  0
 22 23  1  0  0  0
 23 24  1  0  0  0
 24 25  1  0  0  0
 25 26  1  0  0  0
 18 19  1  0  0  0
 19 20  1  0  0  0
  7  2  1  0  0  0
 36 32  1  0  0  0
 44 39  1  0  0  0
 14 10  2  0  0  0
 20 15  1  0  0  0
 26 22  1  0  0  0
  1  8  1  0  0  0
  1  9  1  0  0  0
 30 31  1  0  0  0
 25 27  1  0  0  0
M  END
> <minimizedAffinity>
-8.09789

> <CNNscore>
0.4996242225

> <CNNaffinity>
7.1551256180

> <CNN_VS>
3.5748741627

> <CNNaffinity_variance>
0.3301583827

$$$$
[H]c1nc(N([H])[H])c(C(=O)N([H])[C@@]2([H])C([H])([H])C([H])([H])C([H])([H])[C@]2([H])OC([H])([H])c2c([H])c([H])c([H])c([H])c2[H])c([H])c1-c1c([H])nn(C2([H])C([H])([H])C([H])([H])N(C([H])([H])C3([H])C([H])([H])N([H])C([H])([H])C3([H])[H])C([H])([H])C2([H])[H])c1[H]


 44 49  0  0  0  0  0  0  0  0999 V2000
    4.8245    2.5809   18.9951 N   0  0  0  0  0  0  0  0  0  0  0  0
    4.2378    2.5039   17.7048 C   0  0  0  0  0  0  0  0  0  0  0  0
    3.6767    1.3841   17.2277 N   0  0  0  0  0  0  0  0  0  0  0  0
    3.1275    1.3371   15.9949 C   0  0  0  0  0  0  0  0  0  0  0  0
    3.1212    2.4522   15.1663 C   0  0  0  0  0  0  0  0  0  0  0  0
    3.6886    3.6075   15.6327 C   0  0  0  0  0  0  0  0  0  0  0  0
    4.2542    3.6427   16.9112 C   0  0  0  0  0  0  0  0  0  0  0  0
    5.8382    2.4130   19.1166 H   0  0  0  0  0  0  0  0  0  0  0  0
    4.2477    2.8044   19.8231 H   0  0  0  0  0  0  0  0  0  0  0  0
    2.5428    2.3948   13.8289 C   0  0  0  0  0  0  0  0  0  0  0  0
    1.3252    1.8865   13.4205 C   0  0  0  0  0  0  0  0  0  0  0  0
    1.2423    2.0710   12.1021 N   0  0  0  0  0  0  0  0  0  0  0  0
    2.3180    2.6640   11.6070 N   0  0  0  0  0  0  0  0  0  0  0  0
    3.1301    2.8718   12.6510 C   0  0  0  0  0  0  0  0  0  0  0  0
    2.5185    3.0049   10.2158 C   0  0  0  0  0  0  0  0  0  0  0  0
    3.6181    3.9948   10.0606 C   0  0  0  0  0  0  0  0  0  0  0  0
    3.2671    5.4217   10.2788 C   0  0  0  0  0  0  0  0  0  0  0  0
    2.0789    5.7717    9.5436 N   0  0  0  0  0  0  0  0  0  0  0  0
    0.9916    4.9653    9.9947 C   0  0  0  0  0  0  0  0  0  0  0  0
    1.2023    3.5057    9.6493 C   0  0  0  0  0  0  0  0  0  0  0  0
    2.2991    5.7991    8.1338 C   0  0  0  0  0  0  0  0  0  0  0  0
    2.6651    7.2070    7.6910 C   0  0  0  0  0  0  0  0  0  0  0  0
    3.2658    7.1585    6.2997 C   0  0  0  0  0  0  0  0  0  0  0  0
    2.6527    8.4126    5.6735 C   0  0  0  0  0  0  0  0  0  0  0  0
    1.2904    8.2955    6.1511 N   0  0  0  0  0  0  0  0  0  0  0  0
    1.4592    8.0729    7.5695 C   0  0  0  0  0  0  0  0  0  0  0  0
    0.9204    7.3882    5.7588 H   0  0  0  0  0  0  0  0  0  0  0  0
    4.8916    4.8389   17.4480 C   0  0  0  0  0  0  0  0  0  0  0  0
    6.1386    5.0045   17.3694 O   0  0  0  0  0  0  0  0  0  0  0  0
    4.0727    5.8197   18.0654 N   0  0  0  0  0  0  0  0  0  0  0  0
    3.0557    5.7711   18.1824 H   0  0  0  0  0  0  0  0  0  0  0  0
    4.7374    7.0124   18.5850 C   0  0  0  0  0  0  0  0  0  0  0  0
    3.9270    8.2488   18.3539 C   0  0  0  0  0  0  0  0  0  0  0  0
    4.1420    9.1345   19.5425 C   0  0  0  0  0  0  0  0  0  0  0  0
    5.1366    8.3976   20.4321 C   0  0  0  0  0  0  0  0  0  0  0  0
    4.7765    6.9356   20.1211 C   0  0  0  0  0  0  0  0  0  0  0  0
    5.7722    6.0808   20.4968 O   0  0  0  0  0  0  0  0  0  0  0  0
    6.0511    5.9492   21.8191 C   0  0  0  0  0  0  0  0  0  0  0  0
    5.5113    4.7113   22.4372 C   0  0  0  0  0  0  0  0  0  0  0  0
    6.2768    3.5773   22.3444 C   0  0  0  0  0  0  0  0  0  0  0  0
    5.8418    2.3923   22.8901 C   0  0  0  0  0  0  0  0  0  0  0  0
    4.6248    2.3455   23.5340 C   0  0  0  0  0  0  0  0  0  0  0  0
    3.8572    3.5024   23.6217 C   0  0  0  0  0  0  0  0  0  0  0  0
    4.3099    4.6734   23.0720 C   0  0  0  0  0  0  0  0  0  0  0  0
  1  2  1  0  0  0
  2  3  2  0  0  0
  3  4  1  0  0  0
  4  5  2  0  0  0
  5  6  1  0  0  0
  6  7  2  0  0  0
  7 28  1  0  0  0
 28 29  2  0  0  0
 28 30  1  0  0  0
 30 32  1  0  0  0
 32 33  1  0  0  0
 33 34  1  0  0  0
 34 35  1  0  0  0
 35 36  1  0  0  0
 36 37  1  0  0  0
 37 38  1  0  0  0
 38 39  1  0  0  0
 39 40  2  0  0  0
 40 41  1  0  0  0
 41 42  2  0  0  0
 42 43  1  0  0  0
 43 44  2  0  0  0
  5 10  1  0  0  0
 10 11  1  0  0  0
 11 12  2  0  0  0
 12 13  1  0  0  0
 13 14  1  0  0  0
 13 15  1  0  0  0
 15 16  1  0  0  0
 16 17  1  0  0  0
 17 18  1  0  0  0
 18 21  1  0  0  0
 21 22  1  0  0  0
 22 23  1  0  0  0
 23 24  1  0  0  0
 24 25  1  0  0  0
 25 26  1  0  0  0
 18 19  1  0  0  0
 19 20  1  0  0  0
  7  2  1  0  0  0
 36 32  1  0  0  0
 44 39  1  0  0  0
 14 10  2  0  0  0
 20 15  1  0  0  0
 26 22  1  0  0  0
  1  8  1  0  0  0
  1  9  1  0  0  0
 30 31  1  0  0  0
 25 27  1  0  0  0
M  END
> <minimizedAffinity>
-8.40969

> <CNNscore>
0.2497088760

> <CNNaffinity>
6.7429742813

> <CNN_VS>
1.6837805510

> <CNNaffinity_variance>
0.1273443997

$$$$
[H]c1nc(N([H])[H])c(C(=O)N([H])[C@@]2([H])C([H])([H])C([H])([H])C([H])([H])[C@]2([H])OC([H])([H])c2c([H])c([H])c([H])c([H])c2[H])c([H])c1-c1c([H])nn(C2([H])C([H])([H])C([H])([H])N(C([H])([H])C3([H])C([H])([H])N([H])C([H])([H])C3([H])[H])C([H])([H])C2([H])[H])c1[H]


 44 49  0  0  0  0  0  0  0  0999 V2000
    2.2626    1.5899   13.9199 N   0  0  0  0  0  0  0  0  0  0  0  0
    2.8212    1.8180   15.2048 C   0  0  0  0  0  0  0  0  0  0  0  0
    2.8471    0.8805   16.1623 N   0  0  0  0  0  0  0  0  0  0  0  0
    3.3825    1.1246   17.3779 C   0  0  0  0  0  0  0  0  0  0  0  0
    3.9312    2.3627   17.6877 C   0  0  0  0  0  0  0  0  0  0  0  0
    3.9161    3.3359   16.7249 C   0  0  0  0  0  0  0  0  0  0  0  0
    3.3583    3.0702   15.4703 C   0  0  0  0  0  0  0  0  0  0  0  0
    1.2759    1.8369   13.7303 H   0  0  0  0  0  0  0  0  0  0  0  0
    2.8332    1.1765   13.1638 H   0  0  0  0  0  0  0  0  0  0  0  0
    4.4937    2.6298   19.0064 C   0  0  0  0  0  0  0  0  0  0  0  0
    5.2320    1.8021   19.8294 C   0  0  0  0  0  0  0  0  0  0  0  0
    5.5277    2.4989   20.9277 N   0  0  0  0  0  0  0  0  0  0  0  0
    5.0376    3.7287   20.8922 N   0  0  0  0  0  0  0  0  0  0  0  0
    4.3982    3.8303   19.7202 C   0  0  0  0  0  0  0  0  0  0  0  0
    5.1989    4.7227   21.9303 C   0  0  0  0  0  0  0  0  0  0  0  0
    4.3598    5.9209   21.6588 C   0  0  0  0  0  0  0  0  0  0  0  0
    4.9169    6.9263   20.7177 C   0  0  0  0  0  0  0  0  0  0  0  0
    6.2763    7.2512   21.0660 N   0  0  0  0  0  0  0  0  0  0  0  0
    7.0760    6.0717   20.9918 C   0  0  0  0  0  0  0  0  0  0  0  0
    6.6741    5.0613   22.0462 C   0  0  0  0  0  0  0  0  0  0  0  0
    6.3643    7.9953   22.2806 C   0  0  0  0  0  0  0  0  0  0  0  0
    7.1987    9.2481   22.0646 C   0  0  0  0  0  0  0  0  0  0  0  0
    8.5981    9.0215   22.6022 C   0  0  0  0  0  0  0  0  0  0  0  0
    9.4378    9.7304   21.5377 C   0  0  0  0  0  0  0  0  0  0  0  0
    8.7687    9.2707   20.3383 N   0  0  0  0  0  0  0  0  0  0  0  0
    7.3764    9.5436   20.6155 C   0  0  0  0  0  0  0  0  0  0  0  0
    8.8618    8.2193   20.3365 H   0  0  0  0  0  0  0  0  0  0  0  0
    3.2952    4.0764   14.4173 C   0  0  0  0  0  0  0  0  0  0  0  0
    4.1404    4.0962   13.4825 O   0  0  0  0  0  0  0  0  0  0  0  0
    2.2547    5.0402   14.4674 N   0  0  0  0  0  0  0  0  0  0  0  0
    1.5290    5.1088   15.1878 H   0  0  0  0  0  0  0  0  0  0  0  0
    2.2103    6.0300   13.3937 C   0  0  0  0  0  0  0  0  0  0  0  0
    0.8490    6.1279   12.7806 C   0  0  0  0  0  0  0  0  0  0  0  0
    0.6385    7.5674   12.4239 C   0  0  0  0  0  0  0  0  0  0  0  0
    1.9333    8.2792   12.7988 C   0  0  0  0  0  0  0  0  0  0  0  0
    2.3932    7.4332   13.9974 C   0  0  0  0  0  0  0  0  0  0  0  0
    3.7157    7.6280   14.2734 O   0  0  0  0  0  0  0  0  0  0  0  0
    4.3387    8.7095   13.7391 C   0  0  0  0  0  0  0  0  0  0  0  0
    5.5583    8.3869   12.9551 C   0  0  0  0  0  0  0  0  0  0  0  0
    6.7557    8.8500   13.4371 C   0  0  0  0  0  0  0  0  0  0  0  0
    7.9274    8.5936   12.7644 C   0  0  0  0  0  0  0  0  0  0  0  0
    7.8958    7.8661   11.5949 C   0  0  0  0  0  0  0  0  0  0  0  0
    6.6751    7.4018   11.1159 C   0  0  0  0  0  0  0  0  0  0  0  0
    5.5190    7.6675   11.8025 C   0  0  0  0  0  0  0  0  0  0  0  0
  1  2  1  0  0  0
  2  3  2  0  0  0
  3  4  1  0  0  0
  4  5  2  0  0  0
  5  6  1  0  0  0
  6  7  2  0  0  0
  7 28  1  0  0  0
 28 29  2  0  0  0
 28 30  1  0  0  0
 30 32  1  0  0  0
 32 33  1  0  0  0
 33 34  1  0  0  0
 34 35  1  0  0  0
 35 36  1  0  0  0
 36 37  1  0  0  0
 37 38  1  0  0  0
 38 39  1  0  0  0
 39 40  2  0  0  0
 40 41  1  0  0  0
 41 42  2  0  0  0
 42 43  1  0  0  0
 43 44  2  0  0  0
  5 10  1  0  0  0
 10 11  1  0  0  0
 11 12  2  0  0  0
 12 13  1  0  0  0
 13 14  1  0  0  0
 13 15  1  0  0  0
 15 16  1  0  0  0
 16 17  1  0  0  0
 17 18  1  0  0  0
 18 21  1  0  0  0
 21 22  1  0  0  0
 22 23  1  0  0  0
 23 24  1  0  0  0
 24 25  1  0  0  0
 25 26  1  0  0  0
 18 19  1  0  0  0
 19 20  1  0  0  0
  7  2  1  0  0  0
 36 32  1  0  0  0
 44 39  1  0  0  0
 14 10  2  0  0  0
 20 15  1  0  0  0
 26 22  1  0  0  0
  1  8  1  0  0  0
  1  9  1  0  0  0
 30 31  1  0  0  0
 25 27  1  0  0  0
M  END
> <minimizedAffinity>
-8.73967

> <CNNscore>
0.2479229718

> <CNNaffinity>
6.7788062096

> <CNN_VS>
1.6806217432

> <CNNaffinity_variance>
0.3901901543

$$$$
[H]c1nc(N([H])[H])c(C(=O)N([H])[C@@]2([H])C([H])([H])C([H])([H])C([H])([H])[C@]2([H])OC([H])([H])c2c([H])c([H])c([H])c([H])c2[H])c([H])c1-c1c([H])nn(C2([H])C([H])([H])C([H])([H])N(C([H])([H])C3([H])C([H])([H])N([H])C([H])([H])C3([H])[H])C([H])([H])C2([H])[H])c1[H]


 44 49  0  0  0  0  0  0  0  0999 V2000
    2.4869    1.2715   14.0263 N   0  0  0  0  0  0  0  0  0  0  0  0
    2.9763    1.7924   15.2528 C   0  0  0  0  0  0  0  0  0  0  0  0
    3.3671    1.0110   16.2692 N   0  0  0  0  0  0  0  0  0  0  0  0
    3.8268    1.5325   17.4270 C   0  0  0  0  0  0  0  0  0  0  0  0
    3.9142    2.9064   17.6135 C   0  0  0  0  0  0  0  0  0  0  0  0
    3.5207    3.7244   16.5886 C   0  0  0  0  0  0  0  0  0  0  0  0
    3.0463    3.1714   15.3948 C   0  0  0  0  0  0  0  0  0  0  0  0
    1.4702    1.1412   13.8853 H   0  0  0  0  0  0  0  0  0  0  0  0
    3.1381    1.0182   13.2648 H   0  0  0  0  0  0  0  0  0  0  0  0
    4.3948    3.4679   18.8706 C   0  0  0  0  0  0  0  0  0  0  0  0
    5.2019    2.8968   19.8349 C   0  0  0  0  0  0  0  0  0  0  0  0
    5.3722    3.8056   20.7963 N   0  0  0  0  0  0  0  0  0  0  0  0
    4.7350    4.9377   20.5390 N   0  0  0  0  0  0  0  0  0  0  0  0
    4.1276    4.7518   19.3604 C   0  0  0  0  0  0  0  0  0  0  0  0
    4.7373    6.1092   21.3872 C   0  0  0  0  0  0  0  0  0  0  0  0
    5.0769    7.3317   20.6103 C   0  0  0  0  0  0  0  0  0  0  0  0
    6.5203    7.5941   20.3765 C   0  0  0  0  0  0  0  0  0  0  0  0
    7.2645    7.4754   21.6042 N   0  0  0  0  0  0  0  0  0  0  0  0
    7.1234    6.1501   22.1139 C   0  0  0  0  0  0  0  0  0  0  0  0
    5.6971    5.8673   22.5379 C   0  0  0  0  0  0  0  0  0  0  0  0
    6.9803    8.5343   22.5178 C   0  0  0  0  0  0  0  0  0  0  0  0
    7.8497    8.3995   23.7581 C   0  0  0  0  0  0  0  0  0  0  0  0
    8.9685    9.4214   23.7038 C   0  0  0  0  0  0  0  0  0  0  0  0
    9.0374    9.8563   25.1691 C   0  0  0  0  0  0  0  0  0  0  0  0
    7.6248    9.9733   25.4664 N   0  0  0  0  0  0  0  0  0  0  0  0
    7.0868    8.7161   24.9976 C   0  0  0  0  0  0  0  0  0  0  0  0
    7.2484   10.7103   24.8113 H   0  0  0  0  0  0  0  0  0  0  0  0
    2.5929    3.9956   14.2811 C   0  0  0  0  0  0  0  0  0  0  0  0
    3.2914    4.1267   13.2401 O   0  0  0  0  0  0  0  0  0  0  0  0
    1.3399    4.6519   14.3945 N   0  0  0  0  0  0  0  0  0  0  0  0
    0.7076    4.6117   15.2001 H   0  0  0  0  0  0  0  0  0  0  0  0
    0.9065    5.4627   13.2591 C   0  0  0  0  0  0  0  0  0  0  0  0
   -0.3795    4.9665   12.6771 C   0  0  0  0  0  0  0  0  0  0  0  0
   -1.1460    6.1737   12.2314 C   0  0  0  0  0  0  0  0  0  0  0  0
   -0.2436    7.3670   12.5238 C   0  0  0  0  0  0  0  0  0  0  0  0
    0.5130    6.8620   13.7633 C   0  0  0  0  0  0  0  0  0  0  0  0
    1.6474    7.5863   13.9906 O   0  0  0  0  0  0  0  0  0  0  0  0
    2.0380    8.4920   13.0576 C   0  0  0  0  0  0  0  0  0  0  0  0
    3.0539    7.9840   12.1005 C   0  0  0  0  0  0  0  0  0  0  0  0
    2.7123    7.9659   10.7726 C   0  0  0  0  0  0  0  0  0  0  0  0
    3.5996    7.5066    9.8276 C   0  0  0  0  0  0  0  0  0  0  0  0
    4.8419    7.0594   10.2207 C   0  0  0  0  0  0  0  0  0  0  0  0
    5.1769    7.0825   11.5707 C   0  0  0  0  0  0  0  0  0  0  0  0
    4.2781    7.5454   12.4961 C   0  0  0  0  0  0  0  0  0  0  0  0
  1  2  1  0  0  0
  2  3  2  0  0  0
  3  4  1  0  0  0
  4  5  2  0  0  0
  5  6  1  0  0  0
  6  7  2  0  0  0
  7 28  1  0  0  0
 28 29  2  0  0  0
 28 30  1  0  0  0
 30 32  1  0  0  0
 32 33  1  0  0  0
 33 34  1  0  0  0
 34 35  1  0  0  0
 35 36  1  0  0  0
 36 37  1  0  0  0
 37 38  1  0  0  0
 38 39  1  0  0  0
 39 40  2  0  0  0
 40 41  1  0  0  0
 41 42  2  0  0  0
 42 43  1  0  0  0
 43 44  2  0  0  0
  5 10  1  0  0  0
 10 11  1  0  0  0
 11 12  2  0  0  0
 12 13  1  0  0  0
 13 14  1  0  0  0
 13 15  1  0  0  0
 15 16  1  0  0  0
 16 17  1  0  0  0
 17 18  1  0  0  0
 18 21  1  0  0  0
 21 22  1  0  0  0
 22 23  1  0  0  0
 23 24  1  0  0  0
 24 25  1  0  0  0
 25 26  1  0  0  0
 18 19  1  0  0  0
 19 20  1  0  0  0
  7  2  1  0  0  0
 36 32  1  0  0  0
 44 39  1  0  0  0
 14 10  2  0  0  0
 20 15  1  0  0  0
 26 22  1  0  0  0
  1  8  1  0  0  0
  1  9  1  0  0  0
 30 31  1  0  0  0
 25 27  1  0  0  0
M  END
> <minimizedAffinity>
-7.92562

> <CNNscore>
0.2471404970

> <CNNaffinity>
6.4906072617

> <CNN_VS>
1.6040918827

> <CNNaffinity_variance>
0.3049040735

$$$$
[H]c1nc(N([H])[H])c(C(=O)N([H])[C@@]2([H])C([H])([H])C([H])([H])C([H])([H])[C@]2([H])OC([H])([H])c2c([H])c([H])c([H])c([H])c2[H])c([H])c1-c1c([H])nn(C2([H])C([H])([H])C([H])([H])N(C([H])([H])C3([H])C([H])([H])N([H])C([H])([H])C3([H])[H])C([H])([H])C2([H])[H])c1[H]


 44 49  0  0  0  0  0  0  0  0999 V2000
    2.2849    2.0083   13.2905 N   0  0  0  0  0  0  0  0  0  0  0  0
    2.7071    2.2590   14.6224 C   0  0  0  0  0  0  0  0  0  0  0  0
    3.0754    1.2827   15.4634 N   0  0  0  0  0  0  0  0  0  0  0  0
    3.4708    1.5484   16.7271 C   0  0  0  0  0  0  0  0  0  0  0  0
    3.5124    2.8504   17.2099 C   0  0  0  0  0  0  0  0  0  0  0  0
    3.1407    3.8643   16.3683 C   0  0  0  0  0  0  0  0  0  0  0  0
    2.7331    3.5754   15.0621 C   0  0  0  0  0  0  0  0  0  0  0  0
    1.2791    1.8938   13.0764 H   0  0  0  0  0  0  0  0  0  0  0  0
    2.9747    1.9378   12.5241 H   0  0  0  0  0  0  0  0  0  0  0  0
    3.9234    3.1341   18.5800 C   0  0  0  0  0  0  0  0  0  0  0  0
    4.4929    2.2943   19.5170 C   0  0  0  0  0  0  0  0  0  0  0  0
    4.6977    3.0148   20.6206 N   0  0  0  0  0  0  0  0  0  0  0  0
    4.3038    4.2717   20.4829 N   0  0  0  0  0  0  0  0  0  0  0  0
    3.8245    4.3667   19.2364 C   0  0  0  0  0  0  0  0  0  0  0  0
    4.4041    5.2950   21.5001 C   0  0  0  0  0  0  0  0  0  0  0  0
    4.8159    6.5972   20.9102 C   0  0  0  0  0  0  0  0  0  0  0  0
    6.2698    6.7948   20.6785 C   0  0  0  0  0  0  0  0  0  0  0  0
    7.0253    6.4378   21.8518 N   0  0  0  0  0  0  0  0  0  0  0  0
    6.7996    5.0621   22.1564 C   0  0  0  0  0  0  0  0  0  0  0  0
    5.3646    4.8139   22.5725 C   0  0  0  0  0  0  0  0  0  0  0  0
    6.8331    7.3592   22.9245 C   0  0  0  0  0  0  0  0  0  0  0  0
    8.1751    7.8964   23.3965 C   0  0  0  0  0  0  0  0  0  0  0  0
    7.9552    8.8786   24.5305 C   0  0  0  0  0  0  0  0  0  0  0  0
    9.1266    8.5291   25.4504 C   0  0  0  0  0  0  0  0  0  0  0  0
    9.0745    7.0829   25.3903 N   0  0  0  0  0  0  0  0  0  0  0  0
    9.0253    6.8162   23.9704 C   0  0  0  0  0  0  0  0  0  0  0  0
    8.1280    6.8087   25.7683 H   0  0  0  0  0  0  0  0  0  0  0  0
    2.3052    4.6135   14.1324 C   0  0  0  0  0  0  0  0  0  0  0  0
    2.8984    4.7907   13.0345 O   0  0  0  0  0  0  0  0  0  0  0  0
    1.1988    5.4263   14.4921 N   0  0  0  0  0  0  0  0  0  0  0  0
    0.6600    5.3628   15.3615 H   0  0  0  0  0  0  0  0  0  0  0  0
    0.7860    6.4516   13.5367 C   0  0  0  0  0  0  0  0  0  0  0  0
    1.9179    7.3570   13.1654 C   0  0  0  0  0  0  0  0  0  0  0  0
    1.7334    7.7092   11.7213 C   0  0  0  0  0  0  0  0  0  0  0  0
    0.4397    7.0266   11.2919 C   0  0  0  0  0  0  0  0  0  0  0  0
    0.4564    5.7804   12.1921 C   0  0  0  0  0  0  0  0  0  0  0  0
   -0.7777    5.2031   12.2758 O   0  0  0  0  0  0  0  0  0  0  0  0
   -1.4958    5.0364   11.1357 C   0  0  0  0  0  0  0  0  0  0  0  0
   -2.9101    5.4791   11.2340 C   0  0  0  0  0  0  0  0  0  0  0  0
   -3.6730    5.4022   10.0972 C   0  0  0  0  0  0  0  0  0  0  0  0
   -4.9904    5.7967   10.1100 C   0  0  0  0  0  0  0  0  0  0  0  0
   -5.5465    6.2750   11.2761 C   0  0  0  0  0  0  0  0  0  0  0  0
   -4.7625    6.3485   12.4229 C   0  0  0  0  0  0  0  0  0  0  0  0
   -3.4519    5.9489   12.3888 C   0  0  0  0  0  0  0  0  0  0  0  0
  1  2  1  0  0  0
  2  3  2  0  0  0
  3  4  1  0  0  0
  4  5  2  0  0  0
  5  6  1  0  0  0
  6  7  2  0  0  0
  7 28  1  0  0  0
 28 29  2  0  0  0
 28 30  1  0  0  0
 30 32  1  0  0  0
 32 33  1  0  0  0
 33 34  1  0  0  0
 34 35  1  0  0  0
 35 36  1  0  0  0
 36 37  1  0  0  0
 37 38  1  0  0  0
 38 39  1  0  0  0
 39 40  2  0  0  0
 40 41  1  0  0  0
 41 42  2  0  0  0
 42 43  1  0  0  0
 43 44  2  0  0  0
  5 10  1  0  0  0
 10 11  1  0  0  0
 11 12  2  0  0  0
 12 13  1  0  0  0
 13 14  1  0  0  0
 13 15  1  0  0  0
 15 16  1  0  0  0
 16 17  1  0  0  0
 17 18  1  0  0  0
 18 21  1  0  0  0
 21 22  1  0  0  0
 22 23  1  0  0  0
 23 24  1  0  0  0
 24 25  1  0  0  0
 25 26  1  0  0  0
 18 19  1  0  0  0
 19 20  1  0  0  0
  7  2  1  0  0  0
 36 32  1  0  0  0
 44 39  1  0  0  0
 14 10  2  0  0  0
 20 15  1  0  0  0
 26 22  1  0  0  0
  1  8  1  0  0  0
  1  9  1  0  0  0
 30 31  1  0  0  0
 25 27  1  0  0  0
M  END
> <minimizedAffinity>
-8.84959

> <CNNscore>
0.2226119787

> <CNNaffinity>
6.5664215088

> <CNN_VS>
1.4617640972

> <CNNaffinity_variance>
0.2467611730

$$$$
[H]c1nc(N([H])[H])c(C(=O)N([H])[C@@]2([H])C([H])([H])C([H])([H])C([H])([H])[C@]2([H])OC([H])([H])c2c([H])c([H])c([H])c([H])c2[H])c([H])c1-c1c([H])nn(C2([H])C([H])([H])C([H])([H])N(C([H])([H])C3([H])C([H])([H])N([H])C([H])([H])C3([H])[H])C([H])([H])C2([H])[H])c1[H]


 44 49  0  0  0  0  0  0  0  0999 V2000
    5.8014    4.1533   22.2051 N   0  0  0  0  0  0  0  0  0  0  0  0
    5.2941    3.6622   20.9736 C   0  0  0  0  0  0  0  0  0  0  0  0
    4.7550    2.4419   20.8452 N   0  0  0  0  0  0  0  0  0  0  0  0
    4.2817    1.9979   19.6609 C   0  0  0  0  0  0  0  0  0  0  0  0
    4.3341    2.7910   18.5215 C   0  0  0  0  0  0  0  0  0  0  0  0
    4.8806    4.0417   18.6288 C   0  0  0  0  0  0  0  0  0  0  0  0
    5.3672    4.4892   19.8611 C   0  0  0  0  0  0  0  0  0  0  0  0
    6.8046    4.0455   22.4344 H   0  0  0  0  0  0  0  0  0  0  0  0
    5.1768    4.6216   22.8823 H   0  0  0  0  0  0  0  0  0  0  0  0
    3.8381    2.3036   17.2397 C   0  0  0  0  0  0  0  0  0  0  0  0
    3.1586    1.1371   16.9480 C   0  0  0  0  0  0  0  0  0  0  0  0
    2.9099    1.1419   15.6376 N   0  0  0  0  0  0  0  0  0  0  0  0
    3.3767    2.2274   15.0394 N   0  0  0  0  0  0  0  0  0  0  0  0
    3.9511    2.9549   16.0056 C   0  0  0  0  0  0  0  0  0  0  0  0
    3.2540    2.5224   13.6289 C   0  0  0  0  0  0  0  0  0  0  0  0
    3.3392    3.9865   13.3790 C   0  0  0  0  0  0  0  0  0  0  0  0
    2.0918    4.7699   13.5717 C   0  0  0  0  0  0  0  0  0  0  0  0
    0.9862    4.1411   12.8956 N   0  0  0  0  0  0  0  0  0  0  0  0
    0.7866    2.8348   13.4341 C   0  0  0  0  0  0  0  0  0  0  0  0
    1.9546    1.9219   13.1237 C   0  0  0  0  0  0  0  0  0  0  0  0
    1.0972    4.2256   11.4753 C   0  0  0  0  0  0  0  0  0  0  0  0
   -0.0932    4.9797   10.9038 C   0  0  0  0  0  0  0  0  0  0  0  0
   -1.3634    4.5081   11.5842 C   0  0  0  0  0  0  0  0  0  0  0  0
   -2.1243    5.8277   11.7280 C   0  0  0  0  0  0  0  0  0  0  0  0
   -1.0495    6.6948   12.1646 N   0  0  0  0  0  0  0  0  0  0  0  0
   -0.0080    6.4379   11.1955 C   0  0  0  0  0  0  0  0  0  0  0  0
   -0.7012    6.2921   13.0759 H   0  0  0  0  0  0  0  0  0  0  0  0
    5.9795    5.8019   20.0262 C   0  0  0  0  0  0  0  0  0  0  0  0
    7.2322    5.9396   20.0444 O   0  0  0  0  0  0  0  0  0  0  0  0
    5.1293    6.9293   20.1672 N   0  0  0  0  0  0  0  0  0  0  0  0
    4.1045    6.9163   20.1720 H   0  0  0  0  0  0  0  0  0  0  0  0
    5.7705    8.2330   20.3208 C   0  0  0  0  0  0  0  0  0  0  0  0
    5.0357    9.3072   19.5826 C   0  0  0  0  0  0  0  0  0  0  0  0
    5.1424   10.5508   20.4105 C   0  0  0  0  0  0  0  0  0  0  0  0
    6.0013   10.1743   21.6123 C   0  0  0  0  0  0  0  0  0  0  0  0
    5.6290    8.6923   21.7823 C   0  0  0  0  0  0  0  0  0  0  0  0
    6.5442    8.0276   22.5463 O   0  0  0  0  0  0  0  0  0  0  0  0
    7.7406    8.6213   22.7908 C   0  0  0  0  0  0  0  0  0  0  0  0
    8.9161    7.7404   22.5716 C   0  0  0  0  0  0  0  0  0  0  0  0
    8.8320    6.4532   23.0369 C   0  0  0  0  0  0  0  0  0  0  0  0
    9.8815    5.5796   22.8735 C   0  0  0  0  0  0  0  0  0  0  0  0
   11.0277    6.0039   22.2377 C   0  0  0  0  0  0  0  0  0  0  0  0
   11.1012    7.3120   21.7702 C   0  0  0  0  0  0  0  0  0  0  0  0
   10.0432    8.1661   21.9423 C   0  0  0  0  0  0  0  0  0  0  0  0
  1  2  1  0  0  0
  2  3  2  0  0  0
  3  4  1  0  0  0
  4  5  2  0  0  0
  5  6  1  0  0  0
  6  7  2  0  0  0
  7 28  1  0  0  0
 28 29  2  0  0  0
 28 30  1  0  0  0
 30 32  1  0  0  0
 32 33  1  0  0  0
 33 34  1  0  0  0
 34 35  1  0  0  0
 35 36  1  0  0  0
 36 37  1  0  0  0
 37 38  1  0  0  0
 38 39  1  0  0  0
 39 40  2  0  0  0
 40 41  1  0  0  0
 41 42  2  0  0  0
 42 43  1  0  0  0
 43 44  2  0  0  0
  5 10  1  0  0  0
 10 11  1  0  0  0
 11 12  2  0  0  0
 12 13  1  0  0  0
 13 14  1  0  0  0
 13 15  1  0  0  0
 15 16  1  0  0  0
 16 17  1  0  0  0
 17 18  1  0  0  0
 18 21  1  0  0  0
 21 22  1  0  0  0
 22 23  1  0  0  0
 23 24  1  0  0  0
 24 25  1  0  0  0
 25 26  1  0  0  0
 18 19  1  0  0  0
 19 20  1  0  0  0
  7  2  1  0  0  0
 36 32  1  0  0  0
 44 39  1  0  0  0
 14 10  2  0  0  0
 20 15  1  0  0  0
 26 22  1  0  0  0
  1  8  1  0  0  0
  1  9  1  0  0  0
 30 31  1  0  0  0
 25 27  1  0  0  0
M  END
> <minimizedAffinity>
-8.40541

> <CNNscore>
0.1930496693

> <CNNaffinity>
6.7507934570

> <CNN_VS>
1.3032383919

> <CNNaffinity_variance>
0.0557683706

$$$$
[H]c1nc(N([H])[H])c(C(=O)N([H])[C@@]2([H])C([H])([H])C([H])([H])C([H])([H])[C@]2([H])OC([H])([H])c2c([H])c([H])c([H])c([H])c2[H])c([H])c1-c1c([H])nn(C2([H])C([H])([H])C([H])([H])N(C([H])([H])C3([H])C([H])([H])N([H])C([H])([H])C3([H])[H])C([H])([H])C2([H])[H])c1[H]


 44 49  0  0  0  0  0  0  0  0999 V2000
    2.6919    1.7744   13.3643 N   0  0  0  0  0  0  0  0  0  0  0  0
    3.0431    2.0537   14.7110 C   0  0  0  0  0  0  0  0  0  0  0  0
    3.0953    1.1077   15.6590 N   0  0  0  0  0  0  0  0  0  0  0  0
    3.4301    1.4009   16.9341 C   0  0  0  0  0  0  0  0  0  0  0  0
    3.7357    2.7006   17.3178 C   0  0  0  0  0  0  0  0  0  0  0  0
    3.6892    3.6837   16.3660 C   0  0  0  0  0  0  0  0  0  0  0  0
    3.3408    3.3666   15.0492 C   0  0  0  0  0  0  0  0  0  0  0  0
    1.7102    1.8710   13.0519 H   0  0  0  0  0  0  0  0  0  0  0  0
    3.4099    1.4730   12.6847 H   0  0  0  0  0  0  0  0  0  0  0  0
    4.0805    3.0182   18.6987 C   0  0  0  0  0  0  0  0  0  0  0  0
    4.5660    2.1927   19.6939 C   0  0  0  0  0  0  0  0  0  0  0  0
    4.7360    2.9443   20.7826 N   0  0  0  0  0  0  0  0  0  0  0  0
    4.3970    4.2085   20.5809 N   0  0  0  0  0  0  0  0  0  0  0  0
    3.9911    4.2760   19.3068 C   0  0  0  0  0  0  0  0  0  0  0  0
    4.4786    5.2631   21.5673 C   0  0  0  0  0  0  0  0  0  0  0  0
    4.5923    6.5963   20.9170 C   0  0  0  0  0  0  0  0  0  0  0  0
    5.9493    7.0101   20.4762 C   0  0  0  0  0  0  0  0  0  0  0  0
    6.9105    6.8074   21.5298 N   0  0  0  0  0  0  0  0  0  0  0  0
    6.9496    5.4225   21.8713 C   0  0  0  0  0  0  0  0  0  0  0  0
    5.6453    4.9668   22.4920 C   0  0  0  0  0  0  0  0  0  0  0  0
    6.7302    7.7177   22.6140 C   0  0  0  0  0  0  0  0  0  0  0  0
    7.6461    8.9194   22.4431 C   0  0  0  0  0  0  0  0  0  0  0  0
    6.9732    9.9442   21.5509 C   0  0  0  0  0  0  0  0  0  0  0  0
    7.3799   11.2461   22.2439 C   0  0  0  0  0  0  0  0  0  0  0  0
    7.1721   10.8732   23.6279 N   0  0  0  0  0  0  0  0  0  0  0  0
    7.8797    9.6175   23.7380 C   0  0  0  0  0  0  0  0  0  0  0  0
    6.1475   10.6355   23.7157 H   0  0  0  0  0  0  0  0  0  0  0  0
    3.2533    4.3772   14.0022 C   0  0  0  0  0  0  0  0  0  0  0  0
    4.1862    4.5362   13.1697 O   0  0  0  0  0  0  0  0  0  0  0  0
    2.0875    5.1839   13.9396 N   0  0  0  0  0  0  0  0  0  0  0  0
    1.2835    5.1339   14.5731 H   0  0  0  0  0  0  0  0  0  0  0  0
    2.0230    6.1812   12.8739 C   0  0  0  0  0  0  0  0  0  0  0  0
    1.1901    5.7144   11.7219 C   0  0  0  0  0  0  0  0  0  0  0  0
    0.4784    6.9191   11.1874 C   0  0  0  0  0  0  0  0  0  0  0  0
    0.9667    8.0937   12.0276 C   0  0  0  0  0  0  0  0  0  0  0  0
    1.2270    7.3990   13.3742 C   0  0  0  0  0  0  0  0  0  0  0  0
    2.0295    8.1514   14.1822 O   0  0  0  0  0  0  0  0  0  0  0  0
    3.3012    8.4057   13.7802 C   0  0  0  0  0  0  0  0  0  0  0  0
    4.3205    8.2640   14.8511 C   0  0  0  0  0  0  0  0  0  0  0  0
    4.0266    7.4193   15.8905 C   0  0  0  0  0  0  0  0  0  0  0  0
    4.9200    7.2390   16.9203 C   0  0  0  0  0  0  0  0  0  0  0  0
    6.1200    7.9153   16.9067 C   0  0  0  0  0  0  0  0  0  0  0  0
    6.4069    8.7697   15.8470 C   0  0  0  0  0  0  0  0  0  0  0  0
    5.5030    8.9341   14.8299 C   0  0  0  0  0  0  0  0  0  0  0  0
  1  2  1  0  0  0
  2  3  2  0  0  0
  3  4  1  0  0  0
  4  5  2  0  0  0
  5  6  1  0  0  0
  6  7  2  0  0  0
  7 28  1  0  0  0
 28 29  2  0  0  0
 28 30  1  0  0  0
 30 32  1  0  0  0
 32 33  1  0  0  0
 33 34  1  0  0  0
 34 35  1  0  0  0
 35 36  1  0  0  0
 36 37  1  0  0  0
 37 38  1  0  0  0
 38 39  1  0  0  0
 39 40  2  0  0  0
 40 41  1  0  0  0
 41 42  2  0  0  0
 42 43  1  0  0  0
 43 44  2  0  0  0
  5 10  1  0  0  0
 10 11  1  0  0  0
 11 12  2  0  0  0
 12 13  1  0  0  0
 13 14  1  0  0  0
 13 15  1  0  0  0
 15 16  1  0  0  0
 16 17  1  0  0  0
 17 18  1  0  0  0
 18 21  1  0  0  0
 21 22  1  0  0  0
 22 23  1  0  0  0
 23 24  1  0  0  0
 24 25  1  0  0  0
 25 26  1  0  0  0
 18 19  1  0  0  0
 19 20  1  0  0  0
  7  2  1  0  0  0
 36 32  1  0  0  0
 44 39  1  0  0  0
 14 10  2  0  0  0
 20 15  1  0  0  0
 26 22  1  0  0  0
  1  8  1  0  0  0
  1  9  1  0  0  0
 30 31  1  0  0  0
 25 27  1  0  0  0
M  END
> <minimizedAffinity>
-8.45847

> <CNNscore>
0.1777589470

> <CNNaffinity>
6.4828453064

> <CNN_VS>
1.1523838043

> <CNNaffinity_variance>
0.5166435242

$$$$
[H]c1nc(N([H])[H])c(C(=O)N([H])[C@@]2([H])C([H])([H])C([H])([H])C([H])([H])[C@]2([H])OC([H])([H])c2c([H])c([H])c([H])c([H])c2[H])c([H])c1-c1c([H])nn(C2([H])C([H])([H])C([H])([H])N(C([H])([H])C3([H])C([H])([H])N([H])C([H])([H])C3([H])[H])C([H])([H])C2([H])[H])c1[H]


 44 49  0  0  0  0  0  0  0  0999 V2000
    2.1097    1.8114   12.7398 N   0  0  0  0  0  0  0  0  0  0  0  0
    2.5926    2.1735   14.0247 C   0  0  0  0  0  0  0  0  0  0  0  0
    2.4128    1.4083   15.1102 N   0  0  0  0  0  0  0  0  0  0  0  0
    2.8804    1.7775   16.3221 C   0  0  0  0  0  0  0  0  0  0  0  0
    3.5705    2.9708   16.4948 C   0  0  0  0  0  0  0  0  0  0  0  0
    3.7664    3.7688   15.3996 C   0  0  0  0  0  0  0  0  0  0  0  0
    3.2767    3.3748   14.1503 C   0  0  0  0  0  0  0  0  0  0  0  0
    1.1849    2.1461   12.4183 H   0  0  0  0  0  0  0  0  0  0  0  0
    2.6743    1.2125   12.1149 H   0  0  0  0  0  0  0  0  0  0  0  0
    4.0601    3.3760   17.8073 C   0  0  0  0  0  0  0  0  0  0  0  0
    4.8186    2.6670   18.7181 C   0  0  0  0  0  0  0  0  0  0  0  0
    5.0222    3.4641   19.7680 N   0  0  0  0  0  0  0  0  0  0  0  0
    4.4521    4.6501   19.6191 N   0  0  0  0  0  0  0  0  0  0  0  0
    3.8552    4.6174   18.4211 C   0  0  0  0  0  0  0  0  0  0  0  0
    4.5042    5.7289   20.5810 C   0  0  0  0  0  0  0  0  0  0  0  0
    5.4764    6.7738   20.1612 C   0  0  0  0  0  0  0  0  0  0  0  0
    6.9051    6.5232   20.4818 C   0  0  0  0  0  0  0  0  0  0  0  0
    7.0559    6.1264   21.8583 N   0  0  0  0  0  0  0  0  0  0  0  0
    6.3247    4.9219   22.0837 C   0  0  0  0  0  0  0  0  0  0  0  0
    4.8330    5.1433   21.9423 C   0  0  0  0  0  0  0  0  0  0  0  0
    6.7982    7.1977   22.7652 C   0  0  0  0  0  0  0  0  0  0  0  0
    8.0939    7.6471   23.4221 C   0  0  0  0  0  0  0  0  0  0  0  0
    9.1505    6.5750   23.2402 C   0  0  0  0  0  0  0  0  0  0  0  0
   10.3913    7.4302   22.9760 C   0  0  0  0  0  0  0  0  0  0  0  0
    9.8345    8.4130   22.0695 N   0  0  0  0  0  0  0  0  0  0  0  0
    8.6483    8.8624   22.7628 C   0  0  0  0  0  0  0  0  0  0  0  0
    9.4910    7.8742   21.2295 H   0  0  0  0  0  0  0  0  0  0  0  0
    3.4369    4.1965   12.9569 C   0  0  0  0  0  0  0  0  0  0  0  0
    2.4366    4.6194   12.3172 O   0  0  0  0  0  0  0  0  0  0  0  0
    4.7520    4.5122   12.5273 N   0  0  0  0  0  0  0  0  0  0  0  0
    5.6227    4.2101   12.9755 H   0  0  0  0  0  0  0  0  0  0  0  0
    4.8819    5.3455   11.3344 C   0  0  0  0  0  0  0  0  0  0  0  0
    4.7929    6.8034   11.6593 C   0  0  0  0  0  0  0  0  0  0  0  0
    5.7335    7.5106   10.7326 C   0  0  0  0  0  0  0  0  0  0  0  0
    6.3210    6.4275    9.8350 C   0  0  0  0  0  0  0  0  0  0  0  0
    6.3163    5.2237   10.7914 C   0  0  0  0  0  0  0  0  0  0  0  0
    6.4357    4.0436   10.1161 O   0  0  0  0  0  0  0  0  0  0  0  0
    5.4245    3.6590    9.2957 C   0  0  0  0  0  0  0  0  0  0  0  0
    5.2217    2.1895    9.2231 C   0  0  0  0  0  0  0  0  0  0  0  0
    4.0028    1.7031    9.6208 C   0  0  0  0  0  0  0  0  0  0  0  0
    3.7419    0.3534    9.5845 C   0  0  0  0  0  0  0  0  0  0  0  0
    4.7158   -0.5167    9.1459 C   0  0  0  0  0  0  0  0  0  0  0  0
    5.9484   -0.0114    8.7452 C   0  0  0  0  0  0  0  0  0  0  0  0
    6.1874    1.3375    8.7881 C   0  0  0  0  0  0  0  0  0  0  0  0
  1  2  1  0  0  0
  2  3  2  0  0  0
  3  4  1  0  0  0
  4  5  2  0  0  0
  5  6  1  0  0  0
  6  7  2  0  0  0
  7 28  1  0  0  0
 28 29  2  0  0  0
 28 30  1  0  0  0
 30 32  1  0  0  0
 32 33  1  0  0  0
 33 34  1  0  0  0
 34 35  1  0  0  0
 35 36  1  0  0  0
 36 37  1  0  0  0
 37 38  1  0  0  0
 38 39  1  0  0  0
 39 40  2  0  0  0
 40 41  1  0  0  0
 41 42  2  0  0  0
 42 43  1  0  0  0
 43 44  2  0  0  0
  5 10  1  0  0  0
 10 11  1  0  0  0
 11 12  2  0  0  0
 12 13  1  0  0  0
 13 14  1  0  0  0
 13 15  1  0  0  0
 15 16  1  0  0  0
 16 17  1  0  0  0
 17 18  1  0  0  0
 18 21  1  0  0  0
 21 22  1  0  0  0
 22 23  1  0  0  0
 23 24  1  0  0  0
 24 25  1  0  0  0
 25 26  1  0  0  0
 18 19  1  0  0  0
 19 20  1  0  0  0
  7  2  1  0  0  0
 36 32  1  0  0  0
 44 39  1  0  0  0
 14 10  2  0  0  0
 20 15  1  0  0  0
 26 22  1  0  0  0
  1  8  1  0  0  0
  1  9  1  0  0  0
 30 31  1  0  0  0
 25 27  1  0  0  0
M  END
> <minimizedAffinity>
-8.16835

> <CNNscore>
0.1774322540

> <CNNaffinity>
6.6458702087

> <CNN_VS>
1.1791917086

> <CNNaffinity_variance>
0.2684247494

$$$$
[H]O[C@]1([H])C([H])([H])C([H])([H])[C@@]([H])(N([H])c2nc(N([H])C([H])([H])C([H])([H])C([H])([H])C([H])([H])[H])nc([H])c2-c2nc([H])c(N([H])C(=O)C3([H])C([H])([H])C([H])([H])N(C([H])([H])[H])C([H])([H])C3([H])[H])c([H])c2[H])C([H])([H])C1([H])[H]


 39 42  0  0  0  0  0  0  0  0999 V2000
    2.9571    0.1669   18.8038 C   0  0  0  0  0  0  0  0  0  0  0  0
    2.2447   -0.0316   17.6883 N   0  0  0  0  0  0  0  0  0  0  0  0
    2.3857    0.7152   16.5831 C   0  0  0  0  0  0  0  0  0  0  0  0
    3.3094    1.7716   16.5356 C   0  0  0  0  0  0  0  0  0  0  0  0
    4.0361    1.9752   17.6744 C   0  0  0  0  0  0  0  0  0  0  0  0
    3.8374    1.1670   18.7703 N   0  0  0  0  0  0  0  0  0  0  0  0
    3.3788    2.5588   15.3057 C   0  0  0  0  0  0  0  0  0  0  0  0
    2.8177    2.0159   14.1451 C   0  0  0  0  0  0  0  0  0  0  0  0
    2.7920    2.6867   12.9204 C   0  0  0  0  0  0  0  0  0  0  0  0
    3.3397    3.9372   12.8421 C   0  0  0  0  0  0  0  0  0  0  0  0
    3.8989    4.4609   14.0319 C   0  0  0  0  0  0  0  0  0  0  0  0
    3.8919    3.7690   15.1696 N   0  0  0  0  0  0  0  0  0  0  0  0
    3.3656    4.6850   11.6614 N   0  0  0  0  0  0  0  0  0  0  0  0
    2.5343    5.7311   11.2835 C   0  0  0  0  0  0  0  0  0  0  0  0
    1.5883    6.2194   11.9238 O   0  0  0  0  0  0  0  0  0  0  0  0
    4.1294    4.4098   10.9641 H   0  0  0  0  0  0  0  0  0  0  0  0
    2.7804    6.3741    9.9422 C   0  0  0  0  0  0  0  0  0  0  0  0
    2.5038    7.8604   10.1443 C   0  0  0  0  0  0  0  0  0  0  0  0
    2.5197    8.5069    8.7921 C   0  0  0  0  0  0  0  0  0  0  0  0
    3.7182    8.1993    8.0813 N   0  0  0  0  0  0  0  0  0  0  0  0
    4.2886    9.4217    7.5659 C   0  0  0  0  0  0  0  0  0  0  0  0
    4.7177    7.5168    8.8483 C   0  0  0  0  0  0  0  0  0  0  0  0
    4.1974    6.2468    9.4871 C   0  0  0  0  0  0  0  0  0  0  0  0
    2.7901   -0.6375   19.9606 N   0  0  0  0  0  0  0  0  0  0  0  0
    2.0890   -1.4146   19.9055 H   0  0  0  0  0  0  0  0  0  0  0  0
    3.5077   -0.4641   21.1940 C   0  0  0  0  0  0  0  0  0  0  0  0
    3.0309    0.7112   22.0135 C   0  0  0  0  0  0  0  0  0  0  0  0
    3.8651    2.7249   23.2369 C   0  0  0  0  0  0  0  0  0  0  0  0
    4.2528    1.4030   22.6136 C   0  0  0  0  0  0  0  0  0  0  0  0
    4.9780    3.0167   17.7658 N   0  0  0  0  0  0  0  0  0  0  0  0
    5.7743    3.0615   17.1219 H   0  0  0  0  0  0  0  0  0  0  0  0
    4.9078    4.0914   18.7249 C   0  0  0  0  0  0  0  0  0  0  0  0
    3.5221    4.6292   18.8003 C   0  0  0  0  0  0  0  0  0  0  0  0
    3.6183    5.9453   19.5839 C   0  0  0  0  0  0  0  0  0  0  0  0
    4.1522    5.5909   20.9780 C   0  0  0  0  0  0  0  0  0  0  0  0
    4.0855    6.7053   21.8082 O   0  0  0  0  0  0  0  0  0  0  0  0
    5.5707    5.0925   20.8152 C   0  0  0  0  0  0  0  0  0  0  0  0
    5.4768    3.7443   20.0803 C   0  0  0  0  0  0  0  0  0  0  0  0
    3.5715    7.4447   21.3892 H   0  0  0  0  0  0  0  0  0  0  0  0
 28 29  1  0  0  0
 29 27  1  0  0  0
 27 26  1  0  0  0
 26 24  1  0  0  0
 24  1  1  0  0  0
  1  2  2  0  0  0
  2  3  1  0  0  0
  3  4  2  0  0  0
  4  5  1  0  0  0
  5 30  1  0  0  0
 30 32  1  0  0  0
 32 33  1  0  0  0
 33 34  1  0  0  0
 34 35  1  0  0  0
 35 36  1  0  0  0
 35 37  1  0  0  0
 37 38  1  0  0  0
  5  6  2  0  0  0
  4  7  1  0  0  0
  7  8  2  0  0  0
  8  9  1  0  0  0
  9 10  2  0  0  0
 10 13  1  0  0  0
 13 14  1  0  0  0
 14 15  2  0  0  0
 14 17  1  0  0  0
 17 18  1  0  0  0
 18 19  1  0  0  0
 19 20  1  0  0  0
 20 21  1  0  0  0
 20 22  1  0  0  0
 22 23  1  0  0  0
 10 11  1  0  0  0
 11 12  2  0  0  0
  6  1  1  0  0  0
 12  7  1  0  0  0
 38 32  1  0  0  0
 23 17  1  0  0  0
 24 25  1  0  0  0
 30 31  1  0  0  0
 36 39  1  0  0  0
 13 16  1  0  0  0
M  END
> <minimizedAffinity>
-8.71769

> <CNNscore>
0.9177863002

> <CNNaffinity>
7.4209938049

> <CNN_VS>
6.8108863831

> <CNNaffinity_variance>
0.0964743644

$$$$
[H]O[C@]1([H])C([H])([H])C([H])([H])[C@@]([H])(N([H])c2nc(N([H])C([H])([H])C([H])([H])C([H])([H])C([H])([H])[H])nc([H])c2-c2nc([H])c(N([H])C(=O)C3([H])C([H])([H])C([H])([H])N(C([H])([H])[H])C([H])([H])C3([H])[H])c([H])c2[H])C([H])([H])C1([H])[H]


 39 42  0  0  0  0  0  0  0  0999 V2000
    1.1416    2.9712    9.7081 C   0  0  0  0  0  0  0  0  0  0  0  0
    1.0008    1.9209   10.5255 N   0  0  0  0  0  0  0  0  0  0  0  0
    1.4978    1.8865   11.7708 C   0  0  0  0  0  0  0  0  0  0  0  0
    2.2105    2.9760   12.2967 C   0  0  0  0  0  0  0  0  0  0  0  0
    2.3552    4.0480   11.4623 C   0  0  0  0  0  0  0  0  0  0  0  0
    1.8163    4.0116   10.1967 N   0  0  0  0  0  0  0  0  0  0  0  0
    2.7483    2.8467   13.6499 C   0  0  0  0  0  0  0  0  0  0  0  0
    2.3389    1.7520   14.4183 C   0  0  0  0  0  0  0  0  0  0  0  0
    2.8097    1.5032   15.7095 C   0  0  0  0  0  0  0  0  0  0  0  0
    3.7167    2.3670   16.2582 C   0  0  0  0  0  0  0  0  0  0  0  0
    4.1130    3.4645   15.4575 C   0  0  0  0  0  0  0  0  0  0  0  0
    3.6256    3.6458   14.2316 N   0  0  0  0  0  0  0  0  0  0  0  0
    4.2421    2.2049   17.5433 N   0  0  0  0  0  0  0  0  0  0  0  0
    3.8963    1.2654   18.5054 C   0  0  0  0  0  0  0  0  0  0  0  0
    3.0402    0.3692   18.4192 O   0  0  0  0  0  0  0  0  0  0  0  0
    5.0116    2.8986   17.8120 H   0  0  0  0  0  0  0  0  0  0  0  0
    4.6264    1.3088   19.8237 C   0  0  0  0  0  0  0  0  0  0  0  0
    4.6797    2.7825   20.2133 C   0  0  0  0  0  0  0  0  0  0  0  0
    5.5856    2.8992   21.4018 C   0  0  0  0  0  0  0  0  0  0  0  0
    5.1963    2.0052   22.4438 N   0  0  0  0  0  0  0  0  0  0  0  0
    5.1216    2.7340   23.6881 C   0  0  0  0  0  0  0  0  0  0  0  0
    3.9474    1.3359   22.2308 C   0  0  0  0  0  0  0  0  0  0  0  0
    3.9016    0.5900   20.9143 C   0  0  0  0  0  0  0  0  0  0  0  0
    0.6058    2.9839    8.3942 N   0  0  0  0  0  0  0  0  0  0  0  0
    1.1155    2.4304    7.6647 H   0  0  0  0  0  0  0  0  0  0  0  0
   -0.5769    3.6966    7.9947 C   0  0  0  0  0  0  0  0  0  0  0  0
   -1.8620    2.9944    8.3628 C   0  0  0  0  0  0  0  0  0  0  0  0
   -2.2059    0.5523    8.7698 C   0  0  0  0  0  0  0  0  0  0  0  0
   -1.8393    1.5993    7.7422 C   0  0  0  0  0  0  0  0  0  0  0  0
    3.0692    5.1939   11.8590 N   0  0  0  0  0  0  0  0  0  0  0  0
    2.7437    5.7692   12.6425 H   0  0  0  0  0  0  0  0  0  0  0  0
    4.2911    5.6430   11.2386 C   0  0  0  0  0  0  0  0  0  0  0  0
    4.7696    6.8963   11.8829 C   0  0  0  0  0  0  0  0  0  0  0  0
    5.8649    7.4557   10.9649 C   0  0  0  0  0  0  0  0  0  0  0  0
    6.9772    6.4002   10.9113 C   0  0  0  0  0  0  0  0  0  0  0  0
    8.0887    6.9165   10.2527 O   0  0  0  0  0  0  0  0  0  0  0  0
    6.4219    5.1806   10.2105 C   0  0  0  0  0  0  0  0  0  0  0  0
    5.3628    4.5820   11.1519 C   0  0  0  0  0  0  0  0  0  0  0  0
    7.9999    7.8927   10.0929 H   0  0  0  0  0  0  0  0  0  0  0  0
 28 29  1  0  0  0
 29 27  1  0  0  0
 27 26  1  0  0  0
 26 24  1  0  0  0
 24  1  1  0  0  0
  1  2  2  0  0  0
  2  3  1  0  0  0
  3  4  2  0  0  0
  4  5  1  0  0  0
  5 30  1  0  0  0
 30 32  1  0  0  0
 32 33  1  0  0  0
 33 34  1  0  0  0
 34 35  1  0  0  0
 35 36  1  0  0  0
 35 37  1  0  0  0
 37 38  1  0  0  0
  5  6  2  0  0  0
  4  7  1  0  0  0
  7  8  2  0  0  0
  8  9  1  0  0  0
  9 10  2  0  0  0
 10 13  1  0  0  0
 13 14  1  0  0  0
 14 15  2  0  0  0
 14 17  1  0  0  0
 17 18  1  0  0  0
 18 19  1  0  0  0
 19 20  1  0  0  0
 20 21  1  0  0  0
 20 22  1  0  0  0
 22 23  1  0  0  0
 10 11  1  0  0  0
 11 12  2  0  0  0
  6  1  1  0  0  0
 12  7  1  0  0  0
 38 32  1  0  0  0
 23 17  1  0  0  0
 24 25  1  0  0  0
 30 31  1  0  0  0
 36 39  1  0  0  0
 13 16  1  0  0  0
M  END
> <minimizedAffinity>
-6.98472

> <CNNscore>
0.3623487055

> <CNNaffinity>
6.9024343491

> <CNN_VS>
2.5010881424

> <CNNaffinity_variance>
0.5018966198

$$$$
[H]O[C@]1([H])C([H])([H])C([H])([H])[C@@]([H])(N([H])c2nc(N([H])C([H])([H])C([H])([H])C([H])([H])C([H])([H])[H])nc([H])c2-c2nc([H])c(N([H])C(=O)C3([H])C([H])([H])C([H])([H])N(C([H])([H])[H])C([H])([H])C3([H])[H])c([H])c2[H])C([H])([H])C1([H])[H]


 39 42  0  0  0  0  0  0  0  0999 V2000
    4.5986    1.4389   19.5815 C   0  0  0  0  0  0  0  0  0  0  0  0
    3.8509    1.0311   18.5491 N   0  0  0  0  0  0  0  0  0  0  0  0
    3.5945    1.7977   17.4788 C   0  0  0  0  0  0  0  0  0  0  0  0
    4.1077    3.1010   17.3815 C   0  0  0  0  0  0  0  0  0  0  0  0
    4.8702    3.5180   18.4356 C   0  0  0  0  0  0  0  0  0  0  0  0
    5.0915    2.6745   19.5000 N   0  0  0  0  0  0  0  0  0  0  0  0
    3.7548    3.8838   16.1984 C   0  0  0  0  0  0  0  0  0  0  0  0
    3.3272    3.1955   15.0582 C   0  0  0  0  0  0  0  0  0  0  0  0
    2.9309    3.8344   13.8812 C   0  0  0  0  0  0  0  0  0  0  0  0
    2.9581    5.2006   13.8314 C   0  0  0  0  0  0  0  0  0  0  0  0
    3.3940    5.8699   14.9996 C   0  0  0  0  0  0  0  0  0  0  0  0
    3.7595    5.2010   16.0916 N   0  0  0  0  0  0  0  0  0  0  0  0
    2.5847    5.9293   12.6985 N   0  0  0  0  0  0  0  0  0  0  0  0
    1.4569    6.7174   12.5118 C   0  0  0  0  0  0  0  0  0  0  0  0
    0.5404    6.9367   13.3215 O   0  0  0  0  0  0  0  0  0  0  0  0
    3.2626    5.8672   11.8727 H   0  0  0  0  0  0  0  0  0  0  0  0
    1.2925    7.4037   11.1795 C   0  0  0  0  0  0  0  0  0  0  0  0
    2.6673    7.3531   10.5210 C   0  0  0  0  0  0  0  0  0  0  0  0
    2.6088    8.2140    9.2954 C   0  0  0  0  0  0  0  0  0  0  0  0
    1.5146    7.8504    8.4546 N   0  0  0  0  0  0  0  0  0  0  0  0
    1.9912    7.6931    7.1006 C   0  0  0  0  0  0  0  0  0  0  0  0
    0.8287    6.6526    8.8393 C   0  0  0  0  0  0  0  0  0  0  0  0
    0.3421    6.6929   10.2722 C   0  0  0  0  0  0  0  0  0  0  0  0
    4.8563    0.6086   20.7029 N   0  0  0  0  0  0  0  0  0  0  0  0
    5.8542    0.3432   20.8820 H   0  0  0  0  0  0  0  0  0  0  0  0
    3.8543    0.1084   21.6040 C   0  0  0  0  0  0  0  0  0  0  0  0
    3.3026    1.1568   22.5404 C   0  0  0  0  0  0  0  0  0  0  0  0
    4.1691    3.3057   23.4778 C   0  0  0  0  0  0  0  0  0  0  0  0
    4.4767    1.8458   23.2320 C   0  0  0  0  0  0  0  0  0  0  0  0
    5.4236    4.8114   18.4730 N   0  0  0  0  0  0  0  0  0  0  0  0
    6.1705    5.0810   17.8249 H   0  0  0  0  0  0  0  0  0  0  0  0
    4.9976    5.8495   19.3789 C   0  0  0  0  0  0  0  0  0  0  0  0
    5.5372    5.6005   20.7434 C   0  0  0  0  0  0  0  0  0  0  0  0
    4.7819    6.5529   21.6802 C   0  0  0  0  0  0  0  0  0  0  0  0
    5.0996    7.9784   21.2100 C   0  0  0  0  0  0  0  0  0  0  0  0
    4.6053    8.9008   22.1267 O   0  0  0  0  0  0  0  0  0  0  0  0
    4.4853    8.1594   19.8400 C   0  0  0  0  0  0  0  0  0  0  0  0
    5.2760    7.2494   18.8846 C   0  0  0  0  0  0  0  0  0  0  0  0
    4.2931    8.4591   22.9597 H   0  0  0  0  0  0  0  0  0  0  0  0
 28 29  1  0  0  0
 29 27  1  0  0  0
 27 26  1  0  0  0
 26 24  1  0  0  0
 24  1  1  0  0  0
  1  2  2  0  0  0
  2  3  1  0  0  0
  3  4  2  0  0  0
  4  5  1  0  0  0
  5 30  1  0  0  0
 30 32  1  0  0  0
 32 33  1  0  0  0
 33 34  1  0  0  0
 34 35  1  0  0  0
 35 36  1  0  0  0
 35 37  1  0  0  0
 37 38  1  0  0  0
  5  6  2  0  0  0
  4  7  1  0  0  0
  7  8  2  0  0  0
  8  9  1  0  0  0
  9 10  2  0  0  0
 10 13  1  0  0  0
 13 14  1  0  0  0
 14 15  2  0  0  0
 14 17  1  0  0  0
 17 18  1  0  0  0
 18 19  1  0  0  0
 19 20  1  0  0  0
 20 21  1  0  0  0
 20 22  1  0  0  0
 22 23  1  0  0  0
 10 11  1  0  0  0
 11 12  2  0  0  0
  6  1  1  0  0  0
 12  7  1  0  0  0
 38 32  1  0  0  0
 23 17  1  0  0  0
 24 25  1  0  0  0
 30 31  1  0  0  0
 36 39  1  0  0  0
 13 16  1  0  0  0
M  END
> <minimizedAffinity>
-8.09945

> <CNNscore>
0.2605235875

> <CNNaffinity>
6.7341451645

> <CNN_VS>
1.7544037104

> <CNNaffinity_variance>
0.5067255497

$$$$
[H]O[C@]1([H])C([H])([H])C([H])([H])[C@@]([H])(N([H])c2nc(N([H])C([H])([H])C([H])([H])C([H])([H])C([H])([H])[H])nc([H])c2-c2nc([H])c(N([H])C(=O)C3([H])C([H])([H])C([H])([H])N(C([H])([H])[H])C([H])([H])C3([H])[H])c([H])c2[H])C([H])([H])C1([H])[H]


 39 42  0  0  0  0  0  0  0  0999 V2000
    4.6951    1.6852   19.9879 C   0  0  0  0  0  0  0  0  0  0  0  0
    3.8752    1.0102   19.1735 N   0  0  0  0  0  0  0  0  0  0  0  0
    3.6130    1.3902   17.9142 C   0  0  0  0  0  0  0  0  0  0  0  0
    4.1975    2.5448   17.3693 C   0  0  0  0  0  0  0  0  0  0  0  0
    5.0338    3.2346   18.2007 C   0  0  0  0  0  0  0  0  0  0  0  0
    5.2560    2.7829   19.4814 N   0  0  0  0  0  0  0  0  0  0  0  0
    3.8345    2.9091   16.0009 C   0  0  0  0  0  0  0  0  0  0  0  0
    3.2206    1.9382   15.2029 C   0  0  0  0  0  0  0  0  0  0  0  0
    2.7976    2.1780   13.8935 C   0  0  0  0  0  0  0  0  0  0  0  0
    2.9883    3.4209   13.3564 C   0  0  0  0  0  0  0  0  0  0  0  0
    3.6108    4.3827   14.1871 C   0  0  0  0  0  0  0  0  0  0  0  0
    3.9917    4.0902   15.4291 N   0  0  0  0  0  0  0  0  0  0  0  0
    2.6033    3.7557   12.0551 N   0  0  0  0  0  0  0  0  0  0  0  0
    1.5219    4.5244   11.6454 C   0  0  0  0  0  0  0  0  0  0  0  0
    0.6674    5.0756   12.3592 O   0  0  0  0  0  0  0  0  0  0  0  0
    3.2297    3.3659   11.2798 H   0  0  0  0  0  0  0  0  0  0  0  0
    1.3314    4.7357   10.1648 C   0  0  0  0  0  0  0  0  0  0  0  0
    0.1903    5.7399   10.0385 C   0  0  0  0  0  0  0  0  0  0  0  0
   -0.1828    5.8139    8.5887 C   0  0  0  0  0  0  0  0  0  0  0  0
    0.9561    6.0766    7.7700 N   0  0  0  0  0  0  0  0  0  0  0  0
    0.6513    7.1656    6.8720 C   0  0  0  0  0  0  0  0  0  0  0  0
    2.1547    6.3975    8.4867 C   0  0  0  0  0  0  0  0  0  0  0  0
    2.5270    5.3408    9.5048 C   0  0  0  0  0  0  0  0  0  0  0  0
    4.9572    1.2624   21.3168 N   0  0  0  0  0  0  0  0  0  0  0  0
    4.2624    0.6135   21.7579 H   0  0  0  0  0  0  0  0  0  0  0  0
    6.0986    1.6577   22.0960 C   0  0  0  0  0  0  0  0  0  0  0  0
    5.8481    2.8623   22.9714 C   0  0  0  0  0  0  0  0  0  0  0  0
    3.6521    3.9721   23.4116 C   0  0  0  0  0  0  0  0  0  0  0  0
    4.4671    2.7134   23.6060 C   0  0  0  0  0  0  0  0  0  0  0  0
    5.6642    4.4221   17.7849 N   0  0  0  0  0  0  0  0  0  0  0  0
    6.3613    4.4102   17.0336 H   0  0  0  0  0  0  0  0  0  0  0  0
    5.3882    5.7239   18.3407 C   0  0  0  0  0  0  0  0  0  0  0  0
    3.9419    5.8522   18.6672 C   0  0  0  0  0  0  0  0  0  0  0  0
    3.6976    7.3427   18.9398 C   0  0  0  0  0  0  0  0  0  0  0  0
    4.5730    7.7207   20.1418 C   0  0  0  0  0  0  0  0  0  0  0  0
    4.2619    9.0080   20.5682 O   0  0  0  0  0  0  0  0  0  0  0  0
    6.0188    7.6017   19.7145 C   0  0  0  0  0  0  0  0  0  0  0  0
    6.2859    6.1028   19.4949 C   0  0  0  0  0  0  0  0  0  0  0  0
    3.4463    9.3556   20.1207 H   0  0  0  0  0  0  0  0  0  0  0  0
 28 29  1  0  0  0
 29 27  1  0  0  0
 27 26  1  0  0  0
 26 24  1  0  0  0
 24  1  1  0  0  0
  1  2  2  0  0  0
  2  3  1  0  0  0
  3  4  2  0  0  0
  4  5  1  0  0  0
  5 30  1  0  0  0
 30 32  1  0  0  0
 32 33  1  0  0  0
 33 34  1  0  0  0
 34 35  1  0  0  0
 35 36  1  0  0  0
 35 37  1  0  0  0
 37 38  1  0  0  0
  5  6  2  0  0  0
  4  7  1  0  0  0
  7  8  2  0  0  0
  8  9  1  0  0  0
  9 10  2  0  0  0
 10 13  1  0  0  0
 13 14  1  0  0  0
 14 15  2  0  0  0
 14 17  1  0  0  0
 17 18  1  0  0  0
 18 19  1  0  0  0
 19 20  1  0  0  0
 20 21  1  0  0  0
 20 22  1  0  0  0
 22 23  1  0  0  0
 10 11  1  0  0  0
 11 12  2  0  0  0
  6  1  1  0  0  0
 12  7  1  0  0  0
 38 32  1  0  0  0
 23 17  1  0  0  0
 24 25  1  0  0  0
 30 31  1  0  0  0
 36 39  1  0  0  0
 13 16  1  0  0  0
M  END
> <minimizedAffinity>
-8.00016

> <CNNscore>
0.2437113225

> <CNNaffinity>
6.7168684006

> <CNN_VS>
1.6369768381

> <CNNaffinity_variance>
0.3374682069

$$$$
[H]O[C@]1([H])C([H])([H])C([H])([H])[C@@]([H])(N([H])c2nc(N([H])C([H])([H])C([H])([H])C([H])([H])C([H])([H])[H])nc([H])c2-c2nc([H])c(N([H])C(=O)C3([H])C([H])([H])C([H])([H])N(C([H])([H])[H])C([H])([H])C3([H])[H])c([H])c2[H])C([H])([H])C1([H])[H]


 39 42  0  0  0  0  0  0  0  0999 V2000
    6.9520    8.7281   24.2319 C   0  0  0  0  0  0  0  0  0  0  0  0
    6.4668    9.7721   23.5493 N   0  0  0  0  0  0  0  0  0  0  0  0
    5.9895    9.6758   22.2996 C   0  0  0  0  0  0  0  0  0  0  0  0
    5.9736    8.4456   21.6229 C   0  0  0  0  0  0  0  0  0  0  0  0
    6.4696    7.3799   22.3190 C   0  0  0  0  0  0  0  0  0  0  0  0
    6.9417    7.5549   23.5997 N   0  0  0  0  0  0  0  0  0  0  0  0
    5.4681    8.4309   20.2513 C   0  0  0  0  0  0  0  0  0  0  0  0
    4.4249    9.3041   19.9257 C   0  0  0  0  0  0  0  0  0  0  0  0
    3.8829    9.4055   18.6425 C   0  0  0  0  0  0  0  0  0  0  0  0
    4.3911    8.6164   17.6480 C   0  0  0  0  0  0  0  0  0  0  0  0
    5.4460    7.7438   18.0066 C   0  0  0  0  0  0  0  0  0  0  0  0
    5.9185    7.6946   19.2506 N   0  0  0  0  0  0  0  0  0  0  0  0
    3.9128    8.6430   16.3349 N   0  0  0  0  0  0  0  0  0  0  0  0
    4.5638    9.0759   15.1875 C   0  0  0  0  0  0  0  0  0  0  0  0
    5.7152    9.5332   15.0936 O   0  0  0  0  0  0  0  0  0  0  0  0
    2.9144    8.2795   16.2059 H   0  0  0  0  0  0  0  0  0  0  0  0
    3.8138    8.9960   13.8820 C   0  0  0  0  0  0  0  0  0  0  0  0
    4.2348    7.6739   13.2486 C   0  0  0  0  0  0  0  0  0  0  0  0
    3.6888    7.6519   11.8529 C   0  0  0  0  0  0  0  0  0  0  0  0
    2.2869    7.9181   11.8373 N   0  0  0  0  0  0  0  0  0  0  0  0
    1.6241    6.9127   11.0405 C   0  0  0  0  0  0  0  0  0  0  0  0
    1.6654    7.9611   13.1277 C   0  0  0  0  0  0  0  0  0  0  0  0
    2.3320    8.9459   14.0644 C   0  0  0  0  0  0  0  0  0  0  0  0
    7.4510    8.8553   25.5540 N   0  0  0  0  0  0  0  0  0  0  0  0
    6.8853    8.4218   26.3224 H   0  0  0  0  0  0  0  0  0  0  0  0
    8.6676    9.5317   25.9128 C   0  0  0  0  0  0  0  0  0  0  0  0
    9.8645    9.1002   25.0995 C   0  0  0  0  0  0  0  0  0  0  0  0
   10.5510    8.4807   27.4217 C   0  0  0  0  0  0  0  0  0  0  0  0
   11.0402    8.8930   26.0516 C   0  0  0  0  0  0  0  0  0  0  0  0
    6.5327    6.0961   21.7461 N   0  0  0  0  0  0  0  0  0  0  0  0
    7.1222    5.9159   20.9271 H   0  0  0  0  0  0  0  0  0  0  0  0
    5.8169    4.9487   22.2469 C   0  0  0  0  0  0  0  0  0  0  0  0
    4.3490    5.1868   22.1873 C   0  0  0  0  0  0  0  0  0  0  0  0
    3.7027    4.0722   23.0211 C   0  0  0  0  0  0  0  0  0  0  0  0
    4.0768    2.7448   22.3488 C   0  0  0  0  0  0  0  0  0  0  0  0
    3.3696    1.7005   22.9361 O   0  0  0  0  0  0  0  0  0  0  0  0
    5.5716    2.5628   22.4882 C   0  0  0  0  0  0  0  0  0  0  0  0
    6.2255    3.6421   21.6086 C   0  0  0  0  0  0  0  0  0  0  0  0
    2.6643    2.0347   23.5504 H   0  0  0  0  0  0  0  0  0  0  0  0
 28 29  1  0  0  0
 29 27  1  0  0  0
 27 26  1  0  0  0
 26 24  1  0  0  0
 24  1  1  0  0  0
  1  2  2  0  0  0
  2  3  1  0  0  0
  3  4  2  0  0  0
  4  5  1  0  0  0
  5 30  1  0  0  0
 30 32  1  0  0  0
 32 33  1  0  0  0
 33 34  1  0  0  0
 34 35  1  0  0  0
 35 36  1  0  0  0
 35 37  1  0  0  0
 37 38  1  0  0  0
  5  6  2  0  0  0
  4  7  1  0  0  0
  7  8  2  0  0  0
  8  9  1  0  0  0
  9 10  2  0  0  0
 10 13  1  0  0  0
 13 14  1  0  0  0
 14 15  2  0  0  0
 14 17  1  0  0  0
 17 18  1  0  0  0
 18 19  1  0  0  0
 19 20  1  0  0  0
 20 21  1  0  0  0
 20 22  1  0  0  0
 22 23  1  0  0  0
 10 11  1  0  0  0
 11 12  2  0  0  0
  6  1  1  0  0  0
 12  7  1  0  0  0
 38 32  1  0  0  0
 23 17  1  0  0  0
 24 25  1  0  0  0
 30 31  1  0  0  0
 36 39  1  0  0  0
 13 16  1  0  0  0
M  END
> <minimizedAffinity>
-7.91707

> <CNNscore>
0.2250536382

> <CNNaffinity>
6.0910491943

> <CNN_VS>
1.3708127737

> <CNNaffinity_variance>
0.0627407581

$$$$
[H]O[C@]1([H])C([H])([H])C([H])([H])[C@@]([H])(N([H])c2nc(N([H])C([H])([H])C([H])([H])C([H])([H])C([H])([H])[H])nc([H])c2-c2nc([H])c(N([H])C(=O)C3([H])C([H])([H])C([H])([H])N(C([H])([H])[H])C([H])([H])C3([H])[H])c([H])c2[H])C([H])([H])C1([H])[H]


 39 42  0  0  0  0  0  0  0  0999 V2000
    3.0614    2.6023   16.5741 C   0  0  0  0  0  0  0  0  0  0  0  0
    3.6953    2.1866   17.6770 N   0  0  0  0  0  0  0  0  0  0  0  0
    4.1495    3.0219   18.6230 C   0  0  0  0  0  0  0  0  0  0  0  0
    3.9818    4.4109   18.5042 C   0  0  0  0  0  0  0  0  0  0  0  0
    3.3356    4.8357   17.3780 C   0  0  0  0  0  0  0  0  0  0  0  0
    2.8961    3.9190   16.4506 N   0  0  0  0  0  0  0  0  0  0  0  0
    4.5349    5.2550   19.5618 C   0  0  0  0  0  0  0  0  0  0  0  0
    4.1374    5.0037   20.8792 C   0  0  0  0  0  0  0  0  0  0  0  0
    4.6232    5.7192   21.9758 C   0  0  0  0  0  0  0  0  0  0  0  0
    5.5336    6.7167   21.7613 C   0  0  0  0  0  0  0  0  0  0  0  0
    5.9176    6.9477   20.4190 C   0  0  0  0  0  0  0  0  0  0  0  0
    5.4161    6.2291   19.4163 N   0  0  0  0  0  0  0  0  0  0  0  0
    6.0737    7.4900   22.7928 N   0  0  0  0  0  0  0  0  0  0  0  0
    7.3676    7.4755   23.2962 C   0  0  0  0  0  0  0  0  0  0  0  0
    8.3180    6.7645   22.9291 O   0  0  0  0  0  0  0  0  0  0  0  0
    5.3950    8.1816   23.2474 H   0  0  0  0  0  0  0  0  0  0  0  0
    7.6933    8.4225   24.4232 C   0  0  0  0  0  0  0  0  0  0  0  0
    9.0024    7.9147   25.0188 C   0  0  0  0  0  0  0  0  0  0  0  0
    9.2518    8.6888   26.2779 C   0  0  0  0  0  0  0  0  0  0  0  0
    9.1911   10.0955   26.0456 N   0  0  0  0  0  0  0  0  0  0  0  0
   10.3604   10.7198   26.6185 C   0  0  0  0  0  0  0  0  0  0  0  0
    9.0984   10.4772   24.6676 C   0  0  0  0  0  0  0  0  0  0  0  0
    7.9338    9.8211   23.9569 C   0  0  0  0  0  0  0  0  0  0  0  0
    2.5893    1.6985   15.5874 N   0  0  0  0  0  0  0  0  0  0  0  0
    1.9640    0.9219   15.9104 H   0  0  0  0  0  0  0  0  0  0  0  0
    2.9051    1.7706   14.1869 C   0  0  0  0  0  0  0  0  0  0  0  0
    1.7883    2.3342   13.3412 C   0  0  0  0  0  0  0  0  0  0  0  0
    3.6581    3.9238   12.8674 C   0  0  0  0  0  0  0  0  0  0  0  0
    2.1569    3.7645   12.9536 C   0  0  0  0  0  0  0  0  0  0  0  0
    3.1249    6.2042   17.1266 N   0  0  0  0  0  0  0  0  0  0  0  0
    2.3866    6.7196   17.6164 H   0  0  0  0  0  0  0  0  0  0  0  0
    3.9087    6.9892   16.2051 C   0  0  0  0  0  0  0  0  0  0  0  0
    3.2284    7.0701   14.8839 C   0  0  0  0  0  0  0  0  0  0  0  0
    4.2664    7.6343   13.9044 C   0  0  0  0  0  0  0  0  0  0  0  0
    4.6461    9.0291   14.4188 C   0  0  0  0  0  0  0  0  0  0  0  0
    5.4388    9.6808   13.4794 O   0  0  0  0  0  0  0  0  0  0  0  0
    5.3633    8.8540   15.7386 C   0  0  0  0  0  0  0  0  0  0  0  0
    4.3137    8.3425   16.7400 C   0  0  0  0  0  0  0  0  0  0  0  0
    5.4680    9.1871   12.6181 H   0  0  0  0  0  0  0  0  0  0  0  0
 28 29  1  0  0  0
 29 27  1  0  0  0
 27 26  1  0  0  0
 26 24  1  0  0  0
 24  1  1  0  0  0
  1  2  2  0  0  0
  2  3  1  0  0  0
  3  4  2  0  0  0
  4  5  1  0  0  0
  5 30  1  0  0  0
 30 32  1  0  0  0
 32 33  1  0  0  0
 33 34  1  0  0  0
 34 35  1  0  0  0
 35 36  1  0  0  0
 35 37  1  0  0  0
 37 38  1  0  0  0
  5  6  2  0  0  0
  4  7  1  0  0  0
  7  8  2  0  0  0
  8  9  1  0  0  0
  9 10  2  0  0  0
 10 13  1  0  0  0
 13 14  1  0  0  0
 14 15  2  0  0  0
 14 17  1  0  0  0
 17 18  1  0  0  0
 18 19  1  0  0  0
 19 20  1  0  0  0
 20 21  1  0  0  0
 20 22  1  0  0  0
 22 23  1  0  0  0
 10 11  1  0  0  0
 11 12  2  0  0  0
  6  1  1  0  0  0
 12  7  1  0  0  0
 38 32  1  0  0  0
 23 17  1  0  0  0
 24 25  1  0  0  0
 30 31  1  0  0  0
 36 39  1  0  0  0
 13 16  1  0  0  0
M  END
> <minimizedAffinity>
-7.31529

> <CNNscore>
0.1995707303

> <CNNaffinity>
6.3612370491

> <CNN_VS>
1.2695167065

> <CNNaffinity_variance>
0.1666967124

$$$$
[H]O[C@]1([H])C([H])([H])C([H])([H])[C@@]([H])(N([H])c2nc(N([H])C([H])([H])C([H])([H])C([H])([H])C([H])([H])[H])nc([H])c2-c2nc([H])c(N([H])C(=O)C3([H])C([H])([H])C([H])([H])N(C([H])([H])[H])C([H])([H])C3([H])[H])c([H])c2[H])C([H])([H])C1([H])[H]


 39 42  0  0  0  0  0  0  0  0999 V2000
    4.8265    1.7486   20.5727 C   0  0  0  0  0  0  0  0  0  0  0  0
    4.1621    0.9239   19.7543 N   0  0  0  0  0  0  0  0  0  0  0  0
    3.8917    1.2189   18.4741 C   0  0  0  0  0  0  0  0  0  0  0  0
    4.2997    2.4383   17.9099 C   0  0  0  0  0  0  0  0  0  0  0  0
    4.9770    3.2807   18.7453 C   0  0  0  0  0  0  0  0  0  0  0  0
    5.2190    2.9091   20.0480 N   0  0  0  0  0  0  0  0  0  0  0  0
    3.9370    2.6980   16.5178 C   0  0  0  0  0  0  0  0  0  0  0  0
    3.2372    1.7049   15.8245 C   0  0  0  0  0  0  0  0  0  0  0  0
    2.8067    1.8510   14.5038 C   0  0  0  0  0  0  0  0  0  0  0  0
    3.0775    3.0198   13.8478 C   0  0  0  0  0  0  0  0  0  0  0  0
    3.7857    4.0063   14.5744 C   0  0  0  0  0  0  0  0  0  0  0  0
    4.1690    3.8046   15.8336 N   0  0  0  0  0  0  0  0  0  0  0  0
    2.6918    3.2583   12.5256 N   0  0  0  0  0  0  0  0  0  0  0  0
    1.4769    3.7367   12.0534 C   0  0  0  0  0  0  0  0  0  0  0  0
    0.4749    4.0524   12.7166 O   0  0  0  0  0  0  0  0  0  0  0  0
    3.4364    3.0426   11.7876 H   0  0  0  0  0  0  0  0  0  0  0  0
    1.3198    3.9053   10.5634 C   0  0  0  0  0  0  0  0  0  0  0  0
    2.7345    4.0774   10.0199 C   0  0  0  0  0  0  0  0  0  0  0  0
    2.6158    4.4682    8.5777 C   0  0  0  0  0  0  0  0  0  0  0  0
    1.7908    3.5543    7.8562 N   0  0  0  0  0  0  0  0  0  0  0  0
    2.4767    3.1480    6.6522 C   0  0  0  0  0  0  0  0  0  0  0  0
    1.4102    2.3798    8.5834 C   0  0  0  0  0  0  0  0  0  0  0  0
    0.7356    2.7012    9.9000 C   0  0  0  0  0  0  0  0  0  0  0  0
    5.1010    1.4134   21.9238 N   0  0  0  0  0  0  0  0  0  0  0  0
    5.9946    0.9012   22.1173 H   0  0  0  0  0  0  0  0  0  0  0  0
    4.2475    1.7231   23.0383 C   0  0  0  0  0  0  0  0  0  0  0  0
    4.5727    3.0386   23.7045 C   0  0  0  0  0  0  0  0  0  0  0  0
    3.9590    5.1166   22.4584 C   0  0  0  0  0  0  0  0  0  0  0  0
    3.4560    4.0282   23.3796 C   0  0  0  0  0  0  0  0  0  0  0  0
    5.4197    4.5438   18.3105 N   0  0  0  0  0  0  0  0  0  0  0  0
    6.0265    4.6325   17.4892 H   0  0  0  0  0  0  0  0  0  0  0  0
    5.0616    5.7899   18.9420 C   0  0  0  0  0  0  0  0  0  0  0  0
    6.2684    6.4472   19.5134 C   0  0  0  0  0  0  0  0  0  0  0  0
    5.7513    7.5711   20.4216 C   0  0  0  0  0  0  0  0  0  0  0  0
    4.9660    8.5370   19.5247 C   0  0  0  0  0  0  0  0  0  0  0  0
    4.6288    9.6808   20.2415 O   0  0  0  0  0  0  0  0  0  0  0  0
    3.7422    7.8058   19.0203 C   0  0  0  0  0  0  0  0  0  0  0  0
    4.2509    6.7137   18.0639 C   0  0  0  0  0  0  0  0  0  0  0  0
    5.0890    9.7116   21.1211 H   0  0  0  0  0  0  0  0  0  0  0  0
 28 29  1  0  0  0
 29 27  1  0  0  0
 27 26  1  0  0  0
 26 24  1  0  0  0
 24  1  1  0  0  0
  1  2  2  0  0  0
  2  3  1  0  0  0
  3  4  2  0  0  0
  4  5  1  0  0  0
  5 30  1  0  0  0
 30 32  1  0  0  0
 32 33  1  0  0  0
 33 34  1  0  0  0
 34 35  1  0  0  0
 35 36  1  0  0  0
 35 37  1  0  0  0
 37 38  1  0  0  0
  5  6  2  0  0  0
  4  7  1  0  0  0
  7  8  2  0  0  0
  8  9  1  0  0  0
  9 10  2  0  0  0
 10 13  1  0  0  0
 13 14  1  0  0  0
 14 15  2  0  0  0
 14 17  1  0  0  0
 17 18  1  0  0  0
 18 19  1  0  0  0
 19 20  1  0  0  0
 20 21  1  0  0  0
 20 22  1  0  0  0
 22 23  1  0  0  0
 10 11  1  0  0  0
 11 12  2  0  0  0
  6  1  1  0  0  0
 12  7  1  0  0  0
 38 32  1  0  0  0
 23 17  1  0  0  0
 24 25  1  0  0  0
 30 31  1  0  0  0
 36 39  1  0  0  0
 13 16  1  0  0  0
M  END
> <minimizedAffinity>
-7.84058

> <CNNscore>
0.1988867074

> <CNNaffinity>
6.5695581436

> <CNN_VS>
1.3065978289

> <CNNaffinity_variance>
0.3595266640

$$$$
[H]O[C@]1([H])C([H])([H])C([H])([H])[C@@]([H])(N([H])c2nc(N([H])C([H])([H])C([H])([H])C([H])([H])C([H])([H])[H])nc([H])c2-c2nc([H])c(N([H])C(=O)C3([H])C([H])([H])C([H])([H])N(C([H])([H])[H])C([H])([H])C3([H])[H])c([H])c2[H])C([H])([H])C1([H])[H]


 39 42  0  0  0  0  0  0  0  0999 V2000
    7.7125    7.4034   22.9773 C   0  0  0  0  0  0  0  0  0  0  0  0
    8.2045    7.8618   21.8201 N   0  0  0  0  0  0  0  0  0  0  0  0
    7.5003    7.8834   20.6789 C   0  0  0  0  0  0  0  0  0  0  0  0
    6.1776    7.4143   20.6347 C   0  0  0  0  0  0  0  0  0  0  0  0
    5.6753    6.9455   21.8155 C   0  0  0  0  0  0  0  0  0  0  0  0
    6.4575    6.9557   22.9476 N   0  0  0  0  0  0  0  0  0  0  0  0
    5.4897    7.4411   19.3451 C   0  0  0  0  0  0  0  0  0  0  0  0
    6.0387    6.7024   18.2917 C   0  0  0  0  0  0  0  0  0  0  0  0
    5.4544    6.6227   17.0256 C   0  0  0  0  0  0  0  0  0  0  0  0
    4.2870    7.2963   16.7948 C   0  0  0  0  0  0  0  0  0  0  0  0
    3.7548    8.0341   17.8789 C   0  0  0  0  0  0  0  0  0  0  0  0
    4.3620    8.0699   19.0634 N   0  0  0  0  0  0  0  0  0  0  0  0
    3.6296    7.2809   15.5614 N   0  0  0  0  0  0  0  0  0  0  0  0
    2.7265    6.3445   15.0760 C   0  0  0  0  0  0  0  0  0  0  0  0
    2.3157    5.3190   15.6444 O   0  0  0  0  0  0  0  0  0  0  0  0
    3.8566    8.1020   14.9135 H   0  0  0  0  0  0  0  0  0  0  0  0
    2.1567    6.5671   13.6980 C   0  0  0  0  0  0  0  0  0  0  0  0
    2.5249    8.0008   13.3299 C   0  0  0  0  0  0  0  0  0  0  0  0
    1.7933    8.3408   12.0666 C   0  0  0  0  0  0  0  0  0  0  0  0
    2.0301    7.3685   11.0492 N   0  0  0  0  0  0  0  0  0  0  0  0
    2.4055    8.0434    9.8291 C   0  0  0  0  0  0  0  0  0  0  0  0
    3.0367    6.3983   11.3628 C   0  0  0  0  0  0  0  0  0  0  0  0
    2.7660    5.6760   12.6654 C   0  0  0  0  0  0  0  0  0  0  0  0
    8.4775    7.3915   24.1722 N   0  0  0  0  0  0  0  0  0  0  0  0
    7.9528    7.4628   25.0766 H   0  0  0  0  0  0  0  0  0  0  0  0
    9.9102    7.2899   24.2311 C   0  0  0  0  0  0  0  0  0  0  0  0
   10.4176    5.8678   24.2487 C   0  0  0  0  0  0  0  0  0  0  0  0
   10.8450    5.3731   21.8361 C   0  0  0  0  0  0  0  0  0  0  0  0
   11.4809    5.7259   23.1619 C   0  0  0  0  0  0  0  0  0  0  0  0
    4.3707    6.4248   21.9013 N   0  0  0  0  0  0  0  0  0  0  0  0
    3.5576    7.0485   21.9215 H   0  0  0  0  0  0  0  0  0  0  0  0
    4.0612    5.0170   21.9483 C   0  0  0  0  0  0  0  0  0  0  0  0
    4.8694    4.2746   20.9431 C   0  0  0  0  0  0  0  0  0  0  0  0
    4.2490    2.8741   20.8484 C   0  0  0  0  0  0  0  0  0  0  0  0
    4.3763    2.2401   22.2398 C   0  0  0  0  0  0  0  0  0  0  0  0
    4.0095    0.8992   22.1847 O   0  0  0  0  0  0  0  0  0  0  0  0
    3.4983    3.0270   23.1868 C   0  0  0  0  0  0  0  0  0  0  0  0
    4.1471    4.4143   23.3307 C   0  0  0  0  0  0  0  0  0  0  0  0
    3.8937    0.5886   21.2485 H   0  0  0  0  0  0  0  0  0  0  0  0
 28 29  1  0  0  0
 29 27  1  0  0  0
 27 26  1  0  0  0
 26 24  1  0  0  0
 24  1  1  0  0  0
  1  2  2  0  0  0
  2  3  1  0  0  0
  3  4  2  0  0  0
  4  5  1  0  0  0
  5 30  1  0  0  0
 30 32  1  0  0  0
 32 33  1  0  0  0
 33 34  1  0  0  0
 34 35  1  0  0  0
 35 36  1  0  0  0
 35 37  1  0  0  0
 37 38  1  0  0  0
  5  6  2  0  0  0
  4  7  1  0  0  0
  7  8  2  0  0  0
  8  9  1  0  0  0
  9 10  2  0  0  0
 10 13  1  0  0  0
 13 14  1  0  0  0
 14 15  2  0  0  0
 14 17  1  0  0  0
 17 18  1  0  0  0
 18 19  1  0  0  0
 19 20  1  0  0  0
 20 21  1  0  0  0
 20 22  1  0  0  0
 22 23  1  0  0  0
 10 11  1  0  0  0
 11 12  2  0  0  0
  6  1  1  0  0  0
 12  7  1  0  0  0
 38 32  1  0  0  0
 23 17  1  0  0  0
 24 25  1  0  0  0
 30 31  1  0  0  0
 36 39  1  0  0  0
 13 16  1  0  0  0
M  END
> <minimizedAffinity>
-7.93222

> <CNNscore>
0.1917220056

> <CNNaffinity>
6.2672567368

> <CNN_VS>
1.2015709877

> <CNNaffinity_variance>
0.0454738177

$$$$
[H]O[C@]1([H])C([H])([H])C([H])([H])[C@@]([H])(N([H])c2nc(N([H])C([H])([H])C([H])([H])C([H])([H])C([H])([H])[H])nc([H])c2-c2nc([H])c(N([H])C(=O)C3([H])C([H])([H])C([H])([H])N(C([H])([H])[H])C([H])([H])C3([H])[H])c([H])c2[H])C([H])([H])C1([H])[H]


 39 42  0  0  0  0  0  0  0  0999 V2000
    2.4414    6.8487   10.3765 C   0  0  0  0  0  0  0  0  0  0  0  0
    1.8017    6.2944   11.4132 N   0  0  0  0  0  0  0  0  0  0  0  0
    2.2093    6.4260   12.6842 C   0  0  0  0  0  0  0  0  0  0  0  0
    3.3570    7.1691   13.0037 C   0  0  0  0  0  0  0  0  0  0  0  0
    4.0107    7.7343   11.9457 C   0  0  0  0  0  0  0  0  0  0  0  0
    3.5322    7.5568   10.6677 N   0  0  0  0  0  0  0  0  0  0  0  0
    3.7533    7.2366   14.4093 C   0  0  0  0  0  0  0  0  0  0  0  0
    3.2889    6.2383   15.2720 C   0  0  0  0  0  0  0  0  0  0  0  0
    3.6275    6.1771   16.6256 C   0  0  0  0  0  0  0  0  0  0  0  0
    4.4542    7.1360   17.1424 C   0  0  0  0  0  0  0  0  0  0  0  0
    4.9088    8.1323   16.2461 C   0  0  0  0  0  0  0  0  0  0  0  0
    4.5482    8.1347   14.9643 N   0  0  0  0  0  0  0  0  0  0  0  0
    4.8459    7.1617   18.4839 N   0  0  0  0  0  0  0  0  0  0  0  0
    4.4106    8.0085   19.4945 C   0  0  0  0  0  0  0  0  0  0  0  0
    3.5767    8.9256   19.4109 O   0  0  0  0  0  0  0  0  0  0  0  0
    5.5757    6.4290   18.7598 H   0  0  0  0  0  0  0  0  0  0  0  0
    4.9993    7.8213   20.8698 C   0  0  0  0  0  0  0  0  0  0  0  0
    6.4098    7.2875   20.6417 C   0  0  0  0  0  0  0  0  0  0  0  0
    6.9549    6.8776   21.9765 C   0  0  0  0  0  0  0  0  0  0  0  0
    6.8478    7.9339   22.9300 N   0  0  0  0  0  0  0  0  0  0  0  0
    8.1228    8.1105   23.5845 C   0  0  0  0  0  0  0  0  0  0  0  0
    6.4326    9.1950   22.3911 C   0  0  0  0  0  0  0  0  0  0  0  0
    5.1293    9.1026   21.6265 C   0  0  0  0  0  0  0  0  0  0  0  0
    1.9899    6.6955    9.0400 N   0  0  0  0  0  0  0  0  0  0  0  0
    2.7205    6.6634    8.2893 H   0  0  0  0  0  0  0  0  0  0  0  0
    0.6125    6.5826    8.6446 C   0  0  0  0  0  0  0  0  0  0  0  0
    0.2333    7.4916    7.5000 C   0  0  0  0  0  0  0  0  0  0  0  0
   -1.7437    7.6478    5.9786 C   0  0  0  0  0  0  0  0  0  0  0  0
   -1.2905    7.5466    7.4176 C   0  0  0  0  0  0  0  0  0  0  0  0
    5.1879    8.4836   12.1276 N   0  0  0  0  0  0  0  0  0  0  0  0
    5.1717    9.3681   12.6453 H   0  0  0  0  0  0  0  0  0  0  0  0
    6.4853    8.0866   11.6386 C   0  0  0  0  0  0  0  0  0  0  0  0
    7.5471    8.4878   12.6011 C   0  0  0  0  0  0  0  0  0  0  0  0
    8.8801    8.3182   11.8595 C   0  0  0  0  0  0  0  0  0  0  0  0
    8.9956    6.8326   11.4939 C   0  0  0  0  0  0  0  0  0  0  0  0
   10.2644    6.5664   10.9889 O   0  0  0  0  0  0  0  0  0  0  0  0
    7.9107    6.5198   10.4879 C   0  0  0  0  0  0  0  0  0  0  0  0
    6.5737    6.6323   11.2403 C   0  0  0  0  0  0  0  0  0  0  0  0
   10.8773    7.3382   11.1111 H   0  0  0  0  0  0  0  0  0  0  0  0
 28 29  1  0  0  0
 29 27  1  0  0  0
 27 26  1  0  0  0
 26 24  1  0  0  0
 24  1  1  0  0  0
  1  2  2  0  0  0
  2  3  1  0  0  0
  3  4  2  0  0  0
  4  5  1  0  0  0
  5 30  1  0  0  0
 30 32  1  0  0  0
 32 33  1  0  0  0
 33 34  1  0  0  0
 34 35  1  0  0  0
 35 36  1  0  0  0
 35 37  1  0  0  0
 37 38  1  0  0  0
  5  6  2  0  0  0
  4  7  1  0  0  0
  7  8  2  0  0  0
  8  9  1  0  0  0
  9 10  2  0  0  0
 10 13  1  0  0  0
 13 14  1  0  0  0
 14 15  2  0  0  0
 14 17  1  0  0  0
 17 18  1  0  0  0
 18 19  1  0  0  0
 19 20  1  0  0  0
 20 21  1  0  0  0
 20 22  1  0  0  0
 22 23  1  0  0  0
 10 11  1  0  0  0
 11 12  2  0  0  0
  6  1  1  0  0  0
 12  7  1  0  0  0
 38 32  1  0  0  0
 23 17  1  0  0  0
 24 25  1  0  0  0
 30 31  1  0  0  0
 36 39  1  0  0  0
 13 16  1  0  0  0
M  END
> <minimizedAffinity>
-6.62711

> <CNNscore>
0.1757409275

> <CNNaffinity>
5.9435925484

> <CNN_VS>
1.0445324183

> <CNNaffinity_variance>
0.9479202032

$$$$
[H]O[C@]1([H])C([H])([H])C([H])([H])[C@@]([H])(N([H])c2nc(N([H])C([H])([H])C([H])([H])C([H])([H])C([H])([H])[H])nc([H])c2C(=O)N([H])C2([H])C([H])([H])C([H])([H])C([H])([H])C([H])([H])C2([H])[H])C([H])([H])C1([H])[H]


 32 34  0  0  0  0  0  0  0  0999 V2000
    2.9762    0.0659   19.0184 C   0  0  0  0  0  0  0  0  0  0  0  0
    2.3624   -0.4425   17.9615 N   0  0  0  0  0  0  0  0  0  0  0  0
    2.3641    0.1676   16.7908 C   0  0  0  0  0  0  0  0  0  0  0  0
    3.0338    1.3987   16.6393 C   0  0  0  0  0  0  0  0  0  0  0  0
    3.6663    1.9247   17.7238 C   0  0  0  0  0  0  0  0  0  0  0  0
    3.6110    1.2218   18.8960 N   0  0  0  0  0  0  0  0  0  0  0  0
    3.0321    2.0667   15.3598 C   0  0  0  0  0  0  0  0  0  0  0  0
    3.8986    2.8804   15.0000 O   0  0  0  0  0  0  0  0  0  0  0  0
    2.0051    1.8407   14.3742 N   0  0  0  0  0  0  0  0  0  0  0  0
    1.2056    1.1921   14.5115 H   0  0  0  0  0  0  0  0  0  0  0  0
    2.0474    2.5383   13.0978 C   0  0  0  0  0  0  0  0  0  0  0  0
    2.4067    1.6395   11.9650 C   0  0  0  0  0  0  0  0  0  0  0  0
    2.2087    2.2410   10.6179 C   0  0  0  0  0  0  0  0  0  0  0  0
    0.8955    2.9810   10.4850 C   0  0  0  0  0  0  0  0  0  0  0  0
    0.8085    4.0004   11.5896 C   0  0  0  0  0  0  0  0  0  0  0  0
    0.7179    3.2334   12.8947 C   0  0  0  0  0  0  0  0  0  0  0  0
    2.9683   -0.6129   20.2932 N   0  0  0  0  0  0  0  0  0  0  0  0
    2.3309   -1.4202   20.4386 H   0  0  0  0  0  0  0  0  0  0  0  0
    3.8681   -0.1194   21.3138 C   0  0  0  0  0  0  0  0  0  0  0  0
    3.1489    0.8418   22.2058 C   0  0  0  0  0  0  0  0  0  0  0  0
    4.6388    2.2361   23.6233 C   0  0  0  0  0  0  0  0  0  0  0  0
    3.9134    2.1350   22.2867 C   0  0  0  0  0  0  0  0  0  0  0  0
    4.3893    3.1321   17.7538 N   0  0  0  0  0  0  0  0  0  0  0  0
    4.9937    3.4400   16.9745 H   0  0  0  0  0  0  0  0  0  0  0  0
    4.3387    4.0396   18.8968 C   0  0  0  0  0  0  0  0  0  0  0  0
    5.6598    4.7008   19.1955 C   0  0  0  0  0  0  0  0  0  0  0  0
    5.5445    5.1791   20.6565 C   0  0  0  0  0  0  0  0  0  0  0  0
    4.4265    6.1721   20.7018 C   0  0  0  0  0  0  0  0  0  0  0  0
    3.4012    5.7223   21.5643 O   0  0  0  0  0  0  0  0  0  0  0  0
    3.7564    6.3997   19.3560 C   0  0  0  0  0  0  0  0  0  0  0  0
    3.2553    5.0718   18.7981 C   0  0  0  0  0  0  0  0  0  0  0  0
    3.0044    6.4512   22.0702 H   0  0  0  0  0  0  0  0  0  0  0  0
 21 22  1  0  0  0
 22 20  1  0  0  0
 20 19  1  0  0  0
 19 17  1  0  0  0
 17  1  1  0  0  0
  1  2  2  0  0  0
  2  3  1  0  0  0
  3  4  2  0  0  0
  4  7  1  0  0  0
  7  8  2  0  0  0
  7  9  1  0  0  0
  9 11  1  0  0  0
 11 12  1  0  0  0
 12 13  1  0  0  0
 13 14  1  0  0  0
 14 15  1  0  0  0
 15 16  1  0  0  0
  4  5  1  0  0  0
  5 23  1  0  0  0
 23 25  1  0  0  0
 25 26  1  0  0  0
 26 27  1  0  0  0
 27 28  1  0  0  0
 28 29  1  0  0  0
 28 30  1  0  0  0
 30 31  1  0  0  0
  5  6  2  0  0  0
  6  1  1  0  0  0
 16 11  1  0  0  0
 31 25  1  0  0  0
 17 18  1  0  0  0
  9 10  1  0  0  0
 23 24  1  0  0  0
 29 32  1  0  0  0
M  END
> <minimizedAffinity>
-7.84114

> <CNNscore>
0.9475201964

> <CNNaffinity>
7.0914392471

> <CNN_VS>
6.7192816734

> <CNNaffinity_variance>
0.0745164752

$$$$
[H]O[C@]1([H])C([H])([H])C([H])([H])[C@@]([H])(N([H])c2nc(N([H])C([H])([H])C([H])([H])C([H])([H])C([H])([H])[H])nc([H])c2C(=O)N([H])C2([H])C([H])([H])C([H])([H])C([H])([H])C([H])([H])C2([H])[H])C([H])([H])C1([H])[H]


 32 34  0  0  0  0  0  0  0  0999 V2000
    1.9344    1.8715   14.3894 C   0  0  0  0  0  0  0  0  0  0  0  0
    2.0227    1.1137   15.4711 N   0  0  0  0  0  0  0  0  0  0  0  0
    2.8353    1.4100   16.4684 C   0  0  0  0  0  0  0  0  0  0  0  0
    3.6423    2.5636   16.4002 C   0  0  0  0  0  0  0  0  0  0  0  0
    3.5544    3.3455   15.2894 C   0  0  0  0  0  0  0  0  0  0  0  0
    2.6847    2.9597   14.3065 N   0  0  0  0  0  0  0  0  0  0  0  0
    4.5331    2.8849   17.4895 C   0  0  0  0  0  0  0  0  0  0  0  0
    5.5800    3.5404   17.3605 O   0  0  0  0  0  0  0  0  0  0  0  0
    4.2769    2.4636   18.8438 N   0  0  0  0  0  0  0  0  0  0  0  0
    3.4471    1.9076   19.1285 H   0  0  0  0  0  0  0  0  0  0  0  0
    5.2054    2.8128   19.9085 C   0  0  0  0  0  0  0  0  0  0  0  0
    4.7366    3.9706   20.7209 C   0  0  0  0  0  0  0  0  0  0  0  0
    5.5133    4.1980   21.9702 C   0  0  0  0  0  0  0  0  0  0  0  0
    5.7945    2.9231   22.7352 C   0  0  0  0  0  0  0  0  0  0  0  0
    6.4692    1.9487   21.8067 C   0  0  0  0  0  0  0  0  0  0  0  0
    5.4549    1.5747   20.7432 C   0  0  0  0  0  0  0  0  0  0  0  0
    1.0396    1.5369   13.3061 N   0  0  0  0  0  0  0  0  0  0  0  0
    0.4375    0.6939   13.3821 H   0  0  0  0  0  0  0  0  0  0  0  0
    1.0332    2.4145   12.1551 C   0  0  0  0  0  0  0  0  0  0  0  0
    1.3731    1.6398   10.9217 C   0  0  0  0  0  0  0  0  0  0  0  0
    3.4695    2.8075   10.2777 C   0  0  0  0  0  0  0  0  0  0  0  0
    2.8664    1.5072   10.7960 C   0  0  0  0  0  0  0  0  0  0  0  0
    4.2732    4.5330   15.0554 N   0  0  0  0  0  0  0  0  0  0  0  0
    5.3001    4.5919   15.1526 H   0  0  0  0  0  0  0  0  0  0  0  0
    3.6144    5.7745   14.6591 C   0  0  0  0  0  0  0  0  0  0  0  0
    3.6850    6.0435   13.1777 C   0  0  0  0  0  0  0  0  0  0  0  0
    3.4171    7.5549   13.0341 C   0  0  0  0  0  0  0  0  0  0  0  0
    2.0382    7.8036   13.5583 C   0  0  0  0  0  0  0  0  0  0  0  0
    2.0810    8.6856   14.6618 O   0  0  0  0  0  0  0  0  0  0  0  0
    1.3417    6.5505   14.0650 C   0  0  0  0  0  0  0  0  0  0  0  0
    2.1969    5.8826   15.1365 C   0  0  0  0  0  0  0  0  0  0  0  0
    1.3302    9.3029   14.6646 H   0  0  0  0  0  0  0  0  0  0  0  0
 21 22  1  0  0  0
 22 20  1  0  0  0
 20 19  1  0  0  0
 19 17  1  0  0  0
 17  1  1  0  0  0
  1  2  2  0  0  0
  2  3  1  0  0  0
  3  4  2  0  0  0
  4  7  1  0  0  0
  7  8  2  0  0  0
  7  9  1  0  0  0
  9 11  1  0  0  0
 11 12  1  0  0  0
 12 13  1  0  0  0
 13 14  1  0  0  0
 14 15  1  0  0  0
 15 16  1  0  0  0
  4  5  1  0  0  0
  5 23  1  0  0  0
 23 25  1  0  0  0
 25 26  1  0  0  0
 26 27  1  0  0  0
 27 28  1  0  0  0
 28 29  1  0  0  0
 28 30  1  0  0  0
 30 31  1  0  0  0
  5  6  2  0  0  0
  6  1  1  0  0  0
 16 11  1  0  0  0
 31 25  1  0  0  0
 17 18  1  0  0  0
  9 10  1  0  0  0
 23 24  1  0  0  0
 29 32  1  0  0  0
M  END
> <minimizedAffinity>
-7.06895

> <CNNscore>
0.5589191914

> <CNNaffinity>
6.3613100052

> <CNN_VS>
3.5554583073

> <CNNaffinity_variance>
0.2605534494

$$$$
[H]O[C@]1([H])C([H])([H])C([H])([H])[C@@]([H])(N([H])c2nc(N([H])C([H])([H])C([H])([H])C([H])([H])C([H])([H])[H])nc([H])c2C(=O)N([H])C2([H])C([H])([H])C([H])([H])C([H])([H])C([H])([H])C2([H])[H])C([H])([H])C1([H])[H]


 32 34  0  0  0  0  0  0  0  0999 V2000
    2.2869    1.9988   15.1523 C   0  0  0  0  0  0  0  0  0  0  0  0
    2.9087    1.0777   15.8715 N   0  0  0  0  0  0  0  0  0  0  0  0
    3.5531    1.3761   16.9843 C   0  0  0  0  0  0  0  0  0  0  0  0
    3.5928    2.7098   17.4389 C   0  0  0  0  0  0  0  0  0  0  0  0
    2.9545    3.6599   16.7022 C   0  0  0  0  0  0  0  0  0  0  0  0
    2.3128    3.2576   15.5630 N   0  0  0  0  0  0  0  0  0  0  0  0
    4.3006    3.0357   18.6539 C   0  0  0  0  0  0  0  0  0  0  0  0
    5.1990    3.8901   18.7265 O   0  0  0  0  0  0  0  0  0  0  0  0
    4.0182    2.3844   19.9082 N   0  0  0  0  0  0  0  0  0  0  0  0
    3.2975    1.6459   20.0260 H   0  0  0  0  0  0  0  0  0  0  0  0
    4.7592    2.7482   21.1066 C   0  0  0  0  0  0  0  0  0  0  0  0
    3.8754    3.2472   22.1976 C   0  0  0  0  0  0  0  0  0  0  0  0
    4.5480    3.3825   23.5185 C   0  0  0  0  0  0  0  0  0  0  0  0
    5.4215    2.1963   23.8646 C   0  0  0  0  0  0  0  0  0  0  0  0
    6.3988    1.9795   22.7399 C   0  0  0  0  0  0  0  0  0  0  0  0
    5.5926    1.5564   21.5272 C   0  0  0  0  0  0  0  0  0  0  0  0
    1.5837    1.6584   13.9375 N   0  0  0  0  0  0  0  0  0  0  0  0
    0.6851    1.1406   13.9949 H   0  0  0  0  0  0  0  0  0  0  0  0
    2.1841    2.0680   12.6858 C   0  0  0  0  0  0  0  0  0  0  0  0
    1.1166    2.4328   11.7039 C   0  0  0  0  0  0  0  0  0  0  0  0
    2.1531    4.6720   11.9943 C   0  0  0  0  0  0  0  0  0  0  0  0
    0.8523    3.9127   11.7615 C   0  0  0  0  0  0  0  0  0  0  0  0
    2.8812    5.0320   17.0081 N   0  0  0  0  0  0  0  0  0  0  0  0
    2.2656    5.4064   17.7485 H   0  0  0  0  0  0  0  0  0  0  0  0
    3.6727    6.0303   16.2943 C   0  0  0  0  0  0  0  0  0  0  0  0
    2.9449    6.6503   15.1291 C   0  0  0  0  0  0  0  0  0  0  0  0
    4.0530    7.2501   14.2409 C   0  0  0  0  0  0  0  0  0  0  0  0
    4.7458    8.2952   15.0567 C   0  0  0  0  0  0  0  0  0  0  0  0
    6.1097    7.9657   15.2262 O   0  0  0  0  0  0  0  0  0  0  0  0
    4.1850    8.4448   16.4621 C   0  0  0  0  0  0  0  0  0  0  0  0
    4.2327    7.1013   17.1821 C   0  0  0  0  0  0  0  0  0  0  0  0
    6.6814    8.7510   15.1935 H   0  0  0  0  0  0  0  0  0  0  0  0
 21 22  1  0  0  0
 22 20  1  0  0  0
 20 19  1  0  0  0
 19 17  1  0  0  0
 17  1  1  0  0  0
  1  2  2  0  0  0
  2  3  1  0  0  0
  3  4  2  0  0  0
  4  7  1  0  0  0
  7  8  2  0  0  0
  7  9  1  0  0  0
  9 11  1  0  0  0
 11 12  1  0  0  0
 12 13  1  0  0  0
 13 14  1  0  0  0
 14 15  1  0  0  0
 15 16  1  0  0  0
  4  5  1  0  0  0
  5 23  1  0  0  0
 23 25  1  0  0  0
 25 26  1  0  0  0
 26 27  1  0  0  0
 27 28  1  0  0  0
 28 29  1  0  0  0
 28 30  1  0  0  0
 30 31  1  0  0  0
  5  6  2  0  0  0
  6  1  1  0  0  0
 16 11  1  0  0  0
 31 25  1  0  0  0
 17 18  1  0  0  0
  9 10  1  0  0  0
 23 24  1  0  0  0
 29 32  1  0  0  0
M  END
> <minimizedAffinity>
-6.74280

> <CNNscore>
0.4146276414

> <CNNaffinity>
6.3656520844

> <CNN_VS>
2.6393752098

> <CNNaffinity_variance>
0.3123727739

$$$$
[H]O[C@]1([H])C([H])([H])C([H])([H])[C@@]([H])(N([H])c2nc(N([H])C([H])([H])C([H])([H])C([H])([H])C([H])([H])[H])nc([H])c2C(=O)N([H])C2([H])C([H])([H])C([H])([H])C([H])([H])C([H])([H])C2([H])[H])C([H])([H])C1([H])[H]


 32 34  0  0  0  0  0  0  0  0999 V2000
    3.1797    3.7447   14.7231 C   0  0  0  0  0  0  0  0  0  0  0  0
    3.4633    2.4609   14.8765 N   0  0  0  0  0  0  0  0  0  0  0  0
    3.6645    1.9262   16.0666 C   0  0  0  0  0  0  0  0  0  0  0  0
    3.5797    2.7285   17.2225 C   0  0  0  0  0  0  0  0  0  0  0  0
    3.2882    4.0493   17.0689 C   0  0  0  0  0  0  0  0  0  0  0  0
    3.0956    4.5150   15.7972 N   0  0  0  0  0  0  0  0  0  0  0  0
    3.8034    2.1438   18.5230 C   0  0  0  0  0  0  0  0  0  0  0  0
    3.4465    0.9972   18.8397 O   0  0  0  0  0  0  0  0  0  0  0  0
    4.4725    2.8554   19.5828 N   0  0  0  0  0  0  0  0  0  0  0  0
    4.8355    3.8240   19.4886 H   0  0  0  0  0  0  0  0  0  0  0  0
    4.6748    2.2225   20.8774 C   0  0  0  0  0  0  0  0  0  0  0  0
    6.1008    1.8690   21.1260 C   0  0  0  0  0  0  0  0  0  0  0  0
    6.3970    1.4636   22.5273 C   0  0  0  0  0  0  0  0  0  0  0  0
    5.7494    2.3648   23.5560 C   0  0  0  0  0  0  0  0  0  0  0  0
    4.2716    2.4255   23.2739 C   0  0  0  0  0  0  0  0  0  0  0  0
    4.1029    3.1329   21.9433 C   0  0  0  0  0  0  0  0  0  0  0  0
    2.9597    4.3167   13.4153 N   0  0  0  0  0  0  0  0  0  0  0  0
    3.3873    3.8672   12.5821 H   0  0  0  0  0  0  0  0  0  0  0  0
    2.1387    5.5064   13.3404 C   0  0  0  0  0  0  0  0  0  0  0  0
    0.8988    5.2212   12.5542 C   0  0  0  0  0  0  0  0  0  0  0  0
   -0.6058    6.2098   10.8418 C   0  0  0  0  0  0  0  0  0  0  0  0
    0.8239    6.1402   11.3654 C   0  0  0  0  0  0  0  0  0  0  0  0
    3.1541    4.9921   18.1056 N   0  0  0  0  0  0  0  0  0  0  0  0
    2.3283    5.0260   18.7254 H   0  0  0  0  0  0  0  0  0  0  0  0
    4.1776    5.9973   18.3785 C   0  0  0  0  0  0  0  0  0  0  0  0
    4.0670    7.2181   17.5014 C   0  0  0  0  0  0  0  0  0  0  0  0
    5.4554    7.8848   17.5699 C   0  0  0  0  0  0  0  0  0  0  0  0
    5.6826    8.2700   18.9974 C   0  0  0  0  0  0  0  0  0  0  0  0
    6.8157    7.6022   19.5147 O   0  0  0  0  0  0  0  0  0  0  0  0
    4.5335    7.8983   19.9211 C   0  0  0  0  0  0  0  0  0  0  0  0
    4.2537    6.4026   19.8203 C   0  0  0  0  0  0  0  0  0  0  0  0
    7.3308    8.1683   20.1137 H   0  0  0  0  0  0  0  0  0  0  0  0
 21 22  1  0  0  0
 22 20  1  0  0  0
 20 19  1  0  0  0
 19 17  1  0  0  0
 17  1  1  0  0  0
  1  2  2  0  0  0
  2  3  1  0  0  0
  3  4  2  0  0  0
  4  7  1  0  0  0
  7  8  2  0  0  0
  7  9  1  0  0  0
  9 11  1  0  0  0
 11 12  1  0  0  0
 12 13  1  0  0  0
 13 14  1  0  0  0
 14 15  1  0  0  0
 15 16  1  0  0  0
  4  5  1  0  0  0
  5 23  1  0  0  0
 23 25  1  0  0  0
 25 26  1  0  0  0
 26 27  1  0  0  0
 27 28  1  0  0  0
 28 29  1  0  0  0
 28 30  1  0  0  0
 30 31  1  0  0  0
  5  6  2  0  0  0
  6  1  1  0  0  0
 16 11  1  0  0  0
 31 25  1  0  0  0
 17 18  1  0  0  0
  9 10  1  0  0  0
 23 24  1  0  0  0
 29 32  1  0  0  0
M  END
> <minimizedAffinity>
-6.36422

> <CNNscore>
0.3257751167

> <CNNaffinity>
5.9941854477

> <CNN_VS>
1.9527564049

> <CNNaffinity_variance>
0.4933556020

$$$$
[H]O[C@]1([H])C([H])([H])C([H])([H])[C@@]([H])(N([H])c2nc(N([H])C([H])([H])C([H])([H])C([H])([H])C([H])([H])[H])nc([H])c2C(=O)N([H])C2([H])C([H])([H])C([H])([H])C([H])([H])C([H])([H])C2([H])[H])C([H])([H])C1([H])[H]


 32 34  0  0  0  0  0  0  0  0999 V2000
    2.3196    2.9096   13.5759 C   0  0  0  0  0  0  0  0  0  0  0  0
    1.9804    1.7846   14.1855 N   0  0  0  0  0  0  0  0  0  0  0  0
    2.5103    1.4276   15.3406 C   0  0  0  0  0  0  0  0  0  0  0  0
    3.4682    2.2546   15.9615 C   0  0  0  0  0  0  0  0  0  0  0  0
    3.8195    3.4124   15.3379 C   0  0  0  0  0  0  0  0  0  0  0  0
    3.2179    3.7000   14.1434 N   0  0  0  0  0  0  0  0  0  0  0  0
    4.0497    1.8617   17.2228 C   0  0  0  0  0  0  0  0  0  0  0  0
    5.2664    1.6905   17.4034 O   0  0  0  0  0  0  0  0  0  0  0  0
    3.2514    1.6310   18.4004 N   0  0  0  0  0  0  0  0  0  0  0  0
    2.2177    1.7289   18.4257 H   0  0  0  0  0  0  0  0  0  0  0  0
    3.8845    1.2364   19.6498 C   0  0  0  0  0  0  0  0  0  0  0  0
    4.1245    2.3911   20.5605 C   0  0  0  0  0  0  0  0  0  0  0  0
    4.5249    2.0096   21.9425 C   0  0  0  0  0  0  0  0  0  0  0  0
    3.6944    0.8797   22.5110 C   0  0  0  0  0  0  0  0  0  0  0  0
    3.7499   -0.2813   21.5539 C   0  0  0  0  0  0  0  0  0  0  0  0
    3.0392    0.1541   20.2870 C   0  0  0  0  0  0  0  0  0  0  0  0
    1.7305    3.2895   12.3131 N   0  0  0  0  0  0  0  0  0  0  0  0
    1.6931    4.2930   12.0476 H   0  0  0  0  0  0  0  0  0  0  0  0
    1.2173    2.2278   11.4737 C   0  0  0  0  0  0  0  0  0  0  0  0
    2.3398    1.5819   10.7256 C   0  0  0  0  0  0  0  0  0  0  0  0
    0.3844    0.2109   10.0398 C   0  0  0  0  0  0  0  0  0  0  0  0
    1.7889    0.6687    9.6644 C   0  0  0  0  0  0  0  0  0  0  0  0
    4.7462    4.3593   15.8136 N   0  0  0  0  0  0  0  0  0  0  0  0
    5.6181    4.5887   15.3093 H   0  0  0  0  0  0  0  0  0  0  0  0
    4.5412    5.0869   17.0630 C   0  0  0  0  0  0  0  0  0  0  0  0
    5.8229    5.3943   17.7942 C   0  0  0  0  0  0  0  0  0  0  0  0
    5.3942    5.6773   19.2478 C   0  0  0  0  0  0  0  0  0  0  0  0
    4.4981    6.8746   19.2114 C   0  0  0  0  0  0  0  0  0  0  0  0
    3.2125    6.5442   19.6968 O   0  0  0  0  0  0  0  0  0  0  0  0
    4.2757    7.4293   17.8132 C   0  0  0  0  0  0  0  0  0  0  0  0
    3.7244    6.3347   16.9057 C   0  0  0  0  0  0  0  0  0  0  0  0
    2.8250    7.2642   20.2222 H   0  0  0  0  0  0  0  0  0  0  0  0
 21 22  1  0  0  0
 22 20  1  0  0  0
 20 19  1  0  0  0
 19 17  1  0  0  0
 17  1  1  0  0  0
  1  2  2  0  0  0
  2  3  1  0  0  0
  3  4  2  0  0  0
  4  7  1  0  0  0
  7  8  2  0  0  0
  7  9  1  0  0  0
  9 11  1  0  0  0
 11 12  1  0  0  0
 12 13  1  0  0  0
 13 14  1  0  0  0
 14 15  1  0  0  0
 15 16  1  0  0  0
  4  5  1  0  0  0
  5 23  1  0  0  0
 23 25  1  0  0  0
 25 26  1  0  0  0
 26 27  1  0  0  0
 27 28  1  0  0  0
 28 29  1  0  0  0
 28 30  1  0  0  0
 30 31  1  0  0  0
  5  6  2  0  0  0
  6  1  1  0  0  0
 16 11  1  0  0  0
 31 25  1  0  0  0
 17 18  1  0  0  0
  9 10  1  0  0  0
 23 24  1  0  0  0
 29 32  1  0  0  0
M  END
> <minimizedAffinity>
-6.88201

> <CNNscore>
0.3015248179

> <CNNaffinity>
6.2114176750

> <CNN_VS>
1.8728965521

> <CNNaffinity_variance>
0.5723344684

$$$$
[H]O[C@]1([H])C([H])([H])C([H])([H])[C@@]([H])(N([H])c2nc(N([H])C([H])([H])C([H])([H])C([H])([H])C([H])([H])[H])nc([H])c2C(=O)N([H])C2([H])C([H])([H])C([H])([H])C([H])([H])C([H])([H])C2([H])[H])C([H])([H])C1([H])[H]


 32 34  0  0  0  0  0  0  0  0999 V2000
    3.5012    2.1185   16.8675 C   0  0  0  0  0  0  0  0  0  0  0  0
    3.2772    1.8433   15.5923 N   0  0  0  0  0  0  0  0  0  0  0  0
    2.7912    2.7429   14.7573 C   0  0  0  0  0  0  0  0  0  0  0  0
    2.4949    4.0423   15.2164 C   0  0  0  0  0  0  0  0  0  0  0  0
    2.7240    4.3293   16.5272 C   0  0  0  0  0  0  0  0  0  0  0  0
    3.2292    3.3339   17.3180 N   0  0  0  0  0  0  0  0  0  0  0  0
    1.9603    5.0242   14.3036 C   0  0  0  0  0  0  0  0  0  0  0  0
    1.1426    5.9010   14.6274 O   0  0  0  0  0  0  0  0  0  0  0  0
    2.3383    5.0699   12.9135 N   0  0  0  0  0  0  0  0  0  0  0  0
    3.0110    4.4106   12.4760 H   0  0  0  0  0  0  0  0  0  0  0  0
    1.7717    6.0799   12.0323 C   0  0  0  0  0  0  0  0  0  0  0  0
    2.7829    7.0743   11.5753 C   0  0  0  0  0  0  0  0  0  0  0  0
    2.3161    7.9634   10.4765 C   0  0  0  0  0  0  0  0  0  0  0  0
    1.5777    7.2204    9.3844 C   0  0  0  0  0  0  0  0  0  0  0  0
    0.4525    6.4426   10.0136 C   0  0  0  0  0  0  0  0  0  0  0  0
    1.0848    5.3731   10.8832 C   0  0  0  0  0  0  0  0  0  0  0  0
    4.0352    1.1254   17.7701 N   0  0  0  0  0  0  0  0  0  0  0  0
    4.0388    0.1261   17.4866 H   0  0  0  0  0  0  0  0  0  0  0  0
    4.5454    1.5904   19.0423 C   0  0  0  0  0  0  0  0  0  0  0  0
    3.7807    0.9566   20.1605 C   0  0  0  0  0  0  0  0  0  0  0  0
    3.5023    1.0231   22.6285 C   0  0  0  0  0  0  0  0  0  0  0  0
    3.8398    1.8327   21.3821 C   0  0  0  0  0  0  0  0  0  0  0  0
    2.4982    5.5696   17.1535 N   0  0  0  0  0  0  0  0  0  0  0  0
    1.5521    5.9613   17.2905 H   0  0  0  0  0  0  0  0  0  0  0  0
    3.5919    6.3973   17.6546 C   0  0  0  0  0  0  0  0  0  0  0  0
    3.8621    6.2066   19.1251 C   0  0  0  0  0  0  0  0  0  0  0  0
    4.6423    7.4654   19.5533 C   0  0  0  0  0  0  0  0  0  0  0  0
    5.9175    7.4733   18.7712 C   0  0  0  0  0  0  0  0  0  0  0  0
    5.9916    8.6277   17.9592 O   0  0  0  0  0  0  0  0  0  0  0  0
    6.0582    6.2958   17.8196 C   0  0  0  0  0  0  0  0  0  0  0  0
    4.8634    6.2521   16.8729 C   0  0  0  0  0  0  0  0  0  0  0  0
    6.8947    8.9840   17.9135 H   0  0  0  0  0  0  0  0  0  0  0  0
 21 22  1  0  0  0
 22 20  1  0  0  0
 20 19  1  0  0  0
 19 17  1  0  0  0
 17  1  1  0  0  0
  1  2  2  0  0  0
  2  3  1  0  0  0
  3  4  2  0  0  0
  4  7  1  0  0  0
  7  8  2  0  0  0
  7  9  1  0  0  0
  9 11  1  0  0  0
 11 12  1  0  0  0
 12 13  1  0  0  0
 13 14  1  0  0  0
 14 15  1  0  0  0
 15 16  1  0  0  0
  4  5  1  0  0  0
  5 23  1  0  0  0
 23 25  1  0  0  0
 25 26  1  0  0  0
 26 27  1  0  0  0
 27 28  1  0  0  0
 28 29  1  0  0  0
 28 30  1  0  0  0
 30 31  1  0  0  0
  5  6  2  0  0  0
  6  1  1  0  0  0
 16 11  1  0  0  0
 31 25  1  0  0  0
 17 18  1  0  0  0
  9 10  1  0  0  0
 23 24  1  0  0  0
 29 32  1  0  0  0
M  END
> <minimizedAffinity>
-6.28599

> <CNNscore>
0.2956956923

> <CNNaffinity>
6.0933356285

> <CNN_VS>
1.8017730713

> <CNNaffinity_variance>
0.4575330615

$$$$
[H]O[C@]1([H])C([H])([H])C([H])([H])[C@@]([H])(N([H])c2nc(N([H])C([H])([H])C([H])([H])C([H])([H])C([H])([H])[H])nc([H])c2C(=O)N([H])C2([H])C([H])([H])C([H])([H])C([H])([H])C([H])([H])C2([H])[H])C([H])([H])C1([H])[H]


 32 34  0  0  0  0  0  0  0  0999 V2000
    4.7810    2.8489   20.0231 C   0  0  0  0  0  0  0  0  0  0  0  0
    4.6260    2.3447   18.8090 N   0  0  0  0  0  0  0  0  0  0  0  0
    4.0715    3.0353   17.8302 C   0  0  0  0  0  0  0  0  0  0  0  0
    3.6239    4.3516   18.0629 C   0  0  0  0  0  0  0  0  0  0  0  0
    3.7816    4.8737   19.3101 C   0  0  0  0  0  0  0  0  0  0  0  0
    4.3668    4.0840   20.2615 N   0  0  0  0  0  0  0  0  0  0  0  0
    3.0145    5.1047   16.9929 C   0  0  0  0  0  0  0  0  0  0  0  0
    1.7989    5.0913   16.7389 O   0  0  0  0  0  0  0  0  0  0  0  0
    3.7806    5.9514   16.1135 N   0  0  0  0  0  0  0  0  0  0  0  0
    4.8089    6.0782   16.1850 H   0  0  0  0  0  0  0  0  0  0  0  0
    3.1200    6.6917   15.0489 C   0  0  0  0  0  0  0  0  0  0  0  0
    3.5029    8.1315   15.0290 C   0  0  0  0  0  0  0  0  0  0  0  0
    3.0628    8.8666   13.8118 C   0  0  0  0  0  0  0  0  0  0  0  0
    3.3101    8.0981   12.5319 C   0  0  0  0  0  0  0  0  0  0  0  0
    2.6602    6.7455   12.6546 C   0  0  0  0  0  0  0  0  0  0  0  0
    3.4070    5.9914   13.7377 C   0  0  0  0  0  0  0  0  0  0  0  0
    5.3913    2.0830   21.0847 N   0  0  0  0  0  0  0  0  0  0  0  0
    5.2546    1.0538   21.1164 H   0  0  0  0  0  0  0  0  0  0  0  0
    6.1745    2.8091   22.0616 C   0  0  0  0  0  0  0  0  0  0  0  0
    5.7748    2.3979   23.4428 C   0  0  0  0  0  0  0  0  0  0  0  0
    3.8724    3.9707   23.7262 C   0  0  0  0  0  0  0  0  0  0  0  0
    4.2824    2.5084   23.5979 C   0  0  0  0  0  0  0  0  0  0  0  0
    3.4053    6.1673   19.7182 N   0  0  0  0  0  0  0  0  0  0  0  0
    2.4616    6.3866   20.0770 H   0  0  0  0  0  0  0  0  0  0  0  0
    4.3266    7.2988   19.6605 C   0  0  0  0  0  0  0  0  0  0  0  0
    3.7527    8.5032   18.9592 C   0  0  0  0  0  0  0  0  0  0  0  0
    4.9761    9.3512   18.5582 C   0  0  0  0  0  0  0  0  0  0  0  0
    5.6646    9.7474   19.8258 C   0  0  0  0  0  0  0  0  0  0  0  0
    6.9808    9.2335   19.8543 O   0  0  0  0  0  0  0  0  0  0  0  0
    4.9912    9.2129   21.0799 C   0  0  0  0  0  0  0  0  0  0  0  0
    4.8785    7.6943   20.9976 C   0  0  0  0  0  0  0  0  0  0  0  0
    7.6072    9.8575   20.2580 H   0  0  0  0  0  0  0  0  0  0  0  0
 21 22  1  0  0  0
 22 20  1  0  0  0
 20 19  1  0  0  0
 19 17  1  0  0  0
 17  1  1  0  0  0
  1  2  2  0  0  0
  2  3  1  0  0  0
  3  4  2  0  0  0
  4  7  1  0  0  0
  7  8  2  0  0  0
  7  9  1  0  0  0
  9 11  1  0  0  0
 11 12  1  0  0  0
 12 13  1  0  0  0
 13 14  1  0  0  0
 14 15  1  0  0  0
 15 16  1  0  0  0
  4  5  1  0  0  0
  5 23  1  0  0  0
 23 25  1  0  0  0
 25 26  1  0  0  0
 26 27  1  0  0  0
 27 28  1  0  0  0
 28 29  1  0  0  0
 28 30  1  0  0  0
 30 31  1  0  0  0
  5  6  2  0  0  0
  6  1  1  0  0  0
 16 11  1  0  0  0
 31 25  1  0  0  0
 17 18  1  0  0  0
  9 10  1  0  0  0
 23 24  1  0  0  0
 29 32  1  0  0  0
M  END
> <minimizedAffinity>
-7.55798

> <CNNscore>
0.2829664648

> <CNNaffinity>
6.0799598694

> <CNN_VS>
1.7204247713

> <CNNaffinity_variance>
0.4046515822

$$$$
[H]O[C@]1([H])C([H])([H])C([H])([H])[C@@]([H])(N([H])c2nc(N([H])C([H])([H])C([H])([H])C([H])([H])C([H])([H])[H])nc([H])c2C(=O)N([H])C2([H])C([H])([H])C([H])([H])C([H])([H])C([H])([H])C2([H])[H])C([H])([H])C1([H])[H]


 32 34  0  0  0  0  0  0  0  0999 V2000
    1.8668    2.2775   13.9353 C   0  0  0  0  0  0  0  0  0  0  0  0
    1.7303    1.6314   15.0824 N   0  0  0  0  0  0  0  0  0  0  0  0
    2.4094    1.9716   16.1621 C   0  0  0  0  0  0  0  0  0  0  0  0
    3.3126    3.0527   16.1143 C   0  0  0  0  0  0  0  0  0  0  0  0
    3.4557    3.7199   14.9364 C   0  0  0  0  0  0  0  0  0  0  0  0
    2.7105    3.2962   13.8702 N   0  0  0  0  0  0  0  0  0  0  0  0
    4.0573    3.4218   17.2944 C   0  0  0  0  0  0  0  0  0  0  0  0
    5.0157    2.7714   17.7425 O   0  0  0  0  0  0  0  0  0  0  0  0
    3.7449    4.5985   18.0656 N   0  0  0  0  0  0  0  0  0  0  0  0
    2.9742    5.2544   17.8320 H   0  0  0  0  0  0  0  0  0  0  0  0
    4.5257    4.9288   19.2484 C   0  0  0  0  0  0  0  0  0  0  0  0
    5.5887    5.9354   18.9707 C   0  0  0  0  0  0  0  0  0  0  0  0
    6.2361    6.4957   20.1883 C   0  0  0  0  0  0  0  0  0  0  0  0
    5.2461    6.8606   21.2730 C   0  0  0  0  0  0  0  0  0  0  0  0
    4.4016    5.6510   21.5743 C   0  0  0  0  0  0  0  0  0  0  0  0
    3.5709    5.3708   20.3370 C   0  0  0  0  0  0  0  0  0  0  0  0
    1.1160    1.8962   12.7618 N   0  0  0  0  0  0  0  0  0  0  0  0
    0.3207    1.2348   12.8562 H   0  0  0  0  0  0  0  0  0  0  0  0
    1.5235    2.4706   11.4972 C   0  0  0  0  0  0  0  0  0  0  0  0
    2.3321    1.4783   10.7238 C   0  0  0  0  0  0  0  0  0  0  0  0
    4.0710    1.3146    8.9567 C   0  0  0  0  0  0  0  0  0  0  0  0
    3.5166    2.1614   10.0963 C   0  0  0  0  0  0  0  0  0  0  0  0
    4.2991    4.8237   14.7088 N   0  0  0  0  0  0  0  0  0  0  0  0
    5.3052    4.7226   14.4967 H   0  0  0  0  0  0  0  0  0  0  0  0
    3.8099    6.1986   14.7593 C   0  0  0  0  0  0  0  0  0  0  0  0
    4.6667    7.1086   15.6018 C   0  0  0  0  0  0  0  0  0  0  0  0
    3.7594    8.3077   15.9419 C   0  0  0  0  0  0  0  0  0  0  0  0
    3.3984    8.9610   14.6455 C   0  0  0  0  0  0  0  0  0  0  0  0
    1.9993    8.9283   14.4488 O   0  0  0  0  0  0  0  0  0  0  0  0
    3.9973    8.2752   13.4278 C   0  0  0  0  0  0  0  0  0  0  0  0
    3.5844    6.8072   13.4074 C   0  0  0  0  0  0  0  0  0  0  0  0
    1.6703    9.7428   14.0328 H   0  0  0  0  0  0  0  0  0  0  0  0
 21 22  1  0  0  0
 22 20  1  0  0  0
 20 19  1  0  0  0
 19 17  1  0  0  0
 17  1  1  0  0  0
  1  2  2  0  0  0
  2  3  1  0  0  0
  3  4  2  0  0  0
  4  7  1  0  0  0
  7  8  2  0  0  0
  7  9  1  0  0  0
  9 11  1  0  0  0
 11 12  1  0  0  0
 12 13  1  0  0  0
 13 14  1  0  0  0
 14 15  1  0  0  0
 15 16  1  0  0  0
  4  5  1  0  0  0
  5 23  1  0  0  0
 23 25  1  0  0  0
 25 26  1  0  0  0
 26 27  1  0  0  0
 27 28  1  0  0  0
 28 29  1  0  0  0
 28 30  1  0  0  0
 30 31  1  0  0  0
  5  6  2  0  0  0
  6  1  1  0  0  0
 16 11  1  0  0  0
 31 25  1  0  0  0
 17 18  1  0  0  0
  9 10  1  0  0  0
 23 24  1  0  0  0
 29 32  1  0  0  0
M  END
> <minimizedAffinity>
-5.94088

> <CNNscore>
0.2709751427

> <CNNaffinity>
5.9182157516

> <CNN_VS>
1.6036893129

> <CNNaffinity_variance>
0.4766400456

$$$$
[H]O[C@]1([H])C([H])([H])C([H])([H])[C@@]([H])(N([H])c2nc(N([H])C([H])([H])C([H])([H])C([H])([H])C([H])([H])[H])nc([H])c2C(=O)N([H])C2([H])C([H])([H])C([H])([H])C([H])([H])C([H])([H])C2([H])[H])C([H])([H])C1([H])[H]


 32 34  0  0  0  0  0  0  0  0999 V2000
    4.5488    2.8820   18.7945 C   0  0  0  0  0  0  0  0  0  0  0  0
    4.6023    2.1486   17.6939 N   0  0  0  0  0  0  0  0  0  0  0  0
    4.1968    2.6099   16.5254 C   0  0  0  0  0  0  0  0  0  0  0  0
    3.6882    3.9206   16.4238 C   0  0  0  0  0  0  0  0  0  0  0  0
    3.6318    4.6781   17.5534 C   0  0  0  0  0  0  0  0  0  0  0  0
    4.0741    4.1161   18.7196 N   0  0  0  0  0  0  0  0  0  0  0  0
    3.2419    4.4230   15.1464 C   0  0  0  0  0  0  0  0  0  0  0  0
    2.0565    4.4234   14.7759 O   0  0  0  0  0  0  0  0  0  0  0  0
    4.1521    4.9768   14.1759 N   0  0  0  0  0  0  0  0  0  0  0  0
    5.1774    5.0527   14.3232 H   0  0  0  0  0  0  0  0  0  0  0  0
    3.6534    5.4711   12.9013 C   0  0  0  0  0  0  0  0  0  0  0  0
    3.8420    6.9407   12.7431 C   0  0  0  0  0  0  0  0  0  0  0  0
    3.5908    7.4467   11.3659 C   0  0  0  0  0  0  0  0  0  0  0  0
    4.2122    6.5803   10.2922 C   0  0  0  0  0  0  0  0  0  0  0  0
    3.7315    5.1662   10.4830 C   0  0  0  0  0  0  0  0  0  0  0  0
    4.3113    4.6741   11.7950 C   0  0  0  0  0  0  0  0  0  0  0  0
    4.9976    2.3657   20.0665 N   0  0  0  0  0  0  0  0  0  0  0  0
    5.8263    1.7403   20.1009 H   0  0  0  0  0  0  0  0  0  0  0  0
    4.2520    2.7589   21.2431 C   0  0  0  0  0  0  0  0  0  0  0  0
    3.7238    1.5459   21.9406 C   0  0  0  0  0  0  0  0  0  0  0  0
    4.5257    2.9680   23.8135 C   0  0  0  0  0  0  0  0  0  0  0  0
    4.1592    1.5533   23.3807 C   0  0  0  0  0  0  0  0  0  0  0  0
    3.1658    6.0038   17.6372 N   0  0  0  0  0  0  0  0  0  0  0  0
    2.1636    6.2476   17.5792 H   0  0  0  0  0  0  0  0  0  0  0  0
    4.0717    7.1360   17.8103 C   0  0  0  0  0  0  0  0  0  0  0  0
    4.2227    7.9773   16.5688 C   0  0  0  0  0  0  0  0  0  0  0  0
    5.5354    8.7590   16.7747 C   0  0  0  0  0  0  0  0  0  0  0  0
    5.3443    9.6187   17.9839 C   0  0  0  0  0  0  0  0  0  0  0  0
    6.2781    9.2743   18.9873 O   0  0  0  0  0  0  0  0  0  0  0  0
    3.9766    9.4679   18.6310 C   0  0  0  0  0  0  0  0  0  0  0  0
    3.7317    8.0047   18.9844 C   0  0  0  0  0  0  0  0  0  0  0  0
    6.6016   10.0547   19.4678 H   0  0  0  0  0  0  0  0  0  0  0  0
 21 22  1  0  0  0
 22 20  1  0  0  0
 20 19  1  0  0  0
 19 17  1  0  0  0
 17  1  1  0  0  0
  1  2  2  0  0  0
  2  3  1  0  0  0
  3  4  2  0  0  0
  4  7  1  0  0  0
  7  8  2  0  0  0
  7  9  1  0  0  0
  9 11  1  0  0  0
 11 12  1  0  0  0
 12 13  1  0  0  0
 13 14  1  0  0  0
 14 15  1  0  0  0
 15 16  1  0  0  0
  4  5  1  0  0  0
  5 23  1  0  0  0
 23 25  1  0  0  0
 25 26  1  0  0  0
 26 27  1  0  0  0
 27 28  1  0  0  0
 28 29  1  0  0  0
 28 30  1  0  0  0
 30 31  1  0  0  0
  5  6  2  0  0  0
  6  1  1  0  0  0
 16 11  1  0  0  0
 31 25  1  0  0  0
 17 18  1  0  0  0
  9 10  1  0  0  0
 23 24  1  0  0  0
 29 32  1  0  0  0
M  END
> <minimizedAffinity>
-6.49574

> <CNNscore>
0.2390956134

> <CNNaffinity>
5.9368448257

> <CNN_VS>
1.4194735289

> <CNNaffinity_variance>
0.5236499906

$$$$
[H]O[C@]1([H])C([H])([H])C([H])([H])[C@@]([H])(N([H])c2nc(N([H])C([H])([H])C([H])([H])C([H])([H])C([H])([H])[H])nc([H])c2C(=O)N([H])C([H])([H])c2c([H])nc(-c3oc([H])c([H])c3[H])c([H])c2[H])C([H])([H])C1([H])[H]


 38 41  0  0  0  0  0  0  0  0999 V2000
    3.0537    0.1878   18.7660 C   0  0  0  0  0  0  0  0  0  0  0  0
    2.2270   -0.2506   17.7922 N   0  0  0  0  0  0  0  0  0  0  0  0
    2.0007    0.3986   16.6580 C   0  0  0  0  0  0  0  0  0  0  0  0
    2.6793    1.6442   16.4576 C   0  0  0  0  0  0  0  0  0  0  0  0
    3.5172    2.1106   17.4127 C   0  0  0  0  0  0  0  0  0  0  0  0
    3.6724    1.3493   18.5510 N   0  0  0  0  0  0  0  0  0  0  0  0
    2.3270    2.3838   15.2667 C   0  0  0  0  0  0  0  0  0  0  0  0
    2.4604    3.6127   15.1690 O   0  0  0  0  0  0  0  0  0  0  0  0
    1.8149    1.7240   14.1049 N   0  0  0  0  0  0  0  0  0  0  0  0
    1.7081    0.6892   14.1195 H   0  0  0  0  0  0  0  0  0  0  0  0
    1.4617    2.4799   12.9318 C   0  0  0  0  0  0  0  0  0  0  0  0
    2.5152    2.5646   11.9264 C   0  0  0  0  0  0  0  0  0  0  0  0
    3.3245    3.6282   11.7246 C   0  0  0  0  0  0  0  0  0  0  0  0
    4.2196    3.6626   10.6362 C   0  0  0  0  0  0  0  0  0  0  0  0
    4.2333    2.5754    9.8005 C   0  0  0  0  0  0  0  0  0  0  0  0
    3.4282    1.5017    9.9983 N   0  0  0  0  0  0  0  0  0  0  0  0
    2.5960    1.5085   11.0351 C   0  0  0  0  0  0  0  0  0  0  0  0
    5.0773    2.5653    8.6154 C   0  0  0  0  0  0  0  0  0  0  0  0
    5.0630    1.5726    7.6421 C   0  0  0  0  0  0  0  0  0  0  0  0
    5.9861    1.9192    6.6971 C   0  0  0  0  0  0  0  0  0  0  0  0
    6.5383    3.1229    7.1300 C   0  0  0  0  0  0  0  0  0  0  0  0
    5.9653    3.4573    8.2665 O   0  0  0  0  0  0  0  0  0  0  0  0
    3.2031   -0.5576   19.9676 N   0  0  0  0  0  0  0  0  0  0  0  0
    3.4559   -1.5535   19.9302 H   0  0  0  0  0  0  0  0  0  0  0  0
    2.9908    0.0992   21.2231 C   0  0  0  0  0  0  0  0  0  0  0  0
    4.2238    0.6781   21.8558 C   0  0  0  0  0  0  0  0  0  0  0  0
    4.1490    3.0540   22.6166 C   0  0  0  0  0  0  0  0  0  0  0  0
    3.8028    1.6444   22.9701 C   0  0  0  0  0  0  0  0  0  0  0  0
    4.2510    3.3101   17.3006 N   0  0  0  0  0  0  0  0  0  0  0  0
    4.8498    3.4701   16.4781 H   0  0  0  0  0  0  0  0  0  0  0  0
    4.2013    4.3698   18.2997 C   0  0  0  0  0  0  0  0  0  0  0  0
    5.2770    4.4148   19.3074 C   0  0  0  0  0  0  0  0  0  0  0  0
    5.6007    5.8366   19.7534 C   0  0  0  0  0  0  0  0  0  0  0  0
    4.2832    6.5811   19.8800 C   0  0  0  0  0  0  0  0  0  0  0  0
    3.3860    5.9165   20.6732 O   0  0  0  0  0  0  0  0  0  0  0  0
    3.7674    6.8394   18.4900 C   0  0  0  0  0  0  0  0  0  0  0  0
    4.0346    5.6926   17.5666 C   0  0  0  0  0  0  0  0  0  0  0  0
    2.4407    6.0311   20.3852 H   0  0  0  0  0  0  0  0  0  0  0  0
 27 28  1  0  0  0
 28 26  1  0  0  0
 26 25  1  0  0  0
 25 23  1  0  0  0
 23  1  1  0  0  0
  1  2  2  0  0  0
  2  3  1  0  0  0
  3  4  2  0  0  0
  4  7  1  0  0  0
  7  8  2  0  0  0
  7  9  1  0  0  0
  9 11  1  0  0  0
 11 12  1  0  0  0
 12 13  2  0  0  0
 13 14  1  0  0  0
 14 15  2  0  0  0
 15 16  1  0  0  0
 16 17  2  0  0  0
 15 18  1  0  0  0
 18 19  2  0  0  0
 19 20  1  0  0  0
 20 21  2  0  0  0
 21 22  1  0  0  0
  4  5  1  0  0  0
  5 29  1  0  0  0
 29 31  1  0  0  0
 31 32  1  0  0  0
 32 33  1  0  0  0
 33 34  1  0  0  0
 34 35  1  0  0  0
 34 36  1  0  0  0
 36 37  1  0  0  0
  5  6  2  0  0  0
  6  1  1  0  0  0
 17 12  1  0  0  0
 22 18  1  0  0  0
 37 31  1  0  0  0
 23 24  1  0  0  0
  9 10  1  0  0  0
 29 30  1  0  0  0
 35 38  1  0  0  0
M  END
> <minimizedAffinity>
-7.05872

> <CNNscore>
0.6789221764

> <CNNaffinity>
7.0783567429

> <CNN_VS>
4.8056535721

> <CNNaffinity_variance>
0.0569784269

$$$$
[H]O[C@]1([H])C([H])([H])C([H])([H])[C@@]([H])(N([H])c2nc(N([H])C([H])([H])C([H])([H])C([H])([H])C([H])([H])[H])nc([H])c2C(=O)N([H])C([H])([H])c2c([H])nc(-c3oc([H])c([H])c3[H])c([H])c2[H])C([H])([H])C1([H])[H]


 38 41  0  0  0  0  0  0  0  0999 V2000
    3.9341    1.3157   21.8244 C   0  0  0  0  0  0  0  0  0  0  0  0
    3.0583    0.3475   21.4786 N   0  0  0  0  0  0  0  0  0  0  0  0
    2.7499    0.0334   20.2274 C   0  0  0  0  0  0  0  0  0  0  0  0
    3.3897    0.7711   19.1792 C   0  0  0  0  0  0  0  0  0  0  0  0
    4.2749    1.7460   19.4917 C   0  0  0  0  0  0  0  0  0  0  0  0
    4.5148    1.9844   20.8276 N   0  0  0  0  0  0  0  0  0  0  0  0
    2.9503    0.4861   17.8320 C   0  0  0  0  0  0  0  0  0  0  0  0
    2.6469   -0.6524   17.4457 O   0  0  0  0  0  0  0  0  0  0  0  0
    2.8180    1.5247   16.8568 N   0  0  0  0  0  0  0  0  0  0  0  0
    3.0320    2.5048   17.1327 H   0  0  0  0  0  0  0  0  0  0  0  0
    2.3871    1.2187   15.5177 C   0  0  0  0  0  0  0  0  0  0  0  0
    2.7694    2.2093   14.5175 C   0  0  0  0  0  0  0  0  0  0  0  0
    2.5946    2.0856   13.1829 C   0  0  0  0  0  0  0  0  0  0  0  0
    3.1237    3.0399   12.2905 C   0  0  0  0  0  0  0  0  0  0  0  0
    3.8154    4.0917   12.8342 C   0  0  0  0  0  0  0  0  0  0  0  0
    3.9913    4.2264   14.1725 N   0  0  0  0  0  0  0  0  0  0  0  0
    3.4788    3.3038   14.9810 C   0  0  0  0  0  0  0  0  0  0  0  0
    4.4524    5.0793   11.9763 C   0  0  0  0  0  0  0  0  0  0  0  0
    4.1783    6.4421   11.9994 C   0  0  0  0  0  0  0  0  0  0  0  0
    4.9735    7.0307   11.0579 C   0  0  0  0  0  0  0  0  0  0  0  0
    5.7129    5.9974   10.4863 C   0  0  0  0  0  0  0  0  0  0  0  0
    5.3649    4.8683   11.0659 O   0  0  0  0  0  0  0  0  0  0  0  0
    4.1717    1.6096   23.1951 N   0  0  0  0  0  0  0  0  0  0  0  0
    4.0321    0.8850   23.9110 H   0  0  0  0  0  0  0  0  0  0  0  0
    4.6013    2.9273   23.5585 C   0  0  0  0  0  0  0  0  0  0  0  0
    3.5350    3.9833   23.5019 C   0  0  0  0  0  0  0  0  0  0  0  0
    5.4475    5.1043   22.3553 C   0  0  0  0  0  0  0  0  0  0  0  0
    3.9615    5.0663   22.5030 C   0  0  0  0  0  0  0  0  0  0  0  0
    4.9762    2.5103   18.5356 N   0  0  0  0  0  0  0  0  0  0  0  0
    5.4695    2.0392   17.7640 H   0  0  0  0  0  0  0  0  0  0  0  0
    5.0352    3.9660   18.5684 C   0  0  0  0  0  0  0  0  0  0  0  0
    5.8343    4.6445   17.5312 C   0  0  0  0  0  0  0  0  0  0  0  0
    5.2631    6.0063   17.1512 C   0  0  0  0  0  0  0  0  0  0  0  0
    4.7895    6.6707   18.4320 C   0  0  0  0  0  0  0  0  0  0  0  0
    5.7656    6.7007   19.3923 O   0  0  0  0  0  0  0  0  0  0  0  0
    3.5392    5.9630   18.8800 C   0  0  0  0  0  0  0  0  0  0  0  0
    3.6077    4.4879   18.6377 C   0  0  0  0  0  0  0  0  0  0  0  0
    5.4137    6.6122   20.3186 H   0  0  0  0  0  0  0  0  0  0  0  0
 27 28  1  0  0  0
 28 26  1  0  0  0
 26 25  1  0  0  0
 25 23  1  0  0  0
 23  1  1  0  0  0
  1  2  2  0  0  0
  2  3  1  0  0  0
  3  4  2  0  0  0
  4  7  1  0  0  0
  7  8  2  0  0  0
  7  9  1  0  0  0
  9 11  1  0  0  0
 11 12  1  0  0  0
 12 13  2  0  0  0
 13 14  1  0  0  0
 14 15  2  0  0  0
 15 16  1  0  0  0
 16 17  2  0  0  0
 15 18  1  0  0  0
 18 19  2  0  0  0
 19 20  1  0  0  0
 20 21  2  0  0  0
 21 22  1  0  0  0
  4  5  1  0  0  0
  5 29  1  0  0  0
 29 31  1  0  0  0
 31 32  1  0  0  0
 32 33  1  0  0  0
 33 34  1  0  0  0
 34 35  1  0  0  0
 34 36  1  0  0  0
 36 37  1  0  0  0
  5  6  2  0  0  0
  6  1  1  0  0  0
 17 12  1  0  0  0
 22 18  1  0  0  0
 37 31  1  0  0  0
 23 24  1  0  0  0
  9 10  1  0  0  0
 29 30  1  0  0  0
 35 38  1  0  0  0
M  END
> <minimizedAffinity>
-8.24324

> <CNNscore>
0.5858160257

> <CNNaffinity>
7.1055274010

> <CNN_VS>
4.1625318527

> <CNNaffinity_variance>
0.2153718174

$$$$
[H]O[C@]1([H])C([H])([H])C([H])([H])[C@@]([H])(N([H])c2nc(N([H])C([H])([H])C([H])([H])C([H])([H])C([H])([H])[H])nc([H])c2C(=O)N([H])C([H])([H])c2c([H])nc(-c3oc([H])c([H])c3[H])c([H])c2[H])C([H])([H])C1([H])[H]


 38 41  0  0  0  0  0  0  0  0999 V2000
    0.4360    5.4811   13.3547 C   0  0  0  0  0  0  0  0  0  0  0  0
    1.2276    5.5087   14.4485 N   0  0  0  0  0  0  0  0  0  0  0  0
    1.8981    4.4616   14.9102 C   0  0  0  0  0  0  0  0  0  0  0  0
    1.7716    3.2243   14.1993 C   0  0  0  0  0  0  0  0  0  0  0  0
    0.9884    3.1634   13.0972 C   0  0  0  0  0  0  0  0  0  0  0  0
    0.3386    4.3163   12.7129 N   0  0  0  0  0  0  0  0  0  0  0  0
    2.4204    2.0751   14.7887 C   0  0  0  0  0  0  0  0  0  0  0  0
    3.4378    1.5525   14.3097 O   0  0  0  0  0  0  0  0  0  0  0  0
    1.9280    1.4781   15.9923 N   0  0  0  0  0  0  0  0  0  0  0  0
    1.0930    1.8921   16.4547 H   0  0  0  0  0  0  0  0  0  0  0  0
    2.5836    0.3284   16.5586 C   0  0  0  0  0  0  0  0  0  0  0  0
    3.0952    0.5278   17.9101 C   0  0  0  0  0  0  0  0  0  0  0  0
    2.6606   -0.1146   19.0170 C   0  0  0  0  0  0  0  0  0  0  0  0
    3.1257    0.2497   20.2969 C   0  0  0  0  0  0  0  0  0  0  0  0
    4.0335    1.2751   20.3662 C   0  0  0  0  0  0  0  0  0  0  0  0
    4.4788    1.9220   19.2601 N   0  0  0  0  0  0  0  0  0  0  0  0
    4.0144    1.5502   18.0711 C   0  0  0  0  0  0  0  0  0  0  0  0
    4.5066    1.7570   21.6549 C   0  0  0  0  0  0  0  0  0  0  0  0
    3.6832    2.1675   22.6972 C   0  0  0  0  0  0  0  0  0  0  0  0
    4.4944    2.5427   23.7299 C   0  0  0  0  0  0  0  0  0  0  0  0
    5.7980    2.3471   23.2785 C   0  0  0  0  0  0  0  0  0  0  0  0
    5.7458    1.8826   22.0484 O   0  0  0  0  0  0  0  0  0  0  0  0
   -0.2771    6.6453   12.9576 N   0  0  0  0  0  0  0  0  0  0  0  0
    0.2285    7.4592   12.5846 H   0  0  0  0  0  0  0  0  0  0  0  0
   -1.7035    6.6652   13.0909 C   0  0  0  0  0  0  0  0  0  0  0  0
   -2.4534    5.9159   12.0271 C   0  0  0  0  0  0  0  0  0  0  0  0
   -4.7519    5.9412   11.0550 C   0  0  0  0  0  0  0  0  0  0  0  0
   -3.9564    6.0133   12.3173 C   0  0  0  0  0  0  0  0  0  0  0  0
    0.8185    2.0026   12.3138 N   0  0  0  0  0  0  0  0  0  0  0  0
    0.2540    1.2196   12.6728 H   0  0  0  0  0  0  0  0  0  0  0  0
    1.3989    1.8464   10.9863 C   0  0  0  0  0  0  0  0  0  0  0  0
    2.8060    1.4141   10.8984 C   0  0  0  0  0  0  0  0  0  0  0  0
    3.0812    0.5685    9.6597 C   0  0  0  0  0  0  0  0  0  0  0  0
    2.3068    1.1873    8.5093 C   0  0  0  0  0  0  0  0  0  0  0  0
    2.5694    2.5239    8.3668 O   0  0  0  0  0  0  0  0  0  0  0  0
    0.8476    0.8901    8.7269 C   0  0  0  0  0  0  0  0  0  0  0  0
    0.4662    0.9620   10.1721 C   0  0  0  0  0  0  0  0  0  0  0  0
    1.7864    3.0508    8.0523 H   0  0  0  0  0  0  0  0  0  0  0  0
 27 28  1  0  0  0
 28 26  1  0  0  0
 26 25  1  0  0  0
 25 23  1  0  0  0
 23  1  1  0  0  0
  1  2  2  0  0  0
  2  3  1  0  0  0
  3  4  2  0  0  0
  4  7  1  0  0  0
  7  8  2  0  0  0
  7  9  1  0  0  0
  9 11  1  0  0  0
 11 12  1  0  0  0
 12 13  2  0  0  0
 13 14  1  0  0  0
 14 15  2  0  0  0
 15 16  1  0  0  0
 16 17  2  0  0  0
 15 18  1  0  0  0
 18 19  2  0  0  0
 19 20  1  0  0  0
 20 21  2  0  0  0
 21 22  1  0  0  0
  4  5  1  0  0  0
  5 29  1  0  0  0
 29 31  1  0  0  0
 31 32  1  0  0  0
 32 33  1  0  0  0
 33 34  1  0  0  0
 34 35  1  0  0  0
 34 36  1  0  0  0
 36 37  1  0  0  0
  5  6  2  0  0  0
  6  1  1  0  0  0
 17 12  1  0  0  0
 22 18  1  0  0  0
 37 31  1  0  0  0
 23 24  1  0  0  0
  9 10  1  0  0  0
 29 30  1  0  0  0
 35 38  1  0  0  0
M  END
> <minimizedAffinity>
-7.47624

> <CNNscore>
0.3998632133

> <CNNaffinity>
6.4244856834

> <CNN_VS>
2.5689156055

> <CNNaffinity_variance>
0.2017388344

$$$$
[H]O[C@]1([H])C([H])([H])C([H])([H])[C@@]([H])(N([H])c2nc(N([H])C([H])([H])C([H])([H])C([H])([H])C([H])([H])[H])nc([H])c2C(=O)N([H])C([H])([H])c2c([H])nc(-c3oc([H])c([H])c3[H])c([H])c2[H])C([H])([H])C1([H])[H]


 38 41  0  0  0  0  0  0  0  0999 V2000
    3.9434    1.5150   17.9928 C   0  0  0  0  0  0  0  0  0  0  0  0
    3.1690    1.0623   16.9833 N   0  0  0  0  0  0  0  0  0  0  0  0
    3.0310    1.6769   15.8161 C   0  0  0  0  0  0  0  0  0  0  0  0
    3.7520    2.8988   15.6183 C   0  0  0  0  0  0  0  0  0  0  0  0
    4.5394    3.3786   16.6089 C   0  0  0  0  0  0  0  0  0  0  0  0
    4.6034    2.6539   17.7794 N   0  0  0  0  0  0  0  0  0  0  0  0
    3.4942    3.6046   14.3835 C   0  0  0  0  0  0  0  0  0  0  0  0
    3.8246    4.7851   14.1970 O   0  0  0  0  0  0  0  0  0  0  0  0
    2.8503    2.9618   13.2791 N   0  0  0  0  0  0  0  0  0  0  0  0
    2.5758    1.9622   13.3685 H   0  0  0  0  0  0  0  0  0  0  0  0
    2.5947    3.6850   12.0609 C   0  0  0  0  0  0  0  0  0  0  0  0
    1.1812    3.8599   11.7459 C   0  0  0  0  0  0  0  0  0  0  0  0
    0.6078    3.6151   10.5467 C   0  0  0  0  0  0  0  0  0  0  0  0
   -0.7409    3.9473   10.3061 C   0  0  0  0  0  0  0  0  0  0  0  0
   -1.4389    4.5226   11.3368 C   0  0  0  0  0  0  0  0  0  0  0  0
   -0.8728    4.7672   12.5450 N   0  0  0  0  0  0  0  0  0  0  0  0
    0.4026    4.4414   12.7316 C   0  0  0  0  0  0  0  0  0  0  0  0
   -2.8135    4.9591   11.1450 C   0  0  0  0  0  0  0  0  0  0  0  0
   -3.4903    5.8350   11.9862 C   0  0  0  0  0  0  0  0  0  0  0  0
   -4.7455    5.9995   11.4737 C   0  0  0  0  0  0  0  0  0  0  0  0
   -4.7930    5.2105   10.3263 C   0  0  0  0  0  0  0  0  0  0  0  0
   -3.6263    4.6193   10.1807 O   0  0  0  0  0  0  0  0  0  0  0  0
    3.9980    0.8085   19.2255 N   0  0  0  0  0  0  0  0  0  0  0  0
    3.8223   -0.2042   19.2492 H   0  0  0  0  0  0  0  0  0  0  0  0
    4.2949    1.5303   20.4271 C   0  0  0  0  0  0  0  0  0  0  0  0
    5.6631    1.2852   20.9958 C   0  0  0  0  0  0  0  0  0  0  0  0
    5.6017    3.7700   21.2231 C   0  0  0  0  0  0  0  0  0  0  0  0
    6.0717    2.4956   21.8449 C   0  0  0  0  0  0  0  0  0  0  0  0
    5.3088    4.5563   16.5043 N   0  0  0  0  0  0  0  0  0  0  0  0
    6.1347    4.5766   15.8893 H   0  0  0  0  0  0  0  0  0  0  0  0
    4.9890    5.7825   17.2239 C   0  0  0  0  0  0  0  0  0  0  0  0
    3.6290    5.9192   17.7775 C   0  0  0  0  0  0  0  0  0  0  0  0
    3.6016    6.7354   19.0652 C   0  0  0  0  0  0  0  0  0  0  0  0
    4.5691    7.8923   18.8871 C   0  0  0  0  0  0  0  0  0  0  0  0
    4.3196    8.6059   17.7449 O   0  0  0  0  0  0  0  0  0  0  0  0
    5.9657    7.3348   18.9443 C   0  0  0  0  0  0  0  0  0  0  0  0
    6.0692    6.0015   18.2727 C   0  0  0  0  0  0  0  0  0  0  0  0
    5.1405    8.9726   17.3191 H   0  0  0  0  0  0  0  0  0  0  0  0
 27 28  1  0  0  0
 28 26  1  0  0  0
 26 25  1  0  0  0
 25 23  1  0  0  0
 23  1  1  0  0  0
  1  2  2  0  0  0
  2  3  1  0  0  0
  3  4  2  0  0  0
  4  7  1  0  0  0
  7  8  2  0  0  0
  7  9  1  0  0  0
  9 11  1  0  0  0
 11 12  1  0  0  0
 12 13  2  0  0  0
 13 14  1  0  0  0
 14 15  2  0  0  0
 15 16  1  0  0  0
 16 17  2  0  0  0
 15 18  1  0  0  0
 18 19  2  0  0  0
 19 20  1  0  0  0
 20 21  2  0  0  0
 21 22  1  0  0  0
  4  5  1  0  0  0
  5 29  1  0  0  0
 29 31  1  0  0  0
 31 32  1  0  0  0
 32 33  1  0  0  0
 33 34  1  0  0  0
 34 35  1  0  0  0
 34 36  1  0  0  0
 36 37  1  0  0  0
  5  6  2  0  0  0
  6  1  1  0  0  0
 17 12  1  0  0  0
 22 18  1  0  0  0
 37 31  1  0  0  0
 23 24  1  0  0  0
  9 10  1  0  0  0
 29 30  1  0  0  0
 35 38  1  0  0  0
M  END
> <minimizedAffinity>
-7.33683

> <CNNscore>
0.3097412884

> <CNNaffinity>
6.5172324181

> <CNN_VS>
2.0186560154

> <CNNaffinity_variance>
0.6787109971

$$$$
[H]O[C@]1([H])C([H])([H])C([H])([H])[C@@]([H])(N([H])c2nc(N([H])C([H])([H])C([H])([H])C([H])([H])C([H])([H])[H])nc([H])c2C(=O)N([H])C([H])([H])c2c([H])nc(-c3oc([H])c([H])c3[H])c([H])c2[H])C([H])([H])C1([H])[H]


 38 41  0  0  0  0  0  0  0  0999 V2000
    2.6072    3.5170   16.4115 C   0  0  0  0  0  0  0  0  0  0  0  0
    3.1802    3.6485   17.6273 N   0  0  0  0  0  0  0  0  0  0  0  0
    3.5804    4.8035   18.1420 C   0  0  0  0  0  0  0  0  0  0  0  0
    3.3900    5.9846   17.3540 C   0  0  0  0  0  0  0  0  0  0  0  0
    2.8159    5.8880   16.1322 C   0  0  0  0  0  0  0  0  0  0  0  0
    2.4417    4.6336   15.7015 N   0  0  0  0  0  0  0  0  0  0  0  0
    3.9378    7.2101   17.8899 C   0  0  0  0  0  0  0  0  0  0  0  0
    4.8209    7.8646   17.3160 O   0  0  0  0  0  0  0  0  0  0  0  0
    3.4679    7.7579   19.1255 N   0  0  0  0  0  0  0  0  0  0  0  0
    2.7074    7.2660   19.6375 H   0  0  0  0  0  0  0  0  0  0  0  0
    4.0330    8.9751   19.6465 C   0  0  0  0  0  0  0  0  0  0  0  0
    4.9480    8.7867   20.7668 C   0  0  0  0  0  0  0  0  0  0  0  0
    5.5732    9.7747   21.4449 C   0  0  0  0  0  0  0  0  0  0  0  0
    6.5448    9.4811   22.4230 C   0  0  0  0  0  0  0  0  0  0  0  0
    6.8221    8.1583   22.6548 C   0  0  0  0  0  0  0  0  0  0  0  0
    6.1960    7.1601   21.9825 N   0  0  0  0  0  0  0  0  0  0  0  0
    5.2871    7.4783   21.0659 C   0  0  0  0  0  0  0  0  0  0  0  0
    7.8626    7.7757   23.5970 C   0  0  0  0  0  0  0  0  0  0  0  0
    8.8252    6.8009   23.3601 C   0  0  0  0  0  0  0  0  0  0  0  0
    9.6167    6.7354   24.4712 C   0  0  0  0  0  0  0  0  0  0  0  0
    9.1053    7.6812   25.3573 C   0  0  0  0  0  0  0  0  0  0  0  0
    8.0713    8.2649   24.7899 O   0  0  0  0  0  0  0  0  0  0  0  0
    2.2467    2.2304   15.9253 N   0  0  0  0  0  0  0  0  0  0  0  0
    2.2084    1.4275   16.5664 H   0  0  0  0  0  0  0  0  0  0  0  0
    1.9451    2.0734   14.5334 C   0  0  0  0  0  0  0  0  0  0  0  0
    3.1348    2.0967   13.6172 C   0  0  0  0  0  0  0  0  0  0  0  0
    1.2465    1.8977   11.9973 C   0  0  0  0  0  0  0  0  0  0  0  0
    2.6534    2.3633   12.1854 C   0  0  0  0  0  0  0  0  0  0  0  0
    2.5609    6.9916   15.2913 N   0  0  0  0  0  0  0  0  0  0  0  0
    2.2922    7.8974   15.7011 H   0  0  0  0  0  0  0  0  0  0  0  0
    2.6703    6.9280   13.8395 C   0  0  0  0  0  0  0  0  0  0  0  0
    1.5567    7.4747   13.0422 C   0  0  0  0  0  0  0  0  0  0  0  0
    2.0231    8.0689   11.7176 C   0  0  0  0  0  0  0  0  0  0  0  0
    3.0965    7.1490   11.1631 C   0  0  0  0  0  0  0  0  0  0  0  0
    2.6796    5.8460   11.0973 O   0  0  0  0  0  0  0  0  0  0  0  0
    4.3346    7.3335   11.9986 C   0  0  0  0  0  0  0  0  0  0  0  0
    4.0143    7.5240   13.4479 C   0  0  0  0  0  0  0  0  0  0  0  0
    3.4070    5.1879   11.2631 H   0  0  0  0  0  0  0  0  0  0  0  0
 27 28  1  0  0  0
 28 26  1  0  0  0
 26 25  1  0  0  0
 25 23  1  0  0  0
 23  1  1  0  0  0
  1  2  2  0  0  0
  2  3  1  0  0  0
  3  4  2  0  0  0
  4  7  1  0  0  0
  7  8  2  0  0  0
  7  9  1  0  0  0
  9 11  1  0  0  0
 11 12  1  0  0  0
 12 13  2  0  0  0
 13 14  1  0  0  0
 14 15  2  0  0  0
 15 16  1  0  0  0
 16 17  2  0  0  0
 15 18  1  0  0  0
 18 19  2  0  0  0
 19 20  1  0  0  0
 20 21  2  0  0  0
 21 22  1  0  0  0
  4  5  1  0  0  0
  5 29  1  0  0  0
 29 31  1  0  0  0
 31 32  1  0  0  0
 32 33  1  0  0  0
 33 34  1  0  0  0
 34 35  1  0  0  0
 34 36  1  0  0  0
 36 37  1  0  0  0
  5  6  2  0  0  0
  6  1  1  0  0  0
 17 12  1  0  0  0
 22 18  1  0  0  0
 37 31  1  0  0  0
 23 24  1  0  0  0
  9 10  1  0  0  0
 29 30  1  0  0  0
 35 38  1  0  0  0
M  END
> <minimizedAffinity>
-7.18646

> <CNNscore>
0.1741949320

> <CNNaffinity>
5.8454041481

> <CNN_VS>
1.0182397366

> <CNNaffinity_variance>
0.3310885131

$$$$
[H]O[C@]1([H])C([H])([H])C([H])([H])[C@@]([H])(N([H])c2nc(N([H])C([H])([H])C([H])([H])C([H])([H])C([H])([H])[H])nc([H])c2C(=O)N([H])C([H])([H])c2c([H])nc(-c3oc([H])c([H])c3[H])c([H])c2[H])C([H])([H])C1([H])[H]


 38 41  0  0  0  0  0  0  0  0999 V2000
    4.2172    2.7591   18.7983 C   0  0  0  0  0  0  0  0  0  0  0  0
    4.4487    2.7713   17.4679 N   0  0  0  0  0  0  0  0  0  0  0  0
    4.4065    3.8616   16.7137 C   0  0  0  0  0  0  0  0  0  0  0  0
    4.0953    5.1035   17.3564 C   0  0  0  0  0  0  0  0  0  0  0  0
    3.8608    5.1265   18.6891 C   0  0  0  0  0  0  0  0  0  0  0  0
    3.9312    3.9299   19.3691 N   0  0  0  0  0  0  0  0  0  0  0  0
    3.9439    6.2533   16.4938 C   0  0  0  0  0  0  0  0  0  0  0  0
    4.6958    7.2382   16.5406 O   0  0  0  0  0  0  0  0  0  0  0  0
    2.9116    6.3112   15.5046 N   0  0  0  0  0  0  0  0  0  0  0  0
    2.2678    5.5005   15.4006 H   0  0  0  0  0  0  0  0  0  0  0  0
    2.7724    7.4694   14.6611 C   0  0  0  0  0  0  0  0  0  0  0  0
    2.1109    7.2139   13.3863 C   0  0  0  0  0  0  0  0  0  0  0  0
    2.4696    7.7432   12.1955 C   0  0  0  0  0  0  0  0  0  0  0  0
    1.6808    7.5415   11.0448 C   0  0  0  0  0  0  0  0  0  0  0  0
    0.5443    6.7876   11.1874 C   0  0  0  0  0  0  0  0  0  0  0  0
    0.1793    6.2484   12.3775 N   0  0  0  0  0  0  0  0  0  0  0  0
    0.9489    6.4636   13.4401 C   0  0  0  0  0  0  0  0  0  0  0  0
   -0.3593    6.5935   10.0637 C   0  0  0  0  0  0  0  0  0  0  0  0
   -1.4360    5.7140   10.0566 C   0  0  0  0  0  0  0  0  0  0  0  0
   -2.0371    5.8201    8.8349 C   0  0  0  0  0  0  0  0  0  0  0  0
   -1.2996    6.7695    8.1306 C   0  0  0  0  0  0  0  0  0  0  0  0
   -0.3219    7.1922    8.9034 O   0  0  0  0  0  0  0  0  0  0  0  0
    4.2447    1.5335   19.5185 N   0  0  0  0  0  0  0  0  0  0  0  0
    4.1463    0.6391   19.0210 H   0  0  0  0  0  0  0  0  0  0  0  0
    4.4059    1.5678   20.9418 C   0  0  0  0  0  0  0  0  0  0  0  0
    5.7807    1.2198   21.4359 C   0  0  0  0  0  0  0  0  0  0  0  0
    6.4781    3.4797   22.2333 C   0  0  0  0  0  0  0  0  0  0  0  0
    6.1070    2.0948   22.6528 C   0  0  0  0  0  0  0  0  0  0  0  0
    3.5726    6.2987   19.4190 N   0  0  0  0  0  0  0  0  0  0  0  0
    2.5936    6.5707   19.5869 H   0  0  0  0  0  0  0  0  0  0  0  0
    4.6049    7.1640   19.9751 C   0  0  0  0  0  0  0  0  0  0  0  0
    4.4040    8.6218   19.8796 C   0  0  0  0  0  0  0  0  0  0  0  0
    5.0148    9.3741   21.0569 C   0  0  0  0  0  0  0  0  0  0  0  0
    6.3472    8.7166   21.3707 C   0  0  0  0  0  0  0  0  0  0  0  0
    7.1512    8.6208   20.2661 O   0  0  0  0  0  0  0  0  0  0  0  0
    6.0615    7.3858   22.0128 C   0  0  0  0  0  0  0  0  0  0  0  0
    4.8776    6.7060   21.4001 C   0  0  0  0  0  0  0  0  0  0  0  0
    7.7219    7.8060   20.2601 H   0  0  0  0  0  0  0  0  0  0  0  0
 27 28  1  0  0  0
 28 26  1  0  0  0
 26 25  1  0  0  0
 25 23  1  0  0  0
 23  1  1  0  0  0
  1  2  2  0  0  0
  2  3  1  0  0  0
  3  4  2  0  0  0
  4  7  1  0  0  0
  7  8  2  0  0  0
  7  9  1  0  0  0
  9 11  1  0  0  0
 11 12  1  0  0  0
 12 13  2  0  0  0
 13 14  1  0  0  0
 14 15  2  0  0  0
 15 16  1  0  0  0
 16 17  2  0  0  0
 15 18  1  0  0  0
 18 19  2  0  0  0
 19 20  1  0  0  0
 20 21  2  0  0  0
 21 22  1  0  0  0
  4  5  1  0  0  0
  5 29  1  0  0  0
 29 31  1  0  0  0
 31 32  1  0  0  0
 32 33  1  0  0  0
 33 34  1  0  0  0
 34 35  1  0  0  0
 34 36  1  0  0  0
 36 37  1  0  0  0
  5  6  2  0  0  0
  6  1  1  0  0  0
 17 12  1  0  0  0
 22 18  1  0  0  0
 37 31  1  0  0  0
 23 24  1  0  0  0
  9 10  1  0  0  0
 29 30  1  0  0  0
 35 38  1  0  0  0
M  END
> <minimizedAffinity>
-7.34104

> <CNNscore>
0.1568063945

> <CNNaffinity>
5.9823365211

> <CNN_VS>
0.9380686283

> <CNNaffinity_variance>
0.3135104179

$$$$
[H]O[C@]1([H])C([H])([H])C([H])([H])[C@@]([H])(N([H])c2nc(N([H])C([H])([H])C([H])([H])C([H])([H])C([H])([H])[H])nc([H])c2C(=O)N([H])C([H])([H])c2c([H])nc(-c3oc([H])c([H])c3[H])c([H])c2[H])C([H])([H])C1([H])[H]


 38 41  0  0  0  0  0  0  0  0999 V2000
    3.0674    1.4255   17.6527 C   0  0  0  0  0  0  0  0  0  0  0  0
    2.3683    1.9112   16.6043 N   0  0  0  0  0  0  0  0  0  0  0  0
    2.5606    3.1104   16.0712 C   0  0  0  0  0  0  0  0  0  0  0  0
    3.5765    3.9396   16.6479 C   0  0  0  0  0  0  0  0  0  0  0  0
    4.2974    3.4817   17.6977 C   0  0  0  0  0  0  0  0  0  0  0  0
    4.0070    2.2192   18.1677 N   0  0  0  0  0  0  0  0  0  0  0  0
    3.6861    5.2814   16.1218 C   0  0  0  0  0  0  0  0  0  0  0  0
    3.6094    6.2951   16.8318 O   0  0  0  0  0  0  0  0  0  0  0  0
    3.9149    5.5187   14.7294 N   0  0  0  0  0  0  0  0  0  0  0  0
    4.0160    4.7045   14.0897 H   0  0  0  0  0  0  0  0  0  0  0  0
    4.0123    6.8632   14.2240 C   0  0  0  0  0  0  0  0  0  0  0  0
    3.3453    7.0788   12.9447 C   0  0  0  0  0  0  0  0  0  0  0  0
    2.0371    6.8512   12.6930 C   0  0  0  0  0  0  0  0  0  0  0  0
    1.5200    6.9607   11.3862 C   0  0  0  0  0  0  0  0  0  0  0  0
    2.3973    7.3085   10.3913 C   0  0  0  0  0  0  0  0  0  0  0  0
    3.7108    7.5436   10.6357 N   0  0  0  0  0  0  0  0  0  0  0  0
    4.1603    7.4277   11.8816 C   0  0  0  0  0  0  0  0  0  0  0  0
    1.9561    7.3723    9.0063 C   0  0  0  0  0  0  0  0  0  0  0  0
    2.2025    6.3924    8.0513 C   0  0  0  0  0  0  0  0  0  0  0  0
    1.6303    6.8119    6.8844 C   0  0  0  0  0  0  0  0  0  0  0  0
    1.0489    8.0457    7.1691 C   0  0  0  0  0  0  0  0  0  0  0  0
    1.2720    8.3272    8.4352 O   0  0  0  0  0  0  0  0  0  0  0  0
    2.7629    0.1418   18.1831 N   0  0  0  0  0  0  0  0  0  0  0  0
    2.1274   -0.4889   17.6778 H   0  0  0  0  0  0  0  0  0  0  0  0
    3.3501   -0.2517   19.4294 C   0  0  0  0  0  0  0  0  0  0  0  0
    2.5926    0.1757   20.6538 C   0  0  0  0  0  0  0  0  0  0  0  0
    4.9925    0.5747   21.2113 C   0  0  0  0  0  0  0  0  0  0  0  0
    3.5832    0.7473   21.6759 C   0  0  0  0  0  0  0  0  0  0  0  0
    5.3349    4.2082   18.3187 N   0  0  0  0  0  0  0  0  0  0  0  0
    6.2609    4.2640   17.8715 H   0  0  0  0  0  0  0  0  0  0  0  0
    5.1665    4.9139   19.5826 C   0  0  0  0  0  0  0  0  0  0  0  0
    5.4272    4.1663   20.8267 C   0  0  0  0  0  0  0  0  0  0  0  0
    5.9796    5.0537   21.9368 C   0  0  0  0  0  0  0  0  0  0  0  0
    5.2284    6.3722   21.8768 C   0  0  0  0  0  0  0  0  0  0  0  0
    3.8702    6.1968   21.8988 O   0  0  0  0  0  0  0  0  0  0  0  0
    5.7098    7.1190   20.6621 C   0  0  0  0  0  0  0  0  0  0  0  0
    5.9634    6.2075   19.5028 C   0  0  0  0  0  0  0  0  0  0  0  0
    3.3743    6.8714   21.3616 H   0  0  0  0  0  0  0  0  0  0  0  0
 27 28  1  0  0  0
 28 26  1  0  0  0
 26 25  1  0  0  0
 25 23  1  0  0  0
 23  1  1  0  0  0
  1  2  2  0  0  0
  2  3  1  0  0  0
  3  4  2  0  0  0
  4  7  1  0  0  0
  7  8  2  0  0  0
  7  9  1  0  0  0
  9 11  1  0  0  0
 11 12  1  0  0  0
 12 13  2  0  0  0
 13 14  1  0  0  0
 14 15  2  0  0  0
 15 16  1  0  0  0
 16 17  2  0  0  0
 15 18  1  0  0  0
 18 19  2  0  0  0
 19 20  1  0  0  0
 20 21  2  0  0  0
 21 22  1  0  0  0
  4  5  1  0  0  0
  5 29  1  0  0  0
 29 31  1  0  0  0
 31 32  1  0  0  0
 32 33  1  0  0  0
 33 34  1  0  0  0
 34 35  1  0  0  0
 34 36  1  0  0  0
 36 37  1  0  0  0
  5  6  2  0  0  0
  6  1  1  0  0  0
 17 12  1  0  0  0
 22 18  1  0  0  0
 37 31  1  0  0  0
 23 24  1  0  0  0
  9 10  1  0  0  0
 29 30  1  0  0  0
 35 38  1  0  0  0
M  END
> <minimizedAffinity>
-6.80567

> <CNNscore>
0.1557647437

> <CNNaffinity>
6.3164968491

> <CNN_VS>
0.9838874936

> <CNNaffinity_variance>
0.3623391092

$$$$
[H]O[C@]1([H])C([H])([H])C([H])([H])[C@@]([H])(N([H])c2nc(N([H])C([H])([H])C([H])([H])C([H])([H])C([H])([H])[H])nc([H])c2C(=O)N([H])C([H])([H])c2c([H])nc(-c3oc([H])c([H])c3[H])c([H])c2[H])C([H])([H])C1([H])[H]


 38 41  0  0  0  0  0  0  0  0999 V2000
    4.5259    2.3922   19.3761 C   0  0  0  0  0  0  0  0  0  0  0  0
    4.5524    1.9864   18.0883 N   0  0  0  0  0  0  0  0  0  0  0  0
    4.1547    2.7294   17.0641 C   0  0  0  0  0  0  0  0  0  0  0  0
    3.6669    4.0463   17.3473 C   0  0  0  0  0  0  0  0  0  0  0  0
    3.6299    4.4849   18.6271 C   0  0  0  0  0  0  0  0  0  0  0  0
    4.0681    3.6228   19.6089 N   0  0  0  0  0  0  0  0  0  0  0  0
    3.1348    4.7892   16.2274 C   0  0  0  0  0  0  0  0  0  0  0  0
    1.9573    5.1736   16.1684 O   0  0  0  0  0  0  0  0  0  0  0  0
    3.9579    5.1476   15.1132 N   0  0  0  0  0  0  0  0  0  0  0  0
    4.9621    4.8758   15.1209 H   0  0  0  0  0  0  0  0  0  0  0  0
    3.4063    5.8802   14.0035 C   0  0  0  0  0  0  0  0  0  0  0  0
    4.0478    5.6107   12.7214 C   0  0  0  0  0  0  0  0  0  0  0  0
    4.2606    4.3855   12.1919 C   0  0  0  0  0  0  0  0  0  0  0  0
    5.0126    4.2265   11.0103 C   0  0  0  0  0  0  0  0  0  0  0  0
    5.5115    5.3625   10.4263 C   0  0  0  0  0  0  0  0  0  0  0  0
    5.2986    6.5965   10.9480 N   0  0  0  0  0  0  0  0  0  0  0  0
    4.5861    6.7044   12.0653 C   0  0  0  0  0  0  0  0  0  0  0  0
    6.3568    5.2759    9.2453 C   0  0  0  0  0  0  0  0  0  0  0  0
    6.0544    4.5352    8.1082 C   0  0  0  0  0  0  0  0  0  0  0  0
    7.0831    4.7089    7.2268 C   0  0  0  0  0  0  0  0  0  0  0  0
    7.9875    5.5575    7.8619 C   0  0  0  0  0  0  0  0  0  0  0  0
    7.5084    5.8604    9.0496 O   0  0  0  0  0  0  0  0  0  0  0  0
    4.9353    1.5099   20.4132 N   0  0  0  0  0  0  0  0  0  0  0  0
    5.6430    0.7874   20.2280 H   0  0  0  0  0  0  0  0  0  0  0  0
    4.3433    1.6418   21.7113 C   0  0  0  0  0  0  0  0  0  0  0  0
    5.1424    2.4447   22.6973 C   0  0  0  0  0  0  0  0  0  0  0  0
    4.3367    4.7907   22.9744 C   0  0  0  0  0  0  0  0  0  0  0  0
    4.1958    3.3836   23.4559 C   0  0  0  0  0  0  0  0  0  0  0  0
    3.1929    5.7710   19.0075 N   0  0  0  0  0  0  0  0  0  0  0  0
    2.2334    6.0730   18.7863 H   0  0  0  0  0  0  0  0  0  0  0  0
    4.0362    6.7182   19.7253 C   0  0  0  0  0  0  0  0  0  0  0  0
    5.4746    6.4117   19.8342 C   0  0  0  0  0  0  0  0  0  0  0  0
    6.3393    7.6673   19.8586 C   0  0  0  0  0  0  0  0  0  0  0  0
    5.6200    8.6945   20.7152 C   0  0  0  0  0  0  0  0  0  0  0  0
    5.2851    8.1991   21.9475 O   0  0  0  0  0  0  0  0  0  0  0  0
    4.4337    9.1924   19.9344 C   0  0  0  0  0  0  0  0  0  0  0  0
    3.7779    8.1017   19.1472 C   0  0  0  0  0  0  0  0  0  0  0  0
    4.4308    8.5643   22.3031 H   0  0  0  0  0  0  0  0  0  0  0  0
 27 28  1  0  0  0
 28 26  1  0  0  0
 26 25  1  0  0  0
 25 23  1  0  0  0
 23  1  1  0  0  0
  1  2  2  0  0  0
  2  3  1  0  0  0
  3  4  2  0  0  0
  4  7  1  0  0  0
  7  8  2  0  0  0
  7  9  1  0  0  0
  9 11  1  0  0  0
 11 12  1  0  0  0
 12 13  2  0  0  0
 13 14  1  0  0  0
 14 15  2  0  0  0
 15 16  1  0  0  0
 16 17  2  0  0  0
 15 18  1  0  0  0
 18 19  2  0  0  0
 19 20  1  0  0  0
 20 21  2  0  0  0
 21 22  1  0  0  0
  4  5  1  0  0  0
  5 29  1  0  0  0
 29 31  1  0  0  0
 31 32  1  0  0  0
 32 33  1  0  0  0
 33 34  1  0  0  0
 34 35  1  0  0  0
 34 36  1  0  0  0
 36 37  1  0  0  0
  5  6  2  0  0  0
  6  1  1  0  0  0
 17 12  1  0  0  0
 22 18  1  0  0  0
 37 31  1  0  0  0
 23 24  1  0  0  0
  9 10  1  0  0  0
 29 30  1  0  0  0
 35 38  1  0  0  0
M  END
> <minimizedAffinity>
-7.25510

> <CNNscore>
0.1554805785

> <CNNaffinity>
6.3473548889

> <CNN_VS>
0.9868904352

> <CNNaffinity_variance>
0.4959576130

$$$$
[H]O[C@]1([H])C([H])([H])C([H])([H])[C@@]([H])(N([H])c2nc(N([H])C([H])([H])C([H])([H])C([H])([H])C([H])([H])[H])nc([H])c2C(=O)N([H])C([H])([H])c2c([H])nc(-c3oc([H])c([H])c3[H])c([H])c2[H])C([H])([H])C1([H])[H]


 38 41  0  0  0  0  0  0  0  0999 V2000
    4.2527    2.5066   18.8744 C   0  0  0  0  0  0  0  0  0  0  0  0
    4.6172    2.2207   17.6059 N   0  0  0  0  0  0  0  0  0  0  0  0
    4.4997    3.0634   16.5884 C   0  0  0  0  0  0  0  0  0  0  0  0
    3.9506    4.3589   16.8576 C   0  0  0  0  0  0  0  0  0  0  0  0
    3.5780    4.6785   18.1188 C   0  0  0  0  0  0  0  0  0  0  0  0
    3.7460    3.7202   19.0948 N   0  0  0  0  0  0  0  0  0  0  0  0
    3.7285    5.2133   15.7130 C   0  0  0  0  0  0  0  0  0  0  0  0
    4.1066    6.3933   15.6657 O   0  0  0  0  0  0  0  0  0  0  0  0
    3.0663    4.7297   14.5404 N   0  0  0  0  0  0  0  0  0  0  0  0
    2.7518    3.7384   14.5124 H   0  0  0  0  0  0  0  0  0  0  0  0
    2.8470    5.5994   13.4144 C   0  0  0  0  0  0  0  0  0  0  0  0
    1.4549    5.7022   12.9909 C   0  0  0  0  0  0  0  0  0  0  0  0
    0.6506    6.7702   13.1892 C   0  0  0  0  0  0  0  0  0  0  0  0
   -0.7199    6.7166   12.8636 C   0  0  0  0  0  0  0  0  0  0  0  0
   -1.1947    5.5422   12.3385 C   0  0  0  0  0  0  0  0  0  0  0  0
   -0.3937    4.4672   12.1315 N   0  0  0  0  0  0  0  0  0  0  0  0
    0.8931    4.5567   12.4538 C   0  0  0  0  0  0  0  0  0  0  0  0
   -2.6106    5.3840   12.0435 C   0  0  0  0  0  0  0  0  0  0  0  0
   -3.5991    6.2961   12.3953 C   0  0  0  0  0  0  0  0  0  0  0  0
   -4.7881    5.7980   11.9446 C   0  0  0  0  0  0  0  0  0  0  0  0
   -4.4825    4.5869   11.3274 C   0  0  0  0  0  0  0  0  0  0  0  0
   -3.1838    4.3925   11.4153 O   0  0  0  0  0  0  0  0  0  0  0  0
    4.3785    1.5238   19.8941 N   0  0  0  0  0  0  0  0  0  0  0  0
    4.3920    0.5249   19.6507 H   0  0  0  0  0  0  0  0  0  0  0  0
    4.4800    1.9481   21.2589 C   0  0  0  0  0  0  0  0  0  0  0  0
    5.8814    2.0835   21.7815 C   0  0  0  0  0  0  0  0  0  0  0  0
    4.7759    4.1080   22.7345 C   0  0  0  0  0  0  0  0  0  0  0  0
    6.0777    3.5092   22.3121 C   0  0  0  0  0  0  0  0  0  0  0  0
    3.0524    5.9333   18.4917 N   0  0  0  0  0  0  0  0  0  0  0  0
    2.1397    6.2370   18.1238 H   0  0  0  0  0  0  0  0  0  0  0  0
    3.7362    6.8442   19.4007 C   0  0  0  0  0  0  0  0  0  0  0  0
    5.0860    6.4697   19.8619 C   0  0  0  0  0  0  0  0  0  0  0  0
    5.9775    7.6824   20.1060 C   0  0  0  0  0  0  0  0  0  0  0  0
    5.1188    8.7494   20.7619 C   0  0  0  0  0  0  0  0  0  0  0  0
    4.4650    8.2801   21.8702 O   0  0  0  0  0  0  0  0  0  0  0  0
    4.1890    9.2979   19.7134 C   0  0  0  0  0  0  0  0  0  0  0  0
    3.6969    8.2341   18.7831 C   0  0  0  0  0  0  0  0  0  0  0  0
    3.5680    8.6887   22.0043 H   0  0  0  0  0  0  0  0  0  0  0  0
 27 28  1  0  0  0
 28 26  1  0  0  0
 26 25  1  0  0  0
 25 23  1  0  0  0
 23  1  1  0  0  0
  1  2  2  0  0  0
  2  3  1  0  0  0
  3  4  2  0  0  0
  4  7  1  0  0  0
  7  8  2  0  0  0
  7  9  1  0  0  0
  9 11  1  0  0  0
 11 12  1  0  0  0
 12 13  2  0  0  0
 13 14  1  0  0  0
 14 15  2  0  0  0
 15 16  1  0  0  0
 16 17  2  0  0  0
 15 18  1  0  0  0
 18 19  2  0  0  0
 19 20  1  0  0  0
 20 21  2  0  0  0
 21 22  1  0  0  0
  4  5  1  0  0  0
  5 29  1  0  0  0
 29 31  1  0  0  0
 31 32  1  0  0  0
 32 33  1  0  0  0
 33 34  1  0  0  0
 34 35  1  0  0  0
 34 36  1  0  0  0
 36 37  1  0  0  0
  5  6  2  0  0  0
  6  1  1  0  0  0
 17 12  1  0  0  0
 22 18  1  0  0  0
 37 31  1  0  0  0
 23 24  1  0  0  0
  9 10  1  0  0  0
 29 30  1  0  0  0
 35 38  1  0  0  0
M  END
> <minimizedAffinity>
-8.23174

> <CNNscore>
0.1540201306

> <CNNaffinity>
6.2771182060

> <CNN_VS>
0.9668025374

> <CNNaffinity_variance>
0.6603378057

$$$$
[H]OC1([H])C([H])([H])C([H])([H])C([H])(N([H])c2nc(N([H])C([H])([H])C([H])([H])C([H])([H])C([H])([H])[H])nc([H])c2-c2oc(C([H])([H])N3C([H])([H])C([H])([H])C(F)(F)C([H])([H])C3([H])[H])c([H])c2[H])C([H])([H])C1([H])[H]


 36 39  0  0  0  0  0  0  0  0999 V2000
    2.9929    0.5443   18.3440 C   0  0  0  0  0  0  0  0  0  0  0  0
    2.1490    0.6389   17.3051 N   0  0  0  0  0  0  0  0  0  0  0  0
    2.3807    1.5900   16.4125 C   0  0  0  0  0  0  0  0  0  0  0  0
    3.4538    2.5121   16.4765 C   0  0  0  0  0  0  0  0  0  0  0  0
    4.2680    2.3809   17.5358 C   0  0  0  0  0  0  0  0  0  0  0  0
    4.0163    1.3930   18.4465 N   0  0  0  0  0  0  0  0  0  0  0  0
    3.5541    3.5024   15.4053 C   0  0  0  0  0  0  0  0  0  0  0  0
    3.4656    4.8493   15.3767 C   0  0  0  0  0  0  0  0  0  0  0  0
    3.6609    5.2348   14.0475 C   0  0  0  0  0  0  0  0  0  0  0  0
    3.8636    4.0890   13.3195 C   0  0  0  0  0  0  0  0  0  0  0  0
    3.7941    3.1085   14.1447 O   0  0  0  0  0  0  0  0  0  0  0  0
    4.1159    4.0541   11.8315 C   0  0  0  0  0  0  0  0  0  0  0  0
    3.1827    4.8462   11.1087 N   0  0  0  0  0  0  0  0  0  0  0  0
    1.9333    4.2239   10.8277 C   0  0  0  0  0  0  0  0  0  0  0  0
    0.9591    5.3017   10.3968 C   0  0  0  0  0  0  0  0  0  0  0  0
    1.4764    6.1276    9.2527 C   0  0  0  0  0  0  0  0  0  0  0  0
    1.5955    5.4167    8.0924 F   0  0  0  0  0  0  0  0  0  0  0  0
    0.6060    7.1670    9.0517 F   0  0  0  0  0  0  0  0  0  0  0  0
    2.8297    6.7145    9.6731 C   0  0  0  0  0  0  0  0  0  0  0  0
    3.7219    5.5067    9.9572 C   0  0  0  0  0  0  0  0  0  0  0  0
    2.8114   -0.4467   19.3353 N   0  0  0  0  0  0  0  0  0  0  0  0
    2.0732   -1.1630   19.1917 H   0  0  0  0  0  0  0  0  0  0  0  0
    3.6338   -0.4511   20.5064 C   0  0  0  0  0  0  0  0  0  0  0  0
    3.0884    0.4536   21.5950 C   0  0  0  0  0  0  0  0  0  0  0  0
    3.6294    2.5695   22.8057 C   0  0  0  0  0  0  0  0  0  0  0  0
    4.1859    1.3047   22.1974 C   0  0  0  0  0  0  0  0  0  0  0  0
    5.3176    3.2829   17.8092 N   0  0  0  0  0  0  0  0  0  0  0  0
    6.1852    3.2671   17.2702 H   0  0  0  0  0  0  0  0  0  0  0  0
    5.2071    4.3212   18.8218 C   0  0  0  0  0  0  0  0  0  0  0  0
    3.7943    4.4831   19.2977 C   0  0  0  0  0  0  0  0  0  0  0  0
    3.8129    5.4252   20.4889 C   0  0  0  0  0  0  0  0  0  0  0  0
    4.4651    6.7321   20.1732 C   0  0  0  0  0  0  0  0  0  0  0  0
    3.6036    7.6094   19.5019 O   0  0  0  0  0  0  0  0  0  0  0  0
    5.7604    6.6097   19.4301 C   0  0  0  0  0  0  0  0  0  0  0  0
    5.6672    5.6365   18.2731 C   0  0  0  0  0  0  0  0  0  0  0  0
    3.3730    8.4025   20.0280 H   0  0  0  0  0  0  0  0  0  0  0  0
 25 26  1  0  0  0
 26 24  1  0  0  0
 24 23  1  0  0  0
 23 21  1  0  0  0
 21  1  1  0  0  0
  1  2  2  0  0  0
  2  3  1  0  0  0
  3  4  2  0  0  0
  4  7  1  0  0  0
  7  8  2  0  0  0
  8  9  1  0  0  0
  9 10  2  0  0  0
 10 12  1  0  0  0
 12 13  1  0  0  0
 13 14  1  0  0  0
 14 15  1  0  0  0
 15 16  1  0  0  0
 16 17  1  0  0  0
 16 18  1  0  0  0
 16 19  1  0  0  0
 19 20  1  0  0  0
 10 11  1  0  0  0
  4  5  1  0  0  0
  5 27  1  0  0  0
 27 29  1  0  0  0
 29 30  1  0  0  0
 30 31  1  0  0  0
 31 32  1  0  0  0
 32 33  1  0  0  0
 32 34  1  0  0  0
 34 35  1  0  0  0
  5  6  2  0  0  0
  6  1  1  0  0  0
 11  7  1  0  0  0
 35 29  1  0  0  0
 20 13  1  0  0  0
 21 22  1  0  0  0
 27 28  1  0  0  0
 33 36  1  0  0  0
M  END
> <minimizedAffinity>
-6.92618

> <CNNscore>
0.7515954375

> <CNNaffinity>
7.0041084290

> <CNN_VS>
5.2642560005

> <CNNaffinity_variance>
0.0811343193

$$$$
[H]OC1([H])C([H])([H])C([H])([H])C([H])(N([H])c2nc(N([H])C([H])([H])C([H])([H])C([H])([H])C([H])([H])[H])nc([H])c2-c2oc(C([H])([H])N3C([H])([H])C([H])([H])C(F)(F)C([H])([H])C3([H])[H])c([H])c2[H])C([H])([H])C1([H])[H]


 36 39  0  0  0  0  0  0  0  0999 V2000
    4.2486    1.9231   18.5772 C   0  0  0  0  0  0  0  0  0  0  0  0
    3.4961    1.1735   17.7571 N   0  0  0  0  0  0  0  0  0  0  0  0
    3.3167    1.6112   16.5197 C   0  0  0  0  0  0  0  0  0  0  0  0
    3.8617    2.8115   16.0017 C   0  0  0  0  0  0  0  0  0  0  0  0
    4.6030    3.5292   16.8605 C   0  0  0  0  0  0  0  0  0  0  0  0
    4.7801    3.0625   18.1331 N   0  0  0  0  0  0  0  0  0  0  0  0
    3.5549    3.1441   14.6112 C   0  0  0  0  0  0  0  0  0  0  0  0
    4.0678    4.0354   13.7363 C   0  0  0  0  0  0  0  0  0  0  0  0
    3.3609    3.8749   12.5413 C   0  0  0  0  0  0  0  0  0  0  0  0
    2.4394    2.8785   12.7468 C   0  0  0  0  0  0  0  0  0  0  0  0
    2.5861    2.4824   13.9588 O   0  0  0  0  0  0  0  0  0  0  0  0
    1.4649    2.3860   11.7044 C   0  0  0  0  0  0  0  0  0  0  0  0
    0.4730    3.3558   11.3942 N   0  0  0  0  0  0  0  0  0  0  0  0
    0.7125    4.1297   10.2233 C   0  0  0  0  0  0  0  0  0  0  0  0
   -0.5800    4.8271    9.8497 C   0  0  0  0  0  0  0  0  0  0  0  0
   -1.1525    5.6331   10.9817 C   0  0  0  0  0  0  0  0  0  0  0  0
   -0.3761    6.7049   11.3197 F   0  0  0  0  0  0  0  0  0  0  0  0
   -2.3902    6.0815   10.6002 F   0  0  0  0  0  0  0  0  0  0  0  0
   -1.3351    4.6934   12.1801 C   0  0  0  0  0  0  0  0  0  0  0  0
    0.0651    4.1711   12.4996 C   0  0  0  0  0  0  0  0  0  0  0  0
    4.4864    1.5198   19.9108 N   0  0  0  0  0  0  0  0  0  0  0  0
    4.7158    0.5237   20.0947 H   0  0  0  0  0  0  0  0  0  0  0  0
    4.4095    2.4736   20.9748 C   0  0  0  0  0  0  0  0  0  0  0  0
    5.2213    2.0515   22.1847 C   0  0  0  0  0  0  0  0  0  0  0  0
    4.0326    3.8903   23.3851 C   0  0  0  0  0  0  0  0  0  0  0  0
    4.5421    2.4717   23.4707 C   0  0  0  0  0  0  0  0  0  0  0  0
    5.1269    4.7995   16.5413 N   0  0  0  0  0  0  0  0  0  0  0  0
    5.5052    5.0000   15.6138 H   0  0  0  0  0  0  0  0  0  0  0  0
    5.1041    5.9091   17.4814 C   0  0  0  0  0  0  0  0  0  0  0  0
    5.9685    5.6405   18.6770 C   0  0  0  0  0  0  0  0  0  0  0  0
    6.0496    6.9231   19.4863 C   0  0  0  0  0  0  0  0  0  0  0  0
    4.7015    7.4489   19.8597 C   0  0  0  0  0  0  0  0  0  0  0  0
    4.1614    6.7898   20.9716 O   0  0  0  0  0  0  0  0  0  0  0  0
    3.7122    7.4602   18.7345 C   0  0  0  0  0  0  0  0  0  0  0  0
    3.7077    6.1568   17.9626 C   0  0  0  0  0  0  0  0  0  0  0  0
    4.0702    7.3679   21.7568 H   0  0  0  0  0  0  0  0  0  0  0  0
 25 26  1  0  0  0
 26 24  1  0  0  0
 24 23  1  0  0  0
 23 21  1  0  0  0
 21  1  1  0  0  0
  1  2  2  0  0  0
  2  3  1  0  0  0
  3  4  2  0  0  0
  4  7  1  0  0  0
  7  8  2  0  0  0
  8  9  1  0  0  0
  9 10  2  0  0  0
 10 12  1  0  0  0
 12 13  1  0  0  0
 13 14  1  0  0  0
 14 15  1  0  0  0
 15 16  1  0  0  0
 16 17  1  0  0  0
 16 18  1  0  0  0
 16 19  1  0  0  0
 19 20  1  0  0  0
 10 11  1  0  0  0
  4  5  1  0  0  0
  5 27  1  0  0  0
 27 29  1  0  0  0
 29 30  1  0  0  0
 30 31  1  0  0  0
 31 32  1  0  0  0
 32 33  1  0  0  0
 32 34  1  0  0  0
 34 35  1  0  0  0
  5  6  2  0  0  0
  6  1  1  0  0  0
 11  7  1  0  0  0
 35 29  1  0  0  0
 20 13  1  0  0  0
 21 22  1  0  0  0
 27 28  1  0  0  0
 33 36  1  0  0  0
M  END
> <minimizedAffinity>
-7.88637

> <CNNscore>
0.4801630676

> <CNNaffinity>
6.7977895737

> <CNN_VS>
3.2640473843

> <CNNaffinity_variance>
0.5405249596

$$$$
[H]OC1([H])C([H])([H])C([H])([H])C([H])(N([H])c2nc(N([H])C([H])([H])C([H])([H])C([H])([H])C([H])([H])[H])nc([H])c2-c2oc(C([H])([H])N3C([H])([H])C([H])([H])C(F)(F)C([H])([H])C3([H])[H])c([H])c2[H])C([H])([H])C1([H])[H]


 36 39  0  0  0  0  0  0  0  0999 V2000
    4.3966    1.7494   18.8865 C   0  0  0  0  0  0  0  0  0  0  0  0
    3.5285    0.9373   18.2641 N   0  0  0  0  0  0  0  0  0  0  0  0
    3.1255    1.2857   17.0512 C   0  0  0  0  0  0  0  0  0  0  0  0
    3.5452    2.4519   16.3658 C   0  0  0  0  0  0  0  0  0  0  0  0
    4.4098    3.2349   17.0303 C   0  0  0  0  0  0  0  0  0  0  0  0
    4.8173    2.8601   18.2801 N   0  0  0  0  0  0  0  0  0  0  0  0
    2.9924    2.6836   15.0321 C   0  0  0  0  0  0  0  0  0  0  0  0
    2.9538    1.9439   13.9032 C   0  0  0  0  0  0  0  0  0  0  0  0
    2.2713    2.7047   12.9498 C   0  0  0  0  0  0  0  0  0  0  0  0
    1.9199    3.8872   13.5516 C   0  0  0  0  0  0  0  0  0  0  0  0
    2.3565    3.8334   14.7573 O   0  0  0  0  0  0  0  0  0  0  0  0
    1.1629    5.0019   12.8709 C   0  0  0  0  0  0  0  0  0  0  0  0
    1.9922    5.7649   12.0046 N   0  0  0  0  0  0  0  0  0  0  0  0
    2.5073    6.9744   12.5515 C   0  0  0  0  0  0  0  0  0  0  0  0
    3.6313    7.4531   11.6549 C   0  0  0  0  0  0  0  0  0  0  0  0
    3.2101    7.5886   10.2186 C   0  0  0  0  0  0  0  0  0  0  0  0
    2.2916    8.5806   10.0232 F   0  0  0  0  0  0  0  0  0  0  0  0
    4.3269    7.8615    9.4726 F   0  0  0  0  0  0  0  0  0  0  0  0
    2.6533    6.2336    9.7641 C   0  0  0  0  0  0  0  0  0  0  0  0
    1.4661    5.9562   10.6856 C   0  0  0  0  0  0  0  0  0  0  0  0
    4.8731    1.4427   20.1813 N   0  0  0  0  0  0  0  0  0  0  0  0
    4.5891    0.5424   20.6144 H   0  0  0  0  0  0  0  0  0  0  0  0
    5.7277    2.3616   20.8692 C   0  0  0  0  0  0  0  0  0  0  0  0
    4.9476    3.4609   21.5650 C   0  0  0  0  0  0  0  0  0  0  0  0
    3.5575    3.9671   23.5766 C   0  0  0  0  0  0  0  0  0  0  0  0
    4.0361    2.8917   22.6312 C   0  0  0  0  0  0  0  0  0  0  0  0
    4.8422    4.4847   16.5391 N   0  0  0  0  0  0  0  0  0  0  0  0
    5.1269    4.6027   15.5652 H   0  0  0  0  0  0  0  0  0  0  0  0
    4.8494    5.6838   17.3623 C   0  0  0  0  0  0  0  0  0  0  0  0
    3.4831    5.9997   17.8935 C   0  0  0  0  0  0  0  0  0  0  0  0
    3.6280    7.1274   18.9004 C   0  0  0  0  0  0  0  0  0  0  0  0
    4.3096    8.3251   18.3223 C   0  0  0  0  0  0  0  0  0  0  0  0
    3.4389    9.1211   17.5668 O   0  0  0  0  0  0  0  0  0  0  0  0
    5.5409    8.0092   17.5292 C   0  0  0  0  0  0  0  0  0  0  0  0
    5.3229    6.8606   16.5660 C   0  0  0  0  0  0  0  0  0  0  0  0
    3.2807   10.0030   17.9619 H   0  0  0  0  0  0  0  0  0  0  0  0
 25 26  1  0  0  0
 26 24  1  0  0  0
 24 23  1  0  0  0
 23 21  1  0  0  0
 21  1  1  0  0  0
  1  2  2  0  0  0
  2  3  1  0  0  0
  3  4  2  0  0  0
  4  7  1  0  0  0
  7  8  2  0  0  0
  8  9  1  0  0  0
  9 10  2  0  0  0
 10 12  1  0  0  0
 12 13  1  0  0  0
 13 14  1  0  0  0
 14 15  1  0  0  0
 15 16  1  0  0  0
 16 17  1  0  0  0
 16 18  1  0  0  0
 16 19  1  0  0  0
 19 20  1  0  0  0
 10 11  1  0  0  0
  4  5  1  0  0  0
  5 27  1  0  0  0
 27 29  1  0  0  0
 29 30  1  0  0  0
 30 31  1  0  0  0
 31 32  1  0  0  0
 32 33  1  0  0  0
 32 34  1  0  0  0
 34 35  1  0  0  0
  5  6  2  0  0  0
  6  1  1  0  0  0
 11  7  1  0  0  0
 35 29  1  0  0  0
 20 13  1  0  0  0
 21 22  1  0  0  0
 27 28  1  0  0  0
 33 36  1  0  0  0
M  END
> <minimizedAffinity>
-7.26302

> <CNNscore>
0.4533969164

> <CNNaffinity>
6.7476944923

> <CNN_VS>
3.0593838692

> <CNNaffinity_variance>
0.4678329825

$$$$
[H]OC1([H])C([H])([H])C([H])([H])C([H])(N([H])c2nc(N([H])C([H])([H])C([H])([H])C([H])([H])C([H])([H])[H])nc([H])c2-c2oc(C([H])([H])N3C([H])([H])C([H])([H])C(F)(F)C([H])([H])C3([H])[H])c([H])c2[H])C([H])([H])C1([H])[H]


 36 39  0  0  0  0  0  0  0  0999 V2000
    3.8564    1.6287   19.6650 C   0  0  0  0  0  0  0  0  0  0  0  0
    3.3580    0.6279   18.9229 N   0  0  0  0  0  0  0  0  0  0  0  0
    3.0886    0.8838   17.6513 C   0  0  0  0  0  0  0  0  0  0  0  0
    3.2890    2.1359   17.0206 C   0  0  0  0  0  0  0  0  0  0  0  0
    3.7848    3.1067   17.8042 C   0  0  0  0  0  0  0  0  0  0  0  0
    4.0593    2.8257   19.1135 N   0  0  0  0  0  0  0  0  0  0  0  0
    2.9295    2.2419   15.6072 C   0  0  0  0  0  0  0  0  0  0  0  0
    3.0780    1.4174   14.5484 C   0  0  0  0  0  0  0  0  0  0  0  0
    2.5189    2.0741   13.4485 C   0  0  0  0  0  0  0  0  0  0  0  0
    2.0482    3.2835   13.8957 C   0  0  0  0  0  0  0  0  0  0  0  0
    2.3060    3.3400   15.1517 O   0  0  0  0  0  0  0  0  0  0  0  0
    1.3650    4.3105   13.0253 C   0  0  0  0  0  0  0  0  0  0  0  0
    1.9355    5.6043   13.1708 N   0  0  0  0  0  0  0  0  0  0  0  0
    1.0104    6.6655   13.3833 C   0  0  0  0  0  0  0  0  0  0  0  0
    1.7853    7.8718   13.8739 C   0  0  0  0  0  0  0  0  0  0  0  0
    2.9138    8.2491   12.9557 C   0  0  0  0  0  0  0  0  0  0  0  0
    2.4845    8.7021   11.7407 F   0  0  0  0  0  0  0  0  0  0  0  0
    3.6462    9.2341   13.5656 F   0  0  0  0  0  0  0  0  0  0  0  0
    3.8147    7.0187   12.7909 C   0  0  0  0  0  0  0  0  0  0  0  0
    2.9176    5.9411   12.1833 C   0  0  0  0  0  0  0  0  0  0  0  0
    4.1704    1.4308   21.0287 N   0  0  0  0  0  0  0  0  0  0  0  0
    3.8326    0.5667   21.4956 H   0  0  0  0  0  0  0  0  0  0  0  0
    4.9379    2.4078   21.7389 C   0  0  0  0  0  0  0  0  0  0  0  0
    6.2390    1.8393   22.2726 C   0  0  0  0  0  0  0  0  0  0  0  0
    7.1346   -0.3016   21.3508 C   0  0  0  0  0  0  0  0  0  0  0  0
    7.0467    1.1943   21.1666 C   0  0  0  0  0  0  0  0  0  0  0  0
    3.9417    4.4380   17.3649 N   0  0  0  0  0  0  0  0  0  0  0  0
    3.6056    4.7376   16.4479 H   0  0  0  0  0  0  0  0  0  0  0  0
    4.5279    5.4705   18.2051 C   0  0  0  0  0  0  0  0  0  0  0  0
    3.7819    6.7664   18.0926 C   0  0  0  0  0  0  0  0  0  0  0  0
    4.3283    7.7079   19.1517 C   0  0  0  0  0  0  0  0  0  0  0  0
    5.8083    7.8871   19.0477 C   0  0  0  0  0  0  0  0  0  0  0  0
    6.1651    8.8086   18.0547 O   0  0  0  0  0  0  0  0  0  0  0  0
    6.5714    6.6105   18.8667 C   0  0  0  0  0  0  0  0  0  0  0  0
    5.9518    5.7173   17.8119 C   0  0  0  0  0  0  0  0  0  0  0  0
    6.5784    9.6212   18.4123 H   0  0  0  0  0  0  0  0  0  0  0  0
 25 26  1  0  0  0
 26 24  1  0  0  0
 24 23  1  0  0  0
 23 21  1  0  0  0
 21  1  1  0  0  0
  1  2  2  0  0  0
  2  3  1  0  0  0
  3  4  2  0  0  0
  4  7  1  0  0  0
  7  8  2  0  0  0
  8  9  1  0  0  0
  9 10  2  0  0  0
 10 12  1  0  0  0
 12 13  1  0  0  0
 13 14  1  0  0  0
 14 15  1  0  0  0
 15 16  1  0  0  0
 16 17  1  0  0  0
 16 18  1  0  0  0
 16 19  1  0  0  0
 19 20  1  0  0  0
 10 11  1  0  0  0
  4  5  1  0  0  0
  5 27  1  0  0  0
 27 29  1  0  0  0
 29 30  1  0  0  0
 30 31  1  0  0  0
 31 32  1  0  0  0
 32 33  1  0  0  0
 32 34  1  0  0  0
 34 35  1  0  0  0
  5  6  2  0  0  0
  6  1  1  0  0  0
 11  7  1  0  0  0
 35 29  1  0  0  0
 20 13  1  0  0  0
 21 22  1  0  0  0
 27 28  1  0  0  0
 33 36  1  0  0  0
M  END
> <minimizedAffinity>
-7.11523

> <CNNscore>
0.3938893378

> <CNNaffinity>
6.6003608704

> <CNN_VS>
2.5998117924

> <CNNaffinity_variance>
0.3344993889

$$$$
[H]OC1([H])C([H])([H])C([H])([H])C([H])(N([H])c2nc(N([H])C([H])([H])C([H])([H])C([H])([H])C([H])([H])[H])nc([H])c2-c2oc(C([H])([H])N3C([H])([H])C([H])([H])C(F)(F)C([H])([H])C3([H])[H])c([H])c2[H])C([H])([H])C1([H])[H]


 36 39  0  0  0  0  0  0  0  0999 V2000
    2.4027    2.3805   15.3002 C   0  0  0  0  0  0  0  0  0  0  0  0
    3.4170    1.8528   16.0026 N   0  0  0  0  0  0  0  0  0  0  0  0
    4.1430    2.6769   16.7434 C   0  0  0  0  0  0  0  0  0  0  0  0
    3.9250    4.0725   16.8468 C   0  0  0  0  0  0  0  0  0  0  0  0
    2.9024    4.5545   16.1228 C   0  0  0  0  0  0  0  0  0  0  0  0
    2.1619    3.6904   15.3653 N   0  0  0  0  0  0  0  0  0  0  0  0
    4.8297    4.8322   17.7085 C   0  0  0  0  0  0  0  0  0  0  0  0
    6.0108    5.4510   17.4961 C   0  0  0  0  0  0  0  0  0  0  0  0
    6.3879    6.0221   18.7148 C   0  0  0  0  0  0  0  0  0  0  0  0
    5.4045    5.7217   19.6240 C   0  0  0  0  0  0  0  0  0  0  0  0
    4.5207    5.0316   18.9995 O   0  0  0  0  0  0  0  0  0  0  0  0
    5.4172    6.1509   21.0713 C   0  0  0  0  0  0  0  0  0  0  0  0
    5.2216    5.0577   21.9585 N   0  0  0  0  0  0  0  0  0  0  0  0
    5.9263    3.8645   21.6314 C   0  0  0  0  0  0  0  0  0  0  0  0
    5.8991    2.9564   22.8442 C   0  0  0  0  0  0  0  0  0  0  0  0
    4.5056    2.6990   23.3450 C   0  0  0  0  0  0  0  0  0  0  0  0
    3.7494    1.9730   22.4693 F   0  0  0  0  0  0  0  0  0  0  0  0
    4.5995    2.0133   24.5280 F   0  0  0  0  0  0  0  0  0  0  0  0
    3.8530    4.0569   23.6324 C   0  0  0  0  0  0  0  0  0  0  0  0
    3.8536    4.7954   22.2945 C   0  0  0  0  0  0  0  0  0  0  0  0
    1.5827    1.5637   14.4890 N   0  0  0  0  0  0  0  0  0  0  0  0
    1.1960    0.6896   14.8952 H   0  0  0  0  0  0  0  0  0  0  0  0
    1.2996    1.9448   13.1390 C   0  0  0  0  0  0  0  0  0  0  0  0
    2.5590    2.0832   12.3049 C   0  0  0  0  0  0  0  0  0  0  0  0
    0.8983    1.1766   10.6754 C   0  0  0  0  0  0  0  0  0  0  0  0
    2.3063    1.6869   10.8659 C   0  0  0  0  0  0  0  0  0  0  0  0
    2.6170    5.9326   16.0262 N   0  0  0  0  0  0  0  0  0  0  0  0
    2.1594    6.4347   16.7891 H   0  0  0  0  0  0  0  0  0  0  0  0
    3.0086    6.7293   14.8741 C   0  0  0  0  0  0  0  0  0  0  0  0
    3.6600    5.8903   13.8156 C   0  0  0  0  0  0  0  0  0  0  0  0
    3.8369    6.7580   12.5817 C   0  0  0  0  0  0  0  0  0  0  0  0
    4.5981    8.0114   12.8694 C   0  0  0  0  0  0  0  0  0  0  0  0
    5.9821    7.7974   12.9085 O   0  0  0  0  0  0  0  0  0  0  0  0
    4.1514    8.7329   14.1042 C   0  0  0  0  0  0  0  0  0  0  0  0
    3.9758    7.7973   15.2824 C   0  0  0  0  0  0  0  0  0  0  0  0
    6.4631    8.2462   12.1831 H   0  0  0  0  0  0  0  0  0  0  0  0
 25 26  1  0  0  0
 26 24  1  0  0  0
 24 23  1  0  0  0
 23 21  1  0  0  0
 21  1  1  0  0  0
  1  2  2  0  0  0
  2  3  1  0  0  0
  3  4  2  0  0  0
  4  7  1  0  0  0
  7  8  2  0  0  0
  8  9  1  0  0  0
  9 10  2  0  0  0
 10 12  1  0  0  0
 12 13  1  0  0  0
 13 14  1  0  0  0
 14 15  1  0  0  0
 15 16  1  0  0  0
 16 17  1  0  0  0
 16 18  1  0  0  0
 16 19  1  0  0  0
 19 20  1  0  0  0
 10 11  1  0  0  0
  4  5  1  0  0  0
  5 27  1  0  0  0
 27 29  1  0  0  0
 29 30  1  0  0  0
 30 31  1  0  0  0
 31 32  1  0  0  0
 32 33  1  0  0  0
 32 34  1  0  0  0
 34 35  1  0  0  0
  5  6  2  0  0  0
  6  1  1  0  0  0
 11  7  1  0  0  0
 35 29  1  0  0  0
 20 13  1  0  0  0
 21 22  1  0  0  0
 27 28  1  0  0  0
 33 36  1  0  0  0
M  END
> <minimizedAffinity>
-7.88665

> <CNNscore>
0.3505990803

> <CNNaffinity>
6.7012863159

> <CNN_VS>
2.3494648933

> <CNNaffinity_variance>
0.2056104243

$$$$
[H]OC1([H])C([H])([H])C([H])([H])C([H])(N([H])c2nc(N([H])C([H])([H])C([H])([H])C([H])([H])C([H])([H])[H])nc([H])c2-c2oc(C([H])([H])N3C([H])([H])C([H])([H])C(F)(F)C([H])([H])C3([H])[H])c([H])c2[H])C([H])([H])C1([H])[H]


 36 39  0  0  0  0  0  0  0  0999 V2000
    4.0255    1.4657   19.9821 C   0  0  0  0  0  0  0  0  0  0  0  0
    4.1338    0.8258   18.8075 N   0  0  0  0  0  0  0  0  0  0  0  0
    4.0612    1.5551   17.7039 C   0  0  0  0  0  0  0  0  0  0  0  0
    3.8781    2.9592   17.6756 C   0  0  0  0  0  0  0  0  0  0  0  0
    3.7706    3.5538   18.8744 C   0  0  0  0  0  0  0  0  0  0  0  0
    3.8497    2.7873   20.0035 N   0  0  0  0  0  0  0  0  0  0  0  0
    3.8145    3.6026   16.3640 C   0  0  0  0  0  0  0  0  0  0  0  0
    4.0719    3.1766   15.1089 C   0  0  0  0  0  0  0  0  0  0  0  0
    3.8150    4.2565   14.2595 C   0  0  0  0  0  0  0  0  0  0  0  0
    3.4060    5.3030   15.0478 C   0  0  0  0  0  0  0  0  0  0  0  0
    3.4195    4.8813   16.2599 O   0  0  0  0  0  0  0  0  0  0  0  0
    3.0254    6.6682   14.5278 C   0  0  0  0  0  0  0  0  0  0  0  0
    1.9134    6.6165   13.6439 N   0  0  0  0  0  0  0  0  0  0  0  0
    1.5289    7.8586   13.0636 C   0  0  0  0  0  0  0  0  0  0  0  0
    0.6003    7.5661   11.9023 C   0  0  0  0  0  0  0  0  0  0  0  0
   -0.5720    6.7128   12.2976 C   0  0  0  0  0  0  0  0  0  0  0  0
   -1.4288    7.3459   13.1525 F   0  0  0  0  0  0  0  0  0  0  0  0
   -1.2514    6.3703   11.1576 F   0  0  0  0  0  0  0  0  0  0  0  0
   -0.0235    5.4272   12.9293 C   0  0  0  0  0  0  0  0  0  0  0  0
    0.7849    5.8872   14.1418 C   0  0  0  0  0  0  0  0  0  0  0  0
    4.0954    0.7551   21.2018 N   0  0  0  0  0  0  0  0  0  0  0  0
    4.6453   -0.1255   21.2324 H   0  0  0  0  0  0  0  0  0  0  0  0
    3.4186    1.2495   22.3617 C   0  0  0  0  0  0  0  0  0  0  0  0
    4.3691    1.5072   23.5154 C   0  0  0  0  0  0  0  0  0  0  0  0
    6.1722    3.0846   22.8112 C   0  0  0  0  0  0  0  0  0  0  0  0
    4.8459    2.9440   23.5186 C   0  0  0  0  0  0  0  0  0  0  0  0
    3.4767    4.9255   19.0235 N   0  0  0  0  0  0  0  0  0  0  0  0
    2.5802    5.3121   18.7228 H   0  0  0  0  0  0  0  0  0  0  0  0
    4.3956    5.8527   19.6649 C   0  0  0  0  0  0  0  0  0  0  0  0
    4.3187    5.7643   21.1598 C   0  0  0  0  0  0  0  0  0  0  0  0
    5.4494    6.6019   21.7313 C   0  0  0  0  0  0  0  0  0  0  0  0
    5.4210    8.0122   21.2379 C   0  0  0  0  0  0  0  0  0  0  0  0
    4.4950    8.8014   21.9324 O   0  0  0  0  0  0  0  0  0  0  0  0
    5.2070    8.1431   19.7607 C   0  0  0  0  0  0  0  0  0  0  0  0
    4.0798    7.2610   19.2649 C   0  0  0  0  0  0  0  0  0  0  0  0
    4.9131    9.5074   22.4670 H   0  0  0  0  0  0  0  0  0  0  0  0
 25 26  1  0  0  0
 26 24  1  0  0  0
 24 23  1  0  0  0
 23 21  1  0  0  0
 21  1  1  0  0  0
  1  2  2  0  0  0
  2  3  1  0  0  0
  3  4  2  0  0  0
  4  7  1  0  0  0
  7  8  2  0  0  0
  8  9  1  0  0  0
  9 10  2  0  0  0
 10 12  1  0  0  0
 12 13  1  0  0  0
 13 14  1  0  0  0
 14 15  1  0  0  0
 15 16  1  0  0  0
 16 17  1  0  0  0
 16 18  1  0  0  0
 16 19  1  0  0  0
 19 20  1  0  0  0
 10 11  1  0  0  0
  4  5  1  0  0  0
  5 27  1  0  0  0
 27 29  1  0  0  0
 29 30  1  0  0  0
 30 31  1  0  0  0
 31 32  1  0  0  0
 32 33  1  0  0  0
 32 34  1  0  0  0
 34 35  1  0  0  0
  5  6  2  0  0  0
  6  1  1  0  0  0
 11  7  1  0  0  0
 35 29  1  0  0  0
 20 13  1  0  0  0
 21 22  1  0  0  0
 27 28  1  0  0  0
 33 36  1  0  0  0
M  END
> <minimizedAffinity>
-8.16722

> <CNNscore>
0.3495011330

> <CNNaffinity>
6.8096809387

> <CNN_VS>
2.3799912930

> <CNNaffinity_variance>
0.4130899012

$$$$
[H]OC1([H])C([H])([H])C([H])([H])C([H])(N([H])c2nc(N([H])C([H])([H])C([H])([H])C([H])([H])C([H])([H])[H])nc([H])c2-c2oc(C([H])([H])N3C([H])([H])C([H])([H])C(F)(F)C([H])([H])C3([H])[H])c([H])c2[H])C([H])([H])C1([H])[H]


 36 39  0  0  0  0  0  0  0  0999 V2000
    4.5803    1.5553   20.4580 C   0  0  0  0  0  0  0  0  0  0  0  0
    3.6723    0.7354   19.9068 N   0  0  0  0  0  0  0  0  0  0  0  0
    3.3493    0.9432   18.6390 C   0  0  0  0  0  0  0  0  0  0  0  0
    3.8931    1.9669   17.8254 C   0  0  0  0  0  0  0  0  0  0  0  0
    4.7935    2.7642   18.4219 C   0  0  0  0  0  0  0  0  0  0  0  0
    5.1174    2.5350   19.7301 N   0  0  0  0  0  0  0  0  0  0  0  0
    3.4158    2.0545   16.4460 C   0  0  0  0  0  0  0  0  0  0  0  0
    2.8397    1.1679   15.6063 C   0  0  0  0  0  0  0  0  0  0  0  0
    2.5962    1.8496   14.4106 C   0  0  0  0  0  0  0  0  0  0  0  0
    3.0399    3.1372   14.5813 C   0  0  0  0  0  0  0  0  0  0  0  0
    3.5068    3.2132   15.7744 O   0  0  0  0  0  0  0  0  0  0  0  0
    2.9650    4.2149   13.5268 C   0  0  0  0  0  0  0  0  0  0  0  0
    1.6686    4.7908   13.4371 N   0  0  0  0  0  0  0  0  0  0  0  0
    0.9224    4.4512   12.2730 C   0  0  0  0  0  0  0  0  0  0  0  0
   -0.5235    4.8355   12.5142 C   0  0  0  0  0  0  0  0  0  0  0  0
   -0.6819    6.2749   12.9162 C   0  0  0  0  0  0  0  0  0  0  0  0
   -0.3522    7.1472   11.9180 F   0  0  0  0  0  0  0  0  0  0  0  0
   -1.9908    6.4755   13.2695 F   0  0  0  0  0  0  0  0  0  0  0  0
    0.1880    6.5130   14.1569 C   0  0  0  0  0  0  0  0  0  0  0  0
    1.6159    6.1955   13.7147 C   0  0  0  0  0  0  0  0  0  0  0  0
    4.9769    1.3942   21.8049 N   0  0  0  0  0  0  0  0  0  0  0  0
    5.9323    1.0375   22.0018 H   0  0  0  0  0  0  0  0  0  0  0  0
    4.0719    1.7194   22.8646 C   0  0  0  0  0  0  0  0  0  0  0  0
    4.5035    2.9561   23.6297 C   0  0  0  0  0  0  0  0  0  0  0  0
    3.9432    4.9994   22.3083 C   0  0  0  0  0  0  0  0  0  0  0  0
    3.5185    4.0890   23.4353 C   0  0  0  0  0  0  0  0  0  0  0  0
    5.3493    3.8963   17.7899 N   0  0  0  0  0  0  0  0  0  0  0  0
    5.8850    3.8116   16.9242 H   0  0  0  0  0  0  0  0  0  0  0  0
    5.1435    5.2463   18.2906 C   0  0  0  0  0  0  0  0  0  0  0  0
    3.6874    5.6000   18.3485 C   0  0  0  0  0  0  0  0  0  0  0  0
    3.5629    6.9282   19.0745 C   0  0  0  0  0  0  0  0  0  0  0  0
    4.3896    8.0025   18.4455 C   0  0  0  0  0  0  0  0  0  0  0  0
    3.7677    8.5656   17.3236 O   0  0  0  0  0  0  0  0  0  0  0  0
    5.7876    7.5839   18.1062 C   0  0  0  0  0  0  0  0  0  0  0  0
    5.8296    6.2413   17.4062 C   0  0  0  0  0  0  0  0  0  0  0  0
    3.5167    9.5036   17.4510 H   0  0  0  0  0  0  0  0  0  0  0  0
 25 26  1  0  0  0
 26 24  1  0  0  0
 24 23  1  0  0  0
 23 21  1  0  0  0
 21  1  1  0  0  0
  1  2  2  0  0  0
  2  3  1  0  0  0
  3  4  2  0  0  0
  4  7  1  0  0  0
  7  8  2  0  0  0
  8  9  1  0  0  0
  9 10  2  0  0  0
 10 12  1  0  0  0
 12 13  1  0  0  0
 13 14  1  0  0  0
 14 15  1  0  0  0
 15 16  1  0  0  0
 16 17  1  0  0  0
 16 18  1  0  0  0
 16 19  1  0  0  0
 19 20  1  0  0  0
 10 11  1  0  0  0
  4  5  1  0  0  0
  5 27  1  0  0  0
 27 29  1  0  0  0
 29 30  1  0  0  0
 30 31  1  0  0  0
 31 32  1  0  0  0
 32 33  1  0  0  0
 32 34  1  0  0  0
 34 35  1  0  0  0
  5  6  2  0  0  0
  6  1  1  0  0  0
 11  7  1  0  0  0
 35 29  1  0  0  0
 20 13  1  0  0  0
 21 22  1  0  0  0
 27 28  1  0  0  0
 33 36  1  0  0  0
M  END
> <minimizedAffinity>
-8.47152

> <CNNscore>
0.2912461460

> <CNNaffinity>
6.5515632629

> <CNN_VS>
1.9081175327

> <CNNaffinity_variance>
0.4462247491

$$$$
[H]OC1([H])C([H])([H])C([H])([H])C([H])(N([H])c2nc(N([H])C([H])([H])C([H])([H])C([H])([H])C([H])([H])[H])nc([H])c2-c2oc(C([H])([H])N3C([H])([H])C([H])([H])C(F)(F)C([H])([H])C3([H])[H])c([H])c2[H])C([H])([H])C1([H])[H]


 36 39  0  0  0  0  0  0  0  0999 V2000
    4.1799    1.8326   18.5046 C   0  0  0  0  0  0  0  0  0  0  0  0
    3.2280    1.5456   17.6033 N   0  0  0  0  0  0  0  0  0  0  0  0
    3.1537    2.3127   16.5258 C   0  0  0  0  0  0  0  0  0  0  0  0
    4.0058    3.4117   16.2577 C   0  0  0  0  0  0  0  0  0  0  0  0
    4.9388    3.6624   17.1899 C   0  0  0  0  0  0  0  0  0  0  0  0
    5.0035    2.8601   18.2949 N   0  0  0  0  0  0  0  0  0  0  0  0
    3.7762    4.1540   15.0190 C   0  0  0  0  0  0  0  0  0  0  0  0
    3.2141    5.3508   14.7459 C   0  0  0  0  0  0  0  0  0  0  0  0
    3.2960    5.5247   13.3615 C   0  0  0  0  0  0  0  0  0  0  0  0
    3.9142    4.4111   12.8498 C   0  0  0  0  0  0  0  0  0  0  0  0
    4.1760    3.6428   13.8439 O   0  0  0  0  0  0  0  0  0  0  0  0
    4.2037    4.1906   11.3847 C   0  0  0  0  0  0  0  0  0  0  0  0
    4.5289    5.4000   10.7123 N   0  0  0  0  0  0  0  0  0  0  0  0
    3.9516    5.5618    9.4209 C   0  0  0  0  0  0  0  0  0  0  0  0
    4.0944    7.0169    9.0224 C   0  0  0  0  0  0  0  0  0  0  0  0
    5.5147    7.5024    9.0977 C   0  0  0  0  0  0  0  0  0  0  0  0
    6.3314    6.9077    8.1784 F   0  0  0  0  0  0  0  0  0  0  0  0
    5.5126    8.8560    8.8831 F   0  0  0  0  0  0  0  0  0  0  0  0
    6.0219    7.2470   10.5226 C   0  0  0  0  0  0  0  0  0  0  0  0
    5.9220    5.7350   10.7208 C   0  0  0  0  0  0  0  0  0  0  0  0
    4.3221    1.0576   19.6779 N   0  0  0  0  0  0  0  0  0  0  0  0
    4.3440    0.0229   19.5898 H   0  0  0  0  0  0  0  0  0  0  0  0
    4.4324    1.6975   20.9531 C   0  0  0  0  0  0  0  0  0  0  0  0
    5.8468    1.6503   21.4992 C   0  0  0  0  0  0  0  0  0  0  0  0
    5.1436    3.8975   22.3305 C   0  0  0  0  0  0  0  0  0  0  0  0
    6.3097    3.0246   21.9336 C   0  0  0  0  0  0  0  0  0  0  0  0
    5.7949    4.7821   17.1326 N   0  0  0  0  0  0  0  0  0  0  0  0
    6.6006    4.8028   16.5049 H   0  0  0  0  0  0  0  0  0  0  0  0
    5.5512    5.9883   17.9080 C   0  0  0  0  0  0  0  0  0  0  0  0
    6.3511    6.0030   19.1762 C   0  0  0  0  0  0  0  0  0  0  0  0
    6.1965    7.3771   19.8044 C   0  0  0  0  0  0  0  0  0  0  0  0
    4.7653    7.7466   20.0246 C   0  0  0  0  0  0  0  0  0  0  0  0
    4.2370    7.1649   21.1843 O   0  0  0  0  0  0  0  0  0  0  0  0
    3.8715    7.4704   18.8542 C   0  0  0  0  0  0  0  0  0  0  0  0
    4.1017    6.0918   18.2704 C   0  0  0  0  0  0  0  0  0  0  0  0
    4.0094    7.8198   21.8759 H   0  0  0  0  0  0  0  0  0  0  0  0
 25 26  1  0  0  0
 26 24  1  0  0  0
 24 23  1  0  0  0
 23 21  1  0  0  0
 21  1  1  0  0  0
  1  2  2  0  0  0
  2  3  1  0  0  0
  3  4  2  0  0  0
  4  7  1  0  0  0
  7  8  2  0  0  0
  8  9  1  0  0  0
  9 10  2  0  0  0
 10 12  1  0  0  0
 12 13  1  0  0  0
 13 14  1  0  0  0
 14 15  1  0  0  0
 15 16  1  0  0  0
 16 17  1  0  0  0
 16 18  1  0  0  0
 16 19  1  0  0  0
 19 20  1  0  0  0
 10 11  1  0  0  0
  4  5  1  0  0  0
  5 27  1  0  0  0
 27 29  1  0  0  0
 29 30  1  0  0  0
 30 31  1  0  0  0
 31 32  1  0  0  0
 32 33  1  0  0  0
 32 34  1  0  0  0
 34 35  1  0  0  0
  5  6  2  0  0  0
  6  1  1  0  0  0
 11  7  1  0  0  0
 35 29  1  0  0  0
 20 13  1  0  0  0
 21 22  1  0  0  0
 27 28  1  0  0  0
 33 36  1  0  0  0
M  END
> <minimizedAffinity>
-7.18490

> <CNNscore>
0.2106323689

> <CNNaffinity>
6.3267717361

> <CNN_VS>
1.3326228857

> <CNNaffinity_variance>
0.4769435525

$$$$
[H]OC1([H])C([H])([H])C([H])([H])C([H])(N([H])c2nc(N([H])C([H])([H])C([H])([H])C([H])([H])C([H])([H])[H])nc([H])c2-c2oc(C([H])([H])N3C([H])([H])C([H])([H])C(F)(F)C([H])([H])C3([H])[H])c([H])c2[H])C([H])([H])C1([H])[H]


 36 39  0  0  0  0  0  0  0  0999 V2000
    4.7368    2.1515   19.8372 C   0  0  0  0  0  0  0  0  0  0  0  0
    3.7937    1.3714   19.2872 N   0  0  0  0  0  0  0  0  0  0  0  0
    3.5249    1.5487   18.0022 C   0  0  0  0  0  0  0  0  0  0  0  0
    4.1612    2.5011   17.1691 C   0  0  0  0  0  0  0  0  0  0  0  0
    5.0938    3.2610   17.7649 C   0  0  0  0  0  0  0  0  0  0  0  0
    5.3607    3.0638   19.0910 N   0  0  0  0  0  0  0  0  0  0  0  0
    3.7340    2.5642   15.7720 C   0  0  0  0  0  0  0  0  0  0  0  0
    2.9890    1.7514   14.9927 C   0  0  0  0  0  0  0  0  0  0  0  0
    2.9180    2.3577   13.7354 C   0  0  0  0  0  0  0  0  0  0  0  0
    3.6312    3.5281   13.8096 C   0  0  0  0  0  0  0  0  0  0  0  0
    4.0866    3.6092   15.0068 O   0  0  0  0  0  0  0  0  0  0  0  0
    3.8096    4.4955   12.6645 C   0  0  0  0  0  0  0  0  0  0  0  0
    3.4261    5.8190   13.0134 N   0  0  0  0  0  0  0  0  0  0  0  0
    2.0364    6.0154   13.2525 C   0  0  0  0  0  0  0  0  0  0  0  0
    1.8649    7.3482   13.9530 C   0  0  0  0  0  0  0  0  0  0  0  0
    2.4996    8.4845   13.2015 C   0  0  0  0  0  0  0  0  0  0  0  0
    1.8855    8.7451   12.0096 F   0  0  0  0  0  0  0  0  0  0  0  0
    2.4356    9.6035   13.9903 F   0  0  0  0  0  0  0  0  0  0  0  0
    3.9781    8.1366   12.9878 C   0  0  0  0  0  0  0  0  0  0  0  0
    3.9740    6.8430   12.1742 C   0  0  0  0  0  0  0  0  0  0  0  0
    5.0795    2.0191   21.2019 N   0  0  0  0  0  0  0  0  0  0  0  0
    6.0781    1.8804   21.4517 H   0  0  0  0  0  0  0  0  0  0  0  0
    4.0628    2.0767   22.2073 C   0  0  0  0  0  0  0  0  0  0  0  0
    4.4936    2.8883   23.4143 C   0  0  0  0  0  0  0  0  0  0  0  0
    3.8368    5.0407   22.3322 C   0  0  0  0  0  0  0  0  0  0  0  0
    3.6719    4.1532   23.5423 C   0  0  0  0  0  0  0  0  0  0  0  0
    5.7435    4.3278   17.1094 N   0  0  0  0  0  0  0  0  0  0  0  0
    6.3668    4.1634   16.3170 H   0  0  0  0  0  0  0  0  0  0  0  0
    5.5200    5.7176   17.4757 C   0  0  0  0  0  0  0  0  0  0  0  0
    6.2089    6.0699   18.7602 C   0  0  0  0  0  0  0  0  0  0  0  0
    6.0982    7.5730   18.9470 C   0  0  0  0  0  0  0  0  0  0  0  0
    4.6830    8.0510   18.9053 C   0  0  0  0  0  0  0  0  0  0  0  0
    4.0190    7.8579   20.1237 O   0  0  0  0  0  0  0  0  0  0  0  0
    3.8742    7.4817   17.7799 C   0  0  0  0  0  0  0  0  0  0  0  0
    4.0559    5.9840   17.6442 C   0  0  0  0  0  0  0  0  0  0  0  0
    3.7801    8.6959   20.5706 H   0  0  0  0  0  0  0  0  0  0  0  0
 25 26  1  0  0  0
 26 24  1  0  0  0
 24 23  1  0  0  0
 23 21  1  0  0  0
 21  1  1  0  0  0
  1  2  2  0  0  0
  2  3  1  0  0  0
  3  4  2  0  0  0
  4  7  1  0  0  0
  7  8  2  0  0  0
  8  9  1  0  0  0
  9 10  2  0  0  0
 10 12  1  0  0  0
 12 13  1  0  0  0
 13 14  1  0  0  0
 14 15  1  0  0  0
 15 16  1  0  0  0
 16 17  1  0  0  0
 16 18  1  0  0  0
 16 19  1  0  0  0
 19 20  1  0  0  0
 10 11  1  0  0  0
  4  5  1  0  0  0
  5 27  1  0  0  0
 27 29  1  0  0  0
 29 30  1  0  0  0
 30 31  1  0  0  0
 31 32  1  0  0  0
 32 33  1  0  0  0
 32 34  1  0  0  0
 34 35  1  0  0  0
  5  6  2  0  0  0
  6  1  1  0  0  0
 11  7  1  0  0  0
 35 29  1  0  0  0
 20 13  1  0  0  0
 21 22  1  0  0  0
 27 28  1  0  0  0
 33 36  1  0  0  0
M  END
> <minimizedAffinity>
-8.36828

> <CNNscore>
0.1950729340

> <CNNaffinity>
6.3336029053

> <CNN_VS>
1.2355145216

> <CNNaffinity_variance>
0.5092861652

$$$$
[H]O[C@]1([H])C([H])([H])C([H])([H])[C@@]([H])(N([H])c2nc(N([H])C([H])([H])C([H])([H])C([H])([H])C([H])([H])[H])nc([H])c2-c2nc([H])c(C([H])([H])N3C([H])([H])C([H])([H])N(C([H])([H])[H])C([H])([H])C3([H])[H])c([H])c2[H])C([H])([H])C1([H])[H]


 36 39  0  0  0  0  0  0  0  0999 V2000
    3.0659    0.2392   19.0372 C   0  0  0  0  0  0  0  0  0  0  0  0
    2.3927   -0.2501   17.9987 N   0  0  0  0  0  0  0  0  0  0  0  0
    2.4527    0.3612   16.8109 C   0  0  0  0  0  0  0  0  0  0  0  0
    3.2276    1.5209   16.6642 C   0  0  0  0  0  0  0  0  0  0  0  0
    3.9223    2.0344   17.7237 C   0  0  0  0  0  0  0  0  0  0  0  0
    3.8025    1.3409   18.9004 N   0  0  0  0  0  0  0  0  0  0  0  0
    3.2277    2.1526   15.3466 C   0  0  0  0  0  0  0  0  0  0  0  0
    2.4867    1.5354   14.3417 C   0  0  0  0  0  0  0  0  0  0  0  0
    2.4423    2.1233   13.1030 C   0  0  0  0  0  0  0  0  0  0  0  0
    3.1221    3.2972   12.8820 C   0  0  0  0  0  0  0  0  0  0  0  0
    3.8437    3.8878   13.8832 C   0  0  0  0  0  0  0  0  0  0  0  0
    3.8645    3.2915   15.0669 N   0  0  0  0  0  0  0  0  0  0  0  0
    3.1070    3.9752   11.5576 C   0  0  0  0  0  0  0  0  0  0  0  0
    2.7203    5.3407   11.7352 N   0  0  0  0  0  0  0  0  0  0  0  0
    3.5878    6.3057   11.1255 C   0  0  0  0  0  0  0  0  0  0  0  0
    3.0440    7.6715   11.5740 C   0  0  0  0  0  0  0  0  0  0  0  0
    1.8636    7.9022   10.7951 N   0  0  0  0  0  0  0  0  0  0  0  0
    2.3013    8.4733    9.5148 C   0  0  0  0  0  0  0  0  0  0  0  0
    1.0259    6.7639   10.6128 C   0  0  0  0  0  0  0  0  0  0  0  0
    1.3515    5.5678   11.4297 C   0  0  0  0  0  0  0  0  0  0  0  0
    2.9689   -0.4552   20.2890 N   0  0  0  0  0  0  0  0  0  0  0  0
    2.2832   -1.2453   20.4065 H   0  0  0  0  0  0  0  0  0  0  0  0
    3.7729   -0.1322   21.4303 C   0  0  0  0  0  0  0  0  0  0  0  0
    3.2278    0.9636   22.2970 C   0  0  0  0  0  0  0  0  0  0  0  0
    5.5790    1.6322   21.9473 C   0  0  0  0  0  0  0  0  0  0  0  0
    4.2105    2.1229   22.3784 C   0  0  0  0  0  0  0  0  0  0  0  0
    4.6982    3.2137   17.7298 N   0  0  0  0  0  0  0  0  0  0  0  0
    5.3397    3.4205   16.9477 H   0  0  0  0  0  0  0  0  0  0  0  0
    4.5990    4.1724   18.8140 C   0  0  0  0  0  0  0  0  0  0  0  0
    5.8208    5.0423   18.9728 C   0  0  0  0  0  0  0  0  0  0  0  0
    5.7263    5.5712   20.4191 C   0  0  0  0  0  0  0  0  0  0  0  0
    4.5341    6.4577   20.4923 C   0  0  0  0  0  0  0  0  0  0  0  0
    3.9268    6.2745   21.7451 O   0  0  0  0  0  0  0  0  0  0  0  0
    3.5681    6.3799   19.3694 C   0  0  0  0  0  0  0  0  0  0  0  0
    3.3514    4.9950   18.8087 C   0  0  0  0  0  0  0  0  0  0  0  0
    3.4959    5.3835   21.8089 H   0  0  0  0  0  0  0  0  0  0  0  0
 25 26  1  0  0  0
 26 24  1  0  0  0
 24 23  1  0  0  0
 23 21  1  0  0  0
 21  1  1  0  0  0
  1  2  2  0  0  0
  2  3  1  0  0  0
  3  4  2  0  0  0
  4  5  1  0  0  0
  5 27  1  0  0  0
 27 29  1  0  0  0
 29 30  1  0  0  0
 30 31  1  0  0  0
 31 32  1  0  0  0
 32 33  1  0  0  0
 32 34  1  0  0  0
 34 35  1  0  0  0
  5  6  2  0  0  0
  4  7  1  0  0  0
  7  8  2  0  0  0
  8  9  1  0  0  0
  9 10  2  0  0  0
 10 13  1  0  0  0
 13 14  1  0  0  0
 14 15  1  0  0  0
 15 16  1  0  0  0
 16 17  1  0  0  0
 17 18  1  0  0  0
 17 19  1  0  0  0
 19 20  1  0  0  0
 10 11  1  0  0  0
 11 12  2  0  0  0
  6  1  1  0  0  0
 12  7  1  0  0  0
 35 29  1  0  0  0
 20 14  1  0  0  0
 21 22  1  0  0  0
 27 28  1  0  0  0
 33 36  1  0  0  0
M  END
> <minimizedAffinity>
-8.50884

> <CNNscore>
0.9590550065

> <CNNaffinity>
7.5164642334

> <CNN_VS>
7.2087025642

> <CNNaffinity_variance>
0.0508296788

$$$$
[H]O[C@]1([H])C([H])([H])C([H])([H])[C@@]([H])(N([H])c2nc(N([H])C([H])([H])C([H])([H])C([H])([H])C([H])([H])[H])nc([H])c2-c2nc([H])c(C([H])([H])N3C([H])([H])C([H])([H])N(C([H])([H])[H])C([H])([H])C3([H])[H])c([H])c2[H])C([H])([H])C1([H])[H]


 36 39  0  0  0  0  0  0  0  0999 V2000
    3.2224    1.1566   17.9404 C   0  0  0  0  0  0  0  0  0  0  0  0
    3.3073    0.4208   16.8348 N   0  0  0  0  0  0  0  0  0  0  0  0
    3.1868    0.9965   15.6338 C   0  0  0  0  0  0  0  0  0  0  0  0
    2.9697    2.3791   15.5443 C   0  0  0  0  0  0  0  0  0  0  0  0
    2.8789    3.1456   16.6726 C   0  0  0  0  0  0  0  0  0  0  0  0
    3.0160    2.4702   17.8579 N   0  0  0  0  0  0  0  0  0  0  0  0
    2.8212    2.9385   14.2025 C   0  0  0  0  0  0  0  0  0  0  0  0
    3.8154    3.8068   13.7584 C   0  0  0  0  0  0  0  0  0  0  0  0
    3.7191    4.3222   12.4906 C   0  0  0  0  0  0  0  0  0  0  0  0
    2.6550    3.9740   11.6934 C   0  0  0  0  0  0  0  0  0  0  0  0
    1.6891    3.1185   12.1488 C   0  0  0  0  0  0  0  0  0  0  0  0
    1.8146    2.6404   13.3788 N   0  0  0  0  0  0  0  0  0  0  0  0
    2.5029    4.5048   10.3118 C   0  0  0  0  0  0  0  0  0  0  0  0
    1.1299    4.8359   10.0860 N   0  0  0  0  0  0  0  0  0  0  0  0
    0.8389    6.2391   10.0433 C   0  0  0  0  0  0  0  0  0  0  0  0
   -0.6917    6.3266    9.9350 C   0  0  0  0  0  0  0  0  0  0  0  0
   -1.0123    5.9862    8.5805 N   0  0  0  0  0  0  0  0  0  0  0  0
   -0.8649    7.2123    7.7855 C   0  0  0  0  0  0  0  0  0  0  0  0
   -0.2639    4.9034    8.0346 C   0  0  0  0  0  0  0  0  0  0  0  0
    0.5677    4.1287    8.9895 C   0  0  0  0  0  0  0  0  0  0  0  0
    3.3599    0.4904   19.2037 N   0  0  0  0  0  0  0  0  0  0  0  0
    3.0762   -0.5181   19.3062 H   0  0  0  0  0  0  0  0  0  0  0  0
    3.8767    1.1308   20.3768 C   0  0  0  0  0  0  0  0  0  0  0  0
    5.2611    1.6895   20.2332 C   0  0  0  0  0  0  0  0  0  0  0  0
    6.2590    2.8762   22.1550 C   0  0  0  0  0  0  0  0  0  0  0  0
    5.3726    3.0353   20.9349 C   0  0  0  0  0  0  0  0  0  0  0  0
    2.6165    4.5314   16.7302 N   0  0  0  0  0  0  0  0  0  0  0  0
    1.7356    4.9121   16.3493 H   0  0  0  0  0  0  0  0  0  0  0  0
    3.5581    5.4493   17.3428 C   0  0  0  0  0  0  0  0  0  0  0  0
    3.3079    5.6908   18.8104 C   0  0  0  0  0  0  0  0  0  0  0  0
    4.0333    7.0198   19.1068 C   0  0  0  0  0  0  0  0  0  0  0  0
    5.4912    6.7794   18.9358 C   0  0  0  0  0  0  0  0  0  0  0  0
    6.0619    7.9287   18.3655 O   0  0  0  0  0  0  0  0  0  0  0  0
    5.8900    5.5333   18.2370 C   0  0  0  0  0  0  0  0  0  0  0  0
    4.9961    5.1314   17.0887 C   0  0  0  0  0  0  0  0  0  0  0  0
    5.7828    8.0373   17.4201 H   0  0  0  0  0  0  0  0  0  0  0  0
 25 26  1  0  0  0
 26 24  1  0  0  0
 24 23  1  0  0  0
 23 21  1  0  0  0
 21  1  1  0  0  0
  1  2  2  0  0  0
  2  3  1  0  0  0
  3  4  2  0  0  0
  4  5  1  0  0  0
  5 27  1  0  0  0
 27 29  1  0  0  0
 29 30  1  0  0  0
 30 31  1  0  0  0
 31 32  1  0  0  0
 32 33  1  0  0  0
 32 34  1  0  0  0
 34 35  1  0  0  0
  5  6  2  0  0  0
  4  7  1  0  0  0
  7  8  2  0  0  0
  8  9  1  0  0  0
  9 10  2  0  0  0
 10 13  1  0  0  0
 13 14  1  0  0  0
 14 15  1  0  0  0
 15 16  1  0  0  0
 16 17  1  0  0  0
 17 18  1  0  0  0
 17 19  1  0  0  0
 19 20  1  0  0  0
 10 11  1  0  0  0
 11 12  2  0  0  0
  6  1  1  0  0  0
 12  7  1  0  0  0
 35 29  1  0  0  0
 20 14  1  0  0  0
 21 22  1  0  0  0
 27 28  1  0  0  0
 33 36  1  0  0  0
M  END
> <minimizedAffinity>
-6.22094

> <CNNscore>
0.6422688365

> <CNNaffinity>
6.8902664185

> <CNN_VS>
4.4254035950

> <CNNaffinity_variance>
0.4476491809

$$$$
[H]O[C@]1([H])C([H])([H])C([H])([H])[C@@]([H])(N([H])c2nc(N([H])C([H])([H])C([H])([H])C([H])([H])C([H])([H])[H])nc([H])c2-c2nc([H])c(C([H])([H])N3C([H])([H])C([H])([H])N(C([H])([H])[H])C([H])([H])C3([H])[H])c([H])c2[H])C([H])([H])C1([H])[H]


 36 39  0  0  0  0  0  0  0  0999 V2000
    4.0526    1.2235   20.1996 C   0  0  0  0  0  0  0  0  0  0  0  0
    3.3596    0.5109   19.3148 N   0  0  0  0  0  0  0  0  0  0  0  0
    3.2567    0.9286   18.0485 C   0  0  0  0  0  0  0  0  0  0  0  0
    3.8817    2.1214   17.6570 C   0  0  0  0  0  0  0  0  0  0  0  0
    4.5951    2.8633   18.5568 C   0  0  0  0  0  0  0  0  0  0  0  0
    4.6471    2.3571   19.8301 N   0  0  0  0  0  0  0  0  0  0  0  0
    3.7070    2.5325   16.2657 C   0  0  0  0  0  0  0  0  0  0  0  0
    3.1138    1.6181   15.3987 C   0  0  0  0  0  0  0  0  0  0  0  0
    2.9077    1.9886   14.0939 C   0  0  0  0  0  0  0  0  0  0  0  0
    3.2862    3.2414   13.6742 C   0  0  0  0  0  0  0  0  0  0  0  0
    3.8668    4.1252   14.5424 C   0  0  0  0  0  0  0  0  0  0  0  0
    4.0508    3.7330   15.7953 N   0  0  0  0  0  0  0  0  0  0  0  0
    3.0856    3.6926   12.2706 C   0  0  0  0  0  0  0  0  0  0  0  0
    3.7393    4.9512   12.0855 N   0  0  0  0  0  0  0  0  0  0  0  0
    4.8732    4.9276   11.2085 C   0  0  0  0  0  0  0  0  0  0  0  0
    5.4703    6.3415   11.2893 C   0  0  0  0  0  0  0  0  0  0  0  0
    4.6030    7.1816   10.5177 N   0  0  0  0  0  0  0  0  0  0  0  0
    5.0261    7.0603    9.1166 C   0  0  0  0  0  0  0  0  0  0  0  0
    3.2105    6.9252   10.6786 C   0  0  0  0  0  0  0  0  0  0  0  0
    2.8327    6.0006   11.7768 C   0  0  0  0  0  0  0  0  0  0  0  0
    4.1333    0.7308   21.5447 N   0  0  0  0  0  0  0  0  0  0  0  0
    4.5072   -0.2347   21.7353 H   0  0  0  0  0  0  0  0  0  0  0  0
    3.7237    1.4939   22.6862 C   0  0  0  0  0  0  0  0  0  0  0  0
    4.8469    2.0447   23.5135 C   0  0  0  0  0  0  0  0  0  0  0  0
    3.7236    4.1830   23.0003 C   0  0  0  0  0  0  0  0  0  0  0  0
    5.0712    3.5174   23.2021 C   0  0  0  0  0  0  0  0  0  0  0  0
    5.2309    4.0997   18.3126 N   0  0  0  0  0  0  0  0  0  0  0  0
    5.7770    4.2441   17.4484 H   0  0  0  0  0  0  0  0  0  0  0  0
    5.1158    5.2014   19.2493 C   0  0  0  0  0  0  0  0  0  0  0  0
    6.3503    6.0639   19.3314 C   0  0  0  0  0  0  0  0  0  0  0  0
    6.2179    6.7903   20.6860 C   0  0  0  0  0  0  0  0  0  0  0  0
    5.0438    7.6987   20.5917 C   0  0  0  0  0  0  0  0  0  0  0  0
    4.3901    7.7018   21.8345 O   0  0  0  0  0  0  0  0  0  0  0  0
    4.1154    7.4820   19.4554 C   0  0  0  0  0  0  0  0  0  0  0  0
    3.8875    6.0365   19.0841 C   0  0  0  0  0  0  0  0  0  0  0  0
    3.9377    6.8359   22.0049 H   0  0  0  0  0  0  0  0  0  0  0  0
 25 26  1  0  0  0
 26 24  1  0  0  0
 24 23  1  0  0  0
 23 21  1  0  0  0
 21  1  1  0  0  0
  1  2  2  0  0  0
  2  3  1  0  0  0
  3  4  2  0  0  0
  4  5  1  0  0  0
  5 27  1  0  0  0
 27 29  1  0  0  0
 29 30  1  0  0  0
 30 31  1  0  0  0
 31 32  1  0  0  0
 32 33  1  0  0  0
 32 34  1  0  0  0
 34 35  1  0  0  0
  5  6  2  0  0  0
  4  7  1  0  0  0
  7  8  2  0  0  0
  8  9  1  0  0  0
  9 10  2  0  0  0
 10 13  1  0  0  0
 13 14  1  0  0  0
 14 15  1  0  0  0
 15 16  1  0  0  0
 16 17  1  0  0  0
 17 18  1  0  0  0
 17 19  1  0  0  0
 19 20  1  0  0  0
 10 11  1  0  0  0
 11 12  2  0  0  0
  6  1  1  0  0  0
 12  7  1  0  0  0
 35 29  1  0  0  0
 20 14  1  0  0  0
 21 22  1  0  0  0
 27 28  1  0  0  0
 33 36  1  0  0  0
M  END
> <minimizedAffinity>
-8.36916

> <CNNscore>
0.4584695101

> <CNNaffinity>
6.9737219810

> <CNN_VS>
3.1972389221

> <CNNaffinity_variance>
0.4352777004

$$$$
[H]O[C@]1([H])C([H])([H])C([H])([H])[C@@]([H])(N([H])c2nc(N([H])C([H])([H])C([H])([H])C([H])([H])C([H])([H])[H])nc([H])c2-c2nc([H])c(C([H])([H])N3C([H])([H])C([H])([H])N(C([H])([H])[H])C([H])([H])C3([H])[H])c([H])c2[H])C([H])([H])C1([H])[H]


 36 39  0  0  0  0  0  0  0  0999 V2000
    4.3057    1.5708   19.3176 C   0  0  0  0  0  0  0  0  0  0  0  0
    3.4706    0.8868   18.5393 N   0  0  0  0  0  0  0  0  0  0  0  0
    3.2719    1.2645   17.2719 C   0  0  0  0  0  0  0  0  0  0  0  0
    3.9468    2.3851   16.7665 C   0  0  0  0  0  0  0  0  0  0  0  0
    4.8060    3.0971   17.5564 C   0  0  0  0  0  0  0  0  0  0  0  0
    4.9478    2.6359   18.8398 N   0  0  0  0  0  0  0  0  0  0  0  0
    3.6635    2.7576   15.3822 C   0  0  0  0  0  0  0  0  0  0  0  0
    2.9927    1.8257   14.5940 C   0  0  0  0  0  0  0  0  0  0  0  0
    2.6847    2.1605   13.2997 C   0  0  0  0  0  0  0  0  0  0  0  0
    3.0402    3.3959   12.8133 C   0  0  0  0  0  0  0  0  0  0  0  0
    3.6983    4.2974   13.6046 C   0  0  0  0  0  0  0  0  0  0  0  0
    3.9798    3.9395   14.8496 N   0  0  0  0  0  0  0  0  0  0  0  0
    2.7305    3.8083   11.4176 C   0  0  0  0  0  0  0  0  0  0  0  0
    3.4205    2.9445   10.5102 N   0  0  0  0  0  0  0  0  0  0  0  0
    2.6073    2.3624    9.4830 C   0  0  0  0  0  0  0  0  0  0  0  0
    3.5356    1.3854    8.7442 C   0  0  0  0  0  0  0  0  0  0  0  0
    4.3906    2.1940    7.9267 N   0  0  0  0  0  0  0  0  0  0  0  0
    3.6578    2.4702    6.6843 C   0  0  0  0  0  0  0  0  0  0  0  0
    4.8654    3.3882    8.5426 C   0  0  0  0  0  0  0  0  0  0  0  0
    4.6125    3.5246    9.9990 C   0  0  0  0  0  0  0  0  0  0  0  0
    4.4845    1.1232   20.6690 N   0  0  0  0  0  0  0  0  0  0  0  0
    3.6928    1.1896   21.3597 H   0  0  0  0  0  0  0  0  0  0  0  0
    5.7136    0.5720   21.1574 C   0  0  0  0  0  0  0  0  0  0  0  0
    6.6218    1.5551   21.8342 C   0  0  0  0  0  0  0  0  0  0  0  0
    5.5112    2.2116   23.9396 C   0  0  0  0  0  0  0  0  0  0  0  0
    5.8145    2.6482   22.5194 C   0  0  0  0  0  0  0  0  0  0  0  0
    5.5102    4.2657   17.1943 N   0  0  0  0  0  0  0  0  0  0  0  0
    6.1865    4.2470   16.4144 H   0  0  0  0  0  0  0  0  0  0  0  0
    5.2877    5.5213   17.8860 C   0  0  0  0  0  0  0  0  0  0  0  0
    3.8338    5.8224   18.1513 C   0  0  0  0  0  0  0  0  0  0  0  0
    3.7974    7.3468   18.3860 C   0  0  0  0  0  0  0  0  0  0  0  0
    4.5469    7.6225   19.6409 C   0  0  0  0  0  0  0  0  0  0  0  0
    5.2496    8.8272   19.4771 O   0  0  0  0  0  0  0  0  0  0  0  0
    5.3980    6.5290   20.1700 C   0  0  0  0  0  0  0  0  0  0  0  0
    6.1086    5.7085   19.1207 C   0  0  0  0  0  0  0  0  0  0  0  0
    5.9991    8.7218   18.8362 H   0  0  0  0  0  0  0  0  0  0  0  0
 25 26  1  0  0  0
 26 24  1  0  0  0
 24 23  1  0  0  0
 23 21  1  0  0  0
 21  1  1  0  0  0
  1  2  2  0  0  0
  2  3  1  0  0  0
  3  4  2  0  0  0
  4  5  1  0  0  0
  5 27  1  0  0  0
 27 29  1  0  0  0
 29 30  1  0  0  0
 30 31  1  0  0  0
 31 32  1  0  0  0
 32 33  1  0  0  0
 32 34  1  0  0  0
 34 35  1  0  0  0
  5  6  2  0  0  0
  4  7  1  0  0  0
  7  8  2  0  0  0
  8  9  1  0  0  0
  9 10  2  0  0  0
 10 13  1  0  0  0
 13 14  1  0  0  0
 14 15  1  0  0  0
 15 16  1  0  0  0
 16 17  1  0  0  0
 17 18  1  0  0  0
 17 19  1  0  0  0
 19 20  1  0  0  0
 10 11  1  0  0  0
 11 12  2  0  0  0
  6  1  1  0  0  0
 12  7  1  0  0  0
 35 29  1  0  0  0
 20 14  1  0  0  0
 21 22  1  0  0  0
 27 28  1  0  0  0
 33 36  1  0  0  0
M  END
> <minimizedAffinity>
-7.38816

> <CNNscore>
0.4198157787

> <CNNaffinity>
6.7372832298

> <CNN_VS>
2.8284177780

> <CNNaffinity_variance>
0.4402481914

$$$$
[H]O[C@]1([H])C([H])([H])C([H])([H])[C@@]([H])(N([H])c2nc(N([H])C([H])([H])C([H])([H])C([H])([H])C([H])([H])[H])nc([H])c2-c2nc([H])c(C([H])([H])N3C([H])([H])C([H])([H])N(C([H])([H])[H])C([H])([H])C3([H])[H])c([H])c2[H])C([H])([H])C1([H])[H]


 36 39  0  0  0  0  0  0  0  0999 V2000
    2.8120    1.5462   16.5650 C   0  0  0  0  0  0  0  0  0  0  0  0
    2.8715    1.2121   15.2782 N   0  0  0  0  0  0  0  0  0  0  0  0
    2.7958    2.1567   14.3347 C   0  0  0  0  0  0  0  0  0  0  0  0
    2.6524    3.5012   14.7069 C   0  0  0  0  0  0  0  0  0  0  0  0
    2.5883    3.8571   16.0253 C   0  0  0  0  0  0  0  0  0  0  0  0
    2.6755    2.8228   16.9211 N   0  0  0  0  0  0  0  0  0  0  0  0
    2.5496    4.4784   13.6253 C   0  0  0  0  0  0  0  0  0  0  0  0
    2.7327    4.0143   12.3250 C   0  0  0  0  0  0  0  0  0  0  0  0
    2.6100    4.9029   11.2870 C   0  0  0  0  0  0  0  0  0  0  0  0
    2.3114    6.2186   11.5493 C   0  0  0  0  0  0  0  0  0  0  0  0
    2.1346    6.6541   12.8342 C   0  0  0  0  0  0  0  0  0  0  0  0
    2.2611    5.7678   13.8119 N   0  0  0  0  0  0  0  0  0  0  0  0
    2.1679    7.2226   10.4605 C   0  0  0  0  0  0  0  0  0  0  0  0
    3.4566    7.4972    9.9041 N   0  0  0  0  0  0  0  0  0  0  0  0
    4.5552    7.3731   10.8168 C   0  0  0  0  0  0  0  0  0  0  0  0
    5.7854    7.8495   10.0283 C   0  0  0  0  0  0  0  0  0  0  0  0
    6.1153    6.7841    9.1286 N   0  0  0  0  0  0  0  0  0  0  0  0
    6.9407    5.8300    9.8806 C   0  0  0  0  0  0  0  0  0  0  0  0
    5.0014    6.1506    8.5055 C   0  0  0  0  0  0  0  0  0  0  0  0
    3.6837    6.8115    8.6806 C   0  0  0  0  0  0  0  0  0  0  0  0
    2.8992    0.4949   17.5375 N   0  0  0  0  0  0  0  0  0  0  0  0
    2.7407   -0.5063   17.2532 H   0  0  0  0  0  0  0  0  0  0  0  0
    3.1989    0.7266   18.9194 C   0  0  0  0  0  0  0  0  0  0  0  0
    4.5359    1.3545   19.1789 C   0  0  0  0  0  0  0  0  0  0  0  0
    4.1229    1.9104   21.5491 C   0  0  0  0  0  0  0  0  0  0  0  0
    4.4088    2.4945   20.1791 C   0  0  0  0  0  0  0  0  0  0  0  0
    2.3981    5.1586   16.5378 N   0  0  0  0  0  0  0  0  0  0  0  0
    1.5092    5.6584   16.3763 H   0  0  0  0  0  0  0  0  0  0  0  0
    3.4281    5.8158   17.3198 C   0  0  0  0  0  0  0  0  0  0  0  0
    3.2206    5.7140   18.8103 C   0  0  0  0  0  0  0  0  0  0  0  0
    4.0689    6.8639   19.3922 C   0  0  0  0  0  0  0  0  0  0  0  0
    5.4962    6.5479   19.1172 C   0  0  0  0  0  0  0  0  0  0  0  0
    6.1624    7.7480   18.8206 O   0  0  0  0  0  0  0  0  0  0  0  0
    5.7695    5.4795   18.1253 C   0  0  0  0  0  0  0  0  0  0  0  0
    4.8272    5.4469   16.9462 C   0  0  0  0  0  0  0  0  0  0  0  0
    5.8818    8.1066   17.9396 H   0  0  0  0  0  0  0  0  0  0  0  0
 25 26  1  0  0  0
 26 24  1  0  0  0
 24 23  1  0  0  0
 23 21  1  0  0  0
 21  1  1  0  0  0
  1  2  2  0  0  0
  2  3  1  0  0  0
  3  4  2  0  0  0
  4  5  1  0  0  0
  5 27  1  0  0  0
 27 29  1  0  0  0
 29 30  1  0  0  0
 30 31  1  0  0  0
 31 32  1  0  0  0
 32 33  1  0  0  0
 32 34  1  0  0  0
 34 35  1  0  0  0
  5  6  2  0  0  0
  4  7  1  0  0  0
  7  8  2  0  0  0
  8  9  1  0  0  0
  9 10  2  0  0  0
 10 13  1  0  0  0
 13 14  1  0  0  0
 14 15  1  0  0  0
 15 16  1  0  0  0
 16 17  1  0  0  0
 17 18  1  0  0  0
 17 19  1  0  0  0
 19 20  1  0  0  0
 10 11  1  0  0  0
 11 12  2  0  0  0
  6  1  1  0  0  0
 12  7  1  0  0  0
 35 29  1  0  0  0
 20 14  1  0  0  0
 21 22  1  0  0  0
 27 28  1  0  0  0
 33 36  1  0  0  0
M  END
> <minimizedAffinity>
-6.35786

> <CNNscore>
0.4188472033

> <CNNaffinity>
6.6193976402

> <CNN_VS>
2.7725162506

> <CNNaffinity_variance>
0.2196190655

$$$$
[H]O[C@]1([H])C([H])([H])C([H])([H])[C@@]([H])(N([H])c2nc(N([H])C([H])([H])C([H])([H])C([H])([H])C([H])([H])[H])nc([H])c2-c2nc([H])c(C([H])([H])N3C([H])([H])C([H])([H])N(C([H])([H])[H])C([H])([H])C3([H])[H])c([H])c2[H])C([H])([H])C1([H])[H]


 36 39  0  0  0  0  0  0  0  0999 V2000
    4.4881    2.2834   19.3770 C   0  0  0  0  0  0  0  0  0  0  0  0
    4.6851    1.3128   18.4881 N   0  0  0  0  0  0  0  0  0  0  0  0
    4.3516    1.4979   17.2064 C   0  0  0  0  0  0  0  0  0  0  0  0
    3.7926    2.7191   16.8028 C   0  0  0  0  0  0  0  0  0  0  0  0
    3.5838    3.7234   17.7066 C   0  0  0  0  0  0  0  0  0  0  0  0
    3.9570    3.4444   18.9961 N   0  0  0  0  0  0  0  0  0  0  0  0
    3.4275    2.8444   15.3935 C   0  0  0  0  0  0  0  0  0  0  0  0
    2.5419    1.9021   14.8763 C   0  0  0  0  0  0  0  0  0  0  0  0
    2.1562    2.0137   13.5645 C   0  0  0  0  0  0  0  0  0  0  0  0
    2.6459    3.0429   12.7963 C   0  0  0  0  0  0  0  0  0  0  0  0
    3.5146    3.9588   13.3240 C   0  0  0  0  0  0  0  0  0  0  0  0
    3.8656    3.8195   14.5947 N   0  0  0  0  0  0  0  0  0  0  0  0
    2.2599    3.2089   11.3690 C   0  0  0  0  0  0  0  0  0  0  0  0
    0.8439    3.3924   11.2853 N   0  0  0  0  0  0  0  0  0  0  0  0
    0.3859    4.7298   11.5237 C   0  0  0  0  0  0  0  0  0  0  0  0
   -1.1480    4.6339   11.5179 C   0  0  0  0  0  0  0  0  0  0  0  0
   -1.5308    4.5037   10.1432 N   0  0  0  0  0  0  0  0  0  0  0  0
   -1.5927    5.8613    9.5865 C   0  0  0  0  0  0  0  0  0  0  0  0
   -0.7042    3.6443    9.3629 C   0  0  0  0  0  0  0  0  0  0  0  0
    0.2856    2.8264   10.1078 C   0  0  0  0  0  0  0  0  0  0  0  0
    4.8644    2.0345   20.7390 N   0  0  0  0  0  0  0  0  0  0  0  0
    4.7401    1.0767   21.1579 H   0  0  0  0  0  0  0  0  0  0  0  0
    5.4180    3.0399   21.5969 C   0  0  0  0  0  0  0  0  0  0  0  0
    5.7608    2.5712   22.9796 C   0  0  0  0  0  0  0  0  0  0  0  0
    3.8063    3.9942   23.4817 C   0  0  0  0  0  0  0  0  0  0  0  0
    4.5811    2.7668   23.9209 C   0  0  0  0  0  0  0  0  0  0  0  0
    2.9891    4.9775   17.4492 N   0  0  0  0  0  0  0  0  0  0  0  0
    1.9932    5.0384   17.1839 H   0  0  0  0  0  0  0  0  0  0  0  0
    3.7477    6.2079   17.5726 C   0  0  0  0  0  0  0  0  0  0  0  0
    3.6037    6.8813   18.9145 C   0  0  0  0  0  0  0  0  0  0  0  0
    4.0234    8.3429   18.6539 C   0  0  0  0  0  0  0  0  0  0  0  0
    5.4707    8.3364   18.3104 C   0  0  0  0  0  0  0  0  0  0  0  0
    5.6919    9.3094   17.3224 O   0  0  0  0  0  0  0  0  0  0  0  0
    6.0754    7.0253   17.9704 C   0  0  0  0  0  0  0  0  0  0  0  0
    5.1851    6.0979   17.1788 C   0  0  0  0  0  0  0  0  0  0  0  0
    5.2971    9.0366   16.4545 H   0  0  0  0  0  0  0  0  0  0  0  0
 25 26  1  0  0  0
 26 24  1  0  0  0
 24 23  1  0  0  0
 23 21  1  0  0  0
 21  1  1  0  0  0
  1  2  2  0  0  0
  2  3  1  0  0  0
  3  4  2  0  0  0
  4  5  1  0  0  0
  5 27  1  0  0  0
 27 29  1  0  0  0
 29 30  1  0  0  0
 30 31  1  0  0  0
 31 32  1  0  0  0
 32 33  1  0  0  0
 32 34  1  0  0  0
 34 35  1  0  0  0
  5  6  2  0  0  0
  4  7  1  0  0  0
  7  8  2  0  0  0
  8  9  1  0  0  0
  9 10  2  0  0  0
 10 13  1  0  0  0
 13 14  1  0  0  0
 14 15  1  0  0  0
 15 16  1  0  0  0
 16 17  1  0  0  0
 17 18  1  0  0  0
 17 19  1  0  0  0
 19 20  1  0  0  0
 10 11  1  0  0  0
 11 12  2  0  0  0
  6  1  1  0  0  0
 12  7  1  0  0  0
 35 29  1  0  0  0
 20 14  1  0  0  0
 21 22  1  0  0  0
 27 28  1  0  0  0
 33 36  1  0  0  0
M  END
> <minimizedAffinity>
-7.32308

> <CNNscore>
0.3956127167

> <CNNaffinity>
6.8075742722

> <CNN_VS>
2.6931629181

> <CNNaffinity_variance>
0.3085958958

$$$$
[H]O[C@]1([H])C([H])([H])C([H])([H])[C@@]([H])(N([H])c2nc(N([H])C([H])([H])C([H])([H])C([H])([H])C([H])([H])[H])nc([H])c2-c2nc([H])c(C([H])([H])N3C([H])([H])C([H])([H])N(C([H])([H])[H])C([H])([H])C3([H])[H])c([H])c2[H])C([H])([H])C1([H])[H]


 36 39  0  0  0  0  0  0  0  0999 V2000
    3.3540    1.7976   17.0983 C   0  0  0  0  0  0  0  0  0  0  0  0
    3.2069    1.4694   15.8170 N   0  0  0  0  0  0  0  0  0  0  0  0
    2.8405    2.3951   14.9241 C   0  0  0  0  0  0  0  0  0  0  0  0
    2.6110    3.7134   15.3439 C   0  0  0  0  0  0  0  0  0  0  0  0
    2.7572    4.0628   16.6574 C   0  0  0  0  0  0  0  0  0  0  0  0
    3.1364    3.0493   17.4994 N   0  0  0  0  0  0  0  0  0  0  0  0
    2.1880    4.6676   14.3213 C   0  0  0  0  0  0  0  0  0  0  0  0
    1.3127    4.2075   13.3405 C   0  0  0  0  0  0  0  0  0  0  0  0
    0.8733    5.0896   12.3861 C   0  0  0  0  0  0  0  0  0  0  0  0
    1.3009    6.3955   12.4179 C   0  0  0  0  0  0  0  0  0  0  0  0
    2.1605    6.8276   13.3907 C   0  0  0  0  0  0  0  0  0  0  0  0
    2.5646    5.9476   14.2961 N   0  0  0  0  0  0  0  0  0  0  0  0
    0.8550    7.3918   11.4068 C   0  0  0  0  0  0  0  0  0  0  0  0
    1.5143    7.1262   10.1655 N   0  0  0  0  0  0  0  0  0  0  0  0
    0.6457    6.8401    9.0615 C   0  0  0  0  0  0  0  0  0  0  0  0
    1.5827    6.4572    7.9048 C   0  0  0  0  0  0  0  0  0  0  0  0
    2.1521    7.6852    7.4343 N   0  0  0  0  0  0  0  0  0  0  0  0
    1.1901    8.2680    6.4899 C   0  0  0  0  0  0  0  0  0  0  0  0
    2.5263    8.6089    8.4528 C   0  0  0  0  0  0  0  0  0  0  0  0
    2.4984    8.1003    9.8472 C   0  0  0  0  0  0  0  0  0  0  0  0
    3.7499    0.7675   18.0152 N   0  0  0  0  0  0  0  0  0  0  0  0
    4.0214   -0.1852   17.6589 H   0  0  0  0  0  0  0  0  0  0  0  0
    3.8020    0.9574   19.4345 C   0  0  0  0  0  0  0  0  0  0  0  0
    5.0529    1.6138   19.9382 C   0  0  0  0  0  0  0  0  0  0  0  0
    6.6464    1.3875   21.8109 C   0  0  0  0  0  0  0  0  0  0  0  0
    5.1757    1.4494   21.4462 C   0  0  0  0  0  0  0  0  0  0  0  0
    2.5139    5.3332   17.2228 N   0  0  0  0  0  0  0  0  0  0  0  0
    1.5629    5.7351   17.2137 H   0  0  0  0  0  0  0  0  0  0  0  0
    3.5792    6.0930   17.8491 C   0  0  0  0  0  0  0  0  0  0  0  0
    3.6559    5.9173   19.3451 C   0  0  0  0  0  0  0  0  0  0  0  0
    4.4478    7.1482   19.8329 C   0  0  0  0  0  0  0  0  0  0  0  0
    5.8306    7.0292   19.2977 C   0  0  0  0  0  0  0  0  0  0  0  0
    6.2814    8.3145   18.9560 O   0  0  0  0  0  0  0  0  0  0  0  0
    6.0503    6.0377   18.2166 C   0  0  0  0  0  0  0  0  0  0  0  0
    4.9233    5.9210   17.2188 C   0  0  0  0  0  0  0  0  0  0  0  0
    5.8060    8.6618   18.1579 H   0  0  0  0  0  0  0  0  0  0  0  0
 25 26  1  0  0  0
 26 24  1  0  0  0
 24 23  1  0  0  0
 23 21  1  0  0  0
 21  1  1  0  0  0
  1  2  2  0  0  0
  2  3  1  0  0  0
  3  4  2  0  0  0
  4  5  1  0  0  0
  5 27  1  0  0  0
 27 29  1  0  0  0
 29 30  1  0  0  0
 30 31  1  0  0  0
 31 32  1  0  0  0
 32 33  1  0  0  0
 32 34  1  0  0  0
 34 35  1  0  0  0
  5  6  2  0  0  0
  4  7  1  0  0  0
  7  8  2  0  0  0
  8  9  1  0  0  0
  9 10  2  0  0  0
 10 13  1  0  0  0
 13 14  1  0  0  0
 14 15  1  0  0  0
 15 16  1  0  0  0
 16 17  1  0  0  0
 17 18  1  0  0  0
 17 19  1  0  0  0
 19 20  1  0  0  0
 10 11  1  0  0  0
 11 12  2  0  0  0
  6  1  1  0  0  0
 12  7  1  0  0  0
 35 29  1  0  0  0
 20 14  1  0  0  0
 21 22  1  0  0  0
 27 28  1  0  0  0
 33 36  1  0  0  0
M  END
> <minimizedAffinity>
-6.58242

> <CNNscore>
0.3828943372

> <CNNaffinity>
6.4297204018

> <CNN_VS>
2.4619035721

> <CNNaffinity_variance>
0.2513240874

$$$$
[H]O[C@]1([H])C([H])([H])C([H])([H])[C@@]([H])(N([H])c2nc(N([H])C([H])([H])C([H])([H])C([H])([H])C([H])([H])[H])nc([H])c2-c2nc([H])c(C([H])([H])N3C([H])([H])C([H])([H])N(C([H])([H])[H])C([H])([H])C3([H])[H])c([H])c2[H])C([H])([H])C1([H])[H]


 36 39  0  0  0  0  0  0  0  0999 V2000
    4.7582    2.2171   20.2578 C   0  0  0  0  0  0  0  0  0  0  0  0
    4.5838    1.2986   19.3108 N   0  0  0  0  0  0  0  0  0  0  0  0
    4.1330    1.6557   18.1034 C   0  0  0  0  0  0  0  0  0  0  0  0
    3.8440    3.0025   17.8397 C   0  0  0  0  0  0  0  0  0  0  0  0
    4.0174    3.9552   18.8047 C   0  0  0  0  0  0  0  0  0  0  0  0
    4.4841    3.4971   20.0097 N   0  0  0  0  0  0  0  0  0  0  0  0
    3.3304    3.3191   16.5088 C   0  0  0  0  0  0  0  0  0  0  0  0
    3.6807    2.4625   15.4680 C   0  0  0  0  0  0  0  0  0  0  0  0
    3.1867    2.7167   14.2136 C   0  0  0  0  0  0  0  0  0  0  0  0
    2.3645    3.7996   14.0125 C   0  0  0  0  0  0  0  0  0  0  0  0
    2.0319    4.6285   15.0489 C   0  0  0  0  0  0  0  0  0  0  0  0
    2.5278    4.3525   16.2470 N   0  0  0  0  0  0  0  0  0  0  0  0
    1.8027    4.1200   12.6725 C   0  0  0  0  0  0  0  0  0  0  0  0
    1.7458    5.5406   12.5162 N   0  0  0  0  0  0  0  0  0  0  0  0
    2.8909    6.1325   11.8888 C   0  0  0  0  0  0  0  0  0  0  0  0
    2.6506    7.6485   11.9676 C   0  0  0  0  0  0  0  0  0  0  0  0
    1.6656    7.9451   10.9701 N   0  0  0  0  0  0  0  0  0  0  0  0
    2.3807    8.1035    9.6972 C   0  0  0  0  0  0  0  0  0  0  0  0
    0.6014    7.0026   10.8705 C   0  0  0  0  0  0  0  0  0  0  0  0
    0.5219    5.9815   11.9450 C   0  0  0  0  0  0  0  0  0  0  0  0
    5.2453    1.7818   21.5353 N   0  0  0  0  0  0  0  0  0  0  0  0
    5.3100    0.7548   21.7573 H   0  0  0  0  0  0  0  0  0  0  0  0
    5.6645    2.6855   22.5652 C   0  0  0  0  0  0  0  0  0  0  0  0
    4.7370    2.7779   23.7401 C   0  0  0  0  0  0  0  0  0  0  0  0
    4.4381    5.0918   22.9314 C   0  0  0  0  0  0  0  0  0  0  0  0
    3.7270    3.8987   23.5402 C   0  0  0  0  0  0  0  0  0  0  0  0
    3.7225    5.3311   18.6920 N   0  0  0  0  0  0  0  0  0  0  0  0
    2.7440    5.6592   18.7201 H   0  0  0  0  0  0  0  0  0  0  0  0
    4.7783    6.3170   18.5590 C   0  0  0  0  0  0  0  0  0  0  0  0
    5.0717    7.0721   19.8313 C   0  0  0  0  0  0  0  0  0  0  0  0
    5.7913    8.3518   19.3572 C   0  0  0  0  0  0  0  0  0  0  0  0
    7.0950    7.9392   18.7719 C   0  0  0  0  0  0  0  0  0  0  0  0
    7.3619    8.7651   17.6681 O   0  0  0  0  0  0  0  0  0  0  0  0
    7.2689    6.4982   18.4659 C   0  0  0  0  0  0  0  0  0  0  0  0
    6.0367    5.8049   17.9364 C   0  0  0  0  0  0  0  0  0  0  0  0
    6.7512    8.5644   16.9130 H   0  0  0  0  0  0  0  0  0  0  0  0
 25 26  1  0  0  0
 26 24  1  0  0  0
 24 23  1  0  0  0
 23 21  1  0  0  0
 21  1  1  0  0  0
  1  2  2  0  0  0
  2  3  1  0  0  0
  3  4  2  0  0  0
  4  5  1  0  0  0
  5 27  1  0  0  0
 27 29  1  0  0  0
 29 30  1  0  0  0
 30 31  1  0  0  0
 31 32  1  0  0  0
 32 33  1  0  0  0
 32 34  1  0  0  0
 34 35  1  0  0  0
  5  6  2  0  0  0
  4  7  1  0  0  0
  7  8  2  0  0  0
  8  9  1  0  0  0
  9 10  2  0  0  0
 10 13  1  0  0  0
 13 14  1  0  0  0
 14 15  1  0  0  0
 15 16  1  0  0  0
 16 17  1  0  0  0
 17 18  1  0  0  0
 17 19  1  0  0  0
 19 20  1  0  0  0
 10 11  1  0  0  0
 11 12  2  0  0  0
  6  1  1  0  0  0
 12  7  1  0  0  0
 35 29  1  0  0  0
 20 14  1  0  0  0
 21 22  1  0  0  0
 27 28  1  0  0  0
 33 36  1  0  0  0
M  END
> <minimizedAffinity>
-7.60038

> <CNNscore>
0.3089260757

> <CNNaffinity>
6.6899900436

> <CNN_VS>
2.0667123795

> <CNNaffinity_variance>
0.2395158708

$$$$
[H]O[C@]1([H])C([H])([H])C([H])([H])[C@@]([H])(N([H])c2nc(N([H])C([H])([H])C([H])([H])C([H])([H])C([H])([H])[H])nc([H])c2-c2nc([H])c(C([H])([H])N3C([H])([H])C([H])([H])N(C([H])([H])[H])C([H])([H])C3([H])[H])c([H])c2[H])C([H])([H])C1([H])[H]


 36 39  0  0  0  0  0  0  0  0999 V2000
    4.6271    1.6655   20.4282 C   0  0  0  0  0  0  0  0  0  0  0  0
    3.9259    0.8517   19.6427 N   0  0  0  0  0  0  0  0  0  0  0  0
    3.6866    1.1873   18.3705 C   0  0  0  0  0  0  0  0  0  0  0  0
    4.1770    2.4011   17.8676 C   0  0  0  0  0  0  0  0  0  0  0  0
    4.8973    3.2464   18.6648 C   0  0  0  0  0  0  0  0  0  0  0  0
    5.0939    2.8193   19.9528 N   0  0  0  0  0  0  0  0  0  0  0  0
    3.8567    2.7173   16.4774 C   0  0  0  0  0  0  0  0  0  0  0  0
    3.2983    1.7030   15.7035 C   0  0  0  0  0  0  0  0  0  0  0  0
    2.9576    1.9804   14.4038 C   0  0  0  0  0  0  0  0  0  0  0  0
    3.1715    3.2405   13.8983 C   0  0  0  0  0  0  0  0  0  0  0  0
    3.7207    4.2232   14.6758 C   0  0  0  0  0  0  0  0  0  0  0  0
    4.0379    3.9191   15.9265 N   0  0  0  0  0  0  0  0  0  0  0  0
    2.8205    3.5933   12.4961 C   0  0  0  0  0  0  0  0  0  0  0  0
    1.7961    4.5914   12.5069 N   0  0  0  0  0  0  0  0  0  0  0  0
    1.9574    5.6428   11.5457 C   0  0  0  0  0  0  0  0  0  0  0  0
    0.8291    6.6406   11.8519 C   0  0  0  0  0  0  0  0  0  0  0  0
   -0.3718    6.0480   11.3420 N   0  0  0  0  0  0  0  0  0  0  0  0
   -0.4383    6.3793    9.9127 C   0  0  0  0  0  0  0  0  0  0  0  0
   -0.5012    4.6476   11.5715 C   0  0  0  0  0  0  0  0  0  0  0  0
    0.4884    4.0362   12.4938 C   0  0  0  0  0  0  0  0  0  0  0  0
    4.8570    1.2580   21.7845 N   0  0  0  0  0  0  0  0  0  0  0  0
    5.6666    0.6276   22.0199 H   0  0  0  0  0  0  0  0  0  0  0  0
    4.0274    1.6677   22.8787 C   0  0  0  0  0  0  0  0  0  0  0  0
    4.5573    2.8228   23.6750 C   0  0  0  0  0  0  0  0  0  0  0  0
    4.0156    4.9505   22.5450 C   0  0  0  0  0  0  0  0  0  0  0  0
    3.5839    3.9920   23.6380 C   0  0  0  0  0  0  0  0  0  0  0  0
    5.4068    4.5129   18.3054 N   0  0  0  0  0  0  0  0  0  0  0  0
    5.8878    4.6446   17.4014 H   0  0  0  0  0  0  0  0  0  0  0  0
    5.2490    5.6611   19.1778 C   0  0  0  0  0  0  0  0  0  0  0  0
    6.4184    6.6133   19.1506 C   0  0  0  0  0  0  0  0  0  0  0  0
    6.2885    7.4134   20.4633 C   0  0  0  0  0  0  0  0  0  0  0  0
    5.0472    8.2276   20.3680 C   0  0  0  0  0  0  0  0  0  0  0  0
    4.4470    8.2634   21.6369 O   0  0  0  0  0  0  0  0  0  0  0  0
    4.0913    7.8728   19.2907 C   0  0  0  0  0  0  0  0  0  0  0  0
    3.9563    6.3939   19.0187 C   0  0  0  0  0  0  0  0  0  0  0  0
    4.0676    7.3799   21.8802 H   0  0  0  0  0  0  0  0  0  0  0  0
 25 26  1  0  0  0
 26 24  1  0  0  0
 24 23  1  0  0  0
 23 21  1  0  0  0
 21  1  1  0  0  0
  1  2  2  0  0  0
  2  3  1  0  0  0
  3  4  2  0  0  0
  4  5  1  0  0  0
  5 27  1  0  0  0
 27 29  1  0  0  0
 29 30  1  0  0  0
 30 31  1  0  0  0
 31 32  1  0  0  0
 32 33  1  0  0  0
 32 34  1  0  0  0
 34 35  1  0  0  0
  5  6  2  0  0  0
  4  7  1  0  0  0
  7  8  2  0  0  0
  8  9  1  0  0  0
  9 10  2  0  0  0
 10 13  1  0  0  0
 13 14  1  0  0  0
 14 15  1  0  0  0
 15 16  1  0  0  0
 16 17  1  0  0  0
 17 18  1  0  0  0
 17 19  1  0  0  0
 19 20  1  0  0  0
 10 11  1  0  0  0
 11 12  2  0  0  0
  6  1  1  0  0  0
 12  7  1  0  0  0
 35 29  1  0  0  0
 20 14  1  0  0  0
 21 22  1  0  0  0
 27 28  1  0  0  0
 33 36  1  0  0  0
M  END
> <minimizedAffinity>
-8.77090

> <CNNscore>
0.3075729311

> <CNNaffinity>
6.7436094284

> <CNN_VS>
2.0741517544

> <CNNaffinity_variance>
0.5131327510

$$$$
[H]OC1([H])C([H])([H])C([H])([H])C([H])(N([H])c2nc(N([H])C([H])([H])C([H])([H])C([H])([H])C([H])([H])[H])nc([H])c2-c2nc([H])c(N([H])C(=O)C3([H])C([H])([H])C([H])([H])C3([H])[H])c([H])c2[H])C([H])([H])C1([H])[H]


 36 39  0  0  0  0  0  0  0  0999 V2000
    4.2762    1.6853   19.5549 C   0  0  0  0  0  0  0  0  0  0  0  0
    3.6751    0.8205   18.7369 N   0  0  0  0  0  0  0  0  0  0  0  0
    3.3624    1.0791   17.4653 C   0  0  0  0  0  0  0  0  0  0  0  0
    3.6735    2.3359   16.9202 C   0  0  0  0  0  0  0  0  0  0  0  0
    4.2897    3.2228   17.7544 C   0  0  0  0  0  0  0  0  0  0  0  0
    4.5789    2.8777   19.0605 N   0  0  0  0  0  0  0  0  0  0  0  0
    3.3381    2.5735   15.5291 C   0  0  0  0  0  0  0  0  0  0  0  0
    2.3034    1.8621   14.9180 C   0  0  0  0  0  0  0  0  0  0  0  0
    1.9676    2.0468   13.5690 C   0  0  0  0  0  0  0  0  0  0  0  0
    2.6477    2.9340   12.8098 C   0  0  0  0  0  0  0  0  0  0  0  0
    3.6801    3.6298   13.4548 C   0  0  0  0  0  0  0  0  0  0  0  0
    3.9641    3.4234   14.7344 N   0  0  0  0  0  0  0  0  0  0  0  0
    2.4060    3.2300   11.4690 N   0  0  0  0  0  0  0  0  0  0  0  0
    2.7032    2.3869   10.3900 C   0  0  0  0  0  0  0  0  0  0  0  0
    3.2107    1.2789   10.5222 O   0  0  0  0  0  0  0  0  0  0  0  0
    1.9537    4.1922   11.2261 H   0  0  0  0  0  0  0  0  0  0  0  0
    2.4035    2.8178    8.9790 C   0  0  0  0  0  0  0  0  0  0  0  0
    3.5315    3.5645    8.3023 C   0  0  0  0  0  0  0  0  0  0  0  0
    2.4772    4.5316    7.7613 C   0  0  0  0  0  0  0  0  0  0  0  0
    1.6076    4.1182    8.9409 C   0  0  0  0  0  0  0  0  0  0  0  0
    4.5628    1.3032   20.8957 N   0  0  0  0  0  0  0  0  0  0  0  0
    5.0408    0.3825   21.0488 H   0  0  0  0  0  0  0  0  0  0  0  0
    4.2380    2.0985   22.0408 C   0  0  0  0  0  0  0  0  0  0  0  0
    5.3530    2.9129   22.5962 C   0  0  0  0  0  0  0  0  0  0  0  0
    6.0745    5.0716   21.5516 C   0  0  0  0  0  0  0  0  0  0  0  0
    5.1121    4.4016   22.4889 C   0  0  0  0  0  0  0  0  0  0  0  0
    4.6880    4.5051   17.3095 N   0  0  0  0  0  0  0  0  0  0  0  0
    5.5943    4.7274   16.9197 H   0  0  0  0  0  0  0  0  0  0  0  0
    3.7049    5.6009   17.4445 C   0  0  0  0  0  0  0  0  0  0  0  0
    3.6733    6.0990   18.8526 C   0  0  0  0  0  0  0  0  0  0  0  0
    3.7405    7.6112   18.9305 C   0  0  0  0  0  0  0  0  0  0  0  0
    4.8979    8.1795   18.1715 C   0  0  0  0  0  0  0  0  0  0  0  0
    6.0681    8.0659   18.9446 O   0  0  0  0  0  0  0  0  0  0  0  0
    5.0971    7.5628   16.8168 C   0  0  0  0  0  0  0  0  0  0  0  0
    3.9844    6.6472   16.4163 C   0  0  0  0  0  0  0  0  0  0  0  0
    5.9530    7.3798   19.6454 H   0  0  0  0  0  0  0  0  0  0  0  0
 25 26  1  0  0  0
 26 24  1  0  0  0
 24 23  1  0  0  0
 23 21  1  0  0  0
 21  1  1  0  0  0
  1  2  2  0  0  0
  2  3  1  0  0  0
  3  4  2  0  0  0
  4  5  1  0  0  0
  5 27  1  0  0  0
 27 29  1  0  0  0
 29 30  1  0  0  0
 30 31  1  0  0  0
 31 32  1  0  0  0
 32 33  1  0  0  0
 32 34  1  0  0  0
 34 35  1  0  0  0
  5  6  2  0  0  0
  4  7  1  0  0  0
  7  8  2  0  0  0
  8  9  1  0  0  0
  9 10  2  0  0  0
 10 13  1  0  0  0
 13 14  1  0  0  0
 14 15  2  0  0  0
 14 17  1  0  0  0
 17 18  1  0  0  0
 18 19  1  0  0  0
 19 20  1  0  0  0
 10 11  1  0  0  0
 11 12  2  0  0  0
  6  1  1  0  0  0
 12  7  1  0  0  0
 35 29  1  0  0  0
 20 17  1  0  0  0
 21 22  1  0  0  0
 27 28  1  0  0  0
 33 36  1  0  0  0
 13 16  1  0  0  0
M  END
> <minimizedAffinity>
-6.56231

> <CNNscore>
0.3126992285

> <CNNaffinity>
6.7912359238

> <CNN_VS>
2.1236143112

> <CNNaffinity_variance>
0.3432704806

$$$$
[H]OC1([H])C([H])([H])C([H])([H])C([H])(N([H])c2nc(N([H])C([H])([H])C([H])([H])C([H])([H])C([H])([H])[H])nc([H])c2-c2nc([H])c(N([H])C(=O)C3([H])C([H])([H])C([H])([H])C3([H])[H])c([H])c2[H])C([H])([H])C1([H])[H]


 36 39  0  0  0  0  0  0  0  0999 V2000
    0.6175    4.8555   10.9597 C   0  0  0  0  0  0  0  0  0  0  0  0
    0.1793    3.8263   11.6858 N   0  0  0  0  0  0  0  0  0  0  0  0
    0.7263    3.4295   12.8368 C   0  0  0  0  0  0  0  0  0  0  0  0
    1.8385    4.1201   13.3463 C   0  0  0  0  0  0  0  0  0  0  0  0
    2.2886    5.1745   12.6062 C   0  0  0  0  0  0  0  0  0  0  0  0
    1.6663    5.5214   11.4226 N   0  0  0  0  0  0  0  0  0  0  0  0
    2.3930    3.6738   14.6103 C   0  0  0  0  0  0  0  0  0  0  0  0
    3.0522    2.4461   14.7010 C   0  0  0  0  0  0  0  0  0  0  0  0
    3.5786    1.9707   15.9108 C   0  0  0  0  0  0  0  0  0  0  0  0
    3.4605    2.7002   17.0420 C   0  0  0  0  0  0  0  0  0  0  0  0
    2.7926    3.9265   16.9151 C   0  0  0  0  0  0  0  0  0  0  0  0
    2.3098    4.3378   15.7495 N   0  0  0  0  0  0  0  0  0  0  0  0
    3.9532    2.3581   18.3007 N   0  0  0  0  0  0  0  0  0  0  0  0
    3.6505    1.1779   18.9924 C   0  0  0  0  0  0  0  0  0  0  0  0
    2.9111    0.3077   18.5465 O   0  0  0  0  0  0  0  0  0  0  0  0
    4.6254    3.0572   18.7995 H   0  0  0  0  0  0  0  0  0  0  0  0
    4.2375    0.9189   20.3544 C   0  0  0  0  0  0  0  0  0  0  0  0
    3.2907    0.2467   21.3237 C   0  0  0  0  0  0  0  0  0  0  0  0
    3.7969    1.2204   22.3892 C   0  0  0  0  0  0  0  0  0  0  0  0
    4.1677    2.1547   21.2454 C   0  0  0  0  0  0  0  0  0  0  0  0
   -0.0429    5.1911    9.7443 N   0  0  0  0  0  0  0  0  0  0  0  0
    0.3890    4.8613    8.8474 H   0  0  0  0  0  0  0  0  0  0  0  0
   -1.2556    5.9486    9.6757 C   0  0  0  0  0  0  0  0  0  0  0  0
   -2.0360    5.8020    8.4169 C   0  0  0  0  0  0  0  0  0  0  0  0
   -3.5775    7.6600    7.7510 C   0  0  0  0  0  0  0  0  0  0  0  0
   -3.4318    6.3749    8.5132 C   0  0  0  0  0  0  0  0  0  0  0  0
    3.3759    5.9711   13.0355 N   0  0  0  0  0  0  0  0  0  0  0  0
    4.1983    5.6219   13.5092 H   0  0  0  0  0  0  0  0  0  0  0  0
    3.2868    7.4251   12.7843 C   0  0  0  0  0  0  0  0  0  0  0  0
    3.4129    8.1818   14.0662 C   0  0  0  0  0  0  0  0  0  0  0  0
    4.4015    9.3262   13.9649 C   0  0  0  0  0  0  0  0  0  0  0  0
    5.7371    8.8940   13.4471 C   0  0  0  0  0  0  0  0  0  0  0  0
    6.4811    8.3151   14.4918 O   0  0  0  0  0  0  0  0  0  0  0  0
    5.6600    7.9612   12.2728 C   0  0  0  0  0  0  0  0  0  0  0  0
    4.2742    7.8078   11.7315 C   0  0  0  0  0  0  0  0  0  0  0  0
    5.8831    8.0309   15.2244 H   0  0  0  0  0  0  0  0  0  0  0  0
 25 26  1  0  0  0
 26 24  1  0  0  0
 24 23  1  0  0  0
 23 21  1  0  0  0
 21  1  1  0  0  0
  1  2  2  0  0  0
  2  3  1  0  0  0
  3  4  2  0  0  0
  4  5  1  0  0  0
  5 27  1  0  0  0
 27 29  1  0  0  0
 29 30  1  0  0  0
 30 31  1  0  0  0
 31 32  1  0  0  0
 32 33  1  0  0  0
 32 34  1  0  0  0
 34 35  1  0  0  0
  5  6  2  0  0  0
  4  7  1  0  0  0
  7  8  2  0  0  0
  8  9  1  0  0  0
  9 10  2  0  0  0
 10 13  1  0  0  0
 13 14  1  0  0  0
 14 15  2  0  0  0
 14 17  1  0  0  0
 17 18  1  0  0  0
 18 19  1  0  0  0
 19 20  1  0  0  0
 10 11  1  0  0  0
 11 12  2  0  0  0
  6  1  1  0  0  0
 12  7  1  0  0  0
 35 29  1  0  0  0
 20 17  1  0  0  0
 21 22  1  0  0  0
 27 28  1  0  0  0
 33 36  1  0  0  0
 13 16  1  0  0  0
M  END
> <minimizedAffinity>
-6.66869

> <CNNscore>
0.2840334177

> <CNNaffinity>
6.3204464912

> <CNN_VS>
1.7952179909

> <CNNaffinity_variance>
0.6210455894

$$$$
[H]OC1([H])C([H])([H])C([H])([H])C([H])(N([H])c2nc(N([H])C([H])([H])C([H])([H])C([H])([H])C([H])([H])[H])nc([H])c2-c2nc([H])c(N([H])C(=O)C3([H])C([H])([H])C([H])([H])C3([H])[H])c([H])c2[H])C([H])([H])C1([H])[H]


 36 39  0  0  0  0  0  0  0  0999 V2000
    4.2865    1.7072   19.5329 C   0  0  0  0  0  0  0  0  0  0  0  0
    4.0990    0.9982   18.4191 N   0  0  0  0  0  0  0  0  0  0  0  0
    3.7188    1.5183   17.2502 C   0  0  0  0  0  0  0  0  0  0  0  0
    3.4931    2.9012   17.1512 C   0  0  0  0  0  0  0  0  0  0  0  0
    3.6851    3.6299   18.2889 C   0  0  0  0  0  0  0  0  0  0  0  0
    4.0789    3.0148   19.4615 N   0  0  0  0  0  0  0  0  0  0  0  0
    3.1018    3.4337   15.8598 C   0  0  0  0  0  0  0  0  0  0  0  0
    3.5138    2.8086   14.6811 C   0  0  0  0  0  0  0  0  0  0  0  0
    3.1763    3.3088   13.4152 C   0  0  0  0  0  0  0  0  0  0  0  0
    2.4298    4.4291   13.2989 C   0  0  0  0  0  0  0  0  0  0  0  0
    2.0343    5.0312   14.5018 C   0  0  0  0  0  0  0  0  0  0  0  0
    2.3767    4.5233   15.6790 N   0  0  0  0  0  0  0  0  0  0  0  0
    2.0068    5.0200   12.1090 N   0  0  0  0  0  0  0  0  0  0  0  0
    2.7124    6.0007   11.3994 C   0  0  0  0  0  0  0  0  0  0  0  0
    3.7982    6.4410   11.7597 O   0  0  0  0  0  0  0  0  0  0  0  0
    1.0509    4.7062   11.6880 H   0  0  0  0  0  0  0  0  0  0  0  0
    2.1512    6.5737   10.1253 C   0  0  0  0  0  0  0  0  0  0  0  0
    3.0857    6.4889    8.9390 C   0  0  0  0  0  0  0  0  0  0  0  0
    2.6671    7.9186    8.5921 C   0  0  0  0  0  0  0  0  0  0  0  0
    2.3173    8.0885   10.0643 C   0  0  0  0  0  0  0  0  0  0  0  0
    4.6928    1.0478   20.7271 N   0  0  0  0  0  0  0  0  0  0  0  0
    5.7199    1.0021   20.9337 H   0  0  0  0  0  0  0  0  0  0  0  0
    3.7857    0.4467   21.6571 C   0  0  0  0  0  0  0  0  0  0  0  0
    3.3947    1.2955   22.8154 C   0  0  0  0  0  0  0  0  0  0  0  0
    4.0153    3.6542   23.3844 C   0  0  0  0  0  0  0  0  0  0  0  0
    4.4919    2.2360   23.2598 C   0  0  0  0  0  0  0  0  0  0  0  0
    3.5276    5.0355   18.3044 N   0  0  0  0  0  0  0  0  0  0  0  0
    2.7302    5.5332   17.9313 H   0  0  0  0  0  0  0  0  0  0  0  0
    4.6242    5.8302   18.8971 C   0  0  0  0  0  0  0  0  0  0  0  0
    5.8856    5.6330   18.1214 C   0  0  0  0  0  0  0  0  0  0  0  0
    6.5722    6.9442   17.7949 C   0  0  0  0  0  0  0  0  0  0  0  0
    5.6614    7.9240   17.1248 C   0  0  0  0  0  0  0  0  0  0  0  0
    5.5600    7.6114   15.7566 O   0  0  0  0  0  0  0  0  0  0  0  0
    4.2986    8.0116   17.7497 C   0  0  0  0  0  0  0  0  0  0  0  0
    4.1886    7.2520   19.0334 C   0  0  0  0  0  0  0  0  0  0  0  0
    5.8291    6.6750   15.5961 H   0  0  0  0  0  0  0  0  0  0  0  0
 25 26  1  0  0  0
 26 24  1  0  0  0
 24 23  1  0  0  0
 23 21  1  0  0  0
 21  1  1  0  0  0
  1  2  2  0  0  0
  2  3  1  0  0  0
  3  4  2  0  0  0
  4  5  1  0  0  0
  5 27  1  0  0  0
 27 29  1  0  0  0
 29 30  1  0  0  0
 30 31  1  0  0  0
 31 32  1  0  0  0
 32 33  1  0  0  0
 32 34  1  0  0  0
 34 35  1  0  0  0
  5  6  2  0  0  0
  4  7  1  0  0  0
  7  8  2  0  0  0
  8  9  1  0  0  0
  9 10  2  0  0  0
 10 13  1  0  0  0
 13 14  1  0  0  0
 14 15  2  0  0  0
 14 17  1  0  0  0
 17 18  1  0  0  0
 18 19  1  0  0  0
 19 20  1  0  0  0
 10 11  1  0  0  0
 11 12  2  0  0  0
  6  1  1  0  0  0
 12  7  1  0  0  0
 35 29  1  0  0  0
 20 17  1  0  0  0
 21 22  1  0  0  0
 27 28  1  0  0  0
 33 36  1  0  0  0
 13 16  1  0  0  0
M  END
> <minimizedAffinity>
-7.08210

> <CNNscore>
0.2488984913

> <CNNaffinity>
6.6483979225

> <CNN_VS>
1.6547762156

> <CNNaffinity_variance>
0.3797039688

$$$$
[H]OC1([H])C([H])([H])C([H])([H])C([H])(N([H])c2nc(N([H])C([H])([H])C([H])([H])C([H])([H])C([H])([H])[H])nc([H])c2-c2nc([H])c(N([H])C(=O)C3([H])C([H])([H])C([H])([H])C3([H])[H])c([H])c2[H])C([H])([H])C1([H])[H]


 36 39  0  0  0  0  0  0  0  0999 V2000
    4.3120    1.9229   18.2779 C   0  0  0  0  0  0  0  0  0  0  0  0
    3.6015    1.0254   17.5936 N   0  0  0  0  0  0  0  0  0  0  0  0
    3.1553    1.2084   16.3491 C   0  0  0  0  0  0  0  0  0  0  0  0
    3.4352    2.4148   15.6861 C   0  0  0  0  0  0  0  0  0  0  0  0
    4.1630    3.3349   16.3832 C   0  0  0  0  0  0  0  0  0  0  0  0
    4.5876    3.0688   17.6706 N   0  0  0  0  0  0  0  0  0  0  0  0
    2.9524    2.5695   14.3270 C   0  0  0  0  0  0  0  0  0  0  0  0
    1.8066    1.8948   13.9007 C   0  0  0  0  0  0  0  0  0  0  0  0
    1.3250    2.0002   12.5879 C   0  0  0  0  0  0  0  0  0  0  0  0
    1.9675    2.7712   11.6831 C   0  0  0  0  0  0  0  0  0  0  0  0
    3.1142    3.4332   12.1444 C   0  0  0  0  0  0  0  0  0  0  0  0
    3.5347    3.3049   13.3965 N   0  0  0  0  0  0  0  0  0  0  0  0
    1.5876    2.9806   10.3581 N   0  0  0  0  0  0  0  0  0  0  0  0
    0.6303    3.9100    9.9302 C   0  0  0  0  0  0  0  0  0  0  0  0
    0.0236    4.6513   10.6952 O   0  0  0  0  0  0  0  0  0  0  0  0
    2.0622    2.3773    9.5834 H   0  0  0  0  0  0  0  0  0  0  0  0
    0.2948    4.0429    8.4686 C   0  0  0  0  0  0  0  0  0  0  0  0
   -0.1232    2.7497    7.8049 C   0  0  0  0  0  0  0  0  0  0  0  0
    0.7516    3.1546    6.6172 C   0  0  0  0  0  0  0  0  0  0  0  0
    1.5447    4.0105    7.5954 C   0  0  0  0  0  0  0  0  0  0  0  0
    4.7369    1.6223   19.6026 N   0  0  0  0  0  0  0  0  0  0  0  0
    5.3619    0.7911   19.7376 H   0  0  0  0  0  0  0  0  0  0  0  0
    4.3627    2.3847   20.7549 C   0  0  0  0  0  0  0  0  0  0  0  0
    5.3451    3.4131   21.1935 C   0  0  0  0  0  0  0  0  0  0  0  0
    3.8324    5.2653   20.4496 C   0  0  0  0  0  0  0  0  0  0  0  0
    4.7025    4.7340   21.5516 C   0  0  0  0  0  0  0  0  0  0  0  0
    4.5414    4.5707   15.8082 N   0  0  0  0  0  0  0  0  0  0  0  0
    5.2789    4.6909   15.1268 H   0  0  0  0  0  0  0  0  0  0  0  0
    3.8098    5.7747   16.2560 C   0  0  0  0  0  0  0  0  0  0  0  0
    4.7342    6.7094   16.9657 C   0  0  0  0  0  0  0  0  0  0  0  0
    4.5965    8.1375   16.4771 C   0  0  0  0  0  0  0  0  0  0  0  0
    4.7270    8.2566   14.9914 C   0  0  0  0  0  0  0  0  0  0  0  0
    6.0887    8.2437   14.6368 O   0  0  0  0  0  0  0  0  0  0  0  0
    3.9721    7.2056   14.2294 C   0  0  0  0  0  0  0  0  0  0  0  0
    3.0828    6.3729   15.0970 C   0  0  0  0  0  0  0  0  0  0  0  0
    6.6302    7.8507   15.3630 H   0  0  0  0  0  0  0  0  0  0  0  0
 25 26  1  0  0  0
 26 24  1  0  0  0
 24 23  1  0  0  0
 23 21  1  0  0  0
 21  1  1  0  0  0
  1  2  2  0  0  0
  2  3  1  0  0  0
  3  4  2  0  0  0
  4  5  1  0  0  0
  5 27  1  0  0  0
 27 29  1  0  0  0
 29 30  1  0  0  0
 30 31  1  0  0  0
 31 32  1  0  0  0
 32 33  1  0  0  0
 32 34  1  0  0  0
 34 35  1  0  0  0
  5  6  2  0  0  0
  4  7  1  0  0  0
  7  8  2  0  0  0
  8  9  1  0  0  0
  9 10  2  0  0  0
 10 13  1  0  0  0
 13 14  1  0  0  0
 14 15  2  0  0  0
 14 17  1  0  0  0
 17 18  1  0  0  0
 18 19  1  0  0  0
 19 20  1  0  0  0
 10 11  1  0  0  0
 11 12  2  0  0  0
  6  1  1  0  0  0
 12  7  1  0  0  0
 35 29  1  0  0  0
 20 17  1  0  0  0
 21 22  1  0  0  0
 27 28  1  0  0  0
 33 36  1  0  0  0
 13 16  1  0  0  0
M  END
> <minimizedAffinity>
-6.19856

> <CNNscore>
0.2473145723

> <CNNaffinity>
6.5395307541

> <CNN_VS>
1.6173212528

> <CNNaffinity_variance>
0.4461719096

$$$$
[H]OC1([H])C([H])([H])C([H])([H])C([H])(N([H])c2nc(N([H])C([H])([H])C([H])([H])C([H])([H])C([H])([H])[H])nc([H])c2-c2nc([H])c(N([H])C(=O)C3([H])C([H])([H])C([H])([H])C3([H])[H])c([H])c2[H])C([H])([H])C1([H])[H]


 36 39  0  0  0  0  0  0  0  0999 V2000
    4.9799    1.7009   20.2527 C   0  0  0  0  0  0  0  0  0  0  0  0
    4.2405    0.9832   19.4062 N   0  0  0  0  0  0  0  0  0  0  0  0
    3.7500    1.4470   18.2548 C   0  0  0  0  0  0  0  0  0  0  0  0
    4.0113    2.7750   17.8787 C   0  0  0  0  0  0  0  0  0  0  0  0
    4.7685    3.5119   18.7423 C   0  0  0  0  0  0  0  0  0  0  0  0
    5.2386    2.9572   19.9170 N   0  0  0  0  0  0  0  0  0  0  0  0
    3.4801    3.2378   16.6107 C   0  0  0  0  0  0  0  0  0  0  0  0
    3.6679    2.4882   15.4476 C   0  0  0  0  0  0  0  0  0  0  0  0
    3.1909    2.9161   14.2003 C   0  0  0  0  0  0  0  0  0  0  0  0
    2.5244    4.0861   14.0872 C   0  0  0  0  0  0  0  0  0  0  0  0
    2.3546    4.8133   15.2740 C   0  0  0  0  0  0  0  0  0  0  0  0
    2.8230    4.3704   16.4338 N   0  0  0  0  0  0  0  0  0  0  0  0
    1.9810    4.6177   12.9184 N   0  0  0  0  0  0  0  0  0  0  0  0
    0.7197    4.2998   12.3975 C   0  0  0  0  0  0  0  0  0  0  0  0
   -0.0497    3.5102   12.9333 O   0  0  0  0  0  0  0  0  0  0  0  0
    2.5755    5.3360   12.3528 H   0  0  0  0  0  0  0  0  0  0  0  0
    0.2399    4.9330   11.1187 C   0  0  0  0  0  0  0  0  0  0  0  0
   -0.1533    6.3874   11.2524 C   0  0  0  0  0  0  0  0  0  0  0  0
   -1.3697    6.0692   10.3814 C   0  0  0  0  0  0  0  0  0  0  0  0
   -1.2305    4.6280   10.8527 C   0  0  0  0  0  0  0  0  0  0  0  0
    5.4514    1.1040   21.4558 N   0  0  0  0  0  0  0  0  0  0  0  0
    5.2968    0.0746   21.5826 H   0  0  0  0  0  0  0  0  0  0  0  0
    6.1207    1.8235   22.4967 C   0  0  0  0  0  0  0  0  0  0  0  0
    5.2424    2.3836   23.5596 C   0  0  0  0  0  0  0  0  0  0  0  0
    3.3888    4.0451   23.2852 C   0  0  0  0  0  0  0  0  0  0  0  0
    4.8742    3.8310   23.3244 C   0  0  0  0  0  0  0  0  0  0  0  0
    5.1317    4.8485   18.4549 N   0  0  0  0  0  0  0  0  0  0  0  0
    5.5678    5.1586   17.5969 H   0  0  0  0  0  0  0  0  0  0  0  0
    4.8658    5.8590   19.5007 C   0  0  0  0  0  0  0  0  0  0  0  0
    6.1090    6.6291   19.8059 C   0  0  0  0  0  0  0  0  0  0  0  0
    5.8684    8.1254   19.8303 C   0  0  0  0  0  0  0  0  0  0  0  0
    5.2023    8.6255   18.5874 C   0  0  0  0  0  0  0  0  0  0  0  0
    6.1608    8.7743   17.5680 O   0  0  0  0  0  0  0  0  0  0  0  0
    4.0633    7.7651   18.1208 C   0  0  0  0  0  0  0  0  0  0  0  0
    3.6952    6.6938   19.0974 C   0  0  0  0  0  0  0  0  0  0  0  0
    6.9651    8.2382   17.7702 H   0  0  0  0  0  0  0  0  0  0  0  0
 25 26  1  0  0  0
 26 24  1  0  0  0
 24 23  1  0  0  0
 23 21  1  0  0  0
 21  1  1  0  0  0
  1  2  2  0  0  0
  2  3  1  0  0  0
  3  4  2  0  0  0
  4  5  1  0  0  0
  5 27  1  0  0  0
 27 29  1  0  0  0
 29 30  1  0  0  0
 30 31  1  0  0  0
 31 32  1  0  0  0
 32 33  1  0  0  0
 32 34  1  0  0  0
 34 35  1  0  0  0
  5  6  2  0  0  0
  4  7  1  0  0  0
  7  8  2  0  0  0
  8  9  1  0  0  0
  9 10  2  0  0  0
 10 13  1  0  0  0
 13 14  1  0  0  0
 14 15  2  0  0  0
 14 17  1  0  0  0
 17 18  1  0  0  0
 18 19  1  0  0  0
 19 20  1  0  0  0
 10 11  1  0  0  0
 11 12  2  0  0  0
  6  1  1  0  0  0
 12  7  1  0  0  0
 35 29  1  0  0  0
 20 17  1  0  0  0
 21 22  1  0  0  0
 27 28  1  0  0  0
 33 36  1  0  0  0
 13 16  1  0  0  0
M  END
> <minimizedAffinity>
-7.30704

> <CNNscore>
0.2154217809

> <CNNaffinity>
6.4644455910

> <CNN_VS>
1.3925824165

> <CNNaffinity_variance>
0.2922710776

$$$$
[H]OC1([H])C([H])([H])C([H])([H])C([H])(N([H])c2nc(N([H])C([H])([H])C([H])([H])C([H])([H])C([H])([H])[H])nc([H])c2-c2nc([H])c(N([H])C(=O)C3([H])C([H])([H])C([H])([H])C3([H])[H])c([H])c2[H])C([H])([H])C1([H])[H]


 36 39  0  0  0  0  0  0  0  0999 V2000
    4.4918    2.1070   20.1054 C   0  0  0  0  0  0  0  0  0  0  0  0
    4.2968    1.2893   19.0701 N   0  0  0  0  0  0  0  0  0  0  0  0
    3.8858    1.6862   17.8638 C   0  0  0  0  0  0  0  0  0  0  0  0
    3.6330    3.0490   17.6349 C   0  0  0  0  0  0  0  0  0  0  0  0
    3.8325    3.8885   18.6921 C   0  0  0  0  0  0  0  0  0  0  0  0
    4.2590    3.3977   19.9110 N   0  0  0  0  0  0  0  0  0  0  0  0
    3.2083    3.4460   16.3059 C   0  0  0  0  0  0  0  0  0  0  0  0
    3.5594    2.6810   15.1916 C   0  0  0  0  0  0  0  0  0  0  0  0
    3.1885    3.0472   13.8897 C   0  0  0  0  0  0  0  0  0  0  0  0
    2.4686    4.1700   13.6736 C   0  0  0  0  0  0  0  0  0  0  0  0
    2.1344    4.9143   14.8139 C   0  0  0  0  0  0  0  0  0  0  0  0
    2.5065    4.5305   16.0284 N   0  0  0  0  0  0  0  0  0  0  0  0
    2.0176    4.6374   12.4398 N   0  0  0  0  0  0  0  0  0  0  0  0
    0.7022    4.5322   11.9687 C   0  0  0  0  0  0  0  0  0  0  0  0
   -0.2030    4.0129   12.6118 O   0  0  0  0  0  0  0  0  0  0  0  0
    2.7358    5.1217   11.7772 H   0  0  0  0  0  0  0  0  0  0  0  0
    0.3319    5.0683   10.6115 C   0  0  0  0  0  0  0  0  0  0  0  0
   -0.4580    6.3579   10.6449 C   0  0  0  0  0  0  0  0  0  0  0  0
   -1.3460    5.7640    9.5502 C   0  0  0  0  0  0  0  0  0  0  0  0
   -0.9187    4.3934   10.0579 C   0  0  0  0  0  0  0  0  0  0  0  0
    4.9319    1.5744   21.3498 N   0  0  0  0  0  0  0  0  0  0  0  0
    5.8661    1.0986   21.3735 H   0  0  0  0  0  0  0  0  0  0  0  0
    4.1774    1.6502   22.5639 C   0  0  0  0  0  0  0  0  0  0  0  0
    4.6582    2.6463   23.5596 C   0  0  0  0  0  0  0  0  0  0  0  0
    4.5024    5.0328   22.8167 C   0  0  0  0  0  0  0  0  0  0  0  0
    3.8395    3.9172   23.5715 C   0  0  0  0  0  0  0  0  0  0  0  0
    3.6496    5.2862   18.5736 N   0  0  0  0  0  0  0  0  0  0  0  0
    2.7599    5.7435   18.4256 H   0  0  0  0  0  0  0  0  0  0  0  0
    4.8582    6.1335   18.6560 C   0  0  0  0  0  0  0  0  0  0  0  0
    5.2770    6.5740   17.2913 C   0  0  0  0  0  0  0  0  0  0  0  0
    5.5638    8.0610   17.2285 C   0  0  0  0  0  0  0  0  0  0  0  0
    4.4350    8.8914   17.7527 C   0  0  0  0  0  0  0  0  0  0  0  0
    3.4450    9.0184   16.7608 O   0  0  0  0  0  0  0  0  0  0  0  0
    3.8404    8.3708   19.0297 C   0  0  0  0  0  0  0  0  0  0  0  0
    4.6206    7.2431   19.6267 C   0  0  0  0  0  0  0  0  0  0  0  0
    3.5410    8.3051   16.0847 H   0  0  0  0  0  0  0  0  0  0  0  0
 25 26  1  0  0  0
 26 24  1  0  0  0
 24 23  1  0  0  0
 23 21  1  0  0  0
 21  1  1  0  0  0
  1  2  2  0  0  0
  2  3  1  0  0  0
  3  4  2  0  0  0
  4  5  1  0  0  0
  5 27  1  0  0  0
 27 29  1  0  0  0
 29 30  1  0  0  0
 30 31  1  0  0  0
 31 32  1  0  0  0
 32 33  1  0  0  0
 32 34  1  0  0  0
 34 35  1  0  0  0
  5  6  2  0  0  0
  4  7  1  0  0  0
  7  8  2  0  0  0
  8  9  1  0  0  0
  9 10  2  0  0  0
 10 13  1  0  0  0
 13 14  1  0  0  0
 14 15  2  0  0  0
 14 17  1  0  0  0
 17 18  1  0  0  0
 18 19  1  0  0  0
 19 20  1  0  0  0
 10 11  1  0  0  0
 11 12  2  0  0  0
  6  1  1  0  0  0
 12  7  1  0  0  0
 35 29  1  0  0  0
 20 17  1  0  0  0
 21 22  1  0  0  0
 27 28  1  0  0  0
 33 36  1  0  0  0
 13 16  1  0  0  0
M  END
> <minimizedAffinity>
-7.64196

> <CNNscore>
0.2031042129

> <CNNaffinity>
6.6335625648

> <CNN_VS>
1.3473044634

> <CNNaffinity_variance>
0.5516041517

$$$$
[H]OC1([H])C([H])([H])C([H])([H])C([H])(N([H])c2nc(N([H])C([H])([H])C([H])([H])C([H])([H])C([H])([H])[H])nc([H])c2-c2nc([H])c(N([H])C(=O)C3([H])C([H])([H])C([H])([H])C3([H])[H])c([H])c2[H])C([H])([H])C1([H])[H]


 36 39  0  0  0  0  0  0  0  0999 V2000
    4.9394    2.7954   18.9067 C   0  0  0  0  0  0  0  0  0  0  0  0
    4.1867    1.7955   18.4463 N   0  0  0  0  0  0  0  0  0  0  0  0
    3.6319    1.7675   17.2327 C   0  0  0  0  0  0  0  0  0  0  0  0
    3.8345    2.8465   16.3564 C   0  0  0  0  0  0  0  0  0  0  0  0
    4.6052    3.8709   16.8241 C   0  0  0  0  0  0  0  0  0  0  0  0
    5.1435    3.8241   18.0956 N   0  0  0  0  0  0  0  0  0  0  0  0
    3.2339    2.7715   15.0380 C   0  0  0  0  0  0  0  0  0  0  0  0
    2.1163    1.9650   14.8132 C   0  0  0  0  0  0  0  0  0  0  0  0
    1.5245    1.8480   13.5473 C   0  0  0  0  0  0  0  0  0  0  0  0
    2.0280    2.5243   12.4914 C   0  0  0  0  0  0  0  0  0  0  0  0
    3.1502    3.3234   12.7525 C   0  0  0  0  0  0  0  0  0  0  0  0
    3.6783    3.4049   13.9671 N   0  0  0  0  0  0  0  0  0  0  0  0
    1.5278    2.5154   11.1900 N   0  0  0  0  0  0  0  0  0  0  0  0
    0.4851    3.3250   10.7205 C   0  0  0  0  0  0  0  0  0  0  0  0
   -0.0989    4.1435   11.4218 O   0  0  0  0  0  0  0  0  0  0  0  0
    1.9714    1.8256   10.4711 H   0  0  0  0  0  0  0  0  0  0  0  0
    0.0222    3.2221    9.2916 C   0  0  0  0  0  0  0  0  0  0  0  0
   -0.5788    1.8831    8.9260 C   0  0  0  0  0  0  0  0  0  0  0  0
    0.2099    1.9618    7.6178 C   0  0  0  0  0  0  0  0  0  0  0  0
    1.1721    2.8901    8.3464 C   0  0  0  0  0  0  0  0  0  0  0  0
    5.4818    2.7208   20.2206 N   0  0  0  0  0  0  0  0  0  0  0  0
    6.1541    3.4702   20.5139 H   0  0  0  0  0  0  0  0  0  0  0  0
    5.1644    1.6879   21.1594 C   0  0  0  0  0  0  0  0  0  0  0  0
    3.9958    1.9561   22.0412 C   0  0  0  0  0  0  0  0  0  0  0  0
    3.3224   -0.2927   21.1687 C   0  0  0  0  0  0  0  0  0  0  0  0
    3.1009    0.7514   22.2245 C   0  0  0  0  0  0  0  0  0  0  0  0
    4.9131    4.9937   16.0207 N   0  0  0  0  0  0  0  0  0  0  0  0
    5.5421    4.9844   15.2289 H   0  0  0  0  0  0  0  0  0  0  0  0
    4.2763    6.2774   16.3838 C   0  0  0  0  0  0  0  0  0  0  0  0
    5.3160    7.2916   16.7338 C   0  0  0  0  0  0  0  0  0  0  0  0
    5.0822    8.6191   16.0407 C   0  0  0  0  0  0  0  0  0  0  0  0
    4.9259    8.4797   14.5593 C   0  0  0  0  0  0  0  0  0  0  0  0
    6.1947    8.3664   13.9615 O   0  0  0  0  0  0  0  0  0  0  0  0
    4.0431    7.3370   14.1468 C   0  0  0  0  0  0  0  0  0  0  0  0
    3.3390    6.6908   15.2973 C   0  0  0  0  0  0  0  0  0  0  0  0
    6.8665    8.0869   14.6292 H   0  0  0  0  0  0  0  0  0  0  0  0
 25 26  1  0  0  0
 26 24  1  0  0  0
 24 23  1  0  0  0
 23 21  1  0  0  0
 21  1  1  0  0  0
  1  2  2  0  0  0
  2  3  1  0  0  0
  3  4  2  0  0  0
  4  5  1  0  0  0
  5 27  1  0  0  0
 27 29  1  0  0  0
 29 30  1  0  0  0
 30 31  1  0  0  0
 31 32  1  0  0  0
 32 33  1  0  0  0
 32 34  1  0  0  0
 34 35  1  0  0  0
  5  6  2  0  0  0
  4  7  1  0  0  0
  7  8  2  0  0  0
  8  9  1  0  0  0
  9 10  2  0  0  0
 10 13  1  0  0  0
 13 14  1  0  0  0
 14 15  2  0  0  0
 14 17  1  0  0  0
 17 18  1  0  0  0
 18 19  1  0  0  0
 19 20  1  0  0  0
 10 11  1  0  0  0
 11 12  2  0  0  0
  6  1  1  0  0  0
 12  7  1  0  0  0
 35 29  1  0  0  0
 20 17  1  0  0  0
 21 22  1  0  0  0
 27 28  1  0  0  0
 33 36  1  0  0  0
 13 16  1  0  0  0
M  END
> <minimizedAffinity>
-6.67126

> <CNNscore>
0.2008532882

> <CNNaffinity>
6.4157547951

> <CNN_VS>
1.2886254787

> <CNNaffinity_variance>
0.1500646621

$$$$
[H]OC1([H])C([H])([H])C([H])([H])C([H])(N([H])c2nc(N([H])C([H])([H])C([H])([H])C([H])([H])C([H])([H])[H])nc([H])c2-c2nc([H])c(N([H])C(=O)C3([H])C([H])([H])C([H])([H])C3([H])[H])c([H])c2[H])C([H])([H])C1([H])[H]


 36 39  0  0  0  0  0  0  0  0999 V2000
    4.7593    1.6880   20.2428 C   0  0  0  0  0  0  0  0  0  0  0  0
    3.9207    0.9513   19.5131 N   0  0  0  0  0  0  0  0  0  0  0  0
    3.5820    1.2233   18.2511 C   0  0  0  0  0  0  0  0  0  0  0  0
    4.1271    2.3530   17.6187 C   0  0  0  0  0  0  0  0  0  0  0  0
    4.9865    3.1085   18.3622 C   0  0  0  0  0  0  0  0  0  0  0  0
    5.2855    2.7590   19.6649 N   0  0  0  0  0  0  0  0  0  0  0  0
    3.7528    2.6051   16.2400 C   0  0  0  0  0  0  0  0  0  0  0  0
    3.0691    1.6361   15.5027 C   0  0  0  0  0  0  0  0  0  0  0  0
    2.7134    1.8344   14.1608 C   0  0  0  0  0  0  0  0  0  0  0  0
    3.0278    2.9889   13.5330 C   0  0  0  0  0  0  0  0  0  0  0  0
    3.7146    3.9389   14.3023 C   0  0  0  0  0  0  0  0  0  0  0  0
    4.0315    3.7093   15.5702 N   0  0  0  0  0  0  0  0  0  0  0  0
    2.7177    3.3237   12.2156 N   0  0  0  0  0  0  0  0  0  0  0  0
    1.4879    3.8354   11.7809 C   0  0  0  0  0  0  0  0  0  0  0  0
    0.5446    4.0497   12.5339 O   0  0  0  0  0  0  0  0  0  0  0  0
    3.4824    3.1770   11.4519 H   0  0  0  0  0  0  0  0  0  0  0  0
    1.2644    4.1540   10.3266 C   0  0  0  0  0  0  0  0  0  0  0  0
    0.4212    3.1382    9.5883 C   0  0  0  0  0  0  0  0  0  0  0  0
    1.4156    3.2527    8.4318 C   0  0  0  0  0  0  0  0  0  0  0  0
    2.4395    3.7092    9.4622 C   0  0  0  0  0  0  0  0  0  0  0  0
    5.0500    1.3046   21.5823 N   0  0  0  0  0  0  0  0  0  0  0  0
    5.2458    0.2912   21.7679 H   0  0  0  0  0  0  0  0  0  0  0  0
    5.0901    2.2170   22.6846 C   0  0  0  0  0  0  0  0  0  0  0  0
    3.8129    2.9191   22.9861 C   0  0  0  0  0  0  0  0  0  0  0  0
    3.9173    5.2365   22.0423 C   0  0  0  0  0  0  0  0  0  0  0  0
    3.9989    4.3905   23.2798 C   0  0  0  0  0  0  0  0  0  0  0  0
    5.6294    4.2472   17.8228 N   0  0  0  0  0  0  0  0  0  0  0  0
    6.1407    4.2648   16.9504 H   0  0  0  0  0  0  0  0  0  0  0  0
    5.5584    5.4971   18.6088 C   0  0  0  0  0  0  0  0  0  0  0  0
    6.7361    6.3660   18.3092 C   0  0  0  0  0  0  0  0  0  0  0  0
    6.3369    7.8010   18.0285 C   0  0  0  0  0  0  0  0  0  0  0  0
    5.2862    7.9135   16.9693 C   0  0  0  0  0  0  0  0  0  0  0  0
    5.8852    7.8091   15.7003 O   0  0  0  0  0  0  0  0  0  0  0  0
    4.1717    6.9171   17.1115 C   0  0  0  0  0  0  0  0  0  0  0  0
    4.2307    6.1450   18.3911 C   0  0  0  0  0  0  0  0  0  0  0  0
    6.7714    7.3792   15.7718 H   0  0  0  0  0  0  0  0  0  0  0  0
 25 26  1  0  0  0
 26 24  1  0  0  0
 24 23  1  0  0  0
 23 21  1  0  0  0
 21  1  1  0  0  0
  1  2  2  0  0  0
  2  3  1  0  0  0
  3  4  2  0  0  0
  4  5  1  0  0  0
  5 27  1  0  0  0
 27 29  1  0  0  0
 29 30  1  0  0  0
 30 31  1  0  0  0
 31 32  1  0  0  0
 32 33  1  0  0  0
 32 34  1  0  0  0
 34 35  1  0  0  0
  5  6  2  0  0  0
  4  7  1  0  0  0
  7  8  2  0  0  0
  8  9  1  0  0  0
  9 10  2  0  0  0
 10 13  1  0  0  0
 13 14  1  0  0  0
 14 15  2  0  0  0
 14 17  1  0  0  0
 17 18  1  0  0  0
 18 19  1  0  0  0
 19 20  1  0  0  0
 10 11  1  0  0  0
 11 12  2  0  0  0
  6  1  1  0  0  0
 12  7  1  0  0  0
 35 29  1  0  0  0
 20 17  1  0  0  0
 21 22  1  0  0  0
 27 28  1  0  0  0
 33 36  1  0  0  0
 13 16  1  0  0  0
M  END
> <minimizedAffinity>
-7.38772

> <CNNscore>
0.1839701235

> <CNNaffinity>
6.4717788696

> <CNN_VS>
1.1906139851

> <CNNaffinity_variance>
0.3464020491

$$$$
[H]OC1([H])C([H])([H])C([H])([H])C([H])(N([H])c2nc(N([H])C([H])([H])C([H])([H])C([H])([H])C([H])([H])[H])nc([H])c2-c2nc([H])c(N([H])C(=O)C3([H])C([H])([H])C([H])([H])C3([H])[H])c([H])c2[H])C([H])([H])C1([H])[H]


 36 39  0  0  0  0  0  0  0  0999 V2000
    0.5991    4.6469   12.2407 C   0  0  0  0  0  0  0  0  0  0  0  0
    0.9081    3.4154   12.6485 N   0  0  0  0  0  0  0  0  0  0  0  0
    1.6106    3.1407   13.7497 C   0  0  0  0  0  0  0  0  0  0  0  0
    2.0701    4.1954   14.5559 C   0  0  0  0  0  0  0  0  0  0  0  0
    1.7547    5.4568   14.1418 C   0  0  0  0  0  0  0  0  0  0  0  0
    1.0230    5.6572   12.9873 N   0  0  0  0  0  0  0  0  0  0  0  0
    2.8119    3.8580   15.7560 C   0  0  0  0  0  0  0  0  0  0  0  0
    3.6889    2.7713   15.7651 C   0  0  0  0  0  0  0  0  0  0  0  0
    4.4033    2.4002   16.9134 C   0  0  0  0  0  0  0  0  0  0  0  0
    4.2605    3.0960   18.0628 C   0  0  0  0  0  0  0  0  0  0  0  0
    3.3719    4.1797   18.0184 C   0  0  0  0  0  0  0  0  0  0  0  0
    2.7158    4.4958   16.9091 N   0  0  0  0  0  0  0  0  0  0  0  0
    4.9223    2.8498   19.2651 N   0  0  0  0  0  0  0  0  0  0  0  0
    4.6242    1.8065   20.1515 C   0  0  0  0  0  0  0  0  0  0  0  0
    3.7366    0.9854   19.9497 O   0  0  0  0  0  0  0  0  0  0  0  0
    5.7358    3.5168   19.5526 H   0  0  0  0  0  0  0  0  0  0  0  0
    5.4043    1.6431   21.4287 C   0  0  0  0  0  0  0  0  0  0  0  0
    4.5686    1.7372   22.6859 C   0  0  0  0  0  0  0  0  0  0  0  0
    5.6860    2.5932   23.2843 C   0  0  0  0  0  0  0  0  0  0  0  0
    6.0730    2.9460   21.8545 C   0  0  0  0  0  0  0  0  0  0  0  0
   -0.1563    4.8244   11.0475 N   0  0  0  0  0  0  0  0  0  0  0  0
    0.2021    4.3727   10.1716 H   0  0  0  0  0  0  0  0  0  0  0  0
   -1.3701    5.5797   10.9742 C   0  0  0  0  0  0  0  0  0  0  0  0
   -2.5515    4.9659   11.6396 C   0  0  0  0  0  0  0  0  0  0  0  0
   -4.9769    5.5638   11.8177 C   0  0  0  0  0  0  0  0  0  0  0  0
   -3.5654    5.9848   12.1080 C   0  0  0  0  0  0  0  0  0  0  0  0
    2.1272    6.5977   14.8906 N   0  0  0  0  0  0  0  0  0  0  0  0
    1.7213    6.8668   15.7768 H   0  0  0  0  0  0  0  0  0  0  0  0
    3.1779    7.4660   14.3183 C   0  0  0  0  0  0  0  0  0  0  0  0
    2.6126    8.8047   13.9715 C   0  0  0  0  0  0  0  0  0  0  0  0
    3.4735    9.9432   14.4812 C   0  0  0  0  0  0  0  0  0  0  0  0
    3.7725    9.8339   15.9432 C   0  0  0  0  0  0  0  0  0  0  0  0
    2.6729   10.3048   16.6842 O   0  0  0  0  0  0  0  0  0  0  0  0
    4.1528    8.4494   16.3832 C   0  0  0  0  0  0  0  0  0  0  0  0
    4.3498    7.5016   15.2430 C   0  0  0  0  0  0  0  0  0  0  0  0
    1.8561   10.3007   16.1292 H   0  0  0  0  0  0  0  0  0  0  0  0
 25 26  1  0  0  0
 26 24  1  0  0  0
 24 23  1  0  0  0
 23 21  1  0  0  0
 21  1  1  0  0  0
  1  2  2  0  0  0
  2  3  1  0  0  0
  3  4  2  0  0  0
  4  5  1  0  0  0
  5 27  1  0  0  0
 27 29  1  0  0  0
 29 30  1  0  0  0
 30 31  1  0  0  0
 31 32  1  0  0  0
 32 33  1  0  0  0
 32 34  1  0  0  0
 34 35  1  0  0  0
  5  6  2  0  0  0
  4  7  1  0  0  0
  7  8  2  0  0  0
  8  9  1  0  0  0
  9 10  2  0  0  0
 10 13  1  0  0  0
 13 14  1  0  0  0
 14 15  2  0  0  0
 14 17  1  0  0  0
 17 18  1  0  0  0
 18 19  1  0  0  0
 19 20  1  0  0  0
 10 11  1  0  0  0
 11 12  2  0  0  0
  6  1  1  0  0  0
 12  7  1  0  0  0
 35 29  1  0  0  0
 20 17  1  0  0  0
 21 22  1  0  0  0
 27 28  1  0  0  0
 33 36  1  0  0  0
 13 16  1  0  0  0
M  END
> <minimizedAffinity>
-7.84401

> <CNNscore>
0.1813881695

> <CNNaffinity>
6.3708524704

> <CNN_VS>
1.1555972099

> <CNNaffinity_variance>
0.1330832541

$$$$
[H]O[C@]1([H])C([H])([H])C([H])([H])[C@@]([H])(n2c([H])c(-c3c([H])c([H])c(S(=O)(=O)N4C([H])([H])C([H])([H])OC([H])([H])C4([H])[H])c([H])c3[H])c3c([H])nc(N([H])C([H])([H])C([H])([H])C([H])([H])C([H])([H])[H])nc32)C([H])([H])C1([H])[H]


 38 42  0  0  0  0  0  0  0  0999 V2000
    2.9807    0.1328   18.7771 C   0  0  0  0  0  0  0  0  0  0  0  0
    2.3039   -0.1627   17.6493 N   0  0  0  0  0  0  0  0  0  0  0  0
    2.3628    0.5862   16.5333 C   0  0  0  0  0  0  0  0  0  0  0  0
    3.1452    1.6986   16.5423 C   0  0  0  0  0  0  0  0  0  0  0  0
    3.4046    2.6434   15.5757 C   0  0  0  0  0  0  0  0  0  0  0  0
    4.2754    3.5445   16.1499 C   0  0  0  0  0  0  0  0  0  0  0  0
    4.5237    3.1378   17.4301 N   0  0  0  0  0  0  0  0  0  0  0  0
    3.8495    2.0188   17.6945 C   0  0  0  0  0  0  0  0  0  0  0  0
    3.7591    1.2512   18.7666 N   0  0  0  0  0  0  0  0  0  0  0  0
    5.4155    3.8996   18.2888 C   0  0  0  0  0  0  0  0  0  0  0  0
    6.0509    4.9652   17.4637 C   0  0  0  0  0  0  0  0  0  0  0  0
    6.6437    6.0912   18.2302 C   0  0  0  0  0  0  0  0  0  0  0  0
    5.8323    6.5345   19.4147 C   0  0  0  0  0  0  0  0  0  0  0  0
    6.5412    7.5174   20.0870 O   0  0  0  0  0  0  0  0  0  0  0  0
    5.6382    5.2921   20.2939 C   0  0  0  0  0  0  0  0  0  0  0  0
    4.6989    4.3844   19.5002 C   0  0  0  0  0  0  0  0  0  0  0  0
    6.4631    7.4402   21.0743 H   0  0  0  0  0  0  0  0  0  0  0  0
    2.8975    2.7458   14.1969 C   0  0  0  0  0  0  0  0  0  0  0  0
    1.8100    1.9878   13.7899 C   0  0  0  0  0  0  0  0  0  0  0  0
    1.3246    2.0671   12.5088 C   0  0  0  0  0  0  0  0  0  0  0  0
    1.9367    2.9236   11.6066 C   0  0  0  0  0  0  0  0  0  0  0  0
    3.0119    3.6699   12.0171 C   0  0  0  0  0  0  0  0  0  0  0  0
    3.4954    3.5908   13.2930 C   0  0  0  0  0  0  0  0  0  0  0  0
    1.3184    3.0266    9.9691 S   0  0  0  0  0  0  0  0  0  0  0  0
    2.4422    3.6135    9.1303 O   0  0  0  0  0  0  0  0  0  0  0  0
    1.0273    1.6453    9.4487 O   0  0  0  0  0  0  0  0  0  0  0  0
   -0.0666    4.0221    9.9617 N   0  0  0  0  0  0  0  0  0  0  0  0
   -0.1422    4.9574   11.0369 C   0  0  0  0  0  0  0  0  0  0  0  0
    0.5738    6.2266   10.6339 C   0  0  0  0  0  0  0  0  0  0  0  0
   -0.1663    6.8027    9.5893 O   0  0  0  0  0  0  0  0  0  0  0  0
    0.0447    5.9873    8.4664 C   0  0  0  0  0  0  0  0  0  0  0  0
   -0.4036    4.5813    8.6928 C   0  0  0  0  0  0  0  0  0  0  0  0
    2.8944   -0.6848   19.9432 N   0  0  0  0  0  0  0  0  0  0  0  0
    2.2598   -1.4970   19.9306 H   0  0  0  0  0  0  0  0  0  0  0  0
    3.7114   -0.3178   21.0806 C   0  0  0  0  0  0  0  0  0  0  0  0
    2.9947    0.6513   21.9958 C   0  0  0  0  0  0  0  0  0  0  0  0
    5.3768    1.4200   21.8165 C   0  0  0  0  0  0  0  0  0  0  0  0
    4.0106    1.7474   22.3376 C   0  0  0  0  0  0  0  0  0  0  0  0
 37 38  1  0  0  0
 38 36  1  0  0  0
 36 35  1  0  0  0
 35 33  1  0  0  0
 33  1  1  0  0  0
  1  2  2  0  0  0
  2  3  1  0  0  0
  3  4  2  0  0  0
  4  5  1  0  0  0
  5  6  2  0  0  0
  6  7  1  0  0  0
  7 10  1  0  0  0
 10 11  1  0  0  0
 11 12  1  0  0  0
 12 13  1  0  0  0
 13 14  1  0  0  0
 13 15  1  0  0  0
 15 16  1  0  0  0
  7  8  1  0  0  0
  8  9  2  0  0  0
  5 18  1  0  0  0
 18 19  2  0  0  0
 19 20  1  0  0  0
 20 21  2  0  0  0
 21 22  1  0  0  0
 22 23  2  0  0  0
 21 24  1  0  0  0
 24 25  2  0  0  0
 24 26  2  0  0  0
 24 27  1  0  0  0
 27 28  1  0  0  0
 28 29  1  0  0  0
 29 30  1  0  0  0
 30 31  1  0  0  0
 31 32  1  0  0  0
  9  1  1  0  0  0
 23 18  1  0  0  0
 32 27  1  0  0  0
  8  4  1  0  0  0
 16 10  1  0  0  0
 33 34  1  0  0  0
 14 17  1  0  0  0
M  END
> <minimizedAffinity>
-8.63856

> <CNNscore>
0.9812881351

> <CNNaffinity>
7.7350411415

> <CNN_VS>
7.5903038979

> <CNNaffinity_variance>
0.0487160459

$$$$
[H]O[C@]1([H])C([H])([H])C([H])([H])[C@@]([H])(n2c([H])c(-c3c([H])c([H])c(S(=O)(=O)N4C([H])([H])C([H])([H])OC([H])([H])C4([H])[H])c([H])c3[H])c3c([H])nc(N([H])C([H])([H])C([H])([H])C([H])([H])C([H])([H])[H])nc32)C([H])([H])C1([H])[H]


 38 42  0  0  0  0  0  0  0  0999 V2000
    2.9915    0.0908   18.9472 C   0  0  0  0  0  0  0  0  0  0  0  0
    2.3254   -0.2577   17.8282 N   0  0  0  0  0  0  0  0  0  0  0  0
    2.3835    0.4458   16.6830 C   0  0  0  0  0  0  0  0  0  0  0  0
    3.1537    1.5662   16.6515 C   0  0  0  0  0  0  0  0  0  0  0  0
    3.4092    2.4737   15.6488 C   0  0  0  0  0  0  0  0  0  0  0  0
    4.2665    3.4070   16.1911 C   0  0  0  0  0  0  0  0  0  0  0  0
    4.5108    3.0554   17.4883 N   0  0  0  0  0  0  0  0  0  0  0  0
    3.8470    1.9407   17.7940 C   0  0  0  0  0  0  0  0  0  0  0  0
    3.7579    1.2165   18.8958 N   0  0  0  0  0  0  0  0  0  0  0  0
    5.3887    3.8613   18.3207 C   0  0  0  0  0  0  0  0  0  0  0  0
    6.0000    4.9140   17.4615 C   0  0  0  0  0  0  0  0  0  0  0  0
    6.5713    6.0749   18.1915 C   0  0  0  0  0  0  0  0  0  0  0  0
    5.7537    6.5375   19.3643 C   0  0  0  0  0  0  0  0  0  0  0  0
    6.4438    7.5548   20.0042 O   0  0  0  0  0  0  0  0  0  0  0  0
    5.5874    5.3187   20.2816 C   0  0  0  0  0  0  0  0  0  0  0  0
    4.6651    4.3681   19.5189 C   0  0  0  0  0  0  0  0  0  0  0  0
    6.3696    7.5063   20.9936 H   0  0  0  0  0  0  0  0  0  0  0  0
    2.9101    2.5144   14.2639 C   0  0  0  0  0  0  0  0  0  0  0  0
    3.5699    3.2627   13.3008 C   0  0  0  0  0  0  0  0  0  0  0  0
    3.1189    3.3156   12.0058 C   0  0  0  0  0  0  0  0  0  0  0  0
    1.9804    2.6051   11.6578 C   0  0  0  0  0  0  0  0  0  0  0  0
    1.3335    1.8673   12.6164 C   0  0  0  0  0  0  0  0  0  0  0  0
    1.7827    1.8148   13.9061 C   0  0  0  0  0  0  0  0  0  0  0  0
    1.4021    2.6712   10.0038 S   0  0  0  0  0  0  0  0  0  0  0  0
   -0.0877    2.9610   10.0895 O   0  0  0  0  0  0  0  0  0  0  0  0
    2.0549    3.8195    9.2835 O   0  0  0  0  0  0  0  0  0  0  0  0
    1.7160    1.1751    9.2472 N   0  0  0  0  0  0  0  0  0  0  0  0
    1.5158    1.1607    7.8342 C   0  0  0  0  0  0  0  0  0  0  0  0
    2.7958    1.5899    7.1534 C   0  0  0  0  0  0  0  0  0  0  0  0
    3.7496    0.5904    7.4025 O   0  0  0  0  0  0  0  0  0  0  0  0
    4.0938    0.7093    8.7580 C   0  0  0  0  0  0  0  0  0  0  0  0
    2.9185    0.5279    9.6608 C   0  0  0  0  0  0  0  0  0  0  0  0
    2.9064   -0.6796   20.1450 N   0  0  0  0  0  0  0  0  0  0  0  0
    2.2617   -1.4835   20.1700 H   0  0  0  0  0  0  0  0  0  0  0  0
    3.7390   -0.2791   21.2596 C   0  0  0  0  0  0  0  0  0  0  0  0
    3.0959    0.8246   22.0711 C   0  0  0  0  0  0  0  0  0  0  0  0
    5.5006    1.5115   21.8637 C   0  0  0  0  0  0  0  0  0  0  0  0
    4.2470    1.6378   22.6746 C   0  0  0  0  0  0  0  0  0  0  0  0
 37 38  1  0  0  0
 38 36  1  0  0  0
 36 35  1  0  0  0
 35 33  1  0  0  0
 33  1  1  0  0  0
  1  2  2  0  0  0
  2  3  1  0  0  0
  3  4  2  0  0  0
  4  5  1  0  0  0
  5  6  2  0  0  0
  6  7  1  0  0  0
  7 10  1  0  0  0
 10 11  1  0  0  0
 11 12  1  0  0  0
 12 13  1  0  0  0
 13 14  1  0  0  0
 13 15  1  0  0  0
 15 16  1  0  0  0
  7  8  1  0  0  0
  8  9  2  0  0  0
  5 18  1  0  0  0
 18 19  2  0  0  0
 19 20  1  0  0  0
 20 21  2  0  0  0
 21 22  1  0  0  0
 22 23  2  0  0  0
 21 24  1  0  0  0
 24 25  2  0  0  0
 24 26  2  0  0  0
 24 27  1  0  0  0
 27 28  1  0  0  0
 28 29  1  0  0  0
 29 30  1  0  0  0
 30 31  1  0  0  0
 31 32  1  0  0  0
  9  1  1  0  0  0
 23 18  1  0  0  0
 32 27  1  0  0  0
  8  4  1  0  0  0
 16 10  1  0  0  0
 33 34  1  0  0  0
 14 17  1  0  0  0
M  END
> <minimizedAffinity>
-8.58118

> <CNNscore>
0.9781447053

> <CNNaffinity>
7.8384447098

> <CNN_VS>
7.6671333313

> <CNNaffinity_variance>
0.0517664775

$$$$
[H]O[C@]1([H])C([H])([H])C([H])([H])[C@@]([H])(n2c([H])c(-c3c([H])c([H])c(S(=O)(=O)N4C([H])([H])C([H])([H])OC([H])([H])C4([H])[H])c([H])c3[H])c3c([H])nc(N([H])C([H])([H])C([H])([H])C([H])([H])C([H])([H])[H])nc32)C([H])([H])C1([H])[H]


 38 42  0  0  0  0  0  0  0  0999 V2000
    4.2247    1.4683   19.3179 C   0  0  0  0  0  0  0  0  0  0  0  0
    3.7040    0.7422   18.3085 N   0  0  0  0  0  0  0  0  0  0  0  0
    3.4081    1.2579   17.1018 C   0  0  0  0  0  0  0  0  0  0  0  0
    3.6463    2.5798   16.8882 C   0  0  0  0  0  0  0  0  0  0  0  0
    3.4535    3.3780   15.7837 C   0  0  0  0  0  0  0  0  0  0  0  0
    3.8776    4.6381   16.1477 C   0  0  0  0  0  0  0  0  0  0  0  0
    4.3117    4.5824   17.4417 N   0  0  0  0  0  0  0  0  0  0  0  0
    4.1822    3.3434   17.9157 C   0  0  0  0  0  0  0  0  0  0  0  0
    4.4562    2.7908   19.0846 N   0  0  0  0  0  0  0  0  0  0  0  0
    4.8221    5.7721   18.1029 C   0  0  0  0  0  0  0  0  0  0  0  0
    6.3038    5.7866   17.9462 C   0  0  0  0  0  0  0  0  0  0  0  0
    6.9513    7.1055   18.1657 C   0  0  0  0  0  0  0  0  0  0  0  0
    6.1917    8.2740   17.6041 C   0  0  0  0  0  0  0  0  0  0  0  0
    6.8544    9.4379   17.9600 O   0  0  0  0  0  0  0  0  0  0  0  0
    4.7920    8.2199   18.2305 C   0  0  0  0  0  0  0  0  0  0  0  0
    4.1249    6.9920   17.6112 C   0  0  0  0  0  0  0  0  0  0  0  0
    6.2338   10.1755   18.1999 H   0  0  0  0  0  0  0  0  0  0  0  0
    2.9109    3.0382   14.4576 C   0  0  0  0  0  0  0  0  0  0  0  0
    1.7697    2.2586   14.3438 C   0  0  0  0  0  0  0  0  0  0  0  0
    1.2504    1.9289   13.1171 C   0  0  0  0  0  0  0  0  0  0  0  0
    1.8824    2.3866   11.9712 C   0  0  0  0  0  0  0  0  0  0  0  0
    3.0107    3.1572   12.0923 C   0  0  0  0  0  0  0  0  0  0  0  0
    3.5279    3.4855   13.3141 C   0  0  0  0  0  0  0  0  0  0  0  0
    1.2208    1.9665   10.4027 S   0  0  0  0  0  0  0  0  0  0  0  0
    2.3489    2.1635    9.4029 O   0  0  0  0  0  0  0  0  0  0  0  0
    0.8386    0.5114   10.3863 O   0  0  0  0  0  0  0  0  0  0  0  0
   -0.1071    2.9844   10.0711 N   0  0  0  0  0  0  0  0  0  0  0  0
   -0.0007    4.3053   10.6007 C   0  0  0  0  0  0  0  0  0  0  0  0
    0.7140    5.1803    9.5959 C   0  0  0  0  0  0  0  0  0  0  0  0
   -0.1280    5.2960    8.4785 O   0  0  0  0  0  0  0  0  0  0  0  0
   -0.1009    4.0467    7.8391 C   0  0  0  0  0  0  0  0  0  0  0  0
   -0.5794    2.9444    8.7252 C   0  0  0  0  0  0  0  0  0  0  0  0
    4.5262    0.8877   20.5858 N   0  0  0  0  0  0  0  0  0  0  0  0
    5.4420    0.4324   20.7148 H   0  0  0  0  0  0  0  0  0  0  0  0
    3.5169    0.9758   21.6200 C   0  0  0  0  0  0  0  0  0  0  0  0
    3.7510    2.1608   22.5318 C   0  0  0  0  0  0  0  0  0  0  0  0
    5.5685    2.0680   24.2596 C   0  0  0  0  0  0  0  0  0  0  0  0
    5.2599    2.2027   22.7995 C   0  0  0  0  0  0  0  0  0  0  0  0
 37 38  1  0  0  0
 38 36  1  0  0  0
 36 35  1  0  0  0
 35 33  1  0  0  0
 33  1  1  0  0  0
  1  2  2  0  0  0
  2  3  1  0  0  0
  3  4  2  0  0  0
  4  5  1  0  0  0
  5  6  2  0  0  0
  6  7  1  0  0  0
  7 10  1  0  0  0
 10 11  1  0  0  0
 11 12  1  0  0  0
 12 13  1  0  0  0
 13 14  1  0  0  0
 13 15  1  0  0  0
 15 16  1  0  0  0
  7  8  1  0  0  0
  8  9  2  0  0  0
  5 18  1  0  0  0
 18 19  2  0  0  0
 19 20  1  0  0  0
 20 21  2  0  0  0
 21 22  1  0  0  0
 22 23  2  0  0  0
 21 24  1  0  0  0
 24 25  2  0  0  0
 24 26  2  0  0  0
 24 27  1  0  0  0
 27 28  1  0  0  0
 28 29  1  0  0  0
 29 30  1  0  0  0
 30 31  1  0  0  0
 31 32  1  0  0  0
  9  1  1  0  0  0
 23 18  1  0  0  0
 32 27  1  0  0  0
  8  4  1  0  0  0
 16 10  1  0  0  0
 33 34  1  0  0  0
 14 17  1  0  0  0
M  END
> <minimizedAffinity>
-7.53791

> <CNNscore>
0.6985614896

> <CNNaffinity>
7.3089432716

> <CNN_VS>
5.1057462692

> <CNNaffinity_variance>
0.2605410218

$$$$
[H]O[C@]1([H])C([H])([H])C([H])([H])[C@@]([H])(n2c([H])c(-c3c([H])c([H])c(S(=O)(=O)N4C([H])([H])C([H])([H])OC([H])([H])C4([H])[H])c([H])c3[H])c3c([H])nc(N([H])C([H])([H])C([H])([H])C([H])([H])C([H])([H])[H])nc32)C([H])([H])C1([H])[H]


 38 42  0  0  0  0  0  0  0  0999 V2000
    3.0266    0.6807   17.6692 C   0  0  0  0  0  0  0  0  0  0  0  0
    2.4533    0.7668   16.4522 N   0  0  0  0  0  0  0  0  0  0  0  0
    2.6110    1.8220   15.6329 C   0  0  0  0  0  0  0  0  0  0  0  0
    3.3887    2.8556   16.0530 C   0  0  0  0  0  0  0  0  0  0  0  0
    3.7327    4.0455   15.4529 C   0  0  0  0  0  0  0  0  0  0  0  0
    4.5483    4.7010   16.3501 C   0  0  0  0  0  0  0  0  0  0  0  0
    4.6817    3.9120   17.4572 N   0  0  0  0  0  0  0  0  0  0  0  0
    3.9874    2.7848   17.3031 C   0  0  0  0  0  0  0  0  0  0  0  0
    3.8023    1.7262   18.0724 N   0  0  0  0  0  0  0  0  0  0  0  0
    5.4930    4.3466   18.5824 C   0  0  0  0  0  0  0  0  0  0  0  0
    6.1272    5.6450   18.2189 C   0  0  0  0  0  0  0  0  0  0  0  0
    6.6299    6.4471   19.3639 C   0  0  0  0  0  0  0  0  0  0  0  0
    5.7376    6.4354   20.5728 C   0  0  0  0  0  0  0  0  0  0  0  0
    6.3673    7.1382   21.5877 O   0  0  0  0  0  0  0  0  0  0  0  0
    5.5481    4.9614   20.9547 C   0  0  0  0  0  0  0  0  0  0  0  0
    4.6920    4.3664   19.8370 C   0  0  0  0  0  0  0  0  0  0  0  0
    6.2390    6.7218   22.4804 H   0  0  0  0  0  0  0  0  0  0  0  0
    3.3505    4.5827   14.1361 C   0  0  0  0  0  0  0  0  0  0  0  0
    2.3896    5.5775   14.0349 C   0  0  0  0  0  0  0  0  0  0  0  0
    2.0179    6.0890   12.8170 C   0  0  0  0  0  0  0  0  0  0  0  0
    2.6177    5.5986   11.6672 C   0  0  0  0  0  0  0  0  0  0  0  0
    3.5673    4.6147   11.7759 C   0  0  0  0  0  0  0  0  0  0  0  0
    3.9373    4.1052   12.9890 C   0  0  0  0  0  0  0  0  0  0  0  0
    2.1444    6.2505   10.1098 S   0  0  0  0  0  0  0  0  0  0  0  0
    0.9994    5.3794    9.6187 O   0  0  0  0  0  0  0  0  0  0  0  0
    1.6182    7.6492   10.2839 O   0  0  0  0  0  0  0  0  0  0  0  0
    3.4838    6.1934    9.0553 N   0  0  0  0  0  0  0  0  0  0  0  0
    3.1735    5.8511    7.7051 C   0  0  0  0  0  0  0  0  0  0  0  0
    2.8340    7.1133    6.9450 C   0  0  0  0  0  0  0  0  0  0  0  0
    4.0087    7.8786    6.8725 O   0  0  0  0  0  0  0  0  0  0  0  0
    4.2305    8.3756    8.1662 C   0  0  0  0  0  0  0  0  0  0  0  0
    4.3943    7.2858    9.1734 C   0  0  0  0  0  0  0  0  0  0  0  0
    2.8372   -0.4546   18.5123 N   0  0  0  0  0  0  0  0  0  0  0  0
    2.9166   -1.3953   18.0985 H   0  0  0  0  0  0  0  0  0  0  0  0
    2.5427   -0.2104   19.9086 C   0  0  0  0  0  0  0  0  0  0  0  0
    3.6765   -0.6558   20.8066 C   0  0  0  0  0  0  0  0  0  0  0  0
    3.4095    1.3281   22.3200 C   0  0  0  0  0  0  0  0  0  0  0  0
    4.3155    0.6250   21.3556 C   0  0  0  0  0  0  0  0  0  0  0  0
 37 38  1  0  0  0
 38 36  1  0  0  0
 36 35  1  0  0  0
 35 33  1  0  0  0
 33  1  1  0  0  0
  1  2  2  0  0  0
  2  3  1  0  0  0
  3  4  2  0  0  0
  4  5  1  0  0  0
  5  6  2  0  0  0
  6  7  1  0  0  0
  7 10  1  0  0  0
 10 11  1  0  0  0
 11 12  1  0  0  0
 12 13  1  0  0  0
 13 14  1  0  0  0
 13 15  1  0  0  0
 15 16  1  0  0  0
  7  8  1  0  0  0
  8  9  2  0  0  0
  5 18  1  0  0  0
 18 19  2  0  0  0
 19 20  1  0  0  0
 20 21  2  0  0  0
 21 22  1  0  0  0
 22 23  2  0  0  0
 21 24  1  0  0  0
 24 25  2  0  0  0
 24 26  2  0  0  0
 24 27  1  0  0  0
 27 28  1  0  0  0
 28 29  1  0  0  0
 29 30  1  0  0  0
 30 31  1  0  0  0
 31 32  1  0  0  0
  9  1  1  0  0  0
 23 18  1  0  0  0
 32 27  1  0  0  0
  8  4  1  0  0  0
 16 10  1  0  0  0
 33 34  1  0  0  0
 14 17  1  0  0  0
M  END
> <minimizedAffinity>
-7.47781

> <CNNscore>
0.5701313019

> <CNNaffinity>
6.9129652977

> <CNN_VS>
3.9412980080

> <CNNaffinity_variance>
0.0938528329

$$$$
[H]O[C@]1([H])C([H])([H])C([H])([H])[C@@]([H])(n2c([H])c(-c3c([H])c([H])c(S(=O)(=O)N4C([H])([H])C([H])([H])OC([H])([H])C4([H])[H])c([H])c3[H])c3c([H])nc(N([H])C([H])([H])C([H])([H])C([H])([H])C([H])([H])[H])nc32)C([H])([H])C1([H])[H]


 38 42  0  0  0  0  0  0  0  0999 V2000
    4.0349    1.1004   19.9176 C   0  0  0  0  0  0  0  0  0  0  0  0
    3.7135    0.5200   18.7441 N   0  0  0  0  0  0  0  0  0  0  0  0
    3.6147    1.1974   17.5861 C   0  0  0  0  0  0  0  0  0  0  0  0
    3.8511    2.5367   17.5989 C   0  0  0  0  0  0  0  0  0  0  0  0
    3.8289    3.4799   16.5968 C   0  0  0  0  0  0  0  0  0  0  0  0
    4.1516    4.6783   17.1967 C   0  0  0  0  0  0  0  0  0  0  0  0
    4.3596    4.4447   18.5264 N   0  0  0  0  0  0  0  0  0  0  0  0
    4.1835    3.1517   18.7978 C   0  0  0  0  0  0  0  0  0  0  0  0
    4.2682    2.4430   19.9101 N   0  0  0  0  0  0  0  0  0  0  0  0
    4.7182    5.5324   19.4216 C   0  0  0  0  0  0  0  0  0  0  0  0
    3.9264    5.3784   20.6743 C   0  0  0  0  0  0  0  0  0  0  0  0
    4.4531    6.1156   21.8516 C   0  0  0  0  0  0  0  0  0  0  0  0
    5.9500    6.0960   21.9808 C   0  0  0  0  0  0  0  0  0  0  0  0
    6.3064    6.8933   23.0569 O   0  0  0  0  0  0  0  0  0  0  0  0
    6.5038    6.6604   20.6658 C   0  0  0  0  0  0  0  0  0  0  0  0
    6.1931    5.5970   19.6129 C   0  0  0  0  0  0  0  0  0  0  0  0
    7.1287    7.4238   22.8864 H   0  0  0  0  0  0  0  0  0  0  0  0
    3.5299    3.3260   15.1631 C   0  0  0  0  0  0  0  0  0  0  0  0
    2.8681    2.1987   14.7003 C   0  0  0  0  0  0  0  0  0  0  0  0
    2.5829    2.0356   13.3679 C   0  0  0  0  0  0  0  0  0  0  0  0
    2.9659    3.0201   12.4700 C   0  0  0  0  0  0  0  0  0  0  0  0
    3.6201    4.1321   12.9359 C   0  0  0  0  0  0  0  0  0  0  0  0
    3.9042    4.2944   14.2629 C   0  0  0  0  0  0  0  0  0  0  0  0
    2.6027    2.8140   10.7671 S   0  0  0  0  0  0  0  0  0  0  0  0
    3.9422    2.8075   10.0482 O   0  0  0  0  0  0  0  0  0  0  0  0
    1.9535    1.4750   10.5451 O   0  0  0  0  0  0  0  0  0  0  0  0
    1.6114    4.1029   10.2522 N   0  0  0  0  0  0  0  0  0  0  0  0
    1.7004    4.4135    8.8621 C   0  0  0  0  0  0  0  0  0  0  0  0
    0.7077    3.5608    8.1048 C   0  0  0  0  0  0  0  0  0  0  0  0
   -0.5748    3.9767    8.4958 O   0  0  0  0  0  0  0  0  0  0  0  0
   -0.7493    3.5178    9.8108 C   0  0  0  0  0  0  0  0  0  0  0  0
    0.2732    4.0725   10.7467 C   0  0  0  0  0  0  0  0  0  0  0  0
    4.1306    0.3503   21.1275 N   0  0  0  0  0  0  0  0  0  0  0  0
    4.8378   -0.3970   21.1902 H   0  0  0  0  0  0  0  0  0  0  0  0
    3.2195    0.6899   22.2000 C   0  0  0  0  0  0  0  0  0  0  0  0
    3.5004    2.0681   22.7586 C   0  0  0  0  0  0  0  0  0  0  0  0
    5.9091    2.6097   23.2085 C   0  0  0  0  0  0  0  0  0  0  0  0
    4.6867    1.9075   23.7164 C   0  0  0  0  0  0  0  0  0  0  0  0
 37 38  1  0  0  0
 38 36  1  0  0  0
 36 35  1  0  0  0
 35 33  1  0  0  0
 33  1  1  0  0  0
  1  2  2  0  0  0
  2  3  1  0  0  0
  3  4  2  0  0  0
  4  5  1  0  0  0
  5  6  2  0  0  0
  6  7  1  0  0  0
  7 10  1  0  0  0
 10 11  1  0  0  0
 11 12  1  0  0  0
 12 13  1  0  0  0
 13 14  1  0  0  0
 13 15  1  0  0  0
 15 16  1  0  0  0
  7  8  1  0  0  0
  8  9  2  0  0  0
  5 18  1  0  0  0
 18 19  2  0  0  0
 19 20  1  0  0  0
 20 21  2  0  0  0
 21 22  1  0  0  0
 22 23  2  0  0  0
 21 24  1  0  0  0
 24 25  2  0  0  0
 24 26  2  0  0  0
 24 27  1  0  0  0
 27 28  1  0  0  0
 28 29  1  0  0  0
 29 30  1  0  0  0
 30 31  1  0  0  0
 31 32  1  0  0  0
  9  1  1  0  0  0
 23 18  1  0  0  0
 32 27  1  0  0  0
  8  4  1  0  0  0
 16 10  1  0  0  0
 33 34  1  0  0  0
 14 17  1  0  0  0
M  END
> <minimizedAffinity>
-8.37331

> <CNNscore>
0.5158029199

> <CNNaffinity>
7.1810126305

> <CNN_VS>
3.7039873600

> <CNNaffinity_variance>
0.2043787539

$$$$
[H]O[C@]1([H])C([H])([H])C([H])([H])[C@@]([H])(n2c([H])c(-c3c([H])c([H])c(S(=O)(=O)N4C([H])([H])C([H])([H])OC([H])([H])C4([H])[H])c([H])c3[H])c3c([H])nc(N([H])C([H])([H])C([H])([H])C([H])([H])C([H])([H])[H])nc32)C([H])([H])C1([H])[H]


 38 42  0  0  0  0  0  0  0  0999 V2000
    3.6186    1.7298   17.6093 C   0  0  0  0  0  0  0  0  0  0  0  0
    3.2679    1.2903   16.3841 N   0  0  0  0  0  0  0  0  0  0  0  0
    3.2301    2.0816   15.2968 C   0  0  0  0  0  0  0  0  0  0  0  0
    3.5626    3.3925   15.4401 C   0  0  0  0  0  0  0  0  0  0  0  0
    3.6189    4.4270   14.5340 C   0  0  0  0  0  0  0  0  0  0  0  0
    4.0213    5.5353   15.2482 C   0  0  0  0  0  0  0  0  0  0  0  0
    4.1984    5.1600   16.5497 N   0  0  0  0  0  0  0  0  0  0  0  0
    3.9265    3.8632   16.6939 C   0  0  0  0  0  0  0  0  0  0  0  0
    3.9485    3.0463   17.7326 N   0  0  0  0  0  0  0  0  0  0  0  0
    4.6257    6.1273   17.5472 C   0  0  0  0  0  0  0  0  0  0  0  0
    5.0766    7.3556   16.8345 C   0  0  0  0  0  0  0  0  0  0  0  0
    5.1370    8.5848   17.6666 C   0  0  0  0  0  0  0  0  0  0  0  0
    4.0020    8.7353   18.6396 C   0  0  0  0  0  0  0  0  0  0  0  0
    4.2326    9.8647   19.4089 O   0  0  0  0  0  0  0  0  0  0  0  0
    4.0033    7.4670   19.5033 C   0  0  0  0  0  0  0  0  0  0  0  0
    3.5611    6.3446   18.5648 C   0  0  0  0  0  0  0  0  0  0  0  0
    3.9760    9.7405   20.3605 H   0  0  0  0  0  0  0  0  0  0  0  0
    3.3240    4.4343   13.0913 C   0  0  0  0  0  0  0  0  0  0  0  0
    2.0345    4.6696   12.6387 C   0  0  0  0  0  0  0  0  0  0  0  0
    1.7392    4.6776   11.2986 C   0  0  0  0  0  0  0  0  0  0  0  0
    2.7534    4.4455   10.3823 C   0  0  0  0  0  0  0  0  0  0  0  0
    4.0262    4.2136   10.8381 C   0  0  0  0  0  0  0  0  0  0  0  0
    4.3202    4.2055   12.1728 C   0  0  0  0  0  0  0  0  0  0  0  0
    2.3784    4.4551    8.6694 S   0  0  0  0  0  0  0  0  0  0  0  0
    3.1763    3.3153    8.0569 O   0  0  0  0  0  0  0  0  0  0  0  0
    0.9177    4.1562    8.4680 O   0  0  0  0  0  0  0  0  0  0  0  0
    2.8225    5.9658    8.0138 N   0  0  0  0  0  0  0  0  0  0  0  0
    1.8810    6.5261    7.0994 C   0  0  0  0  0  0  0  0  0  0  0  0
    0.8705    7.3413    7.8743 C   0  0  0  0  0  0  0  0  0  0  0  0
    1.5569    8.4387    8.4178 O   0  0  0  0  0  0  0  0  0  0  0  0
    2.3594    7.9248    9.4484 C   0  0  0  0  0  0  0  0  0  0  0  0
    3.3348    6.9076    8.9555 C   0  0  0  0  0  0  0  0  0  0  0  0
    3.6476    0.8616   18.7411 N   0  0  0  0  0  0  0  0  0  0  0  0
    3.1033   -0.0131   18.7061 H   0  0  0  0  0  0  0  0  0  0  0  0
    4.4471    1.2686   19.8773 C   0  0  0  0  0  0  0  0  0  0  0  0
    3.7006    1.0876   21.1813 C   0  0  0  0  0  0  0  0  0  0  0  0
    6.0661    1.6218   21.8265 C   0  0  0  0  0  0  0  0  0  0  0  0
    4.6399    1.5883   22.2846 C   0  0  0  0  0  0  0  0  0  0  0  0
 37 38  1  0  0  0
 38 36  1  0  0  0
 36 35  1  0  0  0
 35 33  1  0  0  0
 33  1  1  0  0  0
  1  2  2  0  0  0
  2  3  1  0  0  0
  3  4  2  0  0  0
  4  5  1  0  0  0
  5  6  2  0  0  0
  6  7  1  0  0  0
  7 10  1  0  0  0
 10 11  1  0  0  0
 11 12  1  0  0  0
 12 13  1  0  0  0
 13 14  1  0  0  0
 13 15  1  0  0  0
 15 16  1  0  0  0
  7  8  1  0  0  0
  8  9  2  0  0  0
  5 18  1  0  0  0
 18 19  2  0  0  0
 19 20  1  0  0  0
 20 21  2  0  0  0
 21 22  1  0  0  0
 22 23  2  0  0  0
 21 24  1  0  0  0
 24 25  2  0  0  0
 24 26  2  0  0  0
 24 27  1  0  0  0
 27 28  1  0  0  0
 28 29  1  0  0  0
 29 30  1  0  0  0
 30 31  1  0  0  0
 31 32  1  0  0  0
  9  1  1  0  0  0
 23 18  1  0  0  0
 32 27  1  0  0  0
  8  4  1  0  0  0
 16 10  1  0  0  0
 33 34  1  0  0  0
 14 17  1  0  0  0
M  END
> <minimizedAffinity>
-7.02503

> <CNNscore>
0.3406676054

> <CNNaffinity>
6.8988828659

> <CNN_VS>
2.3502259254

> <CNNaffinity_variance>
0.4117492139

$$$$
[H]O[C@]1([H])C([H])([H])C([H])([H])[C@@]([H])(n2c([H])c(-c3c([H])c([H])c(S(=O)(=O)N4C([H])([H])C([H])([H])OC([H])([H])C4([H])[H])c([H])c3[H])c3c([H])nc(N([H])C([H])([H])C([H])([H])C([H])([H])C([H])([H])[H])nc32)C([H])([H])C1([H])[H]


 38 42  0  0  0  0  0  0  0  0999 V2000
    4.1265    1.7700   18.9580 C   0  0  0  0  0  0  0  0  0  0  0  0
    3.5915    1.5206   17.7460 N   0  0  0  0  0  0  0  0  0  0  0  0
    3.3022    2.4837   16.8524 C   0  0  0  0  0  0  0  0  0  0  0  0
    3.5624    3.7757   17.1882 C   0  0  0  0  0  0  0  0  0  0  0  0
    3.3810    4.9545   16.5013 C   0  0  0  0  0  0  0  0  0  0  0  0
    3.8272    5.9542   17.3390 C   0  0  0  0  0  0  0  0  0  0  0  0
    4.2628    5.3747   18.4968 N   0  0  0  0  0  0  0  0  0  0  0  0
    4.1132    4.0518   18.4318 C   0  0  0  0  0  0  0  0  0  0  0  0
    4.3800    3.0706   19.2760 N   0  0  0  0  0  0  0  0  0  0  0  0
    4.7946    6.1887   19.5773 C   0  0  0  0  0  0  0  0  0  0  0  0
    4.1481    5.7500   20.8460 C   0  0  0  0  0  0  0  0  0  0  0  0
    4.8571    6.1484   22.0892 C   0  0  0  0  0  0  0  0  0  0  0  0
    6.3543    6.0470   22.0128 C   0  0  0  0  0  0  0  0  0  0  0  0
    6.8864    6.5347   23.1959 O   0  0  0  0  0  0  0  0  0  0  0  0
    6.7842    6.9062   20.8164 C   0  0  0  0  0  0  0  0  0  0  0  0
    6.2828    6.1538   19.5841 C   0  0  0  0  0  0  0  0  0  0  0  0
    7.7155    7.0634   23.0552 H   0  0  0  0  0  0  0  0  0  0  0  0
    2.8301    5.1867   15.1555 C   0  0  0  0  0  0  0  0  0  0  0  0
    3.3273    4.4921   14.0632 C   0  0  0  0  0  0  0  0  0  0  0  0
    2.8292    4.6965   12.8009 C   0  0  0  0  0  0  0  0  0  0  0  0
    1.8084    5.6168   12.6187 C   0  0  0  0  0  0  0  0  0  0  0  0
    1.3221    6.2997   13.7044 C   0  0  0  0  0  0  0  0  0  0  0  0
    1.8183    6.0962   14.9615 C   0  0  0  0  0  0  0  0  0  0  0  0
    1.1703    5.8798   11.0068 S   0  0  0  0  0  0  0  0  0  0  0  0
    0.6459    7.3065   10.9887 O   0  0  0  0  0  0  0  0  0  0  0  0
    2.2831    5.7844    9.9987 O   0  0  0  0  0  0  0  0  0  0  0  0
   -0.0669    4.7442   10.7088 N   0  0  0  0  0  0  0  0  0  0  0  0
   -0.8647    4.4105   11.8441 C   0  0  0  0  0  0  0  0  0  0  0  0
   -2.0110    5.3914   11.9432 C   0  0  0  0  0  0  0  0  0  0  0  0
   -2.8388    5.1707   10.8311 O   0  0  0  0  0  0  0  0  0  0  0  0
   -2.1374    5.6630    9.7194 C   0  0  0  0  0  0  0  0  0  0  0  0
   -0.8273    4.9742    9.5235 C   0  0  0  0  0  0  0  0  0  0  0  0
    4.4206    0.7227   19.8812 N   0  0  0  0  0  0  0  0  0  0  0  0
    4.2974   -0.2539   19.5753 H   0  0  0  0  0  0  0  0  0  0  0  0
    4.8776    1.1024   21.2015 C   0  0  0  0  0  0  0  0  0  0  0  0
    3.7291    1.2169   22.1804 C   0  0  0  0  0  0  0  0  0  0  0  0
    5.4861    2.5282   23.4014 C   0  0  0  0  0  0  0  0  0  0  0  0
    4.0315    2.4407   23.0528 C   0  0  0  0  0  0  0  0  0  0  0  0
 37 38  1  0  0  0
 38 36  1  0  0  0
 36 35  1  0  0  0
 35 33  1  0  0  0
 33  1  1  0  0  0
  1  2  2  0  0  0
  2  3  1  0  0  0
  3  4  2  0  0  0
  4  5  1  0  0  0
  5  6  2  0  0  0
  6  7  1  0  0  0
  7 10  1  0  0  0
 10 11  1  0  0  0
 11 12  1  0  0  0
 12 13  1  0  0  0
 13 14  1  0  0  0
 13 15  1  0  0  0
 15 16  1  0  0  0
  7  8  1  0  0  0
  8  9  2  0  0  0
  5 18  1  0  0  0
 18 19  2  0  0  0
 19 20  1  0  0  0
 20 21  2  0  0  0
 21 22  1  0  0  0
 22 23  2  0  0  0
 21 24  1  0  0  0
 24 25  2  0  0  0
 24 26  2  0  0  0
 24 27  1  0  0  0
 27 28  1  0  0  0
 28 29  1  0  0  0
 29 30  1  0  0  0
 30 31  1  0  0  0
 31 32  1  0  0  0
  9  1  1  0  0  0
 23 18  1  0  0  0
 32 27  1  0  0  0
  8  4  1  0  0  0
 16 10  1  0  0  0
 33 34  1  0  0  0
 14 17  1  0  0  0
M  END
> <minimizedAffinity>
-7.83661

> <CNNscore>
0.3359428048

> <CNNaffinity>
6.9266166687

> <CNN_VS>
2.3269469738

> <CNNaffinity_variance>
0.2347515076

$$$$
[H]O[C@]1([H])C([H])([H])C([H])([H])[C@@]([H])(n2c([H])c(-c3c([H])c([H])c(S(=O)(=O)N4C([H])([H])C([H])([H])OC([H])([H])C4([H])[H])c([H])c3[H])c3c([H])nc(N([H])C([H])([H])C([H])([H])C([H])([H])C([H])([H])[H])nc32)C([H])([H])C1([H])[H]


 38 42  0  0  0  0  0  0  0  0999 V2000
    4.2302    1.4545   20.2077 C   0  0  0  0  0  0  0  0  0  0  0  0
    3.7608    0.8019   19.1256 N   0  0  0  0  0  0  0  0  0  0  0  0
    3.6340    1.3731   17.9142 C   0  0  0  0  0  0  0  0  0  0  0  0
    3.9978    2.6759   17.7731 C   0  0  0  0  0  0  0  0  0  0  0  0
    3.9851    3.5172   16.6840 C   0  0  0  0  0  0  0  0  0  0  0  0
    4.4684    4.7273   17.1337 C   0  0  0  0  0  0  0  0  0  0  0  0
    4.7599    4.6005   18.4622 N   0  0  0  0  0  0  0  0  0  0  0  0
    4.4834    3.3641   18.8762 C   0  0  0  0  0  0  0  0  0  0  0  0
    4.5895    2.7590   20.0463 N   0  0  0  0  0  0  0  0  0  0  0  0
    5.2922    5.7252   19.2137 C   0  0  0  0  0  0  0  0  0  0  0  0
    5.5894    6.8232   18.2513 C   0  0  0  0  0  0  0  0  0  0  0  0
    5.7252    8.1744   18.8538 C   0  0  0  0  0  0  0  0  0  0  0  0
    4.7392    8.4710   19.9481 C   0  0  0  0  0  0  0  0  0  0  0  0
    5.0379    9.7153   20.4801 O   0  0  0  0  0  0  0  0  0  0  0  0
    4.9126    7.3641   20.9966 C   0  0  0  0  0  0  0  0  0  0  0  0
    4.3799    6.0961   20.3300 C   0  0  0  0  0  0  0  0  0  0  0  0
    4.9272    9.7480   21.4668 H   0  0  0  0  0  0  0  0  0  0  0  0
    3.5578    3.2600   15.2984 C   0  0  0  0  0  0  0  0  0  0  0  0
    2.7518    2.1711   15.0022 C   0  0  0  0  0  0  0  0  0  0  0  0
    2.3455    1.9129   13.7171 C   0  0  0  0  0  0  0  0  0  0  0  0
    2.7511    2.7603   12.6976 C   0  0  0  0  0  0  0  0  0  0  0  0
    3.5482    3.8352   12.9989 C   0  0  0  0  0  0  0  0  0  0  0  0
    3.9530    4.0922   14.2788 C   0  0  0  0  0  0  0  0  0  0  0  0
    2.2333    2.4325   11.0548 S   0  0  0  0  0  0  0  0  0  0  0  0
    1.0178    1.5267   11.1688 O   0  0  0  0  0  0  0  0  0  0  0  0
    1.7949    3.7121   10.3959 O   0  0  0  0  0  0  0  0  0  0  0  0
    3.5103    1.6791   10.2116 N   0  0  0  0  0  0  0  0  0  0  0  0
    3.1677    0.4504    9.5716 C   0  0  0  0  0  0  0  0  0  0  0  0
    2.6437    0.7492    8.1852 C   0  0  0  0  0  0  0  0  0  0  0  0
    3.7165    1.2670    7.4425 O   0  0  0  0  0  0  0  0  0  0  0  0
    3.9503    2.5572    7.9432 C   0  0  0  0  0  0  0  0  0  0  0  0
    4.2939    2.5493    9.3961 C   0  0  0  0  0  0  0  0  0  0  0  0
    4.3511    0.8164   21.4781 N   0  0  0  0  0  0  0  0  0  0  0  0
    4.9325   -0.0316   21.5511 H   0  0  0  0  0  0  0  0  0  0  0  0
    3.6425    1.4065   22.5942 C   0  0  0  0  0  0  0  0  0  0  0  0
    4.5912    1.8670   23.6798 C   0  0  0  0  0  0  0  0  0  0  0  0
    3.4874    4.1071   23.4325 C   0  0  0  0  0  0  0  0  0  0  0  0
    4.7923    3.3712   23.4619 C   0  0  0  0  0  0  0  0  0  0  0  0
 37 38  1  0  0  0
 38 36  1  0  0  0
 36 35  1  0  0  0
 35 33  1  0  0  0
 33  1  1  0  0  0
  1  2  2  0  0  0
  2  3  1  0  0  0
  3  4  2  0  0  0
  4  5  1  0  0  0
  5  6  2  0  0  0
  6  7  1  0  0  0
  7 10  1  0  0  0
 10 11  1  0  0  0
 11 12  1  0  0  0
 12 13  1  0  0  0
 13 14  1  0  0  0
 13 15  1  0  0  0
 15 16  1  0  0  0
  7  8  1  0  0  0
  8  9  2  0  0  0
  5 18  1  0  0  0
 18 19  2  0  0  0
 19 20  1  0  0  0
 20 21  2  0  0  0
 21 22  1  0  0  0
 22 23  2  0  0  0
 21 24  1  0  0  0
 24 25  2  0  0  0
 24 26  2  0  0  0
 24 27  1  0  0  0
 27 28  1  0  0  0
 28 29  1  0  0  0
 29 30  1  0  0  0
 30 31  1  0  0  0
 31 32  1  0  0  0
  9  1  1  0  0  0
 23 18  1  0  0  0
 32 27  1  0  0  0
  8  4  1  0  0  0
 16 10  1  0  0  0
 33 34  1  0  0  0
 14 17  1  0  0  0
M  END
> <minimizedAffinity>
-8.41933

> <CNNscore>
0.3084877729

> <CNNaffinity>
6.9788641930

> <CNN_VS>
2.1528942585

> <CNNaffinity_variance>
0.3249092102

$$$$
[H]O[C@]1([H])C([H])([H])C([H])([H])[C@@]([H])(n2c([H])c(-c3c([H])c([H])c(S(=O)(=O)N4C([H])([H])C([H])([H])OC([H])([H])C4([H])[H])c([H])c3[H])c3c([H])nc(N([H])C([H])([H])C([H])([H])C([H])([H])C([H])([H])[H])nc32)C([H])([H])C1([H])[H]


 38 42  0  0  0  0  0  0  0  0999 V2000
    4.5818    1.7019   20.4152 C   0  0  0  0  0  0  0  0  0  0  0  0
    4.0270    1.0579   19.3688 N   0  0  0  0  0  0  0  0  0  0  0  0
    3.8999    1.6047   18.1463 C   0  0  0  0  0  0  0  0  0  0  0  0
    4.3541    2.8723   17.9552 C   0  0  0  0  0  0  0  0  0  0  0  0
    4.3650    3.6830   16.8430 C   0  0  0  0  0  0  0  0  0  0  0  0
    4.9525    4.8648   17.2408 C   0  0  0  0  0  0  0  0  0  0  0  0
    5.2810    4.7518   18.5620 N   0  0  0  0  0  0  0  0  0  0  0  0
    4.9284    3.5511   19.0208 C   0  0  0  0  0  0  0  0  0  0  0  0
    5.0310    2.9710   20.2039 N   0  0  0  0  0  0  0  0  0  0  0  0
    5.9217    5.8528   19.2621 C   0  0  0  0  0  0  0  0  0  0  0  0
    6.9821    6.4083   18.3749 C   0  0  0  0  0  0  0  0  0  0  0  0
    7.4434    7.7778   18.7196 C   0  0  0  0  0  0  0  0  0  0  0  0
    6.3497    8.7144   19.1490 C   0  0  0  0  0  0  0  0  0  0  0  0
    6.9270    9.9158   19.5283 O   0  0  0  0  0  0  0  0  0  0  0  0
    5.6449    8.0402   20.3335 C   0  0  0  0  0  0  0  0  0  0  0  0
    4.9124    6.8410   19.7320 C   0  0  0  0  0  0  0  0  0  0  0  0
    6.4884   10.3189   20.3232 H   0  0  0  0  0  0  0  0  0  0  0  0
    3.8707    3.4219   15.4807 C   0  0  0  0  0  0  0  0  0  0  0  0
    4.0408    4.3651   14.4785 C   0  0  0  0  0  0  0  0  0  0  0  0
    3.5848    4.1416   13.2037 C   0  0  0  0  0  0  0  0  0  0  0  0
    2.9418    2.9475   12.9162 C   0  0  0  0  0  0  0  0  0  0  0  0
    2.7775    2.0197   13.9131 C   0  0  0  0  0  0  0  0  0  0  0  0
    3.2316    2.2424   15.1828 C   0  0  0  0  0  0  0  0  0  0  0  0
    2.3581    2.6596   11.2880 S   0  0  0  0  0  0  0  0  0  0  0  0
    3.1497    3.5923   10.3855 O   0  0  0  0  0  0  0  0  0  0  0  0
    2.6713    1.2460   10.8791 O   0  0  0  0  0  0  0  0  0  0  0  0
    0.6856    2.9899   11.2328 N   0  0  0  0  0  0  0  0  0  0  0  0
    0.2301    3.9537   12.1817 C   0  0  0  0  0  0  0  0  0  0  0  0
    0.3583    5.3342   11.5784 C   0  0  0  0  0  0  0  0  0  0  0  0
   -0.5531    5.4040   10.5130 O   0  0  0  0  0  0  0  0  0  0  0  0
   -0.0237    4.5970    9.4938 C   0  0  0  0  0  0  0  0  0  0  0  0
    0.1484    3.1778    9.9243 C   0  0  0  0  0  0  0  0  0  0  0  0
    4.7002    1.0905   21.6988 N   0  0  0  0  0  0  0  0  0  0  0  0
    5.3779    0.3232   21.8193 H   0  0  0  0  0  0  0  0  0  0  0  0
    3.8528    1.5916   22.7603 C   0  0  0  0  0  0  0  0  0  0  0  0
    4.5912    2.5633   23.6552 C   0  0  0  0  0  0  0  0  0  0  0  0
    4.4768    4.9531   22.8981 C   0  0  0  0  0  0  0  0  0  0  0  0
    3.7739    3.8603   23.6443 C   0  0  0  0  0  0  0  0  0  0  0  0
 37 38  1  0  0  0
 38 36  1  0  0  0
 36 35  1  0  0  0
 35 33  1  0  0  0
 33  1  1  0  0  0
  1  2  2  0  0  0
  2  3  1  0  0  0
  3  4  2  0  0  0
  4  5  1  0  0  0
  5  6  2  0  0  0
  6  7  1  0  0  0
  7 10  1  0  0  0
 10 11  1  0  0  0
 11 12  1  0  0  0
 12 13  1  0  0  0
 13 14  1  0  0  0
 13 15  1  0  0  0
 15 16  1  0  0  0
  7  8  1  0  0  0
  8  9  2  0  0  0
  5 18  1  0  0  0
 18 19  2  0  0  0
 19 20  1  0  0  0
 20 21  2  0  0  0
 21 22  1  0  0  0
 22 23  2  0  0  0
 21 24  1  0  0  0
 24 25  2  0  0  0
 24 26  2  0  0  0
 24 27  1  0  0  0
 27 28  1  0  0  0
 28 29  1  0  0  0
 29 30  1  0  0  0
 30 31  1  0  0  0
 31 32  1  0  0  0
  9  1  1  0  0  0
 23 18  1  0  0  0
 32 27  1  0  0  0
  8  4  1  0  0  0
 16 10  1  0  0  0
 33 34  1  0  0  0
 14 17  1  0  0  0
M  END
> <minimizedAffinity>
-8.47629

> <CNNscore>
0.2921629250

> <CNNaffinity>
6.9148736000

> <CNN_VS>
2.0202696323

> <CNNaffinity_variance>
0.2815108597

$$$$
[H]O[C@]1([H])C([H])([H])C([H])([H])[C@@]([H])(n2c([H])c(-c3c([H])c([H])c(C([H])([H])N4C([H])([H])C([H])([H])N(C([H])([H])[H])C([H])([H])C4([H])[H])c([H])c3[H])c3c([H])nc(N([H])C4([H])C([H])([H])C([H])([H])C([H])([H])C([H])([H])C4([H])[H])nc32)C([H])([H])C1([H])[H]


 39 44  0  0  0  0  0  0  0  0999 V2000
    3.5388    3.4855   15.9886 C   0  0  0  0  0  0  0  0  0  0  0  0
    3.7166    4.6657   16.6779 C   0  0  0  0  0  0  0  0  0  0  0  0
    3.7995    4.4282   17.9886 N   0  0  0  0  0  0  0  0  0  0  0  0
    3.6759    3.0971   18.1506 C   0  0  0  0  0  0  0  0  0  0  0  0
    3.6990    2.4117   19.2980 N   0  0  0  0  0  0  0  0  0  0  0  0
    3.5540    1.0523   19.2395 C   0  0  0  0  0  0  0  0  0  0  0  0
    3.3944    0.4462   18.0530 N   0  0  0  0  0  0  0  0  0  0  0  0
    3.3656    1.1043   16.8705 C   0  0  0  0  0  0  0  0  0  0  0  0
    3.5121    2.4787   16.9276 C   0  0  0  0  0  0  0  0  0  0  0  0
    3.9871    5.4809   18.9573 C   0  0  0  0  0  0  0  0  0  0  0  0
    5.0578    5.2129   19.9535 C   0  0  0  0  0  0  0  0  0  0  0  0
    4.9098    6.2230   21.0742 C   0  0  0  0  0  0  0  0  0  0  0  0
    4.9218    7.6415   20.5593 C   0  0  0  0  0  0  0  0  0  0  0  0
    4.4906    8.4685   21.6117 O   0  0  0  0  0  0  0  0  0  0  0  0
    4.0008    7.8707   19.4073 C   0  0  0  0  0  0  0  0  0  0  0  0
    4.2628    6.8247   18.3158 C   0  0  0  0  0  0  0  0  0  0  0  0
    4.2402    9.3746   21.2911 H   0  0  0  0  0  0  0  0  0  0  0  0
    3.1844    3.0225   11.7328 C   0  0  0  0  0  0  0  0  0  0  0  0
    2.6068    2.1249   12.5985 C   0  0  0  0  0  0  0  0  0  0  0  0
    2.7158    2.2653   13.9829 C   0  0  0  0  0  0  0  0  0  0  0  0
    3.4028    3.3036   14.5394 C   0  0  0  0  0  0  0  0  0  0  0  0
    3.9946    4.2228   13.6789 C   0  0  0  0  0  0  0  0  0  0  0  0
    3.8871    4.0842   12.3122 C   0  0  0  0  0  0  0  0  0  0  0  0
    3.1158    2.9387   10.2533 C   0  0  0  0  0  0  0  0  0  0  0  0
    0.3391    2.2752    7.6571 C   0  0  0  0  0  0  0  0  0  0  0  0
    1.1472    3.4336    7.4378 N   0  0  0  0  0  0  0  0  0  0  0  0
    2.5727    3.1733    7.4654 C   0  0  0  0  0  0  0  0  0  0  0  0
    3.3287    4.1705    8.2762 C   0  0  0  0  0  0  0  0  0  0  0  0
    2.8177    4.1923    9.6350 N   0  0  0  0  0  0  0  0  0  0  0  0
    1.3967    4.4748    9.6507 C   0  0  0  0  0  0  0  0  0  0  0  0
    0.7905    4.5650    8.2678 C   0  0  0  0  0  0  0  0  0  0  0  0
    3.5778    0.2645   20.4124 N   0  0  0  0  0  0  0  0  0  0  0  0
    2.9342   -0.5540   20.4535 H   0  0  0  0  0  0  0  0  0  0  0  0
    4.4524    0.5796   21.4979 C   0  0  0  0  0  0  0  0  0  0  0  0
    3.9271    1.6400   22.4047 C   0  0  0  0  0  0  0  0  0  0  0  0
    4.9667    2.3849   23.1690 C   0  0  0  0  0  0  0  0  0  0  0  0
    6.1985    2.7456   22.4079 C   0  0  0  0  0  0  0  0  0  0  0  0
    6.7945    1.4243   21.9062 C   0  0  0  0  0  0  0  0  0  0  0  0
    5.8085    0.9006   20.8890 C   0  0  0  0  0  0  0  0  0  0  0  0
 25 26  1  0  0  0
 26 27  1  0  0  0
 27 28  1  0  0  0
 28 29  1  0  0  0
 29 24  1  0  0  0
 24 18  1  0  0  0
 18 19  2  0  0  0
 19 20  1  0  0  0
 20 21  2  0  0  0
 21 22  1  0  0  0
 22 23  2  0  0  0
 21  1  1  0  0  0
  1  2  2  0  0  0
  2  3  1  0  0  0
  3 10  1  0  0  0
 10 11  1  0  0  0
 11 12  1  0  0  0
 12 13  1  0  0  0
 13 14  1  0  0  0
 13 15  1  0  0  0
 15 16  1  0  0  0
  3  4  1  0  0  0
  4  5  2  0  0  0
  5  6  1  0  0  0
  6 32  1  0  0  0
 32 34  1  0  0  0
 34 35  1  0  0  0
 35 36  1  0  0  0
 36 37  1  0  0  0
 37 38  1  0  0  0
 38 39  1  0  0  0
  6  7  2  0  0  0
  7  8  1  0  0  0
  8  9  2  0  0  0
 29 30  1  0  0  0
 30 31  1  0  0  0
 31 26  1  0  0  0
 23 18  1  0  0  0
  9  1  1  0  0  0
 16 10  1  0  0  0
  9  4  1  0  0  0
 39 34  1  0  0  0
 14 17  1  0  0  0
 32 33  1  0  0  0
M  END
> <minimizedAffinity>
-9.43308

> <CNNscore>
0.6857709885

> <CNNaffinity>
7.4579305649

> <CNN_VS>
5.1144323349

> <CNNaffinity_variance>
0.4653128982

$$$$
[H]O[C@]1([H])C([H])([H])C([H])([H])[C@@]([H])(n2c([H])c(-c3c([H])c([H])c(C([H])([H])N4C([H])([H])C([H])([H])N(C([H])([H])[H])C([H])([H])C4([H])[H])c([H])c3[H])c3c([H])nc(N([H])C4([H])C([H])([H])C([H])([H])C([H])([H])C([H])([H])C4([H])[H])nc32)C([H])([H])C1([H])[H]


 39 44  0  0  0  0  0  0  0  0999 V2000
    3.5248    3.4907   16.0010 C   0  0  0  0  0  0  0  0  0  0  0  0
    3.7125    4.6665   16.6951 C   0  0  0  0  0  0  0  0  0  0  0  0
    3.8044    4.4217   18.0039 N   0  0  0  0  0  0  0  0  0  0  0  0
    3.6767    3.0903   18.1597 C   0  0  0  0  0  0  0  0  0  0  0  0
    3.7059    2.3987   19.3033 N   0  0  0  0  0  0  0  0  0  0  0  0
    3.5550    1.0401   19.2387 C   0  0  0  0  0  0  0  0  0  0  0  0
    3.3841    0.4410   18.0503 N   0  0  0  0  0  0  0  0  0  0  0  0
    3.3489    1.1055   16.8715 C   0  0  0  0  0  0  0  0  0  0  0  0
    3.5012    2.4790   16.9347 C   0  0  0  0  0  0  0  0  0  0  0  0
    4.0035    5.4685   18.9766 C   0  0  0  0  0  0  0  0  0  0  0  0
    5.0740    5.1867   19.9693 C   0  0  0  0  0  0  0  0  0  0  0  0
    4.9374    6.1932   21.0946 C   0  0  0  0  0  0  0  0  0  0  0  0
    4.9609    7.6138   20.5858 C   0  0  0  0  0  0  0  0  0  0  0  0
    4.5394    8.4400   21.6427 O   0  0  0  0  0  0  0  0  0  0  0  0
    4.0394    7.8561   19.4369 C   0  0  0  0  0  0  0  0  0  0  0  0
    4.2897    6.8125   18.3404 C   0  0  0  0  0  0  0  0  0  0  0  0
    4.2963    9.3496   21.3266 H   0  0  0  0  0  0  0  0  0  0  0  0
    3.0433    2.9163   11.7712 C   0  0  0  0  0  0  0  0  0  0  0  0
    3.8338    3.9245   12.2688 C   0  0  0  0  0  0  0  0  0  0  0  0
    3.9971    4.1205   13.6410 C   0  0  0  0  0  0  0  0  0  0  0  0
    3.3772    3.3170   14.5518 C   0  0  0  0  0  0  0  0  0  0  0  0
    2.5727    2.2906   14.0672 C   0  0  0  0  0  0  0  0  0  0  0  0
    2.4113    2.0970   12.7125 C   0  0  0  0  0  0  0  0  0  0  0  0
    2.8181    2.6478   10.3298 C   0  0  0  0  0  0  0  0  0  0  0  0
    4.3854    1.8872    6.8866 C   0  0  0  0  0  0  0  0  0  0  0  0
    3.3247    1.0246    7.3039 N   0  0  0  0  0  0  0  0  0  0  0  0
    2.1263    1.7228    7.7244 C   0  0  0  0  0  0  0  0  0  0  0  0
    1.5623    1.1913    8.9981 C   0  0  0  0  0  0  0  0  0  0  0  0
    2.5588    1.2701   10.0510 N   0  0  0  0  0  0  0  0  0  0  0  0
    3.7659    0.5611    9.6774 C   0  0  0  0  0  0  0  0  0  0  0  0
    3.7277    0.0201    8.2654 C   0  0  0  0  0  0  0  0  0  0  0  0
    3.5846    0.2460   20.4072 N   0  0  0  0  0  0  0  0  0  0  0  0
    2.9342   -0.5668   20.4512 H   0  0  0  0  0  0  0  0  0  0  0  0
    4.4739    0.5477   21.4846 C   0  0  0  0  0  0  0  0  0  0  0  0
    3.9291    1.5412   22.4535 C   0  0  0  0  0  0  0  0  0  0  0  0
    4.9567    2.2938   23.2265 C   0  0  0  0  0  0  0  0  0  0  0  0
    6.1516    2.7419   22.4533 C   0  0  0  0  0  0  0  0  0  0  0  0
    6.7888    1.4723   21.8748 C   0  0  0  0  0  0  0  0  0  0  0  0
    5.7988    0.9546   20.8585 C   0  0  0  0  0  0  0  0  0  0  0  0
 25 26  1  0  0  0
 26 27  1  0  0  0
 27 28  1  0  0  0
 28 29  1  0  0  0
 29 24  1  0  0  0
 24 18  1  0  0  0
 18 19  2  0  0  0
 19 20  1  0  0  0
 20 21  2  0  0  0
 21 22  1  0  0  0
 22 23  2  0  0  0
 21  1  1  0  0  0
  1  2  2  0  0  0
  2  3  1  0  0  0
  3 10  1  0  0  0
 10 11  1  0  0  0
 11 12  1  0  0  0
 12 13  1  0  0  0
 13 14  1  0  0  0
 13 15  1  0  0  0
 15 16  1  0  0  0
  3  4  1  0  0  0
  4  5  2  0  0  0
  5  6  1  0  0  0
  6 32  1  0  0  0
 32 34  1  0  0  0
 34 35  1  0  0  0
 35 36  1  0  0  0
 36 37  1  0  0  0
 37 38  1  0  0  0
 38 39  1  0  0  0
  6  7  2  0  0  0
  7  8  1  0  0  0
  8  9  2  0  0  0
 29 30  1  0  0  0
 30 31  1  0  0  0
 31 26  1  0  0  0
 23 18  1  0  0  0
  9  1  1  0  0  0
 16 10  1  0  0  0
  9  4  1  0  0  0
 39 34  1  0  0  0
 14 17  1  0  0  0
 32 33  1  0  0  0
M  END
> <minimizedAffinity>
-9.71453

> <CNNscore>
0.6691196561

> <CNNaffinity>
7.4818320274

> <CNN_VS>
5.0062408447

> <CNNaffinity_variance>
0.4391543865

$$$$
[H]O[C@]1([H])C([H])([H])C([H])([H])[C@@]([H])(n2c([H])c(-c3c([H])c([H])c(C([H])([H])N4C([H])([H])C([H])([H])N(C([H])([H])[H])C([H])([H])C4([H])[H])c([H])c3[H])c3c([H])nc(N([H])C4([H])C([H])([H])C([H])([H])C([H])([H])C([H])([H])C4([H])[H])nc32)C([H])([H])C1([H])[H]


 39 44  0  0  0  0  0  0  0  0999 V2000
    3.5157    3.6312   15.1748 C   0  0  0  0  0  0  0  0  0  0  0  0
    3.8222    4.9224   15.5469 C   0  0  0  0  0  0  0  0  0  0  0  0
    4.1613    4.9641   16.8370 N   0  0  0  0  0  0  0  0  0  0  0  0
    4.0754    3.7033   17.3020 C   0  0  0  0  0  0  0  0  0  0  0  0
    4.3251    3.2754   18.5436 N   0  0  0  0  0  0  0  0  0  0  0  0
    4.1751    1.9411   18.8076 C   0  0  0  0  0  0  0  0  0  0  0  0
    3.7874    1.1049   17.8325 N   0  0  0  0  0  0  0  0  0  0  0  0
    3.5253    1.4989   16.5642 C   0  0  0  0  0  0  0  0  0  0  0  0
    3.6765    2.8474   16.2953 C   0  0  0  0  0  0  0  0  0  0  0  0
    4.5325    6.1895   17.5022 C   0  0  0  0  0  0  0  0  0  0  0  0
    3.6311    6.5773   18.6193 C   0  0  0  0  0  0  0  0  0  0  0  0
    3.9421    8.0149   18.9863 C   0  0  0  0  0  0  0  0  0  0  0  0
    5.4032    8.2104   19.3095 C   0  0  0  0  0  0  0  0  0  0  0  0
    5.6385    9.5962   19.3449 O   0  0  0  0  0  0  0  0  0  0  0  0
    6.3271    7.6282   18.2919 C   0  0  0  0  0  0  0  0  0  0  0  0
    5.9528    6.1639   18.0270 C   0  0  0  0  0  0  0  0  0  0  0  0
    6.6083    9.8076   19.3108 H   0  0  0  0  0  0  0  0  0  0  0  0
    2.3480    2.2828   11.2670 C   0  0  0  0  0  0  0  0  0  0  0  0
    1.7623    1.7743   12.4017 C   0  0  0  0  0  0  0  0  0  0  0  0
    2.1341    2.2049   13.6762 C   0  0  0  0  0  0  0  0  0  0  0  0
    3.0985    3.1527   13.8523 C   0  0  0  0  0  0  0  0  0  0  0  0
    3.7030    3.6795   12.7154 C   0  0  0  0  0  0  0  0  0  0  0  0
    3.3361    3.2544   11.4570 C   0  0  0  0  0  0  0  0  0  0  0  0
    2.0100    1.8739    9.8817 C   0  0  0  0  0  0  0  0  0  0  0  0
    0.7517   -0.6896    7.2864 C   0  0  0  0  0  0  0  0  0  0  0  0
    2.1353   -0.7697    7.6361 N   0  0  0  0  0  0  0  0  0  0  0  0
    2.3813   -0.8306    9.0631 C   0  0  0  0  0  0  0  0  0  0  0  0
    3.4711    0.0869    9.5033 C   0  0  0  0  0  0  0  0  0  0  0  0
    3.1493    1.4522    9.1289 N   0  0  0  0  0  0  0  0  0  0  0  0
    2.9201    1.5589    7.7022 C   0  0  0  0  0  0  0  0  0  0  0  0
    2.9638    0.2257    6.9891 C   0  0  0  0  0  0  0  0  0  0  0  0
    4.4307    1.4186   20.0955 N   0  0  0  0  0  0  0  0  0  0  0  0
    4.3065    0.3929   20.2302 H   0  0  0  0  0  0  0  0  0  0  0  0
    4.8444    2.2662   21.1693 C   0  0  0  0  0  0  0  0  0  0  0  0
    6.2023    1.9490   21.6966 C   0  0  0  0  0  0  0  0  0  0  0  0
    6.4463    2.3772   23.1026 C   0  0  0  0  0  0  0  0  0  0  0  0
    5.3203    2.1506   24.0552 C   0  0  0  0  0  0  0  0  0  0  0  0
    4.1219    2.9267   23.4947 C   0  0  0  0  0  0  0  0  0  0  0  0
    3.7443    2.2135   22.2180 C   0  0  0  0  0  0  0  0  0  0  0  0
 25 26  1  0  0  0
 26 27  1  0  0  0
 27 28  1  0  0  0
 28 29  1  0  0  0
 29 24  1  0  0  0
 24 18  1  0  0  0
 18 19  2  0  0  0
 19 20  1  0  0  0
 20 21  2  0  0  0
 21 22  1  0  0  0
 22 23  2  0  0  0
 21  1  1  0  0  0
  1  2  2  0  0  0
  2  3  1  0  0  0
  3 10  1  0  0  0
 10 11  1  0  0  0
 11 12  1  0  0  0
 12 13  1  0  0  0
 13 14  1  0  0  0
 13 15  1  0  0  0
 15 16  1  0  0  0
  3  4  1  0  0  0
  4  5  2  0  0  0
  5  6  1  0  0  0
  6 32  1  0  0  0
 32 34  1  0  0  0
 34 35  1  0  0  0
 35 36  1  0  0  0
 36 37  1  0  0  0
 37 38  1  0  0  0
 38 39  1  0  0  0
  6  7  2  0  0  0
  7  8  1  0  0  0
  8  9  2  0  0  0
 29 30  1  0  0  0
 30 31  1  0  0  0
 31 26  1  0  0  0
 23 18  1  0  0  0
  9  1  1  0  0  0
 16 10  1  0  0  0
  9  4  1  0  0  0
 39 34  1  0  0  0
 14 17  1  0  0  0
 32 33  1  0  0  0
M  END
> <minimizedAffinity>
-8.77378

> <CNNscore>
0.4588726461

> <CNNaffinity>
7.0305685997

> <CNN_VS>
3.2261357307

> <CNNaffinity_variance>
0.3765160739

$$$$
[H]O[C@]1([H])C([H])([H])C([H])([H])[C@@]([H])(n2c([H])c(-c3c([H])c([H])c(C([H])([H])N4C([H])([H])C([H])([H])N(C([H])([H])[H])C([H])([H])C4([H])[H])c([H])c3[H])c3c([H])nc(N([H])C4([H])C([H])([H])C([H])([H])C([H])([H])C([H])([H])C4([H])[H])nc32)C([H])([H])C1([H])[H]


 39 44  0  0  0  0  0  0  0  0999 V2000
    2.8118    2.9473   12.4508 C   0  0  0  0  0  0  0  0  0  0  0  0
    3.1301    4.2742   12.2570 C   0  0  0  0  0  0  0  0  0  0  0  0
    3.4701    4.8426   13.4157 N   0  0  0  0  0  0  0  0  0  0  0  0
    3.3729    3.8875   14.3600 C   0  0  0  0  0  0  0  0  0  0  0  0
    3.6191    4.0091   15.6683 N   0  0  0  0  0  0  0  0  0  0  0  0
    3.4569    2.9045   16.4597 C   0  0  0  0  0  0  0  0  0  0  0  0
    3.0613    1.7433   15.9161 N   0  0  0  0  0  0  0  0  0  0  0  0
    2.8025    1.5800   14.5975 C   0  0  0  0  0  0  0  0  0  0  0  0
    2.9658    2.6955   13.7957 C   0  0  0  0  0  0  0  0  0  0  0  0
    3.8526    6.2302   13.5162 C   0  0  0  0  0  0  0  0  0  0  0  0
    4.3863    6.8112   12.2559 C   0  0  0  0  0  0  0  0  0  0  0  0
    5.0424    8.1342   12.5984 C   0  0  0  0  0  0  0  0  0  0  0  0
    4.0974    9.0606   13.3238 C   0  0  0  0  0  0  0  0  0  0  0  0
    4.8686   10.1139   13.8463 O   0  0  0  0  0  0  0  0  0  0  0  0
    3.3871    8.4187   14.4689 C   0  0  0  0  0  0  0  0  0  0  0  0
    2.7248    7.1147   14.0050 C   0  0  0  0  0  0  0  0  0  0  0  0
    4.3711   10.6311   14.5329 H   0  0  0  0  0  0  0  0  0  0  0  0
    1.4979    0.0876    9.5272 C   0  0  0  0  0  0  0  0  0  0  0  0
    2.8206    0.4467    9.6295 C   0  0  0  0  0  0  0  0  0  0  0  0
    3.2585    1.3750   10.5754 C   0  0  0  0  0  0  0  0  0  0  0  0
    2.3899    1.9685   11.4430 C   0  0  0  0  0  0  0  0  0  0  0  0
    1.0465    1.6175   11.3547 C   0  0  0  0  0  0  0  0  0  0  0  0
    0.6140    0.7011   10.4209 C   0  0  0  0  0  0  0  0  0  0  0  0
    0.9566   -0.8863    8.5479 C   0  0  0  0  0  0  0  0  0  0  0  0
    0.6368   -4.1108    6.4524 C   0  0  0  0  0  0  0  0  0  0  0  0
   -0.5621   -3.6339    7.0674 N   0  0  0  0  0  0  0  0  0  0  0  0
   -0.8466   -2.2375    6.8028 C   0  0  0  0  0  0  0  0  0  0  0  0
   -1.2439   -1.4847    8.0269 C   0  0  0  0  0  0  0  0  0  0  0  0
   -0.1968   -1.5806    9.0280 N   0  0  0  0  0  0  0  0  0  0  0  0
    0.0995   -2.9645    9.3383 C   0  0  0  0  0  0  0  0  0  0  0  0
   -0.6640   -3.9462    8.4774 C   0  0  0  0  0  0  0  0  0  0  0  0
    3.7082    2.9590   17.8492 N   0  0  0  0  0  0  0  0  0  0  0  0
    3.3993    2.1470   18.4246 H   0  0  0  0  0  0  0  0  0  0  0  0
    4.3618    4.0846   18.4395 C   0  0  0  0  0  0  0  0  0  0  0  0
    5.2643    3.7299   19.5719 C   0  0  0  0  0  0  0  0  0  0  0  0
    5.5105    4.8289   20.5473 C   0  0  0  0  0  0  0  0  0  0  0  0
    4.3209    5.6534   20.9104 C   0  0  0  0  0  0  0  0  0  0  0  0
    3.7989    6.2536   19.5990 C   0  0  0  0  0  0  0  0  0  0  0  0
    3.2732    5.0823   18.8035 C   0  0  0  0  0  0  0  0  0  0  0  0
 25 26  1  0  0  0
 26 27  1  0  0  0
 27 28  1  0  0  0
 28 29  1  0  0  0
 29 24  1  0  0  0
 24 18  1  0  0  0
 18 19  2  0  0  0
 19 20  1  0  0  0
 20 21  2  0  0  0
 21 22  1  0  0  0
 22 23  2  0  0  0
 21  1  1  0  0  0
  1  2  2  0  0  0
  2  3  1  0  0  0
  3 10  1  0  0  0
 10 11  1  0  0  0
 11 12  1  0  0  0
 12 13  1  0  0  0
 13 14  1  0  0  0
 13 15  1  0  0  0
 15 16  1  0  0  0
  3  4  1  0  0  0
  4  5  2  0  0  0
  5  6  1  0  0  0
  6 32  1  0  0  0
 32 34  1  0  0  0
 34 35  1  0  0  0
 35 36  1  0  0  0
 36 37  1  0  0  0
 37 38  1  0  0  0
 38 39  1  0  0  0
  6  7  2  0  0  0
  7  8  1  0  0  0
  8  9  2  0  0  0
 29 30  1  0  0  0
 30 31  1  0  0  0
 31 26  1  0  0  0
 23 18  1  0  0  0
  9  1  1  0  0  0
 16 10  1  0  0  0
  9  4  1  0  0  0
 39 34  1  0  0  0
 14 17  1  0  0  0
 32 33  1  0  0  0
M  END
> <minimizedAffinity>
-7.34568

> <CNNscore>
0.2483802438

> <CNNaffinity>
6.5015845299

> <CNN_VS>
1.6148651838

> <CNNaffinity_variance>
0.7704488039

$$$$
[H]O[C@]1([H])C([H])([H])C([H])([H])[C@@]([H])(n2c([H])c(-c3c([H])c([H])c(C([H])([H])N4C([H])([H])C([H])([H])N(C([H])([H])[H])C([H])([H])C4([H])[H])c([H])c3[H])c3c([H])nc(N([H])C4([H])C([H])([H])C([H])([H])C([H])([H])C([H])([H])C4([H])[H])nc32)C([H])([H])C1([H])[H]


 39 44  0  0  0  0  0  0  0  0999 V2000
    2.6321    2.4982   13.5598 C   0  0  0  0  0  0  0  0  0  0  0  0
    2.6659    1.6550   14.6495 C   0  0  0  0  0  0  0  0  0  0  0  0
    2.8554    2.3545   15.7702 N   0  0  0  0  0  0  0  0  0  0  0  0
    2.9446    3.6488   15.4096 C   0  0  0  0  0  0  0  0  0  0  0  0
    3.1349    4.7042   16.2077 N   0  0  0  0  0  0  0  0  0  0  0  0
    3.1961    5.9443   15.6322 C   0  0  0  0  0  0  0  0  0  0  0  0
    3.0661    6.0729   14.3029 N   0  0  0  0  0  0  0  0  0  0  0  0
    2.8723    5.0301   13.4620 C   0  0  0  0  0  0  0  0  0  0  0  0
    2.8102    3.7756   14.0418 C   0  0  0  0  0  0  0  0  0  0  0  0
    2.9335    1.7317   17.0694 C   0  0  0  0  0  0  0  0  0  0  0  0
    2.6322    0.2757   17.0697 C   0  0  0  0  0  0  0  0  0  0  0  0
    2.4267   -0.1535   18.5091 C   0  0  0  0  0  0  0  0  0  0  0  0
    3.6064    0.2072   19.3784 C   0  0  0  0  0  0  0  0  0  0  0  0
    3.2032    0.0403   20.7151 O   0  0  0  0  0  0  0  0  0  0  0  0
    4.0575    1.6215   19.2231 C   0  0  0  0  0  0  0  0  0  0  0  0
    4.2767    1.9374   17.7377 C   0  0  0  0  0  0  0  0  0  0  0  0
    3.8289    0.4812   21.3479 H   0  0  0  0  0  0  0  0  0  0  0  0
    2.0043    1.4123    9.4514 C   0  0  0  0  0  0  0  0  0  0  0  0
    3.1845    1.9815    9.8664 C   0  0  0  0  0  0  0  0  0  0  0  0
    3.3991    2.3386   11.1986 C   0  0  0  0  0  0  0  0  0  0  0  0
    2.4436    2.1373   12.1505 C   0  0  0  0  0  0  0  0  0  0  0  0
    1.2421    1.5619   11.7494 C   0  0  0  0  0  0  0  0  0  0  0  0
    1.0300    1.2095   10.4343 C   0  0  0  0  0  0  0  0  0  0  0  0
    1.7011    1.0101    8.0561 C   0  0  0  0  0  0  0  0  0  0  0  0
   -0.0596   -0.4259    4.9370 C   0  0  0  0  0  0  0  0  0  0  0  0
    0.5704    0.8474    4.7785 N   0  0  0  0  0  0  0  0  0  0  0  0
    1.9504    0.8827    5.2199 C   0  0  0  0  0  0  0  0  0  0  0  0
    2.2624    2.0793    6.0528 C   0  0  0  0  0  0  0  0  0  0  0  0
    1.3865    2.1183    7.2101 N   0  0  0  0  0  0  0  0  0  0  0  0
   -0.0055    2.1093    6.8080 C   0  0  0  0  0  0  0  0  0  0  0  0
   -0.1949    1.9528    5.3156 C   0  0  0  0  0  0  0  0  0  0  0  0
    3.3862    7.1043   16.4165 N   0  0  0  0  0  0  0  0  0  0  0  0
    2.7866    7.9298   16.2049 H   0  0  0  0  0  0  0  0  0  0  0  0
    4.3627    7.1407   17.4595 C   0  0  0  0  0  0  0  0  0  0  0  0
    5.6059    6.3800   17.1457 C   0  0  0  0  0  0  0  0  0  0  0  0
    6.3751    5.9154   18.3340 C   0  0  0  0  0  0  0  0  0  0  0  0
    5.5625    5.3764   19.4635 C   0  0  0  0  0  0  0  0  0  0  0  0
    4.6164    6.5064   19.8883 C   0  0  0  0  0  0  0  0  0  0  0  0
    3.6627    6.6869   18.7312 C   0  0  0  0  0  0  0  0  0  0  0  0
 25 26  1  0  0  0
 26 27  1  0  0  0
 27 28  1  0  0  0
 28 29  1  0  0  0
 29 24  1  0  0  0
 24 18  1  0  0  0
 18 19  2  0  0  0
 19 20  1  0  0  0
 20 21  2  0  0  0
 21 22  1  0  0  0
 22 23  2  0  0  0
 21  1  1  0  0  0
  1  2  2  0  0  0
  2  3  1  0  0  0
  3 10  1  0  0  0
 10 11  1  0  0  0
 11 12  1  0  0  0
 12 13  1  0  0  0
 13 14  1  0  0  0
 13 15  1  0  0  0
 15 16  1  0  0  0
  3  4  1  0  0  0
  4  5  2  0  0  0
  5  6  1  0  0  0
  6 32  1  0  0  0
 32 34  1  0  0  0
 34 35  1  0  0  0
 35 36  1  0  0  0
 36 37  1  0  0  0
 37 38  1  0  0  0
 38 39  1  0  0  0
  6  7  2  0  0  0
  7  8  1  0  0  0
  8  9  2  0  0  0
 29 30  1  0  0  0
 30 31  1  0  0  0
 31 26  1  0  0  0
 23 18  1  0  0  0
  9  1  1  0  0  0
 16 10  1  0  0  0
  9  4  1  0  0  0
 39 34  1  0  0  0
 14 17  1  0  0  0
 32 33  1  0  0  0
M  END
> <minimizedAffinity>
-7.43118

> <CNNscore>
0.1984887719

> <CNNaffinity>
6.4345779419

> <CNN_VS>
1.2771915197

> <CNNaffinity_variance>
0.2684325278

$$$$
[H]O[C@]1([H])C([H])([H])C([H])([H])[C@@]([H])(n2c([H])c(-c3c([H])c([H])c(C([H])([H])N4C([H])([H])C([H])([H])N(C([H])([H])[H])C([H])([H])C4([H])[H])c([H])c3[H])c3c([H])nc(N([H])C4([H])C([H])([H])C([H])([H])C([H])([H])C([H])([H])C4([H])[H])nc32)C([H])([H])C1([H])[H]


 39 44  0  0  0  0  0  0  0  0999 V2000
    2.1241    5.3055   14.0722 C   0  0  0  0  0  0  0  0  0  0  0  0
    0.8421    5.4012   13.5752 C   0  0  0  0  0  0  0  0  0  0  0  0
    0.8300    5.1240   12.2697 N   0  0  0  0  0  0  0  0  0  0  0  0
    2.1008    4.8489   11.9194 C   0  0  0  0  0  0  0  0  0  0  0  0
    2.5570    4.5182   10.7072 N   0  0  0  0  0  0  0  0  0  0  0  0
    3.8967    4.2775   10.5665 C   0  0  0  0  0  0  0  0  0  0  0  0
    4.7101    4.3766   11.6290 N   0  0  0  0  0  0  0  0  0  0  0  0
    4.2872    4.7084   12.8714 C   0  0  0  0  0  0  0  0  0  0  0  0
    2.9331    4.9522   13.0156 C   0  0  0  0  0  0  0  0  0  0  0  0
   -0.3794    5.1465   11.4832 C   0  0  0  0  0  0  0  0  0  0  0  0
   -1.6312    5.1713   12.2852 C   0  0  0  0  0  0  0  0  0  0  0  0
   -2.7841    4.8577   11.3523 C   0  0  0  0  0  0  0  0  0  0  0  0
   -2.8210    5.7927   10.1682 C   0  0  0  0  0  0  0  0  0  0  0  0
   -3.7207    5.2462    9.2360 O   0  0  0  0  0  0  0  0  0  0  0  0
   -1.5050    5.9439    9.4805 C   0  0  0  0  0  0  0  0  0  0  0  0
   -0.4207    6.3020   10.5054 C   0  0  0  0  0  0  0  0  0  0  0  0
   -3.6233    5.6631    8.3398 H   0  0  0  0  0  0  0  0  0  0  0  0
    3.4787    6.0237   18.0849 C   0  0  0  0  0  0  0  0  0  0  0  0
    2.6514    4.9666   17.7897 C   0  0  0  0  0  0  0  0  0  0  0  0
    2.2050    4.7240   16.4897 C   0  0  0  0  0  0  0  0  0  0  0  0
    2.5716    5.5283   15.4514 C   0  0  0  0  0  0  0  0  0  0  0  0
    3.4089    6.6038   15.7305 C   0  0  0  0  0  0  0  0  0  0  0  0
    3.8497    6.8434   17.0139 C   0  0  0  0  0  0  0  0  0  0  0  0
    3.9908    6.3479   19.4388 C   0  0  0  0  0  0  0  0  0  0  0  0
    6.3734    7.3655   22.2987 C   0  0  0  0  0  0  0  0  0  0  0  0
    6.3135    5.9711   21.9904 N   0  0  0  0  0  0  0  0  0  0  0  0
    6.5090    5.6674   20.5868 C   0  0  0  0  0  0  0  0  0  0  0  0
    5.5158    4.6872   20.0617 C   0  0  0  0  0  0  0  0  0  0  0  0
    4.1694    5.1926   20.2611 N   0  0  0  0  0  0  0  0  0  0  0  0
    3.9266    5.4852   21.6592 C   0  0  0  0  0  0  0  0  0  0  0  0
    5.1497    5.2993   22.5294 C   0  0  0  0  0  0  0  0  0  0  0  0
    4.4458    3.9147    9.3160 N   0  0  0  0  0  0  0  0  0  0  0  0
    3.8767    4.1144    8.4663 H   0  0  0  0  0  0  0  0  0  0  0  0
    5.7322    3.2990    9.2232 C   0  0  0  0  0  0  0  0  0  0  0  0
    6.7774    4.1777    8.6248 C   0  0  0  0  0  0  0  0  0  0  0  0
    7.9216    3.4570    7.9993 C   0  0  0  0  0  0  0  0  0  0  0  0
    7.5685    2.2468    7.2011 C   0  0  0  0  0  0  0  0  0  0  0  0
    6.8414    1.2971    8.1613 C   0  0  0  0  0  0  0  0  0  0  0  0
    5.5357    1.9814    8.4895 C   0  0  0  0  0  0  0  0  0  0  0  0
 25 26  1  0  0  0
 26 27  1  0  0  0
 27 28  1  0  0  0
 28 29  1  0  0  0
 29 24  1  0  0  0
 24 18  1  0  0  0
 18 19  2  0  0  0
 19 20  1  0  0  0
 20 21  2  0  0  0
 21 22  1  0  0  0
 22 23  2  0  0  0
 21  1  1  0  0  0
  1  2  2  0  0  0
  2  3  1  0  0  0
  3 10  1  0  0  0
 10 11  1  0  0  0
 11 12  1  0  0  0
 12 13  1  0  0  0
 13 14  1  0  0  0
 13 15  1  0  0  0
 15 16  1  0  0  0
  3  4  1  0  0  0
  4  5  2  0  0  0
  5  6  1  0  0  0
  6 32  1  0  0  0
 32 34  1  0  0  0
 34 35  1  0  0  0
 35 36  1  0  0  0
 36 37  1  0  0  0
 37 38  1  0  0  0
 38 39  1  0  0  0
  6  7  2  0  0  0
  7  8  1  0  0  0
  8  9  2  0  0  0
 29 30  1  0  0  0
 30 31  1  0  0  0
 31 26  1  0  0  0
 23 18  1  0  0  0
  9  1  1  0  0  0
 16 10  1  0  0  0
  9  4  1  0  0  0
 39 34  1  0  0  0
 14 17  1  0  0  0
 32 33  1  0  0  0
M  END
> <minimizedAffinity>
-7.48520

> <CNNscore>
0.1540804058

> <CNNaffinity>
6.0747084618

> <CNN_VS>
0.9359935522

> <CNNaffinity_variance>
0.3673343956

$$$$
[H]O[C@]1([H])C([H])([H])C([H])([H])[C@@]([H])(n2c([H])c(-c3c([H])c([H])c(C([H])([H])N4C([H])([H])C([H])([H])N(C([H])([H])[H])C([H])([H])C4([H])[H])c([H])c3[H])c3c([H])nc(N([H])C4([H])C([H])([H])C([H])([H])C([H])([H])C([H])([H])C4([H])[H])nc32)C([H])([H])C1([H])[H]


 39 44  0  0  0  0  0  0  0  0999 V2000
    4.4700    4.7544   17.8799 C   0  0  0  0  0  0  0  0  0  0  0  0
    4.3496    3.9994   19.0266 C   0  0  0  0  0  0  0  0  0  0  0  0
    5.1960    4.4382   19.9606 N   0  0  0  0  0  0  0  0  0  0  0  0
    5.8647    5.4756   19.4221 C   0  0  0  0  0  0  0  0  0  0  0  0
    6.8128    6.2201   19.9998 N   0  0  0  0  0  0  0  0  0  0  0  0
    7.3690    7.2351   19.2696 C   0  0  0  0  0  0  0  0  0  0  0  0
    6.9587    7.4579   18.0117 N   0  0  0  0  0  0  0  0  0  0  0  0
    6.0025    6.7271   17.3921 C   0  0  0  0  0  0  0  0  0  0  0  0
    5.4390    5.7006   18.1286 C   0  0  0  0  0  0  0  0  0  0  0  0
    5.2892    3.8348   21.2679 C   0  0  0  0  0  0  0  0  0  0  0  0
    4.0644    3.9798   22.0983 C   0  0  0  0  0  0  0  0  0  0  0  0
    4.4246    3.6058   23.5225 C   0  0  0  0  0  0  0  0  0  0  0  0
    5.0366    2.2289   23.6058 C   0  0  0  0  0  0  0  0  0  0  0  0
    5.5941    2.0997   24.8903 O   0  0  0  0  0  0  0  0  0  0  0  0
    6.1330    1.9978   22.6197 C   0  0  0  0  0  0  0  0  0  0  0  0
    5.6509    2.3654   21.2102 C   0  0  0  0  0  0  0  0  0  0  0  0
    6.2189    1.3297   24.9464 H   0  0  0  0  0  0  0  0  0  0  0  0
    2.3475    4.2643   14.1776 C   0  0  0  0  0  0  0  0  0  0  0  0
    1.9060    5.1375   15.1428 C   0  0  0  0  0  0  0  0  0  0  0  0
    2.5875    5.3044   16.3494 C   0  0  0  0  0  0  0  0  0  0  0  0
    3.7258    4.6059   16.6245 C   0  0  0  0  0  0  0  0  0  0  0  0
    4.1885    3.7170   15.6594 C   0  0  0  0  0  0  0  0  0  0  0  0
    3.5157    3.5520   14.4682 C   0  0  0  0  0  0  0  0  0  0  0  0
    1.6773    4.0299   12.8751 C   0  0  0  0  0  0  0  0  0  0  0  0
   -0.1905    2.8373    9.7161 C   0  0  0  0  0  0  0  0  0  0  0  0
   -0.1674    4.2483    9.9431 N   0  0  0  0  0  0  0  0  0  0  0  0
    1.1574    4.7873   10.1773 C   0  0  0  0  0  0  0  0  0  0  0  0
    1.2054    5.7258   11.3348 C   0  0  0  0  0  0  0  0  0  0  0  0
    0.7406    5.0544   12.5353 N   0  0  0  0  0  0  0  0  0  0  0  0
   -0.5940    4.5220   12.3486 C   0  0  0  0  0  0  0  0  0  0  0  0
   -1.1158    4.6989   10.9399 C   0  0  0  0  0  0  0  0  0  0  0  0
    8.3696    8.0671   19.8204 N   0  0  0  0  0  0  0  0  0  0  0  0
    8.6200    8.9298   19.2926 H   0  0  0  0  0  0  0  0  0  0  0  0
    9.0107    7.7363   21.0542 C   0  0  0  0  0  0  0  0  0  0  0  0
    9.3927    8.9238   21.8705 C   0  0  0  0  0  0  0  0  0  0  0  0
   10.5113    8.6950   22.8276 C   0  0  0  0  0  0  0  0  0  0  0  0
   11.6494    7.8786   22.3131 C   0  0  0  0  0  0  0  0  0  0  0  0
   11.0552    6.5254   21.9026 C   0  0  0  0  0  0  0  0  0  0  0  0
   10.1746    6.8194   20.7113 C   0  0  0  0  0  0  0  0  0  0  0  0
 25 26  1  0  0  0
 26 27  1  0  0  0
 27 28  1  0  0  0
 28 29  1  0  0  0
 29 24  1  0  0  0
 24 18  1  0  0  0
 18 19  2  0  0  0
 19 20  1  0  0  0
 20 21  2  0  0  0
 21 22  1  0  0  0
 22 23  2  0  0  0
 21  1  1  0  0  0
  1  2  2  0  0  0
  2  3  1  0  0  0
  3 10  1  0  0  0
 10 11  1  0  0  0
 11 12  1  0  0  0
 12 13  1  0  0  0
 13 14  1  0  0  0
 13 15  1  0  0  0
 15 16  1  0  0  0
  3  4  1  0  0  0
  4  5  2  0  0  0
  5  6  1  0  0  0
  6 32  1  0  0  0
 32 34  1  0  0  0
 34 35  1  0  0  0
 35 36  1  0  0  0
 36 37  1  0  0  0
 37 38  1  0  0  0
 38 39  1  0  0  0
  6  7  2  0  0  0
  7  8  1  0  0  0
  8  9  2  0  0  0
 29 30  1  0  0  0
 30 31  1  0  0  0
 31 26  1  0  0  0
 23 18  1  0  0  0
  9  1  1  0  0  0
 16 10  1  0  0  0
  9  4  1  0  0  0
 39 34  1  0  0  0
 14 17  1  0  0  0
 32 33  1  0  0  0
M  END
> <minimizedAffinity>
-8.69488

> <CNNscore>
0.1523335278

> <CNNaffinity>
6.5705885887

> <CNN_VS>
1.0009208918

> <CNNaffinity_variance>
0.0615759194

$$$$
[H]O[C@]1([H])C([H])([H])C([H])([H])[C@@]([H])(n2c([H])c(-c3c([H])c([H])c(C([H])([H])N4C([H])([H])C([H])([H])N(C([H])([H])[H])C([H])([H])C4([H])[H])c([H])c3[H])c3c([H])nc(N([H])C4([H])C([H])([H])C([H])([H])C([H])([H])C([H])([H])C4([H])[H])nc32)C([H])([H])C1([H])[H]


 39 44  0  0  0  0  0  0  0  0999 V2000
    2.1418    3.5535   11.7395 C   0  0  0  0  0  0  0  0  0  0  0  0
    0.8153    3.8933   11.5823 C   0  0  0  0  0  0  0  0  0  0  0  0
    0.4050    4.6427   12.6077 N   0  0  0  0  0  0  0  0  0  0  0  0
    1.4621    4.7895   13.4288 C   0  0  0  0  0  0  0  0  0  0  0  0
    1.5091    5.4652   14.5813 N   0  0  0  0  0  0  0  0  0  0  0  0
    2.6933    5.4884   15.2666 C   0  0  0  0  0  0  0  0  0  0  0  0
    3.7635    4.8441   14.7766 N   0  0  0  0  0  0  0  0  0  0  0  0
    3.7561    4.1498   13.6146 C   0  0  0  0  0  0  0  0  0  0  0  0
    2.5598    4.1252   12.9203 C   0  0  0  0  0  0  0  0  0  0  0  0
   -0.9435    5.1455   12.7101 C   0  0  0  0  0  0  0  0  0  0  0  0
   -1.0347    6.5869   13.0632 C   0  0  0  0  0  0  0  0  0  0  0  0
   -2.4697    6.8766   13.4567 C   0  0  0  0  0  0  0  0  0  0  0  0
   -3.4430    6.4686   12.3778 C   0  0  0  0  0  0  0  0  0  0  0  0
   -4.7291    6.5016   12.9454 O   0  0  0  0  0  0  0  0  0  0  0  0
   -3.2209    5.0868   11.8591 C   0  0  0  0  0  0  0  0  0  0  0  0
   -1.7520    4.9145   11.4507 C   0  0  0  0  0  0  0  0  0  0  0  0
   -5.3931    6.0209   12.3846 H   0  0  0  0  0  0  0  0  0  0  0  0
    4.5439    1.1160    9.1433 C   0  0  0  0  0  0  0  0  0  0  0  0
    4.6584    2.4856    9.1436 C   0  0  0  0  0  0  0  0  0  0  0  0
    3.8828    3.2873    9.9825 C   0  0  0  0  0  0  0  0  0  0  0  0
    2.9740    2.7446   10.8422 C   0  0  0  0  0  0  0  0  0  0  0  0
    2.8438    1.3596   10.8564 C   0  0  0  0  0  0  0  0  0  0  0  0
    3.6094    0.5680   10.0282 C   0  0  0  0  0  0  0  0  0  0  0  0
    5.3286    0.1993    8.2805 C   0  0  0  0  0  0  0  0  0  0  0  0
    3.9542   -3.3958    8.0023 C   0  0  0  0  0  0  0  0  0  0  0  0
    4.2880   -2.7487    6.7723 N   0  0  0  0  0  0  0  0  0  0  0  0
    5.6225   -2.1838    6.7452 C   0  0  0  0  0  0  0  0  0  0  0  0
    5.6553   -0.8001    6.1909 C   0  0  0  0  0  0  0  0  0  0  0  0
    4.7834    0.0639    6.9662 N   0  0  0  0  0  0  0  0  0  0  0  0
    3.4311   -0.4555    6.9963 C   0  0  0  0  0  0  0  0  0  0  0  0
    3.2928   -1.8004    6.3180 C   0  0  0  0  0  0  0  0  0  0  0  0
    2.8170    6.1905   16.4868 N   0  0  0  0  0  0  0  0  0  0  0  0
    2.2058    7.0230   16.6250 H   0  0  0  0  0  0  0  0  0  0  0  0
    3.7441    5.7721   17.4907 C   0  0  0  0  0  0  0  0  0  0  0  0
    3.3918    4.4722   18.1300 C   0  0  0  0  0  0  0  0  0  0  0  0
    3.9504    4.2721   19.4966 C   0  0  0  0  0  0  0  0  0  0  0  0
    3.9059    5.4613   20.3968 C   0  0  0  0  0  0  0  0  0  0  0  0
    4.6987    6.5660   19.6871 C   0  0  0  0  0  0  0  0  0  0  0  0
    3.8806    6.9276   18.4701 C   0  0  0  0  0  0  0  0  0  0  0  0
 25 26  1  0  0  0
 26 27  1  0  0  0
 27 28  1  0  0  0
 28 29  1  0  0  0
 29 24  1  0  0  0
 24 18  1  0  0  0
 18 19  2  0  0  0
 19 20  1  0  0  0
 20 21  2  0  0  0
 21 22  1  0  0  0
 22 23  2  0  0  0
 21  1  1  0  0  0
  1  2  2  0  0  0
  2  3  1  0  0  0
  3 10  1  0  0  0
 10 11  1  0  0  0
 11 12  1  0  0  0
 12 13  1  0  0  0
 13 14  1  0  0  0
 13 15  1  0  0  0
 15 16  1  0  0  0
  3  4  1  0  0  0
  4  5  2  0  0  0
  5  6  1  0  0  0
  6 32  1  0  0  0
 32 34  1  0  0  0
 34 35  1  0  0  0
 35 36  1  0  0  0
 36 37  1  0  0  0
 37 38  1  0  0  0
 38 39  1  0  0  0
  6  7  2  0  0  0
  7  8  1  0  0  0
  8  9  2  0  0  0
 29 30  1  0  0  0
 30 31  1  0  0  0
 31 26  1  0  0  0
 23 18  1  0  0  0
  9  1  1  0  0  0
 16 10  1  0  0  0
  9  4  1  0  0  0
 39 34  1  0  0  0
 14 17  1  0  0  0
 32 33  1  0  0  0
M  END
> <minimizedAffinity>
-7.34575

> <CNNscore>
0.1355074346

> <CNNaffinity>
6.0112600327

> <CNN_VS>
0.8145704269

> <CNNaffinity_variance>
0.1678431034

$$$$
[H]O[C@]1([H])C([H])([H])C([H])([H])[C@@]([H])(n2c([H])c(-c3c([H])c([H])c(C([H])([H])N4C([H])([H])C([H])([H])N(C([H])([H])[H])C([H])([H])C4([H])[H])c([H])c3[H])c3c([H])nc(N([H])C4([H])C([H])([H])C([H])([H])C([H])([H])C([H])([H])C4([H])[H])nc32)C([H])([H])C1([H])[H]


 39 44  0  0  0  0  0  0  0  0999 V2000
    5.3674    5.7436   18.5627 C   0  0  0  0  0  0  0  0  0  0  0  0
    4.9843    4.4780   18.9515 C   0  0  0  0  0  0  0  0  0  0  0  0
    4.1559    3.9477   18.0493 N   0  0  0  0  0  0  0  0  0  0  0  0
    4.0013    4.8662   17.0770 C   0  0  0  0  0  0  0  0  0  0  0  0
    3.2566    4.7631   15.9715 N   0  0  0  0  0  0  0  0  0  0  0  0
    3.2383    5.8228   15.1059 C   0  0  0  0  0  0  0  0  0  0  0  0
    3.9550    6.9236   15.3796 N   0  0  0  0  0  0  0  0  0  0  0  0
    4.7205    7.0664   16.4868 C   0  0  0  0  0  0  0  0  0  0  0  0
    4.7404    5.9962   17.3632 C   0  0  0  0  0  0  0  0  0  0  0  0
    3.5931    2.6271   18.1950 C   0  0  0  0  0  0  0  0  0  0  0  0
    3.6065    1.8149   16.9496 C   0  0  0  0  0  0  0  0  0  0  0  0
    2.7019    0.6183   17.1685 C   0  0  0  0  0  0  0  0  0  0  0  0
    3.0966   -0.1697   18.3936 C   0  0  0  0  0  0  0  0  0  0  0  0
    2.0447   -1.0608   18.6704 O   0  0  0  0  0  0  0  0  0  0  0  0
    3.2989    0.6714   19.6100 C   0  0  0  0  0  0  0  0  0  0  0  0
    4.2606    1.8237   19.2914 C   0  0  0  0  0  0  0  0  0  0  0  0
    2.1129   -1.4405   19.5856 H   0  0  0  0  0  0  0  0  0  0  0  0
    8.0596    8.4260   20.5649 C   0  0  0  0  0  0  0  0  0  0  0  0
    6.7874    8.2082   21.0370 C   0  0  0  0  0  0  0  0  0  0  0  0
    5.9043    7.3392   20.3943 C   0  0  0  0  0  0  0  0  0  0  0  0
    6.2665    6.6654   19.2655 C   0  0  0  0  0  0  0  0  0  0  0  0
    7.5507    6.8729   18.7723 C   0  0  0  0  0  0  0  0  0  0  0  0
    8.4227    7.7308   19.4067 C   0  0  0  0  0  0  0  0  0  0  0  0
    9.0521    9.3349   21.1889 C   0  0  0  0  0  0  0  0  0  0  0  0
    8.9224    9.8121   25.0160 C   0  0  0  0  0  0  0  0  0  0  0  0
   10.2047    9.5168   24.4579 N   0  0  0  0  0  0  0  0  0  0  0  0
   10.5817   10.3787   23.3553 C   0  0  0  0  0  0  0  0  0  0  0  0
   11.1427    9.6264   22.1968 C   0  0  0  0  0  0  0  0  0  0  0  0
   10.1797    8.6445   21.7317 N   0  0  0  0  0  0  0  0  0  0  0  0
    9.7958    7.7465   22.8021 C   0  0  0  0  0  0  0  0  0  0  0  0
   10.3989    8.1181   24.1384 C   0  0  0  0  0  0  0  0  0  0  0  0
    2.4802    5.7786   13.9141 N   0  0  0  0  0  0  0  0  0  0  0  0
    2.9835    5.9549   13.0189 H   0  0  0  0  0  0  0  0  0  0  0  0
    1.0784    5.5016   13.9385 C   0  0  0  0  0  0  0  0  0  0  0  0
    0.6067    4.6851   12.7838 C   0  0  0  0  0  0  0  0  0  0  0  0
   -0.8376    4.8403   12.4526 C   0  0  0  0  0  0  0  0  0  0  0  0
   -1.3718    6.2322   12.5134 C   0  0  0  0  0  0  0  0  0  0  0  0
   -1.1299    6.7220   13.9467 C   0  0  0  0  0  0  0  0  0  0  0  0
    0.3697    6.8396   14.0822 C   0  0  0  0  0  0  0  0  0  0  0  0
 25 26  1  0  0  0
 26 27  1  0  0  0
 27 28  1  0  0  0
 28 29  1  0  0  0
 29 24  1  0  0  0
 24 18  1  0  0  0
 18 19  2  0  0  0
 19 20  1  0  0  0
 20 21  2  0  0  0
 21 22  1  0  0  0
 22 23  2  0  0  0
 21  1  1  0  0  0
  1  2  2  0  0  0
  2  3  1  0  0  0
  3 10  1  0  0  0
 10 11  1  0  0  0
 11 12  1  0  0  0
 12 13  1  0  0  0
 13 14  1  0  0  0
 13 15  1  0  0  0
 15 16  1  0  0  0
  3  4  1  0  0  0
  4  5  2  0  0  0
  5  6  1  0  0  0
  6 32  1  0  0  0
 32 34  1  0  0  0
 34 35  1  0  0  0
 35 36  1  0  0  0
 36 37  1  0  0  0
 37 38  1  0  0  0
 38 39  1  0  0  0
  6  7  2  0  0  0
  7  8  1  0  0  0
  8  9  2  0  0  0
 29 30  1  0  0  0
 30 31  1  0  0  0
 31 26  1  0  0  0
 23 18  1  0  0  0
  9  1  1  0  0  0
 16 10  1  0  0  0
  9  4  1  0  0  0
 39 34  1  0  0  0
 14 17  1  0  0  0
 32 33  1  0  0  0
M  END
> <minimizedAffinity>
-8.49388

> <CNNscore>
0.1195464060

> <CNNaffinity>
6.3374814987

> <CNN_VS>
0.7576231360

> <CNNaffinity_variance>
0.1060244814

$$$$
[H]O[C@]1([H])C([H])([H])C([H])([H])[C@@]([H])(N([H])c2nc(N([H])C([H])([H])C([H])([H])C([H])([H])C([H])([H])[H])nc([H])c2-c2nc([H])c(C([H])([H])N([H])C([H])([H])C(C([H])([H])[H])(C([H])([H])[H])C([H])([H])[H])c([H])c2[H])C([H])([H])C1([H])[H]


 36 38  0  0  0  0  0  0  0  0999 V2000
    2.9561    0.1458   19.0443 C   0  0  0  0  0  0  0  0  0  0  0  0
    2.1705   -0.1411   17.9970 N   0  0  0  0  0  0  0  0  0  0  0  0
    2.3039    0.5216   16.8385 C   0  0  0  0  0  0  0  0  0  0  0  0
    3.2737    1.5391   16.6851 C   0  0  0  0  0  0  0  0  0  0  0  0
    4.0527    1.8121   17.7503 C   0  0  0  0  0  0  0  0  0  0  0  0
    3.8776    1.0963   18.9313 N   0  0  0  0  0  0  0  0  0  0  0  0
    3.3106    2.2422   15.4256 C   0  0  0  0  0  0  0  0  0  0  0  0
    2.9325    1.7882   14.2093 C   0  0  0  0  0  0  0  0  0  0  0  0
    2.9718    2.6326   13.1018 C   0  0  0  0  0  0  0  0  0  0  0  0
    3.3794    3.9367   13.1663 C   0  0  0  0  0  0  0  0  0  0  0  0
    3.7584    4.3657   14.4390 C   0  0  0  0  0  0  0  0  0  0  0  0
    3.7242    3.5675   15.4956 N   0  0  0  0  0  0  0  0  0  0  0  0
    3.4479    4.8432   12.0128 C   0  0  0  0  0  0  0  0  0  0  0  0
    2.6408    6.0372   12.1923 N   0  0  0  0  0  0  0  0  0  0  0  0
    3.1800    6.8801   11.8865 H   0  0  0  0  0  0  0  0  0  0  0  0
    1.3617    5.9057   11.5806 C   0  0  0  0  0  0  0  0  0  0  0  0
    0.2254    5.8440   12.5700 C   0  0  0  0  0  0  0  0  0  0  0  0
   -0.8697    6.7622   12.1103 C   0  0  0  0  0  0  0  0  0  0  0  0
    0.6262    6.2631   13.9550 C   0  0  0  0  0  0  0  0  0  0  0  0
   -0.2681    4.3947   12.5579 C   0  0  0  0  0  0  0  0  0  0  0  0
    2.7930   -0.5411   20.3021 N   0  0  0  0  0  0  0  0  0  0  0  0
    2.0575   -1.2663   20.4336 H   0  0  0  0  0  0  0  0  0  0  0  0
    3.6891   -0.1938   21.3770 C   0  0  0  0  0  0  0  0  0  0  0  0
    3.1463    0.9654   22.1964 C   0  0  0  0  0  0  0  0  0  0  0  0
    3.8237    3.0769   23.2733 C   0  0  0  0  0  0  0  0  0  0  0  0
    4.3026    1.6829   22.8778 C   0  0  0  0  0  0  0  0  0  0  0  0
    4.9756    2.8669   17.7457 N   0  0  0  0  0  0  0  0  0  0  0  0
    5.8108    2.9118   17.1627 H   0  0  0  0  0  0  0  0  0  0  0  0
    4.7316    4.0251   18.5805 C   0  0  0  0  0  0  0  0  0  0  0  0
    5.3423    3.8233   19.9691 C   0  0  0  0  0  0  0  0  0  0  0  0
    5.5889    5.1281   20.6826 C   0  0  0  0  0  0  0  0  0  0  0  0
    4.5615    6.1408   20.2889 C   0  0  0  0  0  0  0  0  0  0  0  0
    3.2613    5.7186   20.5982 O   0  0  0  0  0  0  0  0  0  0  0  0
    4.6138    6.4298   18.8184 C   0  0  0  0  0  0  0  0  0  0  0  0
    5.3255    5.3065   18.0391 C   0  0  0  0  0  0  0  0  0  0  0  0
    3.3017    4.9604   21.2412 H   0  0  0  0  0  0  0  0  0  0  0  0
 25 26  1  0  0  0
 26 24  1  0  0  0
 24 23  1  0  0  0
 23 21  1  0  0  0
 21  1  1  0  0  0
  1  2  2  0  0  0
  2  3  1  0  0  0
  3  4  2  0  0  0
  4  5  1  0  0  0
  5 27  1  0  0  0
 27 29  1  0  0  0
 29 30  1  0  0  0
 30 31  1  0  0  0
 31 32  1  0  0  0
 32 33  1  0  0  0
 32 34  1  0  0  0
 34 35  1  0  0  0
  5  6  2  0  0  0
  4  7  1  0  0  0
  7  8  2  0  0  0
  8  9  1  0  0  0
  9 10  2  0  0  0
 10 13  1  0  0  0
 13 14  1  0  0  0
 14 16  1  0  0  0
 16 17  1  0  0  0
 17 18  1  0  0  0
 17 19  1  0  0  0
 17 20  1  0  0  0
 10 11  1  0  0  0
 11 12  2  0  0  0
  6  1  1  0  0  0
 12  7  1  0  0  0
 35 29  1  0  0  0
 21 22  1  0  0  0
 27 28  1  0  0  0
 33 36  1  0  0  0
 14 15  1  0  0  0
M  END
> <minimizedAffinity>
-7.85485

> <CNNscore>
0.9580950737

> <CNNaffinity>
7.5600953102

> <CNN_VS>
7.2432899475

> <CNNaffinity_variance>
0.1251627058

$$$$
[H]O[C@]1([H])C([H])([H])C([H])([H])[C@@]([H])(N([H])c2nc(N([H])C([H])([H])C([H])([H])C([H])([H])C([H])([H])[H])nc([H])c2-c2nc([H])c(C([H])([H])N([H])C([H])([H])C(C([H])([H])[H])(C([H])([H])[H])C([H])([H])[H])c([H])c2[H])C([H])([H])C1([H])[H]


 36 38  0  0  0  0  0  0  0  0999 V2000
    3.8882    1.4995   18.2091 C   0  0  0  0  0  0  0  0  0  0  0  0
    2.9902    0.9913   17.3537 N   0  0  0  0  0  0  0  0  0  0  0  0
    2.7588    1.5822   16.1720 C   0  0  0  0  0  0  0  0  0  0  0  0
    3.4521    2.7544   15.7920 C   0  0  0  0  0  0  0  0  0  0  0  0
    4.3501    3.2490   16.6666 C   0  0  0  0  0  0  0  0  0  0  0  0
    4.5567    2.5997   17.8805 N   0  0  0  0  0  0  0  0  0  0  0  0
    3.1003    3.3589   14.5298 C   0  0  0  0  0  0  0  0  0  0  0  0
    1.8637    3.5598   14.0208 C   0  0  0  0  0  0  0  0  0  0  0  0
    1.7040    4.2260   12.8077 C   0  0  0  0  0  0  0  0  0  0  0  0
    2.7517    4.7093   12.0732 C   0  0  0  0  0  0  0  0  0  0  0  0
    4.0091    4.4835   12.6345 C   0  0  0  0  0  0  0  0  0  0  0  0
    4.1677    3.8499   13.7869 N   0  0  0  0  0  0  0  0  0  0  0  0
    2.6135    5.3988   10.7838 C   0  0  0  0  0  0  0  0  0  0  0  0
    1.5113    4.8839    9.9905 N   0  0  0  0  0  0  0  0  0  0  0  0
    1.0833    4.0584   10.4701 H   0  0  0  0  0  0  0  0  0  0  0  0
    0.5842    5.9091    9.6482 C   0  0  0  0  0  0  0  0  0  0  0  0
   -0.8335    5.5992   10.0582 C   0  0  0  0  0  0  0  0  0  0  0  0
   -0.9855    4.1122   10.1964 C   0  0  0  0  0  0  0  0  0  0  0  0
   -1.8522    6.0754    9.0632 C   0  0  0  0  0  0  0  0  0  0  0  0
   -1.0384    6.2743   11.4170 C   0  0  0  0  0  0  0  0  0  0  0  0
    4.1153    0.8863   19.4948 N   0  0  0  0  0  0  0  0  0  0  0  0
    4.3848   -0.1160   19.5786 H   0  0  0  0  0  0  0  0  0  0  0  0
    3.9616    1.7109   20.6676 C   0  0  0  0  0  0  0  0  0  0  0  0
    4.8684    1.2440   21.7943 C   0  0  0  0  0  0  0  0  0  0  0  0
    7.0632    0.2260   21.3218 C   0  0  0  0  0  0  0  0  0  0  0  0
    6.3148    1.5512   21.4342 C   0  0  0  0  0  0  0  0  0  0  0  0
    5.0196    4.4593   16.4405 N   0  0  0  0  0  0  0  0  0  0  0  0
    5.6753    4.6326   15.6792 H   0  0  0  0  0  0  0  0  0  0  0  0
    4.7459    5.5917   17.3011 C   0  0  0  0  0  0  0  0  0  0  0  0
    5.7894    5.6819   18.4166 C   0  0  0  0  0  0  0  0  0  0  0  0
    5.8855    7.0678   19.0019 C   0  0  0  0  0  0  0  0  0  0  0  0
    4.5540    7.7470   18.9569 C   0  0  0  0  0  0  0  0  0  0  0  0
    3.5792    7.0415   19.6755 O   0  0  0  0  0  0  0  0  0  0  0  0
    4.0656    7.9003   17.5475 C   0  0  0  0  0  0  0  0  0  0  0  0
    4.7735    6.9247   16.5868 C   0  0  0  0  0  0  0  0  0  0  0  0
    4.0204    6.3819   20.2756 H   0  0  0  0  0  0  0  0  0  0  0  0
 25 26  1  0  0  0
 26 24  1  0  0  0
 24 23  1  0  0  0
 23 21  1  0  0  0
 21  1  1  0  0  0
  1  2  2  0  0  0
  2  3  1  0  0  0
  3  4  2  0  0  0
  4  5  1  0  0  0
  5 27  1  0  0  0
 27 29  1  0  0  0
 29 30  1  0  0  0
 30 31  1  0  0  0
 31 32  1  0  0  0
 32 33  1  0  0  0
 32 34  1  0  0  0
 34 35  1  0  0  0
  5  6  2  0  0  0
  4  7  1  0  0  0
  7  8  2  0  0  0
  8  9  1  0  0  0
  9 10  2  0  0  0
 10 13  1  0  0  0
 13 14  1  0  0  0
 14 16  1  0  0  0
 16 17  1  0  0  0
 17 18  1  0  0  0
 17 19  1  0  0  0
 17 20  1  0  0  0
 10 11  1  0  0  0
 11 12  2  0  0  0
  6  1  1  0  0  0
 12  7  1  0  0  0
 35 29  1  0  0  0
 21 22  1  0  0  0
 27 28  1  0  0  0
 33 36  1  0  0  0
 14 15  1  0  0  0
M  END
> <minimizedAffinity>
-6.62256

> <CNNscore>
0.4980168343

> <CNNaffinity>
6.6762290001

> <CNN_VS>
3.3248744011

> <CNNaffinity_variance>
0.3907979131

$$$$
[H]O[C@]1([H])C([H])([H])C([H])([H])[C@@]([H])(N([H])c2nc(N([H])C([H])([H])C([H])([H])C([H])([H])C([H])([H])[H])nc([H])c2-c2nc([H])c(C([H])([H])N([H])C([H])([H])C(C([H])([H])[H])(C([H])([H])[H])C([H])([H])[H])c([H])c2[H])C([H])([H])C1([H])[H]


 36 38  0  0  0  0  0  0  0  0999 V2000
    2.1178    2.5205   14.5253 C   0  0  0  0  0  0  0  0  0  0  0  0
    2.8354    1.8386   15.4288 N   0  0  0  0  0  0  0  0  0  0  0  0
    3.3654    2.4597   16.4930 C   0  0  0  0  0  0  0  0  0  0  0  0
    3.1845    3.8473   16.6954 C   0  0  0  0  0  0  0  0  0  0  0  0
    2.4603    4.5140   15.7750 C   0  0  0  0  0  0  0  0  0  0  0  0
    1.9292    3.8256   14.6879 N   0  0  0  0  0  0  0  0  0  0  0  0
    3.8378    4.4471   17.8337 C   0  0  0  0  0  0  0  0  0  0  0  0
    5.1650    4.5452   18.0734 C   0  0  0  0  0  0  0  0  0  0  0  0
    5.6263    5.2229   19.1999 C   0  0  0  0  0  0  0  0  0  0  0  0
    4.7966    5.8184   20.1097 C   0  0  0  0  0  0  0  0  0  0  0  0
    3.4362    5.6960   19.8241 C   0  0  0  0  0  0  0  0  0  0  0  0
    2.9913    5.0522   18.7553 N   0  0  0  0  0  0  0  0  0  0  0  0
    5.2544    6.5231   21.3142 C   0  0  0  0  0  0  0  0  0  0  0  0
    5.0433    5.7518   22.5266 N   0  0  0  0  0  0  0  0  0  0  0  0
    4.0308    5.7729   22.7896 H   0  0  0  0  0  0  0  0  0  0  0  0
    5.5949    4.4433   22.4216 C   0  0  0  0  0  0  0  0  0  0  0  0
    4.6652    3.3582   22.9035 C   0  0  0  0  0  0  0  0  0  0  0  0
    3.4592    3.9948   23.5310 C   0  0  0  0  0  0  0  0  0  0  0  0
    5.2930    2.4550   23.9255 C   0  0  0  0  0  0  0  0  0  0  0  0
    4.2518    2.5707   21.6573 C   0  0  0  0  0  0  0  0  0  0  0  0
    1.5750    1.8627   13.3620 N   0  0  0  0  0  0  0  0  0  0  0  0
    1.3123    0.8553   13.3807 H   0  0  0  0  0  0  0  0  0  0  0  0
    1.4014    2.6497   12.1664 C   0  0  0  0  0  0  0  0  0  0  0  0
    2.4955    2.3620   11.1516 C   0  0  0  0  0  0  0  0  0  0  0  0
    4.3020    3.4407    9.8672 C   0  0  0  0  0  0  0  0  0  0  0  0
    3.5072    3.4988   11.1687 C   0  0  0  0  0  0  0  0  0  0  0  0
    2.3025    5.9060   15.8188 N   0  0  0  0  0  0  0  0  0  0  0  0
    1.5768    6.3970   16.3401 H   0  0  0  0  0  0  0  0  0  0  0  0
    3.2552    6.7489   15.1263 C   0  0  0  0  0  0  0  0  0  0  0  0
    2.5480    7.6034   14.0721 C   0  0  0  0  0  0  0  0  0  0  0  0
    3.3413    8.8307   13.7017 C   0  0  0  0  0  0  0  0  0  0  0  0
    4.8075    8.5545   13.8018 C   0  0  0  0  0  0  0  0  0  0  0  0
    5.2052    7.5113   12.9544 O   0  0  0  0  0  0  0  0  0  0  0  0
    5.2003    8.1856   15.2012 C   0  0  0  0  0  0  0  0  0  0  0  0
    3.9896    7.7140   16.0303 C   0  0  0  0  0  0  0  0  0  0  0  0
    4.4949    7.3423   12.2786 H   0  0  0  0  0  0  0  0  0  0  0  0
 25 26  1  0  0  0
 26 24  1  0  0  0
 24 23  1  0  0  0
 23 21  1  0  0  0
 21  1  1  0  0  0
  1  2  2  0  0  0
  2  3  1  0  0  0
  3  4  2  0  0  0
  4  5  1  0  0  0
  5 27  1  0  0  0
 27 29  1  0  0  0
 29 30  1  0  0  0
 30 31  1  0  0  0
 31 32  1  0  0  0
 32 33  1  0  0  0
 32 34  1  0  0  0
 34 35  1  0  0  0
  5  6  2  0  0  0
  4  7  1  0  0  0
  7  8  2  0  0  0
  8  9  1  0  0  0
  9 10  2  0  0  0
 10 13  1  0  0  0
 13 14  1  0  0  0
 14 16  1  0  0  0
 16 17  1  0  0  0
 17 18  1  0  0  0
 17 19  1  0  0  0
 17 20  1  0  0  0
 10 11  1  0  0  0
 11 12  2  0  0  0
  6  1  1  0  0  0
 12  7  1  0  0  0
 35 29  1  0  0  0
 21 22  1  0  0  0
 27 28  1  0  0  0
 33 36  1  0  0  0
 14 15  1  0  0  0
M  END
> <minimizedAffinity>
-6.82706

> <CNNscore>
0.4338902831

> <CNNaffinity>
6.8177886009

> <CNN_VS>
2.9581723213

> <CNNaffinity_variance>
0.2408790290

$$$$
[H]O[C@]1([H])C([H])([H])C([H])([H])[C@@]([H])(N([H])c2nc(N([H])C([H])([H])C([H])([H])C([H])([H])C([H])([H])[H])nc([H])c2-c2nc([H])c(C([H])([H])N([H])C([H])([H])C(C([H])([H])[H])(C([H])([H])[H])C([H])([H])[H])c([H])c2[H])C([H])([H])C1([H])[H]


 36 38  0  0  0  0  0  0  0  0999 V2000
    4.4646    1.7386   19.0169 C   0  0  0  0  0  0  0  0  0  0  0  0
    3.6527    1.1569   18.1231 N   0  0  0  0  0  0  0  0  0  0  0  0
    3.2887    1.8034   17.0056 C   0  0  0  0  0  0  0  0  0  0  0  0
    3.7481    3.1130   16.7353 C   0  0  0  0  0  0  0  0  0  0  0  0
    4.5629    3.6795   17.6470 C   0  0  0  0  0  0  0  0  0  0  0  0
    4.9139    2.9684   18.7911 N   0  0  0  0  0  0  0  0  0  0  0  0
    3.2612    3.7582   15.5400 C   0  0  0  0  0  0  0  0  0  0  0  0
    2.1140    4.4562   15.3811 C   0  0  0  0  0  0  0  0  0  0  0  0
    1.8320    5.0754   14.1654 C   0  0  0  0  0  0  0  0  0  0  0  0
    2.6693    5.0242   13.0850 C   0  0  0  0  0  0  0  0  0  0  0  0
    3.8421    4.2968   13.2916 C   0  0  0  0  0  0  0  0  0  0  0  0
    4.1155    3.7050   14.4447 N   0  0  0  0  0  0  0  0  0  0  0  0
    2.3892    5.6518   11.7870 C   0  0  0  0  0  0  0  0  0  0  0  0
    2.3790    4.6948   10.6946 N   0  0  0  0  0  0  0  0  0  0  0  0
    3.2818    4.1663   10.6765 H   0  0  0  0  0  0  0  0  0  0  0  0
    1.2179    3.8711   10.7263 C   0  0  0  0  0  0  0  0  0  0  0  0
    1.5279    2.3963   10.7802 C   0  0  0  0  0  0  0  0  0  0  0  0
    1.2802    1.8984   12.1745 C   0  0  0  0  0  0  0  0  0  0  0  0
    2.9520    2.0800   10.4248 C   0  0  0  0  0  0  0  0  0  0  0  0
    0.5579    1.7240    9.8050 C   0  0  0  0  0  0  0  0  0  0  0  0
    4.8310    1.0599   20.2357 N   0  0  0  0  0  0  0  0  0  0  0  0
    5.2004    0.0864   20.2254 H   0  0  0  0  0  0  0  0  0  0  0  0
    4.6738    1.7777   21.4763 C   0  0  0  0  0  0  0  0  0  0  0  0
    6.0144    2.0130   22.1525 C   0  0  0  0  0  0  0  0  0  0  0  0
    4.4714    2.9884   23.8092 C   0  0  0  0  0  0  0  0  0  0  0  0
    5.7923    2.2429   23.6405 C   0  0  0  0  0  0  0  0  0  0  0  0
    4.9959    5.0077   17.5338 N   0  0  0  0  0  0  0  0  0  0  0  0
    5.2808    5.4588   16.6649 H   0  0  0  0  0  0  0  0  0  0  0  0
    5.0028    5.8531   18.7098 C   0  0  0  0  0  0  0  0  0  0  0  0
    3.9149    5.4140   19.6922 C   0  0  0  0  0  0  0  0  0  0  0  0
    4.1939    5.8736   21.1006 C   0  0  0  0  0  0  0  0  0  0  0  0
    4.9235    7.1789   21.0889 C   0  0  0  0  0  0  0  0  0  0  0  0
    4.1914    8.1848   20.4435 O   0  0  0  0  0  0  0  0  0  0  0  0
    6.2486    7.0587   20.3973 C   0  0  0  0  0  0  0  0  0  0  0  0
    6.3050    5.8222   19.4787 C   0  0  0  0  0  0  0  0  0  0  0  0
    3.2420    7.9006   20.3548 H   0  0  0  0  0  0  0  0  0  0  0  0
 25 26  1  0  0  0
 26 24  1  0  0  0
 24 23  1  0  0  0
 23 21  1  0  0  0
 21  1  1  0  0  0
  1  2  2  0  0  0
  2  3  1  0  0  0
  3  4  2  0  0  0
  4  5  1  0  0  0
  5 27  1  0  0  0
 27 29  1  0  0  0
 29 30  1  0  0  0
 30 31  1  0  0  0
 31 32  1  0  0  0
 32 33  1  0  0  0
 32 34  1  0  0  0
 34 35  1  0  0  0
  5  6  2  0  0  0
  4  7  1  0  0  0
  7  8  2  0  0  0
  8  9  1  0  0  0
  9 10  2  0  0  0
 10 13  1  0  0  0
 13 14  1  0  0  0
 14 16  1  0  0  0
 16 17  1  0  0  0
 17 18  1  0  0  0
 17 19  1  0  0  0
 17 20  1  0  0  0
 10 11  1  0  0  0
 11 12  2  0  0  0
  6  1  1  0  0  0
 12  7  1  0  0  0
 35 29  1  0  0  0
 21 22  1  0  0  0
 27 28  1  0  0  0
 33 36  1  0  0  0
 14 15  1  0  0  0
M  END
> <minimizedAffinity>
-6.71204

> <CNNscore>
0.4266935885

> <CNNaffinity>
6.8880982399

> <CNN_VS>
2.9391074181

> <CNNaffinity_variance>
0.5807958841

$$$$
[H]O[C@]1([H])C([H])([H])C([H])([H])[C@@]([H])(N([H])c2nc(N([H])C([H])([H])C([H])([H])C([H])([H])C([H])([H])[H])nc([H])c2-c2nc([H])c(C([H])([H])N([H])C([H])([H])C(C([H])([H])[H])(C([H])([H])[H])C([H])([H])[H])c([H])c2[H])C([H])([H])C1([H])[H]


 36 38  0  0  0  0  0  0  0  0999 V2000
    4.8556    2.4782   19.4513 C   0  0  0  0  0  0  0  0  0  0  0  0
    4.5130    1.4086   18.7198 N   0  0  0  0  0  0  0  0  0  0  0  0
    4.0750    1.5520   17.4601 C   0  0  0  0  0  0  0  0  0  0  0  0
    3.9617    2.8299   16.8658 C   0  0  0  0  0  0  0  0  0  0  0  0
    4.3108    3.8917   17.6187 C   0  0  0  0  0  0  0  0  0  0  0  0
    4.7611    3.6926   18.9208 N   0  0  0  0  0  0  0  0  0  0  0  0
    3.4262    2.8991   15.5276 C   0  0  0  0  0  0  0  0  0  0  0  0
    3.8821    3.6328   14.4873 C   0  0  0  0  0  0  0  0  0  0  0  0
    3.2794    3.5257   13.2357 C   0  0  0  0  0  0  0  0  0  0  0  0
    2.2219    2.6967   12.9804 C   0  0  0  0  0  0  0  0  0  0  0  0
    1.7844    1.9562   14.0792 C   0  0  0  0  0  0  0  0  0  0  0  0
    2.3524    2.0543   15.2718 N   0  0  0  0  0  0  0  0  0  0  0  0
    1.5565    2.5774   11.6765 C   0  0  0  0  0  0  0  0  0  0  0  0
    0.3316    3.3541   11.6015 N   0  0  0  0  0  0  0  0  0  0  0  0
   -0.1290    3.3831   12.5404 H   0  0  0  0  0  0  0  0  0  0  0  0
    0.5538    4.6336   11.0174 C   0  0  0  0  0  0  0  0  0  0  0  0
   -0.4685    5.6655   11.4226 C   0  0  0  0  0  0  0  0  0  0  0  0
    0.2294    6.9725   11.6635 C   0  0  0  0  0  0  0  0  0  0  0  0
   -1.2087    5.3010   12.6771 C   0  0  0  0  0  0  0  0  0  0  0  0
   -1.4298    5.7966   10.2383 C   0  0  0  0  0  0  0  0  0  0  0  0
    5.2947    2.3307   20.8173 N   0  0  0  0  0  0  0  0  0  0  0  0
    6.2678    2.0396   21.0467 H   0  0  0  0  0  0  0  0  0  0  0  0
    4.3399    2.6058   21.8621 C   0  0  0  0  0  0  0  0  0  0  0  0
    3.9250    1.3327   22.5810 C   0  0  0  0  0  0  0  0  0  0  0  0
    3.4817   -0.7011   21.2603 C   0  0  0  0  0  0  0  0  0  0  0  0
    2.8731    0.6089   21.7528 C   0  0  0  0  0  0  0  0  0  0  0  0
    4.1429    5.2088   17.1700 N   0  0  0  0  0  0  0  0  0  0  0  0
    3.6152    5.4825   16.3417 H   0  0  0  0  0  0  0  0  0  0  0  0
    4.7020    6.2976   17.9444 C   0  0  0  0  0  0  0  0  0  0  0  0
    6.0514    6.7291   17.3660 C   0  0  0  0  0  0  0  0  0  0  0  0
    6.4234    8.1347   17.7643 C   0  0  0  0  0  0  0  0  0  0  0  0
    5.8813    8.4537   19.1210 C   0  0  0  0  0  0  0  0  0  0  0  0
    6.3735    7.5824   20.1022 O   0  0  0  0  0  0  0  0  0  0  0  0
    4.3841    8.3742   19.1443 C   0  0  0  0  0  0  0  0  0  0  0  0
    3.8367    7.5379   17.9709 C   0  0  0  0  0  0  0  0  0  0  0  0
    7.1700    7.1009   19.7506 H   0  0  0  0  0  0  0  0  0  0  0  0
 25 26  1  0  0  0
 26 24  1  0  0  0
 24 23  1  0  0  0
 23 21  1  0  0  0
 21  1  1  0  0  0
  1  2  2  0  0  0
  2  3  1  0  0  0
  3  4  2  0  0  0
  4  5  1  0  0  0
  5 27  1  0  0  0
 27 29  1  0  0  0
 29 30  1  0  0  0
 30 31  1  0  0  0
 31 32  1  0  0  0
 32 33  1  0  0  0
 32 34  1  0  0  0
 34 35  1  0  0  0
  5  6  2  0  0  0
  4  7  1  0  0  0
  7  8  2  0  0  0
  8  9  1  0  0  0
  9 10  2  0  0  0
 10 13  1  0  0  0
 13 14  1  0  0  0
 14 16  1  0  0  0
 16 17  1  0  0  0
 17 18  1  0  0  0
 17 19  1  0  0  0
 17 20  1  0  0  0
 10 11  1  0  0  0
 11 12  2  0  0  0
  6  1  1  0  0  0
 12  7  1  0  0  0
 35 29  1  0  0  0
 21 22  1  0  0  0
 27 28  1  0  0  0
 33 36  1  0  0  0
 14 15  1  0  0  0
M  END
> <minimizedAffinity>
-6.90205

> <CNNscore>
0.4194808006

> <CNNaffinity>
6.7463006973

> <CNN_VS>
2.8299436569

> <CNNaffinity_variance>
0.2089404613

$$$$
[H]O[C@]1([H])C([H])([H])C([H])([H])[C@@]([H])(N([H])c2nc(N([H])C([H])([H])C([H])([H])C([H])([H])C([H])([H])[H])nc([H])c2-c2nc([H])c(C([H])([H])N([H])C([H])([H])C(C([H])([H])[H])(C([H])([H])[H])C([H])([H])[H])c([H])c2[H])C([H])([H])C1([H])[H]


 36 38  0  0  0  0  0  0  0  0999 V2000
    4.1946    1.2040   19.7042 C   0  0  0  0  0  0  0  0  0  0  0  0
    3.4077    0.7908   18.7010 N   0  0  0  0  0  0  0  0  0  0  0  0
    3.3129    1.5014   17.5673 C   0  0  0  0  0  0  0  0  0  0  0  0
    4.0372    2.7033   17.3944 C   0  0  0  0  0  0  0  0  0  0  0  0
    4.8220    3.1010   18.4152 C   0  0  0  0  0  0  0  0  0  0  0  0
    4.8888    2.3292   19.5718 N   0  0  0  0  0  0  0  0  0  0  0  0
    3.8321    3.4362   16.1684 C   0  0  0  0  0  0  0  0  0  0  0  0
    3.9163    2.9743   14.9003 C   0  0  0  0  0  0  0  0  0  0  0  0
    3.6171    3.8112   13.8274 C   0  0  0  0  0  0  0  0  0  0  0  0
    3.2280    5.1139   13.9774 C   0  0  0  0  0  0  0  0  0  0  0  0
    3.1516    5.5497   15.3008 C   0  0  0  0  0  0  0  0  0  0  0  0
    3.4356    4.7593   16.3251 N   0  0  0  0  0  0  0  0  0  0  0  0
    2.9242    6.0230   12.8646 C   0  0  0  0  0  0  0  0  0  0  0  0
    4.0451    6.1873   11.9559 N   0  0  0  0  0  0  0  0  0  0  0  0
    4.8962    5.7272   12.3542 H   0  0  0  0  0  0  0  0  0  0  0  0
    3.7176    5.7706   10.6342 C   0  0  0  0  0  0  0  0  0  0  0  0
    4.6793    4.7567   10.0675 C   0  0  0  0  0  0  0  0  0  0  0  0
    4.9171    5.0693    8.6186 C   0  0  0  0  0  0  0  0  0  0  0  0
    4.1699    3.3471   10.1565 C   0  0  0  0  0  0  0  0  0  0  0  0
    5.9804    4.9195   10.8578 C   0  0  0  0  0  0  0  0  0  0  0  0
    4.2731    0.4607   20.9378 N   0  0  0  0  0  0  0  0  0  0  0  0
    4.9995   -0.2705   21.0861 H   0  0  0  0  0  0  0  0  0  0  0  0
    3.3117    0.7670   21.9677 C   0  0  0  0  0  0  0  0  0  0  0  0
    3.6014    2.1128   22.6117 C   0  0  0  0  0  0  0  0  0  0  0  0
    5.8917    2.7919   23.2200 C   0  0  0  0  0  0  0  0  0  0  0  0
    4.6985    1.9448   23.6531 C   0  0  0  0  0  0  0  0  0  0  0  0
    5.5042    4.3251   18.3954 N   0  0  0  0  0  0  0  0  0  0  0  0
    6.1850    4.6048   17.6898 H   0  0  0  0  0  0  0  0  0  0  0  0
    5.2083    5.3173   19.4082 C   0  0  0  0  0  0  0  0  0  0  0  0
    6.2594    5.2789   20.5196 C   0  0  0  0  0  0  0  0  0  0  0  0
    6.3238    6.5711   21.2934 C   0  0  0  0  0  0  0  0  0  0  0  0
    4.9742    7.2126   21.3516 C   0  0  0  0  0  0  0  0  0  0  0  0
    4.0253    6.3864   21.9691 O   0  0  0  0  0  0  0  0  0  0  0  0
    4.4688    7.5487   19.9804 C   0  0  0  0  0  0  0  0  0  0  0  0
    5.1937    6.7377   18.8883 C   0  0  0  0  0  0  0  0  0  0  0  0
    4.4896    5.6616   22.4682 H   0  0  0  0  0  0  0  0  0  0  0  0
 25 26  1  0  0  0
 26 24  1  0  0  0
 24 23  1  0  0  0
 23 21  1  0  0  0
 21  1  1  0  0  0
  1  2  2  0  0  0
  2  3  1  0  0  0
  3  4  2  0  0  0
  4  5  1  0  0  0
  5 27  1  0  0  0
 27 29  1  0  0  0
 29 30  1  0  0  0
 30 31  1  0  0  0
 31 32  1  0  0  0
 32 33  1  0  0  0
 32 34  1  0  0  0
 34 35  1  0  0  0
  5  6  2  0  0  0
  4  7  1  0  0  0
  7  8  2  0  0  0
  8  9  1  0  0  0
  9 10  2  0  0  0
 10 13  1  0  0  0
 13 14  1  0  0  0
 14 16  1  0  0  0
 16 17  1  0  0  0
 17 18  1  0  0  0
 17 19  1  0  0  0
 17 20  1  0  0  0
 10 11  1  0  0  0
 11 12  2  0  0  0
  6  1  1  0  0  0
 12  7  1  0  0  0
 35 29  1  0  0  0
 21 22  1  0  0  0
 27 28  1  0  0  0
 33 36  1  0  0  0
 14 15  1  0  0  0
M  END
> <minimizedAffinity>
-6.97839

> <CNNscore>
0.4062820077

> <CNNaffinity>
6.7837629318

> <CNN_VS>
2.7561209202

> <CNNaffinity_variance>
0.4598968625

$$$$
[H]O[C@]1([H])C([H])([H])C([H])([H])[C@@]([H])(N([H])c2nc(N([H])C([H])([H])C([H])([H])C([H])([H])C([H])([H])[H])nc([H])c2-c2nc([H])c(C([H])([H])N([H])C([H])([H])C(C([H])([H])[H])(C([H])([H])[H])C([H])([H])[H])c([H])c2[H])C([H])([H])C1([H])[H]


 36 38  0  0  0  0  0  0  0  0999 V2000
    4.1021    1.3226   19.2956 C   0  0  0  0  0  0  0  0  0  0  0  0
    3.3878    1.0135   18.2044 N   0  0  0  0  0  0  0  0  0  0  0  0
    3.3630    1.8369   17.1458 C   0  0  0  0  0  0  0  0  0  0  0  0
    4.0867    3.0516   17.1466 C   0  0  0  0  0  0  0  0  0  0  0  0
    4.7978    3.3434   18.2535 C   0  0  0  0  0  0  0  0  0  0  0  0
    4.7937    2.4567   19.3266 N   0  0  0  0  0  0  0  0  0  0  0  0
    3.9579    3.9065   15.9913 C   0  0  0  0  0  0  0  0  0  0  0  0
    4.0227    3.5559   14.6869 C   0  0  0  0  0  0  0  0  0  0  0  0
    3.8063    4.5078   13.6929 C   0  0  0  0  0  0  0  0  0  0  0  0
    3.5201    5.8187   13.9585 C   0  0  0  0  0  0  0  0  0  0  0  0
    3.4602    6.1378   15.3157 C   0  0  0  0  0  0  0  0  0  0  0  0
    3.6660    5.2376   16.2654 N   0  0  0  0  0  0  0  0  0  0  0  0
    3.3054    6.8462   12.9314 C   0  0  0  0  0  0  0  0  0  0  0  0
    1.9525    7.3742   12.9439 N   0  0  0  0  0  0  0  0  0  0  0  0
    1.9736    8.4098   12.7964 H   0  0  0  0  0  0  0  0  0  0  0  0
    1.1039    6.6706   12.0425 C   0  0  0  0  0  0  0  0  0  0  0  0
   -0.0811    6.0230   12.7136 C   0  0  0  0  0  0  0  0  0  0  0  0
   -1.2986    6.2362   11.8618 C   0  0  0  0  0  0  0  0  0  0  0  0
   -0.3680    6.5864   14.0755 C   0  0  0  0  0  0  0  0  0  0  0  0
    0.2437    4.5291   12.7966 C   0  0  0  0  0  0  0  0  0  0  0  0
    4.1042    0.4563   20.4488 N   0  0  0  0  0  0  0  0  0  0  0  0
    4.8573   -0.2470   20.5985 H   0  0  0  0  0  0  0  0  0  0  0  0
    3.0270    0.5988   21.3966 C   0  0  0  0  0  0  0  0  0  0  0  0
    3.5515    0.9311   22.7838 C   0  0  0  0  0  0  0  0  0  0  0  0
    5.4027    2.5117   23.1730 C   0  0  0  0  0  0  0  0  0  0  0  0
    3.9167    2.4074   22.8416 C   0  0  0  0  0  0  0  0  0  0  0  0
    5.4691    4.5643   18.4057 N   0  0  0  0  0  0  0  0  0  0  0  0
    5.8880    5.1008   17.6466 H   0  0  0  0  0  0  0  0  0  0  0  0
    5.5492    5.1697   19.7190 C   0  0  0  0  0  0  0  0  0  0  0  0
    6.5227    6.3502   19.7067 C   0  0  0  0  0  0  0  0  0  0  0  0
    6.2673    7.3164   20.8353 C   0  0  0  0  0  0  0  0  0  0  0  0
    5.7451    6.5919   22.0348 C   0  0  0  0  0  0  0  0  0  0  0  0
    6.6436    5.6192   22.4941 O   0  0  0  0  0  0  0  0  0  0  0  0
    4.4422    5.9114   21.7383 C   0  0  0  0  0  0  0  0  0  0  0  0
    4.2312    5.7131   20.2244 C   0  0  0  0  0  0  0  0  0  0  0  0
    7.5414    5.7815   22.0972 H   0  0  0  0  0  0  0  0  0  0  0  0
 25 26  1  0  0  0
 26 24  1  0  0  0
 24 23  1  0  0  0
 23 21  1  0  0  0
 21  1  1  0  0  0
  1  2  2  0  0  0
  2  3  1  0  0  0
  3  4  2  0  0  0
  4  5  1  0  0  0
  5 27  1  0  0  0
 27 29  1  0  0  0
 29 30  1  0  0  0
 30 31  1  0  0  0
 31 32  1  0  0  0
 32 33  1  0  0  0
 32 34  1  0  0  0
 34 35  1  0  0  0
  5  6  2  0  0  0
  4  7  1  0  0  0
  7  8  2  0  0  0
  8  9  1  0  0  0
  9 10  2  0  0  0
 10 13  1  0  0  0
 13 14  1  0  0  0
 14 16  1  0  0  0
 16 17  1  0  0  0
 17 18  1  0  0  0
 17 19  1  0  0  0
 17 20  1  0  0  0
 10 11  1  0  0  0
 11 12  2  0  0  0
  6  1  1  0  0  0
 12  7  1  0  0  0
 35 29  1  0  0  0
 21 22  1  0  0  0
 27 28  1  0  0  0
 33 36  1  0  0  0
 14 15  1  0  0  0
M  END
> <minimizedAffinity>
-7.18155

> <CNNscore>
0.4014738500

> <CNNaffinity>
6.8373503685

> <CNN_VS>
2.7450172901

> <CNNaffinity_variance>
0.2218371630

$$$$
[H]O[C@]1([H])C([H])([H])C([H])([H])[C@@]([H])(N([H])c2nc(N([H])C([H])([H])C([H])([H])C([H])([H])C([H])([H])[H])nc([H])c2-c2nc([H])c(C([H])([H])N([H])C([H])([H])C(C([H])([H])[H])(C([H])([H])[H])C([H])([H])[H])c([H])c2[H])C([H])([H])C1([H])[H]


 36 38  0  0  0  0  0  0  0  0999 V2000
    4.1355    1.3050   19.4928 C   0  0  0  0  0  0  0  0  0  0  0  0
    3.3706    0.8971   18.4705 N   0  0  0  0  0  0  0  0  0  0  0  0
    3.2438    1.6492   17.3671 C   0  0  0  0  0  0  0  0  0  0  0  0
    3.9103    2.8904   17.2470 C   0  0  0  0  0  0  0  0  0  0  0  0
    4.6737    3.2818   18.2863 C   0  0  0  0  0  0  0  0  0  0  0  0
    4.7754    2.4664   19.4099 N   0  0  0  0  0  0  0  0  0  0  0  0
    3.6724    3.6634   16.0520 C   0  0  0  0  0  0  0  0  0  0  0  0
    4.1637    3.4469   14.8110 C   0  0  0  0  0  0  0  0  0  0  0  0
    3.7721    4.2599   13.7496 C   0  0  0  0  0  0  0  0  0  0  0  0
    2.8908    5.2973   13.8841 C   0  0  0  0  0  0  0  0  0  0  0  0
    2.4061    5.4848   15.1792 C   0  0  0  0  0  0  0  0  0  0  0  0
    2.7753    4.7159   16.1926 N   0  0  0  0  0  0  0  0  0  0  0  0
    2.4747    6.1808   12.7872 C   0  0  0  0  0  0  0  0  0  0  0  0
    3.4062    7.2728   12.5657 N   0  0  0  0  0  0  0  0  0  0  0  0
    3.3599    7.5827   11.5674 H   0  0  0  0  0  0  0  0  0  0  0  0
    3.2260    8.3198   13.5137 C   0  0  0  0  0  0  0  0  0  0  0  0
    4.5216    8.8970   14.0259 C   0  0  0  0  0  0  0  0  0  0  0  0
    4.3569   10.3785   14.2038 C   0  0  0  0  0  0  0  0  0  0  0  0
    5.6768    8.6711   13.0938 C   0  0  0  0  0  0  0  0  0  0  0  0
    4.7742    8.2326   15.3819 C   0  0  0  0  0  0  0  0  0  0  0  0
    4.2474    0.5152   20.6945 N   0  0  0  0  0  0  0  0  0  0  0  0
    4.9685   -0.2300   20.7896 H   0  0  0  0  0  0  0  0  0  0  0  0
    3.3275    0.7949   21.7690 C   0  0  0  0  0  0  0  0  0  0  0  0
    4.0612    1.0171   23.0812 C   0  0  0  0  0  0  0  0  0  0  0  0
    5.8286    2.7288   22.9288 C   0  0  0  0  0  0  0  0  0  0  0  0
    4.3535    2.5014   23.2474 C   0  0  0  0  0  0  0  0  0  0  0  0
    5.2969    4.5368   18.3200 N   0  0  0  0  0  0  0  0  0  0  0  0
    5.6908    5.0169   17.5114 H   0  0  0  0  0  0  0  0  0  0  0  0
    5.3589    5.2634   19.5713 C   0  0  0  0  0  0  0  0  0  0  0  0
    5.9807    6.6453   19.3586 C   0  0  0  0  0  0  0  0  0  0  0  0
    5.6061    7.6171   20.4485 C   0  0  0  0  0  0  0  0  0  0  0  0
    5.4274    6.9001   21.7486 C   0  0  0  0  0  0  0  0  0  0  0  0
    6.5947    6.2341   22.1465 O   0  0  0  0  0  0  0  0  0  0  0  0
    4.3247    5.8873   21.6676 C   0  0  0  0  0  0  0  0  0  0  0  0
    4.0082    5.5007   20.2094 C   0  0  0  0  0  0  0  0  0  0  0  0
    7.3691    6.5802   21.6265 H   0  0  0  0  0  0  0  0  0  0  0  0
 25 26  1  0  0  0
 26 24  1  0  0  0
 24 23  1  0  0  0
 23 21  1  0  0  0
 21  1  1  0  0  0
  1  2  2  0  0  0
  2  3  1  0  0  0
  3  4  2  0  0  0
  4  5  1  0  0  0
  5 27  1  0  0  0
 27 29  1  0  0  0
 29 30  1  0  0  0
 30 31  1  0  0  0
 31 32  1  0  0  0
 32 33  1  0  0  0
 32 34  1  0  0  0
 34 35  1  0  0  0
  5  6  2  0  0  0
  4  7  1  0  0  0
  7  8  2  0  0  0
  8  9  1  0  0  0
  9 10  2  0  0  0
 10 13  1  0  0  0
 13 14  1  0  0  0
 14 16  1  0  0  0
 16 17  1  0  0  0
 17 18  1  0  0  0
 17 19  1  0  0  0
 17 20  1  0  0  0
 10 11  1  0  0  0
 11 12  2  0  0  0
  6  1  1  0  0  0
 12  7  1  0  0  0
 35 29  1  0  0  0
 21 22  1  0  0  0
 27 28  1  0  0  0
 33 36  1  0  0  0
 14 15  1  0  0  0
M  END
> <minimizedAffinity>
-6.74890

> <CNNscore>
0.3998847306

> <CNNaffinity>
6.8074555397

> <CNN_VS>
2.7221975327

> <CNNaffinity_variance>
0.4311605394

$$$$
[H]O[C@]1([H])C([H])([H])C([H])([H])[C@@]([H])(N([H])c2nc(N([H])C([H])([H])C([H])([H])C([H])([H])C([H])([H])[H])nc([H])c2-c2nc([H])c(C([H])([H])N([H])C([H])([H])C(C([H])([H])[H])(C([H])([H])[H])C([H])([H])[H])c([H])c2[H])C([H])([H])C1([H])[H]


 36 38  0  0  0  0  0  0  0  0999 V2000
    4.2871    1.8456   20.2193 C   0  0  0  0  0  0  0  0  0  0  0  0
    4.1042    0.8188   19.3774 N   0  0  0  0  0  0  0  0  0  0  0  0
    3.8358    1.0351   18.0811 C   0  0  0  0  0  0  0  0  0  0  0  0
    3.7381    2.3472   17.5632 C   0  0  0  0  0  0  0  0  0  0  0  0
    3.9249    3.3649   18.4266 C   0  0  0  0  0  0  0  0  0  0  0  0
    4.2026    3.0905   19.7627 N   0  0  0  0  0  0  0  0  0  0  0  0
    3.3878    2.4912   16.1708 C   0  0  0  0  0  0  0  0  0  0  0  0
    2.4453    1.8140   15.4769 C   0  0  0  0  0  0  0  0  0  0  0  0
    2.1911    2.1320   14.1445 C   0  0  0  0  0  0  0  0  0  0  0  0
    2.8533    3.1200   13.4692 C   0  0  0  0  0  0  0  0  0  0  0  0
    3.8150    3.7954   14.2216 C   0  0  0  0  0  0  0  0  0  0  0  0
    4.0620    3.4971   15.4884 N   0  0  0  0  0  0  0  0  0  0  0  0
    2.6185    3.4641   12.0608 C   0  0  0  0  0  0  0  0  0  0  0  0
    2.0225    4.7786   11.8989 N   0  0  0  0  0  0  0  0  0  0  0  0
    2.2344    5.1499   10.9440 H   0  0  0  0  0  0  0  0  0  0  0  0
    0.6383    4.7745   12.2327 C   0  0  0  0  0  0  0  0  0  0  0  0
    0.1622    6.0699   12.8403 C   0  0  0  0  0  0  0  0  0  0  0  0
   -1.3280    6.0083   13.0102 C   0  0  0  0  0  0  0  0  0  0  0  0
    0.4798    7.2694   11.9948 C   0  0  0  0  0  0  0  0  0  0  0  0
    0.8407    6.1700   14.2091 C   0  0  0  0  0  0  0  0  0  0  0  0
    4.5423    1.6175   21.6205 N   0  0  0  0  0  0  0  0  0  0  0  0
    4.2179    0.7506   22.0976 H   0  0  0  0  0  0  0  0  0  0  0  0
    5.2696    2.6311   22.3434 C   0  0  0  0  0  0  0  0  0  0  0  0
    4.5782    2.9811   23.6508 C   0  0  0  0  0  0  0  0  0  0  0  0
    4.2092    5.1703   22.5793 C   0  0  0  0  0  0  0  0  0  0  0  0
    3.5424    4.0666   23.3955 C   0  0  0  0  0  0  0  0  0  0  0  0
    3.7513    4.7030   18.0474 N   0  0  0  0  0  0  0  0  0  0  0  0
    3.0647    5.0356   17.3711 H   0  0  0  0  0  0  0  0  0  0  0  0
    4.5536    5.7286   18.6814 C   0  0  0  0  0  0  0  0  0  0  0  0
    5.8395    5.9703   17.8880 C   0  0  0  0  0  0  0  0  0  0  0  0
    6.4389    7.3254   18.1654 C   0  0  0  0  0  0  0  0  0  0  0  0
    6.1576    7.7424   19.5737 C   0  0  0  0  0  0  0  0  0  0  0  0
    6.6852    6.8379   20.5053 O   0  0  0  0  0  0  0  0  0  0  0  0
    4.6839    7.8559   19.8264 C   0  0  0  0  0  0  0  0  0  0  0  0
    3.8622    7.0699   18.7858 C   0  0  0  0  0  0  0  0  0  0  0  0
    7.3521    6.2504   20.0580 H   0  0  0  0  0  0  0  0  0  0  0  0
 25 26  1  0  0  0
 26 24  1  0  0  0
 24 23  1  0  0  0
 23 21  1  0  0  0
 21  1  1  0  0  0
  1  2  2  0  0  0
  2  3  1  0  0  0
  3  4  2  0  0  0
  4  5  1  0  0  0
  5 27  1  0  0  0
 27 29  1  0  0  0
 29 30  1  0  0  0
 30 31  1  0  0  0
 31 32  1  0  0  0
 32 33  1  0  0  0
 32 34  1  0  0  0
 34 35  1  0  0  0
  5  6  2  0  0  0
  4  7  1  0  0  0
  7  8  2  0  0  0
  8  9  1  0  0  0
  9 10  2  0  0  0
 10 13  1  0  0  0
 13 14  1  0  0  0
 14 16  1  0  0  0
 16 17  1  0  0  0
 17 18  1  0  0  0
 17 19  1  0  0  0
 17 20  1  0  0  0
 10 11  1  0  0  0
 11 12  2  0  0  0
  6  1  1  0  0  0
 12  7  1  0  0  0
 35 29  1  0  0  0
 21 22  1  0  0  0
 27 28  1  0  0  0
 33 36  1  0  0  0
 14 15  1  0  0  0
M  END
> <minimizedAffinity>
-7.39531

> <CNNscore>
0.3786840439

> <CNNaffinity>
6.8188309669

> <CNN_VS>
2.5821824074

> <CNNaffinity_variance>
0.3915472925

$$$$
[H]OC1([H])C([H])([H])C([H])([H])C([H])([H])C([H])([H])n2c([H])c(-c3c([H])c([H])c(C([H])([H])N4C([H])([H])C([H])([H])N(C([H])([H])[H])C([H])([H])C4([H])[H])c([H])c3[H])c3c([H])nc(nc32)N([H])C([H])([H])C([H])([H])C([H])([H])C([H])([H])C([H])([H])C1([H])[H]


 38 42  0  0  0  0  0  0  0  0999 V2000
    3.1358    3.3678   15.3834 C   0  0  0  0  0  0  0  0  0  0  0  0
    3.4573    4.5633   15.9865 C   0  0  0  0  0  0  0  0  0  0  0  0
    3.8027    4.3654   17.2804 N   0  0  0  0  0  0  0  0  0  0  0  0
    4.2102    5.3245   18.2880 C   0  0  0  0  0  0  0  0  0  0  0  0
    5.6621    5.0926   18.6039 C   0  0  0  0  0  0  0  0  0  0  0  0
    5.9898    5.9502   19.8332 C   0  0  0  0  0  0  0  0  0  0  0  0
    5.7678    5.1958   21.1113 C   0  0  0  0  0  0  0  0  0  0  0  0
    4.8377    5.8965   22.0683 C   0  0  0  0  0  0  0  0  0  0  0  0
    4.4662    7.1538   21.6434 O   0  0  0  0  0  0  0  0  0  0  0  0
    3.5851    5.0820   22.3146 C   0  0  0  0  0  0  0  0  0  0  0  0
    3.6629    4.2806   23.5853 C   0  0  0  0  0  0  0  0  0  0  0  0
    4.3881    2.9713   23.4150 C   0  0  0  0  0  0  0  0  0  0  0  0
    3.5957    1.9907   22.5765 C   0  0  0  0  0  0  0  0  0  0  0  0
    4.4798    0.8177   22.2863 C   0  0  0  0  0  0  0  0  0  0  0  0
    5.0288    0.8386   20.8774 C   0  0  0  0  0  0  0  0  0  0  0  0
    4.0571    0.3906   19.9089 N   0  0  0  0  0  0  0  0  0  0  0  0
    3.7910    1.0756   18.6781 C   0  0  0  0  0  0  0  0  0  0  0  0
    3.3905    0.3857   17.5793 N   0  0  0  0  0  0  0  0  0  0  0  0
    3.1438    1.0398   16.4293 C   0  0  0  0  0  0  0  0  0  0  0  0
    3.2996    2.3977   16.3789 C   0  0  0  0  0  0  0  0  0  0  0  0
    3.7051    3.0713   17.5027 C   0  0  0  0  0  0  0  0  0  0  0  0
    3.9423    2.4004   18.6270 N   0  0  0  0  0  0  0  0  0  0  0  0
    3.5578    7.1254   21.2564 H   0  0  0  0  0  0  0  0  0  0  0  0
    3.5241   -0.4805   20.1248 H   0  0  0  0  0  0  0  0  0  0  0  0
    2.0449    2.6756   11.3154 C   0  0  0  0  0  0  0  0  0  0  0  0
    3.1246    3.4362   11.6551 C   0  0  0  0  0  0  0  0  0  0  0  0
    3.4536    3.6437   12.9765 C   0  0  0  0  0  0  0  0  0  0  0  0
    2.7132    3.0967   14.0156 C   0  0  0  0  0  0  0  0  0  0  0  0
    1.6236    2.3291   13.6740 C   0  0  0  0  0  0  0  0  0  0  0  0
    1.2994    2.1253   12.3402 C   0  0  0  0  0  0  0  0  0  0  0  0
    1.6561    2.4265    9.9088 C   0  0  0  0  0  0  0  0  0  0  0  0
   -3.5746    4.0180    9.3175 C   0  0  0  0  0  0  0  0  0  0  0  0
   -2.2565    3.5065    9.6533 N   0  0  0  0  0  0  0  0  0  0  0  0
   -1.7813    2.6999    8.5449 C   0  0  0  0  0  0  0  0  0  0  0  0
   -0.5527    1.9438    9.0174 C   0  0  0  0  0  0  0  0  0  0  0  0
    0.3153    2.8289    9.6946 N   0  0  0  0  0  0  0  0  0  0  0  0
    0.0754    4.2232    9.5349 C   0  0  0  0  0  0  0  0  0  0  0  0
   -1.3438    4.6091    9.9225 C   0  0  0  0  0  0  0  0  0  0  0  0
 32 33  1  0  0  0
 33 34  1  0  0  0
 34 35  1  0  0  0
 35 36  1  0  0  0
 36 31  1  0  0  0
 31 25  1  0  0  0
 25 26  2  0  0  0
 26 27  1  0  0  0
 27 28  2  0  0  0
 28 29  1  0  0  0
 29 30  2  0  0  0
 28  1  1  0  0  0
  1  2  2  0  0  0
  2  3  1  0  0  0
  3  4  1  0  0  0
  4  5  1  0  0  0
  5  6  1  0  0  0
  6  7  1  0  0  0
  7  8  1  0  0  0
  8  9  1  0  0  0
  8 10  1  0  0  0
 10 11  1  0  0  0
 11 12  1  0  0  0
 12 13  1  0  0  0
 13 14  1  0  0  0
 14 15  1  0  0  0
 15 16  1  0  0  0
 16 17  1  0  0  0
 17 18  2  0  0  0
 18 19  1  0  0  0
 19 20  2  0  0  0
 20 21  1  0  0  0
 21 22  2  0  0  0
 36 37  1  0  0  0
 37 38  1  0  0  0
 38 33  1  0  0  0
 30 25  1  0  0  0
 20  1  1  0  0  0
 21  3  1  0  0  0
 22 17  1  0  0  0
  9 23  1  0  0  0
 16 24  1  0  0  0
M  END
> <minimizedAffinity>
-10.32695

> <CNNscore>
0.8151063919

> <CNNaffinity>
7.2726058960

> <CNN_VS>
5.9279475212

> <CNNaffinity_variance>
0.1663883477

$$$$
[H]OC1([H])C([H])([H])C([H])([H])C([H])([H])C([H])([H])n2c([H])c(-c3c([H])c([H])c(C([H])([H])N4C([H])([H])C([H])([H])N(C([H])([H])[H])C([H])([H])C4([H])[H])c([H])c3[H])c3c([H])nc(nc32)N([H])C([H])([H])C([H])([H])C([H])([H])C([H])([H])C([H])([H])C1([H])[H]


 38 42  0  0  0  0  0  0  0  0999 V2000
    3.1895    3.3350   15.4164 C   0  0  0  0  0  0  0  0  0  0  0  0
    3.5084    4.5338   16.0143 C   0  0  0  0  0  0  0  0  0  0  0  0
    3.8432    4.3437   17.3121 N   0  0  0  0  0  0  0  0  0  0  0  0
    4.2444    5.3086   18.3167 C   0  0  0  0  0  0  0  0  0  0  0  0
    5.6933    5.0763   18.6455 C   0  0  0  0  0  0  0  0  0  0  0  0
    6.0128    5.9411   19.8719 C   0  0  0  0  0  0  0  0  0  0  0  0
    5.7795    5.1954   21.1531 C   0  0  0  0  0  0  0  0  0  0  0  0
    4.8430    5.9038   22.0981 C   0  0  0  0  0  0  0  0  0  0  0  0
    4.4771    7.1590   21.6622 O   0  0  0  0  0  0  0  0  0  0  0  0
    3.5872    5.0930   22.3397 C   0  0  0  0  0  0  0  0  0  0  0  0
    3.6535    4.2996   23.6162 C   0  0  0  0  0  0  0  0  0  0  0  0
    4.3777    2.9880   23.4599 C   0  0  0  0  0  0  0  0  0  0  0  0
    3.5903    2.0034   22.6215 C   0  0  0  0  0  0  0  0  0  0  0  0
    4.4746    0.8271   22.3458 C   0  0  0  0  0  0  0  0  0  0  0  0
    5.0347    0.8380   20.9412 C   0  0  0  0  0  0  0  0  0  0  0  0
    4.0699    0.3854   19.9679 N   0  0  0  0  0  0  0  0  0  0  0  0
    3.8147    1.0629   18.7307 C   0  0  0  0  0  0  0  0  0  0  0  0
    3.4217    0.3667   17.6333 N   0  0  0  0  0  0  0  0  0  0  0  0
    3.1853    1.0138   16.4771 C   0  0  0  0  0  0  0  0  0  0  0  0
    3.3438    2.3711   16.4193 C   0  0  0  0  0  0  0  0  0  0  0  0
    3.7416    3.0513   17.5419 C   0  0  0  0  0  0  0  0  0  0  0  0
    3.9687    2.3871   18.6723 N   0  0  0  0  0  0  0  0  0  0  0  0
    3.5718    7.1296   21.2683 H   0  0  0  0  0  0  0  0  0  0  0  0
    3.5337   -0.4833   20.1852 H   0  0  0  0  0  0  0  0  0  0  0  0
    2.1304    2.6174   11.3444 C   0  0  0  0  0  0  0  0  0  0  0  0
    3.2136    3.3713   11.6876 C   0  0  0  0  0  0  0  0  0  0  0  0
    3.5322    3.5873   13.0103 C   0  0  0  0  0  0  0  0  0  0  0  0
    2.7773    3.0559   14.0470 C   0  0  0  0  0  0  0  0  0  0  0  0
    1.6841    2.2951   13.7018 C   0  0  0  0  0  0  0  0  0  0  0  0
    1.3705    2.0826   12.3668 C   0  0  0  0  0  0  0  0  0  0  0  0
    1.7525    2.3596    9.9364 C   0  0  0  0  0  0  0  0  0  0  0  0
    5.6065   -0.8965    7.7484 C   0  0  0  0  0  0  0  0  0  0  0  0
    4.7458    0.0499    8.4377 N   0  0  0  0  0  0  0  0  0  0  0  0
    4.0316    0.8289    7.4437 C   0  0  0  0  0  0  0  0  0  0  0  0
    3.3679    1.9923    8.1582 C   0  0  0  0  0  0  0  0  0  0  0  0
    2.7136    1.5227    9.3187 N   0  0  0  0  0  0  0  0  0  0  0  0
    2.5143    0.1172    9.4285 C   0  0  0  0  0  0  0  0  0  0  0  0
    3.8174   -0.6579    9.3085 C   0  0  0  0  0  0  0  0  0  0  0  0
 32 33  1  0  0  0
 33 34  1  0  0  0
 34 35  1  0  0  0
 35 36  1  0  0  0
 36 31  1  0  0  0
 31 25  1  0  0  0
 25 26  2  0  0  0
 26 27  1  0  0  0
 27 28  2  0  0  0
 28 29  1  0  0  0
 29 30  2  0  0  0
 28  1  1  0  0  0
  1  2  2  0  0  0
  2  3  1  0  0  0
  3  4  1  0  0  0
  4  5  1  0  0  0
  5  6  1  0  0  0
  6  7  1  0  0  0
  7  8  1  0  0  0
  8  9  1  0  0  0
  8 10  1  0  0  0
 10 11  1  0  0  0
 11 12  1  0  0  0
 12 13  1  0  0  0
 13 14  1  0  0  0
 14 15  1  0  0  0
 15 16  1  0  0  0
 16 17  1  0  0  0
 17 18  2  0  0  0
 18 19  1  0  0  0
 19 20  2  0  0  0
 20 21  1  0  0  0
 21 22  2  0  0  0
 36 37  1  0  0  0
 37 38  1  0  0  0
 38 33  1  0  0  0
 30 25  1  0  0  0
 20  1  1  0  0  0
 21  3  1  0  0  0
 22 17  1  0  0  0
  9 23  1  0  0  0
 16 24  1  0  0  0
M  END
> <minimizedAffinity>
-10.45555

> <CNNscore>
0.8004845977

> <CNNaffinity>
7.3019142151

> <CNN_VS>
5.8450698853

> <CNNaffinity_variance>
0.1387797594

$$$$
[H]OC1([H])C([H])([H])C([H])([H])C([H])([H])C([H])([H])n2c([H])c(-c3c([H])c([H])c(C([H])([H])N4C([H])([H])C([H])([H])N(C([H])([H])[H])C([H])([H])C4([H])[H])c([H])c3[H])c3c([H])nc(nc32)N([H])C([H])([H])C([H])([H])C([H])([H])C([H])([H])C([H])([H])C1([H])[H]


 38 42  0  0  0  0  0  0  0  0999 V2000
    3.3835    3.8820   15.2947 C   0  0  0  0  0  0  0  0  0  0  0  0
    3.6834    5.0354   15.9847 C   0  0  0  0  0  0  0  0  0  0  0  0
    3.9919    4.7527   17.2722 N   0  0  0  0  0  0  0  0  0  0  0  0
    4.3669    5.6436   18.3524 C   0  0  0  0  0  0  0  0  0  0  0  0
    5.8098    5.3934   18.6943 C   0  0  0  0  0  0  0  0  0  0  0  0
    6.0989    6.1681   19.9867 C   0  0  0  0  0  0  0  0  0  0  0  0
    5.8426    5.3305   21.2052 C   0  0  0  0  0  0  0  0  0  0  0  0
    4.8829    5.9649   22.1789 C   0  0  0  0  0  0  0  0  0  0  0  0
    4.5196    7.2471   21.8275 O   0  0  0  0  0  0  0  0  0  0  0  0
    3.6265    5.1341   22.3342 C   0  0  0  0  0  0  0  0  0  0  0  0
    3.6701    4.2503   23.5509 C   0  0  0  0  0  0  0  0  0  0  0  0
    4.4043    2.9563   23.3155 C   0  0  0  0  0  0  0  0  0  0  0  0
    3.6398    2.0322   22.3913 C   0  0  0  0  0  0  0  0  0  0  0  0
    4.5358    0.8823   22.0499 C   0  0  0  0  0  0  0  0  0  0  0  0
    5.1253    0.9972   20.6620 C   0  0  0  0  0  0  0  0  0  0  0  0
    4.1835    0.6130   19.6382 N   0  0  0  0  0  0  0  0  0  0  0  0
    3.9508    1.3775   18.4482 C   0  0  0  0  0  0  0  0  0  0  0  0
    3.5846    0.7614   17.2950 N   0  0  0  0  0  0  0  0  0  0  0  0
    3.3691    1.4899   16.1841 C   0  0  0  0  0  0  0  0  0  0  0  0
    3.5217    2.8483   16.2282 C   0  0  0  0  0  0  0  0  0  0  0  0
    3.8922    3.4467   17.4054 C   0  0  0  0  0  0  0  0  0  0  0  0
    4.0991    2.7030   18.4892 N   0  0  0  0  0  0  0  0  0  0  0  0
    3.6229    7.2431   21.4132 H   0  0  0  0  0  0  0  0  0  0  0  0
    3.6474   -0.2712   19.7804 H   0  0  0  0  0  0  0  0  0  0  0  0
    2.0929    3.3001   11.2681 C   0  0  0  0  0  0  0  0  0  0  0  0
    1.2747    3.0578   12.3318 C   0  0  0  0  0  0  0  0  0  0  0  0
    1.7176    3.2536   13.6214 C   0  0  0  0  0  0  0  0  0  0  0  0
    3.0016    3.7015   13.9003 C   0  0  0  0  0  0  0  0  0  0  0  0
    3.8280    3.9463   12.8278 C   0  0  0  0  0  0  0  0  0  0  0  0
    3.3736    3.7463   11.5319 C   0  0  0  0  0  0  0  0  0  0  0  0
    1.6579    3.1038    9.8667 C   0  0  0  0  0  0  0  0  0  0  0  0
   -0.0107   -2.1041    9.2858 C   0  0  0  0  0  0  0  0  0  0  0  0
    0.4372   -0.7695    9.6463 N   0  0  0  0  0  0  0  0  0  0  0  0
    1.6526   -0.4787    8.9092 C   0  0  0  0  0  0  0  0  0  0  0  0
    2.2629    0.7783    9.5024 C   0  0  0  0  0  0  0  0  0  0  0  0
    1.2599    1.7600    9.6631 N   0  0  0  0  0  0  0  0  0  0  0  0
    0.0265    1.5456    8.9850 C   0  0  0  0  0  0  0  0  0  0  0  0
   -0.6001    0.2070    9.3437 C   0  0  0  0  0  0  0  0  0  0  0  0
 32 33  1  0  0  0
 33 34  1  0  0  0
 34 35  1  0  0  0
 35 36  1  0  0  0
 36 31  1  0  0  0
 31 25  1  0  0  0
 25 26  2  0  0  0
 26 27  1  0  0  0
 27 28  2  0  0  0
 28 29  1  0  0  0
 29 30  2  0  0  0
 28  1  1  0  0  0
  1  2  2  0  0  0
  2  3  1  0  0  0
  3  4  1  0  0  0
  4  5  1  0  0  0
  5  6  1  0  0  0
  6  7  1  0  0  0
  7  8  1  0  0  0
  8  9  1  0  0  0
  8 10  1  0  0  0
 10 11  1  0  0  0
 11 12  1  0  0  0
 12 13  1  0  0  0
 13 14  1  0  0  0
 14 15  1  0  0  0
 15 16  1  0  0  0
 16 17  1  0  0  0
 17 18  2  0  0  0
 18 19  1  0  0  0
 19 20  2  0  0  0
 20 21  1  0  0  0
 21 22  2  0  0  0
 36 37  1  0  0  0
 37 38  1  0  0  0
 38 33  1  0  0  0
 30 25  1  0  0  0
 20  1  1  0  0  0
 21  3  1  0  0  0
 22 17  1  0  0  0
  9 23  1  0  0  0
 16 24  1  0  0  0
M  END
> <minimizedAffinity>
-10.35371

> <CNNscore>
0.6971858740

> <CNNaffinity>
7.1258964539

> <CNN_VS>
4.9680743217

> <CNNaffinity_variance>
0.2111405879

$$$$
[H]OC1([H])C([H])([H])C([H])([H])C([H])([H])C([H])([H])n2c([H])c(-c3c([H])c([H])c(C([H])([H])N4C([H])([H])C([H])([H])N(C([H])([H])[H])C([H])([H])C4([H])[H])c([H])c3[H])c3c([H])nc(nc32)N([H])C([H])([H])C([H])([H])C([H])([H])C([H])([H])C([H])([H])C1([H])[H]


 38 42  0  0  0  0  0  0  0  0999 V2000
    3.4306    4.5334   15.2625 C   0  0  0  0  0  0  0  0  0  0  0  0
    3.7377    5.6022   16.0747 C   0  0  0  0  0  0  0  0  0  0  0  0
    4.0309    5.1791   17.3268 N   0  0  0  0  0  0  0  0  0  0  0  0
    4.4063    5.9440   18.4995 C   0  0  0  0  0  0  0  0  0  0  0  0
    5.8430    5.6402   18.8240 C   0  0  0  0  0  0  0  0  0  0  0  0
    6.1292    6.2679   20.1944 C   0  0  0  0  0  0  0  0  0  0  0  0
    5.8518    5.3077   21.3137 C   0  0  0  0  0  0  0  0  0  0  0  0
    4.8906    5.8461   22.3424 C   0  0  0  0  0  0  0  0  0  0  0  0
    4.5457    7.1631   22.1278 O   0  0  0  0  0  0  0  0  0  0  0  0
    3.6231    5.0195   22.3975 C   0  0  0  0  0  0  0  0  0  0  0  0
    3.6450    4.0097   23.5125 C   0  0  0  0  0  0  0  0  0  0  0  0
    4.3660    2.7392   23.1452 C   0  0  0  0  0  0  0  0  0  0  0  0
    3.5993    1.9294   22.1210 C   0  0  0  0  0  0  0  0  0  0  0  0
    4.4848    0.8115   21.6652 C   0  0  0  0  0  0  0  0  0  0  0  0
    5.0884    1.0673   20.3024 C   0  0  0  0  0  0  0  0  0  0  0  0
    4.1517    0.8071   19.2358 N   0  0  0  0  0  0  0  0  0  0  0  0
    3.9391    1.6979   18.1330 C   0  0  0  0  0  0  0  0  0  0  0  0
    3.5764    1.2139   16.9174 N   0  0  0  0  0  0  0  0  0  0  0  0
    3.3797    2.0600   15.8895 C   0  0  0  0  0  0  0  0  0  0  0  0
    3.5480    3.4039   16.0805 C   0  0  0  0  0  0  0  0  0  0  0  0
    3.9146    3.8676   17.3181 C   0  0  0  0  0  0  0  0  0  0  0  0
    4.1026    3.0094   18.3174 N   0  0  0  0  0  0  0  0  0  0  0  0
    3.6529    7.2150   21.7084 H   0  0  0  0  0  0  0  0  0  0  0  0
    3.6039   -0.0803   19.2779 H   0  0  0  0  0  0  0  0  0  0  0  0
    2.1768    4.5363   11.1826 C   0  0  0  0  0  0  0  0  0  0  0  0
    1.3693    4.9811   12.1874 C   0  0  0  0  0  0  0  0  0  0  0  0
    1.7995    4.9683   13.4960 C   0  0  0  0  0  0  0  0  0  0  0  0
    3.0595    4.5086   13.8537 C   0  0  0  0  0  0  0  0  0  0  0  0
    3.8751    4.0596   12.8406 C   0  0  0  0  0  0  0  0  0  0  0  0
    3.4337    4.0760   11.5251 C   0  0  0  0  0  0  0  0  0  0  0  0
    1.7552    4.5330    9.7634 C   0  0  0  0  0  0  0  0  0  0  0  0
    2.2043    9.6808    7.8817 C   0  0  0  0  0  0  0  0  0  0  0  0
    2.0253    8.4088    8.5610 N   0  0  0  0  0  0  0  0  0  0  0  0
    1.0998    7.6020    7.7880 C   0  0  0  0  0  0  0  0  0  0  0  0
    0.6990    6.4128    8.6422 C   0  0  0  0  0  0  0  0  0  0  0  0
    1.8516    5.8383    9.2228 N   0  0  0  0  0  0  0  0  0  0  0  0
    3.1117    6.2247    8.6843 C   0  0  0  0  0  0  0  0  0  0  0  0
    3.3070    7.7329    8.7071 C   0  0  0  0  0  0  0  0  0  0  0  0
 32 33  1  0  0  0
 33 34  1  0  0  0
 34 35  1  0  0  0
 35 36  1  0  0  0
 36 31  1  0  0  0
 31 25  1  0  0  0
 25 26  2  0  0  0
 26 27  1  0  0  0
 27 28  2  0  0  0
 28 29  1  0  0  0
 29 30  2  0  0  0
 28  1  1  0  0  0
  1  2  2  0  0  0
  2  3  1  0  0  0
  3  4  1  0  0  0
  4  5  1  0  0  0
  5  6  1  0  0  0
  6  7  1  0  0  0
  7  8  1  0  0  0
  8  9  1  0  0  0
  8 10  1  0  0  0
 10 11  1  0  0  0
 11 12  1  0  0  0
 12 13  1  0  0  0
 13 14  1  0  0  0
 14 15  1  0  0  0
 15 16  1  0  0  0
 16 17  1  0  0  0
 17 18  2  0  0  0
 18 19  1  0  0  0
 19 20  2  0  0  0
 20 21  1  0  0  0
 21 22  2  0  0  0
 36 37  1  0  0  0
 37 38  1  0  0  0
 38 33  1  0  0  0
 30 25  1  0  0  0
 20  1  1  0  0  0
 21  3  1  0  0  0
 22 17  1  0  0  0
  9 23  1  0  0  0
 16 24  1  0  0  0
M  END
> <minimizedAffinity>
-10.29968

> <CNNscore>
0.5388004184

> <CNNaffinity>
6.8898086548

> <CNN_VS>
3.7122318745

> <CNNaffinity_variance>
0.4069779515

$$$$
[H]OC1([H])C([H])([H])C([H])([H])C([H])([H])C([H])([H])n2c([H])c(-c3c([H])c([H])c(C([H])([H])N4C([H])([H])C([H])([H])N(C([H])([H])[H])C([H])([H])C4([H])[H])c([H])c3[H])c3c([H])nc(nc32)N([H])C([H])([H])C([H])([H])C([H])([H])C([H])([H])C([H])([H])C1([H])[H]


 38 42  0  0  0  0  0  0  0  0999 V2000
    1.4499    1.8069    9.2291 C   0  0  0  0  0  0  0  0  0  0  0  0
    0.2711    1.1511    8.9526 C   0  0  0  0  0  0  0  0  0  0  0  0
    0.5084   -0.1480    8.6544 N   0  0  0  0  0  0  0  0  0  0  0  0
   -0.4215   -1.2030    8.3030 C   0  0  0  0  0  0  0  0  0  0  0  0
   -0.4514   -2.2024    9.4264 C   0  0  0  0  0  0  0  0  0  0  0  0
   -1.2474   -3.4126    8.9207 C   0  0  0  0  0  0  0  0  0  0  0  0
   -0.3570   -4.4293    8.2683 C   0  0  0  0  0  0  0  0  0  0  0  0
   -0.7774   -4.7830    6.8647 C   0  0  0  0  0  0  0  0  0  0  0  0
   -1.9697   -4.2014    6.4911 O   0  0  0  0  0  0  0  0  0  0  0  0
    0.2843   -4.3942    5.8574 C   0  0  0  0  0  0  0  0  0  0  0  0
    1.1615   -5.5541    5.4722 C   0  0  0  0  0  0  0  0  0  0  0  0
    2.2842   -5.7954    6.4471 C   0  0  0  0  0  0  0  0  0  0  0  0
    3.3249   -4.6968    6.3947 C   0  0  0  0  0  0  0  0  0  0  0  0
    4.2730   -4.9098    7.5337 C   0  0  0  0  0  0  0  0  0  0  0  0
    4.0240   -3.9584    8.6825 C   0  0  0  0  0  0  0  0  0  0  0  0
    4.5681   -2.6460    8.4288 N   0  0  0  0  0  0  0  0  0  0  0  0
    3.8450   -1.4300    8.6598 C   0  0  0  0  0  0  0  0  0  0  0  0
    4.5025   -0.2932    9.0045 N   0  0  0  0  0  0  0  0  0  0  0  0
    3.8127    0.8423    9.2190 C   0  0  0  0  0  0  0  0  0  0  0  0
    2.4514    0.8396    9.0872 C   0  0  0  0  0  0  0  0  0  0  0  0
    1.8108   -0.3218    8.7379 C   0  0  0  0  0  0  0  0  0  0  0  0
    2.5168   -1.4307    8.5315 N   0  0  0  0  0  0  0  0  0  0  0  0
   -1.7978   -3.4158    5.9177 H   0  0  0  0  0  0  0  0  0  0  0  0
    5.5419   -2.5888    8.0572 H   0  0  0  0  0  0  0  0  0  0  0  0
    2.0314    5.9335   10.1517 C   0  0  0  0  0  0  0  0  0  0  0  0
    1.3894    5.5295    9.0184 C   0  0  0  0  0  0  0  0  0  0  0  0
    1.2160    4.1905    8.7452 C   0  0  0  0  0  0  0  0  0  0  0  0
    1.6795    3.1978    9.5977 C   0  0  0  0  0  0  0  0  0  0  0  0
    2.3274    3.6043   10.7414 C   0  0  0  0  0  0  0  0  0  0  0  0
    2.4977    4.9554   11.0088 C   0  0  0  0  0  0  0  0  0  0  0  0
    2.2387    7.3611   10.4845 C   0  0  0  0  0  0  0  0  0  0  0  0
    5.5075    9.8798    6.8493 C   0  0  0  0  0  0  0  0  0  0  0  0
    4.6488    9.3961    7.9171 N   0  0  0  0  0  0  0  0  0  0  0  0
    3.4110    8.9186    7.3300 C   0  0  0  0  0  0  0  0  0  0  0  0
    2.4218    8.6914    8.4588 C   0  0  0  0  0  0  0  0  0  0  0  0
    3.0518    7.9779    9.5026 N   0  0  0  0  0  0  0  0  0  0  0  0
    4.2939    7.3499    9.2028 C   0  0  0  0  0  0  0  0  0  0  0  0
    5.3169    8.3338    8.6564 C   0  0  0  0  0  0  0  0  0  0  0  0
 32 33  1  0  0  0
 33 34  1  0  0  0
 34 35  1  0  0  0
 35 36  1  0  0  0
 36 31  1  0  0  0
 31 25  1  0  0  0
 25 26  2  0  0  0
 26 27  1  0  0  0
 27 28  2  0  0  0
 28 29  1  0  0  0
 29 30  2  0  0  0
 28  1  1  0  0  0
  1  2  2  0  0  0
  2  3  1  0  0  0
  3  4  1  0  0  0
  4  5  1  0  0  0
  5  6  1  0  0  0
  6  7  1  0  0  0
  7  8  1  0  0  0
  8  9  1  0  0  0
  8 10  1  0  0  0
 10 11  1  0  0  0
 11 12  1  0  0  0
 12 13  1  0  0  0
 13 14  1  0  0  0
 14 15  1  0  0  0
 15 16  1  0  0  0
 16 17  1  0  0  0
 17 18  2  0  0  0
 18 19  1  0  0  0
 19 20  2  0  0  0
 20 21  1  0  0  0
 21 22  2  0  0  0
 36 37  1  0  0  0
 37 38  1  0  0  0
 38 33  1  0  0  0
 30 25  1  0  0  0
 20  1  1  0  0  0
 21  3  1  0  0  0
 22 17  1  0  0  0
  9 23  1  0  0  0
 16 24  1  0  0  0
M  END
> <minimizedAffinity>
-4.90187

> <CNNscore>
0.5199670792

> <CNNaffinity>
5.5561904907

> <CNN_VS>
2.8890361786

> <CNNaffinity_variance>
0.1613214165

$$$$
[H]OC1([H])C([H])([H])C([H])([H])C([H])([H])C([H])([H])n2c([H])c(-c3c([H])c([H])c(C([H])([H])N4C([H])([H])C([H])([H])N(C([H])([H])[H])C([H])([H])C4([H])[H])c([H])c3[H])c3c([H])nc(nc32)N([H])C([H])([H])C([H])([H])C([H])([H])C([H])([H])C([H])([H])C1([H])[H]


 38 42  0  0  0  0  0  0  0  0999 V2000
    3.1934    4.5119   15.2954 C   0  0  0  0  0  0  0  0  0  0  0  0
    3.5000    5.5935   16.0907 C   0  0  0  0  0  0  0  0  0  0  0  0
    3.8462    5.1862   17.3345 N   0  0  0  0  0  0  0  0  0  0  0  0
    4.2410    5.9681   18.4894 C   0  0  0  0  0  0  0  0  0  0  0  0
    5.6952    5.7034   18.7667 C   0  0  0  0  0  0  0  0  0  0  0  0
    6.0112    6.3473   20.1231 C   0  0  0  0  0  0  0  0  0  0  0  0
    5.7967    5.3875   21.2565 C   0  0  0  0  0  0  0  0  0  0  0  0
    4.8572    5.9077   22.3142 C   0  0  0  0  0  0  0  0  0  0  0  0
    4.4713    7.2140   22.1040 O   0  0  0  0  0  0  0  0  0  0  0  0
    3.6141    5.0492   22.4169 C   0  0  0  0  0  0  0  0  0  0  0  0
    3.6998    4.0477   23.5362 C   0  0  0  0  0  0  0  0  0  0  0  0
    4.4407    2.7937   23.1518 C   0  0  0  0  0  0  0  0  0  0  0  0
    3.6610    1.9579   22.1589 C   0  0  0  0  0  0  0  0  0  0  0  0
    4.5593    0.8601   21.6796 C   0  0  0  0  0  0  0  0  0  0  0  0
    5.1097    1.1224   20.2957 C   0  0  0  0  0  0  0  0  0  0  0  0
    4.1446    0.8313   19.2629 N   0  0  0  0  0  0  0  0  0  0  0  0
    3.8718    1.7092   18.1630 C   0  0  0  0  0  0  0  0  0  0  0  0
    3.4809    1.2080   16.9632 N   0  0  0  0  0  0  0  0  0  0  0  0
    3.2278    2.0422   15.9378 C   0  0  0  0  0  0  0  0  0  0  0  0
    3.3675    3.3911   16.1154 C   0  0  0  0  0  0  0  0  0  0  0  0
    3.7636    3.8722   17.3372 C   0  0  0  0  0  0  0  0  0  0  0  0
    4.0074    3.0256   18.3344 N   0  0  0  0  0  0  0  0  0  0  0  0
    3.5638    7.2402   21.7149 H   0  0  0  0  0  0  0  0  0  0  0  0
    3.6216   -0.0696   19.3286 H   0  0  0  0  0  0  0  0  0  0  0  0
    1.8158    4.4831   11.2557 C   0  0  0  0  0  0  0  0  0  0  0  0
    1.1059    5.0764   12.2576 C   0  0  0  0  0  0  0  0  0  0  0  0
    1.5739    5.0702   13.5530 C   0  0  0  0  0  0  0  0  0  0  0  0
    2.7757    4.4683   13.9002 C   0  0  0  0  0  0  0  0  0  0  0  0
    3.4929    3.8695   12.8902 C   0  0  0  0  0  0  0  0  0  0  0  0
    3.0138    3.8803   11.5878 C   0  0  0  0  0  0  0  0  0  0  0  0
    1.3505    4.4669    9.8504 C   0  0  0  0  0  0  0  0  0  0  0  0
   -4.1073    3.7928    9.8897 C   0  0  0  0  0  0  0  0  0  0  0  0
   -2.6736    3.9260   10.0855 N   0  0  0  0  0  0  0  0  0  0  0  0
   -1.9994    3.0336    9.1613 C   0  0  0  0  0  0  0  0  0  0  0  0
   -0.5387    2.9642    9.5687 C   0  0  0  0  0  0  0  0  0  0  0  0
   -0.0511    4.2692    9.8029 N   0  0  0  0  0  0  0  0  0  0  0  0
   -0.8422    5.3534    9.3277 C   0  0  0  0  0  0  0  0  0  0  0  0
   -2.2632    5.3063    9.8679 C   0  0  0  0  0  0  0  0  0  0  0  0
 32 33  1  0  0  0
 33 34  1  0  0  0
 34 35  1  0  0  0
 35 36  1  0  0  0
 36 31  1  0  0  0
 31 25  1  0  0  0
 25 26  2  0  0  0
 26 27  1  0  0  0
 27 28  2  0  0  0
 28 29  1  0  0  0
 29 30  2  0  0  0
 28  1  1  0  0  0
  1  2  2  0  0  0
  2  3  1  0  0  0
  3  4  1  0  0  0
  4  5  1  0  0  0
  5  6  1  0  0  0
  6  7  1  0  0  0
  7  8  1  0  0  0
  8  9  1  0  0  0
  8 10  1  0  0  0
 10 11  1  0  0  0
 11 12  1  0  0  0
 12 13  1  0  0  0
 13 14  1  0  0  0
 14 15  1  0  0  0
 15 16  1  0  0  0
 16 17  1  0  0  0
 17 18  2  0  0  0
 18 19  1  0  0  0
 19 20  2  0  0  0
 20 21  1  0  0  0
 21 22  2  0  0  0
 36 37  1  0  0  0
 37 38  1  0  0  0
 38 33  1  0  0  0
 30 25  1  0  0  0
 20  1  1  0  0  0
 21  3  1  0  0  0
 22 17  1  0  0  0
  9 23  1  0  0  0
 16 24  1  0  0  0
M  END
> <minimizedAffinity>
-10.09012

> <CNNscore>
0.5036402345

> <CNNaffinity>
7.0040221214

> <CNN_VS>
3.5275073051

> <CNNaffinity_variance>
0.3942824006

$$$$
[H]OC1([H])C([H])([H])C([H])([H])C([H])([H])C([H])([H])n2c([H])c(-c3c([H])c([H])c(C([H])([H])N4C([H])([H])C([H])([H])N(C([H])([H])[H])C([H])([H])C4([H])[H])c([H])c3[H])c3c([H])nc(nc32)N([H])C([H])([H])C([H])([H])C([H])([H])C([H])([H])C([H])([H])C1([H])[H]


 38 42  0  0  0  0  0  0  0  0999 V2000
    3.3756    3.3977   15.0420 C   0  0  0  0  0  0  0  0  0  0  0  0
    3.6906    2.1786   15.5995 C   0  0  0  0  0  0  0  0  0  0  0  0
    3.8612    2.2973   16.9372 N   0  0  0  0  0  0  0  0  0  0  0  0
    4.1979    1.2881   17.9217 C   0  0  0  0  0  0  0  0  0  0  0  0
    3.0023    1.0727   18.8081 C   0  0  0  0  0  0  0  0  0  0  0  0
    3.4689    0.1908   19.9737 C   0  0  0  0  0  0  0  0  0  0  0  0
    3.9624    1.0124   21.1284 C   0  0  0  0  0  0  0  0  0  0  0  0
    5.3613    0.6575   21.5633 C   0  0  0  0  0  0  0  0  0  0  0  0
    5.8754   -0.4368   20.9019 O   0  0  0  0  0  0  0  0  0  0  0  0
    6.3091    1.8232   21.3742 C   0  0  0  0  0  0  0  0  0  0  0  0
    6.5264    2.5976   22.6456 C   0  0  0  0  0  0  0  0  0  0  0  0
    5.4485    3.6164   22.9088 C   0  0  0  0  0  0  0  0  0  0  0  0
    5.5077    4.7687   21.9284 C   0  0  0  0  0  0  0  0  0  0  0  0
    4.2830    5.6057   22.1314 C   0  0  0  0  0  0  0  0  0  0  0  0
    3.2398    5.3781   21.0605 C   0  0  0  0  0  0  0  0  0  0  0  0
    3.5561    6.0750   19.8369 N   0  0  0  0  0  0  0  0  0  0  0  0
    3.4842    5.4703   18.5392 C   0  0  0  0  0  0  0  0  0  0  0  0
    3.1826    6.2186   17.4472 N   0  0  0  0  0  0  0  0  0  0  0  0
    3.1178    5.6396   16.2339 C   0  0  0  0  0  0  0  0  0  0  0  0
    3.3573    4.2984   16.1130 C   0  0  0  0  0  0  0  0  0  0  0  0
    3.6600    3.5647   17.2316 C   0  0  0  0  0  0  0  0  0  0  0  0
    3.7176    4.1620   18.4192 N   0  0  0  0  0  0  0  0  0  0  0  0
    6.4958   -0.1424   20.1920 H   0  0  0  0  0  0  0  0  0  0  0  0
    3.8522    7.0732   19.9106 H   0  0  0  0  0  0  0  0  0  0  0  0
    2.3994    4.3977   11.0090 C   0  0  0  0  0  0  0  0  0  0  0  0
    1.4435    4.0667   11.9235 C   0  0  0  0  0  0  0  0  0  0  0  0
    1.7869    3.7476   13.2188 C   0  0  0  0  0  0  0  0  0  0  0  0
    3.1053    3.7467   13.6534 C   0  0  0  0  0  0  0  0  0  0  0  0
    4.0706    4.0806   12.7315 C   0  0  0  0  0  0  0  0  0  0  0  0
    3.7157    4.4007   11.4287 C   0  0  0  0  0  0  0  0  0  0  0  0
    2.0747    4.7479    9.6077 C   0  0  0  0  0  0  0  0  0  0  0  0
    5.1276    9.0898    8.1687 C   0  0  0  0  0  0  0  0  0  0  0  0
    4.4299    7.9453    8.7298 N   0  0  0  0  0  0  0  0  0  0  0  0
    3.0064    8.2256    8.7199 C   0  0  0  0  0  0  0  0  0  0  0  0
    2.3209    7.1653    9.5627 C   0  0  0  0  0  0  0  0  0  0  0  0
    2.8112    5.8892    9.2068 N   0  0  0  0  0  0  0  0  0  0  0  0
    3.5462    5.7913    7.9913 C   0  0  0  0  0  0  0  0  0  0  0  0
    4.7288    6.7471    7.9578 C   0  0  0  0  0  0  0  0  0  0  0  0
 32 33  1  0  0  0
 33 34  1  0  0  0
 34 35  1  0  0  0
 35 36  1  0  0  0
 36 31  1  0  0  0
 31 25  1  0  0  0
 25 26  2  0  0  0
 26 27  1  0  0  0
 27 28  2  0  0  0
 28 29  1  0  0  0
 29 30  2  0  0  0
 28  1  1  0  0  0
  1  2  2  0  0  0
  2  3  1  0  0  0
  3  4  1  0  0  0
  4  5  1  0  0  0
  5  6  1  0  0  0
  6  7  1  0  0  0
  7  8  1  0  0  0
  8  9  1  0  0  0
  8 10  1  0  0  0
 10 11  1  0  0  0
 11 12  1  0  0  0
 12 13  1  0  0  0
 13 14  1  0  0  0
 14 15  1  0  0  0
 15 16  1  0  0  0
 16 17  1  0  0  0
 17 18  2  0  0  0
 18 19  1  0  0  0
 19 20  2  0  0  0
 20 21  1  0  0  0
 21 22  2  0  0  0
 36 37  1  0  0  0
 37 38  1  0  0  0
 38 33  1  0  0  0
 30 25  1  0  0  0
 20  1  1  0  0  0
 21  3  1  0  0  0
 22 17  1  0  0  0
  9 23  1  0  0  0
 16 24  1  0  0  0
M  END
> <minimizedAffinity>
-8.30817

> <CNNscore>
0.2946870029

> <CNNaffinity>
6.4332833290

> <CNN_VS>
1.8958050013

> <CNNaffinity_variance>
0.0802800208

$$$$
[H]OC1([H])C([H])([H])C([H])([H])C([H])([H])C([H])([H])n2c([H])c(-c3c([H])c([H])c(C([H])([H])N4C([H])([H])C([H])([H])N(C([H])([H])[H])C([H])([H])C4([H])[H])c([H])c3[H])c3c([H])nc(nc32)N([H])C([H])([H])C([H])([H])C([H])([H])C([H])([H])C([H])([H])C1([H])[H]


 38 42  0  0  0  0  0  0  0  0999 V2000
    0.6299    1.2572   10.0256 C   0  0  0  0  0  0  0  0  0  0  0  0
   -0.4143    0.4665    9.6006 C   0  0  0  0  0  0  0  0  0  0  0  0
    0.0488   -0.6977    9.0880 N   0  0  0  0  0  0  0  0  0  0  0  0
   -0.6799   -1.8186    8.5277 C   0  0  0  0  0  0  0  0  0  0  0  0
   -0.5343   -2.9914    9.4577 C   0  0  0  0  0  0  0  0  0  0  0  0
   -1.1035   -4.2120    8.7228 C   0  0  0  0  0  0  0  0  0  0  0  0
   -0.0470   -4.9265    7.9321 C   0  0  0  0  0  0  0  0  0  0  0  0
   -0.3968   -5.0927    6.4754 C   0  0  0  0  0  0  0  0  0  0  0  0
   -1.6726   -4.6698    6.1707 O   0  0  0  0  0  0  0  0  0  0  0  0
    0.5807   -4.3530    5.5865 C   0  0  0  0  0  0  0  0  0  0  0  0
    1.6494   -5.2559    5.0333 C   0  0  0  0  0  0  0  0  0  0  0  0
    2.7959   -5.4681    5.9870 C   0  0  0  0  0  0  0  0  0  0  0  0
    3.6264   -4.2141    6.1610 C   0  0  0  0  0  0  0  0  0  0  0  0
    4.5960   -4.4582    7.2755 C   0  0  0  0  0  0  0  0  0  0  0  0
    4.1817   -3.7839    8.5641 C   0  0  0  0  0  0  0  0  0  0  0  0
    4.4859   -2.3732    8.5614 N   0  0  0  0  0  0  0  0  0  0  0  0
    3.5593   -1.3618    8.9776 C   0  0  0  0  0  0  0  0  0  0  0  0
    4.0055   -0.2077    9.5367 N   0  0  0  0  0  0  0  0  0  0  0  0
    3.1259    0.7345    9.9238 C   0  0  0  0  0  0  0  0  0  0  0  0
    1.7865    0.5191    9.7494 C   0  0  0  0  0  0  0  0  0  0  0  0
    1.3613   -0.6550    9.1820 C   0  0  0  0  0  0  0  0  0  0  0  0
    2.2522   -1.5700    8.8082 N   0  0  0  0  0  0  0  0  0  0  0  0
   -1.6414   -3.7770    5.7492 H   0  0  0  0  0  0  0  0  0  0  0  0
    5.4347   -2.0829    8.2372 H   0  0  0  0  0  0  0  0  0  0  0  0
    0.4861    5.1948   11.6664 C   0  0  0  0  0  0  0  0  0  0  0  0
    0.0058    4.9122   10.4218 C   0  0  0  0  0  0  0  0  0  0  0  0
    0.0655    3.6321    9.9166 C   0  0  0  0  0  0  0  0  0  0  0  0
    0.6100    2.5788   10.6386 C   0  0  0  0  0  0  0  0  0  0  0  0
    1.0949    2.8629   11.8946 C   0  0  0  0  0  0  0  0  0  0  0  0
    1.0308    4.1554   12.3957 C   0  0  0  0  0  0  0  0  0  0  0  0
    0.4414    6.5554   12.2481 C   0  0  0  0  0  0  0  0  0  0  0  0
    5.6222    8.3305   12.7493 C   0  0  0  0  0  0  0  0  0  0  0  0
    4.3205    7.6858   12.7129 N   0  0  0  0  0  0  0  0  0  0  0  0
    3.3579    8.5585   13.3584 C   0  0  0  0  0  0  0  0  0  0  0  0
    2.0834    7.7622   13.5726 C   0  0  0  0  0  0  0  0  0  0  0  0
    1.7534    7.0705   12.3859 N   0  0  0  0  0  0  0  0  0  0  0  0
    2.4201    7.4714   11.1935 C   0  0  0  0  0  0  0  0  0  0  0  0
    3.9333    7.4138   11.3355 C   0  0  0  0  0  0  0  0  0  0  0  0
 32 33  1  0  0  0
 33 34  1  0  0  0
 34 35  1  0  0  0
 35 36  1  0  0  0
 36 31  1  0  0  0
 31 25  1  0  0  0
 25 26  2  0  0  0
 26 27  1  0  0  0
 27 28  2  0  0  0
 28 29  1  0  0  0
 29 30  2  0  0  0
 28  1  1  0  0  0
  1  2  2  0  0  0
  2  3  1  0  0  0
  3  4  1  0  0  0
  4  5  1  0  0  0
  5  6  1  0  0  0
  6  7  1  0  0  0
  7  8  1  0  0  0
  8  9  1  0  0  0
  8 10  1  0  0  0
 10 11  1  0  0  0
 11 12  1  0  0  0
 12 13  1  0  0  0
 13 14  1  0  0  0
 14 15  1  0  0  0
 15 16  1  0  0  0
 16 17  1  0  0  0
 17 18  2  0  0  0
 18 19  1  0  0  0
 19 20  2  0  0  0
 20 21  1  0  0  0
 21 22  2  0  0  0
 36 37  1  0  0  0
 37 38  1  0  0  0
 38 33  1  0  0  0
 30 25  1  0  0  0
 20  1  1  0  0  0
 21  3  1  0  0  0
 22 17  1  0  0  0
  9 23  1  0  0  0
 16 24  1  0  0  0
M  END
> <minimizedAffinity>
-5.50801

> <CNNscore>
0.2882722914

> <CNNaffinity>
5.5150003433

> <CNN_VS>
1.5898218155

> <CNNaffinity_variance>
0.2725363076

$$$$
[H]OC1([H])C([H])([H])C([H])([H])C([H])([H])C([H])([H])n2c([H])c(-c3c([H])c([H])c(C([H])([H])N4C([H])([H])C([H])([H])N(C([H])([H])[H])C([H])([H])C4([H])[H])c([H])c3[H])c3c([H])nc(nc32)N([H])C([H])([H])C([H])([H])C([H])([H])C([H])([H])C([H])([H])C1([H])[H]


 38 42  0  0  0  0  0  0  0  0999 V2000
    3.2148    4.7211   11.0722 C   0  0  0  0  0  0  0  0  0  0  0  0
    3.0905    3.4382   11.5567 C   0  0  0  0  0  0  0  0  0  0  0  0
    3.1437    3.4335   12.9094 N   0  0  0  0  0  0  0  0  0  0  0  0
    3.0565    2.3227   13.8366 C   0  0  0  0  0  0  0  0  0  0  0  0
    1.7629    2.4382   14.5948 C   0  0  0  0  0  0  0  0  0  0  0  0
    1.8173    1.4001   15.7232 C   0  0  0  0  0  0  0  0  0  0  0  0
    2.4060    1.9748   16.9782 C   0  0  0  0  0  0  0  0  0  0  0  0
    3.5804    1.1901   17.5047 C   0  0  0  0  0  0  0  0  0  0  0  0
    3.8131    0.0250   16.8062 O   0  0  0  0  0  0  0  0  0  0  0  0
    4.8470    2.0198   17.4924 C   0  0  0  0  0  0  0  0  0  0  0  0
    5.1471    2.6279   18.8354 C   0  0  0  0  0  0  0  0  0  0  0  0
    4.3999    3.9122   19.0829 C   0  0  0  0  0  0  0  0  0  0  0  0
    4.9048    5.0385   18.2060 C   0  0  0  0  0  0  0  0  0  0  0  0
    3.9707    6.1976   18.3665 C   0  0  0  0  0  0  0  0  0  0  0  0
    3.0286    6.3511   17.1936 C   0  0  0  0  0  0  0  0  0  0  0  0
    3.6679    6.9778   16.0616 N   0  0  0  0  0  0  0  0  0  0  0  0
    3.5591    6.4881   14.7187 C   0  0  0  0  0  0  0  0  0  0  0  0
    3.6135    7.3453   13.6672 N   0  0  0  0  0  0  0  0  0  0  0  0
    3.5100    6.8738   12.4109 C   0  0  0  0  0  0  0  0  0  0  0  0
    3.3506    5.5310   12.2055 C   0  0  0  0  0  0  0  0  0  0  0  0
    3.2988    4.6860   13.2846 C   0  0  0  0  0  0  0  0  0  0  0  0
    3.4036    5.1784   14.5163 N   0  0  0  0  0  0  0  0  0  0  0  0
    4.5657    0.1511   16.1790 H   0  0  0  0  0  0  0  0  0  0  0  0
    4.2382    7.8336   16.2399 H   0  0  0  0  0  0  0  0  0  0  0  0
    3.3745    6.0523    7.0199 C   0  0  0  0  0  0  0  0  0  0  0  0
    4.3860    5.3333    7.5852 C   0  0  0  0  0  0  0  0  0  0  0  0
    4.3085    4.9168    8.8959 C   0  0  0  0  0  0  0  0  0  0  0  0
    3.2118    5.2035    9.6973 C   0  0  0  0  0  0  0  0  0  0  0  0
    2.1906    5.9290    9.1280 C   0  0  0  0  0  0  0  0  0  0  0  0
    2.2771    6.3446    7.8068 C   0  0  0  0  0  0  0  0  0  0  0  0
    3.4163    6.5190    5.6156 C   0  0  0  0  0  0  0  0  0  0  0  0
    7.5291   10.1121    4.9690 C   0  0  0  0  0  0  0  0  0  0  0  0
    6.5831    9.0435    5.2427 N   0  0  0  0  0  0  0  0  0  0  0  0
    5.4426    9.6077    5.9398 C   0  0  0  0  0  0  0  0  0  0  0  0
    4.6100    8.4552    6.4717 C   0  0  0  0  0  0  0  0  0  0  0  0
    4.4338    7.4909    5.4546 N   0  0  0  0  0  0  0  0  0  0  0  0
    4.7465    7.8864    4.1231 C   0  0  0  0  0  0  0  0  0  0  0  0
    6.1698    8.4082    3.9991 C   0  0  0  0  0  0  0  0  0  0  0  0
 32 33  1  0  0  0
 33 34  1  0  0  0
 34 35  1  0  0  0
 35 36  1  0  0  0
 36 31  1  0  0  0
 31 25  1  0  0  0
 25 26  2  0  0  0
 26 27  1  0  0  0
 27 28  2  0  0  0
 28 29  1  0  0  0
 29 30  2  0  0  0
 28  1  1  0  0  0
  1  2  2  0  0  0
  2  3  1  0  0  0
  3  4  1  0  0  0
  4  5  1  0  0  0
  5  6  1  0  0  0
  6  7  1  0  0  0
  7  8  1  0  0  0
  8  9  1  0  0  0
  8 10  1  0  0  0
 10 11  1  0  0  0
 11 12  1  0  0  0
 12 13  1  0  0  0
 13 14  1  0  0  0
 14 15  1  0  0  0
 15 16  1  0  0  0
 16 17  1  0  0  0
 17 18  2  0  0  0
 18 19  1  0  0  0
 19 20  2  0  0  0
 20 21  1  0  0  0
 21 22  2  0  0  0
 36 37  1  0  0  0
 37 38  1  0  0  0
 38 33  1  0  0  0
 30 25  1  0  0  0
 20  1  1  0  0  0
 21  3  1  0  0  0
 22 17  1  0  0  0
  9 23  1  0  0  0
 16 24  1  0  0  0
M  END
> <minimizedAffinity>
-6.62563

> <CNNscore>
0.2870575190

> <CNNaffinity>
5.9922838211

> <CNN_VS>
1.7201300859

> <CNNaffinity_variance>
0.1480589062

$$$$
[H]OC1([H])C([H])([H])C([H])([H])C([H])(N([H])c2nc(N([H])C([H])([H])C([H])([H])C([H])([H])C([H])([H])[H])nc([H])c2-c2nc([H])c(C([H])([H])N3C([H])([H])C([H])([H])N([H])C([H])([H])[C@]3([H])C([H])([H])[H])c([H])c2[H])C([H])([H])C1([H])[H]


 37 40  0  0  0  0  0  0  0  0999 V2000
    2.9642    0.0438   18.8659 C   0  0  0  0  0  0  0  0  0  0  0  0
    2.4293   -0.3351   17.7039 N   0  0  0  0  0  0  0  0  0  0  0  0
    2.4885    0.4093   16.5921 C   0  0  0  0  0  0  0  0  0  0  0  0
    3.1502    1.6523   16.6623 C   0  0  0  0  0  0  0  0  0  0  0  0
    3.7076    2.0628   17.8273 C   0  0  0  0  0  0  0  0  0  0  0  0
    3.5867    1.2279   18.8968 N   0  0  0  0  0  0  0  0  0  0  0  0
    3.1841    2.3935   15.4221 C   0  0  0  0  0  0  0  0  0  0  0  0
    2.7313    1.8408   14.2531 C   0  0  0  0  0  0  0  0  0  0  0  0
    2.8685    2.5775   13.0725 C   0  0  0  0  0  0  0  0  0  0  0  0
    3.4446    3.8152   13.1063 C   0  0  0  0  0  0  0  0  0  0  0  0
    3.8805    4.3157   14.3045 C   0  0  0  0  0  0  0  0  0  0  0  0
    3.7558    3.6284   15.4312 N   0  0  0  0  0  0  0  0  0  0  0  0
    3.5836    4.5859   11.8587 C   0  0  0  0  0  0  0  0  0  0  0  0
    2.8400    5.7688   11.7730 N   0  0  0  0  0  0  0  0  0  0  0  0
    1.4611    5.6942   12.0458 C   0  0  0  0  0  0  0  0  0  0  0  0
    0.6828    6.9239   11.7062 C   0  0  0  0  0  0  0  0  0  0  0  0
    1.5075    8.0375   11.2973 N   0  0  0  0  0  0  0  0  0  0  0  0
    2.5819    8.1573   12.2646 C   0  0  0  0  0  0  0  0  0  0  0  0
    3.5084    6.9838   12.0295 C   0  0  0  0  0  0  0  0  0  0  0  0
    4.3392    7.3357   10.7951 C   0  0  0  0  0  0  0  0  0  0  0  0
    0.9145    8.8856   11.2560 H   0  0  0  0  0  0  0  0  0  0  0  0
    2.9165   -0.7206   20.0563 N   0  0  0  0  0  0  0  0  0  0  0  0
    2.2713   -1.5641   20.1051 H   0  0  0  0  0  0  0  0  0  0  0  0
    3.7189   -0.3803   21.1944 C   0  0  0  0  0  0  0  0  0  0  0  0
    3.0569    0.7287   21.9678 C   0  0  0  0  0  0  0  0  0  0  0  0
    3.7443    2.8888   22.9713 C   0  0  0  0  0  0  0  0  0  0  0  0
    4.1647    1.4829   22.6782 C   0  0  0  0  0  0  0  0  0  0  0  0
    4.4955    3.2026   18.0174 N   0  0  0  0  0  0  0  0  0  0  0  0
    5.3282    3.4404   17.4528 H   0  0  0  0  0  0  0  0  0  0  0  0
    4.2312    4.1508   19.1093 C   0  0  0  0  0  0  0  0  0  0  0  0
    3.9533    5.4876   18.5069 C   0  0  0  0  0  0  0  0  0  0  0  0
    3.7808    6.6053   19.4754 C   0  0  0  0  0  0  0  0  0  0  0  0
    4.3987    6.2473   20.8060 C   0  0  0  0  0  0  0  0  0  0  0  0
    4.5658    7.3487   21.6352 O   0  0  0  0  0  0  0  0  0  0  0  0
    5.7416    5.5914   20.4715 C   0  0  0  0  0  0  0  0  0  0  0  0
    5.4189    4.1721   20.0483 C   0  0  0  0  0  0  0  0  0  0  0  0
    5.5198    7.5929   21.6378 H   0  0  0  0  0  0  0  0  0  0  0  0
 26 27  1  0  0  0
 27 25  1  0  0  0
 25 24  1  0  0  0
 24 22  1  0  0  0
 22  1  1  0  0  0
  1  2  2  0  0  0
  2  3  1  0  0  0
  3  4  2  0  0  0
  4  5  1  0  0  0
  5 28  1  0  0  0
 28 30  1  0  0  0
 30 31  1  0  0  0
 31 32  1  0  0  0
 32 33  1  0  0  0
 33 34  1  0  0  0
 33 35  1  0  0  0
 35 36  1  0  0  0
  5  6  2  0  0  0
  4  7  1  0  0  0
  7  8  2  0  0  0
  8  9  1  0  0  0
  9 10  2  0  0  0
 10 13  1  0  0  0
 13 14  1  0  0  0
 14 15  1  0  0  0
 15 16  1  0  0  0
 16 17  1  0  0  0
 17 18  1  0  0  0
 18 19  1  0  0  0
 19 20  1  0  0  0
 10 11  1  0  0  0
 11 12  2  0  0  0
  6  1  1  0  0  0
 12  7  1  0  0  0
 36 30  1  0  0  0
 19 14  1  0  0  0
 22 23  1  0  0  0
 28 29  1  0  0  0
 34 37  1  0  0  0
 17 21  1  0  0  0
M  END
> <minimizedAffinity>
-8.64077

> <CNNscore>
0.9509322047

> <CNNaffinity>
7.6136713028

> <CNN_VS>
7.2400851250

> <CNNaffinity_variance>
0.0988308489

$$$$
[H]OC1([H])C([H])([H])C([H])([H])C([H])(N([H])c2nc(N([H])C([H])([H])C([H])([H])C([H])([H])C([H])([H])[H])nc([H])c2-c2nc([H])c(C([H])([H])N3C([H])([H])C([H])([H])N([H])C([H])([H])[C@]3([H])C([H])([H])[H])c([H])c2[H])C([H])([H])C1([H])[H]


 37 40  0  0  0  0  0  0  0  0999 V2000
    3.6824    1.2222   18.7783 C   0  0  0  0  0  0  0  0  0  0  0  0
    3.2605    0.9159   17.5503 N   0  0  0  0  0  0  0  0  0  0  0  0
    3.1695    1.8141   16.5610 C   0  0  0  0  0  0  0  0  0  0  0  0
    3.5398    3.1456   16.8398 C   0  0  0  0  0  0  0  0  0  0  0  0
    3.9767    3.4868   18.0763 C   0  0  0  0  0  0  0  0  0  0  0  0
    4.0280    2.4943   19.0080 N   0  0  0  0  0  0  0  0  0  0  0  0
    3.4266    4.0546   15.7219 C   0  0  0  0  0  0  0  0  0  0  0  0
    3.8538    3.6960   14.4704 C   0  0  0  0  0  0  0  0  0  0  0  0
    3.7946    4.6494   13.4493 C   0  0  0  0  0  0  0  0  0  0  0  0
    3.3208    5.9024   13.7153 C   0  0  0  0  0  0  0  0  0  0  0  0
    2.9094    6.2040   14.9864 C   0  0  0  0  0  0  0  0  0  0  0  0
    2.9592    5.3095   15.9635 N   0  0  0  0  0  0  0  0  0  0  0  0
    3.2596    6.9004   12.6337 C   0  0  0  0  0  0  0  0  0  0  0  0
    4.4620    7.5399   12.3097 N   0  0  0  0  0  0  0  0  0  0  0  0
    5.1383    8.2195   13.3403 C   0  0  0  0  0  0  0  0  0  0  0  0
    6.2760    9.0777   12.8903 C   0  0  0  0  0  0  0  0  0  0  0  0
    6.5843    8.9418   11.4854 N   0  0  0  0  0  0  0  0  0  0  0  0
    6.6444    7.5224   11.1917 C   0  0  0  0  0  0  0  0  0  0  0  0
    5.2219    7.0086   11.2471 C   0  0  0  0  0  0  0  0  0  0  0  0
    4.5621    7.4348    9.9353 C   0  0  0  0  0  0  0  0  0  0  0  0
    7.4820    9.4238   11.2996 H   0  0  0  0  0  0  0  0  0  0  0  0
    3.7880    0.2954   19.8430 N   0  0  0  0  0  0  0  0  0  0  0  0
    3.3121   -0.6512   19.7553 H   0  0  0  0  0  0  0  0  0  0  0  0
    4.5219    0.6075   21.0342 C   0  0  0  0  0  0  0  0  0  0  0  0
    3.5637    0.9172   22.1532 C   0  0  0  0  0  0  0  0  0  0  0  0
    5.5726    2.3037   22.5868 C   0  0  0  0  0  0  0  0  0  0  0  0
    4.1125    2.1369   22.8687 C   0  0  0  0  0  0  0  0  0  0  0  0
    4.4912    4.7280   18.4648 N   0  0  0  0  0  0  0  0  0  0  0  0
    4.5615    5.5530   17.8458 H   0  0  0  0  0  0  0  0  0  0  0  0
    5.0479    4.9472   19.8076 C   0  0  0  0  0  0  0  0  0  0  0  0
    3.9479    5.4283   20.6940 C   0  0  0  0  0  0  0  0  0  0  0  0
    4.3570    5.8191   22.0712 C   0  0  0  0  0  0  0  0  0  0  0  0
    5.8391    6.1048   22.1176 C   0  0  0  0  0  0  0  0  0  0  0  0
    6.2204    6.7830   23.2679 O   0  0  0  0  0  0  0  0  0  0  0  0
    6.1381    6.9261   20.8600 C   0  0  0  0  0  0  0  0  0  0  0  0
    6.1938    5.9329   19.7164 C   0  0  0  0  0  0  0  0  0  0  0  0
    6.3874    7.7243   23.0317 H   0  0  0  0  0  0  0  0  0  0  0  0
 26 27  1  0  0  0
 27 25  1  0  0  0
 25 24  1  0  0  0
 24 22  1  0  0  0
 22  1  1  0  0  0
  1  2  2  0  0  0
  2  3  1  0  0  0
  3  4  2  0  0  0
  4  5  1  0  0  0
  5 28  1  0  0  0
 28 30  1  0  0  0
 30 31  1  0  0  0
 31 32  1  0  0  0
 32 33  1  0  0  0
 33 34  1  0  0  0
 33 35  1  0  0  0
 35 36  1  0  0  0
  5  6  2  0  0  0
  4  7  1  0  0  0
  7  8  2  0  0  0
  8  9  1  0  0  0
  9 10  2  0  0  0
 10 13  1  0  0  0
 13 14  1  0  0  0
 14 15  1  0  0  0
 15 16  1  0  0  0
 16 17  1  0  0  0
 17 18  1  0  0  0
 18 19  1  0  0  0
 19 20  1  0  0  0
 10 11  1  0  0  0
 11 12  2  0  0  0
  6  1  1  0  0  0
 12  7  1  0  0  0
 36 30  1  0  0  0
 19 14  1  0  0  0
 22 23  1  0  0  0
 28 29  1  0  0  0
 34 37  1  0  0  0
 17 21  1  0  0  0
M  END
> <minimizedAffinity>
-7.98857

> <CNNscore>
0.6290934682

> <CNNaffinity>
7.0629625320

> <CNN_VS>
4.4432635307

> <CNNaffinity_variance>
0.2220888883

$$$$
[H]OC1([H])C([H])([H])C([H])([H])C([H])(N([H])c2nc(N([H])C([H])([H])C([H])([H])C([H])([H])C([H])([H])[H])nc([H])c2-c2nc([H])c(C([H])([H])N3C([H])([H])C([H])([H])N([H])C([H])([H])[C@]3([H])C([H])([H])[H])c([H])c2[H])C([H])([H])C1([H])[H]


 37 40  0  0  0  0  0  0  0  0999 V2000
    4.1801    1.3808   18.9185 C   0  0  0  0  0  0  0  0  0  0  0  0
    3.3564    0.9305   17.9706 N   0  0  0  0  0  0  0  0  0  0  0  0
    3.0719    1.6199   16.8583 C   0  0  0  0  0  0  0  0  0  0  0  0
    3.6767    2.8822   16.6891 C   0  0  0  0  0  0  0  0  0  0  0  0
    4.5217    3.3650   17.6322 C   0  0  0  0  0  0  0  0  0  0  0  0
    4.7387    2.5813   18.7251 N   0  0  0  0  0  0  0  0  0  0  0  0
    3.3321    3.5615   15.4609 C   0  0  0  0  0  0  0  0  0  0  0  0
    2.0707    4.0543   15.2531 C   0  0  0  0  0  0  0  0  0  0  0  0
    1.7767    4.6264   14.0116 C   0  0  0  0  0  0  0  0  0  0  0  0
    2.7379    4.6805   13.0429 C   0  0  0  0  0  0  0  0  0  0  0  0
    3.9810    4.1699   13.3074 C   0  0  0  0  0  0  0  0  0  0  0  0
    4.2734    3.6257   14.4804 N   0  0  0  0  0  0  0  0  0  0  0  0
    2.4210    5.2866   11.7384 C   0  0  0  0  0  0  0  0  0  0  0  0
    2.6167    4.4771   10.6132 N   0  0  0  0  0  0  0  0  0  0  0  0
    1.7087    3.4225   10.4019 C   0  0  0  0  0  0  0  0  0  0  0  0
    2.1030    2.4542    9.3341 C   0  0  0  0  0  0  0  0  0  0  0  0
    3.2775    2.8539    8.5940 N   0  0  0  0  0  0  0  0  0  0  0  0
    3.1003    4.2444    8.2205 C   0  0  0  0  0  0  0  0  0  0  0  0
    3.2444    5.0551    9.4904 C   0  0  0  0  0  0  0  0  0  0  0  0
    4.7439    5.1370    9.7774 C   0  0  0  0  0  0  0  0  0  0  0  0
    3.3734    2.2314    7.7718 H   0  0  0  0  0  0  0  0  0  0  0  0
    4.4986    0.6756   20.1038 N   0  0  0  0  0  0  0  0  0  0  0  0
    4.5984   -0.3821   20.0666 H   0  0  0  0  0  0  0  0  0  0  0  0
    4.6885    1.3580   21.3501 C   0  0  0  0  0  0  0  0  0  0  0  0
    6.1606    1.4978   21.6321 C   0  0  0  0  0  0  0  0  0  0  0  0
    5.1813    3.2679   23.0652 C   0  0  0  0  0  0  0  0  0  0  0  0
    6.3587    2.8787   22.2275 C   0  0  0  0  0  0  0  0  0  0  0  0
    5.2853    4.5336   17.5466 N   0  0  0  0  0  0  0  0  0  0  0  0
    6.0482    4.6867   16.8660 H   0  0  0  0  0  0  0  0  0  0  0  0
    5.1001    5.6478   18.4876 C   0  0  0  0  0  0  0  0  0  0  0  0
    6.2663    5.6687   19.4185 C   0  0  0  0  0  0  0  0  0  0  0  0
    6.1890    6.6642   20.5229 C   0  0  0  0  0  0  0  0  0  0  0  0
    4.7574    7.0895   20.7473 C   0  0  0  0  0  0  0  0  0  0  0  0
    4.5752    7.7488   21.9560 O   0  0  0  0  0  0  0  0  0  0  0  0
    3.9320    5.8010   20.6841 C   0  0  0  0  0  0  0  0  0  0  0  0
    3.7817    5.4735   19.2118 C   0  0  0  0  0  0  0  0  0  0  0  0
    4.1366    7.1297   22.5837 H   0  0  0  0  0  0  0  0  0  0  0  0
 26 27  1  0  0  0
 27 25  1  0  0  0
 25 24  1  0  0  0
 24 22  1  0  0  0
 22  1  1  0  0  0
  1  2  2  0  0  0
  2  3  1  0  0  0
  3  4  2  0  0  0
  4  5  1  0  0  0
  5 28  1  0  0  0
 28 30  1  0  0  0
 30 31  1  0  0  0
 31 32  1  0  0  0
 32 33  1  0  0  0
 33 34  1  0  0  0
 33 35  1  0  0  0
 35 36  1  0  0  0
  5  6  2  0  0  0
  4  7  1  0  0  0
  7  8  2  0  0  0
  8  9  1  0  0  0
  9 10  2  0  0  0
 10 13  1  0  0  0
 13 14  1  0  0  0
 14 15  1  0  0  0
 15 16  1  0  0  0
 16 17  1  0  0  0
 17 18  1  0  0  0
 18 19  1  0  0  0
 19 20  1  0  0  0
 10 11  1  0  0  0
 11 12  2  0  0  0
  6  1  1  0  0  0
 12  7  1  0  0  0
 36 30  1  0  0  0
 19 14  1  0  0  0
 22 23  1  0  0  0
 28 29  1  0  0  0
 34 37  1  0  0  0
 17 21  1  0  0  0
M  END
> <minimizedAffinity>
-6.74377

> <CNNscore>
0.4917415679

> <CNNaffinity>
6.8721771240

> <CNN_VS>
3.3793351650

> <CNNaffinity_variance>
0.4155030251

$$$$
[H]OC1([H])C([H])([H])C([H])([H])C([H])(N([H])c2nc(N([H])C([H])([H])C([H])([H])C([H])([H])C([H])([H])[H])nc([H])c2-c2nc([H])c(C([H])([H])N3C([H])([H])C([H])([H])N([H])C([H])([H])[C@]3([H])C([H])([H])[H])c([H])c2[H])C([H])([H])C1([H])[H]


 37 40  0  0  0  0  0  0  0  0999 V2000
    4.2669    1.5527   19.7884 C   0  0  0  0  0  0  0  0  0  0  0  0
    3.7046    0.7337   18.8980 N   0  0  0  0  0  0  0  0  0  0  0  0
    3.4063    1.1051   17.6462 C   0  0  0  0  0  0  0  0  0  0  0  0
    3.7045    2.4276   17.2594 C   0  0  0  0  0  0  0  0  0  0  0  0
    4.2800    3.2820   18.1400 C   0  0  0  0  0  0  0  0  0  0  0  0
    4.5386    2.8001   19.3876 N   0  0  0  0  0  0  0  0  0  0  0  0
    3.3657    2.7520   15.8924 C   0  0  0  0  0  0  0  0  0  0  0  0
    2.4669    1.9966   15.1863 C   0  0  0  0  0  0  0  0  0  0  0  0
    2.2448    2.3115   13.8422 C   0  0  0  0  0  0  0  0  0  0  0  0
    2.9197    3.3499   13.2665 C   0  0  0  0  0  0  0  0  0  0  0  0
    3.8079    4.0687   14.0218 C   0  0  0  0  0  0  0  0  0  0  0  0
    4.0272    3.7815   15.2972 N   0  0  0  0  0  0  0  0  0  0  0  0
    2.6786    3.6767   11.8506 C   0  0  0  0  0  0  0  0  0  0  0  0
    3.3879    2.9216   10.9092 N   0  0  0  0  0  0  0  0  0  0  0  0
    2.8756    1.6558   10.5678 C   0  0  0  0  0  0  0  0  0  0  0  0
    3.7917    0.8029    9.7513 C   0  0  0  0  0  0  0  0  0  0  0  0
    4.9899    1.4860    9.3212 N   0  0  0  0  0  0  0  0  0  0  0  0
    4.5841    2.7668    8.7742 C   0  0  0  0  0  0  0  0  0  0  0  0
    4.1466    3.6186    9.9462 C   0  0  0  0  0  0  0  0  0  0  0  0
    5.4283    4.1099   10.6196 C   0  0  0  0  0  0  0  0  0  0  0  0
    5.4725    0.8916    8.6236 H   0  0  0  0  0  0  0  0  0  0  0  0
    4.5922    1.1889   21.1172 N   0  0  0  0  0  0  0  0  0  0  0  0
    5.3850    0.5012   21.2869 H   0  0  0  0  0  0  0  0  0  0  0  0
    3.8756    1.7282   22.2354 C   0  0  0  0  0  0  0  0  0  0  0  0
    4.8023    2.5666   23.0746 C   0  0  0  0  0  0  0  0  0  0  0  0
    3.8884    4.7764   22.4205 C   0  0  0  0  0  0  0  0  0  0  0  0
    4.0043    3.7748   23.5263 C   0  0  0  0  0  0  0  0  0  0  0  0
    4.7430    4.5731   17.8665 N   0  0  0  0  0  0  0  0  0  0  0  0
    5.2799    4.8369   17.0235 H   0  0  0  0  0  0  0  0  0  0  0  0
    4.5511    5.6794   18.8154 C   0  0  0  0  0  0  0  0  0  0  0  0
    3.9110    6.8125   18.0850 C   0  0  0  0  0  0  0  0  0  0  0  0
    3.7498    8.0704   18.8652 C   0  0  0  0  0  0  0  0  0  0  0  0
    4.6941    8.0822   20.0436 C   0  0  0  0  0  0  0  0  0  0  0  0
    4.8317    9.3427   20.6101 O   0  0  0  0  0  0  0  0  0  0  0  0
    6.0302    7.5637   19.5038 C   0  0  0  0  0  0  0  0  0  0  0  0
    5.8887    6.0571   19.4165 C   0  0  0  0  0  0  0  0  0  0  0  0
    5.7029    9.7117   20.3372 H   0  0  0  0  0  0  0  0  0  0  0  0
 26 27  1  0  0  0
 27 25  1  0  0  0
 25 24  1  0  0  0
 24 22  1  0  0  0
 22  1  1  0  0  0
  1  2  2  0  0  0
  2  3  1  0  0  0
  3  4  2  0  0  0
  4  5  1  0  0  0
  5 28  1  0  0  0
 28 30  1  0  0  0
 30 31  1  0  0  0
 31 32  1  0  0  0
 32 33  1  0  0  0
 33 34  1  0  0  0
 33 35  1  0  0  0
 35 36  1  0  0  0
  5  6  2  0  0  0
  4  7  1  0  0  0
  7  8  2  0  0  0
  8  9  1  0  0  0
  9 10  2  0  0  0
 10 13  1  0  0  0
 13 14  1  0  0  0
 14 15  1  0  0  0
 15 16  1  0  0  0
 16 17  1  0  0  0
 17 18  1  0  0  0
 18 19  1  0  0  0
 19 20  1  0  0  0
 10 11  1  0  0  0
 11 12  2  0  0  0
  6  1  1  0  0  0
 12  7  1  0  0  0
 36 30  1  0  0  0
 19 14  1  0  0  0
 22 23  1  0  0  0
 28 29  1  0  0  0
 34 37  1  0  0  0
 17 21  1  0  0  0
M  END
> <minimizedAffinity>
-7.63603

> <CNNscore>
0.4455645382

> <CNNaffinity>
7.0101432800

> <CNN_VS>
3.1234712601

> <CNNaffinity_variance>
0.4446436763

$$$$
[H]OC1([H])C([H])([H])C([H])([H])C([H])(N([H])c2nc(N([H])C([H])([H])C([H])([H])C([H])([H])C([H])([H])[H])nc([H])c2-c2nc([H])c(C([H])([H])N3C([H])([H])C([H])([H])N([H])C([H])([H])[C@]3([H])C([H])([H])[H])c([H])c2[H])C([H])([H])C1([H])[H]


 37 40  0  0  0  0  0  0  0  0999 V2000
    4.1860    1.5770   19.1932 C   0  0  0  0  0  0  0  0  0  0  0  0
    3.4649    1.1268   18.1650 N   0  0  0  0  0  0  0  0  0  0  0  0
    3.2198    1.8537   17.0673 C   0  0  0  0  0  0  0  0  0  0  0  0
    3.7535    3.1571   17.0037 C   0  0  0  0  0  0  0  0  0  0  0  0
    4.4940    3.6412   18.0303 C   0  0  0  0  0  0  0  0  0  0  0  0
    4.6795    2.8173   19.0991 N   0  0  0  0  0  0  0  0  0  0  0  0
    3.4577    3.8762   15.7855 C   0  0  0  0  0  0  0  0  0  0  0  0
    2.5828    4.9306   15.7791 C   0  0  0  0  0  0  0  0  0  0  0  0
    2.2745    5.5311   14.5546 C   0  0  0  0  0  0  0  0  0  0  0  0
    2.8414    5.0609   13.4045 C   0  0  0  0  0  0  0  0  0  0  0  0
    3.7078    4.0022   13.4724 C   0  0  0  0  0  0  0  0  0  0  0  0
    4.0096    3.4242   14.6266 N   0  0  0  0  0  0  0  0  0  0  0  0
    2.5131    5.7003   12.1188 C   0  0  0  0  0  0  0  0  0  0  0  0
    3.5923    6.1980   11.3790 N   0  0  0  0  0  0  0  0  0  0  0  0
    4.5413    6.9853   12.0578 C   0  0  0  0  0  0  0  0  0  0  0  0
    5.5280    7.6829   11.1787 C   0  0  0  0  0  0  0  0  0  0  0  0
    5.4330    7.3057    9.7873 N   0  0  0  0  0  0  0  0  0  0  0  0
    5.3797    5.8570    9.7353 C   0  0  0  0  0  0  0  0  0  0  0  0
    4.0174    5.4552   10.2582 C   0  0  0  0  0  0  0  0  0  0  0  0
    3.0298    5.7114    9.1194 C   0  0  0  0  0  0  0  0  0  0  0  0
    6.2543    7.6907    9.2874 H   0  0  0  0  0  0  0  0  0  0  0  0
    4.4606    0.8327   20.3656 N   0  0  0  0  0  0  0  0  0  0  0  0
    5.4430    0.4587   20.5238 H   0  0  0  0  0  0  0  0  0  0  0  0
    3.4424    0.5740   21.3410 C   0  0  0  0  0  0  0  0  0  0  0  0
    3.5235    1.5976   22.4418 C   0  0  0  0  0  0  0  0  0  0  0  0
    5.2184    2.1908   24.1510 C   0  0  0  0  0  0  0  0  0  0  0  0
    4.9981    1.8216   22.7176 C   0  0  0  0  0  0  0  0  0  0  0  0
    5.1856    4.8565   18.0578 N   0  0  0  0  0  0  0  0  0  0  0  0
    5.9830    5.0911   17.4431 H   0  0  0  0  0  0  0  0  0  0  0  0
    4.8642    5.9059   19.0358 C   0  0  0  0  0  0  0  0  0  0  0  0
    4.2329    7.0442   18.3057 C   0  0  0  0  0  0  0  0  0  0  0  0
    3.9487    8.2544   19.1250 C   0  0  0  0  0  0  0  0  0  0  0  0
    4.7917    8.2502   20.3779 C   0  0  0  0  0  0  0  0  0  0  0  0
    4.8223    9.4865   21.0099 O   0  0  0  0  0  0  0  0  0  0  0  0
    6.1907    7.8174   19.9297 C   0  0  0  0  0  0  0  0  0  0  0  0
    6.1286    6.3121   19.7634 C   0  0  0  0  0  0  0  0  0  0  0  0
    5.6944    9.9061   20.8280 H   0  0  0  0  0  0  0  0  0  0  0  0
 26 27  1  0  0  0
 27 25  1  0  0  0
 25 24  1  0  0  0
 24 22  1  0  0  0
 22  1  1  0  0  0
  1  2  2  0  0  0
  2  3  1  0  0  0
  3  4  2  0  0  0
  4  5  1  0  0  0
  5 28  1  0  0  0
 28 30  1  0  0  0
 30 31  1  0  0  0
 31 32  1  0  0  0
 32 33  1  0  0  0
 33 34  1  0  0  0
 33 35  1  0  0  0
 35 36  1  0  0  0
  5  6  2  0  0  0
  4  7  1  0  0  0
  7  8  2  0  0  0
  8  9  1  0  0  0
  9 10  2  0  0  0
 10 13  1  0  0  0
 13 14  1  0  0  0
 14 15  1  0  0  0
 15 16  1  0  0  0
 16 17  1  0  0  0
 17 18  1  0  0  0
 18 19  1  0  0  0
 19 20  1  0  0  0
 10 11  1  0  0  0
 11 12  2  0  0  0
  6  1  1  0  0  0
 12  7  1  0  0  0
 36 30  1  0  0  0
 19 14  1  0  0  0
 22 23  1  0  0  0
 28 29  1  0  0  0
 34 37  1  0  0  0
 17 21  1  0  0  0
M  END
> <minimizedAffinity>
-7.15147

> <CNNscore>
0.4073978066

> <CNNaffinity>
6.7817773819

> <CNN_VS>
2.7628812790

> <CNNaffinity_variance>
0.2987473607

$$$$
[H]OC1([H])C([H])([H])C([H])([H])C([H])(N([H])c2nc(N([H])C([H])([H])C([H])([H])C([H])([H])C([H])([H])[H])nc([H])c2-c2nc([H])c(C([H])([H])N3C([H])([H])C([H])([H])N([H])C([H])([H])[C@]3([H])C([H])([H])[H])c([H])c2[H])C([H])([H])C1([H])[H]


 37 40  0  0  0  0  0  0  0  0999 V2000
    2.1763    2.1399   14.1680 C   0  0  0  0  0  0  0  0  0  0  0  0
    2.1170    1.6536   15.4089 N   0  0  0  0  0  0  0  0  0  0  0  0
    2.7792    2.1933   16.4403 C   0  0  0  0  0  0  0  0  0  0  0  0
    3.5754    3.3304   16.1935 C   0  0  0  0  0  0  0  0  0  0  0  0
    3.6524    3.8505   14.9445 C   0  0  0  0  0  0  0  0  0  0  0  0
    2.9393    3.2210   13.9693 N   0  0  0  0  0  0  0  0  0  0  0  0
    4.2499    3.8637   17.3551 C   0  0  0  0  0  0  0  0  0  0  0  0
    4.7053    3.0402   18.3509 C   0  0  0  0  0  0  0  0  0  0  0  0
    5.2742    3.6232   19.4874 C   0  0  0  0  0  0  0  0  0  0  0  0
    5.3621    4.9827   19.5829 C   0  0  0  0  0  0  0  0  0  0  0  0
    4.8879    5.7555   18.5562 C   0  0  0  0  0  0  0  0  0  0  0  0
    4.3472    5.2159   17.4728 N   0  0  0  0  0  0  0  0  0  0  0  0
    5.9646    5.5891   20.7824 C   0  0  0  0  0  0  0  0  0  0  0  0
    6.0902    6.9833   20.7774 N   0  0  0  0  0  0  0  0  0  0  0  0
    5.0373    7.7356   21.3310 C   0  0  0  0  0  0  0  0  0  0  0  0
    5.1136    9.2072   21.0821 C   0  0  0  0  0  0  0  0  0  0  0  0
    6.3410    9.6244   20.4444 N   0  0  0  0  0  0  0  0  0  0  0  0
    7.4351    8.9975   21.1617 C   0  0  0  0  0  0  0  0  0  0  0  0
    7.3918    7.5247   20.8154 C   0  0  0  0  0  0  0  0  0  0  0  0
    7.9979    7.3964   19.4175 C   0  0  0  0  0  0  0  0  0  0  0  0
    6.3890   10.6586   20.4727 H   0  0  0  0  0  0  0  0  0  0  0  0
    1.4890    1.5907   13.0591 N   0  0  0  0  0  0  0  0  0  0  0  0
    1.1980    0.5685   13.0841 H   0  0  0  0  0  0  0  0  0  0  0  0
    1.1785    2.3837   11.9060 C   0  0  0  0  0  0  0  0  0  0  0  0
    1.3937    1.5695   10.6582 C   0  0  0  0  0  0  0  0  0  0  0  0
    3.3709    1.5444    9.1629 C   0  0  0  0  0  0  0  0  0  0  0  0
    2.8854    1.3136   10.5595 C   0  0  0  0  0  0  0  0  0  0  0  0
    4.2957    5.0358   14.5741 N   0  0  0  0  0  0  0  0  0  0  0  0
    5.2924    5.2428   14.7546 H   0  0  0  0  0  0  0  0  0  0  0  0
    3.5686    6.1418   13.9345 C   0  0  0  0  0  0  0  0  0  0  0  0
    2.1664    6.1332   14.4455 C   0  0  0  0  0  0  0  0  0  0  0  0
    1.2457    7.1170   13.8119 C   0  0  0  0  0  0  0  0  0  0  0  0
    1.7916    7.5625   12.4762 C   0  0  0  0  0  0  0  0  0  0  0  0
    0.8427    8.2105   11.6964 O   0  0  0  0  0  0  0  0  0  0  0  0
    2.2988    6.2882   11.7947 C   0  0  0  0  0  0  0  0  0  0  0  0
    3.6399    5.9803   12.4305 C   0  0  0  0  0  0  0  0  0  0  0  0
    0.5465    7.5913   10.9902 H   0  0  0  0  0  0  0  0  0  0  0  0
 26 27  1  0  0  0
 27 25  1  0  0  0
 25 24  1  0  0  0
 24 22  1  0  0  0
 22  1  1  0  0  0
  1  2  2  0  0  0
  2  3  1  0  0  0
  3  4  2  0  0  0
  4  5  1  0  0  0
  5 28  1  0  0  0
 28 30  1  0  0  0
 30 31  1  0  0  0
 31 32  1  0  0  0
 32 33  1  0  0  0
 33 34  1  0  0  0
 33 35  1  0  0  0
 35 36  1  0  0  0
  5  6  2  0  0  0
  4  7  1  0  0  0
  7  8  2  0  0  0
  8  9  1  0  0  0
  9 10  2  0  0  0
 10 13  1  0  0  0
 13 14  1  0  0  0
 14 15  1  0  0  0
 15 16  1  0  0  0
 16 17  1  0  0  0
 17 18  1  0  0  0
 18 19  1  0  0  0
 19 20  1  0  0  0
 10 11  1  0  0  0
 11 12  2  0  0  0
  6  1  1  0  0  0
 12  7  1  0  0  0
 36 30  1  0  0  0
 19 14  1  0  0  0
 22 23  1  0  0  0
 28 29  1  0  0  0
 34 37  1  0  0  0
 17 21  1  0  0  0
M  END
> <minimizedAffinity>
-6.77367

> <CNNscore>
0.3502106667

> <CNNaffinity>
6.5333557129

> <CNN_VS>
2.2880508900

> <CNNaffinity_variance>
0.2869613171

$$$$
[H]OC1([H])C([H])([H])C([H])([H])C([H])(N([H])c2nc(N([H])C([H])([H])C([H])([H])C([H])([H])C([H])([H])[H])nc([H])c2-c2nc([H])c(C([H])([H])N3C([H])([H])C([H])([H])N([H])C([H])([H])[C@]3([H])C([H])([H])[H])c([H])c2[H])C([H])([H])C1([H])[H]


 37 40  0  0  0  0  0  0  0  0999 V2000
    4.7547    1.5903   20.0935 C   0  0  0  0  0  0  0  0  0  0  0  0
    3.9996    0.8637   19.2679 N   0  0  0  0  0  0  0  0  0  0  0  0
    3.6505    1.2735   18.0416 C   0  0  0  0  0  0  0  0  0  0  0  0
    4.1076    2.5356   17.6105 C   0  0  0  0  0  0  0  0  0  0  0  0
    4.8801    3.2953   18.4245 C   0  0  0  0  0  0  0  0  0  0  0  0
    5.1733    2.7821   19.6518 N   0  0  0  0  0  0  0  0  0  0  0  0
    3.7013    2.9049   16.2736 C   0  0  0  0  0  0  0  0  0  0  0  0
    3.3109    1.9576   15.3640 C   0  0  0  0  0  0  0  0  0  0  0  0
    3.0103    2.3701   14.0622 C   0  0  0  0  0  0  0  0  0  0  0  0
    3.1118    3.6900   13.7264 C   0  0  0  0  0  0  0  0  0  0  0  0
    3.5090    4.5917   14.6778 C   0  0  0  0  0  0  0  0  0  0  0  0
    3.7962    4.2144   15.9158 N   0  0  0  0  0  0  0  0  0  0  0  0
    2.7912    4.1167   12.3535 C   0  0  0  0  0  0  0  0  0  0  0  0
    1.5852    4.8065   12.1830 N   0  0  0  0  0  0  0  0  0  0  0  0
    0.4141    4.2076   12.6841 C   0  0  0  0  0  0  0  0  0  0  0  0
   -0.8607    4.8649   12.2643 C   0  0  0  0  0  0  0  0  0  0  0  0
   -0.6652    6.0985   11.5384 N   0  0  0  0  0  0  0  0  0  0  0  0
    0.2959    6.8901   12.2828 C   0  0  0  0  0  0  0  0  0  0  0  0
    1.6390    6.2139   12.1106 C   0  0  0  0  0  0  0  0  0  0  0  0
    2.1345    6.5966   10.7157 C   0  0  0  0  0  0  0  0  0  0  0  0
   -1.5817    6.5718   11.4453 H   0  0  0  0  0  0  0  0  0  0  0  0
    5.1384    1.1840   21.3940 N   0  0  0  0  0  0  0  0  0  0  0  0
    4.5016    0.5332   21.9427 H   0  0  0  0  0  0  0  0  0  0  0  0
    6.3656    1.6319   21.9842 C   0  0  0  0  0  0  0  0  0  0  0  0
    6.1004    2.8284   22.8584 C   0  0  0  0  0  0  0  0  0  0  0  0
    3.9349    3.7088   23.6840 C   0  0  0  0  0  0  0  0  0  0  0  0
    4.8417    2.5191   23.6464 C   0  0  0  0  0  0  0  0  0  0  0  0
    5.5048    4.5017   18.0924 N   0  0  0  0  0  0  0  0  0  0  0  0
    6.2440    4.6014   17.3767 H   0  0  0  0  0  0  0  0  0  0  0  0
    5.1947    5.7523   18.8002 C   0  0  0  0  0  0  0  0  0  0  0  0
    6.4225    6.1928   19.5252 C   0  0  0  0  0  0  0  0  0  0  0  0
    6.2587    7.3866   20.3998 C   0  0  0  0  0  0  0  0  0  0  0  0
    4.8018    7.5929   20.7394 C   0  0  0  0  0  0  0  0  0  0  0  0
    4.6156    8.4704   21.7994 O   0  0  0  0  0  0  0  0  0  0  0  0
    4.2553    6.1998   21.0651 C   0  0  0  0  0  0  0  0  0  0  0  0
    4.0225    5.5202   19.7303 C   0  0  0  0  0  0  0  0  0  0  0  0
    4.3806    7.9455   22.5988 H   0  0  0  0  0  0  0  0  0  0  0  0
 26 27  1  0  0  0
 27 25  1  0  0  0
 25 24  1  0  0  0
 24 22  1  0  0  0
 22  1  1  0  0  0
  1  2  2  0  0  0
  2  3  1  0  0  0
  3  4  2  0  0  0
  4  5  1  0  0  0
  5 28  1  0  0  0
 28 30  1  0  0  0
 30 31  1  0  0  0
 31 32  1  0  0  0
 32 33  1  0  0  0
 33 34  1  0  0  0
 33 35  1  0  0  0
 35 36  1  0  0  0
  5  6  2  0  0  0
  4  7  1  0  0  0
  7  8  2  0  0  0
  8  9  1  0  0  0
  9 10  2  0  0  0
 10 13  1  0  0  0
 13 14  1  0  0  0
 14 15  1  0  0  0
 15 16  1  0  0  0
 16 17  1  0  0  0
 17 18  1  0  0  0
 18 19  1  0  0  0
 19 20  1  0  0  0
 10 11  1  0  0  0
 11 12  2  0  0  0
  6  1  1  0  0  0
 12  7  1  0  0  0
 36 30  1  0  0  0
 19 14  1  0  0  0
 22 23  1  0  0  0
 28 29  1  0  0  0
 34 37  1  0  0  0
 17 21  1  0  0  0
M  END
> <minimizedAffinity>
-8.38349

> <CNNscore>
0.3451397121

> <CNNaffinity>
6.9111213684

> <CNN_VS>
2.3853025436

> <CNNaffinity_variance>
0.3526190221

$$$$
[H]OC1([H])C([H])([H])C([H])([H])C([H])(N([H])c2nc(N([H])C([H])([H])C([H])([H])C([H])([H])C([H])([H])[H])nc([H])c2-c2nc([H])c(C([H])([H])N3C([H])([H])C([H])([H])N([H])C([H])([H])[C@]3([H])C([H])([H])[H])c([H])c2[H])C([H])([H])C1([H])[H]


 37 40  0  0  0  0  0  0  0  0999 V2000
    4.1985    1.5559   20.1887 C   0  0  0  0  0  0  0  0  0  0  0  0
    3.8120    0.8274   19.1399 N   0  0  0  0  0  0  0  0  0  0  0  0
    3.5104    1.3598   17.9486 C   0  0  0  0  0  0  0  0  0  0  0  0
    3.6088    2.7588   17.8048 C   0  0  0  0  0  0  0  0  0  0  0  0
    4.0031    3.5254   18.8504 C   0  0  0  0  0  0  0  0  0  0  0  0
    4.2835    2.8802   20.0169 N   0  0  0  0  0  0  0  0  0  0  0  0
    3.2795    3.2591   16.4895 C   0  0  0  0  0  0  0  0  0  0  0  0
    3.5921    2.5473   15.3613 C   0  0  0  0  0  0  0  0  0  0  0  0
    3.3230    3.1234   14.1160 C   0  0  0  0  0  0  0  0  0  0  0  0
    2.7635    4.3675   14.0487 C   0  0  0  0  0  0  0  0  0  0  0  0
    2.4743    5.0325   15.2107 C   0  0  0  0  0  0  0  0  0  0  0  0
    2.7234    4.4977   16.3978 N   0  0  0  0  0  0  0  0  0  0  0  0
    2.4811    4.9666   12.7331 C   0  0  0  0  0  0  0  0  0  0  0  0
    1.1494    5.3187   12.4837 N   0  0  0  0  0  0  0  0  0  0  0  0
    0.1729    4.3135   12.6148 C   0  0  0  0  0  0  0  0  0  0  0  0
   -1.1837    4.6807   12.1065 C   0  0  0  0  0  0  0  0  0  0  0  0
   -1.2979    6.0642   11.7064 N   0  0  0  0  0  0  0  0  0  0  0  0
   -0.7282    6.8697   12.7700 C   0  0  0  0  0  0  0  0  0  0  0  0
    0.7693    6.6561   12.7197 C   0  0  0  0  0  0  0  0  0  0  0  0
    1.2835    7.5056   11.5571 C   0  0  0  0  0  0  0  0  0  0  0  0
   -2.2983    6.2752   11.5413 H   0  0  0  0  0  0  0  0  0  0  0  0
    4.5224    1.0217   21.4589 N   0  0  0  0  0  0  0  0  0  0  0  0
    5.3838    0.4067   21.5581 H   0  0  0  0  0  0  0  0  0  0  0  0
    3.7137    1.2931   22.6110 C   0  0  0  0  0  0  0  0  0  0  0  0
    4.5797    1.8142   23.7266 C   0  0  0  0  0  0  0  0  0  0  0  0
    3.5323    4.0394   23.4150 C   0  0  0  0  0  0  0  0  0  0  0  0
    4.8232    3.2829   23.4365 C   0  0  0  0  0  0  0  0  0  0  0  0
    4.2643    4.8991   18.8242 N   0  0  0  0  0  0  0  0  0  0  0  0
    3.5409    5.6316   18.7298 H   0  0  0  0  0  0  0  0  0  0  0  0
    5.6363    5.4252   18.8674 C   0  0  0  0  0  0  0  0  0  0  0  0
    5.7829    6.2399   20.1092 C   0  0  0  0  0  0  0  0  0  0  0  0
    7.0806    6.9542   20.2595 C   0  0  0  0  0  0  0  0  0  0  0  0
    7.7621    7.0929   18.9190 C   0  0  0  0  0  0  0  0  0  0  0  0
    8.7942    8.0218   18.9338 O   0  0  0  0  0  0  0  0  0  0  0  0
    6.6586    7.4997   17.9380 C   0  0  0  0  0  0  0  0  0  0  0  0
    5.9011    6.2282   17.6111 C   0  0  0  0  0  0  0  0  0  0  0  0
    8.4819    8.8394   18.4825 H   0  0  0  0  0  0  0  0  0  0  0  0
 26 27  1  0  0  0
 27 25  1  0  0  0
 25 24  1  0  0  0
 24 22  1  0  0  0
 22  1  1  0  0  0
  1  2  2  0  0  0
  2  3  1  0  0  0
  3  4  2  0  0  0
  4  5  1  0  0  0
  5 28  1  0  0  0
 28 30  1  0  0  0
 30 31  1  0  0  0
 31 32  1  0  0  0
 32 33  1  0  0  0
 33 34  1  0  0  0
 33 35  1  0  0  0
 35 36  1  0  0  0
  5  6  2  0  0  0
  4  7  1  0  0  0
  7  8  2  0  0  0
  8  9  1  0  0  0
  9 10  2  0  0  0
 10 13  1  0  0  0
 13 14  1  0  0  0
 14 15  1  0  0  0
 15 16  1  0  0  0
 16 17  1  0  0  0
 17 18  1  0  0  0
 18 19  1  0  0  0
 19 20  1  0  0  0
 10 11  1  0  0  0
 11 12  2  0  0  0
  6  1  1  0  0  0
 12  7  1  0  0  0
 36 30  1  0  0  0
 19 14  1  0  0  0
 22 23  1  0  0  0
 28 29  1  0  0  0
 34 37  1  0  0  0
 17 21  1  0  0  0
M  END
> <minimizedAffinity>
-8.02618

> <CNNscore>
0.2983790636

> <CNNaffinity>
6.7672243118

> <CNN_VS>
2.0191979408

> <CNNaffinity_variance>
0.2962033749

$$$$
[H]OC1([H])C([H])([H])C([H])([H])C([H])(N([H])c2nc(N([H])C([H])([H])C([H])([H])C([H])([H])C([H])([H])[H])nc([H])c2-c2nc([H])c(C([H])([H])N3C([H])([H])C([H])([H])N([H])C([H])([H])[C@]3([H])C([H])([H])[H])c([H])c2[H])C([H])([H])C1([H])[H]


 37 40  0  0  0  0  0  0  0  0999 V2000
    4.6096    1.6041   20.5014 C   0  0  0  0  0  0  0  0  0  0  0  0
    4.0089    0.7736   19.6474 N   0  0  0  0  0  0  0  0  0  0  0  0
    3.7247    1.1036   18.3809 C   0  0  0  0  0  0  0  0  0  0  0  0
    4.0812    2.3934   17.9371 C   0  0  0  0  0  0  0  0  0  0  0  0
    4.6966    3.2582   18.7796 C   0  0  0  0  0  0  0  0  0  0  0  0
    4.9362    2.8196   20.0468 N   0  0  0  0  0  0  0  0  0  0  0  0
    3.7540    2.6734   16.5575 C   0  0  0  0  0  0  0  0  0  0  0  0
    3.1583    1.7284   15.7642 C   0  0  0  0  0  0  0  0  0  0  0  0
    2.9439    2.0314   14.4161 C   0  0  0  0  0  0  0  0  0  0  0  0
    3.3287    3.2452   13.9223 C   0  0  0  0  0  0  0  0  0  0  0  0
    3.9215    4.1497   14.7628 C   0  0  0  0  0  0  0  0  0  0  0  0
    4.1298    3.8758   16.0430 N   0  0  0  0  0  0  0  0  0  0  0  0
    3.0975    3.5576   12.5015 C   0  0  0  0  0  0  0  0  0  0  0  0
    1.7625    3.7055   12.1072 N   0  0  0  0  0  0  0  0  0  0  0  0
    1.0651    4.8354   12.5745 C   0  0  0  0  0  0  0  0  0  0  0  0
   -0.4082    4.8161   12.3246 C   0  0  0  0  0  0  0  0  0  0  0  0
   -0.8430    3.7074   11.5068 N   0  0  0  0  0  0  0  0  0  0  0  0
    0.0431    3.6431   10.3599 C   0  0  0  0  0  0  0  0  0  0  0  0
    1.3775    3.1450   10.8717 C   0  0  0  0  0  0  0  0  0  0  0  0
    1.2250    1.6359   11.0646 C   0  0  0  0  0  0  0  0  0  0  0  0
   -1.8301    3.8675   11.2370 H   0  0  0  0  0  0  0  0  0  0  0  0
    4.9214    1.2838   21.8444 N   0  0  0  0  0  0  0  0  0  0  0  0
    5.8063    0.7331   22.0539 H   0  0  0  0  0  0  0  0  0  0  0  0
    4.0695    1.6863   22.9248 C   0  0  0  0  0  0  0  0  0  0  0  0
    4.6738    2.8693   23.6329 C   0  0  0  0  0  0  0  0  0  0  0  0
    4.0270    5.0388   22.6225 C   0  0  0  0  0  0  0  0  0  0  0  0
    3.6343    3.9733   23.5971 C   0  0  0  0  0  0  0  0  0  0  0  0
    5.2165    4.5142   18.4503 N   0  0  0  0  0  0  0  0  0  0  0  0
    5.8874    4.6880   17.6833 H   0  0  0  0  0  0  0  0  0  0  0  0
    4.8886    5.7149   19.2325 C   0  0  0  0  0  0  0  0  0  0  0  0
    4.1757    6.6726   18.3371 C   0  0  0  0  0  0  0  0  0  0  0  0
    3.8708    8.0030   18.9321 C   0  0  0  0  0  0  0  0  0  0  0  0
    4.7649    8.2640   20.1207 C   0  0  0  0  0  0  0  0  0  0  0  0
    4.7652    9.5967   20.5112 O   0  0  0  0  0  0  0  0  0  0  0  0
    6.1623    7.8077   19.6911 C   0  0  0  0  0  0  0  0  0  0  0  0
    6.1624    6.2965   19.8088 C   0  0  0  0  0  0  0  0  0  0  0  0
    5.6088   10.0073   20.2119 H   0  0  0  0  0  0  0  0  0  0  0  0
 26 27  1  0  0  0
 27 25  1  0  0  0
 25 24  1  0  0  0
 24 22  1  0  0  0
 22  1  1  0  0  0
  1  2  2  0  0  0
  2  3  1  0  0  0
  3  4  2  0  0  0
  4  5  1  0  0  0
  5 28  1  0  0  0
 28 30  1  0  0  0
 30 31  1  0  0  0
 31 32  1  0  0  0
 32 33  1  0  0  0
 33 34  1  0  0  0
 33 35  1  0  0  0
 35 36  1  0  0  0
  5  6  2  0  0  0
  4  7  1  0  0  0
  7  8  2  0  0  0
  8  9  1  0  0  0
  9 10  2  0  0  0
 10 13  1  0  0  0
 13 14  1  0  0  0
 14 15  1  0  0  0
 15 16  1  0  0  0
 16 17  1  0  0  0
 17 18  1  0  0  0
 18 19  1  0  0  0
 19 20  1  0  0  0
 10 11  1  0  0  0
 11 12  2  0  0  0
  6  1  1  0  0  0
 12  7  1  0  0  0
 36 30  1  0  0  0
 19 14  1  0  0  0
 22 23  1  0  0  0
 28 29  1  0  0  0
 34 37  1  0  0  0
 17 21  1  0  0  0
M  END
> <minimizedAffinity>
-8.39362

> <CNNscore>
0.2938523591

> <CNNaffinity>
6.7722578049

> <CNN_VS>
1.9900438786

> <CNNaffinity_variance>
0.3804440200

$$$$
[H]c1nc(N([H])[H])c(C(=O)N([H])[C@@]2([H])C([H])([H])C([H])([H])C([H])([H])[C@]2([H])OC([H])([H])c2c([H])c([H])c3c([H])c([H])c([H])c([H])c3c2[H])c([H])c1-c1c([H])nn(C([H])([H])[H])c1[H]


 36 40  0  0  0  0  0  0  0  0999 V2000
    3.5206    3.0026   16.0539 C   0  0  0  0  0  0  0  0  0  0  0  0
    4.4945    3.7897   16.0168 O   0  0  0  0  0  0  0  0  0  0  0  0
    2.5332    3.0972   15.0544 N   0  0  0  0  0  0  0  0  0  0  0  0
    1.6922    2.4708   15.0248 H   0  0  0  0  0  0  0  0  0  0  0  0
    4.0121    1.2884   19.3466 C   0  0  0  0  0  0  0  0  0  0  0  0
    3.2853    0.1407   19.1308 C   0  0  0  0  0  0  0  0  0  0  0  0
    2.6719   -0.0573   17.9746 N   0  0  0  0  0  0  0  0  0  0  0  0
    2.7419    0.8515   16.9864 C   0  0  0  0  0  0  0  0  0  0  0  0
    2.0641    0.5818   15.7731 N   0  0  0  0  0  0  0  0  0  0  0  0
    3.4505    2.0328   17.1180 C   0  0  0  0  0  0  0  0  0  0  0  0
    4.0859    2.2324   18.3227 C   0  0  0  0  0  0  0  0  0  0  0  0
    1.0422    0.7129   15.6222 H   0  0  0  0  0  0  0  0  0  0  0  0
    2.6241    0.2259   14.9692 H   0  0  0  0  0  0  0  0  0  0  0  0
    4.9162    2.3241   24.1816 C   0  0  0  0  0  0  0  0  0  0  0  0
    5.0775    1.9282   22.7763 N   0  0  0  0  0  0  0  0  0  0  0  0
    4.1289    1.8971   21.8272 C   0  0  0  0  0  0  0  0  0  0  0  0
    4.6745    1.4702   20.6365 C   0  0  0  0  0  0  0  0  0  0  0  0
    6.0222    1.2429   20.9254 C   0  0  0  0  0  0  0  0  0  0  0  0
    6.1829    1.5367   22.2126 N   0  0  0  0  0  0  0  0  0  0  0  0
    2.5815    4.0637   13.9744 C   0  0  0  0  0  0  0  0  0  0  0  0
    3.2819    3.3626   12.8123 C   0  0  0  0  0  0  0  0  0  0  0  0
    2.2192    2.3704   12.3873 C   0  0  0  0  0  0  0  0  0  0  0  0
    0.9093    3.0104   12.7011 C   0  0  0  0  0  0  0  0  0  0  0  0
    1.2203    4.3270   13.3716 C   0  0  0  0  0  0  0  0  0  0  0  0
    1.3719    5.3610   12.4551 O   0  0  0  0  0  0  0  0  0  0  0  0
    0.8128    6.5441   12.8626 C   0  0  0  0  0  0  0  0  0  0  0  0
   -0.6628    6.4406   12.6695 C   0  0  0  0  0  0  0  0  0  0  0  0
   -1.5497    6.9064   13.6218 C   0  0  0  0  0  0  0  0  0  0  0  0
   -2.9168    6.8174   13.4560 C   0  0  0  0  0  0  0  0  0  0  0  0
   -3.4586    6.2533   12.3200 C   0  0  0  0  0  0  0  0  0  0  0  0
   -4.8303    6.1558   12.1362 C   0  0  0  0  0  0  0  0  0  0  0  0
   -5.3760    5.5930   11.0023 C   0  0  0  0  0  0  0  0  0  0  0  0
   -4.4868    5.1241   10.0441 C   0  0  0  0  0  0  0  0  0  0  0  0
   -3.1369    5.2224   10.2295 C   0  0  0  0  0  0  0  0  0  0  0  0
   -2.5854    5.7843   11.3615 C   0  0  0  0  0  0  0  0  0  0  0  0
   -1.2122    5.8777   11.5362 C   0  0  0  0  0  0  0  0  0  0  0  0
 14 15  1  0  0  0
 15 16  1  0  0  0
 16 17  2  0  0  0
 17 18  1  0  0  0
 18 19  2  0  0  0
 17  5  1  0  0  0
  5  6  2  0  0  0
  6  7  1  0  0  0
  7  8  2  0  0  0
  8  9  1  0  0  0
  8 10  1  0  0  0
 10 11  2  0  0  0
 10  1  1  0  0  0
  1  2  2  0  0  0
  1  3  1  0  0  0
  3 20  1  0  0  0
 20 21  1  0  0  0
 21 22  1  0  0  0
 22 23  1  0  0  0
 23 24  1  0  0  0
 24 25  1  0  0  0
 25 26  1  0  0  0
 26 27  1  0  0  0
 27 28  2  0  0  0
 28 29  1  0  0  0
 29 30  2  0  0  0
 30 31  1  0  0  0
 31 32  2  0  0  0
 32 33  1  0  0  0
 33 34  2  0  0  0
 34 35  1  0  0  0
 35 36  2  0  0  0
 19 15  1  0  0  0
 11  5  1  0  0  0
 24 20  1  0  0  0
 36 27  1  0  0  0
 35 30  1  0  0  0
  9 12  1  0  0  0
  9 13  1  0  0  0
  3  4  1  0  0  0
M  END
> <minimizedAffinity>
-9.02957

> <CNNscore>
0.8491694927

> <CNNaffinity>
6.6432280540

> <CNN_VS>
5.6412267685

> <CNNaffinity_variance>
0.3487244546

$$$$
[H]c1nc(N([H])[H])c(C(=O)N([H])[C@@]2([H])C([H])([H])C([H])([H])C([H])([H])[C@]2([H])OC([H])([H])c2c([H])c([H])c3c([H])c([H])c([H])c([H])c3c2[H])c([H])c1-c1c([H])nn(C([H])([H])[H])c1[H]


 36 40  0  0  0  0  0  0  0  0999 V2000
    4.3327    2.4376   19.2414 C   0  0  0  0  0  0  0  0  0  0  0  0
    5.1579    1.8003   19.9357 O   0  0  0  0  0  0  0  0  0  0  0  0
    4.1227    3.8021   19.5191 N   0  0  0  0  0  0  0  0  0  0  0  0
    3.4473    4.3952   18.9780 H   0  0  0  0  0  0  0  0  0  0  0  0
    2.8570    1.5979   15.9038 C   0  0  0  0  0  0  0  0  0  0  0  0
    2.2761    0.3858   16.1961 C   0  0  0  0  0  0  0  0  0  0  0  0
    2.3639   -0.1235   17.4148 N   0  0  0  0  0  0  0  0  0  0  0  0
    3.0187    0.5251   18.3934 C   0  0  0  0  0  0  0  0  0  0  0  0
    3.0775   -0.0717   19.6758 N   0  0  0  0  0  0  0  0  0  0  0  0
    3.6319    1.7484   18.1870 C   0  0  0  0  0  0  0  0  0  0  0  0
    3.5368    2.2723   16.9177 C   0  0  0  0  0  0  0  0  0  0  0  0
    3.7316   -0.8357   19.9456 H   0  0  0  0  0  0  0  0  0  0  0  0
    2.4206    0.2752   20.4069 H   0  0  0  0  0  0  0  0  0  0  0  0
    3.6246    4.2129   11.6801 C   0  0  0  0  0  0  0  0  0  0  0  0
    3.0756    3.2830   12.6758 N   0  0  0  0  0  0  0  0  0  0  0  0
    3.5176    3.0783   13.9266 C   0  0  0  0  0  0  0  0  0  0  0  0
    2.7383    2.1265   14.5466 C   0  0  0  0  0  0  0  0  0  0  0  0
    1.7899    1.7648   13.5868 C   0  0  0  0  0  0  0  0  0  0  0  0
    2.0556    2.4932   12.5062 N   0  0  0  0  0  0  0  0  0  0  0  0
    4.8151    4.5172   20.5736 C   0  0  0  0  0  0  0  0  0  0  0  0
    6.2241    4.7833   20.0477 C   0  0  0  0  0  0  0  0  0  0  0  0
    5.9480    5.8349   18.9930 C   0  0  0  0  0  0  0  0  0  0  0  0
    4.7542    6.5916   19.4688 C   0  0  0  0  0  0  0  0  0  0  0  0
    4.3034    5.9290   20.7485 C   0  0  0  0  0  0  0  0  0  0  0  0
    4.9374    6.4583   21.8664 O   0  0  0  0  0  0  0  0  0  0  0  0
    5.3799    7.7435   21.6914 C   0  0  0  0  0  0  0  0  0  0  0  0
    6.8657    7.7356   21.8240 C   0  0  0  0  0  0  0  0  0  0  0  0
    7.6569    8.6321   21.1307 C   0  0  0  0  0  0  0  0  0  0  0  0
    9.0323    8.6362   21.2442 C   0  0  0  0  0  0  0  0  0  0  0  0
    9.6793    7.7350   22.0637 C   0  0  0  0  0  0  0  0  0  0  0  0
   11.0608    7.7247   22.1904 C   0  0  0  0  0  0  0  0  0  0  0  0
   11.7115    6.8260   23.0085 C   0  0  0  0  0  0  0  0  0  0  0  0
   10.9185    5.9241   23.7061 C   0  0  0  0  0  0  0  0  0  0  0  0
    9.5585    5.9382   23.5781 C   0  0  0  0  0  0  0  0  0  0  0  0
    8.9023    6.8347   22.7614 C   0  0  0  0  0  0  0  0  0  0  0  0
    7.5201    6.8375   22.6415 C   0  0  0  0  0  0  0  0  0  0  0  0
 14 15  1  0  0  0
 15 16  1  0  0  0
 16 17  2  0  0  0
 17 18  1  0  0  0
 18 19  2  0  0  0
 17  5  1  0  0  0
  5  6  2  0  0  0
  6  7  1  0  0  0
  7  8  2  0  0  0
  8  9  1  0  0  0
  8 10  1  0  0  0
 10 11  2  0  0  0
 10  1  1  0  0  0
  1  2  2  0  0  0
  1  3  1  0  0  0
  3 20  1  0  0  0
 20 21  1  0  0  0
 21 22  1  0  0  0
 22 23  1  0  0  0
 23 24  1  0  0  0
 24 25  1  0  0  0
 25 26  1  0  0  0
 26 27  1  0  0  0
 27 28  2  0  0  0
 28 29  1  0  0  0
 29 30  2  0  0  0
 30 31  1  0  0  0
 31 32  2  0  0  0
 32 33  1  0  0  0
 33 34  2  0  0  0
 34 35  1  0  0  0
 35 36  2  0  0  0
 19 15  1  0  0  0
 11  5  1  0  0  0
 24 20  1  0  0  0
 36 27  1  0  0  0
 35 30  1  0  0  0
  9 12  1  0  0  0
  9 13  1  0  0  0
  3  4  1  0  0  0
M  END
> <minimizedAffinity>
-8.08377

> <CNNscore>
0.5466613770

> <CNNaffinity>
6.9475240707

> <CNN_VS>
3.7979431152

> <CNNaffinity_variance>
0.4314862788

$$$$
[H]c1nc(N([H])[H])c(C(=O)N([H])[C@@]2([H])C([H])([H])C([H])([H])C([H])([H])[C@]2([H])OC([H])([H])c2c([H])c([H])c3c([H])c([H])c([H])c([H])c3c2[H])c([H])c1-c1c([H])nn(C([H])([H])[H])c1[H]


 36 40  0  0  0  0  0  0  0  0999 V2000
    5.2371    6.0077   17.2115 C   0  0  0  0  0  0  0  0  0  0  0  0
    6.3907    5.8070   17.6567 O   0  0  0  0  0  0  0  0  0  0  0  0
    4.6991    7.3072   17.2818 N   0  0  0  0  0  0  0  0  0  0  0  0
    3.7406    7.5457   16.9285 H   0  0  0  0  0  0  0  0  0  0  0  0
    3.5220    2.7019   16.8210 C   0  0  0  0  0  0  0  0  0  0  0  0
    3.1031    2.8015   15.5146 C   0  0  0  0  0  0  0  0  0  0  0  0
    3.3683    3.8878   14.8062 N   0  0  0  0  0  0  0  0  0  0  0  0
    4.0493    4.9164   15.3402 C   0  0  0  0  0  0  0  0  0  0  0  0
    4.3015    6.0506   14.5313 N   0  0  0  0  0  0  0  0  0  0  0  0
    4.5078    4.9005   16.6458 C   0  0  0  0  0  0  0  0  0  0  0  0
    4.2287    3.7681   17.3769 C   0  0  0  0  0  0  0  0  0  0  0  0
    3.6099    6.8032   14.3320 H   0  0  0  0  0  0  0  0  0  0  0  0
    5.2465    6.1441   14.1016 H   0  0  0  0  0  0  0  0  0  0  0  0
    3.0599   -0.6906   20.5013 C   0  0  0  0  0  0  0  0  0  0  0  0
    3.0039   -0.0170   19.1972 N   0  0  0  0  0  0  0  0  0  0  0  0
    3.4404    1.2173   18.9010 C   0  0  0  0  0  0  0  0  0  0  0  0
    3.2095    1.4866   17.5700 C   0  0  0  0  0  0  0  0  0  0  0  0
    2.6016    0.3305   17.0746 C   0  0  0  0  0  0  0  0  0  0  0  0
    2.5146   -0.5138   18.0986 N   0  0  0  0  0  0  0  0  0  0  0  0
    5.4128    8.4365   17.8458 C   0  0  0  0  0  0  0  0  0  0  0  0
    4.9772    9.6569   17.0374 C   0  0  0  0  0  0  0  0  0  0  0  0
    3.5509    9.8304   17.5172 C   0  0  0  0  0  0  0  0  0  0  0  0
    3.5265    9.3350   18.9236 C   0  0  0  0  0  0  0  0  0  0  0  0
    4.9105    8.8103   19.2218 C   0  0  0  0  0  0  0  0  0  0  0  0
    5.7545    9.8008   19.7103 O   0  0  0  0  0  0  0  0  0  0  0  0
    6.0144    9.6905   21.0514 C   0  0  0  0  0  0  0  0  0  0  0  0
    6.1826    8.2417   21.3649 C   0  0  0  0  0  0  0  0  0  0  0  0
    7.4165    7.6243   21.2838 C   0  0  0  0  0  0  0  0  0  0  0  0
    7.5865    6.2853   21.5713 C   0  0  0  0  0  0  0  0  0  0  0  0
    6.5191    5.5010   21.9554 C   0  0  0  0  0  0  0  0  0  0  0  0
    6.6713    4.1535   22.2484 C   0  0  0  0  0  0  0  0  0  0  0  0
    5.6073    3.3660   22.6329 C   0  0  0  0  0  0  0  0  0  0  0  0
    4.3663    3.9841   22.7151 C   0  0  0  0  0  0  0  0  0  0  0  0
    4.2213    5.3113   22.4255 C   0  0  0  0  0  0  0  0  0  0  0  0
    5.2820    6.1039   22.0404 C   0  0  0  0  0  0  0  0  0  0  0  0
    5.1199    7.4507   21.7497 C   0  0  0  0  0  0  0  0  0  0  0  0
 14 15  1  0  0  0
 15 16  1  0  0  0
 16 17  2  0  0  0
 17 18  1  0  0  0
 18 19  2  0  0  0
 17  5  1  0  0  0
  5  6  2  0  0  0
  6  7  1  0  0  0
  7  8  2  0  0  0
  8  9  1  0  0  0
  8 10  1  0  0  0
 10 11  2  0  0  0
 10  1  1  0  0  0
  1  2  2  0  0  0
  1  3  1  0  0  0
  3 20  1  0  0  0
 20 21  1  0  0  0
 21 22  1  0  0  0
 22 23  1  0  0  0
 23 24  1  0  0  0
 24 25  1  0  0  0
 25 26  1  0  0  0
 26 27  1  0  0  0
 27 28  2  0  0  0
 28 29  1  0  0  0
 29 30  2  0  0  0
 30 31  1  0  0  0
 31 32  2  0  0  0
 32 33  1  0  0  0
 33 34  2  0  0  0
 34 35  1  0  0  0
 35 36  2  0  0  0
 19 15  1  0  0  0
 11  5  1  0  0  0
 24 20  1  0  0  0
 36 27  1  0  0  0
 35 30  1  0  0  0
  9 12  1  0  0  0
  9 13  1  0  0  0
  3  4  1  0  0  0
M  END
> <minimizedAffinity>
-8.74231

> <CNNscore>
0.4426741898

> <CNNaffinity>
6.6439094543

> <CNN_VS>
2.9410872459

> <CNNaffinity_variance>
0.3604613543

$$$$
[H]c1nc(N([H])[H])c(C(=O)N([H])[C@@]2([H])C([H])([H])C([H])([H])C([H])([H])[C@]2([H])OC([H])([H])c2c([H])c([H])c3c([H])c([H])c([H])c([H])c3c2[H])c([H])c1-c1c([H])nn(C([H])([H])[H])c1[H]


 36 40  0  0  0  0  0  0  0  0999 V2000
    4.8853    3.4118   19.2702 C   0  0  0  0  0  0  0  0  0  0  0  0
    5.6275    2.8735   20.1239 O   0  0  0  0  0  0  0  0  0  0  0  0
    4.7047    4.8078   19.3117 N   0  0  0  0  0  0  0  0  0  0  0  0
    4.0978    5.3231   18.6285 H   0  0  0  0  0  0  0  0  0  0  0  0
    3.4851    2.1778   16.0239 C   0  0  0  0  0  0  0  0  0  0  0  0
    3.0134    0.9473   16.4180 C   0  0  0  0  0  0  0  0  0  0  0  0
    3.1473    0.5482   17.6730 N   0  0  0  0  0  0  0  0  0  0  0  0
    3.7437    1.3290   18.5905 C   0  0  0  0  0  0  0  0  0  0  0  0
    3.8564    0.8457   19.9164 N   0  0  0  0  0  0  0  0  0  0  0  0
    4.2466    2.5805   18.2809 C   0  0  0  0  0  0  0  0  0  0  0  0
    4.1042    2.9893   16.9743 C   0  0  0  0  0  0  0  0  0  0  0  0
    4.5756    0.1664   20.2415 H   0  0  0  0  0  0  0  0  0  0  0  0
    3.1724    1.1919   20.6226 H   0  0  0  0  0  0  0  0  0  0  0  0
    2.1305    2.3025   11.1848 C   0  0  0  0  0  0  0  0  0  0  0  0
    2.7205    2.6397   12.4870 N   0  0  0  0  0  0  0  0  0  0  0  0
    2.6293    1.9364   13.6267 C   0  0  0  0  0  0  0  0  0  0  0  0
    3.3185    2.5821   14.6295 C   0  0  0  0  0  0  0  0  0  0  0  0
    3.8366    3.7285   14.0221 C   0  0  0  0  0  0  0  0  0  0  0  0
    3.4391    3.6911   12.7535 N   0  0  0  0  0  0  0  0  0  0  0  0
    5.3360    5.6648   20.2964 C   0  0  0  0  0  0  0  0  0  0  0  0
    6.6006    6.2077   19.6339 C   0  0  0  0  0  0  0  0  0  0  0  0
    6.0102    7.1650   18.6193 C   0  0  0  0  0  0  0  0  0  0  0  0
    4.7394    7.6665   19.2173 C   0  0  0  0  0  0  0  0  0  0  0  0
    4.5642    6.9433   20.5312 C   0  0  0  0  0  0  0  0  0  0  0  0
    5.1834    7.6075   21.5836 O   0  0  0  0  0  0  0  0  0  0  0  0
    4.9886    8.9640   21.5692 C   0  0  0  0  0  0  0  0  0  0  0  0
    6.1277    9.5953   22.2968 C   0  0  0  0  0  0  0  0  0  0  0  0
    6.7054   10.7698   21.8529 C   0  0  0  0  0  0  0  0  0  0  0  0
    7.7591   11.3648   22.5164 C   0  0  0  0  0  0  0  0  0  0  0  0
    8.2837   10.8040   23.6621 C   0  0  0  0  0  0  0  0  0  0  0  0
    9.3425   11.3882   24.3421 C   0  0  0  0  0  0  0  0  0  0  0  0
    9.8696   10.8314   25.4877 C   0  0  0  0  0  0  0  0  0  0  0  0
    9.2908    9.6510   25.9355 C   0  0  0  0  0  0  0  0  0  0  0  0
    8.2483    9.0796   25.2625 C   0  0  0  0  0  0  0  0  0  0  0  0
    7.7170    9.6320   24.1163 C   0  0  0  0  0  0  0  0  0  0  0  0
    6.6578    9.0405   23.4432 C   0  0  0  0  0  0  0  0  0  0  0  0
 14 15  1  0  0  0
 15 16  1  0  0  0
 16 17  2  0  0  0
 17 18  1  0  0  0
 18 19  2  0  0  0
 17  5  1  0  0  0
  5  6  2  0  0  0
  6  7  1  0  0  0
  7  8  2  0  0  0
  8  9  1  0  0  0
  8 10  1  0  0  0
 10 11  2  0  0  0
 10  1  1  0  0  0
  1  2  2  0  0  0
  1  3  1  0  0  0
  3 20  1  0  0  0
 20 21  1  0  0  0
 21 22  1  0  0  0
 22 23  1  0  0  0
 23 24  1  0  0  0
 24 25  1  0  0  0
 25 26  1  0  0  0
 26 27  1  0  0  0
 27 28  2  0  0  0
 28 29  1  0  0  0
 29 30  2  0  0  0
 30 31  1  0  0  0
 31 32  2  0  0  0
 32 33  1  0  0  0
 33 34  2  0  0  0
 34 35  1  0  0  0
 35 36  2  0  0  0
 19 15  1  0  0  0
 11  5  1  0  0  0
 24 20  1  0  0  0
 36 27  1  0  0  0
 35 30  1  0  0  0
  9 12  1  0  0  0
  9 13  1  0  0  0
  3  4  1  0  0  0
M  END
> <minimizedAffinity>
-8.26176

> <CNNscore>
0.4036856890

> <CNNaffinity>
6.3409957886

> <CNN_VS>
2.5597691536

> <CNNaffinity_variance>
0.5642384291

$$$$
[H]c1nc(N([H])[H])c(C(=O)N([H])[C@@]2([H])C([H])([H])C([H])([H])C([H])([H])[C@]2([H])OC([H])([H])c2c([H])c([H])c3c([H])c([H])c([H])c([H])c3c2[H])c([H])c1-c1c([H])nn(C([H])([H])[H])c1[H]


 36 40  0  0  0  0  0  0  0  0999 V2000
    4.3149    3.9124   19.2078 C   0  0  0  0  0  0  0  0  0  0  0  0
    4.9596    4.8994   18.7840 O   0  0  0  0  0  0  0  0  0  0  0  0
    3.9657    3.8646   20.5712 N   0  0  0  0  0  0  0  0  0  0  0  0
    3.4272    3.0691   20.9927 H   0  0  0  0  0  0  0  0  0  0  0  0
    3.3051    2.1171   16.0806 C   0  0  0  0  0  0  0  0  0  0  0  0
    3.2767    0.8228   16.5452 C   0  0  0  0  0  0  0  0  0  0  0  0
    3.5711    0.5569   17.8082 N   0  0  0  0  0  0  0  0  0  0  0  0
    3.9036    1.5376   18.6653 C   0  0  0  0  0  0  0  0  0  0  0  0
    4.2079    1.1891   20.0033 N   0  0  0  0  0  0  0  0  0  0  0  0
    3.9571    2.8664   18.2829 C   0  0  0  0  0  0  0  0  0  0  0  0
    3.6499    3.1359   16.9684 C   0  0  0  0  0  0  0  0  0  0  0  0
    5.1198    0.8011   20.3231 H   0  0  0  0  0  0  0  0  0  0  0  0
    3.4689    1.3292   20.7250 H   0  0  0  0  0  0  0  0  0  0  0  0
    1.2540    1.8345   11.5002 C   0  0  0  0  0  0  0  0  0  0  0  0
    2.0679    2.2468   12.6514 N   0  0  0  0  0  0  0  0  0  0  0  0
    2.0745    1.7022   13.8782 C   0  0  0  0  0  0  0  0  0  0  0  0
    2.9741    2.3698   14.6799 C   0  0  0  0  0  0  0  0  0  0  0  0
    3.5159    3.3598   13.8565 C   0  0  0  0  0  0  0  0  0  0  0  0
    2.9289    3.2221   12.6711 N   0  0  0  0  0  0  0  0  0  0  0  0
    4.3139    4.9039   21.5207 C   0  0  0  0  0  0  0  0  0  0  0  0
    3.7880    4.4316   22.8745 C   0  0  0  0  0  0  0  0  0  0  0  0
    4.7469    3.2997   23.1811 C   0  0  0  0  0  0  0  0  0  0  0  0
    6.0385    3.6675   22.5326 C   0  0  0  0  0  0  0  0  0  0  0  0
    5.7993    4.9633   21.7954 C   0  0  0  0  0  0  0  0  0  0  0  0
    6.0225    6.0748   22.5995 O   0  0  0  0  0  0  0  0  0  0  0  0
    7.0446    6.8754   22.1607 C   0  0  0  0  0  0  0  0  0  0  0  0
    6.4381    8.0897   21.5415 C   0  0  0  0  0  0  0  0  0  0  0  0
    6.9197    9.3561   21.8146 C   0  0  0  0  0  0  0  0  0  0  0  0
    6.3685   10.4876   21.2486 C   0  0  0  0  0  0  0  0  0  0  0  0
    5.3027   10.3984   20.3779 C   0  0  0  0  0  0  0  0  0  0  0  0
    4.7362   11.5250   19.7994 C   0  0  0  0  0  0  0  0  0  0  0  0
    3.6710   11.4403   18.9284 C   0  0  0  0  0  0  0  0  0  0  0  0
    3.1854   10.1688   18.6526 C   0  0  0  0  0  0  0  0  0  0  0  0
    3.7465    9.0624   19.2247 C   0  0  0  0  0  0  0  0  0  0  0  0
    4.8119    9.1410   20.0965 C   0  0  0  0  0  0  0  0  0  0  0  0
    5.3720    8.0085   20.6698 C   0  0  0  0  0  0  0  0  0  0  0  0
 14 15  1  0  0  0
 15 16  1  0  0  0
 16 17  2  0  0  0
 17 18  1  0  0  0
 18 19  2  0  0  0
 17  5  1  0  0  0
  5  6  2  0  0  0
  6  7  1  0  0  0
  7  8  2  0  0  0
  8  9  1  0  0  0
  8 10  1  0  0  0
 10 11  2  0  0  0
 10  1  1  0  0  0
  1  2  2  0  0  0
  1  3  1  0  0  0
  3 20  1  0  0  0
 20 21  1  0  0  0
 21 22  1  0  0  0
 22 23  1  0  0  0
 23 24  1  0  0  0
 24 25  1  0  0  0
 25 26  1  0  0  0
 26 27  1  0  0  0
 27 28  2  0  0  0
 28 29  1  0  0  0
 29 30  2  0  0  0
 30 31  1  0  0  0
 31 32  2  0  0  0
 32 33  1  0  0  0
 33 34  2  0  0  0
 34 35  1  0  0  0
 35 36  2  0  0  0
 19 15  1  0  0  0
 11  5  1  0  0  0
 24 20  1  0  0  0
 36 27  1  0  0  0
 35 30  1  0  0  0
  9 12  1  0  0  0
  9 13  1  0  0  0
  3  4  1  0  0  0
M  END
> <minimizedAffinity>
-9.82530

> <CNNscore>
0.3240197301

> <CNNaffinity>
6.5414571762

> <CNN_VS>
2.1195611954

> <CNNaffinity_variance>
0.4284069538

$$$$
[H]c1nc(N([H])[H])c(C(=O)N([H])[C@@]2([H])C([H])([H])C([H])([H])C([H])([H])[C@]2([H])OC([H])([H])c2c([H])c([H])c3c([H])c([H])c([H])c([H])c3c2[H])c([H])c1-c1c([H])nn(C([H])([H])[H])c1[H]


 36 40  0  0  0  0  0  0  0  0999 V2000
    5.7079    6.5152   20.5760 C   0  0  0  0  0  0  0  0  0  0  0  0
    6.9253    6.2206   20.5513 O   0  0  0  0  0  0  0  0  0  0  0  0
    4.7778    5.5262   20.9502 N   0  0  0  0  0  0  0  0  0  0  0  0
    3.7448    5.7040   20.9923 H   0  0  0  0  0  0  0  0  0  0  0  0
    4.4221    9.4512   18.6399 C   0  0  0  0  0  0  0  0  0  0  0  0
    4.5565   10.4404   19.5862 C   0  0  0  0  0  0  0  0  0  0  0  0
    5.0400   10.1596   20.7860 N   0  0  0  0  0  0  0  0  0  0  0  0
    5.4103    8.9087   21.1106 C   0  0  0  0  0  0  0  0  0  0  0  0
    5.9201    8.6721   22.4099 N   0  0  0  0  0  0  0  0  0  0  0  0
    5.3092    7.8539   20.2205 C   0  0  0  0  0  0  0  0  0  0  0  0
    4.8057    8.1528   18.9747 C   0  0  0  0  0  0  0  0  0  0  0  0
    5.3370    8.5643   23.2659 H   0  0  0  0  0  0  0  0  0  0  0  0
    6.9537    8.5997   22.5237 H   0  0  0  0  0  0  0  0  0  0  0  0
    3.1357    9.3205   13.7824 C   0  0  0  0  0  0  0  0  0  0  0  0
    3.3136    9.7460   15.1770 N   0  0  0  0  0  0  0  0  0  0  0  0
    3.9222    9.0670   16.1621 C   0  0  0  0  0  0  0  0  0  0  0  0
    3.8841    9.8011   17.3271 C   0  0  0  0  0  0  0  0  0  0  0  0
    3.2096   10.9755   16.9841 C   0  0  0  0  0  0  0  0  0  0  0  0
    2.9043   10.8676   15.6941 N   0  0  0  0  0  0  0  0  0  0  0  0
    5.1542    4.1733   21.3120 C   0  0  0  0  0  0  0  0  0  0  0  0
    5.5513    4.2261   22.7858 C   0  0  0  0  0  0  0  0  0  0  0  0
    4.2030    4.4345   23.4438 C   0  0  0  0  0  0  0  0  0  0  0  0
    3.2062    3.7615   22.5620 C   0  0  0  0  0  0  0  0  0  0  0  0
    3.9681    3.2377   21.3683 C   0  0  0  0  0  0  0  0  0  0  0  0
    4.4665    1.9580   21.5827 O   0  0  0  0  0  0  0  0  0  0  0  0
    5.3201    1.5280   20.6005 C   0  0  0  0  0  0  0  0  0  0  0  0
    4.5351    1.4016   19.3383 C   0  0  0  0  0  0  0  0  0  0  0  0
    3.5556    0.4375   19.1911 C   0  0  0  0  0  0  0  0  0  0  0  0
    2.8218    0.3096   18.0294 C   0  0  0  0  0  0  0  0  0  0  0  0
    3.0394    1.1486   16.9566 C   0  0  0  0  0  0  0  0  0  0  0  0
    2.3111    1.0348   15.7812 C   0  0  0  0  0  0  0  0  0  0  0  0
    2.5252    1.8714   14.7067 C   0  0  0  0  0  0  0  0  0  0  0  0
    3.5090    2.8408   14.8522 C   0  0  0  0  0  0  0  0  0  0  0  0
    4.2235    2.9490   16.0115 C   0  0  0  0  0  0  0  0  0  0  0  0
    4.0138    2.1151   17.0895 C   0  0  0  0  0  0  0  0  0  0  0  0
    4.7470    2.2368   18.2610 C   0  0  0  0  0  0  0  0  0  0  0  0
 14 15  1  0  0  0
 15 16  1  0  0  0
 16 17  2  0  0  0
 17 18  1  0  0  0
 18 19  2  0  0  0
 17  5  1  0  0  0
  5  6  2  0  0  0
  6  7  1  0  0  0
  7  8  2  0  0  0
  8  9  1  0  0  0
  8 10  1  0  0  0
 10 11  2  0  0  0
 10  1  1  0  0  0
  1  2  2  0  0  0
  1  3  1  0  0  0
  3 20  1  0  0  0
 20 21  1  0  0  0
 21 22  1  0  0  0
 22 23  1  0  0  0
 23 24  1  0  0  0
 24 25  1  0  0  0
 25 26  1  0  0  0
 26 27  1  0  0  0
 27 28  2  0  0  0
 28 29  1  0  0  0
 29 30  2  0  0  0
 30 31  1  0  0  0
 31 32  2  0  0  0
 32 33  1  0  0  0
 33 34  2  0  0  0
 34 35  1  0  0  0
 35 36  2  0  0  0
 19 15  1  0  0  0
 11  5  1  0  0  0
 24 20  1  0  0  0
 36 27  1  0  0  0
 35 30  1  0  0  0
  9 12  1  0  0  0
  9 13  1  0  0  0
  3  4  1  0  0  0
M  END
> <minimizedAffinity>
-9.51400

> <CNNscore>
0.3094730377

> <CNNaffinity>
6.3825721741

> <CNN_VS>
1.9752340317

> <CNNaffinity_variance>
0.4178093374

$$$$
[H]c1nc(N([H])[H])c(C(=O)N([H])[C@@]2([H])C([H])([H])C([H])([H])C([H])([H])[C@]2([H])OC([H])([H])c2c([H])c([H])c3c([H])c([H])c([H])c([H])c3c2[H])c([H])c1-c1c([H])nn(C([H])([H])[H])c1[H]


 36 40  0  0  0  0  0  0  0  0999 V2000
    2.9923    2.6473   15.5136 C   0  0  0  0  0  0  0  0  0  0  0  0
    3.2439    1.8602   14.5720 O   0  0  0  0  0  0  0  0  0  0  0  0
    2.3599    3.8717   15.2240 N   0  0  0  0  0  0  0  0  0  0  0  0
    2.1202    4.5767   15.9631 H   0  0  0  0  0  0  0  0  0  0  0  0
    4.3823    2.7532   18.9891 C   0  0  0  0  0  0  0  0  0  0  0  0
    4.0449    1.4917   19.4213 C   0  0  0  0  0  0  0  0  0  0  0  0
    3.4006    0.6581   18.6198 N   0  0  0  0  0  0  0  0  0  0  0  0
    3.0607    1.0189   17.3703 C   0  0  0  0  0  0  0  0  0  0  0  0
    2.3726    0.0825   16.5617 N   0  0  0  0  0  0  0  0  0  0  0  0
    3.3606    2.2675   16.8545 C   0  0  0  0  0  0  0  0  0  0  0  0
    4.0305    3.1294   17.6931 C   0  0  0  0  0  0  0  0  0  0  0  0
    1.3528   -0.1189   16.6235 H   0  0  0  0  0  0  0  0  0  0  0  0
    2.9219   -0.4465   15.8512 H   0  0  0  0  0  0  0  0  0  0  0  0
    6.6425    6.7661   21.0028 C   0  0  0  0  0  0  0  0  0  0  0  0
    6.0944    5.4189   20.7974 N   0  0  0  0  0  0  0  0  0  0  0  0
    5.4526    4.9599   19.7114 C   0  0  0  0  0  0  0  0  0  0  0  0
    5.0931    3.6441   19.9037 C   0  0  0  0  0  0  0  0  0  0  0  0
    5.5602    3.3323   21.1828 C   0  0  0  0  0  0  0  0  0  0  0  0
    6.1415    4.4347   21.6472 N   0  0  0  0  0  0  0  0  0  0  0  0
    1.9798    4.2759   13.8843 C   0  0  0  0  0  0  0  0  0  0  0  0
    1.2437    5.6052   14.0378 C   0  0  0  0  0  0  0  0  0  0  0  0
    2.3857    6.5303   14.4045 C   0  0  0  0  0  0  0  0  0  0  0  0
    3.5963    5.9762   13.7325 C   0  0  0  0  0  0  0  0  0  0  0  0
    3.1663    4.7003   13.0490 C   0  0  0  0  0  0  0  0  0  0  0  0
    2.6989    4.9262   11.7596 O   0  0  0  0  0  0  0  0  0  0  0  0
    2.0513    3.8495   11.2124 C   0  0  0  0  0  0  0  0  0  0  0  0
    3.0581    3.0477   10.4580 C   0  0  0  0  0  0  0  0  0  0  0  0
    4.1018    3.6514    9.7823 C   0  0  0  0  0  0  0  0  0  0  0  0
    5.0402    2.9221    9.0810 C   0  0  0  0  0  0  0  0  0  0  0  0
    4.9728    1.5456    9.0260 C   0  0  0  0  0  0  0  0  0  0  0  0
    5.9074    0.7962    8.3261 C   0  0  0  0  0  0  0  0  0  0  0  0
    5.8440   -0.5796    8.2687 C   0  0  0  0  0  0  0  0  0  0  0  0
    4.7960   -1.1884    8.9469 C   0  0  0  0  0  0  0  0  0  0  0  0
    3.8781   -0.4463    9.6346 C   0  0  0  0  0  0  0  0  0  0  0  0
    3.9366    0.9300    9.6956 C   0  0  0  0  0  0  0  0  0  0  0  0
    2.9973    1.6708   10.3983 C   0  0  0  0  0  0  0  0  0  0  0  0
 14 15  1  0  0  0
 15 16  1  0  0  0
 16 17  2  0  0  0
 17 18  1  0  0  0
 18 19  2  0  0  0
 17  5  1  0  0  0
  5  6  2  0  0  0
  6  7  1  0  0  0
  7  8  2  0  0  0
  8  9  1  0  0  0
  8 10  1  0  0  0
 10 11  2  0  0  0
 10  1  1  0  0  0
  1  2  2  0  0  0
  1  3  1  0  0  0
  3 20  1  0  0  0
 20 21  1  0  0  0
 21 22  1  0  0  0
 22 23  1  0  0  0
 23 24  1  0  0  0
 24 25  1  0  0  0
 25 26  1  0  0  0
 26 27  1  0  0  0
 27 28  2  0  0  0
 28 29  1  0  0  0
 29 30  2  0  0  0
 30 31  1  0  0  0
 31 32  2  0  0  0
 32 33  1  0  0  0
 33 34  2  0  0  0
 34 35  1  0  0  0
 35 36  2  0  0  0
 19 15  1  0  0  0
 11  5  1  0  0  0
 24 20  1  0  0  0
 36 27  1  0  0  0
 35 30  1  0  0  0
  9 12  1  0  0  0
  9 13  1  0  0  0
  3  4  1  0  0  0
M  END
> <minimizedAffinity>
-7.93182

> <CNNscore>
0.3059503436

> <CNNaffinity>
6.1519880295

> <CNN_VS>
1.8822028637

> <CNNaffinity_variance>
0.4951322973

$$$$
[H]c1nc(N([H])[H])c(C(=O)N([H])[C@@]2([H])C([H])([H])C([H])([H])C([H])([H])[C@]2([H])OC([H])([H])c2c([H])c([H])c3c([H])c([H])c([H])c([H])c3c2[H])c([H])c1-c1c([H])nn(C([H])([H])[H])c1[H]


 36 40  0  0  0  0  0  0  0  0999 V2000
    3.0499    2.5888   15.5576 C   0  0  0  0  0  0  0  0  0  0  0  0
    3.3548    1.7910   14.6411 O   0  0  0  0  0  0  0  0  0  0  0  0
    2.3570    3.7694   15.2270 N   0  0  0  0  0  0  0  0  0  0  0  0
    2.0710    4.4804   15.9434 H   0  0  0  0  0  0  0  0  0  0  0  0
    4.4359    2.8451   19.0268 C   0  0  0  0  0  0  0  0  0  0  0  0
    4.1103    1.5984   19.5082 C   0  0  0  0  0  0  0  0  0  0  0  0
    3.4748    0.7276   18.7400 N   0  0  0  0  0  0  0  0  0  0  0  0
    3.1324    1.0356   17.4770 C   0  0  0  0  0  0  0  0  0  0  0  0
    2.4540    0.0614   16.7057 N   0  0  0  0  0  0  0  0  0  0  0  0
    3.4206    2.2658   16.9126 C   0  0  0  0  0  0  0  0  0  0  0  0
    4.0815    3.1665   17.7168 C   0  0  0  0  0  0  0  0  0  0  0  0
    1.4362   -0.1473   16.7749 H   0  0  0  0  0  0  0  0  0  0  0  0
    3.0090   -0.4899   16.0168 H   0  0  0  0  0  0  0  0  0  0  0  0
    6.7115    6.9357   20.8586 C   0  0  0  0  0  0  0  0  0  0  0  0
    6.1452    5.5876   20.7191 N   0  0  0  0  0  0  0  0  0  0  0  0
    5.5252    5.0741   19.6451 C   0  0  0  0  0  0  0  0  0  0  0  0
    5.1372    3.7783   19.9059 C   0  0  0  0  0  0  0  0  0  0  0  0
    5.5639    3.5370   21.2141 C   0  0  0  0  0  0  0  0  0  0  0  0
    6.1518    4.6560   21.6275 N   0  0  0  0  0  0  0  0  0  0  0  0
    1.9732    4.1162   13.8723 C   0  0  0  0  0  0  0  0  0  0  0  0
    1.2093    5.4347   13.9750 C   0  0  0  0  0  0  0  0  0  0  0  0
    2.3308    6.3961   14.3103 C   0  0  0  0  0  0  0  0  0  0  0  0
    3.5547    5.8429   13.6622 C   0  0  0  0  0  0  0  0  0  0  0  0
    3.1533    4.5342   13.0250 C   0  0  0  0  0  0  0  0  0  0  0  0
    2.6857    4.7029   11.7270 O   0  0  0  0  0  0  0  0  0  0  0  0
    3.4291    4.0424   10.7839 C   0  0  0  0  0  0  0  0  0  0  0  0
    2.7099    2.7820   10.4380 C   0  0  0  0  0  0  0  0  0  0  0  0
    1.3319    2.6965   10.5024 C   0  0  0  0  0  0  0  0  0  0  0  0
    0.6539    1.5372   10.1849 C   0  0  0  0  0  0  0  0  0  0  0  0
    1.3326    0.4047    9.7863 C   0  0  0  0  0  0  0  0  0  0  0  0
    0.6676   -0.7693    9.4631 C   0  0  0  0  0  0  0  0  0  0  0  0
    1.3419   -1.9033    9.0640 C   0  0  0  0  0  0  0  0  0  0  0  0
    2.7267   -1.8198    8.9987 C   0  0  0  0  0  0  0  0  0  0  0  0
    3.3771   -0.6617    9.3179 C   0  0  0  0  0  0  0  0  0  0  0  0
    2.7079    0.4757    9.7177 C   0  0  0  0  0  0  0  0  0  0  0  0
    3.3817    1.6452   10.0386 C   0  0  0  0  0  0  0  0  0  0  0  0
 14 15  1  0  0  0
 15 16  1  0  0  0
 16 17  2  0  0  0
 17 18  1  0  0  0
 18 19  2  0  0  0
 17  5  1  0  0  0
  5  6  2  0  0  0
  6  7  1  0  0  0
  7  8  2  0  0  0
  8  9  1  0  0  0
  8 10  1  0  0  0
 10 11  2  0  0  0
 10  1  1  0  0  0
  1  2  2  0  0  0
  1  3  1  0  0  0
  3 20  1  0  0  0
 20 21  1  0  0  0
 21 22  1  0  0  0
 22 23  1  0  0  0
 23 24  1  0  0  0
 24 25  1  0  0  0
 25 26  1  0  0  0
 26 27  1  0  0  0
 27 28  2  0  0  0
 28 29  1  0  0  0
 29 30  2  0  0  0
 30 31  1  0  0  0
 31 32  2  0  0  0
 32 33  1  0  0  0
 33 34  2  0  0  0
 34 35  1  0  0  0
 35 36  2  0  0  0
 19 15  1  0  0  0
 11  5  1  0  0  0
 24 20  1  0  0  0
 36 27  1  0  0  0
 35 30  1  0  0  0
  9 12  1  0  0  0
  9 13  1  0  0  0
  3  4  1  0  0  0
M  END
> <minimizedAffinity>
-7.83253

> <CNNscore>
0.2895365655

> <CNNaffinity>
6.2023386955

> <CNN_VS>
1.7958037853

> <CNNaffinity_variance>
0.6872171164

$$$$
[H]c1nc(N([H])[H])c(C(=O)N([H])[C@@]2([H])C([H])([H])C([H])([H])C([H])([H])[C@]2([H])OC([H])([H])c2c([H])c([H])c3c([H])c([H])c([H])c([H])c3c2[H])c([H])c1-c1c([H])nn(C([H])([H])[H])c1[H]


 36 40  0  0  0  0  0  0  0  0999 V2000
    3.8337    3.1177   18.2388 C   0  0  0  0  0  0  0  0  0  0  0  0
    3.9724    4.3307   18.5194 O   0  0  0  0  0  0  0  0  0  0  0  0
    3.9638    2.1641   19.2669 N   0  0  0  0  0  0  0  0  0  0  0  0
    3.8602    1.1332   19.1027 H   0  0  0  0  0  0  0  0  0  0  0  0
    3.4410    3.2633   14.5177 C   0  0  0  0  0  0  0  0  0  0  0  0
    2.9828    1.9893   14.2745 C   0  0  0  0  0  0  0  0  0  0  0  0
    2.8133    1.1356   15.2719 N   0  0  0  0  0  0  0  0  0  0  0  0
    3.0825    1.4877   16.5410 C   0  0  0  0  0  0  0  0  0  0  0  0
    2.8809    0.5298   17.5637 N   0  0  0  0  0  0  0  0  0  0  0  0
    3.5469    2.7477   16.8755 C   0  0  0  0  0  0  0  0  0  0  0  0
    3.7209    3.6304   15.8337 C   0  0  0  0  0  0  0  0  0  0  0  0
    3.5414   -0.2420   17.7928 H   0  0  0  0  0  0  0  0  0  0  0  0
    2.0096    0.5974   18.1318 H   0  0  0  0  0  0  0  0  0  0  0  0
    4.1059    7.4006   11.7414 C   0  0  0  0  0  0  0  0  0  0  0  0
    3.9093    6.0060   12.1586 N   0  0  0  0  0  0  0  0  0  0  0  0
    3.7852    5.5429   13.4124 C   0  0  0  0  0  0  0  0  0  0  0  0
    3.6153    4.1761   13.3899 C   0  0  0  0  0  0  0  0  0  0  0  0
    3.6444    3.8375   12.0349 C   0  0  0  0  0  0  0  0  0  0  0  0
    3.8219    4.9752   11.3694 N   0  0  0  0  0  0  0  0  0  0  0  0
    4.2517    2.5114   20.6451 C   0  0  0  0  0  0  0  0  0  0  0  0
    3.6186    1.4136   21.4975 C   0  0  0  0  0  0  0  0  0  0  0  0
    4.5373    0.2467   21.1996 C   0  0  0  0  0  0  0  0  0  0  0  0
    5.8789    0.8382   20.9271 C   0  0  0  0  0  0  0  0  0  0  0  0
    5.7126    2.3374   20.9930 C   0  0  0  0  0  0  0  0  0  0  0  0
    5.8878    2.8300   22.2809 O   0  0  0  0  0  0  0  0  0  0  0  0
    6.9337    3.7081   22.3968 C   0  0  0  0  0  0  0  0  0  0  0  0
    6.4115    5.0774   22.1179 C   0  0  0  0  0  0  0  0  0  0  0  0
    5.0919    5.4097   22.3600 C   0  0  0  0  0  0  0  0  0  0  0  0
    4.5957    6.6724   22.1071 C   0  0  0  0  0  0  0  0  0  0  0  0
    5.4067    7.6643   21.5965 C   0  0  0  0  0  0  0  0  0  0  0  0
    4.9252    8.9392   21.3364 C   0  0  0  0  0  0  0  0  0  0  0  0
    5.7322    9.9336   20.8264 C   0  0  0  0  0  0  0  0  0  0  0  0
    7.0586    9.6020   20.5822 C   0  0  0  0  0  0  0  0  0  0  0  0
    7.5281    8.3453   20.8400 C   0  0  0  0  0  0  0  0  0  0  0  0
    6.7256    7.3467   21.3501 C   0  0  0  0  0  0  0  0  0  0  0  0
    7.2163    6.0747   21.6073 C   0  0  0  0  0  0  0  0  0  0  0  0
 14 15  1  0  0  0
 15 16  1  0  0  0
 16 17  2  0  0  0
 17 18  1  0  0  0
 18 19  2  0  0  0
 17  5  1  0  0  0
  5  6  2  0  0  0
  6  7  1  0  0  0
  7  8  2  0  0  0
  8  9  1  0  0  0
  8 10  1  0  0  0
 10 11  2  0  0  0
 10  1  1  0  0  0
  1  2  2  0  0  0
  1  3  1  0  0  0
  3 20  1  0  0  0
 20 21  1  0  0  0
 21 22  1  0  0  0
 22 23  1  0  0  0
 23 24  1  0  0  0
 24 25  1  0  0  0
 25 26  1  0  0  0
 26 27  1  0  0  0
 27 28  2  0  0  0
 28 29  1  0  0  0
 29 30  2  0  0  0
 30 31  1  0  0  0
 31 32  2  0  0  0
 32 33  1  0  0  0
 33 34  2  0  0  0
 34 35  1  0  0  0
 35 36  2  0  0  0
 19 15  1  0  0  0
 11  5  1  0  0  0
 24 20  1  0  0  0
 36 27  1  0  0  0
 35 30  1  0  0  0
  9 12  1  0  0  0
  9 13  1  0  0  0
  3  4  1  0  0  0
M  END
> <minimizedAffinity>
-8.79538

> <CNNscore>
0.2687430382

> <CNNaffinity>
6.4150619507

> <CNN_VS>
1.7240031958

> <CNNaffinity_variance>
0.4437913001

$$$$
[H]O[C@]1([H])C([H])([H])C([H])([H])[C@@]([H])(N([H])c2nc(N([H])C([H])([H])C([H])([H])C([H])([H])C([H])([H])[H])nc([H])c2-c2nc([H])c(F)c([H])c2[H])C([H])([H])C1([H])[H]


 29 31  0  0  0  0  0  0  0  0999 V2000
    3.7265    0.8703   19.1839 C   0  0  0  0  0  0  0  0  0  0  0  0
    2.8272    0.3569   18.3256 N   0  0  0  0  0  0  0  0  0  0  0  0
    2.5902    0.8571   17.1211 C   0  0  0  0  0  0  0  0  0  0  0  0
    3.2980    1.9948   16.6665 C   0  0  0  0  0  0  0  0  0  0  0  0
    4.2016    2.5074   17.5462 C   0  0  0  0  0  0  0  0  0  0  0  0
    4.4041    1.9445   18.7782 N   0  0  0  0  0  0  0  0  0  0  0  0
    2.9799    2.4947   15.3371 C   0  0  0  0  0  0  0  0  0  0  0  0
    2.9565    1.7733   14.1894 C   0  0  0  0  0  0  0  0  0  0  0  0
    2.5607    2.3117   12.9806 C   0  0  0  0  0  0  0  0  0  0  0  0
    2.1786    3.6353   12.9722 C   0  0  0  0  0  0  0  0  0  0  0  0
    1.7897    4.1633   11.7831 F   0  0  0  0  0  0  0  0  0  0  0  0
    2.2029    4.3624   14.1424 C   0  0  0  0  0  0  0  0  0  0  0  0
    2.5919    3.7987   15.2764 N   0  0  0  0  0  0  0  0  0  0  0  0
    3.9760    0.3336   20.4617 N   0  0  0  0  0  0  0  0  0  0  0  0
    4.7730   -0.3024   20.6010 H   0  0  0  0  0  0  0  0  0  0  0  0
    3.1249    0.6741   21.5514 C   0  0  0  0  0  0  0  0  0  0  0  0
    3.8292    1.2991   22.7146 C   0  0  0  0  0  0  0  0  0  0  0  0
    5.8330    2.7324   22.3526 C   0  0  0  0  0  0  0  0  0  0  0  0
    4.3218    2.6927   22.4396 C   0  0  0  0  0  0  0  0  0  0  0  0
    4.8977    3.7182   17.3126 N   0  0  0  0  0  0  0  0  0  0  0  0
    5.5749    3.7938   16.5463 H   0  0  0  0  0  0  0  0  0  0  0  0
    4.6648    4.9179   18.0714 C   0  0  0  0  0  0  0  0  0  0  0  0
    3.3991    4.9588   18.8465 C   0  0  0  0  0  0  0  0  0  0  0  0
    3.6125    5.5422   20.2490 C   0  0  0  0  0  0  0  0  0  0  0  0
    4.3763    6.8301   20.1288 C   0  0  0  0  0  0  0  0  0  0  0  0
    3.5757    7.7242   19.4168 O   0  0  0  0  0  0  0  0  0  0  0  0
    5.6862    6.6796   19.3855 C   0  0  0  0  0  0  0  0  0  0  0  0
    5.8538    5.2078   18.9853 C   0  0  0  0  0  0  0  0  0  0  0  0
    3.0601    8.3230   19.9870 H   0  0  0  0  0  0  0  0  0  0  0  0
 18 19  1  0  0  0
 19 17  1  0  0  0
 17 16  1  0  0  0
 16 14  1  0  0  0
 14  1  1  0  0  0
  1  2  2  0  0  0
  2  3  1  0  0  0
  3  4  2  0  0  0
  4  5  1  0  0  0
  5 20  1  0  0  0
 20 22  1  0  0  0
 22 23  1  0  0  0
 23 24  1  0  0  0
 24 25  1  0  0  0
 25 26  1  0  0  0
 25 27  1  0  0  0
 27 28  1  0  0  0
  5  6  2  0  0  0
  4  7  1  0  0  0
  7  8  2  0  0  0
  8  9  1  0  0  0
  9 10  2  0  0  0
 10 11  1  0  0  0
 10 12  1  0  0  0
 12 13  2  0  0  0
  6  1  1  0  0  0
 13  7  1  0  0  0
 28 22  1  0  0  0
 14 15  1  0  0  0
 20 21  1  0  0  0
 26 29  1  0  0  0
M  END
> <minimizedAffinity>
-7.24864

> <CNNscore>
0.6736181974

> <CNNaffinity>
6.9353075027

> <CNN_VS>
4.6717491150

> <CNNaffinity_variance>
0.3217035532

$$$$
[H]O[C@]1([H])C([H])([H])C([H])([H])[C@@]([H])(N([H])c2nc(N([H])C([H])([H])C([H])([H])C([H])([H])C([H])([H])[H])nc([H])c2-c2nc([H])c(F)c([H])c2[H])C([H])([H])C1([H])[H]


 29 31  0  0  0  0  0  0  0  0999 V2000
    3.3926    2.9021   14.3656 C   0  0  0  0  0  0  0  0  0  0  0  0
    2.8329    1.7360   14.7343 N   0  0  0  0  0  0  0  0  0  0  0  0
    2.9417    1.2192   15.9501 C   0  0  0  0  0  0  0  0  0  0  0  0
    3.6780    1.8947   16.9520 C   0  0  0  0  0  0  0  0  0  0  0  0
    4.2432    3.0709   16.5647 C   0  0  0  0  0  0  0  0  0  0  0  0
    4.0937    3.5556   15.2925 N   0  0  0  0  0  0  0  0  0  0  0  0
    3.7626    1.2642   18.2611 C   0  0  0  0  0  0  0  0  0  0  0  0
    4.6276    1.5841   19.2549 C   0  0  0  0  0  0  0  0  0  0  0  0
    4.5827    0.9884   20.5002 C   0  0  0  0  0  0  0  0  0  0  0  0
    3.6089    0.0371   20.7118 C   0  0  0  0  0  0  0  0  0  0  0  0
    3.5659   -0.5478   21.9366 F   0  0  0  0  0  0  0  0  0  0  0  0
    2.7317   -0.2821   19.6982 C   0  0  0  0  0  0  0  0  0  0  0  0
    2.8177    0.3185   18.5205 N   0  0  0  0  0  0  0  0  0  0  0  0
    3.2720    3.4479   13.0731 N   0  0  0  0  0  0  0  0  0  0  0  0
    3.0791    2.8288   12.2739 H   0  0  0  0  0  0  0  0  0  0  0  0
    3.4176    4.8513   12.8806 C   0  0  0  0  0  0  0  0  0  0  0  0
    2.1277    5.5877   12.6969 C   0  0  0  0  0  0  0  0  0  0  0  0
    3.5192    7.4153   13.6584 C   0  0  0  0  0  0  0  0  0  0  0  0
    2.1149    6.9457   13.3421 C   0  0  0  0  0  0  0  0  0  0  0  0
    5.1228    3.8088   17.3935 N   0  0  0  0  0  0  0  0  0  0  0  0
    6.0894    3.4987   17.5389 H   0  0  0  0  0  0  0  0  0  0  0  0
    4.7549    5.0486   18.0234 C   0  0  0  0  0  0  0  0  0  0  0  0
    3.6371    4.9735   18.9978 C   0  0  0  0  0  0  0  0  0  0  0  0
    3.9256    5.8029   20.2556 C   0  0  0  0  0  0  0  0  0  0  0  0
    4.3728    7.1756   19.8407 C   0  0  0  0  0  0  0  0  0  0  0  0
    3.3053    7.7776   19.1735 O   0  0  0  0  0  0  0  0  0  0  0  0
    5.5613    7.1579   18.9034 C   0  0  0  0  0  0  0  0  0  0  0  0
    5.9764    5.6994   18.6694 C   0  0  0  0  0  0  0  0  0  0  0  0
    2.7639    8.3517   19.7451 H   0  0  0  0  0  0  0  0  0  0  0  0
 18 19  1  0  0  0
 19 17  1  0  0  0
 17 16  1  0  0  0
 16 14  1  0  0  0
 14  1  1  0  0  0
  1  2  2  0  0  0
  2  3  1  0  0  0
  3  4  2  0  0  0
  4  5  1  0  0  0
  5 20  1  0  0  0
 20 22  1  0  0  0
 22 23  1  0  0  0
 23 24  1  0  0  0
 24 25  1  0  0  0
 25 26  1  0  0  0
 25 27  1  0  0  0
 27 28  1  0  0  0
  5  6  2  0  0  0
  4  7  1  0  0  0
  7  8  2  0  0  0
  8  9  1  0  0  0
  9 10  2  0  0  0
 10 11  1  0  0  0
 10 12  1  0  0  0
 12 13  2  0  0  0
  6  1  1  0  0  0
 13  7  1  0  0  0
 28 22  1  0  0  0
 14 15  1  0  0  0
 20 21  1  0  0  0
 26 29  1  0  0  0
M  END
> <minimizedAffinity>
-7.01814

> <CNNscore>
0.5987613201

> <CNNaffinity>
6.3683481216

> <CNN_VS>
3.8131206036

> <CNNaffinity_variance>
0.2603626549

$$$$
[H]O[C@]1([H])C([H])([H])C([H])([H])[C@@]([H])(N([H])c2nc(N([H])C([H])([H])C([H])([H])C([H])([H])C([H])([H])[H])nc([H])c2-c2nc([H])c(F)c([H])c2[H])C([H])([H])C1([H])[H]


 29 31  0  0  0  0  0  0  0  0999 V2000
    3.4480    2.9478   14.2808 C   0  0  0  0  0  0  0  0  0  0  0  0
    2.8002    1.7999   14.5484 N   0  0  0  0  0  0  0  0  0  0  0  0
    2.7714    1.2329   15.7462 C   0  0  0  0  0  0  0  0  0  0  0  0
    3.4447    1.8307   16.8377 C   0  0  0  0  0  0  0  0  0  0  0  0
    4.1000    2.9893   16.5526 C   0  0  0  0  0  0  0  0  0  0  0  0
    4.0920    3.5284   15.2936 N   0  0  0  0  0  0  0  0  0  0  0  0
    3.3777    1.1482   18.1214 C   0  0  0  0  0  0  0  0  0  0  0  0
    2.5555    0.1199   18.4452 C   0  0  0  0  0  0  0  0  0  0  0  0
    2.6172   -0.5260   19.6645 C   0  0  0  0  0  0  0  0  0  0  0  0
    3.5624   -0.0875   20.5658 C   0  0  0  0  0  0  0  0  0  0  0  0
    3.6220   -0.7234   21.7642 F   0  0  0  0  0  0  0  0  0  0  0  0
    4.3963    0.9568   20.2298 C   0  0  0  0  0  0  0  0  0  0  0  0
    4.2957    1.5436   19.0463 N   0  0  0  0  0  0  0  0  0  0  0  0
    3.4735    3.5473   13.0068 N   0  0  0  0  0  0  0  0  0  0  0  0
    4.3300    4.0153   12.6804 H   0  0  0  0  0  0  0  0  0  0  0  0
    2.3154    3.5020   12.1794 C   0  0  0  0  0  0  0  0  0  0  0  0
    2.6001    3.2679   10.7289 C   0  0  0  0  0  0  0  0  0  0  0  0
    1.8597    0.9417   10.2376 C   0  0  0  0  0  0  0  0  0  0  0  0
    3.0455    1.8647   10.4237 C   0  0  0  0  0  0  0  0  0  0  0  0
    4.9349    3.6483   17.4874 N   0  0  0  0  0  0  0  0  0  0  0  0
    5.8343    3.2413   17.7648 H   0  0  0  0  0  0  0  0  0  0  0  0
    4.6213    4.9335   18.0523 C   0  0  0  0  0  0  0  0  0  0  0  0
    3.6105    4.9341   19.1398 C   0  0  0  0  0  0  0  0  0  0  0  0
    4.0184    5.8613   20.2917 C   0  0  0  0  0  0  0  0  0  0  0  0
    4.4069    7.1975   19.7260 C   0  0  0  0  0  0  0  0  0  0  0  0
    3.2704    7.7427   19.1273 O   0  0  0  0  0  0  0  0  0  0  0  0
    5.4927    7.1075   18.6753 C   0  0  0  0  0  0  0  0  0  0  0  0
    5.8962    5.6358   18.5153 C   0  0  0  0  0  0  0  0  0  0  0  0
    2.7850    8.3594   19.7047 H   0  0  0  0  0  0  0  0  0  0  0  0
 18 19  1  0  0  0
 19 17  1  0  0  0
 17 16  1  0  0  0
 16 14  1  0  0  0
 14  1  1  0  0  0
  1  2  2  0  0  0
  2  3  1  0  0  0
  3  4  2  0  0  0
  4  5  1  0  0  0
  5 20  1  0  0  0
 20 22  1  0  0  0
 22 23  1  0  0  0
 23 24  1  0  0  0
 24 25  1  0  0  0
 25 26  1  0  0  0
 25 27  1  0  0  0
 27 28  1  0  0  0
  5  6  2  0  0  0
  4  7  1  0  0  0
  7  8  2  0  0  0
  8  9  1  0  0  0
  9 10  2  0  0  0
 10 11  1  0  0  0
 10 12  1  0  0  0
 12 13  2  0  0  0
  6  1  1  0  0  0
 13  7  1  0  0  0
 28 22  1  0  0  0
 14 15  1  0  0  0
 20 21  1  0  0  0
 26 29  1  0  0  0
M  END
> <minimizedAffinity>
-6.78376

> <CNNscore>
0.5814199448

> <CNNaffinity>
6.4530386925

> <CNN_VS>
3.7519254684

> <CNNaffinity_variance>
0.1834736168

$$$$
[H]O[C@]1([H])C([H])([H])C([H])([H])[C@@]([H])(N([H])c2nc(N([H])C([H])([H])C([H])([H])C([H])([H])C([H])([H])[H])nc([H])c2-c2nc([H])c(F)c([H])c2[H])C([H])([H])C1([H])[H]


 29 31  0  0  0  0  0  0  0  0999 V2000
    3.7781    2.3105   16.7329 C   0  0  0  0  0  0  0  0  0  0  0  0
    3.8458    1.1994   17.4877 N   0  0  0  0  0  0  0  0  0  0  0  0
    4.0876    1.2084   18.7910 C   0  0  0  0  0  0  0  0  0  0  0  0
    4.2928    2.4312   19.4726 C   0  0  0  0  0  0  0  0  0  0  0  0
    4.2264    3.5477   18.6967 C   0  0  0  0  0  0  0  0  0  0  0  0
    3.9708    3.4750   17.3532 N   0  0  0  0  0  0  0  0  0  0  0  0
    4.5621    2.3648   20.9014 C   0  0  0  0  0  0  0  0  0  0  0  0
    3.7723    1.7947   21.8445 C   0  0  0  0  0  0  0  0  0  0  0  0
    4.1461    1.7026   23.1709 C   0  0  0  0  0  0  0  0  0  0  0  0
    5.3759    2.2170   23.5190 C   0  0  0  0  0  0  0  0  0  0  0  0
    5.7422    2.1257   24.8234 F   0  0  0  0  0  0  0  0  0  0  0  0
    6.1746    2.7934   22.5553 C   0  0  0  0  0  0  0  0  0  0  0  0
    5.7688    2.8576   21.2959 N   0  0  0  0  0  0  0  0  0  0  0  0
    3.5186    2.2956   15.3489 N   0  0  0  0  0  0  0  0  0  0  0  0
    3.2732    1.4101   14.8855 H   0  0  0  0  0  0  0  0  0  0  0  0
    3.5974    3.5045   14.6004 C   0  0  0  0  0  0  0  0  0  0  0  0
    2.2965    3.9544   14.0130 C   0  0  0  0  0  0  0  0  0  0  0  0
    2.9201    2.9018   11.8442 C   0  0  0  0  0  0  0  0  0  0  0  0
    1.8250    3.0969   12.8716 C   0  0  0  0  0  0  0  0  0  0  0  0
    4.5395    4.8399   19.1837 N   0  0  0  0  0  0  0  0  0  0  0  0
    4.9052    4.9677   20.1332 H   0  0  0  0  0  0  0  0  0  0  0  0
    4.4321    6.0296   18.3821 C   0  0  0  0  0  0  0  0  0  0  0  0
    3.6492    7.1425   18.9761 C   0  0  0  0  0  0  0  0  0  0  0  0
    4.3341    8.4973   18.7561 C   0  0  0  0  0  0  0  0  0  0  0  0
    4.7028    8.6258   17.3056 C   0  0  0  0  0  0  0  0  0  0  0  0
    3.5153    8.6291   16.5727 O   0  0  0  0  0  0  0  0  0  0  0  0
    5.5598    7.4832   16.8045 C   0  0  0  0  0  0  0  0  0  0  0  0
    5.8189    6.5198   17.9702 C   0  0  0  0  0  0  0  0  0  0  0  0
    3.1941    9.5234   16.3574 H   0  0  0  0  0  0  0  0  0  0  0  0
 18 19  1  0  0  0
 19 17  1  0  0  0
 17 16  1  0  0  0
 16 14  1  0  0  0
 14  1  1  0  0  0
  1  2  2  0  0  0
  2  3  1  0  0  0
  3  4  2  0  0  0
  4  5  1  0  0  0
  5 20  1  0  0  0
 20 22  1  0  0  0
 22 23  1  0  0  0
 23 24  1  0  0  0
 24 25  1  0  0  0
 25 26  1  0  0  0
 25 27  1  0  0  0
 27 28  1  0  0  0
  5  6  2  0  0  0
  4  7  1  0  0  0
  7  8  2  0  0  0
  8  9  1  0  0  0
  9 10  2  0  0  0
 10 11  1  0  0  0
 10 12  1  0  0  0
 12 13  2  0  0  0
  6  1  1  0  0  0
 13  7  1  0  0  0
 28 22  1  0  0  0
 14 15  1  0  0  0
 20 21  1  0  0  0
 26 29  1  0  0  0
M  END
> <minimizedAffinity>
-7.07753

> <CNNscore>
0.5224616528

> <CNNaffinity>
6.5596299171

> <CNN_VS>
3.4271550179

> <CNNaffinity_variance>
0.2244938612

$$$$
[H]O[C@]1([H])C([H])([H])C([H])([H])[C@@]([H])(N([H])c2nc(N([H])C([H])([H])C([H])([H])C([H])([H])C([H])([H])[H])nc([H])c2-c2nc([H])c(F)c([H])c2[H])C([H])([H])C1([H])[H]


 29 31  0  0  0  0  0  0  0  0999 V2000
    3.7756    0.9043   20.2530 C   0  0  0  0  0  0  0  0  0  0  0  0
    3.0781    0.2872   19.2827 N   0  0  0  0  0  0  0  0  0  0  0  0
    3.0240    0.7150   18.0292 C   0  0  0  0  0  0  0  0  0  0  0  0
    3.7227    1.8823   17.6403 C   0  0  0  0  0  0  0  0  0  0  0  0
    4.4207    2.4998   18.6325 C   0  0  0  0  0  0  0  0  0  0  0  0
    4.4404    2.0082   19.9106 N   0  0  0  0  0  0  0  0  0  0  0  0
    3.6109    2.2982   16.2500 C   0  0  0  0  0  0  0  0  0  0  0  0
    3.0461    1.5910   15.2405 C   0  0  0  0  0  0  0  0  0  0  0  0
    2.9074    2.0990   13.9636 C   0  0  0  0  0  0  0  0  0  0  0  0
    3.3684    3.3774   13.7376 C   0  0  0  0  0  0  0  0  0  0  0  0
    3.2313    3.8756   12.4818 F   0  0  0  0  0  0  0  0  0  0  0  0
    3.9397    4.0915   14.7684 C   0  0  0  0  0  0  0  0  0  0  0  0
    4.0500    3.5578   15.9759 N   0  0  0  0  0  0  0  0  0  0  0  0
    3.8317    0.4442   21.5828 N   0  0  0  0  0  0  0  0  0  0  0  0
    4.1836   -0.5025   21.7806 H   0  0  0  0  0  0  0  0  0  0  0  0
    3.4017    1.2910   22.6439 C   0  0  0  0  0  0  0  0  0  0  0  0
    4.4966    1.7384   23.5608 C   0  0  0  0  0  0  0  0  0  0  0  0
    3.4790    4.0026   23.3643 C   0  0  0  0  0  0  0  0  0  0  0  0
    4.7661    3.2162   23.4974 C   0  0  0  0  0  0  0  0  0  0  0  0
    5.0641    3.7487   18.4549 N   0  0  0  0  0  0  0  0  0  0  0  0
    5.6992    3.9033   17.6648 H   0  0  0  0  0  0  0  0  0  0  0  0
    4.8305    4.8820   19.3095 C   0  0  0  0  0  0  0  0  0  0  0  0
    5.8102    5.0780   20.4078 C   0  0  0  0  0  0  0  0  0  0  0  0
    6.1989    6.5538   20.5633 C   0  0  0  0  0  0  0  0  0  0  0  0
    4.9476    7.3834   20.6142 C   0  0  0  0  0  0  0  0  0  0  0  0
    4.2457    7.0086   21.7605 O   0  0  0  0  0  0  0  0  0  0  0  0
    4.0422    7.1711   19.4199 C   0  0  0  0  0  0  0  0  0  0  0  0
    4.7059    6.1575   18.4784 C   0  0  0  0  0  0  0  0  0  0  0  0
    4.4140    7.5877   22.5259 H   0  0  0  0  0  0  0  0  0  0  0  0
 18 19  1  0  0  0
 19 17  1  0  0  0
 17 16  1  0  0  0
 16 14  1  0  0  0
 14  1  1  0  0  0
  1  2  2  0  0  0
  2  3  1  0  0  0
  3  4  2  0  0  0
  4  5  1  0  0  0
  5 20  1  0  0  0
 20 22  1  0  0  0
 22 23  1  0  0  0
 23 24  1  0  0  0
 24 25  1  0  0  0
 25 26  1  0  0  0
 25 27  1  0  0  0
 27 28  1  0  0  0
  5  6  2  0  0  0
  4  7  1  0  0  0
  7  8  2  0  0  0
  8  9  1  0  0  0
  9 10  2  0  0  0
 10 11  1  0  0  0
 10 12  1  0  0  0
 12 13  2  0  0  0
  6  1  1  0  0  0
 13  7  1  0  0  0
 28 22  1  0  0  0
 14 15  1  0  0  0
 20 21  1  0  0  0
 26 29  1  0  0  0
M  END
> <minimizedAffinity>
-8.13859

> <CNNscore>
0.4815669954

> <CNNaffinity>
6.6642732620

> <CNN_VS>
3.2092940807

> <CNNaffinity_variance>
0.2844727337

$$$$
[H]O[C@]1([H])C([H])([H])C([H])([H])[C@@]([H])(N([H])c2nc(N([H])C([H])([H])C([H])([H])C([H])([H])C([H])([H])[H])nc([H])c2-c2nc([H])c(F)c([H])c2[H])C([H])([H])C1([H])[H]


 29 31  0  0  0  0  0  0  0  0999 V2000
    3.5497    1.6536   16.8490 C   0  0  0  0  0  0  0  0  0  0  0  0
    3.2269    0.7698   17.8099 N   0  0  0  0  0  0  0  0  0  0  0  0
    3.5797    0.9025   19.0808 C   0  0  0  0  0  0  0  0  0  0  0  0
    4.3393    2.0203   19.4999 C   0  0  0  0  0  0  0  0  0  0  0  0
    4.6633    2.9046   18.5171 C   0  0  0  0  0  0  0  0  0  0  0  0
    4.2676    2.7141   17.2199 N   0  0  0  0  0  0  0  0  0  0  0  0
    4.6984    2.0962   20.9084 C   0  0  0  0  0  0  0  0  0  0  0  0
    3.8405    2.1688   21.9557 C   0  0  0  0  0  0  0  0  0  0  0  0
    4.2674    2.1530   23.2692 C   0  0  0  0  0  0  0  0  0  0  0  0
    5.6235    2.0569   23.4926 C   0  0  0  0  0  0  0  0  0  0  0  0
    6.0419    2.0414   24.7844 F   0  0  0  0  0  0  0  0  0  0  0  0
    6.4899    1.9816   22.4238 C   0  0  0  0  0  0  0  0  0  0  0  0
    6.0291    2.0016   21.1819 N   0  0  0  0  0  0  0  0  0  0  0  0
    3.1704    1.5090   15.5005 N   0  0  0  0  0  0  0  0  0  0  0  0
    3.5403    0.7235   14.9480 H   0  0  0  0  0  0  0  0  0  0  0  0
    2.2784    2.4496   14.9110 C   0  0  0  0  0  0  0  0  0  0  0  0
    2.6634    2.8875   13.5326 C   0  0  0  0  0  0  0  0  0  0  0  0
    3.5724    5.0157   14.4519 C   0  0  0  0  0  0  0  0  0  0  0  0
    3.8139    3.8551   13.5098 C   0  0  0  0  0  0  0  0  0  0  0  0
    5.5298    4.0041   18.7299 N   0  0  0  0  0  0  0  0  0  0  0  0
    6.4565    4.0335   18.2916 H   0  0  0  0  0  0  0  0  0  0  0  0
    5.1590    5.1593   19.5028 C   0  0  0  0  0  0  0  0  0  0  0  0
    6.0877    5.5298   20.6003 C   0  0  0  0  0  0  0  0  0  0  0  0
    6.3151    7.0456   20.6623 C   0  0  0  0  0  0  0  0  0  0  0  0
    4.9825    7.7385   20.6383 C   0  0  0  0  0  0  0  0  0  0  0  0
    4.2987    7.3664   21.7963 O   0  0  0  0  0  0  0  0  0  0  0  0
    4.1315    7.3535   19.4472 C   0  0  0  0  0  0  0  0  0  0  0  0
    4.9192    6.3574   18.5862 C   0  0  0  0  0  0  0  0  0  0  0  0
    4.3878    8.0088   22.5235 H   0  0  0  0  0  0  0  0  0  0  0  0
 18 19  1  0  0  0
 19 17  1  0  0  0
 17 16  1  0  0  0
 16 14  1  0  0  0
 14  1  1  0  0  0
  1  2  2  0  0  0
  2  3  1  0  0  0
  3  4  2  0  0  0
  4  5  1  0  0  0
  5 20  1  0  0  0
 20 22  1  0  0  0
 22 23  1  0  0  0
 23 24  1  0  0  0
 24 25  1  0  0  0
 25 26  1  0  0  0
 25 27  1  0  0  0
 27 28  1  0  0  0
  5  6  2  0  0  0
  4  7  1  0  0  0
  7  8  2  0  0  0
  8  9  1  0  0  0
  9 10  2  0  0  0
 10 11  1  0  0  0
 10 12  1  0  0  0
 12 13  2  0  0  0
  6  1  1  0  0  0
 13  7  1  0  0  0
 28 22  1  0  0  0
 14 15  1  0  0  0
 20 21  1  0  0  0
 26 29  1  0  0  0
M  END
> <minimizedAffinity>
-7.61115

> <CNNscore>
0.4626295269

> <CNNaffinity>
6.5084915161

> <CNN_VS>
3.0110204220

> <CNNaffinity_variance>
0.3148499727

$$$$
[H]O[C@]1([H])C([H])([H])C([H])([H])[C@@]([H])(N([H])c2nc(N([H])C([H])([H])C([H])([H])C([H])([H])C([H])([H])[H])nc([H])c2-c2nc([H])c(F)c([H])c2[H])C([H])([H])C1([H])[H]


 29 31  0  0  0  0  0  0  0  0999 V2000
    2.8436    4.3653   16.5063 C   0  0  0  0  0  0  0  0  0  0  0  0
    3.4080    3.1931   16.8472 N   0  0  0  0  0  0  0  0  0  0  0  0
    3.9304    2.9470   18.0404 C   0  0  0  0  0  0  0  0  0  0  0  0
    3.9178    3.9419   19.0464 C   0  0  0  0  0  0  0  0  0  0  0  0
    3.3481    5.1249   18.6872 C   0  0  0  0  0  0  0  0  0  0  0  0
    2.8223    5.3192   17.4376 N   0  0  0  0  0  0  0  0  0  0  0  0
    4.5169    3.6050   20.3294 C   0  0  0  0  0  0  0  0  0  0  0  0
    5.6127    4.1804   20.8827 C   0  0  0  0  0  0  0  0  0  0  0  0
    6.0651    3.8557   22.1467 C   0  0  0  0  0  0  0  0  0  0  0  0
    5.3534    2.9083   22.8494 C   0  0  0  0  0  0  0  0  0  0  0  0
    5.7992    2.5900   24.0920 F   0  0  0  0  0  0  0  0  0  0  0  0
    4.2394    2.3286   22.2821 C   0  0  0  0  0  0  0  0  0  0  0  0
    3.8473    2.6748   21.0649 N   0  0  0  0  0  0  0  0  0  0  0  0
    2.2879    4.6208   15.2378 N   0  0  0  0  0  0  0  0  0  0  0  0
    1.6206    5.3953   15.1199 H   0  0  0  0  0  0  0  0  0  0  0  0
    2.6526    3.8067   14.1278 C   0  0  0  0  0  0  0  0  0  0  0  0
    2.4925    4.4693   12.7955 C   0  0  0  0  0  0  0  0  0  0  0  0
    1.1236    6.3422   11.8903 C   0  0  0  0  0  0  0  0  0  0  0  0
    1.0998    4.9748   12.5402 C   0  0  0  0  0  0  0  0  0  0  0  0
    3.3701    6.2706   19.5190 N   0  0  0  0  0  0  0  0  0  0  0  0
    2.7327    6.3502   20.3184 H   0  0  0  0  0  0  0  0  0  0  0  0
    4.3067    7.3489   19.3473 C   0  0  0  0  0  0  0  0  0  0  0  0
    3.7224    8.6609   18.9713 C   0  0  0  0  0  0  0  0  0  0  0  0
    4.3692    9.8132   19.7504 C   0  0  0  0  0  0  0  0  0  0  0  0
    5.8630    9.6843   19.6580 C   0  0  0  0  0  0  0  0  0  0  0  0
    6.2118    9.8343   18.3152 O   0  0  0  0  0  0  0  0  0  0  0  0
    6.3759    8.3400   20.1282 C   0  0  0  0  0  0  0  0  0  0  0  0
    5.1808    7.4965   20.5912 C   0  0  0  0  0  0  0  0  0  0  0  0
    6.4824   10.7411   18.0831 H   0  0  0  0  0  0  0  0  0  0  0  0
 18 19  1  0  0  0
 19 17  1  0  0  0
 17 16  1  0  0  0
 16 14  1  0  0  0
 14  1  1  0  0  0
  1  2  2  0  0  0
  2  3  1  0  0  0
  3  4  2  0  0  0
  4  5  1  0  0  0
  5 20  1  0  0  0
 20 22  1  0  0  0
 22 23  1  0  0  0
 23 24  1  0  0  0
 24 25  1  0  0  0
 25 26  1  0  0  0
 25 27  1  0  0  0
 27 28  1  0  0  0
  5  6  2  0  0  0
  4  7  1  0  0  0
  7  8  2  0  0  0
  8  9  1  0  0  0
  9 10  2  0  0  0
 10 11  1  0  0  0
 10 12  1  0  0  0
 12 13  2  0  0  0
  6  1  1  0  0  0
 13  7  1  0  0  0
 28 22  1  0  0  0
 14 15  1  0  0  0
 20 21  1  0  0  0
 26 29  1  0  0  0
M  END
> <minimizedAffinity>
-6.67134

> <CNNscore>
0.3145857751

> <CNNaffinity>
5.8355617523

> <CNN_VS>
1.8357846737

> <CNNaffinity_variance>
0.3460909426

$$$$
[H]O[C@]1([H])C([H])([H])C([H])([H])[C@@]([H])(N([H])c2nc(N([H])C([H])([H])C([H])([H])C([H])([H])C([H])([H])[H])nc([H])c2-c2nc([H])c(F)c([H])c2[H])C([H])([H])C1([H])[H]


 29 31  0  0  0  0  0  0  0  0999 V2000
    3.8787    4.3417   16.8214 C   0  0  0  0  0  0  0  0  0  0  0  0
    4.3491    3.1378   17.1934 N   0  0  0  0  0  0  0  0  0  0  0  0
    4.5642    2.7891   18.4541 C   0  0  0  0  0  0  0  0  0  0  0  0
    4.2992    3.6998   19.5040 C   0  0  0  0  0  0  0  0  0  0  0  0
    3.8281    4.9159   19.1139 C   0  0  0  0  0  0  0  0  0  0  0  0
    3.6239    5.2177   17.7937 N   0  0  0  0  0  0  0  0  0  0  0  0
    4.5672    3.2522   20.8628 C   0  0  0  0  0  0  0  0  0  0  0  0
    3.9454    2.2389   21.5146 C   0  0  0  0  0  0  0  0  0  0  0  0
    4.3217    1.8255   22.7776 C   0  0  0  0  0  0  0  0  0  0  0  0
    5.3743    2.4861   23.3723 C   0  0  0  0  0  0  0  0  0  0  0  0
    5.7432    2.0786   24.6140 F   0  0  0  0  0  0  0  0  0  0  0  0
    6.0032    3.5139   22.7036 C   0  0  0  0  0  0  0  0  0  0  0  0
    5.6028    3.8727   21.4928 N   0  0  0  0  0  0  0  0  0  0  0  0
    3.6498    4.7063   15.4806 N   0  0  0  0  0  0  0  0  0  0  0  0
    3.5939    3.9775   14.7562 H   0  0  0  0  0  0  0  0  0  0  0  0
    3.4972    6.0797   15.1364 C   0  0  0  0  0  0  0  0  0  0  0  0
    2.7573    6.3184   13.8575 C   0  0  0  0  0  0  0  0  0  0  0  0
    2.1061    8.5875   13.0652 C   0  0  0  0  0  0  0  0  0  0  0  0
    3.2084    7.5511   13.1244 C   0  0  0  0  0  0  0  0  0  0  0  0
    3.6386    5.9905   20.0163 N   0  0  0  0  0  0  0  0  0  0  0  0
    2.8678    5.9773   20.6924 H   0  0  0  0  0  0  0  0  0  0  0  0
    4.5275    7.1189   20.0928 C   0  0  0  0  0  0  0  0  0  0  0  0
    5.9275    6.8710   19.6650 C   0  0  0  0  0  0  0  0  0  0  0  0
    6.4698    8.0214   18.8073 C   0  0  0  0  0  0  0  0  0  0  0  0
    6.1945    9.3215   19.5077 C   0  0  0  0  0  0  0  0  0  0  0  0
    6.9138    9.3109   20.7034 O   0  0  0  0  0  0  0  0  0  0  0  0
    4.7318    9.5208   19.8423 C   0  0  0  0  0  0  0  0  0  0  0  0
    3.9445    8.3073   19.3307 C   0  0  0  0  0  0  0  0  0  0  0  0
    7.7747    9.7632   20.6430 H   0  0  0  0  0  0  0  0  0  0  0  0
 18 19  1  0  0  0
 19 17  1  0  0  0
 17 16  1  0  0  0
 16 14  1  0  0  0
 14  1  1  0  0  0
  1  2  2  0  0  0
  2  3  1  0  0  0
  3  4  2  0  0  0
  4  5  1  0  0  0
  5 20  1  0  0  0
 20 22  1  0  0  0
 22 23  1  0  0  0
 23 24  1  0  0  0
 24 25  1  0  0  0
 25 26  1  0  0  0
 25 27  1  0  0  0
 27 28  1  0  0  0
  5  6  2  0  0  0
  4  7  1  0  0  0
  7  8  2  0  0  0
  8  9  1  0  0  0
  9 10  2  0  0  0
 10 11  1  0  0  0
 10 12  1  0  0  0
 12 13  2  0  0  0
  6  1  1  0  0  0
 13  7  1  0  0  0
 28 22  1  0  0  0
 14 15  1  0  0  0
 20 21  1  0  0  0
 26 29  1  0  0  0
M  END
> <minimizedAffinity>
-6.59795

> <CNNscore>
0.2869140506

> <CNNaffinity>
5.9767966270

> <CNN_VS>
1.7148269415

> <CNNaffinity_variance>
0.2611784935

$$$$
[H]O[C@]1([H])C([H])([H])C([H])([H])[C@@]([H])(N([H])c2nc(N([H])C([H])([H])C([H])([H])C([H])([H])C([H])([H])[H])nc([H])c2-c2nc([H])c(F)c([H])c2[H])C([H])([H])C1([H])[H]


 29 31  0  0  0  0  0  0  0  0999 V2000
    3.8262    2.1360   17.2259 C   0  0  0  0  0  0  0  0  0  0  0  0
    2.8640    1.3451   16.7183 N   0  0  0  0  0  0  0  0  0  0  0  0
    2.3691    1.4798   15.4960 C   0  0  0  0  0  0  0  0  0  0  0  0
    2.8474    2.4983   14.6382 C   0  0  0  0  0  0  0  0  0  0  0  0
    3.8174    3.2946   15.1654 C   0  0  0  0  0  0  0  0  0  0  0  0
    4.2909    3.1048   16.4364 N   0  0  0  0  0  0  0  0  0  0  0  0
    2.2520    2.5929   13.3134 C   0  0  0  0  0  0  0  0  0  0  0  0
    2.6117    1.8826   12.2159 C   0  0  0  0  0  0  0  0  0  0  0  0
    1.9350    1.9754   11.0154 C   0  0  0  0  0  0  0  0  0  0  0  0
    0.8555    2.8297   10.9620 C   0  0  0  0  0  0  0  0  0  0  0  0
    0.1911    2.9200    9.7811 F   0  0  0  0  0  0  0  0  0  0  0  0
    0.4940    3.5473   12.0815 C   0  0  0  0  0  0  0  0  0  0  0  0
    1.1773    3.4228   13.2096 N   0  0  0  0  0  0  0  0  0  0  0  0
    4.3502    1.9871   18.5244 N   0  0  0  0  0  0  0  0  0  0  0  0
    4.7364    1.0793   18.8176 H   0  0  0  0  0  0  0  0  0  0  0  0
    4.3424    3.0923   19.4224 C   0  0  0  0  0  0  0  0  0  0  0  0
    4.7347    2.7519   20.8259 C   0  0  0  0  0  0  0  0  0  0  0  0
    4.3850    4.2836   22.7579 C   0  0  0  0  0  0  0  0  0  0  0  0
    5.2848    3.9205   21.5954 C   0  0  0  0  0  0  0  0  0  0  0  0
    4.3127    4.4426   14.5007 N   0  0  0  0  0  0  0  0  0  0  0  0
    5.2526    4.4460   14.0907 H   0  0  0  0  0  0  0  0  0  0  0  0
    3.5311    5.6335   14.3003 C   0  0  0  0  0  0  0  0  0  0  0  0
    3.8445    6.7730   15.1990 C   0  0  0  0  0  0  0  0  0  0  0  0
    3.8742    8.1039   14.4368 C   0  0  0  0  0  0  0  0  0  0  0  0
    2.6267    8.2171   13.6076 C   0  0  0  0  0  0  0  0  0  0  0  0
    1.5442    8.2582   14.4871 O   0  0  0  0  0  0  0  0  0  0  0  0
    2.4251    7.0456   12.6705 C   0  0  0  0  0  0  0  0  0  0  0  0
    3.6025    6.0766   12.8403 C   0  0  0  0  0  0  0  0  0  0  0  0
    1.2433    9.1623   14.6909 H   0  0  0  0  0  0  0  0  0  0  0  0
 18 19  1  0  0  0
 19 17  1  0  0  0
 17 16  1  0  0  0
 16 14  1  0  0  0
 14  1  1  0  0  0
  1  2  2  0  0  0
  2  3  1  0  0  0
  3  4  2  0  0  0
  4  5  1  0  0  0
  5 20  1  0  0  0
 20 22  1  0  0  0
 22 23  1  0  0  0
 23 24  1  0  0  0
 24 25  1  0  0  0
 25 26  1  0  0  0
 25 27  1  0  0  0
 27 28  1  0  0  0
  5  6  2  0  0  0
  4  7  1  0  0  0
  7  8  2  0  0  0
  8  9  1  0  0  0
  9 10  2  0  0  0
 10 11  1  0  0  0
 10 12  1  0  0  0
 12 13  2  0  0  0
  6  1  1  0  0  0
 13  7  1  0  0  0
 28 22  1  0  0  0
 14 15  1  0  0  0
 20 21  1  0  0  0
 26 29  1  0  0  0
M  END
> <minimizedAffinity>
-6.24266

> <CNNscore>
0.2701819539

> <CNNaffinity>
6.1500158310

> <CNN_VS>
1.6616232395

> <CNNaffinity_variance>
0.3639473319

$$$$
[H]c1nc(N([H])[H])c(C(=O)N([H])[C@@]2([H])C([H])([H])C([H])([H])C([H])([H])[C@]2([H])OC([H])([H])c2c([H])c([H])c([H])c(C([H])([H])[H])c2[H])c([H])c1-c1c([H])c([H])c([H])c(C([H])([H])N2C([H])([H])C([H])([H])N(C([H])([H])[H])C([H])([H])C2([H])[H])c1[H]


 41 45  0  0  0  0  0  0  0  0999 V2000
    3.1647    1.5743   16.4554 C   0  0  0  0  0  0  0  0  0  0  0  0
    2.5010    0.3638   16.4442 C   0  0  0  0  0  0  0  0  0  0  0  0
    2.3782   -0.3962   17.5451 N   0  0  0  0  0  0  0  0  0  0  0  0
    2.9002   -0.0112   18.7226 C   0  0  0  0  0  0  0  0  0  0  0  0
    2.7965   -0.7803   19.8992 N   0  0  0  0  0  0  0  0  0  0  0  0
    3.5849    1.2097   18.7935 C   0  0  0  0  0  0  0  0  0  0  0  0
    3.7088    1.9888   17.6551 C   0  0  0  0  0  0  0  0  0  0  0  0
    1.9808   -0.6254   20.5275 H   0  0  0  0  0  0  0  0  0  0  0  0
    3.4886   -1.5024   20.1881 H   0  0  0  0  0  0  0  0  0  0  0  0
    2.8884    2.7775   12.8807 C   0  0  0  0  0  0  0  0  0  0  0  0
    3.5211    4.0000   12.9569 C   0  0  0  0  0  0  0  0  0  0  0  0
    4.0359    4.4209   14.1680 C   0  0  0  0  0  0  0  0  0  0  0  0
    3.9072    3.6205   15.2593 C   0  0  0  0  0  0  0  0  0  0  0  0
    3.2814    2.3879   15.2343 C   0  0  0  0  0  0  0  0  0  0  0  0
    2.7750    1.9840   14.0201 C   0  0  0  0  0  0  0  0  0  0  0  0
    2.3440    2.3675   11.5745 C   0  0  0  0  0  0  0  0  0  0  0  0
    4.3241    0.0069    7.3123 C   0  0  0  0  0  0  0  0  0  0  0  0
    3.7496    1.2300    7.8503 N   0  0  0  0  0  0  0  0  0  0  0  0
    2.4991    0.9761    8.5116 C   0  0  0  0  0  0  0  0  0  0  0  0
    2.8084    0.6070    9.9670 C   0  0  0  0  0  0  0  0  0  0  0  0
    3.2498    1.7618   10.6684 N   0  0  0  0  0  0  0  0  0  0  0  0
    3.9490    2.6778    9.8284 C   0  0  0  0  0  0  0  0  0  0  0  0
    4.6735    1.9055    8.7295 C   0  0  0  0  0  0  0  0  0  0  0  0
    4.1346    1.6003   20.0756 C   0  0  0  0  0  0  0  0  0  0  0  0
    5.0934    0.9587   20.5761 O   0  0  0  0  0  0  0  0  0  0  0  0
    3.6528    2.6932   20.8385 N   0  0  0  0  0  0  0  0  0  0  0  0
    2.8536    3.2390   20.4393 H   0  0  0  0  0  0  0  0  0  0  0  0
    4.2301    3.0589   22.1200 C   0  0  0  0  0  0  0  0  0  0  0  0
    3.8386    2.0135   23.1367 C   0  0  0  0  0  0  0  0  0  0  0  0
    5.0546    1.8067   24.0206 C   0  0  0  0  0  0  0  0  0  0  0  0
    6.1271    2.7616   23.5281 C   0  0  0  0  0  0  0  0  0  0  0  0
    5.7408    3.0621   22.0843 C   0  0  0  0  0  0  0  0  0  0  0  0
    6.3019    4.1642   21.5530 O   0  0  0  0  0  0  0  0  0  0  0  0
    7.3925    4.7172   22.1575 C   0  0  0  0  0  0  0  0  0  0  0  0
    7.3918    6.2274   22.0308 C   0  0  0  0  0  0  0  0  0  0  0  0
    8.5639    6.9217   22.1382 C   0  0  0  0  0  0  0  0  0  0  0  0
    8.5359    8.2949   22.0267 C   0  0  0  0  0  0  0  0  0  0  0  0
    7.3553    8.9739   21.8105 C   0  0  0  0  0  0  0  0  0  0  0  0
    6.1690    8.2527   21.7038 C   0  0  0  0  0  0  0  0  0  0  0  0
    4.8801    8.9915   21.4701 C   0  0  0  0  0  0  0  0  0  0  0  0
    6.2170    6.8930   21.8162 C   0  0  0  0  0  0  0  0  0  0  0  0
 17 18  1  0  0  0
 18 19  1  0  0  0
 19 20  1  0  0  0
 20 21  1  0  0  0
 21 16  1  0  0  0
 16 10  1  0  0  0
 10 11  2  0  0  0
 11 12  1  0  0  0
 12 13  2  0  0  0
 13 14  1  0  0  0
 14 15  2  0  0  0
 14  1  1  0  0  0
  1  2  2  0  0  0
  2  3  1  0  0  0
  3  4  2  0  0  0
  4  5  1  0  0  0
  4  6  1  0  0  0
  6  7  2  0  0  0
  6 24  1  0  0  0
 24 25  2  0  0  0
 24 26  1  0  0  0
 26 28  1  0  0  0
 28 29  1  0  0  0
 29 30  1  0  0  0
 30 31  1  0  0  0
 31 32  1  0  0  0
 32 33  1  0  0  0
 33 34  1  0  0  0
 34 35  1  0  0  0
 35 36  2  0  0  0
 36 37  1  0  0  0
 37 38  2  0  0  0
 38 39  1  0  0  0
 39 40  1  0  0  0
 39 41  2  0  0  0
 21 22  1  0  0  0
 22 23  1  0  0  0
 23 18  1  0  0  0
 15 10  1  0  0  0
  7  1  1  0  0  0
 32 28  1  0  0  0
 41 35  1  0  0  0
  5  8  1  0  0  0
  5  9  1  0  0  0
 26 27  1  0  0  0
M  END
> <minimizedAffinity>
-9.04280

> <CNNscore>
0.8675047755

> <CNNaffinity>
7.3332834244

> <CNN_VS>
6.3616585732

> <CNNaffinity_variance>
0.0571524799

$$$$
[H]c1nc(N([H])[H])c(C(=O)N([H])[C@@]2([H])C([H])([H])C([H])([H])C([H])([H])[C@]2([H])OC([H])([H])c2c([H])c([H])c([H])c(C([H])([H])[H])c2[H])c([H])c1-c1c([H])c([H])c([H])c(C([H])([H])N2C([H])([H])C([H])([H])N(C([H])([H])[H])C([H])([H])C2([H])[H])c1[H]


 41 45  0  0  0  0  0  0  0  0999 V2000
    3.2008    1.5517   16.5339 C   0  0  0  0  0  0  0  0  0  0  0  0
    2.5218    0.3502   16.5719 C   0  0  0  0  0  0  0  0  0  0  0  0
    2.4118   -0.3754   17.6969 N   0  0  0  0  0  0  0  0  0  0  0  0
    2.9625    0.0371   18.8519 C   0  0  0  0  0  0  0  0  0  0  0  0
    2.8729   -0.6956   20.0526 N   0  0  0  0  0  0  0  0  0  0  0  0
    3.6637    1.2505   18.8730 C   0  0  0  0  0  0  0  0  0  0  0  0
    3.7743    1.9941   17.7097 C   0  0  0  0  0  0  0  0  0  0  0  0
    2.0722   -0.5116   20.6922 H   0  0  0  0  0  0  0  0  0  0  0  0
    3.5617   -1.4179   20.3490 H   0  0  0  0  0  0  0  0  0  0  0  0
    2.8578    2.6579   12.9338 C   0  0  0  0  0  0  0  0  0  0  0  0
    3.5173    3.8683   12.9585 C   0  0  0  0  0  0  0  0  0  0  0  0
    4.0716    4.3125   14.1435 C   0  0  0  0  0  0  0  0  0  0  0  0
    3.9545    3.5465   15.2605 C   0  0  0  0  0  0  0  0  0  0  0  0
    3.3029    2.3274   15.2871 C   0  0  0  0  0  0  0  0  0  0  0  0
    2.7573    1.8999   14.0983 C   0  0  0  0  0  0  0  0  0  0  0  0
    2.2717    2.2226   11.6541 C   0  0  0  0  0  0  0  0  0  0  0  0
   -2.0593    5.1406   11.0328 C   0  0  0  0  0  0  0  0  0  0  0  0
   -0.7516    4.8018   10.4939 N   0  0  0  0  0  0  0  0  0  0  0  0
    0.2762    4.9305   11.4901 C   0  0  0  0  0  0  0  0  0  0  0  0
    0.3609    3.5998   12.2466 C   0  0  0  0  0  0  0  0  0  0  0  0
    0.9310    2.6074   11.4036 N   0  0  0  0  0  0  0  0  0  0  0  0
    0.6216    2.8156   10.0272 C   0  0  0  0  0  0  0  0  0  0  0  0
   -0.7464    3.4817    9.9107 C   0  0  0  0  0  0  0  0  0  0  0  0
    4.2441    1.6713   20.1317 C   0  0  0  0  0  0  0  0  0  0  0  0
    5.2547    1.0815   20.5924 O   0  0  0  0  0  0  0  0  0  0  0  0
    3.7374    2.7389   20.9141 N   0  0  0  0  0  0  0  0  0  0  0  0
    2.8952    3.2416   20.5482 H   0  0  0  0  0  0  0  0  0  0  0  0
    4.3467    3.1364   22.1712 C   0  0  0  0  0  0  0  0  0  0  0  0
    4.2105    1.9953   23.1506 C   0  0  0  0  0  0  0  0  0  0  0  0
    5.5095    1.9527   23.9338 C   0  0  0  0  0  0  0  0  0  0  0  0
    6.3714    3.0935   23.4236 C   0  0  0  0  0  0  0  0  0  0  0  0
    5.8295    3.3915   22.0302 C   0  0  0  0  0  0  0  0  0  0  0  0
    6.1615    4.5944   21.5256 O   0  0  0  0  0  0  0  0  0  0  0  0
    5.6270    5.7216   22.0772 C   0  0  0  0  0  0  0  0  0  0  0  0
    5.0665    6.6472   21.0161 C   0  0  0  0  0  0  0  0  0  0  0  0
    5.0681    7.9985   21.2195 C   0  0  0  0  0  0  0  0  0  0  0  0
    4.5461    8.8186   20.2428 C   0  0  0  0  0  0  0  0  0  0  0  0
    4.0268    8.3028   19.0742 C   0  0  0  0  0  0  0  0  0  0  0  0
    4.0316    6.9237   18.8816 C   0  0  0  0  0  0  0  0  0  0  0  0
    3.4636    6.3591   17.6087 C   0  0  0  0  0  0  0  0  0  0  0  0
    4.5536    6.1277   19.8602 C   0  0  0  0  0  0  0  0  0  0  0  0
 17 18  1  0  0  0
 18 19  1  0  0  0
 19 20  1  0  0  0
 20 21  1  0  0  0
 21 16  1  0  0  0
 16 10  1  0  0  0
 10 11  2  0  0  0
 11 12  1  0  0  0
 12 13  2  0  0  0
 13 14  1  0  0  0
 14 15  2  0  0  0
 14  1  1  0  0  0
  1  2  2  0  0  0
  2  3  1  0  0  0
  3  4  2  0  0  0
  4  5  1  0  0  0
  4  6  1  0  0  0
  6  7  2  0  0  0
  6 24  1  0  0  0
 24 25  2  0  0  0
 24 26  1  0  0  0
 26 28  1  0  0  0
 28 29  1  0  0  0
 29 30  1  0  0  0
 30 31  1  0  0  0
 31 32  1  0  0  0
 32 33  1  0  0  0
 33 34  1  0  0  0
 34 35  1  0  0  0
 35 36  2  0  0  0
 36 37  1  0  0  0
 37 38  2  0  0  0
 38 39  1  0  0  0
 39 40  1  0  0  0
 39 41  2  0  0  0
 21 22  1  0  0  0
 22 23  1  0  0  0
 23 18  1  0  0  0
 15 10  1  0  0  0
  7  1  1  0  0  0
 32 28  1  0  0  0
 41 35  1  0  0  0
  5  8  1  0  0  0
  5  9  1  0  0  0
 26 27  1  0  0  0
M  END
> <minimizedAffinity>
-9.68336

> <CNNscore>
0.7317458391

> <CNNaffinity>
7.3855104446

> <CNN_VS>
5.4043164253

> <CNNaffinity_variance>
0.2810140550

$$$$
[H]c1nc(N([H])[H])c(C(=O)N([H])[C@@]2([H])C([H])([H])C([H])([H])C([H])([H])[C@]2([H])OC([H])([H])c2c([H])c([H])c([H])c(C([H])([H])[H])c2[H])c([H])c1-c1c([H])c([H])c([H])c(C([H])([H])N2C([H])([H])C([H])([H])N(C([H])([H])[H])C([H])([H])C2([H])[H])c1[H]


 41 45  0  0  0  0  0  0  0  0999 V2000
    2.8770    1.2821   17.3205 C   0  0  0  0  0  0  0  0  0  0  0  0
    2.2744    0.0417   17.3856 C   0  0  0  0  0  0  0  0  0  0  0  0
    2.2792   -0.6994   18.5059 N   0  0  0  0  0  0  0  0  0  0  0  0
    2.8764   -0.2650   19.6293 C   0  0  0  0  0  0  0  0  0  0  0  0
    2.9067   -1.0126   20.8238 N   0  0  0  0  0  0  0  0  0  0  0  0
    3.5042    0.9881   19.6219 C   0  0  0  0  0  0  0  0  0  0  0  0
    3.4965    1.7475   18.4637 C   0  0  0  0  0  0  0  0  0  0  0  0
    2.1386   -0.8829   21.5146 H   0  0  0  0  0  0  0  0  0  0  0  0
    3.6546   -1.6949   21.0671 H   0  0  0  0  0  0  0  0  0  0  0  0
    2.2274    4.0305   14.8052 C   0  0  0  0  0  0  0  0  0  0  0  0
    2.8703    3.5350   13.6908 C   0  0  0  0  0  0  0  0  0  0  0  0
    3.5055    2.3103   13.7650 C   0  0  0  0  0  0  0  0  0  0  0  0
    3.4834    1.6198   14.9358 C   0  0  0  0  0  0  0  0  0  0  0  0
    2.8537    2.0738   16.0798 C   0  0  0  0  0  0  0  0  0  0  0  0
    2.2257    3.2948   15.9882 C   0  0  0  0  0  0  0  0  0  0  0  0
    1.5699    5.3438   14.6900 C   0  0  0  0  0  0  0  0  0  0  0  0
   -1.4996    5.9798   10.4671 C   0  0  0  0  0  0  0  0  0  0  0  0
   -1.2674    6.3599   11.8516 N   0  0  0  0  0  0  0  0  0  0  0  0
   -1.1428    5.2058   12.6990 C   0  0  0  0  0  0  0  0  0  0  0  0
    0.3276    4.7726   12.6826 C   0  0  0  0  0  0  0  0  0  0  0  0
    1.1108    5.7158   13.4019 N   0  0  0  0  0  0  0  0  0  0  0  0
    0.5854    7.0390   13.3193 C   0  0  0  0  0  0  0  0  0  0  0  0
   -0.1170    7.2222   11.9770 C   0  0  0  0  0  0  0  0  0  0  0  0
    4.1372    1.4317   20.8471 C   0  0  0  0  0  0  0  0  0  0  0  0
    5.3470    1.1681   21.0669 O   0  0  0  0  0  0  0  0  0  0  0  0
    3.4683    2.1679   21.8567 N   0  0  0  0  0  0  0  0  0  0  0  0
    2.4598    2.3958   21.6929 H   0  0  0  0  0  0  0  0  0  0  0  0
    4.1352    2.5995   23.0725 C   0  0  0  0  0  0  0  0  0  0  0  0
    4.3151    1.3995   23.9711 C   0  0  0  0  0  0  0  0  0  0  0  0
    5.6809    1.5535   24.6141 C   0  0  0  0  0  0  0  0  0  0  0  0
    6.2635    2.8608   24.1079 C   0  0  0  0  0  0  0  0  0  0  0  0
    5.5236    3.1316   22.8027 C   0  0  0  0  0  0  0  0  0  0  0  0
    5.5777    4.4016   22.3602 O   0  0  0  0  0  0  0  0  0  0  0  0
    6.1877    4.6697   21.1700 C   0  0  0  0  0  0  0  0  0  0  0  0
    5.1812    5.0542   20.1041 C   0  0  0  0  0  0  0  0  0  0  0  0
    3.8914    5.3390   20.4546 C   0  0  0  0  0  0  0  0  0  0  0  0
    2.9934    5.6789   19.4661 C   0  0  0  0  0  0  0  0  0  0  0  0
    3.3714    5.7358   18.1413 C   0  0  0  0  0  0  0  0  0  0  0  0
    4.6890    5.4424   17.7996 C   0  0  0  0  0  0  0  0  0  0  0  0
    5.1026    5.5018   16.3549 C   0  0  0  0  0  0  0  0  0  0  0  0
    5.5641    5.1085   18.7928 C   0  0  0  0  0  0  0  0  0  0  0  0
 17 18  1  0  0  0
 18 19  1  0  0  0
 19 20  1  0  0  0
 20 21  1  0  0  0
 21 16  1  0  0  0
 16 10  1  0  0  0
 10 11  2  0  0  0
 11 12  1  0  0  0
 12 13  2  0  0  0
 13 14  1  0  0  0
 14 15  2  0  0  0
 14  1  1  0  0  0
  1  2  2  0  0  0
  2  3  1  0  0  0
  3  4  2  0  0  0
  4  5  1  0  0  0
  4  6  1  0  0  0
  6  7  2  0  0  0
  6 24  1  0  0  0
 24 25  2  0  0  0
 24 26  1  0  0  0
 26 28  1  0  0  0
 28 29  1  0  0  0
 29 30  1  0  0  0
 30 31  1  0  0  0
 31 32  1  0  0  0
 32 33  1  0  0  0
 33 34  1  0  0  0
 34 35  1  0  0  0
 35 36  2  0  0  0
 36 37  1  0  0  0
 37 38  2  0  0  0
 38 39  1  0  0  0
 39 40  1  0  0  0
 39 41  2  0  0  0
 21 22  1  0  0  0
 22 23  1  0  0  0
 23 18  1  0  0  0
 15 10  1  0  0  0
  7  1  1  0  0  0
 32 28  1  0  0  0
 41 35  1  0  0  0
  5  8  1  0  0  0
  5  9  1  0  0  0
 26 27  1  0  0  0
M  END
> <minimizedAffinity>
-7.77069

> <CNNscore>
0.6999678016

> <CNNaffinity>
7.4628157616

> <CNN_VS>
5.2237305641

> <CNNaffinity_variance>
0.1775588542

$$$$
[H]c1nc(N([H])[H])c(C(=O)N([H])[C@@]2([H])C([H])([H])C([H])([H])C([H])([H])[C@]2([H])OC([H])([H])c2c([H])c([H])c([H])c(C([H])([H])[H])c2[H])c([H])c1-c1c([H])c([H])c([H])c(C([H])([H])N2C([H])([H])C([H])([H])N(C([H])([H])[H])C([H])([H])C2([H])[H])c1[H]


 41 45  0  0  0  0  0  0  0  0999 V2000
    3.1807    1.5625   16.4390 C   0  0  0  0  0  0  0  0  0  0  0  0
    2.5033    0.3607   16.4917 C   0  0  0  0  0  0  0  0  0  0  0  0
    2.4059   -0.3579   17.6224 N   0  0  0  0  0  0  0  0  0  0  0  0
    2.9683    0.0623   18.7689 C   0  0  0  0  0  0  0  0  0  0  0  0
    2.8922   -0.6629   19.9751 N   0  0  0  0  0  0  0  0  0  0  0  0
    3.6686    1.2764   18.7749 C   0  0  0  0  0  0  0  0  0  0  0  0
    3.7662    2.0128   17.6059 C   0  0  0  0  0  0  0  0  0  0  0  0
    2.0980   -0.4756   20.6219 H   0  0  0  0  0  0  0  0  0  0  0  0
    3.5847   -1.3827   20.2687 H   0  0  0  0  0  0  0  0  0  0  0  0
    2.8361    2.6255   12.8260 C   0  0  0  0  0  0  0  0  0  0  0  0
    3.4543    3.8576   12.8463 C   0  0  0  0  0  0  0  0  0  0  0  0
    3.9817    4.3304   14.0325 C   0  0  0  0  0  0  0  0  0  0  0  0
    3.8794    3.5706   15.1551 C   0  0  0  0  0  0  0  0  0  0  0  0
    3.2689    2.3304   15.1864 C   0  0  0  0  0  0  0  0  0  0  0  0
    2.7497    1.8746   13.9963 C   0  0  0  0  0  0  0  0  0  0  0  0
    2.2776    2.1597   11.5448 C   0  0  0  0  0  0  0  0  0  0  0  0
    4.2877   -0.0644    7.2237 C   0  0  0  0  0  0  0  0  0  0  0  0
    3.5882    1.0895    7.7664 N   0  0  0  0  0  0  0  0  0  0  0  0
    2.4272    0.6949    8.5160 C   0  0  0  0  0  0  0  0  0  0  0  0
    2.8738    0.4214    9.9568 C   0  0  0  0  0  0  0  0  0  0  0  0
    3.1984    1.6485   10.5966 N   0  0  0  0  0  0  0  0  0  0  0  0
    3.7137    2.6193    9.6880 C   0  0  0  0  0  0  0  0  0  0  0  0
    4.4656    1.9122    8.5640 C   0  0  0  0  0  0  0  0  0  0  0  0
    4.2619    1.7057   20.0248 C   0  0  0  0  0  0  0  0  0  0  0  0
    5.2734    1.1149   20.4822 O   0  0  0  0  0  0  0  0  0  0  0  0
    3.7673    2.7829   20.8018 N   0  0  0  0  0  0  0  0  0  0  0  0
    2.9245    3.2866   20.4384 H   0  0  0  0  0  0  0  0  0  0  0  0
    4.3893    3.1887   22.0499 C   0  0  0  0  0  0  0  0  0  0  0  0
    4.2893    2.0432   23.0286 C   0  0  0  0  0  0  0  0  0  0  0  0
    5.6012    2.0224   23.7909 C   0  0  0  0  0  0  0  0  0  0  0  0
    6.4341    3.1797   23.2699 C   0  0  0  0  0  0  0  0  0  0  0  0
    5.8648    3.4708   21.8859 C   0  0  0  0  0  0  0  0  0  0  0  0
    6.1669    4.6806   21.3791 O   0  0  0  0  0  0  0  0  0  0  0  0
    5.6358    5.7979   21.9534 C   0  0  0  0  0  0  0  0  0  0  0  0
    5.0649    6.7398   20.9122 C   0  0  0  0  0  0  0  0  0  0  0  0
    5.0206    8.0832   21.1586 C   0  0  0  0  0  0  0  0  0  0  0  0
    4.4901    8.9180   20.1991 C   0  0  0  0  0  0  0  0  0  0  0  0
    4.0077    8.4246   19.0053 C   0  0  0  0  0  0  0  0  0  0  0  0
    4.0592    7.0534   18.7689 C   0  0  0  0  0  0  0  0  0  0  0  0
    3.5315    6.5131   17.4684 C   0  0  0  0  0  0  0  0  0  0  0  0
    4.5888    6.2425   19.7310 C   0  0  0  0  0  0  0  0  0  0  0  0
 17 18  1  0  0  0
 18 19  1  0  0  0
 19 20  1  0  0  0
 20 21  1  0  0  0
 21 16  1  0  0  0
 16 10  1  0  0  0
 10 11  2  0  0  0
 11 12  1  0  0  0
 12 13  2  0  0  0
 13 14  1  0  0  0
 14 15  2  0  0  0
 14  1  1  0  0  0
  1  2  2  0  0  0
  2  3  1  0  0  0
  3  4  2  0  0  0
  4  5  1  0  0  0
  4  6  1  0  0  0
  6  7  2  0  0  0
  6 24  1  0  0  0
 24 25  2  0  0  0
 24 26  1  0  0  0
 26 28  1  0  0  0
 28 29  1  0  0  0
 29 30  1  0  0  0
 30 31  1  0  0  0
 31 32  1  0  0  0
 32 33  1  0  0  0
 33 34  1  0  0  0
 34 35  1  0  0  0
 35 36  2  0  0  0
 36 37  1  0  0  0
 37 38  2  0  0  0
 38 39  1  0  0  0
 39 40  1  0  0  0
 39 41  2  0  0  0
 21 22  1  0  0  0
 22 23  1  0  0  0
 23 18  1  0  0  0
 15 10  1  0  0  0
  7  1  1  0  0  0
 32 28  1  0  0  0
 41 35  1  0  0  0
  5  8  1  0  0  0
  5  9  1  0  0  0
 26 27  1  0  0  0
M  END
> <minimizedAffinity>
-9.49013

> <CNNscore>
0.6999061704

> <CNNaffinity>
7.2296080589

> <CNN_VS>
5.0600471497

> <CNNaffinity_variance>
0.2679391503

$$$$
[H]c1nc(N([H])[H])c(C(=O)N([H])[C@@]2([H])C([H])([H])C([H])([H])C([H])([H])[C@]2([H])OC([H])([H])c2c([H])c([H])c([H])c(C([H])([H])[H])c2[H])c([H])c1-c1c([H])c([H])c([H])c(C([H])([H])N2C([H])([H])C([H])([H])N(C([H])([H])[H])C([H])([H])C2([H])[H])c1[H]


 41 45  0  0  0  0  0  0  0  0999 V2000
    3.0052    1.5272   16.3132 C   0  0  0  0  0  0  0  0  0  0  0  0
    2.3678    0.3069   16.4157 C   0  0  0  0  0  0  0  0  0  0  0  0
    2.3310   -0.3880   17.5647 N   0  0  0  0  0  0  0  0  0  0  0  0
    2.9183    0.0757   18.6816 C   0  0  0  0  0  0  0  0  0  0  0  0
    2.9055   -0.6234   19.9055 N   0  0  0  0  0  0  0  0  0  0  0  0
    3.5802    1.3103   18.6367 C   0  0  0  0  0  0  0  0  0  0  0  0
    3.6153    2.0220   17.4490 C   0  0  0  0  0  0  0  0  0  0  0  0
    2.1282   -0.4454   20.5749 H   0  0  0  0  0  0  0  0  0  0  0  0
    3.6297   -1.3148   20.1909 H   0  0  0  0  0  0  0  0  0  0  0  0
    3.0176    4.3210   13.7643 C   0  0  0  0  0  0  0  0  0  0  0  0
    3.0958    3.6112   12.5850 C   0  0  0  0  0  0  0  0  0  0  0  0
    3.1392    2.2309   12.6279 C   0  0  0  0  0  0  0  0  0  0  0  0
    3.1045    1.6019   13.8326 C   0  0  0  0  0  0  0  0  0  0  0  0
    3.0272    2.2682   15.0415 C   0  0  0  0  0  0  0  0  0  0  0  0
    2.9841    3.6423   14.9804 C   0  0  0  0  0  0  0  0  0  0  0  0
    2.9829    5.7914   13.6784 C   0  0  0  0  0  0  0  0  0  0  0  0
   -2.0153    6.5492   12.2286 C   0  0  0  0  0  0  0  0  0  0  0  0
   -1.1176    5.8190   13.1097 N   0  0  0  0  0  0  0  0  0  0  0  0
   -0.0609    5.1825   12.3723 C   0  0  0  0  0  0  0  0  0  0  0  0
    1.0798    6.1960   12.2246 C   0  0  0  0  0  0  0  0  0  0  0  0
    1.7127    6.3884   13.4828 N   0  0  0  0  0  0  0  0  0  0  0  0
    0.8113    6.2359   14.5772 C   0  0  0  0  0  0  0  0  0  0  0  0
   -0.5866    6.6708   14.1466 C   0  0  0  0  0  0  0  0  0  0  0  0
    4.2015    1.7864   19.8556 C   0  0  0  0  0  0  0  0  0  0  0  0
    5.1502    1.1452   20.3756 O   0  0  0  0  0  0  0  0  0  0  0  0
    3.8036    2.9658   20.5331 N   0  0  0  0  0  0  0  0  0  0  0  0
    3.0141    3.5128   20.1166 H   0  0  0  0  0  0  0  0  0  0  0  0
    4.4513    3.4157   21.7527 C   0  0  0  0  0  0  0  0  0  0  0  0
    4.3872    2.2998   22.7679 C   0  0  0  0  0  0  0  0  0  0  0  0
    5.7174    2.3153   23.4981 C   0  0  0  0  0  0  0  0  0  0  0  0
    6.5252    3.4642   22.9218 C   0  0  0  0  0  0  0  0  0  0  0  0
    5.9194    3.7072   21.5441 C   0  0  0  0  0  0  0  0  0  0  0  0
    6.1963    4.9037   20.9935 O   0  0  0  0  0  0  0  0  0  0  0  0
    6.7103    5.8966   21.7748 C   0  0  0  0  0  0  0  0  0  0  0  0
    6.1075    7.2436   21.4295 C   0  0  0  0  0  0  0  0  0  0  0  0
    6.4451    8.3492   22.1582 C   0  0  0  0  0  0  0  0  0  0  0  0
    5.8777    9.5611   21.8292 C   0  0  0  0  0  0  0  0  0  0  0  0
    4.9830    9.6755   20.7862 C   0  0  0  0  0  0  0  0  0  0  0  0
    4.6484    8.5399   20.0532 C   0  0  0  0  0  0  0  0  0  0  0  0
    3.6711    8.6623   18.9167 C   0  0  0  0  0  0  0  0  0  0  0  0
    5.2213    7.3485   20.3937 C   0  0  0  0  0  0  0  0  0  0  0  0
 17 18  1  0  0  0
 18 19  1  0  0  0
 19 20  1  0  0  0
 20 21  1  0  0  0
 21 16  1  0  0  0
 16 10  1  0  0  0
 10 11  2  0  0  0
 11 12  1  0  0  0
 12 13  2  0  0  0
 13 14  1  0  0  0
 14 15  2  0  0  0
 14  1  1  0  0  0
  1  2  2  0  0  0
  2  3  1  0  0  0
  3  4  2  0  0  0
  4  5  1  0  0  0
  4  6  1  0  0  0
  6  7  2  0  0  0
  6 24  1  0  0  0
 24 25  2  0  0  0
 24 26  1  0  0  0
 26 28  1  0  0  0
 28 29  1  0  0  0
 29 30  1  0  0  0
 30 31  1  0  0  0
 31 32  1  0  0  0
 32 33  1  0  0  0
 33 34  1  0  0  0
 34 35  1  0  0  0
 35 36  2  0  0  0
 36 37  1  0  0  0
 37 38  2  0  0  0
 38 39  1  0  0  0
 39 40  1  0  0  0
 39 41  2  0  0  0
 21 22  1  0  0  0
 22 23  1  0  0  0
 23 18  1  0  0  0
 15 10  1  0  0  0
  7  1  1  0  0  0
 32 28  1  0  0  0
 41 35  1  0  0  0
  5  8  1  0  0  0
  5  9  1  0  0  0
 26 27  1  0  0  0
M  END
> <minimizedAffinity>
-9.31814

> <CNNscore>
0.6970185637

> <CNNaffinity>
7.3793764114

> <CNN_VS>
5.1435623169

> <CNNaffinity_variance>
0.2220229656

$$$$
[H]c1nc(N([H])[H])c(C(=O)N([H])[C@@]2([H])C([H])([H])C([H])([H])C([H])([H])[C@]2([H])OC([H])([H])c2c([H])c([H])c([H])c(C([H])([H])[H])c2[H])c([H])c1-c1c([H])c([H])c([H])c(C([H])([H])N2C([H])([H])C([H])([H])N(C([H])([H])[H])C([H])([H])C2([H])[H])c1[H]


 41 45  0  0  0  0  0  0  0  0999 V2000
    4.1088    2.0976   18.4161 C   0  0  0  0  0  0  0  0  0  0  0  0
    3.5990    0.8473   18.1285 C   0  0  0  0  0  0  0  0  0  0  0  0
    2.9077    0.5966   17.0044 N   0  0  0  0  0  0  0  0  0  0  0  0
    2.6767    1.5601   16.0957 C   0  0  0  0  0  0  0  0  0  0  0  0
    1.9538    1.3394   14.9061 N   0  0  0  0  0  0  0  0  0  0  0  0
    3.1714    2.8496   16.3348 C   0  0  0  0  0  0  0  0  0  0  0  0
    3.8830    3.1022   17.4959 C   0  0  0  0  0  0  0  0  0  0  0  0
    2.4730    1.0466   14.0524 H   0  0  0  0  0  0  0  0  0  0  0  0
    0.9222    1.4508   14.8202 H   0  0  0  0  0  0  0  0  0  0  0  0
    5.9484    3.8104   21.2418 C   0  0  0  0  0  0  0  0  0  0  0  0
    6.2843    2.7355   22.0370 C   0  0  0  0  0  0  0  0  0  0  0  0
    5.9141    1.4631   21.6461 C   0  0  0  0  0  0  0  0  0  0  0  0
    5.2259    1.2981   20.4854 C   0  0  0  0  0  0  0  0  0  0  0  0
    4.8653    2.3429   19.6548 C   0  0  0  0  0  0  0  0  0  0  0  0
    5.2424    3.6031   20.0589 C   0  0  0  0  0  0  0  0  0  0  0  0
    6.3521    5.1523   21.6967 C   0  0  0  0  0  0  0  0  0  0  0  0
    4.9203    9.8359   19.7803 C   0  0  0  0  0  0  0  0  0  0  0  0
    5.8633    9.1215   20.6263 N   0  0  0  0  0  0  0  0  0  0  0  0
    5.1851    8.3099   21.5993 C   0  0  0  0  0  0  0  0  0  0  0  0
    4.8980    6.9498   20.9528 C   0  0  0  0  0  0  0  0  0  0  0  0
    6.1125    6.2265   20.8040 N   0  0  0  0  0  0  0  0  0  0  0  0
    7.2345    7.0802   20.5895 C   0  0  0  0  0  0  0  0  0  0  0  0
    6.7830    8.3322   19.8428 C   0  0  0  0  0  0  0  0  0  0  0  0
    2.9098    3.8671   15.3374 C   0  0  0  0  0  0  0  0  0  0  0  0
    1.8048    4.4671   15.3188 O   0  0  0  0  0  0  0  0  0  0  0  0
    3.8420    4.2507   14.3412 N   0  0  0  0  0  0  0  0  0  0  0  0
    4.7675    3.7614   14.3392 H   0  0  0  0  0  0  0  0  0  0  0  0
    3.5474    5.2779   13.3577 C   0  0  0  0  0  0  0  0  0  0  0  0
    3.9287    6.6188   13.9377 C   0  0  0  0  0  0  0  0  0  0  0  0
    4.5374    7.4149   12.7982 C   0  0  0  0  0  0  0  0  0  0  0  0
    4.4695    6.5386   11.5604 C   0  0  0  0  0  0  0  0  0  0  0  0
    4.3709    5.1166   12.1010 C   0  0  0  0  0  0  0  0  0  0  0  0
    3.9173    4.1967   11.2293 O   0  0  0  0  0  0  0  0  0  0  0  0
    4.2237    4.3210    9.9060 C   0  0  0  0  0  0  0  0  0  0  0  0
    5.1166    3.1909    9.4341 C   0  0  0  0  0  0  0  0  0  0  0  0
    6.4465    3.4175    9.2163 C   0  0  0  0  0  0  0  0  0  0  0  0
    7.2359    2.3755    8.7803 C   0  0  0  0  0  0  0  0  0  0  0  0
    6.7107    1.1194    8.5621 C   0  0  0  0  0  0  0  0  0  0  0  0
    5.3537    0.9040    8.7879 C   0  0  0  0  0  0  0  0  0  0  0  0
    4.7786   -0.4648    8.5484 C   0  0  0  0  0  0  0  0  0  0  0  0
    4.5881    1.9483    9.2203 C   0  0  0  0  0  0  0  0  0  0  0  0
 17 18  1  0  0  0
 18 19  1  0  0  0
 19 20  1  0  0  0
 20 21  1  0  0  0
 21 16  1  0  0  0
 16 10  1  0  0  0
 10 11  2  0  0  0
 11 12  1  0  0  0
 12 13  2  0  0  0
 13 14  1  0  0  0
 14 15  2  0  0  0
 14  1  1  0  0  0
  1  2  2  0  0  0
  2  3  1  0  0  0
  3  4  2  0  0  0
  4  5  1  0  0  0
  4  6  1  0  0  0
  6  7  2  0  0  0
  6 24  1  0  0  0
 24 25  2  0  0  0
 24 26  1  0  0  0
 26 28  1  0  0  0
 28 29  1  0  0  0
 29 30  1  0  0  0
 30 31  1  0  0  0
 31 32  1  0  0  0
 32 33  1  0  0  0
 33 34  1  0  0  0
 34 35  1  0  0  0
 35 36  2  0  0  0
 36 37  1  0  0  0
 37 38  2  0  0  0
 38 39  1  0  0  0
 39 40  1  0  0  0
 39 41  2  0  0  0
 21 22  1  0  0  0
 22 23  1  0  0  0
 23 18  1  0  0  0
 15 10  1  0  0  0
  7  1  1  0  0  0
 32 28  1  0  0  0
 41 35  1  0  0  0
  5  8  1  0  0  0
  5  9  1  0  0  0
 26 27  1  0  0  0
M  END
> <minimizedAffinity>
-8.74078

> <CNNscore>
0.5592700839

> <CNNaffinity>
6.9833269119

> <CNN_VS>
3.9055657387

> <CNNaffinity_variance>
0.3420222998

$$$$
[H]c1nc(N([H])[H])c(C(=O)N([H])[C@@]2([H])C([H])([H])C([H])([H])C([H])([H])[C@]2([H])OC([H])([H])c2c([H])c([H])c([H])c(C([H])([H])[H])c2[H])c([H])c1-c1c([H])c([H])c([H])c(C([H])([H])N2C([H])([H])C([H])([H])N(C([H])([H])[H])C([H])([H])C2([H])[H])c1[H]


 41 45  0  0  0  0  0  0  0  0999 V2000
    2.7547    2.6505   14.3420 C   0  0  0  0  0  0  0  0  0  0  0  0
    2.4047    1.3986   14.8069 C   0  0  0  0  0  0  0  0  0  0  0  0
    2.7405    0.9708   16.0352 N   0  0  0  0  0  0  0  0  0  0  0  0
    3.4400    1.7484   16.8798 C   0  0  0  0  0  0  0  0  0  0  0  0
    3.8149    1.3364   18.1745 N   0  0  0  0  0  0  0  0  0  0  0  0
    3.8223    3.0303   16.4614 C   0  0  0  0  0  0  0  0  0  0  0  0
    3.4738    3.4658   15.1937 C   0  0  0  0  0  0  0  0  0  0  0  0
    3.1708    1.5341   18.9683 H   0  0  0  0  0  0  0  0  0  0  0  0
    4.7037    0.8413   18.3956 H   0  0  0  0  0  0  0  0  0  0  0  0
    2.8721    3.5641   10.6740 C   0  0  0  0  0  0  0  0  0  0  0  0
    1.5622    3.9270   10.4434 C   0  0  0  0  0  0  0  0  0  0  0  0
    0.6532    3.8760   11.4826 C   0  0  0  0  0  0  0  0  0  0  0  0
    1.0697    3.4685   12.7108 C   0  0  0  0  0  0  0  0  0  0  0  0
    2.3706    3.0941   12.9920 C   0  0  0  0  0  0  0  0  0  0  0  0
    3.2628    3.1514   11.9459 C   0  0  0  0  0  0  0  0  0  0  0  0
    3.8096    3.6224    9.5390 C   0  0  0  0  0  0  0  0  0  0  0  0
    6.3948    8.0088   10.8562 C   0  0  0  0  0  0  0  0  0  0  0  0
    6.0609    6.6481   11.2466 N   0  0  0  0  0  0  0  0  0  0  0  0
    4.6416    6.4250   11.2108 C   0  0  0  0  0  0  0  0  0  0  0  0
    4.2737    5.9936    9.7865 C   0  0  0  0  0  0  0  0  0  0  0  0
    4.7553    4.6778    9.5473 N   0  0  0  0  0  0  0  0  0  0  0  0
    5.9530    4.3946   10.2676 C   0  0  0  0  0  0  0  0  0  0  0  0
    6.7589    5.6795   10.4357 C   0  0  0  0  0  0  0  0  0  0  0  0
    4.5729    3.8471   17.3931 C   0  0  0  0  0  0  0  0  0  0  0  0
    5.6648    3.4342   17.8608 O   0  0  0  0  0  0  0  0  0  0  0  0
    4.1514    5.1259   17.8353 N   0  0  0  0  0  0  0  0  0  0  0  0
    3.2437    5.4865   17.4583 H   0  0  0  0  0  0  0  0  0  0  0  0
    4.9310    5.9196   18.7688 C   0  0  0  0  0  0  0  0  0  0  0  0
    5.3009    7.2207   18.0976 C   0  0  0  0  0  0  0  0  0  0  0  0
    5.1873    8.2941   19.1642 C   0  0  0  0  0  0  0  0  0  0  0  0
    4.7870    7.5974   20.4522 C   0  0  0  0  0  0  0  0  0  0  0  0
    4.1377    6.2947   19.9990 C   0  0  0  0  0  0  0  0  0  0  0  0
    4.0464    5.3362   20.9397 O   0  0  0  0  0  0  0  0  0  0  0  0
    5.1821    4.8789   21.5410 C   0  0  0  0  0  0  0  0  0  0  0  0
    5.2402    3.3645   21.5396 C   0  0  0  0  0  0  0  0  0  0  0  0
    6.4494    2.7280   21.5299 C   0  0  0  0  0  0  0  0  0  0  0  0
    6.4757    1.3503   21.5214 C   0  0  0  0  0  0  0  0  0  0  0  0
    5.3123    0.6100   21.5225 C   0  0  0  0  0  0  0  0  0  0  0  0
    4.0878    1.2727   21.5318 C   0  0  0  0  0  0  0  0  0  0  0  0
    2.8179    0.4670   21.5308 C   0  0  0  0  0  0  0  0  0  0  0  0
    4.0821    2.6378   21.5409 C   0  0  0  0  0  0  0  0  0  0  0  0
 17 18  1  0  0  0
 18 19  1  0  0  0
 19 20  1  0  0  0
 20 21  1  0  0  0
 21 16  1  0  0  0
 16 10  1  0  0  0
 10 11  2  0  0  0
 11 12  1  0  0  0
 12 13  2  0  0  0
 13 14  1  0  0  0
 14 15  2  0  0  0
 14  1  1  0  0  0
  1  2  2  0  0  0
  2  3  1  0  0  0
  3  4  2  0  0  0
  4  5  1  0  0  0
  4  6  1  0  0  0
  6  7  2  0  0  0
  6 24  1  0  0  0
 24 25  2  0  0  0
 24 26  1  0  0  0
 26 28  1  0  0  0
 28 29  1  0  0  0
 29 30  1  0  0  0
 30 31  1  0  0  0
 31 32  1  0  0  0
 32 33  1  0  0  0
 33 34  1  0  0  0
 34 35  1  0  0  0
 35 36  2  0  0  0
 36 37  1  0  0  0
 37 38  2  0  0  0
 38 39  1  0  0  0
 39 40  1  0  0  0
 39 41  2  0  0  0
 21 22  1  0  0  0
 22 23  1  0  0  0
 23 18  1  0  0  0
 15 10  1  0  0  0
  7  1  1  0  0  0
 32 28  1  0  0  0
 41 35  1  0  0  0
  5  8  1  0  0  0
  5  9  1  0  0  0
 26 27  1  0  0  0
M  END
> <minimizedAffinity>
-8.19503

> <CNNscore>
0.5238484144

> <CNNaffinity>
7.0030150414

> <CNN_VS>
3.6685183048

> <CNNaffinity_variance>
0.1176801547

$$$$
[H]c1nc(N([H])[H])c(C(=O)N([H])[C@@]2([H])C([H])([H])C([H])([H])C([H])([H])[C@]2([H])OC([H])([H])c2c([H])c([H])c([H])c(C([H])([H])[H])c2[H])c([H])c1-c1c([H])c([H])c([H])c(C([H])([H])N2C([H])([H])C([H])([H])N(C([H])([H])[H])C([H])([H])C2([H])[H])c1[H]


 41 45  0  0  0  0  0  0  0  0999 V2000
    4.1937    2.3716   18.5515 C   0  0  0  0  0  0  0  0  0  0  0  0
    3.8165    1.1822   17.9604 C   0  0  0  0  0  0  0  0  0  0  0  0
    3.1278    1.1417   16.8078 N   0  0  0  0  0  0  0  0  0  0  0  0
    2.7692    2.2679   16.1672 C   0  0  0  0  0  0  0  0  0  0  0  0
    2.0441    2.2689   14.9586 N   0  0  0  0  0  0  0  0  0  0  0  0
    3.1257    3.5052   16.7210 C   0  0  0  0  0  0  0  0  0  0  0  0
    3.8353    3.5408   17.9099 C   0  0  0  0  0  0  0  0  0  0  0  0
    2.5699    2.2570   14.0600 H   0  0  0  0  0  0  0  0  0  0  0  0
    1.0047    2.2812   14.9009 H   0  0  0  0  0  0  0  0  0  0  0  0
    5.9350    3.5310   21.7020 C   0  0  0  0  0  0  0  0  0  0  0  0
    6.3775    2.3338   22.2229 C   0  0  0  0  0  0  0  0  0  0  0  0
    6.1102    1.1606   21.5439 C   0  0  0  0  0  0  0  0  0  0  0  0
    5.4158    1.2118   20.3763 C   0  0  0  0  0  0  0  0  0  0  0  0
    4.9506    2.3859   19.8138 C   0  0  0  0  0  0  0  0  0  0  0  0
    5.2261    3.5448   20.5028 C   0  0  0  0  0  0  0  0  0  0  0  0
    6.2310    4.7595   22.4595 C   0  0  0  0  0  0  0  0  0  0  0  0
    8.1343    9.4616   21.0716 C   0  0  0  0  0  0  0  0  0  0  0  0
    8.1529    8.4057   22.0716 N   0  0  0  0  0  0  0  0  0  0  0  0
    6.8249    8.0741   22.5098 C   0  0  0  0  0  0  0  0  0  0  0  0
    6.2703    7.0124   21.5529 C   0  0  0  0  0  0  0  0  0  0  0  0
    6.9384    5.7770   21.7722 N   0  0  0  0  0  0  0  0  0  0  0  0
    8.2874    5.9533   22.1999 C   0  0  0  0  0  0  0  0  0  0  0  0
    8.8481    7.2356   21.5915 C   0  0  0  0  0  0  0  0  0  0  0  0
    2.7284    4.7019   16.0079 C   0  0  0  0  0  0  0  0  0  0  0  0
    1.5767    5.1813   16.1665 O   0  0  0  0  0  0  0  0  0  0  0  0
    3.5732    5.3992   15.1086 N   0  0  0  0  0  0  0  0  0  0  0  0
    4.5358    5.0146   14.9618 H   0  0  0  0  0  0  0  0  0  0  0  0
    3.1429    6.5988   14.4122 C   0  0  0  0  0  0  0  0  0  0  0  0
    4.2377    7.6331   14.5199 C   0  0  0  0  0  0  0  0  0  0  0  0
    4.2876    8.3377   13.1768 C   0  0  0  0  0  0  0  0  0  0  0  0
    3.1959    7.7276   12.3163 C   0  0  0  0  0  0  0  0  0  0  0  0
    2.9395    6.3578   12.9343 C   0  0  0  0  0  0  0  0  0  0  0  0
    1.7693    5.7826   12.6003 O   0  0  0  0  0  0  0  0  0  0  0  0
    0.6030    6.3307   13.0474 C   0  0  0  0  0  0  0  0  0  0  0  0
   -0.5277    6.1105   12.0625 C   0  0  0  0  0  0  0  0  0  0  0  0
   -1.7606    5.7303   12.5129 C   0  0  0  0  0  0  0  0  0  0  0  0
   -2.7702    5.5293   11.5969 C   0  0  0  0  0  0  0  0  0  0  0  0
   -2.5589    5.7037   10.2455 C   0  0  0  0  0  0  0  0  0  0  0  0
   -1.2971    6.0907    9.8017 C   0  0  0  0  0  0  0  0  0  0  0  0
   -1.0640    6.2794    8.3279 C   0  0  0  0  0  0  0  0  0  0  0  0
   -0.3099    6.2857   10.7242 C   0  0  0  0  0  0  0  0  0  0  0  0
 17 18  1  0  0  0
 18 19  1  0  0  0
 19 20  1  0  0  0
 20 21  1  0  0  0
 21 16  1  0  0  0
 16 10  1  0  0  0
 10 11  2  0  0  0
 11 12  1  0  0  0
 12 13  2  0  0  0
 13 14  1  0  0  0
 14 15  2  0  0  0
 14  1  1  0  0  0
  1  2  2  0  0  0
  2  3  1  0  0  0
  3  4  2  0  0  0
  4  5  1  0  0  0
  4  6  1  0  0  0
  6  7  2  0  0  0
  6 24  1  0  0  0
 24 25  2  0  0  0
 24 26  1  0  0  0
 26 28  1  0  0  0
 28 29  1  0  0  0
 29 30  1  0  0  0
 30 31  1  0  0  0
 31 32  1  0  0  0
 32 33  1  0  0  0
 33 34  1  0  0  0
 34 35  1  0  0  0
 35 36  2  0  0  0
 36 37  1  0  0  0
 37 38  2  0  0  0
 38 39  1  0  0  0
 39 40  1  0  0  0
 39 41  2  0  0  0
 21 22  1  0  0  0
 22 23  1  0  0  0
 23 18  1  0  0  0
 15 10  1  0  0  0
  7  1  1  0  0  0
 32 28  1  0  0  0
 41 35  1  0  0  0
  5  8  1  0  0  0
  5  9  1  0  0  0
 26 27  1  0  0  0
M  END
> <minimizedAffinity>
-8.75623

> <CNNscore>
0.4725795090

> <CNNaffinity>
6.7282838821

> <CNN_VS>
3.1796491146

> <CNNaffinity_variance>
0.4926687777

$$$$
[H]c1nc(N([H])[H])c(C(=O)N([H])[C@@]2([H])C([H])([H])C([H])([H])C([H])([H])[C@]2([H])OC([H])([H])c2c([H])c([H])c([H])c(C([H])([H])[H])c2[H])c([H])c1-c1c([H])c([H])c([H])c(C([H])([H])N2C([H])([H])C([H])([H])N(C([H])([H])[H])C([H])([H])C2([H])[H])c1[H]


 41 45  0  0  0  0  0  0  0  0999 V2000
    4.1806    2.3862   18.4285 C   0  0  0  0  0  0  0  0  0  0  0  0
    3.7700    1.2145   17.8248 C   0  0  0  0  0  0  0  0  0  0  0  0
    3.1172    1.2040   16.6508 N   0  0  0  0  0  0  0  0  0  0  0  0
    2.8295    2.3447   16.0002 C   0  0  0  0  0  0  0  0  0  0  0  0
    2.1439    2.3772   14.7691 N   0  0  0  0  0  0  0  0  0  0  0  0
    3.2227    3.5652   16.5661 C   0  0  0  0  0  0  0  0  0  0  0  0
    3.8950    3.5699   17.7770 C   0  0  0  0  0  0  0  0  0  0  0  0
    2.6969    2.3416   13.8877 H   0  0  0  0  0  0  0  0  0  0  0  0
    1.1084    2.4356   14.6785 H   0  0  0  0  0  0  0  0  0  0  0  0
    5.9549    3.4719   21.5870 C   0  0  0  0  0  0  0  0  0  0  0  0
    6.2371    2.2552   22.1707 C   0  0  0  0  0  0  0  0  0  0  0  0
    5.8526    1.0926   21.5310 C   0  0  0  0  0  0  0  0  0  0  0  0
    5.2034    1.1731   20.3393 C   0  0  0  0  0  0  0  0  0  0  0  0
    4.8970    2.3676   19.7143 C   0  0  0  0  0  0  0  0  0  0  0  0
    5.2877    3.5156   20.3648 C   0  0  0  0  0  0  0  0  0  0  0  0
    6.3721    4.6895   22.3039 C   0  0  0  0  0  0  0  0  0  0  0  0
    7.2277    9.5949   20.6115 C   0  0  0  0  0  0  0  0  0  0  0  0
    7.5779    8.5869   21.5998 N   0  0  0  0  0  0  0  0  0  0  0  0
    6.4086    8.0565   22.2457 C   0  0  0  0  0  0  0  0  0  0  0  0
    5.8946    6.8902   21.3939 C   0  0  0  0  0  0  0  0  0  0  0  0
    6.7843    5.7875   21.5084 N   0  0  0  0  0  0  0  0  0  0  0  0
    8.1355    6.1943   21.7145 C   0  0  0  0  0  0  0  0  0  0  0  0
    8.3734    7.5318   21.0194 C   0  0  0  0  0  0  0  0  0  0  0  0
    2.9018    4.7780   15.8418 C   0  0  0  0  0  0  0  0  0  0  0  0
    1.7105    5.1736   15.7645 O   0  0  0  0  0  0  0  0  0  0  0  0
    3.8675    5.5826   15.1871 N   0  0  0  0  0  0  0  0  0  0  0  0
    4.8649    5.2689   15.2387 H   0  0  0  0  0  0  0  0  0  0  0  0
    3.5105    6.7952   14.4719 C   0  0  0  0  0  0  0  0  0  0  0  0
    4.5100    7.8705   14.8249 C   0  0  0  0  0  0  0  0  0  0  0  0
    4.7703    8.6428   13.5449 C   0  0  0  0  0  0  0  0  0  0  0  0
    3.8906    8.0285   12.4708 C   0  0  0  0  0  0  0  0  0  0  0  0
    3.5972    6.6195   12.9735 C   0  0  0  0  0  0  0  0  0  0  0  0
    2.5413    6.0102   12.4030 O   0  0  0  0  0  0  0  0  0  0  0  0
    1.7106    6.7292   11.5947 C   0  0  0  0  0  0  0  0  0  0  0  0
    0.2603    6.5675   12.0039 C   0  0  0  0  0  0  0  0  0  0  0  0
   -0.1334    6.9033   13.2687 C   0  0  0  0  0  0  0  0  0  0  0  0
   -1.4562    6.7401   13.6187 C   0  0  0  0  0  0  0  0  0  0  0  0
   -2.3807    6.2480   12.7219 C   0  0  0  0  0  0  0  0  0  0  0  0
   -1.9644    5.9096   11.4369 C   0  0  0  0  0  0  0  0  0  0  0  0
   -2.9709    5.3706   10.4581 C   0  0  0  0  0  0  0  0  0  0  0  0
   -0.6502    6.0789   11.1086 C   0  0  0  0  0  0  0  0  0  0  0  0
 17 18  1  0  0  0
 18 19  1  0  0  0
 19 20  1  0  0  0
 20 21  1  0  0  0
 21 16  1  0  0  0
 16 10  1  0  0  0
 10 11  2  0  0  0
 11 12  1  0  0  0
 12 13  2  0  0  0
 13 14  1  0  0  0
 14 15  2  0  0  0
 14  1  1  0  0  0
  1  2  2  0  0  0
  2  3  1  0  0  0
  3  4  2  0  0  0
  4  5  1  0  0  0
  4  6  1  0  0  0
  6  7  2  0  0  0
  6 24  1  0  0  0
 24 25  2  0  0  0
 24 26  1  0  0  0
 26 28  1  0  0  0
 28 29  1  0  0  0
 29 30  1  0  0  0
 30 31  1  0  0  0
 31 32  1  0  0  0
 32 33  1  0  0  0
 33 34  1  0  0  0
 34 35  1  0  0  0
 35 36  2  0  0  0
 36 37  1  0  0  0
 37 38  2  0  0  0
 38 39  1  0  0  0
 39 40  1  0  0  0
 39 41  2  0  0  0
 21 22  1  0  0  0
 22 23  1  0  0  0
 23 18  1  0  0  0
 15 10  1  0  0  0
  7  1  1  0  0  0
 32 28  1  0  0  0
 41 35  1  0  0  0
  5  8  1  0  0  0
  5  9  1  0  0  0
 26 27  1  0  0  0
M  END
> <minimizedAffinity>
-9.08973

> <CNNscore>
0.4674732983

> <CNNaffinity>
6.7639207840

> <CNN_VS>
3.1619522572

> <CNNaffinity_variance>
0.4843646586

$$$$
[H]OC1([H])C([H])([H])C([H])([H])C([H])(n2c([H])c(-c3c([H])c([H])c(N([H])C4([H])C([H])([H])C([H])([H])N([H])C([H])([H])C4([H])[H])c([H])c3[H])c3c([H])nc(N([H])C([H])([H])C([H])([H])C([H])([H])C([H])([H])[H])nc32)C([H])([H])C1([H])[H]


 38 42  0  0  0  0  0  0  0  0999 V2000
    3.0238    0.2030   18.6878 C   0  0  0  0  0  0  0  0  0  0  0  0
    2.4299   -0.1368   17.5350 N   0  0  0  0  0  0  0  0  0  0  0  0
    2.5038    0.5850   16.4160 C   0  0  0  0  0  0  0  0  0  0  0  0
    3.2348    1.7671   16.4154 C   0  0  0  0  0  0  0  0  0  0  0  0
    3.5241    2.7291   15.5104 C   0  0  0  0  0  0  0  0  0  0  0  0
    4.3172    3.6792   16.1292 C   0  0  0  0  0  0  0  0  0  0  0  0
    4.4896    3.2609   17.4138 N   0  0  0  0  0  0  0  0  0  0  0  0
    3.8466    2.1138   17.6066 C   0  0  0  0  0  0  0  0  0  0  0  0
    3.7495    1.3641   18.7072 N   0  0  0  0  0  0  0  0  0  0  0  0
    5.2773    4.0589   18.3044 C   0  0  0  0  0  0  0  0  0  0  0  0
    5.0079    3.4981   19.7058 C   0  0  0  0  0  0  0  0  0  0  0  0
    5.3625    4.4833   20.7851 C   0  0  0  0  0  0  0  0  0  0  0  0
    4.5441    5.7579   20.7131 C   0  0  0  0  0  0  0  0  0  0  0  0
    3.5799    5.8190   21.6954 O   0  0  0  0  0  0  0  0  0  0  0  0
    3.9435    5.8641   19.3030 C   0  0  0  0  0  0  0  0  0  0  0  0
    5.0563    5.5064   18.3287 C   0  0  0  0  0  0  0  0  0  0  0  0
    3.2674    6.7769   21.7091 H   0  0  0  0  0  0  0  0  0  0  0  0
    3.0616    2.7603   14.1087 C   0  0  0  0  0  0  0  0  0  0  0  0
    3.6600    3.5760   13.1843 C   0  0  0  0  0  0  0  0  0  0  0  0
    3.2022    3.6148   11.8681 C   0  0  0  0  0  0  0  0  0  0  0  0
    2.1441    2.8457   11.4422 C   0  0  0  0  0  0  0  0  0  0  0  0
    1.5153    1.9982   12.3786 C   0  0  0  0  0  0  0  0  0  0  0  0
    2.0050    1.9982   13.6641 C   0  0  0  0  0  0  0  0  0  0  0  0
    1.5797    2.8335   10.1571 N   0  0  0  0  0  0  0  0  0  0  0  0
    2.2359    3.1339    9.3347 H   0  0  0  0  0  0  0  0  0  0  0  0
    0.2757    2.5113    9.7439 C   0  0  0  0  0  0  0  0  0  0  0  0
    0.2045    1.7347    8.4730 C   0  0  0  0  0  0  0  0  0  0  0  0
   -1.2660    1.2224    8.4100 C   0  0  0  0  0  0  0  0  0  0  0  0
   -2.0388    2.4205    8.1355 N   0  0  0  0  0  0  0  0  0  0  0  0
   -2.0442    3.2420    9.3184 C   0  0  0  0  0  0  0  0  0  0  0  0
   -0.6422    3.7364    9.6555 C   0  0  0  0  0  0  0  0  0  0  0  0
   -3.0161    2.2194    7.8584 H   0  0  0  0  0  0  0  0  0  0  0  0
    2.8962   -0.5886   19.8372 N   0  0  0  0  0  0  0  0  0  0  0  0
    3.0011   -1.6297   19.7358 H   0  0  0  0  0  0  0  0  0  0  0  0
    2.6314   -0.0633   21.1417 C   0  0  0  0  0  0  0  0  0  0  0  0
    3.8464    0.4314   21.8703 C   0  0  0  0  0  0  0  0  0  0  0  0
    4.6356    2.0480   23.6380 C   0  0  0  0  0  0  0  0  0  0  0  0
    3.5776    1.7230   22.6241 C   0  0  0  0  0  0  0  0  0  0  0  0
 37 38  1  0  0  0
 38 36  1  0  0  0
 36 35  1  0  0  0
 35 33  1  0  0  0
 33  1  1  0  0  0
  1  2  2  0  0  0
  2  3  1  0  0  0
  3  4  2  0  0  0
  4  5  1  0  0  0
  5  6  2  0  0  0
  6  7  1  0  0  0
  7 10  1  0  0  0
 10 11  1  0  0  0
 11 12  1  0  0  0
 12 13  1  0  0  0
 13 14  1  0  0  0
 13 15  1  0  0  0
 15 16  1  0  0  0
  7  8  1  0  0  0
  8  9  2  0  0  0
  5 18  1  0  0  0
 18 19  2  0  0  0
 19 20  1  0  0  0
 20 21  2  0  0  0
 21 24  1  0  0  0
 24 26  1  0  0  0
 26 27  1  0  0  0
 27 28  1  0  0  0
 28 29  1  0  0  0
 29 30  1  0  0  0
 30 31  1  0  0  0
 21 22  1  0  0  0
 22 23  2  0  0  0
  9  1  1  0  0  0
 23 18  1  0  0  0
  8  4  1  0  0  0
 31 26  1  0  0  0
 16 10  1  0  0  0
 33 34  1  0  0  0
 14 17  1  0  0  0
 24 25  1  0  0  0
 29 32  1  0  0  0
M  END
> <minimizedAffinity>
-8.76274

> <CNNscore>
0.9652860165

> <CNNaffinity>
7.4825448990

> <CNN_VS>
7.2227959633

> <CNNaffinity_variance>
0.0970505625

$$$$
[H]OC1([H])C([H])([H])C([H])([H])C([H])(n2c([H])c(-c3c([H])c([H])c(N([H])C4([H])C([H])([H])C([H])([H])N([H])C([H])([H])C4([H])[H])c([H])c3[H])c3c([H])nc(N([H])C([H])([H])C([H])([H])C([H])([H])C([H])([H])[H])nc32)C([H])([H])C1([H])[H]


 38 42  0  0  0  0  0  0  0  0999 V2000
    3.0244    0.2588   18.6166 C   0  0  0  0  0  0  0  0  0  0  0  0
    2.4826   -0.0609   17.4327 N   0  0  0  0  0  0  0  0  0  0  0  0
    2.6074    0.6792   16.3303 C   0  0  0  0  0  0  0  0  0  0  0  0
    3.3387    1.8600   16.3822 C   0  0  0  0  0  0  0  0  0  0  0  0
    3.6693    2.8363   15.5073 C   0  0  0  0  0  0  0  0  0  0  0  0
    4.4346    3.7748   16.1767 C   0  0  0  0  0  0  0  0  0  0  0  0
    4.5486    3.3350   17.4607 N   0  0  0  0  0  0  0  0  0  0  0  0
    3.8966    2.1859   17.6053 C   0  0  0  0  0  0  0  0  0  0  0  0
    3.7495    1.4182   18.6878 N   0  0  0  0  0  0  0  0  0  0  0  0
    5.2962    4.1169   18.3989 C   0  0  0  0  0  0  0  0  0  0  0  0
    5.0133    3.4934   19.7709 C   0  0  0  0  0  0  0  0  0  0  0  0
    5.3192    4.4435   20.8957 C   0  0  0  0  0  0  0  0  0  0  0  0
    4.4685    5.6982   20.8566 C   0  0  0  0  0  0  0  0  0  0  0  0
    3.4830    5.6947   21.8196 O   0  0  0  0  0  0  0  0  0  0  0  0
    3.8942    5.8452   19.4392 C   0  0  0  0  0  0  0  0  0  0  0  0
    5.0360    5.5560   18.4757 C   0  0  0  0  0  0  0  0  0  0  0  0
    3.1447    6.6428   21.8644 H   0  0  0  0  0  0  0  0  0  0  0  0
    3.2703    2.8915   14.0869 C   0  0  0  0  0  0  0  0  0  0  0  0
    3.8036    3.8260   13.2381 C   0  0  0  0  0  0  0  0  0  0  0  0
    3.4044    3.8843   11.9036 C   0  0  0  0  0  0  0  0  0  0  0  0
    2.4708    3.0177   11.3843 C   0  0  0  0  0  0  0  0  0  0  0  0
    1.9109    2.0472   12.2418 C   0  0  0  0  0  0  0  0  0  0  0  0
    2.3381    2.0331   13.5493 C   0  0  0  0  0  0  0  0  0  0  0  0
    1.9710    3.0107   10.0726 N   0  0  0  0  0  0  0  0  0  0  0  0
    0.9534    2.6305    9.9417 H   0  0  0  0  0  0  0  0  0  0  0  0
    2.5820    3.4013    8.8689 C   0  0  0  0  0  0  0  0  0  0  0  0
    1.6714    4.0880    7.9083 C   0  0  0  0  0  0  0  0  0  0  0  0
    2.6238    4.7055    6.8403 C   0  0  0  0  0  0  0  0  0  0  0  0
    3.1110    3.5535    6.1032 N   0  0  0  0  0  0  0  0  0  0  0  0
    4.0200    2.8218    6.9471 C   0  0  0  0  0  0  0  0  0  0  0  0
    3.3045    2.2469    8.1641 C   0  0  0  0  0  0  0  0  0  0  0  0
    3.5957    3.8084    5.2243 H   0  0  0  0  0  0  0  0  0  0  0  0
    2.8445   -0.5515   19.7458 N   0  0  0  0  0  0  0  0  0  0  0  0
    2.9223   -1.5930   19.6255 H   0  0  0  0  0  0  0  0  0  0  0  0
    2.5613   -0.0448   21.0538 C   0  0  0  0  0  0  0  0  0  0  0  0
    3.7717    0.3895   21.8270 C   0  0  0  0  0  0  0  0  0  0  0  0
    4.6069    1.9738   23.6029 C   0  0  0  0  0  0  0  0  0  0  0  0
    3.5258    1.6701   22.6069 C   0  0  0  0  0  0  0  0  0  0  0  0
 37 38  1  0  0  0
 38 36  1  0  0  0
 36 35  1  0  0  0
 35 33  1  0  0  0
 33  1  1  0  0  0
  1  2  2  0  0  0
  2  3  1  0  0  0
  3  4  2  0  0  0
  4  5  1  0  0  0
  5  6  2  0  0  0
  6  7  1  0  0  0
  7 10  1  0  0  0
 10 11  1  0  0  0
 11 12  1  0  0  0
 12 13  1  0  0  0
 13 14  1  0  0  0
 13 15  1  0  0  0
 15 16  1  0  0  0
  7  8  1  0  0  0
  8  9  2  0  0  0
  5 18  1  0  0  0
 18 19  2  0  0  0
 19 20  1  0  0  0
 20 21  2  0  0  0
 21 24  1  0  0  0
 24 26  1  0  0  0
 26 27  1  0  0  0
 27 28  1  0  0  0
 28 29  1  0  0  0
 29 30  1  0  0  0
 30 31  1  0  0  0
 21 22  1  0  0  0
 22 23  2  0  0  0
  9  1  1  0  0  0
 23 18  1  0  0  0
  8  4  1  0  0  0
 31 26  1  0  0  0
 16 10  1  0  0  0
 33 34  1  0  0  0
 14 17  1  0  0  0
 24 25  1  0  0  0
 29 32  1  0  0  0
M  END
> <minimizedAffinity>
-8.51934

> <CNNscore>
0.9449597001

> <CNNaffinity>
7.3970961571

> <CNN_VS>
6.9899578094

> <CNNaffinity_variance>
0.1584935188

$$$$
[H]OC1([H])C([H])([H])C([H])([H])C([H])(n2c([H])c(-c3c([H])c([H])c(N([H])C4([H])C([H])([H])C([H])([H])N([H])C([H])([H])C4([H])[H])c([H])c3[H])c3c([H])nc(N([H])C([H])([H])C([H])([H])C([H])([H])C([H])([H])[H])nc32)C([H])([H])C1([H])[H]


 38 42  0  0  0  0  0  0  0  0999 V2000
    4.1145    1.6306   18.2063 C   0  0  0  0  0  0  0  0  0  0  0  0
    3.4230    0.9291   17.2970 N   0  0  0  0  0  0  0  0  0  0  0  0
    3.0166    1.4211   16.1259 C   0  0  0  0  0  0  0  0  0  0  0  0
    3.3141    2.7394   15.8012 C   0  0  0  0  0  0  0  0  0  0  0  0
    3.0766    3.5579   14.7516 C   0  0  0  0  0  0  0  0  0  0  0  0
    3.6408    4.7906   15.0293 C   0  0  0  0  0  0  0  0  0  0  0  0
    4.2138    4.6843   16.2603 N   0  0  0  0  0  0  0  0  0  0  0  0
    4.0283    3.4595   16.7419 C   0  0  0  0  0  0  0  0  0  0  0  0
    4.4182    2.9312   17.9045 N   0  0  0  0  0  0  0  0  0  0  0  0
    4.8807    5.8228   16.8166 C   0  0  0  0  0  0  0  0  0  0  0  0
    6.0377    5.2556   17.6477 C   0  0  0  0  0  0  0  0  0  0  0  0
    6.5416    6.2452   18.6616 C   0  0  0  0  0  0  0  0  0  0  0  0
    5.4877    6.6363   19.6794 C   0  0  0  0  0  0  0  0  0  0  0  0
    5.7032    6.0532   20.9090 O   0  0  0  0  0  0  0  0  0  0  0  0
    4.1083    6.2818   19.1029 C   0  0  0  0  0  0  0  0  0  0  0  0
    4.1110    6.7455   17.6536 C   0  0  0  0  0  0  0  0  0  0  0  0
    5.1101    6.5519   21.5531 H   0  0  0  0  0  0  0  0  0  0  0  0
    2.3337    3.1964   13.5281 C   0  0  0  0  0  0  0  0  0  0  0  0
    1.2188    3.8952   13.1450 C   0  0  0  0  0  0  0  0  0  0  0  0
    0.5112    3.5327   11.9998 C   0  0  0  0  0  0  0  0  0  0  0  0
    0.8950    2.4724   11.2118 C   0  0  0  0  0  0  0  0  0  0  0  0
    2.0412    1.7411   11.5886 C   0  0  0  0  0  0  0  0  0  0  0  0
    2.7024    2.1392   12.7273 C   0  0  0  0  0  0  0  0  0  0  0  0
    0.2389    1.9992   10.0647 N   0  0  0  0  0  0  0  0  0  0  0  0
   -0.2465    2.7521    9.4364 H   0  0  0  0  0  0  0  0  0  0  0  0
    0.0813    0.6864    9.5885 C   0  0  0  0  0  0  0  0  0  0  0  0
    1.0887    0.2737    8.5695 C   0  0  0  0  0  0  0  0  0  0  0  0
    0.9202   -1.2716    8.4570 C   0  0  0  0  0  0  0  0  0  0  0  0
   -0.3537   -1.4327    7.7797 N   0  0  0  0  0  0  0  0  0  0  0  0
   -1.4063   -1.0691    8.6928 C   0  0  0  0  0  0  0  0  0  0  0  0
   -1.3321    0.4077    9.0633 C   0  0  0  0  0  0  0  0  0  0  0  0
   -0.5161   -2.3986    7.4432 H   0  0  0  0  0  0  0  0  0  0  0  0
    4.5002    1.0634   19.4285 N   0  0  0  0  0  0  0  0  0  0  0  0
    5.3286    0.4160   19.4346 H   0  0  0  0  0  0  0  0  0  0  0  0
    3.8330    1.3136   20.6695 C   0  0  0  0  0  0  0  0  0  0  0  0
    4.2856    2.5563   21.3784 C   0  0  0  0  0  0  0  0  0  0  0  0
    6.4969    1.6690   22.2054 C   0  0  0  0  0  0  0  0  0  0  0  0
    5.7979    2.7028   21.3714 C   0  0  0  0  0  0  0  0  0  0  0  0
 37 38  1  0  0  0
 38 36  1  0  0  0
 36 35  1  0  0  0
 35 33  1  0  0  0
 33  1  1  0  0  0
  1  2  2  0  0  0
  2  3  1  0  0  0
  3  4  2  0  0  0
  4  5  1  0  0  0
  5  6  2  0  0  0
  6  7  1  0  0  0
  7 10  1  0  0  0
 10 11  1  0  0  0
 11 12  1  0  0  0
 12 13  1  0  0  0
 13 14  1  0  0  0
 13 15  1  0  0  0
 15 16  1  0  0  0
  7  8  1  0  0  0
  8  9  2  0  0  0
  5 18  1  0  0  0
 18 19  2  0  0  0
 19 20  1  0  0  0
 20 21  2  0  0  0
 21 24  1  0  0  0
 24 26  1  0  0  0
 26 27  1  0  0  0
 27 28  1  0  0  0
 28 29  1  0  0  0
 29 30  1  0  0  0
 30 31  1  0  0  0
 21 22  1  0  0  0
 22 23  2  0  0  0
  9  1  1  0  0  0
 23 18  1  0  0  0
  8  4  1  0  0  0
 31 26  1  0  0  0
 16 10  1  0  0  0
 33 34  1  0  0  0
 14 17  1  0  0  0
 24 25  1  0  0  0
 29 32  1  0  0  0
M  END
> <minimizedAffinity>
-7.35553

> <CNNscore>
0.6059933901

> <CNNaffinity>
7.0163407326

> <CNN_VS>
4.2518563271

> <CNNaffinity_variance>
0.3097102940

$$$$
[H]OC1([H])C([H])([H])C([H])([H])C([H])(n2c([H])c(-c3c([H])c([H])c(N([H])C4([H])C([H])([H])C([H])([H])N([H])C([H])([H])C4([H])[H])c([H])c3[H])c3c([H])nc(N([H])C([H])([H])C([H])([H])C([H])([H])C([H])([H])[H])nc32)C([H])([H])C1([H])[H]


 38 42  0  0  0  0  0  0  0  0999 V2000
    4.2083    1.4244   19.9113 C   0  0  0  0  0  0  0  0  0  0  0  0
    3.6491    0.7619   18.8888 N   0  0  0  0  0  0  0  0  0  0  0  0
    3.4819    1.2748   17.6691 C   0  0  0  0  0  0  0  0  0  0  0  0
    3.9039    2.5741   17.4132 C   0  0  0  0  0  0  0  0  0  0  0  0
    3.8994    3.4037   16.3456 C   0  0  0  0  0  0  0  0  0  0  0  0
    4.4732    4.6032   16.7287 C   0  0  0  0  0  0  0  0  0  0  0  0
    4.8150    4.4662   18.0399 N   0  0  0  0  0  0  0  0  0  0  0  0
    4.4808    3.2540   18.4707 C   0  0  0  0  0  0  0  0  0  0  0  0
    4.6314    2.7058   19.6788 N   0  0  0  0  0  0  0  0  0  0  0  0
    5.4359    5.5661   18.7144 C   0  0  0  0  0  0  0  0  0  0  0  0
    4.4970    5.9199   19.8739 C   0  0  0  0  0  0  0  0  0  0  0  0
    4.7355    7.3130   20.3874 C   0  0  0  0  0  0  0  0  0  0  0  0
    4.4790    8.3800   19.3408 C   0  0  0  0  0  0  0  0  0  0  0  0
    3.3005    9.0591   19.5611 O   0  0  0  0  0  0  0  0  0  0  0  0
    4.5146    7.7137   17.9569 C   0  0  0  0  0  0  0  0  0  0  0  0
    5.7197    6.7845   17.9530 C   0  0  0  0  0  0  0  0  0  0  0  0
    3.3451    9.8766   18.9736 H   0  0  0  0  0  0  0  0  0  0  0  0
    3.3635    3.0831   15.0078 C   0  0  0  0  0  0  0  0  0  0  0  0
    3.8167    3.7333   13.8898 C   0  0  0  0  0  0  0  0  0  0  0  0
    3.2891    3.4391   12.6334 C   0  0  0  0  0  0  0  0  0  0  0  0
    2.3037    2.4949   12.4602 C   0  0  0  0  0  0  0  0  0  0  0  0
    1.8247    1.8134   13.5989 C   0  0  0  0  0  0  0  0  0  0  0  0
    2.3779    2.1418   14.8148 C   0  0  0  0  0  0  0  0  0  0  0  0
    1.6778    2.1474   11.2528 N   0  0  0  0  0  0  0  0  0  0  0  0
    2.0654    1.2614   10.7413 H   0  0  0  0  0  0  0  0  0  0  0  0
    0.6245    2.7748   10.5658 C   0  0  0  0  0  0  0  0  0  0  0  0
    0.9401    3.1452    9.1564 C   0  0  0  0  0  0  0  0  0  0  0  0
   -0.4411    3.4975    8.5263 C   0  0  0  0  0  0  0  0  0  0  0  0
   -0.7957    4.7586    9.1518 N   0  0  0  0  0  0  0  0  0  0  0  0
   -1.1352    4.5066   10.5285 C   0  0  0  0  0  0  0  0  0  0  0  0
    0.0687    3.9945   11.3108 C   0  0  0  0  0  0  0  0  0  0  0  0
   -1.5910    5.2330    8.6884 H   0  0  0  0  0  0  0  0  0  0  0  0
    4.3421    0.8377   21.1769 N   0  0  0  0  0  0  0  0  0  0  0  0
    5.1312    0.1595   21.3275 H   0  0  0  0  0  0  0  0  0  0  0  0
    3.4678    1.1073   22.2773 C   0  0  0  0  0  0  0  0  0  0  0  0
    4.1520    1.6595   23.4932 C   0  0  0  0  0  0  0  0  0  0  0  0
    3.6340    4.1246   23.3665 C   0  0  0  0  0  0  0  0  0  0  0  0
    4.6891    3.0621   23.2627 C   0  0  0  0  0  0  0  0  0  0  0  0
 37 38  1  0  0  0
 38 36  1  0  0  0
 36 35  1  0  0  0
 35 33  1  0  0  0
 33  1  1  0  0  0
  1  2  2  0  0  0
  2  3  1  0  0  0
  3  4  2  0  0  0
  4  5  1  0  0  0
  5  6  2  0  0  0
  6  7  1  0  0  0
  7 10  1  0  0  0
 10 11  1  0  0  0
 11 12  1  0  0  0
 12 13  1  0  0  0
 13 14  1  0  0  0
 13 15  1  0  0  0
 15 16  1  0  0  0
  7  8  1  0  0  0
  8  9  2  0  0  0
  5 18  1  0  0  0
 18 19  2  0  0  0
 19 20  1  0  0  0
 20 21  2  0  0  0
 21 24  1  0  0  0
 24 26  1  0  0  0
 26 27  1  0  0  0
 27 28  1  0  0  0
 28 29  1  0  0  0
 29 30  1  0  0  0
 30 31  1  0  0  0
 21 22  1  0  0  0
 22 23  2  0  0  0
  9  1  1  0  0  0
 23 18  1  0  0  0
  8  4  1  0  0  0
 31 26  1  0  0  0
 16 10  1  0  0  0
 33 34  1  0  0  0
 14 17  1  0  0  0
 24 25  1  0  0  0
 29 32  1  0  0  0
M  END
> <minimizedAffinity>
-8.48210

> <CNNscore>
0.5807933807

> <CNNaffinity>
7.1134538651

> <CNN_VS>
4.1314468384

> <CNNaffinity_variance>
0.5327380300

$$$$
[H]OC1([H])C([H])([H])C([H])([H])C([H])(n2c([H])c(-c3c([H])c([H])c(N([H])C4([H])C([H])([H])C([H])([H])N([H])C([H])([H])C4([H])[H])c([H])c3[H])c3c([H])nc(N([H])C([H])([H])C([H])([H])C([H])([H])C([H])([H])[H])nc32)C([H])([H])C1([H])[H]


 38 42  0  0  0  0  0  0  0  0999 V2000
    4.1587    1.3672   20.1299 C   0  0  0  0  0  0  0  0  0  0  0  0
    3.6441    0.7627   19.0497 N   0  0  0  0  0  0  0  0  0  0  0  0
    3.5828    1.3209   17.8400 C   0  0  0  0  0  0  0  0  0  0  0  0
    4.0754    2.6078   17.6583 C   0  0  0  0  0  0  0  0  0  0  0  0
    4.1791    3.4702   16.6222 C   0  0  0  0  0  0  0  0  0  0  0  0
    4.7748    4.6305   17.0845 C   0  0  0  0  0  0  0  0  0  0  0  0
    5.0195    4.4370   18.4102 N   0  0  0  0  0  0  0  0  0  0  0  0
    4.6061    3.2278   18.7752 C   0  0  0  0  0  0  0  0  0  0  0  0
    4.6500    2.6354   19.9711 N   0  0  0  0  0  0  0  0  0  0  0  0
    5.6380    5.4866   19.1627 C   0  0  0  0  0  0  0  0  0  0  0  0
    4.6211    5.8709   20.2442 C   0  0  0  0  0  0  0  0  0  0  0  0
    4.8896    7.2381   20.8100 C   0  0  0  0  0  0  0  0  0  0  0  0
    4.7858    8.3379   19.7712 C   0  0  0  0  0  0  0  0  0  0  0  0
    3.6317    9.0787   19.9042 O   0  0  0  0  0  0  0  0  0  0  0  0
    4.9070    7.6974   18.3799 C   0  0  0  0  0  0  0  0  0  0  0  0
    6.0547    6.7012   18.4587 C   0  0  0  0  0  0  0  0  0  0  0  0
    3.7730    9.9034   19.3428 H   0  0  0  0  0  0  0  0  0  0  0  0
    3.7236    3.2162   15.2411 C   0  0  0  0  0  0  0  0  0  0  0  0
    2.9551    2.1223   14.9395 C   0  0  0  0  0  0  0  0  0  0  0  0
    2.5480    1.8791   13.6285 C   0  0  0  0  0  0  0  0  0  0  0  0
    2.8932    2.7149   12.5918 C   0  0  0  0  0  0  0  0  0  0  0  0
    3.6830    3.8474   12.8820 C   0  0  0  0  0  0  0  0  0  0  0  0
    4.0587    4.0409   14.1911 C   0  0  0  0  0  0  0  0  0  0  0  0
    2.5713    2.5466   11.2360 N   0  0  0  0  0  0  0  0  0  0  0  0
    3.3597    2.1397   10.5957 H   0  0  0  0  0  0  0  0  0  0  0  0
    1.3835    2.8395   10.5443 C   0  0  0  0  0  0  0  0  0  0  0  0
    0.4640    3.7687   11.2617 C   0  0  0  0  0  0  0  0  0  0  0  0
   -0.5797    4.1939   10.1852 C   0  0  0  0  0  0  0  0  0  0  0  0
   -1.3753    2.9967    9.9821 N   0  0  0  0  0  0  0  0  0  0  0  0
   -0.5746    2.0298    9.2765 C   0  0  0  0  0  0  0  0  0  0  0  0
    0.6184    1.5824   10.1134 C   0  0  0  0  0  0  0  0  0  0  0  0
   -2.2443    3.1719    9.4469 H   0  0  0  0  0  0  0  0  0  0  0  0
    4.1805    0.7353   21.3806 N   0  0  0  0  0  0  0  0  0  0  0  0
    4.6860   -0.1828   21.4630 H   0  0  0  0  0  0  0  0  0  0  0  0
    3.5551    1.2661   22.5531 C   0  0  0  0  0  0  0  0  0  0  0  0
    4.5122    1.7528   23.6013 C   0  0  0  0  0  0  0  0  0  0  0  0
    3.4893    4.0506   23.4146 C   0  0  0  0  0  0  0  0  0  0  0  0
    4.7554    3.2496   23.5063 C   0  0  0  0  0  0  0  0  0  0  0  0
 37 38  1  0  0  0
 38 36  1  0  0  0
 36 35  1  0  0  0
 35 33  1  0  0  0
 33  1  1  0  0  0
  1  2  2  0  0  0
  2  3  1  0  0  0
  3  4  2  0  0  0
  4  5  1  0  0  0
  5  6  2  0  0  0
  6  7  1  0  0  0
  7 10  1  0  0  0
 10 11  1  0  0  0
 11 12  1  0  0  0
 12 13  1  0  0  0
 13 14  1  0  0  0
 13 15  1  0  0  0
 15 16  1  0  0  0
  7  8  1  0  0  0
  8  9  2  0  0  0
  5 18  1  0  0  0
 18 19  2  0  0  0
 19 20  1  0  0  0
 20 21  2  0  0  0
 21 24  1  0  0  0
 24 26  1  0  0  0
 26 27  1  0  0  0
 27 28  1  0  0  0
 28 29  1  0  0  0
 29 30  1  0  0  0
 30 31  1  0  0  0
 21 22  1  0  0  0
 22 23  2  0  0  0
  9  1  1  0  0  0
 23 18  1  0  0  0
  8  4  1  0  0  0
 31 26  1  0  0  0
 16 10  1  0  0  0
 33 34  1  0  0  0
 14 17  1  0  0  0
 24 25  1  0  0  0
 29 32  1  0  0  0
M  END
> <minimizedAffinity>
-8.78283

> <CNNscore>
0.5248792171

> <CNNaffinity>
7.0307464600

> <CNN_VS>
3.6902925968

> <CNNaffinity_variance>
0.5841940641

$$$$
[H]OC1([H])C([H])([H])C([H])([H])C([H])(n2c([H])c(-c3c([H])c([H])c(N([H])C4([H])C([H])([H])C([H])([H])N([H])C([H])([H])C4([H])[H])c([H])c3[H])c3c([H])nc(N([H])C([H])([H])C([H])([H])C([H])([H])C([H])([H])[H])nc32)C([H])([H])C1([H])[H]


 38 42  0  0  0  0  0  0  0  0999 V2000
    4.1125    1.3570   19.7602 C   0  0  0  0  0  0  0  0  0  0  0  0
    3.4637    0.7751   18.7416 N   0  0  0  0  0  0  0  0  0  0  0  0
    3.3363    1.3179   17.5301 C   0  0  0  0  0  0  0  0  0  0  0  0
    3.9009    2.5629   17.2792 C   0  0  0  0  0  0  0  0  0  0  0  0
    3.9742    3.3999   16.2198 C   0  0  0  0  0  0  0  0  0  0  0  0
    4.6888    4.5208   16.6040 C   0  0  0  0  0  0  0  0  0  0  0  0
    5.0345    4.3302   17.9076 N   0  0  0  0  0  0  0  0  0  0  0  0
    4.5700    3.1596   18.3326 C   0  0  0  0  0  0  0  0  0  0  0  0
    4.6766    2.5838   19.5325 N   0  0  0  0  0  0  0  0  0  0  0  0
    5.7893    5.3434   18.5813 C   0  0  0  0  0  0  0  0  0  0  0  0
    5.7903    4.9397   20.0605 C   0  0  0  0  0  0  0  0  0  0  0  0
    6.1147    6.0994   20.9612 C   0  0  0  0  0  0  0  0  0  0  0  0
    5.1003    7.2226   20.8661 C   0  0  0  0  0  0  0  0  0  0  0  0
    4.2690    7.2738   21.9637 O   0  0  0  0  0  0  0  0  0  0  0  0
    4.3191    7.0544   19.5538 C   0  0  0  0  0  0  0  0  0  0  0  0
    5.3443    6.7347   18.4758 C   0  0  0  0  0  0  0  0  0  0  0  0
    3.8115    8.1703   21.9154 H   0  0  0  0  0  0  0  0  0  0  0  0
    3.3826    3.1587   14.8889 C   0  0  0  0  0  0  0  0  0  0  0  0
    3.8401    3.8223   13.7805 C   0  0  0  0  0  0  0  0  0  0  0  0
    3.2606    3.6040   12.5315 C   0  0  0  0  0  0  0  0  0  0  0  0
    2.2181    2.7237   12.3563 C   0  0  0  0  0  0  0  0  0  0  0  0
    1.7336    2.0296   13.4850 C   0  0  0  0  0  0  0  0  0  0  0  0
    2.3394    2.2820   14.6939 C   0  0  0  0  0  0  0  0  0  0  0  0
    1.5388    2.4560   11.1575 N   0  0  0  0  0  0  0  0  0  0  0  0
    0.6979    3.1136   10.9175 H   0  0  0  0  0  0  0  0  0  0  0  0
    1.7519    1.4479   10.2018 C   0  0  0  0  0  0  0  0  0  0  0  0
    0.7230    0.3687   10.2023 C   0  0  0  0  0  0  0  0  0  0  0  0
    0.9785   -0.4155    8.8799 C   0  0  0  0  0  0  0  0  0  0  0  0
    2.2254   -1.1163    9.1282 N   0  0  0  0  0  0  0  0  0  0  0  0
    3.2973   -0.1544    9.1335 C   0  0  0  0  0  0  0  0  0  0  0  0
    3.1524    0.8296   10.2886 C   0  0  0  0  0  0  0  0  0  0  0  0
    2.4291   -1.8463    8.4225 H   0  0  0  0  0  0  0  0  0  0  0  0
    4.1990    0.7441   21.0176 N   0  0  0  0  0  0  0  0  0  0  0  0
    4.7332   -0.1583   21.0931 H   0  0  0  0  0  0  0  0  0  0  0  0
    3.6031    1.2742   22.2057 C   0  0  0  0  0  0  0  0  0  0  0  0
    4.5863    1.7390   23.2395 C   0  0  0  0  0  0  0  0  0  0  0  0
    3.5369    4.0303   23.3355 C   0  0  0  0  0  0  0  0  0  0  0  0
    4.8055    3.2416   23.1890 C   0  0  0  0  0  0  0  0  0  0  0  0
 37 38  1  0  0  0
 38 36  1  0  0  0
 36 35  1  0  0  0
 35 33  1  0  0  0
 33  1  1  0  0  0
  1  2  2  0  0  0
  2  3  1  0  0  0
  3  4  2  0  0  0
  4  5  1  0  0  0
  5  6  2  0  0  0
  6  7  1  0  0  0
  7 10  1  0  0  0
 10 11  1  0  0  0
 11 12  1  0  0  0
 12 13  1  0  0  0
 13 14  1  0  0  0
 13 15  1  0  0  0
 15 16  1  0  0  0
  7  8  1  0  0  0
  8  9  2  0  0  0
  5 18  1  0  0  0
 18 19  2  0  0  0
 19 20  1  0  0  0
 20 21  2  0  0  0
 21 24  1  0  0  0
 24 26  1  0  0  0
 26 27  1  0  0  0
 27 28  1  0  0  0
 28 29  1  0  0  0
 29 30  1  0  0  0
 30 31  1  0  0  0
 21 22  1  0  0  0
 22 23  2  0  0  0
  9  1  1  0  0  0
 23 18  1  0  0  0
  8  4  1  0  0  0
 31 26  1  0  0  0
 16 10  1  0  0  0
 33 34  1  0  0  0
 14 17  1  0  0  0
 24 25  1  0  0  0
 29 32  1  0  0  0
M  END
> <minimizedAffinity>
-8.94385

> <CNNscore>
0.5028955936

> <CNNaffinity>
7.1221094131

> <CNN_VS>
3.5816774368

> <CNNaffinity_variance>
0.3609836698

$$$$
[H]OC1([H])C([H])([H])C([H])([H])C([H])(n2c([H])c(-c3c([H])c([H])c(N([H])C4([H])C([H])([H])C([H])([H])N([H])C([H])([H])C4([H])[H])c([H])c3[H])c3c([H])nc(N([H])C([H])([H])C([H])([H])C([H])([H])C([H])([H])[H])nc32)C([H])([H])C1([H])[H]


 38 42  0  0  0  0  0  0  0  0999 V2000
    4.0648    1.2616   20.2982 C   0  0  0  0  0  0  0  0  0  0  0  0
    3.5417    0.6680   19.2161 N   0  0  0  0  0  0  0  0  0  0  0  0
    3.4976    1.2268   18.0060 C   0  0  0  0  0  0  0  0  0  0  0  0
    4.0187    2.5027   17.8259 C   0  0  0  0  0  0  0  0  0  0  0  0
    4.1454    3.3622   16.7899 C   0  0  0  0  0  0  0  0  0  0  0  0
    4.7642    4.5095   17.2542 C   0  0  0  0  0  0  0  0  0  0  0  0
    4.9991    4.3113   18.5810 N   0  0  0  0  0  0  0  0  0  0  0  0
    4.5581    3.1115   18.9447 C   0  0  0  0  0  0  0  0  0  0  0  0
    4.5842    2.5189   20.1410 N   0  0  0  0  0  0  0  0  0  0  0  0
    5.6371    5.3476   19.3357 C   0  0  0  0  0  0  0  0  0  0  0  0
    4.6093    5.7822   20.3873 C   0  0  0  0  0  0  0  0  0  0  0  0
    4.9135    7.1460   20.9430 C   0  0  0  0  0  0  0  0  0  0  0  0
    4.8748    8.2353   19.8888 C   0  0  0  0  0  0  0  0  0  0  0  0
    3.7455    9.0189   19.9846 O   0  0  0  0  0  0  0  0  0  0  0  0
    5.0060    7.5729   18.5087 C   0  0  0  0  0  0  0  0  0  0  0  0
    6.1144    6.5372   18.6275 C   0  0  0  0  0  0  0  0  0  0  0  0
    3.9301    9.8307   19.4169 H   0  0  0  0  0  0  0  0  0  0  0  0
    3.6902    3.1175   15.4070 C   0  0  0  0  0  0  0  0  0  0  0  0
    3.0179    1.9701   15.0760 C   0  0  0  0  0  0  0  0  0  0  0  0
    2.6112    1.7380   13.7629 C   0  0  0  0  0  0  0  0  0  0  0  0
    2.8615    2.6380   12.7531 C   0  0  0  0  0  0  0  0  0  0  0  0
    3.5513    3.8262   13.0738 C   0  0  0  0  0  0  0  0  0  0  0  0
    3.9312    4.0061   14.3836 C   0  0  0  0  0  0  0  0  0  0  0  0
    2.5321    2.4899   11.3967 N   0  0  0  0  0  0  0  0  0  0  0  0
    1.9583    3.3038   10.9437 H   0  0  0  0  0  0  0  0  0  0  0  0
    2.8063    1.4360   10.5084 C   0  0  0  0  0  0  0  0  0  0  0  0
    3.7640    1.7800    9.4185 C   0  0  0  0  0  0  0  0  0  0  0  0
    4.1565    0.4066    8.7952 C   0  0  0  0  0  0  0  0  0  0  0  0
    2.9566   -0.0105    8.0924 N   0  0  0  0  0  0  0  0  0  0  0  0
    1.9621   -0.3815    9.0657 C   0  0  0  0  0  0  0  0  0  0  0  0
    1.5385    0.8160    9.9085 C   0  0  0  0  0  0  0  0  0  0  0  0
    3.1171   -0.8079    7.4515 H   0  0  0  0  0  0  0  0  0  0  0  0
    4.0677    0.6299   21.5492 N   0  0  0  0  0  0  0  0  0  0  0  0
    4.4720   -0.3383   21.6142 H   0  0  0  0  0  0  0  0  0  0  0  0
    3.5527    1.2253   22.7442 C   0  0  0  0  0  0  0  0  0  0  0  0
    4.6023    1.7611   23.6733 C   0  0  0  0  0  0  0  0  0  0  0  0
    3.4598    4.0013   23.4806 C   0  0  0  0  0  0  0  0  0  0  0  0
    4.7668    3.2663   23.5469 C   0  0  0  0  0  0  0  0  0  0  0  0
 37 38  1  0  0  0
 38 36  1  0  0  0
 36 35  1  0  0  0
 35 33  1  0  0  0
 33  1  1  0  0  0
  1  2  2  0  0  0
  2  3  1  0  0  0
  3  4  2  0  0  0
  4  5  1  0  0  0
  5  6  2  0  0  0
  6  7  1  0  0  0
  7 10  1  0  0  0
 10 11  1  0  0  0
 11 12  1  0  0  0
 12 13  1  0  0  0
 13 14  1  0  0  0
 13 15  1  0  0  0
 15 16  1  0  0  0
  7  8  1  0  0  0
  8  9  2  0  0  0
  5 18  1  0  0  0
 18 19  2  0  0  0
 19 20  1  0  0  0
 20 21  2  0  0  0
 21 24  1  0  0  0
 24 26  1  0  0  0
 26 27  1  0  0  0
 27 28  1  0  0  0
 28 29  1  0  0  0
 29 30  1  0  0  0
 30 31  1  0  0  0
 21 22  1  0  0  0
 22 23  2  0  0  0
  9  1  1  0  0  0
 23 18  1  0  0  0
  8  4  1  0  0  0
 31 26  1  0  0  0
 16 10  1  0  0  0
 33 34  1  0  0  0
 14 17  1  0  0  0
 24 25  1  0  0  0
 29 32  1  0  0  0
M  END
> <minimizedAffinity>
-8.82364

> <CNNscore>
0.4298320413

> <CNNaffinity>
6.9625692368

> <CNN_VS>
2.9927353859

> <CNNaffinity_variance>
0.3800895512

$$$$
[H]OC1([H])C([H])([H])C([H])([H])C([H])(n2c([H])c(-c3c([H])c([H])c(N([H])C4([H])C([H])([H])C([H])([H])N([H])C([H])([H])C4([H])[H])c([H])c3[H])c3c([H])nc(N([H])C([H])([H])C([H])([H])C([H])([H])C([H])([H])[H])nc32)C([H])([H])C1([H])[H]


 38 42  0  0  0  0  0  0  0  0999 V2000
    4.3890    1.7398   20.3693 C   0  0  0  0  0  0  0  0  0  0  0  0
    4.1502    0.9983   19.2783 N   0  0  0  0  0  0  0  0  0  0  0  0
    3.9066    1.5059   18.0693 C   0  0  0  0  0  0  0  0  0  0  0  0
    3.8935    2.8854   17.9001 C   0  0  0  0  0  0  0  0  0  0  0  0
    3.6886    3.7350   16.8685 C   0  0  0  0  0  0  0  0  0  0  0  0
    3.8079    5.0287   17.3446 C   0  0  0  0  0  0  0  0  0  0  0  0
    4.0858    4.9267   18.6740 N   0  0  0  0  0  0  0  0  0  0  0  0
    4.1411    3.6468   19.0281 C   0  0  0  0  0  0  0  0  0  0  0  0
    4.3813    3.1013   20.2229 N   0  0  0  0  0  0  0  0  0  0  0  0
    4.2625    6.1232   19.4405 C   0  0  0  0  0  0  0  0  0  0  0  0
    3.6072    7.2388   18.6175 C   0  0  0  0  0  0  0  0  0  0  0  0
    4.0994    8.6010   19.0217 C   0  0  0  0  0  0  0  0  0  0  0  0
    5.5891    8.7799   18.8014 C   0  0  0  0  0  0  0  0  0  0  0  0
    5.8669    9.5746   17.7107 O   0  0  0  0  0  0  0  0  0  0  0  0
    6.2277    7.3876   18.6826 C   0  0  0  0  0  0  0  0  0  0  0  0
    5.6233    6.5365   19.7899 C   0  0  0  0  0  0  0  0  0  0  0  0
    6.8405    9.8200   17.7952 H   0  0  0  0  0  0  0  0  0  0  0  0
    3.3804    3.3439   15.4786 C   0  0  0  0  0  0  0  0  0  0  0  0
    3.8955    4.0406   14.4169 C   0  0  0  0  0  0  0  0  0  0  0  0
    3.5812    3.6771   13.1082 C   0  0  0  0  0  0  0  0  0  0  0  0
    2.7521    2.6162   12.8262 C   0  0  0  0  0  0  0  0  0  0  0  0
    2.2127    1.8852   13.9057 C   0  0  0  0  0  0  0  0  0  0  0  0
    2.5533    2.2857   15.1769 C   0  0  0  0  0  0  0  0  0  0  0  0
    2.3412    2.1878   11.5543 N   0  0  0  0  0  0  0  0  0  0  0  0
    1.8983    1.1890   11.4969 H   0  0  0  0  0  0  0  0  0  0  0  0
    2.4244    2.8358   10.3100 C   0  0  0  0  0  0  0  0  0  0  0  0
    1.2633    3.7161    9.9932 C   0  0  0  0  0  0  0  0  0  0  0  0
    1.7328    4.5560    8.7672 C   0  0  0  0  0  0  0  0  0  0  0  0
    1.7558    3.5962    7.6782 N   0  0  0  0  0  0  0  0  0  0  0  0
    2.8623    2.6976    7.8839 C   0  0  0  0  0  0  0  0  0  0  0  0
    2.6731    1.8668    9.1479 C   0  0  0  0  0  0  0  0  0  0  0  0
    1.8485    4.0398    6.7470 H   0  0  0  0  0  0  0  0  0  0  0  0
    4.6223    1.1487   21.6184 N   0  0  0  0  0  0  0  0  0  0  0  0
    5.3855    0.4294   21.6912 H   0  0  0  0  0  0  0  0  0  0  0  0
    3.8828    1.4667   22.8015 C   0  0  0  0  0  0  0  0  0  0  0  0
    4.5290    2.4980   23.6794 C   0  0  0  0  0  0  0  0  0  0  0  0
    4.4755    4.9240   22.9918 C   0  0  0  0  0  0  0  0  0  0  0  0
    3.7574    3.8068   23.6913 C   0  0  0  0  0  0  0  0  0  0  0  0
 37 38  1  0  0  0
 38 36  1  0  0  0
 36 35  1  0  0  0
 35 33  1  0  0  0
 33  1  1  0  0  0
  1  2  2  0  0  0
  2  3  1  0  0  0
  3  4  2  0  0  0
  4  5  1  0  0  0
  5  6  2  0  0  0
  6  7  1  0  0  0
  7 10  1  0  0  0
 10 11  1  0  0  0
 11 12  1  0  0  0
 12 13  1  0  0  0
 13 14  1  0  0  0
 13 15  1  0  0  0
 15 16  1  0  0  0
  7  8  1  0  0  0
  8  9  2  0  0  0
  5 18  1  0  0  0
 18 19  2  0  0  0
 19 20  1  0  0  0
 20 21  2  0  0  0
 21 24  1  0  0  0
 24 26  1  0  0  0
 26 27  1  0  0  0
 27 28  1  0  0  0
 28 29  1  0  0  0
 29 30  1  0  0  0
 30 31  1  0  0  0
 21 22  1  0  0  0
 22 23  2  0  0  0
  9  1  1  0  0  0
 23 18  1  0  0  0
  8  4  1  0  0  0
 31 26  1  0  0  0
 16 10  1  0  0  0
 33 34  1  0  0  0
 14 17  1  0  0  0
 24 25  1  0  0  0
 29 32  1  0  0  0
M  END
> <minimizedAffinity>
-7.88727

> <CNNscore>
0.3555786014

> <CNNaffinity>
6.8710541725

> <CNN_VS>
2.4431998730

> <CNNaffinity_variance>
0.5021296740

$$$$
[H]OC1([H])C([H])([H])C([H])([H])C([H])(n2c([H])c(-c3c([H])c([H])c(N([H])C4([H])C([H])([H])C([H])([H])N([H])C([H])([H])C4([H])[H])c([H])c3[H])c3c([H])nc(N([H])C([H])([H])C([H])([H])C([H])([H])C([H])([H])[H])nc32)C([H])([H])C1([H])[H]


 38 42  0  0  0  0  0  0  0  0999 V2000
    4.1974    1.8996   19.5558 C   0  0  0  0  0  0  0  0  0  0  0  0
    3.9155    1.4532   18.3236 N   0  0  0  0  0  0  0  0  0  0  0  0
    3.6399    2.2460   17.2872 C   0  0  0  0  0  0  0  0  0  0  0  0
    3.6376    3.6243   17.4661 C   0  0  0  0  0  0  0  0  0  0  0  0
    3.4103    4.7043   16.6850 C   0  0  0  0  0  0  0  0  0  0  0  0
    3.5598    5.8388   17.4630 C   0  0  0  0  0  0  0  0  0  0  0  0
    3.8783    5.4088   18.7154 N   0  0  0  0  0  0  0  0  0  0  0  0
    3.9296    4.0809   18.7388 C   0  0  0  0  0  0  0  0  0  0  0  0
    4.2010    3.2548   19.7521 N   0  0  0  0  0  0  0  0  0  0  0  0
    4.0931    6.3768   19.7484 C   0  0  0  0  0  0  0  0  0  0  0  0
    3.8538    7.7406   19.0896 C   0  0  0  0  0  0  0  0  0  0  0  0
    4.4823    8.8618   19.8702 C   0  0  0  0  0  0  0  0  0  0  0  0
    5.9903    8.7384   19.9707 C   0  0  0  0  0  0  0  0  0  0  0  0
    6.6461    9.6337   19.1541 O   0  0  0  0  0  0  0  0  0  0  0  0
    6.3748    7.2831   19.6629 C   0  0  0  0  0  0  0  0  0  0  0  0
    5.3925    6.4041   20.4233 C   0  0  0  0  0  0  0  0  0  0  0  0
    7.6038    9.6349   19.4673 H   0  0  0  0  0  0  0  0  0  0  0  0
    3.0537    4.6717   15.2527 C   0  0  0  0  0  0  0  0  0  0  0  0
    3.9285    4.1849   14.3168 C   0  0  0  0  0  0  0  0  0  0  0  0
    3.5914    4.1784   12.9641 C   0  0  0  0  0  0  0  0  0  0  0  0
    2.3815    4.6526   12.5128 C   0  0  0  0  0  0  0  0  0  0  0  0
    1.4664    5.1568   13.4609 C   0  0  0  0  0  0  0  0  0  0  0  0
    1.8483    5.1415   14.7824 C   0  0  0  0  0  0  0  0  0  0  0  0
    1.9553    4.7277   11.1775 N   0  0  0  0  0  0  0  0  0  0  0  0
    1.2383    3.9680   10.8522 H   0  0  0  0  0  0  0  0  0  0  0  0
    2.3203    5.6255   10.1598 C   0  0  0  0  0  0  0  0  0  0  0  0
    3.5469    5.2386    9.4053 C   0  0  0  0  0  0  0  0  0  0  0  0
    3.5485    6.1718    8.1571 C   0  0  0  0  0  0  0  0  0  0  0  0
    3.8669    7.4791    8.7024 N   0  0  0  0  0  0  0  0  0  0  0  0
    2.7288    7.9538    9.4463 C   0  0  0  0  0  0  0  0  0  0  0  0
    2.4511    7.0702   10.6569 C   0  0  0  0  0  0  0  0  0  0  0  0
    4.1101    8.1749    7.9750 H   0  0  0  0  0  0  0  0  0  0  0  0
    4.4630    1.0160   20.6106 N   0  0  0  0  0  0  0  0  0  0  0  0
    4.1710    0.0120   20.5012 H   0  0  0  0  0  0  0  0  0  0  0  0
    5.1088    1.3996   21.8287 C   0  0  0  0  0  0  0  0  0  0  0  0
    4.1723    1.6725   22.9689 C   0  0  0  0  0  0  0  0  0  0  0  0
    3.6199    4.1120   23.2930 C   0  0  0  0  0  0  0  0  0  0  0  0
    4.5069    2.9678   23.6893 C   0  0  0  0  0  0  0  0  0  0  0  0
 37 38  1  0  0  0
 38 36  1  0  0  0
 36 35  1  0  0  0
 35 33  1  0  0  0
 33  1  1  0  0  0
  1  2  2  0  0  0
  2  3  1  0  0  0
  3  4  2  0  0  0
  4  5  1  0  0  0
  5  6  2  0  0  0
  6  7  1  0  0  0
  7 10  1  0  0  0
 10 11  1  0  0  0
 11 12  1  0  0  0
 12 13  1  0  0  0
 13 14  1  0  0  0
 13 15  1  0  0  0
 15 16  1  0  0  0
  7  8  1  0  0  0
  8  9  2  0  0  0
  5 18  1  0  0  0
 18 19  2  0  0  0
 19 20  1  0  0  0
 20 21  2  0  0  0
 21 24  1  0  0  0
 24 26  1  0  0  0
 26 27  1  0  0  0
 27 28  1  0  0  0
 28 29  1  0  0  0
 29 30  1  0  0  0
 30 31  1  0  0  0
 21 22  1  0  0  0
 22 23  2  0  0  0
  9  1  1  0  0  0
 23 18  1  0  0  0
  8  4  1  0  0  0
 31 26  1  0  0  0
 16 10  1  0  0  0
 33 34  1  0  0  0
 14 17  1  0  0  0
 24 25  1  0  0  0
 29 32  1  0  0  0
M  END
> <minimizedAffinity>
-7.68149

> <CNNscore>
0.3240432739

> <CNNaffinity>
6.6678342819

> <CNN_VS>
2.1606669426

> <CNNaffinity_variance>
0.4655724466

$$$$
[H]OC1([H])C([H])([H])C([H])([H])C([H])([H])n2c([H])c(-c3c([H])c([H])c(C([H])([H])N4C([H])([H])C([H])([H])N(C([H])([H])[H])C([H])([H])C4([H])[H])c([H])c3[H])c3c([H])nc(nc32)N([H])C([H])([H])C([H])([H])C([H])([H])C([H])([H])C1([H])[H]


 36 40  0  0  0  0  0  0  0  0999 V2000
    3.6832    3.2247   15.0912 C   0  0  0  0  0  0  0  0  0  0  0  0
    4.4601    4.0117   15.9258 C   0  0  0  0  0  0  0  0  0  0  0  0
    4.5359    3.4406   17.1456 N   0  0  0  0  0  0  0  0  0  0  0  0
    5.2333    3.8556   18.3739 C   0  0  0  0  0  0  0  0  0  0  0  0
    4.4004    4.6865   19.2800 C   0  0  0  0  0  0  0  0  0  0  0  0
    3.8229    4.0032   20.4752 C   0  0  0  0  0  0  0  0  0  0  0  0
    4.8444    3.1913   21.1951 C   0  0  0  0  0  0  0  0  0  0  0  0
    5.9941    3.9681   21.3272 O   0  0  0  0  0  0  0  0  0  0  0  0
    4.4136    2.7778   22.5847 C   0  0  0  0  0  0  0  0  0  0  0  0
    3.6316    1.4829   22.6076 C   0  0  0  0  0  0  0  0  0  0  0  0
    4.3682    0.3022   22.0830 C   0  0  0  0  0  0  0  0  0  0  0  0
    3.5540   -0.6559   21.2623 C   0  0  0  0  0  0  0  0  0  0  0  0
    2.6023   -0.0327   20.3057 C   0  0  0  0  0  0  0  0  0  0  0  0
    2.7074   -0.5122   18.9409 N   0  0  0  0  0  0  0  0  0  0  0  0
    2.8825    0.3706   17.8363 C   0  0  0  0  0  0  0  0  0  0  0  0
    2.3279    0.1537   16.6313 N   0  0  0  0  0  0  0  0  0  0  0  0
    2.4929    1.0099   15.5907 C   0  0  0  0  0  0  0  0  0  0  0  0
    3.2680    2.1237   15.8417 C   0  0  0  0  0  0  0  0  0  0  0  0
    3.8252    2.3289   17.0723 C   0  0  0  0  0  0  0  0  0  0  0  0
    3.6327    1.4570   18.0622 N   0  0  0  0  0  0  0  0  0  0  0  0
    6.5462    3.5153   22.0289 H   0  0  0  0  0  0  0  0  0  0  0  0
    2.6525   -1.5321   18.7353 H   0  0  0  0  0  0  0  0  0  0  0  0
    2.5463    3.8617   11.0217 C   0  0  0  0  0  0  0  0  0  0  0  0
    1.7356    3.2111   11.9153 C   0  0  0  0  0  0  0  0  0  0  0  0
    2.1329    3.0224   13.2212 C   0  0  0  0  0  0  0  0  0  0  0  0
    3.3448    3.4674   13.6989 C   0  0  0  0  0  0  0  0  0  0  0  0
    4.1743    4.1233   12.8191 C   0  0  0  0  0  0  0  0  0  0  0  0
    3.7785    4.3139   11.5088 C   0  0  0  0  0  0  0  0  0  0  0  0
    2.1777    4.0925    9.6017 C   0  0  0  0  0  0  0  0  0  0  0  0
   -0.9930    6.2454    6.6944 C   0  0  0  0  0  0  0  0  0  0  0  0
    0.0180    5.7679    7.6498 N   0  0  0  0  0  0  0  0  0  0  0  0
   -0.1323    6.5384    8.8504 C   0  0  0  0  0  0  0  0  0  0  0  0
    0.8886    6.1207    9.8811 C   0  0  0  0  0  0  0  0  0  0  0  0
    2.0454    5.4869    9.3415 N   0  0  0  0  0  0  0  0  0  0  0  0
    2.4352    5.9146    8.0405 C   0  0  0  0  0  0  0  0  0  0  0  0
    1.3095    6.0778    7.0657 C   0  0  0  0  0  0  0  0  0  0  0  0
 30 31  1  0  0  0
 31 32  1  0  0  0
 32 33  1  0  0  0
 33 34  1  0  0  0
 34 29  1  0  0  0
 29 23  1  0  0  0
 23 24  2  0  0  0
 24 25  1  0  0  0
 25 26  2  0  0  0
 26 27  1  0  0  0
 27 28  2  0  0  0
 26  1  1  0  0  0
  1  2  2  0  0  0
  2  3  1  0  0  0
  3  4  1  0  0  0
  4  5  1  0  0  0
  5  6  1  0  0  0
  6  7  1  0  0  0
  7  8  1  0  0  0
  7  9  1  0  0  0
  9 10  1  0  0  0
 10 11  1  0  0  0
 11 12  1  0  0  0
 12 13  1  0  0  0
 13 14  1  0  0  0
 14 15  1  0  0  0
 15 16  2  0  0  0
 16 17  1  0  0  0
 17 18  2  0  0  0
 18 19  1  0  0  0
 19 20  2  0  0  0
 34 35  1  0  0  0
 35 36  1  0  0  0
 36 31  1  0  0  0
 28 23  1  0  0  0
 18  1  1  0  0  0
 19  3  1  0  0  0
 20 15  1  0  0  0
  8 21  1  0  0  0
 14 22  1  0  0  0
M  END
> <minimizedAffinity>
-8.83957

> <CNNscore>
0.9228983521

> <CNNaffinity>
7.0216712952

> <CNN_VS>
6.4802889824

> <CNNaffinity_variance>
0.0674281344

$$$$
[H]OC1([H])C([H])([H])C([H])([H])C([H])([H])n2c([H])c(-c3c([H])c([H])c(C([H])([H])N4C([H])([H])C([H])([H])N(C([H])([H])[H])C([H])([H])C4([H])[H])c([H])c3[H])c3c([H])nc(nc32)N([H])C([H])([H])C([H])([H])C([H])([H])C([H])([H])C1([H])[H]


 36 40  0  0  0  0  0  0  0  0999 V2000
    3.8724    3.2815   15.7675 C   0  0  0  0  0  0  0  0  0  0  0  0
    4.4582    4.3943   16.3487 C   0  0  0  0  0  0  0  0  0  0  0  0
    4.6361    4.1755   17.6680 N   0  0  0  0  0  0  0  0  0  0  0  0
    5.2167    5.0189   18.7257 C   0  0  0  0  0  0  0  0  0  0  0  0
    4.2180    5.8621   19.4305 C   0  0  0  0  0  0  0  0  0  0  0  0
    3.7807    5.3974   20.7802 C   0  0  0  0  0  0  0  0  0  0  0  0
    4.9397    5.0186   21.6369 C   0  0  0  0  0  0  0  0  0  0  0  0
    5.9009    6.0218   21.5256 O   0  0  0  0  0  0  0  0  0  0  0  0
    4.5873    4.8879   23.1019 C   0  0  0  0  0  0  0  0  0  0  0  0
    4.0916    3.5086   23.4767 C   0  0  0  0  0  0  0  0  0  0  0  0
    5.0642    2.4104   23.2318 C   0  0  0  0  0  0  0  0  0  0  0  0
    4.4773    1.1315   22.7080 C   0  0  0  0  0  0  0  0  0  0  0  0
    3.4286    1.2867   21.6661 C   0  0  0  0  0  0  0  0  0  0  0  0
    3.6480    0.5120   20.4597 N   0  0  0  0  0  0  0  0  0  0  0  0
    3.6492    1.1060   19.1646 C   0  0  0  0  0  0  0  0  0  0  0  0
    3.1668    0.4850   18.0744 N   0  0  0  0  0  0  0  0  0  0  0  0
    3.1629    1.0678   16.8482 C   0  0  0  0  0  0  0  0  0  0  0  0
    3.6861    2.3431   16.7836 C   0  0  0  0  0  0  0  0  0  0  0  0
    4.1733    2.9600   17.9014 C   0  0  0  0  0  0  0  0  0  0  0  0
    4.1542    2.3440   19.0835 N   0  0  0  0  0  0  0  0  0  0  0  0
    6.5265    5.8823   22.2947 H   0  0  0  0  0  0  0  0  0  0  0  0
    3.8091   -0.5158   20.5157 H   0  0  0  0  0  0  0  0  0  0  0  0
    2.8827    2.8624   11.6317 C   0  0  0  0  0  0  0  0  0  0  0  0
    3.6422    3.9025   12.1013 C   0  0  0  0  0  0  0  0  0  0  0  0
    3.9432    4.0079   13.4418 C   0  0  0  0  0  0  0  0  0  0  0  0
    3.5081    3.0926   14.3734 C   0  0  0  0  0  0  0  0  0  0  0  0
    2.7444    2.0404   13.9240 C   0  0  0  0  0  0  0  0  0  0  0  0
    2.4408    1.9322   12.5801 C   0  0  0  0  0  0  0  0  0  0  0  0
    2.5207    2.6955   10.2011 C   0  0  0  0  0  0  0  0  0  0  0  0
   -0.2361    3.0099    6.2715 C   0  0  0  0  0  0  0  0  0  0  0  0
    0.4599    2.8084    7.5513 N   0  0  0  0  0  0  0  0  0  0  0  0
    0.2009    1.4611    7.9700 C   0  0  0  0  0  0  0  0  0  0  0  0
    0.8682    1.1787    9.2945 C   0  0  0  0  0  0  0  0  0  0  0  0
    1.1473    2.3394   10.0730 N   0  0  0  0  0  0  0  0  0  0  0  0
    0.2377    3.4235    9.9155 C   0  0  0  0  0  0  0  0  0  0  0  0
   -0.1636    3.7108    8.5011 C   0  0  0  0  0  0  0  0  0  0  0  0
 30 31  1  0  0  0
 31 32  1  0  0  0
 32 33  1  0  0  0
 33 34  1  0  0  0
 34 29  1  0  0  0
 29 23  1  0  0  0
 23 24  2  0  0  0
 24 25  1  0  0  0
 25 26  2  0  0  0
 26 27  1  0  0  0
 27 28  2  0  0  0
 26  1  1  0  0  0
  1  2  2  0  0  0
  2  3  1  0  0  0
  3  4  1  0  0  0
  4  5  1  0  0  0
  5  6  1  0  0  0
  6  7  1  0  0  0
  7  8  1  0  0  0
  7  9  1  0  0  0
  9 10  1  0  0  0
 10 11  1  0  0  0
 11 12  1  0  0  0
 12 13  1  0  0  0
 13 14  1  0  0  0
 14 15  1  0  0  0
 15 16  2  0  0  0
 16 17  1  0  0  0
 17 18  2  0  0  0
 18 19  1  0  0  0
 19 20  2  0  0  0
 34 35  1  0  0  0
 35 36  1  0  0  0
 36 31  1  0  0  0
 28 23  1  0  0  0
 18  1  1  0  0  0
 19  3  1  0  0  0
 20 15  1  0  0  0
  8 21  1  0  0  0
 14 22  1  0  0  0
M  END
> <minimizedAffinity>
-9.60917

> <CNNscore>
0.7286396027

> <CNNaffinity>
7.0187621117

> <CNN_VS>
5.1141481400

> <CNNaffinity_variance>
0.2911890149

$$$$
[H]OC1([H])C([H])([H])C([H])([H])C([H])([H])n2c([H])c(-c3c([H])c([H])c(C([H])([H])N4C([H])([H])C([H])([H])N(C([H])([H])[H])C([H])([H])C4([H])[H])c([H])c3[H])c3c([H])nc(nc32)N([H])C([H])([H])C([H])([H])C([H])([H])C([H])([H])C1([H])[H]


 36 40  0  0  0  0  0  0  0  0999 V2000
    3.8683    3.2814   15.8126 C   0  0  0  0  0  0  0  0  0  0  0  0
    4.4617    4.3935   16.3873 C   0  0  0  0  0  0  0  0  0  0  0  0
    4.6412    4.1799   17.7072 N   0  0  0  0  0  0  0  0  0  0  0  0
    5.2289    5.0249   18.7597 C   0  0  0  0  0  0  0  0  0  0  0  0
    4.2367    5.8772   19.4627 C   0  0  0  0  0  0  0  0  0  0  0  0
    3.7996    5.4214   20.8155 C   0  0  0  0  0  0  0  0  0  0  0  0
    4.9583    5.0400   21.6714 C   0  0  0  0  0  0  0  0  0  0  0  0
    5.9250    6.0370   21.5534 O   0  0  0  0  0  0  0  0  0  0  0  0
    4.6083    4.9182   23.1379 C   0  0  0  0  0  0  0  0  0  0  0  0
    4.1055    3.5435   23.5202 C   0  0  0  0  0  0  0  0  0  0  0  0
    5.0713    2.4386   23.2784 C   0  0  0  0  0  0  0  0  0  0  0  0
    4.4759    1.1606   22.7619 C   0  0  0  0  0  0  0  0  0  0  0  0
    3.4259    1.3169   21.7215 C   0  0  0  0  0  0  0  0  0  0  0  0
    3.6382    0.5353   20.5183 N   0  0  0  0  0  0  0  0  0  0  0  0
    3.6400    1.1232   19.2204 C   0  0  0  0  0  0  0  0  0  0  0  0
    3.1517    0.4999   18.1342 N   0  0  0  0  0  0  0  0  0  0  0  0
    3.1485    1.0769   16.9053 C   0  0  0  0  0  0  0  0  0  0  0  0
    3.6789    2.3488   16.8336 C   0  0  0  0  0  0  0  0  0  0  0  0
    4.1719    2.9682   17.9474 C   0  0  0  0  0  0  0  0  0  0  0  0
    4.1519    2.3579   19.1324 N   0  0  0  0  0  0  0  0  0  0  0  0
    6.5514    5.8976   22.3218 H   0  0  0  0  0  0  0  0  0  0  0  0
    3.7935   -0.4931   20.5788 H   0  0  0  0  0  0  0  0  0  0  0  0
    2.8691    2.8474   11.6807 C   0  0  0  0  0  0  0  0  0  0  0  0
    3.6479    3.8770   12.1416 C   0  0  0  0  0  0  0  0  0  0  0  0
    3.9515    3.9876   13.4812 C   0  0  0  0  0  0  0  0  0  0  0  0
    3.4999    3.0880   14.4202 C   0  0  0  0  0  0  0  0  0  0  0  0
    2.7167    2.0465   13.9796 C   0  0  0  0  0  0  0  0  0  0  0  0
    2.4105    1.9332   12.6367 C   0  0  0  0  0  0  0  0  0  0  0  0
    2.5034    2.6756   10.2516 C   0  0  0  0  0  0  0  0  0  0  0  0
    2.8572    0.9389    5.7796 C   0  0  0  0  0  0  0  0  0  0  0  0
    2.8036    1.2903    7.2067 N   0  0  0  0  0  0  0  0  0  0  0  0
    3.9224    0.6578    7.8438 C   0  0  0  0  0  0  0  0  0  0  0  0
    3.9285    0.9546    9.3240 C   0  0  0  0  0  0  0  0  0  0  0  0
    2.6573    1.3152    9.8579 N   0  0  0  0  0  0  0  0  0  0  0  0
    1.5289    0.7218    9.2238 C   0  0  0  0  0  0  0  0  0  0  0  0
    1.5856    0.6981    7.7270 C   0  0  0  0  0  0  0  0  0  0  0  0
 30 31  1  0  0  0
 31 32  1  0  0  0
 32 33  1  0  0  0
 33 34  1  0  0  0
 34 29  1  0  0  0
 29 23  1  0  0  0
 23 24  2  0  0  0
 24 25  1  0  0  0
 25 26  2  0  0  0
 26 27  1  0  0  0
 27 28  2  0  0  0
 26  1  1  0  0  0
  1  2  2  0  0  0
  2  3  1  0  0  0
  3  4  1  0  0  0
  4  5  1  0  0  0
  5  6  1  0  0  0
  6  7  1  0  0  0
  7  8  1  0  0  0
  7  9  1  0  0  0
  9 10  1  0  0  0
 10 11  1  0  0  0
 11 12  1  0  0  0
 12 13  1  0  0  0
 13 14  1  0  0  0
 14 15  1  0  0  0
 15 16  2  0  0  0
 16 17  1  0  0  0
 17 18  2  0  0  0
 18 19  1  0  0  0
 19 20  2  0  0  0
 34 35  1  0  0  0
 35 36  1  0  0  0
 36 31  1  0  0  0
 28 23  1  0  0  0
 18  1  1  0  0  0
 19  3  1  0  0  0
 20 15  1  0  0  0
  8 21  1  0  0  0
 14 22  1  0  0  0
M  END
> <minimizedAffinity>
-9.75968

> <CNNscore>
0.6680583954

> <CNNaffinity>
6.9975600243

> <CNN_VS>
4.6747789383

> <CNNaffinity_variance>
0.2975295186

$$$$
[H]OC1([H])C([H])([H])C([H])([H])C([H])([H])n2c([H])c(-c3c([H])c([H])c(C([H])([H])N4C([H])([H])C([H])([H])N(C([H])([H])[H])C([H])([H])C4([H])[H])c([H])c3[H])c3c([H])nc(nc32)N([H])C([H])([H])C([H])([H])C([H])([H])C([H])([H])C1([H])[H]


 36 40  0  0  0  0  0  0  0  0999 V2000
    2.6311    5.0711   15.6785 C   0  0  0  0  0  0  0  0  0  0  0  0
    3.3972    5.9920   16.3743 C   0  0  0  0  0  0  0  0  0  0  0  0
    4.0251    5.3776   17.3981 N   0  0  0  0  0  0  0  0  0  0  0  0
    4.9507    5.8900   18.4217 C   0  0  0  0  0  0  0  0  0  0  0  0
    4.2739    6.3434   19.6633 C   0  0  0  0  0  0  0  0  0  0  0  0
    4.3337    5.4204   20.8352 C   0  0  0  0  0  0  0  0  0  0  0  0
    5.7153    4.9138   21.0701 C   0  0  0  0  0  0  0  0  0  0  0  0
    6.5880    5.9979   20.9949 O   0  0  0  0  0  0  0  0  0  0  0  0
    5.8991    4.2764   22.4294 C   0  0  0  0  0  0  0  0  0  0  0  0
    5.5503    2.8044   22.4514 C   0  0  0  0  0  0  0  0  0  0  0  0
    6.3613    1.9594   21.5350 C   0  0  0  0  0  0  0  0  0  0  0  0
    5.6123    0.8636   20.8329 C   0  0  0  0  0  0  0  0  0  0  0  0
    4.2661    1.2325   20.3219 C   0  0  0  0  0  0  0  0  0  0  0  0
    4.0379    0.9207   18.9239 N   0  0  0  0  0  0  0  0  0  0  0  0
    3.5907    1.8995   17.9900 C   0  0  0  0  0  0  0  0  0  0  0  0
    2.7482    1.6173   16.9814 N   0  0  0  0  0  0  0  0  0  0  0  0
    2.3204    2.5626   16.1059 C   0  0  0  0  0  0  0  0  0  0  0  0
    2.8028    3.8390   16.3113 C   0  0  0  0  0  0  0  0  0  0  0  0
    3.6593    4.1090   17.3412 C   0  0  0  0  0  0  0  0  0  0  0  0
    4.0497    3.1443   18.1743 N   0  0  0  0  0  0  0  0  0  0  0  0
    7.4424    5.6859   21.4132 H   0  0  0  0  0  0  0  0  0  0  0  0
    4.1959   -0.0452   18.5671 H   0  0  0  0  0  0  0  0  0  0  0  0
    0.2459    5.6312   12.1775 C   0  0  0  0  0  0  0  0  0  0  0  0
    1.1302    4.5913   12.3026 C   0  0  0  0  0  0  0  0  0  0  0  0
    1.8845    4.4395   13.4457 C   0  0  0  0  0  0  0  0  0  0  0  0
    1.7975    5.3064   14.5115 C   0  0  0  0  0  0  0  0  0  0  0  0
    0.9160    6.3573   14.4076 C   0  0  0  0  0  0  0  0  0  0  0  0
    0.1583    6.5120   13.2622 C   0  0  0  0  0  0  0  0  0  0  0  0
   -0.5914    5.8514   10.9709 C   0  0  0  0  0  0  0  0  0  0  0  0
   -4.9218    6.2445    8.9133 C   0  0  0  0  0  0  0  0  0  0  0  0
   -3.6340    5.9308    9.5505 N   0  0  0  0  0  0  0  0  0  0  0  0
   -3.1509    4.7160    8.9602 C   0  0  0  0  0  0  0  0  0  0  0  0
   -1.8339    4.3122    9.5779 C   0  0  0  0  0  0  0  0  0  0  0  0
   -1.6020    4.8518   10.8764 N   0  0  0  0  0  0  0  0  0  0  0  0
   -2.7621    5.0657   11.6738 C   0  0  0  0  0  0  0  0  0  0  0  0
   -3.9223    5.6768   10.9495 C   0  0  0  0  0  0  0  0  0  0  0  0
 30 31  1  0  0  0
 31 32  1  0  0  0
 32 33  1  0  0  0
 33 34  1  0  0  0
 34 29  1  0  0  0
 29 23  1  0  0  0
 23 24  2  0  0  0
 24 25  1  0  0  0
 25 26  2  0  0  0
 26 27  1  0  0  0
 27 28  2  0  0  0
 26  1  1  0  0  0
  1  2  2  0  0  0
  2  3  1  0  0  0
  3  4  1  0  0  0
  4  5  1  0  0  0
  5  6  1  0  0  0
  6  7  1  0  0  0
  7  8  1  0  0  0
  7  9  1  0  0  0
  9 10  1  0  0  0
 10 11  1  0  0  0
 11 12  1  0  0  0
 12 13  1  0  0  0
 13 14  1  0  0  0
 14 15  1  0  0  0
 15 16  2  0  0  0
 16 17  1  0  0  0
 17 18  2  0  0  0
 18 19  1  0  0  0
 19 20  2  0  0  0
 34 35  1  0  0  0
 35 36  1  0  0  0
 36 31  1  0  0  0
 28 23  1  0  0  0
 18  1  1  0  0  0
 19  3  1  0  0  0
 20 15  1  0  0  0
  8 21  1  0  0  0
 14 22  1  0  0  0
M  END
> <minimizedAffinity>
-9.10637

> <CNNscore>
0.4566038251

> <CNNaffinity>
6.5023469925

> <CNN_VS>
2.9689965248

> <CNNaffinity_variance>
0.5441831946

$$$$
[H]OC1([H])C([H])([H])C([H])([H])C([H])([H])n2c([H])c(-c3c([H])c([H])c(C([H])([H])N4C([H])([H])C([H])([H])N(C([H])([H])[H])C([H])([H])C4([H])[H])c([H])c3[H])c3c([H])nc(nc32)N([H])C([H])([H])C([H])([H])C([H])([H])C([H])([H])C1([H])[H]


 36 40  0  0  0  0  0  0  0  0999 V2000
    3.9882    4.7275   15.6149 C   0  0  0  0  0  0  0  0  0  0  0  0
    4.4800    5.6945   16.4765 C   0  0  0  0  0  0  0  0  0  0  0  0
    4.6738    5.1564   17.6982 N   0  0  0  0  0  0  0  0  0  0  0  0
    5.1820    5.7402   18.9504 C   0  0  0  0  0  0  0  0  0  0  0  0
    4.1167    6.2905   19.8264 C   0  0  0  0  0  0  0  0  0  0  0  0
    3.7175    5.4591   21.0005 C   0  0  0  0  0  0  0  0  0  0  0  0
    4.9028    4.9642   21.7560 C   0  0  0  0  0  0  0  0  0  0  0  0
    5.7785    6.0347   21.9288 O   0  0  0  0  0  0  0  0  0  0  0  0
    4.5607    4.4312   23.1296 C   0  0  0  0  0  0  0  0  0  0  0  0
    4.1796    2.9671   23.1247 C   0  0  0  0  0  0  0  0  0  0  0  0
    5.2393    2.0503   22.6265 C   0  0  0  0  0  0  0  0  0  0  0  0
    4.7600    0.9084   21.7775 C   0  0  0  0  0  0  0  0  0  0  0  0
    3.7033    1.2446   20.7878 C   0  0  0  0  0  0  0  0  0  0  0  0
    3.9869    0.8286   19.4275 N   0  0  0  0  0  0  0  0  0  0  0  0
    3.9407    1.7359   18.3299 C   0  0  0  0  0  0  0  0  0  0  0  0
    3.5121    1.3823   17.1059 N   0  0  0  0  0  0  0  0  0  0  0  0
    3.4617    2.2606   16.0718 C   0  0  0  0  0  0  0  0  0  0  0  0
    3.8785    3.5463   16.3501 C   0  0  0  0  0  0  0  0  0  0  0  0
    4.3121    3.8892   17.5998 C   0  0  0  0  0  0  0  0  0  0  0  0
    4.3424    2.9886   18.5822 N   0  0  0  0  0  0  0  0  0  0  0  0
    6.4126    5.7507   22.6497 H   0  0  0  0  0  0  0  0  0  0  0  0
    4.2317   -0.1625   19.2201 H   0  0  0  0  0  0  0  0  0  0  0  0
    2.8879    5.3048   11.5264 C   0  0  0  0  0  0  0  0  0  0  0  0
    2.4990    6.1673   12.5183 C   0  0  0  0  0  0  0  0  0  0  0  0
    2.8714    5.9519   13.8274 C   0  0  0  0  0  0  0  0  0  0  0  0
    3.6421    4.8779   14.2115 C   0  0  0  0  0  0  0  0  0  0  0  0
    4.0439    3.9994   13.2321 C   0  0  0  0  0  0  0  0  0  0  0  0
    3.6717    4.2130   11.9184 C   0  0  0  0  0  0  0  0  0  0  0  0
    2.5161    5.4794   10.0992 C   0  0  0  0  0  0  0  0  0  0  0  0
    3.4317    6.9486    5.6110 C   0  0  0  0  0  0  0  0  0  0  0  0
    3.1406    6.6906    7.0294 N   0  0  0  0  0  0  0  0  0  0  0  0
    2.1537    7.6461    7.4427 C   0  0  0  0  0  0  0  0  0  0  0  0
    1.8126    7.4604    8.9015 C   0  0  0  0  0  0  0  0  0  0  0  0
    2.8207    6.8010    9.6631 N   0  0  0  0  0  0  0  0  0  0  0  0
    4.1612    7.0192    9.2355 C   0  0  0  0  0  0  0  0  0  0  0  0
    4.3690    6.9590    7.7532 C   0  0  0  0  0  0  0  0  0  0  0  0
 30 31  1  0  0  0
 31 32  1  0  0  0
 32 33  1  0  0  0
 33 34  1  0  0  0
 34 29  1  0  0  0
 29 23  1  0  0  0
 23 24  2  0  0  0
 24 25  1  0  0  0
 25 26  2  0  0  0
 26 27  1  0  0  0
 27 28  2  0  0  0
 26  1  1  0  0  0
  1  2  2  0  0  0
  2  3  1  0  0  0
  3  4  1  0  0  0
  4  5  1  0  0  0
  5  6  1  0  0  0
  6  7  1  0  0  0
  7  8  1  0  0  0
  7  9  1  0  0  0
  9 10  1  0  0  0
 10 11  1  0  0  0
 11 12  1  0  0  0
 12 13  1  0  0  0
 13 14  1  0  0  0
 14 15  1  0  0  0
 15 16  2  0  0  0
 16 17  1  0  0  0
 17 18  2  0  0  0
 18 19  1  0  0  0
 19 20  2  0  0  0
 34 35  1  0  0  0
 35 36  1  0  0  0
 36 31  1  0  0  0
 28 23  1  0  0  0
 18  1  1  0  0  0
 19  3  1  0  0  0
 20 15  1  0  0  0
  8 21  1  0  0  0
 14 22  1  0  0  0
M  END
> <minimizedAffinity>
-8.59051

> <CNNscore>
0.4294156134

> <CNNaffinity>
6.6639685631

> <CNN_VS>
2.8616120815

> <CNNaffinity_variance>
0.6102285385

$$$$
[H]OC1([H])C([H])([H])C([H])([H])C([H])([H])n2c([H])c(-c3c([H])c([H])c(C([H])([H])N4C([H])([H])C([H])([H])N(C([H])([H])[H])C([H])([H])C4([H])[H])c([H])c3[H])c3c([H])nc(nc32)N([H])C([H])([H])C([H])([H])C([H])([H])C([H])([H])C1([H])[H]


 36 40  0  0  0  0  0  0  0  0999 V2000
    3.2516    4.3005   15.3183 C   0  0  0  0  0  0  0  0  0  0  0  0
    3.1010    2.9952   15.7575 C   0  0  0  0  0  0  0  0  0  0  0  0
    3.1846    2.9577   17.1035 N   0  0  0  0  0  0  0  0  0  0  0  0
    3.0838    1.8390   18.0550 C   0  0  0  0  0  0  0  0  0  0  0  0
    4.3907    1.2123   18.3781 C   0  0  0  0  0  0  0  0  0  0  0  0
    5.0023    1.5749   19.6909 C   0  0  0  0  0  0  0  0  0  0  0  0
    4.0157    1.4847   20.8041 C   0  0  0  0  0  0  0  0  0  0  0  0
    3.3251    0.2817   20.6684 O   0  0  0  0  0  0  0  0  0  0  0  0
    4.6541    1.4897   22.1753 C   0  0  0  0  0  0  0  0  0  0  0  0
    4.8760    2.8810   22.7263 C   0  0  0  0  0  0  0  0  0  0  0  0
    3.6383    3.6887   22.8927 C   0  0  0  0  0  0  0  0  0  0  0  0
    3.7632    5.1434   22.5423 C   0  0  0  0  0  0  0  0  0  0  0  0
    4.5493    5.4425   21.3168 C   0  0  0  0  0  0  0  0  0  0  0  0
    3.8780    6.2955   20.3547 N   0  0  0  0  0  0  0  0  0  0  0  0
    3.7214    5.9234   18.9882 C   0  0  0  0  0  0  0  0  0  0  0  0
    3.7756    6.8086   17.9781 N   0  0  0  0  0  0  0  0  0  0  0  0
    3.6370    6.4385   16.6793 C   0  0  0  0  0  0  0  0  0  0  0  0
    3.4356    5.0922   16.4528 C   0  0  0  0  0  0  0  0  0  0  0  0
    3.3823    4.2055   17.4911 C   0  0  0  0  0  0  0  0  0  0  0  0
    3.5244    4.6201   18.7501 N   0  0  0  0  0  0  0  0  0  0  0  0
    2.8789    0.1259   21.5510 H   0  0  0  0  0  0  0  0  0  0  0  0
    3.4918    7.2176   20.6476 H   0  0  0  0  0  0  0  0  0  0  0  0
    3.3039    5.6298   11.2575 C   0  0  0  0  0  0  0  0  0  0  0  0
    4.1475    4.6529   11.7193 C   0  0  0  0  0  0  0  0  0  0  0  0
    4.1045    4.2472   13.0355 C   0  0  0  0  0  0  0  0  0  0  0  0
    3.2284    4.7879   13.9494 C   0  0  0  0  0  0  0  0  0  0  0  0
    2.3724    5.7698   13.5075 C   0  0  0  0  0  0  0  0  0  0  0  0
    2.4134    6.1787   12.1879 C   0  0  0  0  0  0  0  0  0  0  0  0
    3.3042    6.1131    9.8533 C   0  0  0  0  0  0  0  0  0  0  0  0
    4.2052    8.7957    5.9632 C   0  0  0  0  0  0  0  0  0  0  0  0
    3.9146    8.1460    7.2502 N   0  0  0  0  0  0  0  0  0  0  0  0
    2.9079    8.9297    7.9059 C   0  0  0  0  0  0  0  0  0  0  0  0
    2.5658    8.3371    9.2515 C   0  0  0  0  0  0  0  0  0  0  0  0
    3.5842    7.5091    9.8069 N   0  0  0  0  0  0  0  0  0  0  0  0
    4.9215    7.8624    9.4689 C   0  0  0  0  0  0  0  0  0  0  0  0
    5.1352    8.2231    8.0307 C   0  0  0  0  0  0  0  0  0  0  0  0
 30 31  1  0  0  0
 31 32  1  0  0  0
 32 33  1  0  0  0
 33 34  1  0  0  0
 34 29  1  0  0  0
 29 23  1  0  0  0
 23 24  2  0  0  0
 24 25  1  0  0  0
 25 26  2  0  0  0
 26 27  1  0  0  0
 27 28  2  0  0  0
 26  1  1  0  0  0
  1  2  2  0  0  0
  2  3  1  0  0  0
  3  4  1  0  0  0
  4  5  1  0  0  0
  5  6  1  0  0  0
  6  7  1  0  0  0
  7  8  1  0  0  0
  7  9  1  0  0  0
  9 10  1  0  0  0
 10 11  1  0  0  0
 11 12  1  0  0  0
 12 13  1  0  0  0
 13 14  1  0  0  0
 14 15  1  0  0  0
 15 16  2  0  0  0
 16 17  1  0  0  0
 17 18  2  0  0  0
 18 19  1  0  0  0
 19 20  2  0  0  0
 34 35  1  0  0  0
 35 36  1  0  0  0
 36 31  1  0  0  0
 28 23  1  0  0  0
 18  1  1  0  0  0
 19  3  1  0  0  0
 20 15  1  0  0  0
  8 21  1  0  0  0
 14 22  1  0  0  0
M  END
> <minimizedAffinity>
-9.00344

> <CNNscore>
0.2595266104

> <CNNaffinity>
6.1377892494

> <CNN_VS>
1.5929195881

> <CNNaffinity_variance>
0.2247331589

$$$$
[H]OC1([H])C([H])([H])C([H])([H])C([H])([H])n2c([H])c(-c3c([H])c([H])c(C([H])([H])N4C([H])([H])C([H])([H])N(C([H])([H])[H])C([H])([H])C4([H])[H])c([H])c3[H])c3c([H])nc(nc32)N([H])C([H])([H])C([H])([H])C([H])([H])C([H])([H])C1([H])[H]


 36 40  0  0  0  0  0  0  0  0999 V2000
    3.0465    3.6347   14.4030 C   0  0  0  0  0  0  0  0  0  0  0  0
    2.3547    2.4736   14.7076 C   0  0  0  0  0  0  0  0  0  0  0  0
    2.4896    2.1973   16.0211 N   0  0  0  0  0  0  0  0  0  0  0  0
    1.9548    1.1014   16.8460 C   0  0  0  0  0  0  0  0  0  0  0  0
    2.8609   -0.0714   16.9383 C   0  0  0  0  0  0  0  0  0  0  0  0
    3.6440   -0.2164   18.2011 C   0  0  0  0  0  0  0  0  0  0  0  0
    2.7863   -0.0397   19.4068 C   0  0  0  0  0  0  0  0  0  0  0  0
    1.6250   -0.7875   19.2201 O   0  0  0  0  0  0  0  0  0  0  0  0
    3.4371   -0.5229   20.6838 C   0  0  0  0  0  0  0  0  0  0  0  0
    4.2875    0.5315   21.3574 C   0  0  0  0  0  0  0  0  0  0  0  0
    3.5520    1.7598   21.7600 C   0  0  0  0  0  0  0  0  0  0  0  0
    4.2926    3.0510   21.5630 C   0  0  0  0  0  0  0  0  0  0  0  0
    5.0580    3.1640   20.2939 C   0  0  0  0  0  0  0  0  0  0  0  0
    4.7840    4.3603   19.5208 N   0  0  0  0  0  0  0  0  0  0  0  0
    4.4000    4.3079   18.1497 C   0  0  0  0  0  0  0  0  0  0  0  0
    4.7856    5.2255   17.2463 N   0  0  0  0  0  0  0  0  0  0  0  0
    4.4224    5.1566   15.9400 C   0  0  0  0  0  0  0  0  0  0  0  0
    3.6289    4.0835   15.5893 C   0  0  0  0  0  0  0  0  0  0  0  0
    3.2451    3.1597   16.5202 C   0  0  0  0  0  0  0  0  0  0  0  0
    3.6290    3.2727   17.7918 N   0  0  0  0  0  0  0  0  0  0  0  0
    1.2074   -0.8679   20.1265 H   0  0  0  0  0  0  0  0  0  0  0  0
    4.8673    5.3015   19.9596 H   0  0  0  0  0  0  0  0  0  0  0  0
    3.2398    5.6038   10.6156 C   0  0  0  0  0  0  0  0  0  0  0  0
    2.1060    5.6078   11.3861 C   0  0  0  0  0  0  0  0  0  0  0  0
    2.0774    4.9626   12.6034 C   0  0  0  0  0  0  0  0  0  0  0  0
    3.1649    4.2878   13.1102 C   0  0  0  0  0  0  0  0  0  0  0  0
    4.3136    4.2711   12.3535 C   0  0  0  0  0  0  0  0  0  0  0  0
    4.3451    4.9172   11.1323 C   0  0  0  0  0  0  0  0  0  0  0  0
    3.3325    6.2759    9.2946 C   0  0  0  0  0  0  0  0  0  0  0  0
    2.3386    8.9383    5.4132 C   0  0  0  0  0  0  0  0  0  0  0  0
    2.4610    8.1703    6.6615 N   0  0  0  0  0  0  0  0  0  0  0  0
    1.2013    7.5232    6.8893 C   0  0  0  0  0  0  0  0  0  0  0  0
    1.2378    6.7253    8.1704 C   0  0  0  0  0  0  0  0  0  0  0  0
    2.2266    7.1534    9.1033 N   0  0  0  0  0  0  0  0  0  0  0  0
    2.5340    8.5435    9.0847 C   0  0  0  0  0  0  0  0  0  0  0  0
    2.6747    9.1411    7.7183 C   0  0  0  0  0  0  0  0  0  0  0  0
 30 31  1  0  0  0
 31 32  1  0  0  0
 32 33  1  0  0  0
 33 34  1  0  0  0
 34 29  1  0  0  0
 29 23  1  0  0  0
 23 24  2  0  0  0
 24 25  1  0  0  0
 25 26  2  0  0  0
 26 27  1  0  0  0
 27 28  2  0  0  0
 26  1  1  0  0  0
  1  2  2  0  0  0
  2  3  1  0  0  0
  3  4  1  0  0  0
  4  5  1  0  0  0
  5  6  1  0  0  0
  6  7  1  0  0  0
  7  8  1  0  0  0
  7  9  1  0  0  0
  9 10  1  0  0  0
 10 11  1  0  0  0
 11 12  1  0  0  0
 12 13  1  0  0  0
 13 14  1  0  0  0
 14 15  1  0  0  0
 15 16  2  0  0  0
 16 17  1  0  0  0
 17 18  2  0  0  0
 18 19  1  0  0  0
 19 20  2  0  0  0
 34 35  1  0  0  0
 35 36  1  0  0  0
 36 31  1  0  0  0
 28 23  1  0  0  0
 18  1  1  0  0  0
 19  3  1  0  0  0
 20 15  1  0  0  0
  8 21  1  0  0  0
 14 22  1  0  0  0
M  END
> <minimizedAffinity>
-7.96026

> <CNNscore>
0.2484721839

> <CNNaffinity>
5.9523034096

> <CNN_VS>
1.4789818525

> <CNNaffinity_variance>
0.0795398206

$$$$
[H]OC1([H])C([H])([H])C([H])([H])C([H])([H])n2c([H])c(-c3c([H])c([H])c(C([H])([H])N4C([H])([H])C([H])([H])N(C([H])([H])[H])C([H])([H])C4([H])[H])c([H])c3[H])c3c([H])nc(nc32)N([H])C([H])([H])C([H])([H])C([H])([H])C([H])([H])C1([H])[H]


 36 40  0  0  0  0  0  0  0  0999 V2000
    3.4493    2.9175   15.6504 C   0  0  0  0  0  0  0  0  0  0  0  0
    3.4561    1.7355   16.3730 C   0  0  0  0  0  0  0  0  0  0  0  0
    3.5175    2.0113   17.6921 N   0  0  0  0  0  0  0  0  0  0  0  0
    3.5403    1.1306   18.8715 C   0  0  0  0  0  0  0  0  0  0  0  0
    4.9093    0.7639   19.3147 C   0  0  0  0  0  0  0  0  0  0  0  0
    5.4446    1.4862   20.5067 C   0  0  0  0  0  0  0  0  0  0  0  0
    4.4558    1.5227   21.6210 C   0  0  0  0  0  0  0  0  0  0  0  0
    3.9254    0.2419   21.7655 O   0  0  0  0  0  0  0  0  0  0  0  0
    5.0617    1.9158   22.9499 C   0  0  0  0  0  0  0  0  0  0  0  0
    5.0954    3.4119   23.1722 C   0  0  0  0  0  0  0  0  0  0  0  0
    3.7627    4.0719   23.1647 C   0  0  0  0  0  0  0  0  0  0  0  0
    3.7098    5.4150   22.4954 C   0  0  0  0  0  0  0  0  0  0  0  0
    4.4755    5.5297   21.2266 C   0  0  0  0  0  0  0  0  0  0  0  0
    3.7208    6.0528   20.1039 N   0  0  0  0  0  0  0  0  0  0  0  0
    3.6390    5.3674   18.8574 C   0  0  0  0  0  0  0  0  0  0  0  0
    3.6007    6.0034   17.6738 N   0  0  0  0  0  0  0  0  0  0  0  0
    3.5352    5.3372   16.4927 C   0  0  0  0  0  0  0  0  0  0  0  0
    3.5098    3.9600   16.5763 C   0  0  0  0  0  0  0  0  0  0  0  0
    3.5486    3.3290   17.7877 C   0  0  0  0  0  0  0  0  0  0  0  0
    3.6128    4.0296   18.9200 N   0  0  0  0  0  0  0  0  0  0  0  0
    3.4853    0.2322   22.6647 H   0  0  0  0  0  0  0  0  0  0  0  0
    3.2157    6.9603   20.1859 H   0  0  0  0  0  0  0  0  0  0  0  0
    3.1870    3.2577   11.3989 C   0  0  0  0  0  0  0  0  0  0  0  0
    2.5738    2.2464   12.0919 C   0  0  0  0  0  0  0  0  0  0  0  0
    2.6784    2.1659   13.4636 C   0  0  0  0  0  0  0  0  0  0  0  0
    3.3914    3.0789   14.2073 C   0  0  0  0  0  0  0  0  0  0  0  0
    4.0149    4.1025   13.5321 C   0  0  0  0  0  0  0  0  0  0  0  0
    3.9117    4.1855   12.1565 C   0  0  0  0  0  0  0  0  0  0  0  0
    3.1156    3.3967    9.9221 C   0  0  0  0  0  0  0  0  0  0  0  0
    1.5904    6.4811    6.5604 C   0  0  0  0  0  0  0  0  0  0  0  0
    1.8738    5.4650    7.5852 N   0  0  0  0  0  0  0  0  0  0  0  0
    1.1970    4.2628    7.1922 C   0  0  0  0  0  0  0  0  0  0  0  0
    1.4226    3.1697    8.2087 C   0  0  0  0  0  0  0  0  0  0  0  0
    1.7737    3.6369    9.5085 N   0  0  0  0  0  0  0  0  0  0  0  0
    1.2260    4.8971    9.8818 C   0  0  0  0  0  0  0  0  0  0  0  0
    1.2733    5.9474    8.8147 C   0  0  0  0  0  0  0  0  0  0  0  0
 30 31  1  0  0  0
 31 32  1  0  0  0
 32 33  1  0  0  0
 33 34  1  0  0  0
 34 29  1  0  0  0
 29 23  1  0  0  0
 23 24  2  0  0  0
 24 25  1  0  0  0
 25 26  2  0  0  0
 26 27  1  0  0  0
 27 28  2  0  0  0
 26  1  1  0  0  0
  1  2  2  0  0  0
  2  3  1  0  0  0
  3  4  1  0  0  0
  4  5  1  0  0  0
  5  6  1  0  0  0
  6  7  1  0  0  0
  7  8  1  0  0  0
  7  9  1  0  0  0
  9 10  1  0  0  0
 10 11  1  0  0  0
 11 12  1  0  0  0
 12 13  1  0  0  0
 13 14  1  0  0  0
 14 15  1  0  0  0
 15 16  2  0  0  0
 16 17  1  0  0  0
 17 18  2  0  0  0
 18 19  1  0  0  0
 19 20  2  0  0  0
 34 35  1  0  0  0
 35 36  1  0  0  0
 36 31  1  0  0  0
 28 23  1  0  0  0
 18  1  1  0  0  0
 19  3  1  0  0  0
 20 15  1  0  0  0
  8 21  1  0  0  0
 14 22  1  0  0  0
M  END
> <minimizedAffinity>
-8.71876

> <CNNscore>
0.2444584072

> <CNNaffinity>
6.2416086197

> <CNN_VS>
1.5258136988

> <CNNaffinity_variance>
0.1609900892

$$$$
[H]OC1([H])C([H])([H])C([H])([H])C([H])([H])n2c([H])c(-c3c([H])c([H])c(C([H])([H])N4C([H])([H])C([H])([H])N(C([H])([H])[H])C([H])([H])C4([H])[H])c([H])c3[H])c3c([H])nc(nc32)N([H])C([H])([H])C([H])([H])C([H])([H])C([H])([H])C1([H])[H]


 36 40  0  0  0  0  0  0  0  0999 V2000
    3.5664    5.5083   15.3626 C   0  0  0  0  0  0  0  0  0  0  0  0
    4.2320    6.3849   16.2040 C   0  0  0  0  0  0  0  0  0  0  0  0
    4.6588    5.7246   17.3002 N   0  0  0  0  0  0  0  0  0  0  0  0
    5.4136    6.1798   18.4793 C   0  0  0  0  0  0  0  0  0  0  0  0
    4.5512    6.6272   19.6023 C   0  0  0  0  0  0  0  0  0  0  0  0
    4.3838    5.6752   20.7401 C   0  0  0  0  0  0  0  0  0  0  0  0
    5.6897    5.1148   21.1887 C   0  0  0  0  0  0  0  0  0  0  0  0
    6.5954    6.1690   21.2929 O   0  0  0  0  0  0  0  0  0  0  0  0
    5.6217    4.4393   22.5403 C   0  0  0  0  0  0  0  0  0  0  0  0
    5.2291    2.9804   22.4604 C   0  0  0  0  0  0  0  0  0  0  0  0
    6.1569    2.1293   21.6688 C   0  0  0  0  0  0  0  0  0  0  0  0
    5.5038    1.0775   20.8191 C   0  0  0  0  0  0  0  0  0  0  0  0
    4.2753    1.5055   20.1004 C   0  0  0  0  0  0  0  0  0  0  0  0
    4.2769    1.2352   18.6753 N   0  0  0  0  0  0  0  0  0  0  0  0
    4.0240    2.2510   17.7087 C   0  0  0  0  0  0  0  0  0  0  0  0
    3.3557    2.0226   16.5650 N   0  0  0  0  0  0  0  0  0  0  0  0
    3.1111    3.0029   15.6581 C   0  0  0  0  0  0  0  0  0  0  0  0
    3.5909    4.2563   15.9789 C   0  0  0  0  0  0  0  0  0  0  0  0
    4.2691    4.4715   17.1455 C   0  0  0  0  0  0  0  0  0  0  0  0
    4.4834    3.4742   18.0038 N   0  0  0  0  0  0  0  0  0  0  0  0
    7.3569    5.8172   21.8395 H   0  0  0  0  0  0  0  0  0  0  0  0
    4.4631    0.2731   18.3220 H   0  0  0  0  0  0  0  0  0  0  0  0
    1.6719    6.4903   11.6605 C   0  0  0  0  0  0  0  0  0  0  0  0
    1.4392    7.1964   12.8122 C   0  0  0  0  0  0  0  0  0  0  0  0
    2.0670    6.8531   13.9898 C   0  0  0  0  0  0  0  0  0  0  0  0
    2.9495    5.8004   14.0797 C   0  0  0  0  0  0  0  0  0  0  0  0
    3.1980    5.0780   12.9357 C   0  0  0  0  0  0  0  0  0  0  0  0
    2.5696    5.4201   11.7533 C   0  0  0  0  0  0  0  0  0  0  0  0
    1.0239    6.8075   10.3624 C   0  0  0  0  0  0  0  0  0  0  0  0
    1.0502    9.9057    6.6826 C   0  0  0  0  0  0  0  0  0  0  0  0
    1.2279    8.9169    7.7567 N   0  0  0  0  0  0  0  0  0  0  0  0
    2.5543    9.0853    8.2762 C   0  0  0  0  0  0  0  0  0  0  0  0
    2.8246    8.0877    9.3766 C   0  0  0  0  0  0  0  0  0  0  0  0
    2.0017    6.9249    9.3330 N   0  0  0  0  0  0  0  0  0  0  0  0
    1.5895    6.5069    8.0358 C   0  0  0  0  0  0  0  0  0  0  0  0
    1.1450    7.6121    7.1276 C   0  0  0  0  0  0  0  0  0  0  0  0
 30 31  1  0  0  0
 31 32  1  0  0  0
 32 33  1  0  0  0
 33 34  1  0  0  0
 34 29  1  0  0  0
 29 23  1  0  0  0
 23 24  2  0  0  0
 24 25  1  0  0  0
 25 26  2  0  0  0
 26 27  1  0  0  0
 27 28  2  0  0  0
 26  1  1  0  0  0
  1  2  2  0  0  0
  2  3  1  0  0  0
  3  4  1  0  0  0
  4  5  1  0  0  0
  5  6  1  0  0  0
  6  7  1  0  0  0
  7  8  1  0  0  0
  7  9  1  0  0  0
  9 10  1  0  0  0
 10 11  1  0  0  0
 11 12  1  0  0  0
 12 13  1  0  0  0
 13 14  1  0  0  0
 14 15  1  0  0  0
 15 16  2  0  0  0
 16 17  1  0  0  0
 17 18  2  0  0  0
 18 19  1  0  0  0
 19 20  2  0  0  0
 34 35  1  0  0  0
 35 36  1  0  0  0
 36 31  1  0  0  0
 28 23  1  0  0  0
 18  1  1  0  0  0
 19  3  1  0  0  0
 20 15  1  0  0  0
  8 21  1  0  0  0
 14 22  1  0  0  0
M  END
> <minimizedAffinity>
-8.80459

> <CNNscore>
0.2353696227

> <CNNaffinity>
6.2834076881

> <CNN_VS>
1.4789233208

> <CNNaffinity_variance>
0.4843867421

$$$$
[H]OC1([H])C([H])([H])C([H])([H])C([H])(N([H])c2nc(N([H])C([H])([H])C([H])([H])C([H])([H])C([H])([H])[H])nc([H])c2-c2nc([H])c(C([H])([H])C([H])([H])N3C([H])([H])C([H])([H])N(C([H])([H])[H])C([H])([H])C3([H])[H])c([H])c2[H])C([H])([H])C1([H])[H]


 37 40  0  0  0  0  0  0  0  0999 V2000
    2.9632    0.1004   18.8766 C   0  0  0  0  0  0  0  0  0  0  0  0
    2.3013   -0.3131   17.7785 N   0  0  0  0  0  0  0  0  0  0  0  0
    2.2963    0.4285   16.6831 C   0  0  0  0  0  0  0  0  0  0  0  0
    2.9687    1.6727   16.5959 C   0  0  0  0  0  0  0  0  0  0  0  0
    3.6143    2.0552   17.7130 C   0  0  0  0  0  0  0  0  0  0  0  0
    3.6107    1.2672   18.8461 N   0  0  0  0  0  0  0  0  0  0  0  0
    2.8977    2.4214   15.3615 C   0  0  0  0  0  0  0  0  0  0  0  0
    3.0190    1.9156   14.0978 C   0  0  0  0  0  0  0  0  0  0  0  0
    2.8467    2.6923   12.9422 C   0  0  0  0  0  0  0  0  0  0  0  0
    2.5388    4.0289   13.0412 C   0  0  0  0  0  0  0  0  0  0  0  0
    2.4190    4.5201   14.3240 C   0  0  0  0  0  0  0  0  0  0  0  0
    2.5882    3.7624   15.4077 N   0  0  0  0  0  0  0  0  0  0  0  0
    2.3386    4.9171   11.8677 C   0  0  0  0  0  0  0  0  0  0  0  0
    3.1057    4.4042   10.6565 C   0  0  0  0  0  0  0  0  0  0  0  0
    4.2437    5.2733   10.4493 N   0  0  0  0  0  0  0  0  0  0  0  0
    5.4909    4.6228   10.7960 C   0  0  0  0  0  0  0  0  0  0  0  0
    6.6719    5.5289   10.6469 C   0  0  0  0  0  0  0  0  0  0  0  0
    6.4402    6.6016    9.7020 N   0  0  0  0  0  0  0  0  0  0  0  0
    5.9129    7.7878   10.3485 C   0  0  0  0  0  0  0  0  0  0  0  0
    5.5691    6.1899    8.6198 C   0  0  0  0  0  0  0  0  0  0  0  0
    4.2061    5.7706    9.1065 C   0  0  0  0  0  0  0  0  0  0  0  0
    2.9494   -0.7278   20.0376 N   0  0  0  0  0  0  0  0  0  0  0  0
    2.3622   -1.5860   20.0238 H   0  0  0  0  0  0  0  0  0  0  0  0
    3.7429   -0.3510   21.1802 C   0  0  0  0  0  0  0  0  0  0  0  0
    3.0235    0.7003   22.0074 C   0  0  0  0  0  0  0  0  0  0  0  0
    5.3561    1.3804   21.8547 C   0  0  0  0  0  0  0  0  0  0  0  0
    4.0011    1.7811   22.4150 C   0  0  0  0  0  0  0  0  0  0  0  0
    4.2246    3.3367   17.8434 N   0  0  0  0  0  0  0  0  0  0  0  0
    4.7047    3.8409   17.1084 H   0  0  0  0  0  0  0  0  0  0  0  0
    4.1151    4.0480   19.1347 C   0  0  0  0  0  0  0  0  0  0  0  0
    3.2307    5.2284   18.9146 C   0  0  0  0  0  0  0  0  0  0  0  0
    3.8891    6.4655   19.5420 C   0  0  0  0  0  0  0  0  0  0  0  0
    4.2596    6.0532   20.9681 C   0  0  0  0  0  0  0  0  0  0  0  0
    4.4205    7.1437   21.7877 O   0  0  0  0  0  0  0  0  0  0  0  0
    5.5101    5.2019   20.8607 C   0  0  0  0  0  0  0  0  0  0  0  0
    5.4944    4.3569   19.6065 C   0  0  0  0  0  0  0  0  0  0  0  0
    5.3213    7.5247   21.7260 H   0  0  0  0  0  0  0  0  0  0  0  0
 26 27  1  0  0  0
 27 25  1  0  0  0
 25 24  1  0  0  0
 24 22  1  0  0  0
 22  1  1  0  0  0
  1  2  2  0  0  0
  2  3  1  0  0  0
  3  4  2  0  0  0
  4  5  1  0  0  0
  5 28  1  0  0  0
 28 30  1  0  0  0
 30 31  1  0  0  0
 31 32  1  0  0  0
 32 33  1  0  0  0
 33 34  1  0  0  0
 33 35  1  0  0  0
 35 36  1  0  0  0
  5  6  2  0  0  0
  4  7  1  0  0  0
  7  8  2  0  0  0
  8  9  1  0  0  0
  9 10  2  0  0  0
 10 13  1  0  0  0
 13 14  1  0  0  0
 14 15  1  0  0  0
 15 16  1  0  0  0
 16 17  1  0  0  0
 17 18  1  0  0  0
 18 19  1  0  0  0
 18 20  1  0  0  0
 20 21  1  0  0  0
 10 11  1  0  0  0
 11 12  2  0  0  0
  6  1  1  0  0  0
 12  7  1  0  0  0
 36 30  1  0  0  0
 21 15  1  0  0  0
 22 23  1  0  0  0
 28 29  1  0  0  0
 34 37  1  0  0  0
M  END
> <minimizedAffinity>
-8.03020

> <CNNscore>
0.9726474881

> <CNNaffinity>
7.6263985634

> <CNN_VS>
7.4177975655

> <CNNaffinity_variance>
0.0441099405

$$$$
[H]OC1([H])C([H])([H])C([H])([H])C([H])(N([H])c2nc(N([H])C([H])([H])C([H])([H])C([H])([H])C([H])([H])[H])nc([H])c2-c2nc([H])c(C([H])([H])C([H])([H])N3C([H])([H])C([H])([H])N(C([H])([H])[H])C([H])([H])C3([H])[H])c([H])c2[H])C([H])([H])C1([H])[H]


 37 40  0  0  0  0  0  0  0  0999 V2000
    2.9612    0.0360   19.0804 C   0  0  0  0  0  0  0  0  0  0  0  0
    2.3900   -0.4178   17.9479 N   0  0  0  0  0  0  0  0  0  0  0  0
    2.5114    0.2625   16.8199 C   0  0  0  0  0  0  0  0  0  0  0  0
    3.2307    1.4801   16.7320 C   0  0  0  0  0  0  0  0  0  0  0  0
    3.7829    1.9044   17.8835 C   0  0  0  0  0  0  0  0  0  0  0  0
    3.6479    1.1802   19.0506 N   0  0  0  0  0  0  0  0  0  0  0  0
    3.2995    2.1617   15.4592 C   0  0  0  0  0  0  0  0  0  0  0  0
    2.7763    1.7239   14.2751 C   0  0  0  0  0  0  0  0  0  0  0  0
    2.8035    2.4860   13.0974 C   0  0  0  0  0  0  0  0  0  0  0  0
    3.3721    3.7381   13.0913 C   0  0  0  0  0  0  0  0  0  0  0  0
    3.8927    4.1628   14.2954 C   0  0  0  0  0  0  0  0  0  0  0  0
    3.8561    3.4201   15.4018 N   0  0  0  0  0  0  0  0  0  0  0  0
    3.4382    4.6068   11.8884 C   0  0  0  0  0  0  0  0  0  0  0  0
    2.9097    6.0022   12.1919 C   0  0  0  0  0  0  0  0  0  0  0  0
    1.4651    5.9332   12.2282 N   0  0  0  0  0  0  0  0  0  0  0  0
    0.8987    6.9240   13.1208 C   0  0  0  0  0  0  0  0  0  0  0  0
   -0.5908    6.8248   13.2177 C   0  0  0  0  0  0  0  0  0  0  0  0
   -1.1888    6.2053   12.0533 N   0  0  0  0  0  0  0  0  0  0  0  0
   -1.3217    4.7700   12.2121 C   0  0  0  0  0  0  0  0  0  0  0  0
   -0.4553    6.5111   10.8418 C   0  0  0  0  0  0  0  0  0  0  0  0
    0.9654    6.0112   10.8880 C   0  0  0  0  0  0  0  0  0  0  0  0
    2.8121   -0.7266   20.2764 N   0  0  0  0  0  0  0  0  0  0  0  0
    2.0968   -1.4812   20.2938 H   0  0  0  0  0  0  0  0  0  0  0  0
    3.6506   -0.4285   21.4100 C   0  0  0  0  0  0  0  0  0  0  0  0
    3.0939    0.7486   22.1919 C   0  0  0  0  0  0  0  0  0  0  0  0
    4.4697    1.9254   23.8196 C   0  0  0  0  0  0  0  0  0  0  0  0
    4.1609    1.8121   22.3356 C   0  0  0  0  0  0  0  0  0  0  0  0
    4.4216    3.1730   18.0040 N   0  0  0  0  0  0  0  0  0  0  0  0
    4.9673    3.6314   17.2850 H   0  0  0  0  0  0  0  0  0  0  0  0
    4.2438    3.9423   19.2538 C   0  0  0  0  0  0  0  0  0  0  0  0
    3.3711    5.1085   18.9336 C   0  0  0  0  0  0  0  0  0  0  0  0
    3.9944    6.3753   19.5372 C   0  0  0  0  0  0  0  0  0  0  0  0
    4.2900    6.0299   20.9982 C   0  0  0  0  0  0  0  0  0  0  0  0
    4.4066    7.1574   21.7741 O   0  0  0  0  0  0  0  0  0  0  0  0
    5.5452    5.1788   20.9957 C   0  0  0  0  0  0  0  0  0  0  0  0
    5.5962    4.2772   19.7825 C   0  0  0  0  0  0  0  0  0  0  0  0
    5.3090    7.5381   21.7423 H   0  0  0  0  0  0  0  0  0  0  0  0
 26 27  1  0  0  0
 27 25  1  0  0  0
 25 24  1  0  0  0
 24 22  1  0  0  0
 22  1  1  0  0  0
  1  2  2  0  0  0
  2  3  1  0  0  0
  3  4  2  0  0  0
  4  5  1  0  0  0
  5 28  1  0  0  0
 28 30  1  0  0  0
 30 31  1  0  0  0
 31 32  1  0  0  0
 32 33  1  0  0  0
 33 34  1  0  0  0
 33 35  1  0  0  0
 35 36  1  0  0  0
  5  6  2  0  0  0
  4  7  1  0  0  0
  7  8  2  0  0  0
  8  9  1  0  0  0
  9 10  2  0  0  0
 10 13  1  0  0  0
 13 14  1  0  0  0
 14 15  1  0  0  0
 15 16  1  0  0  0
 16 17  1  0  0  0
 17 18  1  0  0  0
 18 19  1  0  0  0
 18 20  1  0  0  0
 20 21  1  0  0  0
 10 11  1  0  0  0
 11 12  2  0  0  0
  6  1  1  0  0  0
 12  7  1  0  0  0
 36 30  1  0  0  0
 21 15  1  0  0  0
 22 23  1  0  0  0
 28 29  1  0  0  0
 34 37  1  0  0  0
M  END
> <minimizedAffinity>
-8.73955

> <CNNscore>
0.9654981494

> <CNNaffinity>
7.7298250198

> <CNN_VS>
7.4631319046

> <CNNaffinity_variance>
0.1177435368

$$$$
[H]OC1([H])C([H])([H])C([H])([H])C([H])(N([H])c2nc(N([H])C([H])([H])C([H])([H])C([H])([H])C([H])([H])[H])nc([H])c2-c2nc([H])c(C([H])([H])C([H])([H])N3C([H])([H])C([H])([H])N(C([H])([H])[H])C([H])([H])C3([H])[H])c([H])c2[H])C([H])([H])C1([H])[H]


 37 40  0  0  0  0  0  0  0  0999 V2000
    3.0245    0.0474   19.0324 C   0  0  0  0  0  0  0  0  0  0  0  0
    2.4372   -0.3822   17.8987 N   0  0  0  0  0  0  0  0  0  0  0  0
    2.5430    0.3218   16.7837 C   0  0  0  0  0  0  0  0  0  0  0  0
    3.2617    1.5407   16.7114 C   0  0  0  0  0  0  0  0  0  0  0  0
    3.8304    1.9404   17.8637 C   0  0  0  0  0  0  0  0  0  0  0  0
    3.7114    1.1917   19.0170 N   0  0  0  0  0  0  0  0  0  0  0  0
    3.3129    2.2491   15.4524 C   0  0  0  0  0  0  0  0  0  0  0  0
    2.8573    1.7948   14.2468 C   0  0  0  0  0  0  0  0  0  0  0  0
    2.8582    2.5784   13.0831 C   0  0  0  0  0  0  0  0  0  0  0  0
    3.3293    3.8700   13.1138 C   0  0  0  0  0  0  0  0  0  0  0  0
    3.7828    4.3107   14.3391 C   0  0  0  0  0  0  0  0  0  0  0  0
    3.7728    3.5469   15.4317 N   0  0  0  0  0  0  0  0  0  0  0  0
    3.3616    4.7634   11.9277 C   0  0  0  0  0  0  0  0  0  0  0  0
    2.4534    5.9693   12.1265 C   0  0  0  0  0  0  0  0  0  0  0  0
    3.1425    6.9093   12.9837 N   0  0  0  0  0  0  0  0  0  0  0  0
    4.2862    7.5052   12.3234 C   0  0  0  0  0  0  0  0  0  0  0  0
    5.0465    8.4327   13.2175 C   0  0  0  0  0  0  0  0  0  0  0  0
    4.2334    8.9729   14.2873 N   0  0  0  0  0  0  0  0  0  0  0  0
    4.2965    8.1531   15.4818 C   0  0  0  0  0  0  0  0  0  0  0  0
    2.8560    9.1593   13.8779 C   0  0  0  0  0  0  0  0  0  0  0  0
    2.1961    7.8663   13.4740 C   0  0  0  0  0  0  0  0  0  0  0  0
    2.8919   -0.7403   20.2139 N   0  0  0  0  0  0  0  0  0  0  0  0
    2.2196   -1.5335   20.2046 H   0  0  0  0  0  0  0  0  0  0  0  0
    3.6875   -0.4134   21.3704 C   0  0  0  0  0  0  0  0  0  0  0  0
    3.0751    0.7515   22.1287 C   0  0  0  0  0  0  0  0  0  0  0  0
    5.4458    1.2583   21.9063 C   0  0  0  0  0  0  0  0  0  0  0  0
    4.1737    1.6611   22.6342 C   0  0  0  0  0  0  0  0  0  0  0  0
    4.4714    3.2060   18.0020 N   0  0  0  0  0  0  0  0  0  0  0  0
    5.0314    3.6659   17.2950 H   0  0  0  0  0  0  0  0  0  0  0  0
    4.2743    3.9697   19.2523 C   0  0  0  0  0  0  0  0  0  0  0  0
    3.3906    5.1264   18.9281 C   0  0  0  0  0  0  0  0  0  0  0  0
    3.9940    6.3987   19.5402 C   0  0  0  0  0  0  0  0  0  0  0  0
    4.2816    6.0529   21.0026 C   0  0  0  0  0  0  0  0  0  0  0  0
    4.3785    7.1795   21.7825 O   0  0  0  0  0  0  0  0  0  0  0  0
    5.5467    5.2165   21.0082 C   0  0  0  0  0  0  0  0  0  0  0  0
    5.6183    4.3190   19.7930 C   0  0  0  0  0  0  0  0  0  0  0  0
    5.2766    7.5709   21.7591 H   0  0  0  0  0  0  0  0  0  0  0  0
 26 27  1  0  0  0
 27 25  1  0  0  0
 25 24  1  0  0  0
 24 22  1  0  0  0
 22  1  1  0  0  0
  1  2  2  0  0  0
  2  3  1  0  0  0
  3  4  2  0  0  0
  4  5  1  0  0  0
  5 28  1  0  0  0
 28 30  1  0  0  0
 30 31  1  0  0  0
 31 32  1  0  0  0
 32 33  1  0  0  0
 33 34  1  0  0  0
 33 35  1  0  0  0
 35 36  1  0  0  0
  5  6  2  0  0  0
  4  7  1  0  0  0
  7  8  2  0  0  0
  8  9  1  0  0  0
  9 10  2  0  0  0
 10 13  1  0  0  0
 13 14  1  0  0  0
 14 15  1  0  0  0
 15 16  1  0  0  0
 16 17  1  0  0  0
 17 18  1  0  0  0
 18 19  1  0  0  0
 18 20  1  0  0  0
 20 21  1  0  0  0
 10 11  1  0  0  0
 11 12  2  0  0  0
  6  1  1  0  0  0
 12  7  1  0  0  0
 36 30  1  0  0  0
 21 15  1  0  0  0
 22 23  1  0  0  0
 28 29  1  0  0  0
 34 37  1  0  0  0
M  END
> <minimizedAffinity>
-8.67396

> <CNNscore>
0.9424434900

> <CNNaffinity>
7.6321744919

> <CNN_VS>
7.1928930283

> <CNNaffinity_variance>
0.0504160151

$$$$
[H]OC1([H])C([H])([H])C([H])([H])C([H])(N([H])c2nc(N([H])C([H])([H])C([H])([H])C([H])([H])C([H])([H])[H])nc([H])c2-c2nc([H])c(C([H])([H])C([H])([H])N3C([H])([H])C([H])([H])N(C([H])([H])[H])C([H])([H])C3([H])[H])c([H])c2[H])C([H])([H])C1([H])[H]


 37 40  0  0  0  0  0  0  0  0999 V2000
    4.3499    1.6434   18.7948 C   0  0  0  0  0  0  0  0  0  0  0  0
    3.4054    0.9336   18.1476 N   0  0  0  0  0  0  0  0  0  0  0  0
    3.0112    1.2944   16.9375 C   0  0  0  0  0  0  0  0  0  0  0  0
    3.5424    2.4206   16.2615 C   0  0  0  0  0  0  0  0  0  0  0  0
    4.4795    3.1076   16.9405 C   0  0  0  0  0  0  0  0  0  0  0  0
    4.8802    2.7151   18.2015 N   0  0  0  0  0  0  0  0  0  0  0  0
    3.0417    2.7472   14.9455 C   0  0  0  0  0  0  0  0  0  0  0  0
    2.9921    1.9108   13.8658 C   0  0  0  0  0  0  0  0  0  0  0  0
    2.4061    2.2723   12.6434 C   0  0  0  0  0  0  0  0  0  0  0  0
    1.8423    3.5163   12.4823 C   0  0  0  0  0  0  0  0  0  0  0  0
    1.9007    4.3447   13.5830 C   0  0  0  0  0  0  0  0  0  0  0  0
    2.4640    3.9793   14.7347 N   0  0  0  0  0  0  0  0  0  0  0  0
    1.2015    3.9733   11.2228 C   0  0  0  0  0  0  0  0  0  0  0  0
    0.4388    5.2735   11.4379 C   0  0  0  0  0  0  0  0  0  0  0  0
   -0.8615    5.1349   10.8189 N   0  0  0  0  0  0  0  0  0  0  0  0
   -0.9638    3.9153   10.0435 C   0  0  0  0  0  0  0  0  0  0  0  0
   -2.2809    3.7874    9.3457 C   0  0  0  0  0  0  0  0  0  0  0  0
   -3.3340    4.5426    9.9922 N   0  0  0  0  0  0  0  0  0  0  0  0
   -3.4481    5.8836    9.4521 C   0  0  0  0  0  0  0  0  0  0  0  0
   -3.1587    4.5929   11.4296 C   0  0  0  0  0  0  0  0  0  0  0  0
   -1.8694    5.2630   11.8286 C   0  0  0  0  0  0  0  0  0  0  0  0
    4.7523    1.2218   20.0965 N   0  0  0  0  0  0  0  0  0  0  0  0
    5.5621    0.5744   20.1764 H   0  0  0  0  0  0  0  0  0  0  0  0
    4.0297    1.7034   21.2467 C   0  0  0  0  0  0  0  0  0  0  0  0
    4.8218    2.7843   21.9617 C   0  0  0  0  0  0  0  0  0  0  0  0
    3.8691    4.9351   22.5886 C   0  0  0  0  0  0  0  0  0  0  0  0
    3.9388    3.4687   22.9824 C   0  0  0  0  0  0  0  0  0  0  0  0
    5.0175    4.3400   16.4677 N   0  0  0  0  0  0  0  0  0  0  0  0
    5.5035    4.4754   15.5899 H   0  0  0  0  0  0  0  0  0  0  0  0
    4.8151    5.5607   17.2766 C   0  0  0  0  0  0  0  0  0  0  0  0
    6.0392    5.7473   18.1076 C   0  0  0  0  0  0  0  0  0  0  0  0
    5.6168    6.0447   19.5535 C   0  0  0  0  0  0  0  0  0  0  0  0
    4.5892    7.1742   19.4558 C   0  0  0  0  0  0  0  0  0  0  0  0
    4.4678    7.8559   20.6421 O   0  0  0  0  0  0  0  0  0  0  0  0
    3.2896    6.5379   19.0013 C   0  0  0  0  0  0  0  0  0  0  0  0
    3.5414    5.4030   18.0340 C   0  0  0  0  0  0  0  0  0  0  0  0
    3.8434    7.4198   21.2586 H   0  0  0  0  0  0  0  0  0  0  0  0
 26 27  1  0  0  0
 27 25  1  0  0  0
 25 24  1  0  0  0
 24 22  1  0  0  0
 22  1  1  0  0  0
  1  2  2  0  0  0
  2  3  1  0  0  0
  3  4  2  0  0  0
  4  5  1  0  0  0
  5 28  1  0  0  0
 28 30  1  0  0  0
 30 31  1  0  0  0
 31 32  1  0  0  0
 32 33  1  0  0  0
 33 34  1  0  0  0
 33 35  1  0  0  0
 35 36  1  0  0  0
  5  6  2  0  0  0
  4  7  1  0  0  0
  7  8  2  0  0  0
  8  9  1  0  0  0
  9 10  2  0  0  0
 10 13  1  0  0  0
 13 14  1  0  0  0
 14 15  1  0  0  0
 15 16  1  0  0  0
 16 17  1  0  0  0
 17 18  1  0  0  0
 18 19  1  0  0  0
 18 20  1  0  0  0
 20 21  1  0  0  0
 10 11  1  0  0  0
 11 12  2  0  0  0
  6  1  1  0  0  0
 12  7  1  0  0  0
 36 30  1  0  0  0
 21 15  1  0  0  0
 22 23  1  0  0  0
 28 29  1  0  0  0
 34 37  1  0  0  0
M  END
> <minimizedAffinity>
-7.57855

> <CNNscore>
0.6038410664

> <CNNaffinity>
7.0962357521

> <CNN_VS>
4.2849984169

> <CNNaffinity_variance>
0.5320893526

$$$$
[H]OC1([H])C([H])([H])C([H])([H])C([H])(N([H])c2nc(N([H])C([H])([H])C([H])([H])C([H])([H])C([H])([H])[H])nc([H])c2-c2nc([H])c(C([H])([H])C([H])([H])N3C([H])([H])C([H])([H])N(C([H])([H])[H])C([H])([H])C3([H])[H])c([H])c2[H])C([H])([H])C1([H])[H]


 37 40  0  0  0  0  0  0  0  0999 V2000
    4.3021    1.4238   19.6602 C   0  0  0  0  0  0  0  0  0  0  0  0
    3.6444    0.6585   18.7678 N   0  0  0  0  0  0  0  0  0  0  0  0
    3.3530    1.1330   17.5678 C   0  0  0  0  0  0  0  0  0  0  0  0
    3.7044    2.4419   17.1543 C   0  0  0  0  0  0  0  0  0  0  0  0
    4.3558    3.1782   18.0734 C   0  0  0  0  0  0  0  0  0  0  0  0
    4.6534    2.6657   19.3198 N   0  0  0  0  0  0  0  0  0  0  0  0
    3.3332    2.8800   15.8278 C   0  0  0  0  0  0  0  0  0  0  0  0
    4.0632    3.6943   15.0084 C   0  0  0  0  0  0  0  0  0  0  0  0
    3.6788    4.0023   13.6947 C   0  0  0  0  0  0  0  0  0  0  0  0
    2.5212    3.4797   13.1673 C   0  0  0  0  0  0  0  0  0  0  0  0
    1.7997    2.6594   14.0085 C   0  0  0  0  0  0  0  0  0  0  0  0
    2.1847    2.3817   15.2542 N   0  0  0  0  0  0  0  0  0  0  0  0
    2.0473    3.7552   11.7870 C   0  0  0  0  0  0  0  0  0  0  0  0
    1.0338    4.8915   11.7734 C   0  0  0  0  0  0  0  0  0  0  0  0
    1.0236    5.4635   10.4446 N   0  0  0  0  0  0  0  0  0  0  0  0
    1.0779    4.4440    9.4167 C   0  0  0  0  0  0  0  0  0  0  0  0
    1.1314    5.0213    8.0376 C   0  0  0  0  0  0  0  0  0  0  0  0
    0.5689    6.3538    7.9650 N   0  0  0  0  0  0  0  0  0  0  0  0
    1.5742    7.3777    8.1748 C   0  0  0  0  0  0  0  0  0  0  0  0
   -0.5282    6.5287    8.8951 C   0  0  0  0  0  0  0  0  0  0  0  0
   -0.1028    6.3408   10.3282 C   0  0  0  0  0  0  0  0  0  0  0  0
    4.6023    0.8766   20.9426 N   0  0  0  0  0  0  0  0  0  0  0  0
    4.8191   -0.1384   21.0069 H   0  0  0  0  0  0  0  0  0  0  0  0
    4.5953    1.7412   22.0957 C   0  0  0  0  0  0  0  0  0  0  0  0
    6.0126    2.0083   22.5722 C   0  0  0  0  0  0  0  0  0  0  0  0
    5.0738    4.2545   22.5912 C   0  0  0  0  0  0  0  0  0  0  0  0
    6.3530    3.4672   22.3583 C   0  0  0  0  0  0  0  0  0  0  0  0
    4.6610    4.5561   17.8737 N   0  0  0  0  0  0  0  0  0  0  0  0
    4.8400    4.9991   16.9811 H   0  0  0  0  0  0  0  0  0  0  0  0
    4.6672    5.4596   19.0438 C   0  0  0  0  0  0  0  0  0  0  0  0
    3.5369    6.4164   18.8682 C   0  0  0  0  0  0  0  0  0  0  0  0
    4.0423    7.8386   19.1504 C   0  0  0  0  0  0  0  0  0  0  0  0
    4.7626    7.7573   20.4978 C   0  0  0  0  0  0  0  0  0  0  0  0
    4.8584    8.9888   21.0988 O   0  0  0  0  0  0  0  0  0  0  0  0
    6.1130    7.1218   20.2284 C   0  0  0  0  0  0  0  0  0  0  0  0
    6.0211    6.0745   19.1412 C   0  0  0  0  0  0  0  0  0  0  0  0
    5.6333    9.4976   20.7811 H   0  0  0  0  0  0  0  0  0  0  0  0
 26 27  1  0  0  0
 27 25  1  0  0  0
 25 24  1  0  0  0
 24 22  1  0  0  0
 22  1  1  0  0  0
  1  2  2  0  0  0
  2  3  1  0  0  0
  3  4  2  0  0  0
  4  5  1  0  0  0
  5 28  1  0  0  0
 28 30  1  0  0  0
 30 31  1  0  0  0
 31 32  1  0  0  0
 32 33  1  0  0  0
 33 34  1  0  0  0
 33 35  1  0  0  0
 35 36  1  0  0  0
  5  6  2  0  0  0
  4  7  1  0  0  0
  7  8  2  0  0  0
  8  9  1  0  0  0
  9 10  2  0  0  0
 10 13  1  0  0  0
 13 14  1  0  0  0
 14 15  1  0  0  0
 15 16  1  0  0  0
 16 17  1  0  0  0
 17 18  1  0  0  0
 18 19  1  0  0  0
 18 20  1  0  0  0
 20 21  1  0  0  0
 10 11  1  0  0  0
 11 12  2  0  0  0
  6  1  1  0  0  0
 12  7  1  0  0  0
 36 30  1  0  0  0
 21 15  1  0  0  0
 22 23  1  0  0  0
 28 29  1  0  0  0
 34 37  1  0  0  0
M  END
> <minimizedAffinity>
-6.95616

> <CNNscore>
0.5617324710

> <CNNaffinity>
6.9317522049

> <CNN_VS>
3.8937902451

> <CNNaffinity_variance>
0.4529093206

$$$$
[H]OC1([H])C([H])([H])C([H])([H])C([H])(N([H])c2nc(N([H])C([H])([H])C([H])([H])C([H])([H])C([H])([H])[H])nc([H])c2-c2nc([H])c(C([H])([H])C([H])([H])N3C([H])([H])C([H])([H])N(C([H])([H])[H])C([H])([H])C3([H])[H])c([H])c2[H])C([H])([H])C1([H])[H]


 37 40  0  0  0  0  0  0  0  0999 V2000
    4.2795    1.2776   20.4378 C   0  0  0  0  0  0  0  0  0  0  0  0
    3.5480    0.5189   19.5989 N   0  0  0  0  0  0  0  0  0  0  0  0
    3.3968    0.8773   18.3345 C   0  0  0  0  0  0  0  0  0  0  0  0
    3.9788    2.0511   17.7950 C   0  0  0  0  0  0  0  0  0  0  0  0
    4.6979    2.7859   18.6633 C   0  0  0  0  0  0  0  0  0  0  0  0
    4.8469    2.3951   19.9786 N   0  0  0  0  0  0  0  0  0  0  0  0
    3.7489    2.3704   16.4041 C   0  0  0  0  0  0  0  0  0  0  0  0
    3.1791    1.5541   15.4678 C   0  0  0  0  0  0  0  0  0  0  0  0
    2.9046    1.9685   14.1558 C   0  0  0  0  0  0  0  0  0  0  0  0
    3.2056    3.2483   13.7525 C   0  0  0  0  0  0  0  0  0  0  0  0
    3.7780    4.0570   14.7115 C   0  0  0  0  0  0  0  0  0  0  0  0
    4.0304    3.6405   15.9524 N   0  0  0  0  0  0  0  0  0  0  0  0
    2.9444    3.7636   12.3841 C   0  0  0  0  0  0  0  0  0  0  0  0
    2.3245    5.1535   12.4323 C   0  0  0  0  0  0  0  0  0  0  0  0
    2.8601    5.9186   11.3274 N   0  0  0  0  0  0  0  0  0  0  0  0
    2.1287    7.1517   11.1189 C   0  0  0  0  0  0  0  0  0  0  0  0
    2.6305    7.9247    9.9405 C   0  0  0  0  0  0  0  0  0  0  0  0
    4.0091    7.6217    9.6166 N   0  0  0  0  0  0  0  0  0  0  0  0
    4.1141    6.5437    8.6523 C   0  0  0  0  0  0  0  0  0  0  0  0
    4.7874    7.3153   10.7997 C   0  0  0  0  0  0  0  0  0  0  0  0
    4.2645    6.1090   11.5356 C   0  0  0  0  0  0  0  0  0  0  0  0
    4.4235    0.8571   21.7930 N   0  0  0  0  0  0  0  0  0  0  0  0
    5.0884    0.0852   22.0016 H   0  0  0  0  0  0  0  0  0  0  0  0
    3.6498    1.5106   22.8185 C   0  0  0  0  0  0  0  0  0  0  0  0
    4.4665    2.5999   23.4918 C   0  0  0  0  0  0  0  0  0  0  0  0
    4.5878    4.9369   22.8205 C   0  0  0  0  0  0  0  0  0  0  0  0
    3.6906    3.8991   23.4750 C   0  0  0  0  0  0  0  0  0  0  0  0
    5.2355    4.0617   18.3243 N   0  0  0  0  0  0  0  0  0  0  0  0
    5.7153    4.2917   17.4630 H   0  0  0  0  0  0  0  0  0  0  0  0
    5.0422    5.1868   19.2636 C   0  0  0  0  0  0  0  0  0  0  0  0
    3.6585    5.7025   19.0554 C   0  0  0  0  0  0  0  0  0  0  0  0
    3.7096    7.2338   18.9545 C   0  0  0  0  0  0  0  0  0  0  0  0
    4.5151    7.6976   20.1699 C   0  0  0  0  0  0  0  0  0  0  0  0
    4.2618    9.0123   20.4767 O   0  0  0  0  0  0  0  0  0  0  0  0
    5.9735    7.4335   19.8482 C   0  0  0  0  0  0  0  0  0  0  0  0
    6.1370    6.1709   19.0319 C   0  0  0  0  0  0  0  0  0  0  0  0
    4.8118    9.6290   19.9500 H   0  0  0  0  0  0  0  0  0  0  0  0
 26 27  1  0  0  0
 27 25  1  0  0  0
 25 24  1  0  0  0
 24 22  1  0  0  0
 22  1  1  0  0  0
  1  2  2  0  0  0
  2  3  1  0  0  0
  3  4  2  0  0  0
  4  5  1  0  0  0
  5 28  1  0  0  0
 28 30  1  0  0  0
 30 31  1  0  0  0
 31 32  1  0  0  0
 32 33  1  0  0  0
 33 34  1  0  0  0
 33 35  1  0  0  0
 35 36  1  0  0  0
  5  6  2  0  0  0
  4  7  1  0  0  0
  7  8  2  0  0  0
  8  9  1  0  0  0
  9 10  2  0  0  0
 10 13  1  0  0  0
 13 14  1  0  0  0
 14 15  1  0  0  0
 15 16  1  0  0  0
 16 17  1  0  0  0
 17 18  1  0  0  0
 18 19  1  0  0  0
 18 20  1  0  0  0
 20 21  1  0  0  0
 10 11  1  0  0  0
 11 12  2  0  0  0
  6  1  1  0  0  0
 12  7  1  0  0  0
 36 30  1  0  0  0
 21 15  1  0  0  0
 22 23  1  0  0  0
 28 29  1  0  0  0
 34 37  1  0  0  0
M  END
> <minimizedAffinity>
-8.18190

> <CNNscore>
0.3824924231

> <CNNaffinity>
6.8784012794

> <CNN_VS>
2.6309363842

> <CNNaffinity_variance>
0.2444840372

$$$$
[H]OC1([H])C([H])([H])C([H])([H])C([H])(N([H])c2nc(N([H])C([H])([H])C([H])([H])C([H])([H])C([H])([H])[H])nc([H])c2-c2nc([H])c(C([H])([H])C([H])([H])N3C([H])([H])C([H])([H])N(C([H])([H])[H])C([H])([H])C3([H])[H])c([H])c2[H])C([H])([H])C1([H])[H]


 37 40  0  0  0  0  0  0  0  0999 V2000
    4.6591    1.5564   20.6217 C   0  0  0  0  0  0  0  0  0  0  0  0
    3.9393    0.6832   19.8908 N   0  0  0  0  0  0  0  0  0  0  0  0
    3.6842    0.9302   18.6165 C   0  0  0  0  0  0  0  0  0  0  0  0
    4.1392    2.0978   17.9553 C   0  0  0  0  0  0  0  0  0  0  0  0
    4.8503    2.9485   18.7179 C   0  0  0  0  0  0  0  0  0  0  0  0
    5.1088    2.6733   20.0454 N   0  0  0  0  0  0  0  0  0  0  0  0
    3.8012    2.2902   16.5631 C   0  0  0  0  0  0  0  0  0  0  0  0
    3.0635    1.4447   15.7831 C   0  0  0  0  0  0  0  0  0  0  0  0
    2.6985    1.7442   14.4619 C   0  0  0  0  0  0  0  0  0  0  0  0
    3.0787    2.9344   13.8873 C   0  0  0  0  0  0  0  0  0  0  0  0
    3.8206    3.7745   14.6904 C   0  0  0  0  0  0  0  0  0  0  0  0
    4.1563    3.4676   15.9435 N   0  0  0  0  0  0  0  0  0  0  0  0
    2.7309    3.3262   12.4975 C   0  0  0  0  0  0  0  0  0  0  0  0
    1.6753    2.3961   11.9151 C   0  0  0  0  0  0  0  0  0  0  0  0
    2.3186    1.5528   10.9313 N   0  0  0  0  0  0  0  0  0  0  0  0
    1.3581    0.9215   10.0493 C   0  0  0  0  0  0  0  0  0  0  0  0
    2.0028   -0.0031    9.0658 C   0  0  0  0  0  0  0  0  0  0  0  0
    3.3889    0.3288    8.8090 N   0  0  0  0  0  0  0  0  0  0  0  0
    4.2885   -0.3772    9.7007 C   0  0  0  0  0  0  0  0  0  0  0  0
    3.6254    1.7563    8.8832 C   0  0  0  0  0  0  0  0  0  0  0  0
    3.3141    2.3208   10.2451 C   0  0  0  0  0  0  0  0  0  0  0  0
    4.9173    1.2543   21.9914 N   0  0  0  0  0  0  0  0  0  0  0  0
    5.7866    0.7341   22.2260 H   0  0  0  0  0  0  0  0  0  0  0  0
    3.9733    1.6768   22.9952 C   0  0  0  0  0  0  0  0  0  0  0  0
    4.4964    2.8904   23.7439 C   0  0  0  0  0  0  0  0  0  0  0  0
    4.3863    5.0720   22.6691 C   0  0  0  0  0  0  0  0  0  0  0  0
    3.5872    4.0733   23.4903 C   0  0  0  0  0  0  0  0  0  0  0  0
    5.2654    4.2299   18.2517 N   0  0  0  0  0  0  0  0  0  0  0  0
    5.6232    4.4358   17.3273 H   0  0  0  0  0  0  0  0  0  0  0  0
    5.1193    5.3947   19.1502 C   0  0  0  0  0  0  0  0  0  0  0  0
    3.6971    5.8365   19.0721 C   0  0  0  0  0  0  0  0  0  0  0  0
    3.6602    7.3608   18.8909 C   0  0  0  0  0  0  0  0  0  0  0  0
    4.5688    7.9252   19.9850 C   0  0  0  0  0  0  0  0  0  0  0  0
    4.2849    9.2422   20.2531 O   0  0  0  0  0  0  0  0  0  0  0  0
    5.9949    7.7090   19.5165 C   0  0  0  0  0  0  0  0  0  0  0  0
    6.1317    6.4124   18.7502 C   0  0  0  0  0  0  0  0  0  0  0  0
    4.7428    9.8531   19.6388 H   0  0  0  0  0  0  0  0  0  0  0  0
 26 27  1  0  0  0
 27 25  1  0  0  0
 25 24  1  0  0  0
 24 22  1  0  0  0
 22  1  1  0  0  0
  1  2  2  0  0  0
  2  3  1  0  0  0
  3  4  2  0  0  0
  4  5  1  0  0  0
  5 28  1  0  0  0
 28 30  1  0  0  0
 30 31  1  0  0  0
 31 32  1  0  0  0
 32 33  1  0  0  0
 33 34  1  0  0  0
 33 35  1  0  0  0
 35 36  1  0  0  0
  5  6  2  0  0  0
  4  7  1  0  0  0
  7  8  2  0  0  0
  8  9  1  0  0  0
  9 10  2  0  0  0
 10 13  1  0  0  0
 13 14  1  0  0  0
 14 15  1  0  0  0
 15 16  1  0  0  0
 16 17  1  0  0  0
 17 18  1  0  0  0
 18 19  1  0  0  0
 18 20  1  0  0  0
 20 21  1  0  0  0
 10 11  1  0  0  0
 11 12  2  0  0  0
  6  1  1  0  0  0
 12  7  1  0  0  0
 36 30  1  0  0  0
 21 15  1  0  0  0
 22 23  1  0  0  0
 28 29  1  0  0  0
 34 37  1  0  0  0
M  END
> <minimizedAffinity>
-8.08673

> <CNNscore>
0.2784290910

> <CNNaffinity>
6.8248901367

> <CNN_VS>
1.9002479315

> <CNNaffinity_variance>
0.2727143764

$$$$
[H]OC1([H])C([H])([H])C([H])([H])C([H])(N([H])c2nc(N([H])C([H])([H])C([H])([H])C([H])([H])C([H])([H])[H])nc([H])c2-c2nc([H])c(C([H])([H])C([H])([H])N3C([H])([H])C([H])([H])N(C([H])([H])[H])C([H])([H])C3([H])[H])c([H])c2[H])C([H])([H])C1([H])[H]


 37 40  0  0  0  0  0  0  0  0999 V2000
    2.3893    2.4290   15.1595 C   0  0  0  0  0  0  0  0  0  0  0  0
    2.3638    3.7745   15.0997 N   0  0  0  0  0  0  0  0  0  0  0  0
    3.0876    4.4942   15.9413 C   0  0  0  0  0  0  0  0  0  0  0  0
    3.9146    3.9120   16.9337 C   0  0  0  0  0  0  0  0  0  0  0  0
    3.9108    2.5667   16.9664 C   0  0  0  0  0  0  0  0  0  0  0  0
    3.1510    1.8321   16.0788 N   0  0  0  0  0  0  0  0  0  0  0  0
    4.6606    4.7776   17.8187 C   0  0  0  0  0  0  0  0  0  0  0  0
    5.9967    5.0555   17.7457 C   0  0  0  0  0  0  0  0  0  0  0  0
    6.6337    5.9800   18.5870 C   0  0  0  0  0  0  0  0  0  0  0  0
    5.9167    6.6616   19.5422 C   0  0  0  0  0  0  0  0  0  0  0  0
    4.5704    6.3690   19.5991 C   0  0  0  0  0  0  0  0  0  0  0  0
    3.9870    5.4854   18.7892 N   0  0  0  0  0  0  0  0  0  0  0  0
    6.5159    7.6564   20.4681 C   0  0  0  0  0  0  0  0  0  0  0  0
    7.9701    7.3182   20.7673 C   0  0  0  0  0  0  0  0  0  0  0  0
    8.2674    7.7763   22.1070 N   0  0  0  0  0  0  0  0  0  0  0  0
    7.0946    7.7576   22.9575 C   0  0  0  0  0  0  0  0  0  0  0  0
    7.3713    8.2876   24.3287 C   0  0  0  0  0  0  0  0  0  0  0  0
    8.7656    8.1740   24.7034 N   0  0  0  0  0  0  0  0  0  0  0  0
    9.5190    9.3620   24.3516 C   0  0  0  0  0  0  0  0  0  0  0  0
    9.3855    6.9973   24.1286 C   0  0  0  0  0  0  0  0  0  0  0  0
    9.3658    7.0147   22.6221 C   0  0  0  0  0  0  0  0  0  0  0  0
    1.5987    1.6867   14.2331 N   0  0  0  0  0  0  0  0  0  0  0  0
    1.5112    0.6599   14.3718 H   0  0  0  0  0  0  0  0  0  0  0  0
    0.9533    2.3789   13.1461 C   0  0  0  0  0  0  0  0  0  0  0  0
    1.2701    1.7069   11.8213 C   0  0  0  0  0  0  0  0  0  0  0  0
    3.1236    1.0979   10.3652 C   0  0  0  0  0  0  0  0  0  0  0  0
    2.6306    2.1582   11.3363 C   0  0  0  0  0  0  0  0  0  0  0  0
    4.5759    1.8242   17.9852 N   0  0  0  0  0  0  0  0  0  0  0  0
    5.4144    1.2704   17.8619 H   0  0  0  0  0  0  0  0  0  0  0  0
    4.0579    1.8932   19.3681 C   0  0  0  0  0  0  0  0  0  0  0  0
    5.1787    2.3558   20.2364 C   0  0  0  0  0  0  0  0  0  0  0  0
    5.2490    1.4550   21.4778 C   0  0  0  0  0  0  0  0  0  0  0  0
    3.8252    1.4162   22.0367 C   0  0  0  0  0  0  0  0  0  0  0  0
    3.8083    1.0549   23.3619 O   0  0  0  0  0  0  0  0  0  0  0  0
    3.0397    0.4667   21.1527 C   0  0  0  0  0  0  0  0  0  0  0  0
    3.4868    0.5602   19.7110 C   0  0  0  0  0  0  0  0  0  0  0  0
    3.8195    0.0824   23.4817 H   0  0  0  0  0  0  0  0  0  0  0  0
 26 27  1  0  0  0
 27 25  1  0  0  0
 25 24  1  0  0  0
 24 22  1  0  0  0
 22  1  1  0  0  0
  1  2  2  0  0  0
  2  3  1  0  0  0
  3  4  2  0  0  0
  4  5  1  0  0  0
  5 28  1  0  0  0
 28 30  1  0  0  0
 30 31  1  0  0  0
 31 32  1  0  0  0
 32 33  1  0  0  0
 33 34  1  0  0  0
 33 35  1  0  0  0
 35 36  1  0  0  0
  5  6  2  0  0  0
  4  7  1  0  0  0
  7  8  2  0  0  0
  8  9  1  0  0  0
  9 10  2  0  0  0
 10 13  1  0  0  0
 13 14  1  0  0  0
 14 15  1  0  0  0
 15 16  1  0  0  0
 16 17  1  0  0  0
 17 18  1  0  0  0
 18 19  1  0  0  0
 18 20  1  0  0  0
 20 21  1  0  0  0
 10 11  1  0  0  0
 11 12  2  0  0  0
  6  1  1  0  0  0
 12  7  1  0  0  0
 36 30  1  0  0  0
 21 15  1  0  0  0
 22 23  1  0  0  0
 28 29  1  0  0  0
 34 37  1  0  0  0
M  END
> <minimizedAffinity>
-7.57390

> <CNNscore>
0.2739639878

> <CNNaffinity>
6.8412871361

> <CNN_VS>
1.8742662668

> <CNNaffinity_variance>
0.0561075322

$$$$
[H]OC1([H])C([H])([H])C([H])([H])C([H])(N([H])c2nc(N([H])C([H])([H])C([H])([H])C([H])([H])C([H])([H])[H])nc([H])c2-c2nc([H])c(C([H])([H])C([H])([H])N3C([H])([H])C([H])([H])N(C([H])([H])[H])C([H])([H])C3([H])[H])c([H])c2[H])C([H])([H])C1([H])[H]


 37 40  0  0  0  0  0  0  0  0999 V2000
    4.5322    1.5423   20.4705 C   0  0  0  0  0  0  0  0  0  0  0  0
    3.8286    0.7121   19.6765 N   0  0  0  0  0  0  0  0  0  0  0  0
    3.6175    1.0212   18.4077 C   0  0  0  0  0  0  0  0  0  0  0  0
    4.1047    2.2136   17.8172 C   0  0  0  0  0  0  0  0  0  0  0  0
    4.7983    3.0199   18.6416 C   0  0  0  0  0  0  0  0  0  0  0  0
    5.0108    2.6800   19.9623 N   0  0  0  0  0  0  0  0  0  0  0  0
    3.8141    2.4746   16.4256 C   0  0  0  0  0  0  0  0  0  0  0  0
    3.1795    1.6314   15.5573 C   0  0  0  0  0  0  0  0  0  0  0  0
    2.8505    1.9922   14.2420 C   0  0  0  0  0  0  0  0  0  0  0  0
    3.1616    3.2438   13.7648 C   0  0  0  0  0  0  0  0  0  0  0  0
    3.7998    4.0804   14.6559 C   0  0  0  0  0  0  0  0  0  0  0  0
    4.1032    3.7148   15.9015 N   0  0  0  0  0  0  0  0  0  0  0  0
    2.8456    3.7024   12.3879 C   0  0  0  0  0  0  0  0  0  0  0  0
    1.3667    3.5175   12.0759 C   0  0  0  0  0  0  0  0  0  0  0  0
    0.6758    4.7294   12.4593 N   0  0  0  0  0  0  0  0  0  0  0  0
    1.1733    5.8855   11.7417 C   0  0  0  0  0  0  0  0  0  0  0  0
    0.5123    7.1566   12.1720 C   0  0  0  0  0  0  0  0  0  0  0  0
   -0.7998    6.9404   12.7455 N   0  0  0  0  0  0  0  0  0  0  0  0
   -0.7395    6.7648   14.1837 C   0  0  0  0  0  0  0  0  0  0  0  0
   -1.4804    5.8189   12.1304 C   0  0  0  0  0  0  0  0  0  0  0  0
   -0.7342    4.5227   12.3135 C   0  0  0  0  0  0  0  0  0  0  0  0
    4.7428    1.1736   21.8321 N   0  0  0  0  0  0  0  0  0  0  0  0
    5.5631    0.5764   22.0598 H   0  0  0  0  0  0  0  0  0  0  0  0
    3.8200    1.6374   22.8374 C   0  0  0  0  0  0  0  0  0  0  0  0
    4.4433    2.7496   23.6629 C   0  0  0  0  0  0  0  0  0  0  0  0
    4.5689    5.0083   22.7632 C   0  0  0  0  0  0  0  0  0  0  0  0
    3.6523    4.0257   23.4738 C   0  0  0  0  0  0  0  0  0  0  0  0
    5.2403    4.3172   18.2500 N   0  0  0  0  0  0  0  0  0  0  0  0
    5.6289    4.5625   17.3479 H   0  0  0  0  0  0  0  0  0  0  0  0
    5.0773    5.4398   19.1980 C   0  0  0  0  0  0  0  0  0  0  0  0
    3.7058    5.9904   18.9981 C   0  0  0  0  0  0  0  0  0  0  0  0
    3.7936    7.5206   18.9080 C   0  0  0  0  0  0  0  0  0  0  0  0
    4.6140    7.9560   20.1239 C   0  0  0  0  0  0  0  0  0  0  0  0
    4.3936    9.2742   20.4410 O   0  0  0  0  0  0  0  0  0  0  0  0
    6.0645    7.6591   19.7954 C   0  0  0  0  0  0  0  0  0  0  0  0
    6.1948    6.3988   18.9696 C   0  0  0  0  0  0  0  0  0  0  0  0
    4.9567    9.8812   19.9168 H   0  0  0  0  0  0  0  0  0  0  0  0
 26 27  1  0  0  0
 27 25  1  0  0  0
 25 24  1  0  0  0
 24 22  1  0  0  0
 22  1  1  0  0  0
  1  2  2  0  0  0
  2  3  1  0  0  0
  3  4  2  0  0  0
  4  5  1  0  0  0
  5 28  1  0  0  0
 28 30  1  0  0  0
 30 31  1  0  0  0
 31 32  1  0  0  0
 32 33  1  0  0  0
 33 34  1  0  0  0
 33 35  1  0  0  0
 35 36  1  0  0  0
  5  6  2  0  0  0
  4  7  1  0  0  0
  7  8  2  0  0  0
  8  9  1  0  0  0
  9 10  2  0  0  0
 10 13  1  0  0  0
 13 14  1  0  0  0
 14 15  1  0  0  0
 15 16  1  0  0  0
 16 17  1  0  0  0
 17 18  1  0  0  0
 18 19  1  0  0  0
 18 20  1  0  0  0
 20 21  1  0  0  0
 10 11  1  0  0  0
 11 12  2  0  0  0
  6  1  1  0  0  0
 12  7  1  0  0  0
 36 30  1  0  0  0
 21 15  1  0  0  0
 22 23  1  0  0  0
 28 29  1  0  0  0
 34 37  1  0  0  0
M  END
> <minimizedAffinity>
-8.63227

> <CNNscore>
0.2494060248

> <CNNaffinity>
6.7155838013

> <CNN_VS>
1.6749070883

> <CNNaffinity_variance>
0.3499306440

$$$$
[H]c1nc(N([H])C([H])([H])C([H])([H])C([H])([H])C([H])([H])[H])nc(N([H])C([H])([H])C2([H])C([H])([H])C([H])([H])C([H])(N([H])[H])C([H])([H])C2([H])[H])c1C(=O)N([H])c1c([H])c([H])c(F)c([H])c1[H]


 35 37  0  0  0  0  0  0  0  0999 V2000
    2.9349    0.2533   18.7235 C   0  0  0  0  0  0  0  0  0  0  0  0
    2.2505   -0.2580   17.6972 N   0  0  0  0  0  0  0  0  0  0  0  0
    2.2821    0.3756   16.5148 C   0  0  0  0  0  0  0  0  0  0  0  0
    3.0023    1.5461   16.3198 C   0  0  0  0  0  0  0  0  0  0  0  0
    3.6950    2.0614   17.3627 C   0  0  0  0  0  0  0  0  0  0  0  0
    3.6286    1.3762   18.5446 N   0  0  0  0  0  0  0  0  0  0  0  0
    2.9963    2.1953   14.9891 C   0  0  0  0  0  0  0  0  0  0  0  0
    3.9139    2.9458   14.5910 O   0  0  0  0  0  0  0  0  0  0  0  0
    1.9245    1.9914   14.0829 N   0  0  0  0  0  0  0  0  0  0  0  0
    1.0877    1.3724   14.3326 H   0  0  0  0  0  0  0  0  0  0  0  0
    1.9189    2.5958   12.8058 C   0  0  0  0  0  0  0  0  0  0  0  0
    1.4016    3.8108   12.5074 C   0  0  0  0  0  0  0  0  0  0  0  0
    1.4263    4.2741   11.2005 C   0  0  0  0  0  0  0  0  0  0  0  0
    1.9814    3.4928   10.2028 C   0  0  0  0  0  0  0  0  0  0  0  0
    2.0169    3.9253    8.9156 F   0  0  0  0  0  0  0  0  0  0  0  0
    2.5111    2.2553   10.4971 C   0  0  0  0  0  0  0  0  0  0  0  0
    2.4799    1.8099   11.7908 C   0  0  0  0  0  0  0  0  0  0  0  0
    2.8852   -0.4360   19.9638 N   0  0  0  0  0  0  0  0  0  0  0  0
    2.0764   -1.1099   20.0883 H   0  0  0  0  0  0  0  0  0  0  0  0
    3.8425   -0.2638   21.0060 C   0  0  0  0  0  0  0  0  0  0  0  0
    3.4772    0.7282   22.0649 C   0  0  0  0  0  0  0  0  0  0  0  0
    5.7548    1.3461   21.4360 C   0  0  0  0  0  0  0  0  0  0  0  0
    4.6738    1.5595   22.4936 C   0  0  0  0  0  0  0  0  0  0  0  0
    4.4709    3.2461   17.3091 N   0  0  0  0  0  0  0  0  0  0  0  0
    4.5986    3.8709   16.5159 H   0  0  0  0  0  0  0  0  0  0  0  0
    5.1950    3.6694   18.5187 C   0  0  0  0  0  0  0  0  0  0  0  0
    4.8671    5.0987   18.8869 C   0  0  0  0  0  0  0  0  0  0  0  0
    6.0789    5.7486   19.4261 C   0  0  0  0  0  0  0  0  0  0  0  0
    6.1654    5.9796   20.8829 C   0  0  0  0  0  0  0  0  0  0  0  0
    4.8985    5.9395   21.6575 C   0  0  0  0  0  0  0  0  0  0  0  0
    5.0860    5.8038   23.0740 N   0  0  0  0  0  0  0  0  0  0  0  0
    4.1032    4.7332   21.1873 C   0  0  0  0  0  0  0  0  0  0  0  0
    3.6648    5.0712   19.7794 C   0  0  0  0  0  0  0  0  0  0  0  0
    4.1664    5.4984   23.4872 H   0  0  0  0  0  0  0  0  0  0  0  0
    5.3930    6.6847   23.5478 H   0  0  0  0  0  0  0  0  0  0  0  0
 22 23  1  0  0  0
 23 21  1  0  0  0
 21 20  1  0  0  0
 20 18  1  0  0  0
 18  1  1  0  0  0
  1  2  2  0  0  0
  2  3  1  0  0  0
  3  4  2  0  0  0
  4  7  1  0  0  0
  7  8  2  0  0  0
  7  9  1  0  0  0
  9 11  1  0  0  0
 11 12  2  0  0  0
 12 13  1  0  0  0
 13 14  2  0  0  0
 14 15  1  0  0  0
 14 16  1  0  0  0
 16 17  2  0  0  0
  4  5  1  0  0  0
  5 24  1  0  0  0
 24 26  1  0  0  0
 26 27  1  0  0  0
 27 28  1  0  0  0
 28 29  1  0  0  0
 29 30  1  0  0  0
 30 31  1  0  0  0
 30 32  1  0  0  0
 32 33  1  0  0  0
  5  6  2  0  0  0
  6  1  1  0  0  0
 17 11  1  0  0  0
 33 27  1  0  0  0
 18 19  1  0  0  0
  9 10  1  0  0  0
 24 25  1  0  0  0
 31 34  1  0  0  0
 31 35  1  0  0  0
M  END
> <minimizedAffinity>
-7.57960

> <CNNscore>
0.9464189410

> <CNNaffinity>
7.4042310715

> <CNN_VS>
7.0075044632

> <CNNaffinity_variance>
0.0724234357

$$$$
[H]c1nc(N([H])C([H])([H])C([H])([H])C([H])([H])C([H])([H])[H])nc(N([H])C([H])([H])C2([H])C([H])([H])C([H])([H])C([H])(N([H])[H])C([H])([H])C2([H])[H])c1C(=O)N([H])c1c([H])c([H])c(F)c([H])c1[H]


 35 37  0  0  0  0  0  0  0  0999 V2000
    3.0218    0.0888   19.0902 C   0  0  0  0  0  0  0  0  0  0  0  0
    2.3731   -0.5000   18.0824 N   0  0  0  0  0  0  0  0  0  0  0  0
    2.3501    0.1025   16.8838 C   0  0  0  0  0  0  0  0  0  0  0  0
    2.9781    1.3189   16.6533 C   0  0  0  0  0  0  0  0  0  0  0  0
    3.6348    1.9128   17.6775 C   0  0  0  0  0  0  0  0  0  0  0  0
    3.6270    1.2560   18.8772 N   0  0  0  0  0  0  0  0  0  0  0  0
    2.9157    1.9303   15.3062 C   0  0  0  0  0  0  0  0  0  0  0  0
    3.7814    2.7232   14.8753 O   0  0  0  0  0  0  0  0  0  0  0  0
    1.8465    1.6384   14.4215 N   0  0  0  0  0  0  0  0  0  0  0  0
    1.0516    0.9776   14.6996 H   0  0  0  0  0  0  0  0  0  0  0  0
    1.7879    2.2066   13.1292 C   0  0  0  0  0  0  0  0  0  0  0  0
    2.5045    1.8032   12.0539 C   0  0  0  0  0  0  0  0  0  0  0  0
    2.3815    2.4736   10.8461 C   0  0  0  0  0  0  0  0  0  0  0  0
    1.5244    3.5546   10.7422 C   0  0  0  0  0  0  0  0  0  0  0  0
    1.3873    4.2269    9.5698 F   0  0  0  0  0  0  0  0  0  0  0  0
    0.7903    3.9719   11.8310 C   0  0  0  0  0  0  0  0  0  0  0  0
    0.9214    3.3018   13.0170 C   0  0  0  0  0  0  0  0  0  0  0  0
    3.0311   -0.5693   20.3483 N   0  0  0  0  0  0  0  0  0  0  0  0
    2.3794   -1.4001   20.4425 H   0  0  0  0  0  0  0  0  0  0  0  0
    3.8501   -0.1719   21.4454 C   0  0  0  0  0  0  0  0  0  0  0  0
    3.2146    0.7653   22.4233 C   0  0  0  0  0  0  0  0  0  0  0  0
    4.6439    2.2557   23.7273 C   0  0  0  0  0  0  0  0  0  0  0  0
    3.8818    2.1296   22.4098 C   0  0  0  0  0  0  0  0  0  0  0  0
    4.3180    3.1512   17.5876 N   0  0  0  0  0  0  0  0  0  0  0  0
    5.0072    3.4327   16.8936 H   0  0  0  0  0  0  0  0  0  0  0  0
    4.0298    4.1893   18.5906 C   0  0  0  0  0  0  0  0  0  0  0  0
    5.2901    4.9026   19.0250 C   0  0  0  0  0  0  0  0  0  0  0  0
    5.5099    4.6608   20.4654 C   0  0  0  0  0  0  0  0  0  0  0  0
    5.2272    5.7570   21.4148 C   0  0  0  0  0  0  0  0  0  0  0  0
    5.1477    7.1344   20.8643 C   0  0  0  0  0  0  0  0  0  0  0  0
    4.5210    8.0785   21.7450 N   0  0  0  0  0  0  0  0  0  0  0  0
    4.3182    7.0803   19.5924 C   0  0  0  0  0  0  0  0  0  0  0  0
    5.1724    6.3317   18.5931 C   0  0  0  0  0  0  0  0  0  0  0  0
    4.2562    8.9205   21.1701 H   0  0  0  0  0  0  0  0  0  0  0  0
    5.1298    8.3887   22.5374 H   0  0  0  0  0  0  0  0  0  0  0  0
 22 23  1  0  0  0
 23 21  1  0  0  0
 21 20  1  0  0  0
 20 18  1  0  0  0
 18  1  1  0  0  0
  1  2  2  0  0  0
  2  3  1  0  0  0
  3  4  2  0  0  0
  4  7  1  0  0  0
  7  8  2  0  0  0
  7  9  1  0  0  0
  9 11  1  0  0  0
 11 12  2  0  0  0
 12 13  1  0  0  0
 13 14  2  0  0  0
 14 15  1  0  0  0
 14 16  1  0  0  0
 16 17  2  0  0  0
  4  5  1  0  0  0
  5 24  1  0  0  0
 24 26  1  0  0  0
 26 27  1  0  0  0
 27 28  1  0  0  0
 28 29  1  0  0  0
 29 30  1  0  0  0
 30 31  1  0  0  0
 30 32  1  0  0  0
 32 33  1  0  0  0
  5  6  2  0  0  0
  6  1  1  0  0  0
 17 11  1  0  0  0
 33 27  1  0  0  0
 18 19  1  0  0  0
  9 10  1  0  0  0
 24 25  1  0  0  0
 31 34  1  0  0  0
 31 35  1  0  0  0
M  END
> <minimizedAffinity>
-8.06281

> <CNNscore>
0.9249387383

> <CNNaffinity>
7.3848433495

> <CNN_VS>
6.8305277824

> <CNNaffinity_variance>
0.1433797777

$$$$
[H]c1nc(N([H])C([H])([H])C([H])([H])C([H])([H])C([H])([H])[H])nc(N([H])C([H])([H])C2([H])C([H])([H])C([H])([H])C([H])(N([H])[H])C([H])([H])C2([H])[H])c1C(=O)N([H])c1c([H])c([H])c(F)c([H])c1[H]


 35 37  0  0  0  0  0  0  0  0999 V2000
    3.2590    0.4586   18.7909 C   0  0  0  0  0  0  0  0  0  0  0  0
    2.4615   -0.1977   17.9445 N   0  0  0  0  0  0  0  0  0  0  0  0
    2.2824    0.2920   16.7082 C   0  0  0  0  0  0  0  0  0  0  0  0
    2.8977    1.4590   16.2765 C   0  0  0  0  0  0  0  0  0  0  0  0
    3.7057    2.1216   17.1375 C   0  0  0  0  0  0  0  0  0  0  0  0
    3.8533    1.5792   18.3844 N   0  0  0  0  0  0  0  0  0  0  0  0
    2.6588    1.9451   14.8985 C   0  0  0  0  0  0  0  0  0  0  0  0
    3.5262    2.5434   14.2252 O   0  0  0  0  0  0  0  0  0  0  0  0
    1.4058    1.7502   14.2634 N   0  0  0  0  0  0  0  0  0  0  0  0
    0.5957    1.2559   14.7586 H   0  0  0  0  0  0  0  0  0  0  0  0
    1.1751    2.1983   12.9434 C   0  0  0  0  0  0  0  0  0  0  0  0
    1.4225    1.4943   11.8138 C   0  0  0  0  0  0  0  0  0  0  0  0
    1.1860    2.0667   10.5730 C   0  0  0  0  0  0  0  0  0  0  0  0
    0.6959    3.3579   10.4918 C   0  0  0  0  0  0  0  0  0  0  0  0
    0.4565    3.9396    9.2879 F   0  0  0  0  0  0  0  0  0  0  0  0
    0.4401    4.0818   11.6360 C   0  0  0  0  0  0  0  0  0  0  0  0
    0.6783    3.5052   12.8541 C   0  0  0  0  0  0  0  0  0  0  0  0
    3.4320   -0.0802   20.0931 N   0  0  0  0  0  0  0  0  0  0  0  0
    4.0295   -0.9535   20.1585 H   0  0  0  0  0  0  0  0  0  0  0  0
    2.8564    0.4850   21.2685 C   0  0  0  0  0  0  0  0  0  0  0  0
    3.8269    1.0277   22.2696 C   0  0  0  0  0  0  0  0  0  0  0  0
    5.6056    2.5123   21.4973 C   0  0  0  0  0  0  0  0  0  0  0  0
    4.1624    2.4834   21.9958 C   0  0  0  0  0  0  0  0  0  0  0  0
    4.3960    3.3216   16.8346 N   0  0  0  0  0  0  0  0  0  0  0  0
    4.3057    3.8978   16.0005 H   0  0  0  0  0  0  0  0  0  0  0  0
    5.3675    3.8412   17.8108 C   0  0  0  0  0  0  0  0  0  0  0  0
    5.2151    5.3333   18.0009 C   0  0  0  0  0  0  0  0  0  0  0  0
    6.2687    5.8133   18.9181 C   0  0  0  0  0  0  0  0  0  0  0  0
    5.8916    6.1599   20.3041 C   0  0  0  0  0  0  0  0  0  0  0  0
    4.4532    6.4092   20.5790 C   0  0  0  0  0  0  0  0  0  0  0  0
    4.1121    6.3752   21.9726 N   0  0  0  0  0  0  0  0  0  0  0  0
    3.6515    5.3186   19.8887 C   0  0  0  0  0  0  0  0  0  0  0  0
    3.7981    5.5949   18.4085 C   0  0  0  0  0  0  0  0  0  0  0  0
    3.0660    6.2714   22.0401 H   0  0  0  0  0  0  0  0  0  0  0  0
    4.4012    7.2305   22.5014 H   0  0  0  0  0  0  0  0  0  0  0  0
 22 23  1  0  0  0
 23 21  1  0  0  0
 21 20  1  0  0  0
 20 18  1  0  0  0
 18  1  1  0  0  0
  1  2  2  0  0  0
  2  3  1  0  0  0
  3  4  2  0  0  0
  4  7  1  0  0  0
  7  8  2  0  0  0
  7  9  1  0  0  0
  9 11  1  0  0  0
 11 12  2  0  0  0
 12 13  1  0  0  0
 13 14  2  0  0  0
 14 15  1  0  0  0
 14 16  1  0  0  0
 16 17  2  0  0  0
  4  5  1  0  0  0
  5 24  1  0  0  0
 24 26  1  0  0  0
 26 27  1  0  0  0
 27 28  1  0  0  0
 28 29  1  0  0  0
 29 30  1  0  0  0
 30 31  1  0  0  0
 30 32  1  0  0  0
 32 33  1  0  0  0
  5  6  2  0  0  0
  6  1  1  0  0  0
 17 11  1  0  0  0
 33 27  1  0  0  0
 18 19  1  0  0  0
  9 10  1  0  0  0
 24 25  1  0  0  0
 31 34  1  0  0  0
 31 35  1  0  0  0
M  END
> <minimizedAffinity>
-7.72950

> <CNNscore>
0.9036035538

> <CNNaffinity>
7.2483887672

> <CNN_VS>
6.5496697426

> <CNNaffinity_variance>
0.1238573790

$$$$
[H]c1nc(N([H])C([H])([H])C([H])([H])C([H])([H])C([H])([H])[H])nc(N([H])C([H])([H])C2([H])C([H])([H])C([H])([H])C([H])(N([H])[H])C([H])([H])C2([H])[H])c1C(=O)N([H])c1c([H])c([H])c(F)c([H])c1[H]


 35 37  0  0  0  0  0  0  0  0999 V2000
    4.1089    1.5237   18.4506 C   0  0  0  0  0  0  0  0  0  0  0  0
    3.2514    0.7240   17.8116 N   0  0  0  0  0  0  0  0  0  0  0  0
    2.8702    1.0432   16.5654 C   0  0  0  0  0  0  0  0  0  0  0  0
    3.3364    2.1775   15.9150 C   0  0  0  0  0  0  0  0  0  0  0  0
    4.2058    2.9858   16.5661 C   0  0  0  0  0  0  0  0  0  0  0  0
    4.5610    2.6140   17.8335 N   0  0  0  0  0  0  0  0  0  0  0  0
    2.8769    2.4720   14.5386 C   0  0  0  0  0  0  0  0  0  0  0  0
    3.5936    3.0407   13.6863 O   0  0  0  0  0  0  0  0  0  0  0  0
    1.5721    2.1145   14.1131 N   0  0  0  0  0  0  0  0  0  0  0  0
    0.8796    1.6307   14.7705 H   0  0  0  0  0  0  0  0  0  0  0  0
    1.1317    2.3792   12.7969 C   0  0  0  0  0  0  0  0  0  0  0  0
    1.2893    1.5610   11.7299 C   0  0  0  0  0  0  0  0  0  0  0  0
    0.8427    1.9580   10.4784 C   0  0  0  0  0  0  0  0  0  0  0  0
    0.2350    3.1911   10.3228 C   0  0  0  0  0  0  0  0  0  0  0  0
   -0.2104    3.6017    9.1070 F   0  0  0  0  0  0  0  0  0  0  0  0
    0.0694    4.0302   11.4032 C   0  0  0  0  0  0  0  0  0  0  0  0
    0.5151    3.6264   12.6325 C   0  0  0  0  0  0  0  0  0  0  0  0
    4.4965    1.1638   19.7682 N   0  0  0  0  0  0  0  0  0  0  0  0
    4.4421    0.1313   20.0025 H   0  0  0  0  0  0  0  0  0  0  0  0
    4.9383    2.0995   20.7488 C   0  0  0  0  0  0  0  0  0  0  0  0
    6.0142    1.6156   21.6690 C   0  0  0  0  0  0  0  0  0  0  0  0
    4.7914    2.1612   23.7114 C   0  0  0  0  0  0  0  0  0  0  0  0
    6.0800    2.4423   22.9414 C   0  0  0  0  0  0  0  0  0  0  0  0
    4.7614    4.1731   16.0274 N   0  0  0  0  0  0  0  0  0  0  0  0
    5.0040    4.3621   15.0572 H   0  0  0  0  0  0  0  0  0  0  0  0
    5.0358    5.2979   16.9363 C   0  0  0  0  0  0  0  0  0  0  0  0
    3.8419    6.2184   17.0520 C   0  0  0  0  0  0  0  0  0  0  0  0
    4.2682    7.6015   16.7573 C   0  0  0  0  0  0  0  0  0  0  0  0
    4.4068    8.5505   17.8813 C   0  0  0  0  0  0  0  0  0  0  0  0
    3.7252    8.2052   19.1551 C   0  0  0  0  0  0  0  0  0  0  0  0
    4.1904    8.9556   20.2866 N   0  0  0  0  0  0  0  0  0  0  0  0
    3.9921    6.7374   19.4430 C   0  0  0  0  0  0  0  0  0  0  0  0
    3.2143    5.9787   18.3904 C   0  0  0  0  0  0  0  0  0  0  0  0
    3.8710    8.4508   21.1543 H   0  0  0  0  0  0  0  0  0  0  0  0
    3.8356    9.9394   20.3185 H   0  0  0  0  0  0  0  0  0  0  0  0
 22 23  1  0  0  0
 23 21  1  0  0  0
 21 20  1  0  0  0
 20 18  1  0  0  0
 18  1  1  0  0  0
  1  2  2  0  0  0
  2  3  1  0  0  0
  3  4  2  0  0  0
  4  7  1  0  0  0
  7  8  2  0  0  0
  7  9  1  0  0  0
  9 11  1  0  0  0
 11 12  2  0  0  0
 12 13  1  0  0  0
 13 14  2  0  0  0
 14 15  1  0  0  0
 14 16  1  0  0  0
 16 17  2  0  0  0
  4  5  1  0  0  0
  5 24  1  0  0  0
 24 26  1  0  0  0
 26 27  1  0  0  0
 27 28  1  0  0  0
 28 29  1  0  0  0
 29 30  1  0  0  0
 30 31  1  0  0  0
 30 32  1  0  0  0
 32 33  1  0  0  0
  5  6  2  0  0  0
  6  1  1  0  0  0
 17 11  1  0  0  0
 33 27  1  0  0  0
 18 19  1  0  0  0
  9 10  1  0  0  0
 24 25  1  0  0  0
 31 34  1  0  0  0
 31 35  1  0  0  0
M  END
> <minimizedAffinity>
-7.38138

> <CNNscore>
0.5558325648

> <CNNaffinity>
6.7381744385

> <CNN_VS>
3.7452967167

> <CNNaffinity_variance>
0.5111385584

$$$$
[H]c1nc(N([H])C([H])([H])C([H])([H])C([H])([H])C([H])([H])[H])nc(N([H])C([H])([H])C2([H])C([H])([H])C([H])([H])C([H])(N([H])[H])C([H])([H])C2([H])[H])c1C(=O)N([H])c1c([H])c([H])c(F)c([H])c1[H]


 35 37  0  0  0  0  0  0  0  0999 V2000
    3.4820    1.1268   18.1649 C   0  0  0  0  0  0  0  0  0  0  0  0
    2.9384    0.5781   17.0756 N   0  0  0  0  0  0  0  0  0  0  0  0
    2.8058    1.3248   15.9687 C   0  0  0  0  0  0  0  0  0  0  0  0
    3.2146    2.6503   15.9152 C   0  0  0  0  0  0  0  0  0  0  0  0
    3.7655    3.2031   17.0216 C   0  0  0  0  0  0  0  0  0  0  0  0
    3.8770    2.3981   18.1217 N   0  0  0  0  0  0  0  0  0  0  0  0
    3.0410    3.4190   14.6617 C   0  0  0  0  0  0  0  0  0  0  0  0
    1.9302    3.5892   14.1131 O   0  0  0  0  0  0  0  0  0  0  0  0
    4.1522    4.0118   14.0097 N   0  0  0  0  0  0  0  0  0  0  0  0
    5.1462    3.9170   14.3955 H   0  0  0  0  0  0  0  0  0  0  0  0
    3.9923    4.7589   12.8212 C   0  0  0  0  0  0  0  0  0  0  0  0
    4.1028    4.2756   11.5615 C   0  0  0  0  0  0  0  0  0  0  0  0
    3.9596    5.1268   10.4760 C   0  0  0  0  0  0  0  0  0  0  0  0
    3.7026    6.4703   10.6831 C   0  0  0  0  0  0  0  0  0  0  0  0
    3.5584    7.3233    9.6358 F   0  0  0  0  0  0  0  0  0  0  0  0
    3.5874    6.9712   11.9616 C   0  0  0  0  0  0  0  0  0  0  0  0
    3.7314    6.1204   13.0239 C   0  0  0  0  0  0  0  0  0  0  0  0
    3.6110    0.3157   19.3230 N   0  0  0  0  0  0  0  0  0  0  0  0
    4.0493   -0.6383   19.1751 H   0  0  0  0  0  0  0  0  0  0  0  0
    3.1909    0.7182   20.6244 C   0  0  0  0  0  0  0  0  0  0  0  0
    4.2752    0.8354   21.6488 C   0  0  0  0  0  0  0  0  0  0  0  0
    6.4918    1.8477   21.8110 C   0  0  0  0  0  0  0  0  0  0  0  0
    5.6529    0.8544   21.0099 C   0  0  0  0  0  0  0  0  0  0  0  0
    4.2256    4.5405   17.1112 N   0  0  0  0  0  0  0  0  0  0  0  0
    4.7615    5.0618   16.4206 H   0  0  0  0  0  0  0  0  0  0  0  0
    3.9151    5.3126   18.3254 C   0  0  0  0  0  0  0  0  0  0  0  0
    5.1538    5.5556   19.1573 C   0  0  0  0  0  0  0  0  0  0  0  0
    4.8921    5.1329   20.5481 C   0  0  0  0  0  0  0  0  0  0  0  0
    4.6762    6.1757   21.5725 C   0  0  0  0  0  0  0  0  0  0  0  0
    5.1387    7.5513   21.2552 C   0  0  0  0  0  0  0  0  0  0  0  0
    4.5828    8.5636   22.1072 N   0  0  0  0  0  0  0  0  0  0  0  0
    4.7106    7.8700   19.8326 C   0  0  0  0  0  0  0  0  0  0  0  0
    5.5629    6.9817   18.9533 C   0  0  0  0  0  0  0  0  0  0  0  0
    4.7322    9.4928   21.6340 H   0  0  0  0  0  0  0  0  0  0  0  0
    5.0112    8.5979   23.0612 H   0  0  0  0  0  0  0  0  0  0  0  0
 22 23  1  0  0  0
 23 21  1  0  0  0
 21 20  1  0  0  0
 20 18  1  0  0  0
 18  1  1  0  0  0
  1  2  2  0  0  0
  2  3  1  0  0  0
  3  4  2  0  0  0
  4  7  1  0  0  0
  7  8  2  0  0  0
  7  9  1  0  0  0
  9 11  1  0  0  0
 11 12  2  0  0  0
 12 13  1  0  0  0
 13 14  2  0  0  0
 14 15  1  0  0  0
 14 16  1  0  0  0
 16 17  2  0  0  0
  4  5  1  0  0  0
  5 24  1  0  0  0
 24 26  1  0  0  0
 26 27  1  0  0  0
 27 28  1  0  0  0
 28 29  1  0  0  0
 29 30  1  0  0  0
 30 31  1  0  0  0
 30 32  1  0  0  0
 32 33  1  0  0  0
  5  6  2  0  0  0
  6  1  1  0  0  0
 17 11  1  0  0  0
 33 27  1  0  0  0
 18 19  1  0  0  0
  9 10  1  0  0  0
 24 25  1  0  0  0
 31 34  1  0  0  0
 31 35  1  0  0  0
M  END
> <minimizedAffinity>
-7.23905

> <CNNscore>
0.5290065408

> <CNNaffinity>
6.7839727402

> <CNN_VS>
3.5887658596

> <CNNaffinity_variance>
0.5157401562

$$$$
[H]c1nc(N([H])C([H])([H])C([H])([H])C([H])([H])C([H])([H])[H])nc(N([H])C([H])([H])C2([H])C([H])([H])C([H])([H])C([H])(N([H])[H])C([H])([H])C2([H])[H])c1C(=O)N([H])c1c([H])c([H])c(F)c([H])c1[H]


 35 37  0  0  0  0  0  0  0  0999 V2000
    4.3719    1.4668   19.6699 C   0  0  0  0  0  0  0  0  0  0  0  0
    3.6469    0.9568   18.6713 N   0  0  0  0  0  0  0  0  0  0  0  0
    3.4313    1.7033   17.5774 C   0  0  0  0  0  0  0  0  0  0  0  0
    3.9361    2.9898   17.4464 C   0  0  0  0  0  0  0  0  0  0  0  0
    4.6708    3.5034   18.4610 C   0  0  0  0  0  0  0  0  0  0  0  0
    4.8600    2.7005   19.5520 N   0  0  0  0  0  0  0  0  0  0  0  0
    3.6624    3.7605   16.2121 C   0  0  0  0  0  0  0  0  0  0  0  0
    4.5417    4.4064   15.6011 O   0  0  0  0  0  0  0  0  0  0  0  0
    2.3600    3.8030   15.6525 N   0  0  0  0  0  0  0  0  0  0  0  0
    1.5370    3.2895   16.1051 H   0  0  0  0  0  0  0  0  0  0  0  0
    2.0944    4.5244   14.4670 C   0  0  0  0  0  0  0  0  0  0  0  0
    2.2513    4.0592   13.2054 C   0  0  0  0  0  0  0  0  0  0  0  0
    1.9903    4.8859   12.1229 C   0  0  0  0  0  0  0  0  0  0  0  0
    1.5682    6.1862   12.3350 C   0  0  0  0  0  0  0  0  0  0  0  0
    1.3064    7.0145   11.2906 F   0  0  0  0  0  0  0  0  0  0  0  0
    1.4047    6.6682   13.6154 C   0  0  0  0  0  0  0  0  0  0  0  0
    1.6662    5.8421   14.6747 C   0  0  0  0  0  0  0  0  0  0  0  0
    4.5855    0.6568   20.8163 N   0  0  0  0  0  0  0  0  0  0  0  0
    5.0154   -0.2958   20.6380 H   0  0  0  0  0  0  0  0  0  0  0  0
    4.2574    1.0586   22.1441 C   0  0  0  0  0  0  0  0  0  0  0  0
    5.2354    1.9791   22.8036 C   0  0  0  0  0  0  0  0  0  0  0  0
    4.0353    4.0529   23.2767 C   0  0  0  0  0  0  0  0  0  0  0  0
    4.5882    2.7821   23.9185 C   0  0  0  0  0  0  0  0  0  0  0  0
    5.2462    4.7985   18.4650 N   0  0  0  0  0  0  0  0  0  0  0  0
    6.0797    5.1107   17.9713 H   0  0  0  0  0  0  0  0  0  0  0  0
    4.5978    5.8551   19.2587 C   0  0  0  0  0  0  0  0  0  0  0  0
    5.2719    7.1927   19.0532 C   0  0  0  0  0  0  0  0  0  0  0  0
    4.4795    8.2414   19.7269 C   0  0  0  0  0  0  0  0  0  0  0  0
    3.6642    9.1512   18.8959 C   0  0  0  0  0  0  0  0  0  0  0  0
    3.9989    9.2415   17.4514 C   0  0  0  0  0  0  0  0  0  0  0  0
    2.9675    9.8373   16.6507 N   0  0  0  0  0  0  0  0  0  0  0  0
    4.2160    7.8293   16.9346 C   0  0  0  0  0  0  0  0  0  0  0  0
    5.5006    7.3625   17.5830 C   0  0  0  0  0  0  0  0  0  0  0  0
    3.1675    9.5949   15.6452 H   0  0  0  0  0  0  0  0  0  0  0  0
    2.9074   10.8779   16.7415 H   0  0  0  0  0  0  0  0  0  0  0  0
 22 23  1  0  0  0
 23 21  1  0  0  0
 21 20  1  0  0  0
 20 18  1  0  0  0
 18  1  1  0  0  0
  1  2  2  0  0  0
  2  3  1  0  0  0
  3  4  2  0  0  0
  4  7  1  0  0  0
  7  8  2  0  0  0
  7  9  1  0  0  0
  9 11  1  0  0  0
 11 12  2  0  0  0
 12 13  1  0  0  0
 13 14  2  0  0  0
 14 15  1  0  0  0
 14 16  1  0  0  0
 16 17  2  0  0  0
  4  5  1  0  0  0
  5 24  1  0  0  0
 24 26  1  0  0  0
 26 27  1  0  0  0
 27 28  1  0  0  0
 28 29  1  0  0  0
 29 30  1  0  0  0
 30 31  1  0  0  0
 30 32  1  0  0  0
 32 33  1  0  0  0
  5  6  2  0  0  0
  6  1  1  0  0  0
 17 11  1  0  0  0
 33 27  1  0  0  0
 18 19  1  0  0  0
  9 10  1  0  0  0
 24 25  1  0  0  0
 31 34  1  0  0  0
 31 35  1  0  0  0
M  END
> <minimizedAffinity>
-7.07675

> <CNNscore>
0.3922737241

> <CNNaffinity>
6.4997076988

> <CNN_VS>
2.5496644974

> <CNNaffinity_variance>
0.6467680335

$$$$
[H]c1nc(N([H])C([H])([H])C([H])([H])C([H])([H])C([H])([H])[H])nc(N([H])C([H])([H])C2([H])C([H])([H])C([H])([H])C([H])(N([H])[H])C([H])([H])C2([H])[H])c1C(=O)N([H])c1c([H])c([H])c(F)c([H])c1[H]


 35 37  0  0  0  0  0  0  0  0999 V2000
    2.4586    2.1888   14.9037 C   0  0  0  0  0  0  0  0  0  0  0  0
    3.1683    1.2084   15.4677 N   0  0  0  0  0  0  0  0  0  0  0  0
    3.6570    1.3882   16.7043 C   0  0  0  0  0  0  0  0  0  0  0  0
    3.4507    2.5597   17.4200 C   0  0  0  0  0  0  0  0  0  0  0  0
    2.7305    3.5514   16.8448 C   0  0  0  0  0  0  0  0  0  0  0  0
    2.2560    3.3160   15.5838 N   0  0  0  0  0  0  0  0  0  0  0  0
    4.0166    2.6940   18.7816 C   0  0  0  0  0  0  0  0  0  0  0  0
    4.6168    3.7185   19.1738 O   0  0  0  0  0  0  0  0  0  0  0  0
    3.9018    1.6424   19.7262 N   0  0  0  0  0  0  0  0  0  0  0  0
    3.4127    0.7214   19.4849 H   0  0  0  0  0  0  0  0  0  0  0  0
    4.4266    1.7690   21.0319 C   0  0  0  0  0  0  0  0  0  0  0  0
    3.7252    2.1158   22.1367 C   0  0  0  0  0  0  0  0  0  0  0  0
    4.3706    2.2423   23.3577 C   0  0  0  0  0  0  0  0  0  0  0  0
    5.7321    2.0123   23.4445 C   0  0  0  0  0  0  0  0  0  0  0  0
    6.3860    2.1300   24.6294 F   0  0  0  0  0  0  0  0  0  0  0  0
    6.4540    1.6579   22.3257 C   0  0  0  0  0  0  0  0  0  0  0  0
    5.8049    1.5370   21.1270 C   0  0  0  0  0  0  0  0  0  0  0  0
    1.9527    1.9737   13.5946 N   0  0  0  0  0  0  0  0  0  0  0  0
    0.9979    1.5168   13.5352 H   0  0  0  0  0  0  0  0  0  0  0  0
    2.6509    2.3338   12.4051 C   0  0  0  0  0  0  0  0  0  0  0  0
    2.0914    1.7815   11.1320 C   0  0  0  0  0  0  0  0  0  0  0  0
    2.7253    0.0904    9.4881 C   0  0  0  0  0  0  0  0  0  0  0  0
    3.1894    1.3794   10.1629 C   0  0  0  0  0  0  0  0  0  0  0  0
    2.4423    4.7974   17.4554 N   0  0  0  0  0  0  0  0  0  0  0  0
    2.0237    4.9608   18.3686 H   0  0  0  0  0  0  0  0  0  0  0  0
    2.7718    6.0326   16.7257 C   0  0  0  0  0  0  0  0  0  0  0  0
    4.1678    5.9772   16.1480 C   0  0  0  0  0  0  0  0  0  0  0  0
    5.1214    6.5202   17.1365 C   0  0  0  0  0  0  0  0  0  0  0  0
    5.6810    7.8686   16.9085 C   0  0  0  0  0  0  0  0  0  0  0  0
    5.5941    8.4206   15.5321 C   0  0  0  0  0  0  0  0  0  0  0  0
    5.8105    9.8375   15.4582 N   0  0  0  0  0  0  0  0  0  0  0  0
    4.1943    8.1472   15.0083 C   0  0  0  0  0  0  0  0  0  0  0  0
    4.1304    6.6488   14.8100 C   0  0  0  0  0  0  0  0  0  0  0  0
    5.4493   10.1646   14.5242 H   0  0  0  0  0  0  0  0  0  0  0  0
    6.8140   10.1191   15.5494 H   0  0  0  0  0  0  0  0  0  0  0  0
 22 23  1  0  0  0
 23 21  1  0  0  0
 21 20  1  0  0  0
 20 18  1  0  0  0
 18  1  1  0  0  0
  1  2  2  0  0  0
  2  3  1  0  0  0
  3  4  2  0  0  0
  4  7  1  0  0  0
  7  8  2  0  0  0
  7  9  1  0  0  0
  9 11  1  0  0  0
 11 12  2  0  0  0
 12 13  1  0  0  0
 13 14  2  0  0  0
 14 15  1  0  0  0
 14 16  1  0  0  0
 16 17  2  0  0  0
  4  5  1  0  0  0
  5 24  1  0  0  0
 24 26  1  0  0  0
 26 27  1  0  0  0
 27 28  1  0  0  0
 28 29  1  0  0  0
 29 30  1  0  0  0
 30 31  1  0  0  0
 30 32  1  0  0  0
 32 33  1  0  0  0
  5  6  2  0  0  0
  6  1  1  0  0  0
 17 11  1  0  0  0
 33 27  1  0  0  0
 18 19  1  0  0  0
  9 10  1  0  0  0
 24 25  1  0  0  0
 31 34  1  0  0  0
 31 35  1  0  0  0
M  END
> <minimizedAffinity>
-6.54287

> <CNNscore>
0.3827942610

> <CNNaffinity>
6.5363273621

> <CNN_VS>
2.5020685196

> <CNNaffinity_variance>
0.3718848825

$$$$
[H]c1nc(N([H])C([H])([H])C([H])([H])C([H])([H])C([H])([H])[H])nc(N([H])C([H])([H])C2([H])C([H])([H])C([H])([H])C([H])(N([H])[H])C([H])([H])C2([H])[H])c1C(=O)N([H])c1c([H])c([H])c(F)c([H])c1[H]


 35 37  0  0  0  0  0  0  0  0999 V2000
    4.5395    1.2046   20.0795 C   0  0  0  0  0  0  0  0  0  0  0  0
    3.5582    0.5638   19.4395 N   0  0  0  0  0  0  0  0  0  0  0  0
    3.1173    1.0522   18.2702 C   0  0  0  0  0  0  0  0  0  0  0  0
    3.6459    2.2025   17.7005 C   0  0  0  0  0  0  0  0  0  0  0  0
    4.6408    2.8493   18.3523 C   0  0  0  0  0  0  0  0  0  0  0  0
    5.0522    2.3089   19.5395 N   0  0  0  0  0  0  0  0  0  0  0  0
    3.1149    2.6881   16.4065 C   0  0  0  0  0  0  0  0  0  0  0  0
    2.0630    3.3570   16.3077 O   0  0  0  0  0  0  0  0  0  0  0  0
    3.7903    2.4108   15.1907 N   0  0  0  0  0  0  0  0  0  0  0  0
    4.6950    1.8390   15.1683 H   0  0  0  0  0  0  0  0  0  0  0  0
    3.2974    2.8833   13.9537 C   0  0  0  0  0  0  0  0  0  0  0  0
    3.5483    4.0992   13.4141 C   0  0  0  0  0  0  0  0  0  0  0  0
    2.9695    4.4553   12.2052 C   0  0  0  0  0  0  0  0  0  0  0  0
    2.1361    3.5652   11.5515 C   0  0  0  0  0  0  0  0  0  0  0  0
    1.5578    3.8915   10.3665 F   0  0  0  0  0  0  0  0  0  0  0  0
    1.8757    2.3250   12.0925 C   0  0  0  0  0  0  0  0  0  0  0  0
    2.4530    1.9864   13.2863 C   0  0  0  0  0  0  0  0  0  0  0  0
    4.9880    0.6674   21.3149 N   0  0  0  0  0  0  0  0  0  0  0  0
    5.5561   -0.2256   21.2538 H   0  0  0  0  0  0  0  0  0  0  0  0
    4.7149    1.2586   22.5830 C   0  0  0  0  0  0  0  0  0  0  0  0
    3.8318    2.4662   22.5591 C   0  0  0  0  0  0  0  0  0  0  0  0
    3.6445    4.8959   22.7191 C   0  0  0  0  0  0  0  0  0  0  0  0
    4.5787    3.7177   22.9862 C   0  0  0  0  0  0  0  0  0  0  0  0
    5.2722    4.0313   17.8911 N   0  0  0  0  0  0  0  0  0  0  0  0
    5.9061    4.1304   17.1010 H   0  0  0  0  0  0  0  0  0  0  0  0
    5.0104    5.2933   18.6019 C   0  0  0  0  0  0  0  0  0  0  0  0
    3.9020    6.0804   17.9402 C   0  0  0  0  0  0  0  0  0  0  0  0
    4.1837    6.1891   16.4944 C   0  0  0  0  0  0  0  0  0  0  0  0
    4.6622    7.4830   15.9653 C   0  0  0  0  0  0  0  0  0  0  0  0
    4.4378    8.6889   16.8032 C   0  0  0  0  0  0  0  0  0  0  0  0
    5.2313    9.8213   16.4186 N   0  0  0  0  0  0  0  0  0  0  0  0
    4.8109    8.3380   18.2337 C   0  0  0  0  0  0  0  0  0  0  0  0
    3.7476    7.3652   18.6939 C   0  0  0  0  0  0  0  0  0  0  0  0
    5.2204   10.5030   17.2217 H   0  0  0  0  0  0  0  0  0  0  0  0
    4.8880   10.3077   15.5583 H   0  0  0  0  0  0  0  0  0  0  0  0
 22 23  1  0  0  0
 23 21  1  0  0  0
 21 20  1  0  0  0
 20 18  1  0  0  0
 18  1  1  0  0  0
  1  2  2  0  0  0
  2  3  1  0  0  0
  3  4  2  0  0  0
  4  7  1  0  0  0
  7  8  2  0  0  0
  7  9  1  0  0  0
  9 11  1  0  0  0
 11 12  2  0  0  0
 12 13  1  0  0  0
 13 14  2  0  0  0
 14 15  1  0  0  0
 14 16  1  0  0  0
 16 17  2  0  0  0
  4  5  1  0  0  0
  5 24  1  0  0  0
 24 26  1  0  0  0
 26 27  1  0  0  0
 27 28  1  0  0  0
 28 29  1  0  0  0
 29 30  1  0  0  0
 30 31  1  0  0  0
 30 32  1  0  0  0
 32 33  1  0  0  0
  5  6  2  0  0  0
  6  1  1  0  0  0
 17 11  1  0  0  0
 33 27  1  0  0  0
 18 19  1  0  0  0
  9 10  1  0  0  0
 24 25  1  0  0  0
 31 34  1  0  0  0
 31 35  1  0  0  0
M  END
> <minimizedAffinity>
-6.43822

> <CNNscore>
0.3594472706

> <CNNaffinity>
6.4758009911

> <CNN_VS>
2.3277089596

> <CNNaffinity_variance>
0.6975944638

$$$$
[H]c1nc(N([H])C([H])([H])C([H])([H])C([H])([H])C([H])([H])[H])nc(N([H])C([H])([H])C2([H])C([H])([H])C([H])([H])C([H])(N([H])[H])C([H])([H])C2([H])[H])c1C(=O)N([H])c1c([H])c([H])c(F)c([H])c1[H]


 35 37  0  0  0  0  0  0  0  0999 V2000
    3.2359    2.7146   14.4413 C   0  0  0  0  0  0  0  0  0  0  0  0
    2.6398    1.8505   15.2667 N   0  0  0  0  0  0  0  0  0  0  0  0
    2.8798    1.9387   16.5839 C   0  0  0  0  0  0  0  0  0  0  0  0
    3.7275    2.8981   17.1205 C   0  0  0  0  0  0  0  0  0  0  0  0
    4.3299    3.7725   16.2805 C   0  0  0  0  0  0  0  0  0  0  0  0
    4.0506    3.6383   14.9483 N   0  0  0  0  0  0  0  0  0  0  0  0
    3.9488    2.9421   18.5839 C   0  0  0  0  0  0  0  0  0  0  0  0
    3.7175    3.9551   19.2796 O   0  0  0  0  0  0  0  0  0  0  0  0
    4.4451    1.8109   19.2807 N   0  0  0  0  0  0  0  0  0  0  0  0
    4.6813    0.8981   18.7742 H   0  0  0  0  0  0  0  0  0  0  0  0
    4.6451    1.8407   20.6791 C   0  0  0  0  0  0  0  0  0  0  0  0
    3.7246    1.5167   21.6174 C   0  0  0  0  0  0  0  0  0  0  0  0
    4.0376    1.6257   22.9641 C   0  0  0  0  0  0  0  0  0  0  0  0
    5.2925    2.0651   23.3465 C   0  0  0  0  0  0  0  0  0  0  0  0
    5.6221    2.1800   24.6592 F   0  0  0  0  0  0  0  0  0  0  0  0
    6.2361    2.3963   22.3986 C   0  0  0  0  0  0  0  0  0  0  0  0
    5.9141    2.2846   21.0732 C   0  0  0  0  0  0  0  0  0  0  0  0
    2.9654    2.6001   13.0522 N   0  0  0  0  0  0  0  0  0  0  0  0
    3.7140    2.9738   12.4011 H   0  0  0  0  0  0  0  0  0  0  0  0
    1.7741    2.0254   12.5206 C   0  0  0  0  0  0  0  0  0  0  0  0
    1.5155    2.2927   11.0713 C   0  0  0  0  0  0  0  0  0  0  0  0
    0.5100    0.3368   10.0094 C   0  0  0  0  0  0  0  0  0  0  0  0
    1.8284    1.0806   10.2113 C   0  0  0  0  0  0  0  0  0  0  0  0
    5.2172    4.8003   16.6865 N   0  0  0  0  0  0  0  0  0  0  0  0
    6.1925    4.7073   16.9622 H   0  0  0  0  0  0  0  0  0  0  0  0
    4.7196    6.1849   16.7280 C   0  0  0  0  0  0  0  0  0  0  0  0
    5.6528    7.0841   17.5067 C   0  0  0  0  0  0  0  0  0  0  0  0
    6.3796    6.2758   18.5067 C   0  0  0  0  0  0  0  0  0  0  0  0
    5.9844    6.3891   19.9259 C   0  0  0  0  0  0  0  0  0  0  0  0
    5.1935    7.5826   20.3218 C   0  0  0  0  0  0  0  0  0  0  0  0
    4.5417    7.4536   21.5939 N   0  0  0  0  0  0  0  0  0  0  0  0
    4.1110    7.7916   19.2762 C   0  0  0  0  0  0  0  0  0  0  0  0
    4.8444    8.2317   18.0283 C   0  0  0  0  0  0  0  0  0  0  0  0
    3.7988    8.1986   21.6460 H   0  0  0  0  0  0  0  0  0  0  0  0
    5.1842    7.5597   22.4128 H   0  0  0  0  0  0  0  0  0  0  0  0
 22 23  1  0  0  0
 23 21  1  0  0  0
 21 20  1  0  0  0
 20 18  1  0  0  0
 18  1  1  0  0  0
  1  2  2  0  0  0
  2  3  1  0  0  0
  3  4  2  0  0  0
  4  7  1  0  0  0
  7  8  2  0  0  0
  7  9  1  0  0  0
  9 11  1  0  0  0
 11 12  2  0  0  0
 12 13  1  0  0  0
 13 14  2  0  0  0
 14 15  1  0  0  0
 14 16  1  0  0  0
 16 17  2  0  0  0
  4  5  1  0  0  0
  5 24  1  0  0  0
 24 26  1  0  0  0
 26 27  1  0  0  0
 27 28  1  0  0  0
 28 29  1  0  0  0
 29 30  1  0  0  0
 30 31  1  0  0  0
 30 32  1  0  0  0
 32 33  1  0  0  0
  5  6  2  0  0  0
  6  1  1  0  0  0
 17 11  1  0  0  0
 33 27  1  0  0  0
 18 19  1  0  0  0
  9 10  1  0  0  0
 24 25  1  0  0  0
 31 34  1  0  0  0
 31 35  1  0  0  0
M  END
> <minimizedAffinity>
-7.83280

> <CNNscore>
0.3566431701

> <CNNaffinity>
6.5953598022

> <CNN_VS>
2.3521900177

> <CNNaffinity_variance>
0.3060346544

$$$$
[H]c1nc2nc(c1C(=O)N([H])C([H])([H])c1c([H])c([H])c(F)c([H])c1[H])N([H])C([H])([H])C([H])([H])C([H])([H])C([H])([H])[C@]([H])(N([H])[H])C(=O)N([H])C([H])([H])C([H])([H])C([H])([H])C([H])([H])C([H])([H])N2[H]


 39 41  0  0  0  0  0  0  0  0999 V2000
   -1.1206    6.7389    9.8551 N   0  0  0  0  0  0  0  0  0  0  0  0
   -0.2195    6.2583   10.8969 C   0  0  0  0  0  0  0  0  0  0  0  0
   -0.0909    7.3520   11.9225 C   0  0  0  0  0  0  0  0  0  0  0  0
    1.2933    7.9377   11.9541 C   0  0  0  0  0  0  0  0  0  0  0  0
    1.8449    7.9747   13.3588 C   0  0  0  0  0  0  0  0  0  0  0  0
    2.9480    6.9873   13.5767 C   0  0  0  0  0  0  0  0  0  0  0  0
    2.5693    6.0809   14.6408 N   0  0  0  0  0  0  0  0  0  0  0  0
    2.9857    4.7263   14.7492 C   0  0  0  0  0  0  0  0  0  0  0  0
    2.9637    3.8962   13.6912 N   0  0  0  0  0  0  0  0  0  0  0  0
    3.3034    2.6160   13.8015 C   0  0  0  0  0  0  0  0  0  0  0  0
    3.2979    1.7005   12.7144 N   0  0  0  0  0  0  0  0  0  0  0  0
    2.5743    2.0244   11.5000 C   0  0  0  0  0  0  0  0  0  0  0  0
    1.1237    1.7214   11.7557 C   0  0  0  0  0  0  0  0  0  0  0  0
    0.3094    1.6853   10.4973 C   0  0  0  0  0  0  0  0  0  0  0  0
    0.5496    2.8745    9.6077 C   0  0  0  0  0  0  0  0  0  0  0  0
   -0.7828    3.5909    9.4385 C   0  0  0  0  0  0  0  0  0  0  0  0
   -1.2839    3.9531   10.7371 N   0  0  0  0  0  0  0  0  0  0  0  0
   -0.7458    5.0157   11.5171 C   0  0  0  0  0  0  0  0  0  0  0  0
   -0.6978    4.9339   12.7835 O   0  0  0  0  0  0  0  0  0  0  0  0
    3.6779    2.1396   14.9987 N   0  0  0  0  0  0  0  0  0  0  0  0
    3.7344    2.8937   16.1259 C   0  0  0  0  0  0  0  0  0  0  0  0
    3.3718    4.2394   15.9781 C   0  0  0  0  0  0  0  0  0  0  0  0
   -2.0954    6.3893    9.9940 H   0  0  0  0  0  0  0  0  0  0  0  0
   -1.0506    7.7611    9.8066 H   0  0  0  0  0  0  0  0  0  0  0  0
    1.9185    6.4677   15.3803 H   0  0  0  0  0  0  0  0  0  0  0  0
    3.7969    0.7829   12.7366 H   0  0  0  0  0  0  0  0  0  0  0  0
   -2.0935    3.4275   11.1705 H   0  0  0  0  0  0  0  0  0  0  0  0
    3.4865    5.1096   17.1399 C   0  0  0  0  0  0  0  0  0  0  0  0
    3.9488    6.2950   17.0202 O   0  0  0  0  0  0  0  0  0  0  0  0
    3.0849    4.6575   18.4236 N   0  0  0  0  0  0  0  0  0  0  0  0
    2.6966    3.7278   18.5914 H   0  0  0  0  0  0  0  0  0  0  0  0
    3.2344    5.5850   19.5566 C   0  0  0  0  0  0  0  0  0  0  0  0
    3.9100    4.9041   20.6649 C   0  0  0  0  0  0  0  0  0  0  0  0
    3.7746    5.3327   21.9476 C   0  0  0  0  0  0  0  0  0  0  0  0
    4.4289    4.6754   22.9746 C   0  0  0  0  0  0  0  0  0  0  0  0
    5.2124    3.5905   22.6889 C   0  0  0  0  0  0  0  0  0  0  0  0
    5.8674    2.9242   23.6725 F   0  0  0  0  0  0  0  0  0  0  0  0
    5.3489    3.1600   21.4065 C   0  0  0  0  0  0  0  0  0  0  0  0
    4.7037    3.8028   20.3655 C   0  0  0  0  0  0  0  0  0  0  0  0
  1  2  1  0  0  0
  2  3  1  0  0  0
  3  4  1  0  0  0
  4  5  1  0  0  0
  5  6  1  0  0  0
  6  7  1  0  0  0
  7  8  1  0  0  0
  8  9  2  0  0  0
  9 10  1  0  0  0
 10 11  1  0  0  0
 11 12  1  0  0  0
 12 13  1  0  0  0
 13 14  1  0  0  0
 14 15  1  0  0  0
 15 16  1  0  0  0
 16 17  1  0  0  0
 17 18  1  0  0  0
 18 19  2  0  0  0
 10 20  2  0  0  0
 20 21  1  0  0  0
 21 22  2  0  0  0
 22 28  1  0  0  0
 28 29  2  0  0  0
 28 30  1  0  0  0
 30 32  1  0  0  0
 32 33  1  0  0  0
 33 34  2  0  0  0
 34 35  1  0  0  0
 35 36  2  0  0  0
 36 37  1  0  0  0
 36 38  1  0  0  0
 38 39  2  0  0  0
 18  2  1  0  0  0
 39 33  1  0  0  0
 22  8  1  0  0  0
  1 23  1  0  0  0
  1 24  1  0  0  0
  7 25  1  0  0  0
 11 26  1  0  0  0
 17 27  1  0  0  0
 30 31  1  0  0  0
M  END
> <minimizedAffinity>
-7.92254

> <CNNscore>
0.3631032407

> <CNNaffinity>
5.8579730988

> <CNN_VS>
2.1270489693

> <CNNaffinity_variance>
1.5258443356

$$$$
[H]c1nc2nc(c1C(=O)N([H])C([H])([H])c1c([H])c([H])c(F)c([H])c1[H])N([H])C([H])([H])C([H])([H])C([H])([H])C([H])([H])[C@]([H])(N([H])[H])C(=O)N([H])C([H])([H])C([H])([H])C([H])([H])C([H])([H])C([H])([H])N2[H]


 39 41  0  0  0  0  0  0  0  0999 V2000
    3.8723    0.2732   17.7357 N   0  0  0  0  0  0  0  0  0  0  0  0
    4.3120    1.5756   18.2244 C   0  0  0  0  0  0  0  0  0  0  0  0
    4.0169    2.5849   17.1478 C   0  0  0  0  0  0  0  0  0  0  0  0
    5.2718    3.1537   16.5466 C   0  0  0  0  0  0  0  0  0  0  0  0
    5.2402    4.6627   16.5283 C   0  0  0  0  0  0  0  0  0  0  0  0
    6.1921    5.2763   17.5064 C   0  0  0  0  0  0  0  0  0  0  0  0
    5.4495    6.1019   18.4363 N   0  0  0  0  0  0  0  0  0  0  0  0
    5.8163    6.3457   19.7876 C   0  0  0  0  0  0  0  0  0  0  0  0
    6.2174    5.3508   20.5987 N   0  0  0  0  0  0  0  0  0  0  0  0
    6.5113    5.5679   21.8766 C   0  0  0  0  0  0  0  0  0  0  0  0
    6.9405    4.5513   22.7724 N   0  0  0  0  0  0  0  0  0  0  0  0
    6.7338    3.1560   22.4353 C   0  0  0  0  0  0  0  0  0  0  0  0
    5.3020    2.8303   22.7599 C   0  0  0  0  0  0  0  0  0  0  0  0
    5.0350    1.3552   22.7829 C   0  0  0  0  0  0  0  0  0  0  0  0
    5.5775    0.6408   21.5752 C   0  0  0  0  0  0  0  0  0  0  0  0
    4.4002   -0.0193   20.8716 C   0  0  0  0  0  0  0  0  0  0  0  0
    3.4319    0.9909   20.5387 N   0  0  0  0  0  0  0  0  0  0  0  0
    3.6098    1.9306   19.4840 C   0  0  0  0  0  0  0  0  0  0  0  0
    3.1686    3.1169   19.5880 O   0  0  0  0  0  0  0  0  0  0  0  0
    6.4052    6.8112   22.3700 N   0  0  0  0  0  0  0  0  0  0  0  0
    6.0105    7.8823   21.6357 C   0  0  0  0  0  0  0  0  0  0  0  0
    5.7087    7.6226   20.2918 C   0  0  0  0  0  0  0  0  0  0  0  0
    2.9254    0.0222   18.0992 H   0  0  0  0  0  0  0  0  0  0  0  0
    3.9374    0.2678   16.7121 H   0  0  0  0  0  0  0  0  0  0  0  0
    4.5577    6.5387   18.0704 H   0  0  0  0  0  0  0  0  0  0  0  0
    7.4088    4.7527   23.6844 H   0  0  0  0  0  0  0  0  0  0  0  0
    2.5274    1.0730   21.0815 H   0  0  0  0  0  0  0  0  0  0  0  0
    5.3525    8.7496   19.4414 C   0  0  0  0  0  0  0  0  0  0  0  0
    6.0223    9.8368   19.4897 O   0  0  0  0  0  0  0  0  0  0  0  0
    4.2576    8.6590   18.5432 N   0  0  0  0  0  0  0  0  0  0  0  0
    3.6858    7.8186   18.4435 H   0  0  0  0  0  0  0  0  0  0  0  0
    3.9469    9.8373   17.7176 C   0  0  0  0  0  0  0  0  0  0  0  0
    4.3586    9.5910   16.3326 C   0  0  0  0  0  0  0  0  0  0  0  0
    5.6213    9.1895   16.0298 C   0  0  0  0  0  0  0  0  0  0  0  0
    5.9857    8.9703   14.7129 C   0  0  0  0  0  0  0  0  0  0  0  0
    5.0651    9.1603   13.7185 C   0  0  0  0  0  0  0  0  0  0  0  0
    5.3904    8.9544   12.4177 F   0  0  0  0  0  0  0  0  0  0  0  0
    3.8014    9.5617   14.0194 C   0  0  0  0  0  0  0  0  0  0  0  0
    3.4169    9.7863   15.3289 C   0  0  0  0  0  0  0  0  0  0  0  0
  1  2  1  0  0  0
  2  3  1  0  0  0
  3  4  1  0  0  0
  4  5  1  0  0  0
  5  6  1  0  0  0
  6  7  1  0  0  0
  7  8  1  0  0  0
  8  9  2  0  0  0
  9 10  1  0  0  0
 10 11  1  0  0  0
 11 12  1  0  0  0
 12 13  1  0  0  0
 13 14  1  0  0  0
 14 15  1  0  0  0
 15 16  1  0  0  0
 16 17  1  0  0  0
 17 18  1  0  0  0
 18 19  2  0  0  0
 10 20  2  0  0  0
 20 21  1  0  0  0
 21 22  2  0  0  0
 22 28  1  0  0  0
 28 29  2  0  0  0
 28 30  1  0  0  0
 30 32  1  0  0  0
 32 33  1  0  0  0
 33 34  2  0  0  0
 34 35  1  0  0  0
 35 36  2  0  0  0
 36 37  1  0  0  0
 36 38  1  0  0  0
 38 39  2  0  0  0
 18  2  1  0  0  0
 39 33  1  0  0  0
 22  8  1  0  0  0
  1 23  1  0  0  0
  1 24  1  0  0  0
  7 25  1  0  0  0
 11 26  1  0  0  0
 17 27  1  0  0  0
 30 31  1  0  0  0
M  END
> <minimizedAffinity>
-7.13153

> <CNNscore>
0.3523149490

> <CNNaffinity>
6.1400346756

> <CNN_VS>
2.1632258892

> <CNNaffinity_variance>
0.8822000623

$$$$
[H]c1nc2nc(c1C(=O)N([H])C([H])([H])c1c([H])c([H])c(F)c([H])c1[H])N([H])C([H])([H])C([H])([H])C([H])([H])C([H])([H])[C@]([H])(N([H])[H])C(=O)N([H])C([H])([H])C([H])([H])C([H])([H])C([H])([H])C([H])([H])N2[H]


 39 41  0  0  0  0  0  0  0  0999 V2000
    4.1792    0.3626   19.0620 N   0  0  0  0  0  0  0  0  0  0  0  0
    4.4570    1.7948   19.0703 C   0  0  0  0  0  0  0  0  0  0  0  0
    3.8039    2.3884   17.8514 C   0  0  0  0  0  0  0  0  0  0  0  0
    4.8132    2.8959   16.8596 C   0  0  0  0  0  0  0  0  0  0  0  0
    4.5096    4.3136   16.4395 C   0  0  0  0  0  0  0  0  0  0  0  0
    5.4915    5.3040   16.9820 C   0  0  0  0  0  0  0  0  0  0  0  0
    4.7861    6.2760   17.7913 N   0  0  0  0  0  0  0  0  0  0  0  0
    5.3322    6.9590   18.9118 C   0  0  0  0  0  0  0  0  0  0  0  0
    6.0393    6.3115   19.8549 N   0  0  0  0  0  0  0  0  0  0  0  0
    6.5069    6.9382   20.9296 C   0  0  0  0  0  0  0  0  0  0  0  0
    7.2597    6.2992   21.9519 N   0  0  0  0  0  0  0  0  0  0  0  0
    7.2505    4.8530   22.0600 C   0  0  0  0  0  0  0  0  0  0  0  0
    5.9784    4.4706   22.7650 C   0  0  0  0  0  0  0  0  0  0  0  0
    5.9875    3.0504   23.2455 C   0  0  0  0  0  0  0  0  0  0  0  0
    6.4311    2.0754   22.1891 C   0  0  0  0  0  0  0  0  0  0  0  0
    5.2868    1.0968   21.9657 C   0  0  0  0  0  0  0  0  0  0  0  0
    4.1107    1.8349   21.5905 N   0  0  0  0  0  0  0  0  0  0  0  0
    3.9321    2.4264   20.3078 C   0  0  0  0  0  0  0  0  0  0  0  0
    3.3107    3.5265   20.1792 O   0  0  0  0  0  0  0  0  0  0  0  0
    6.2674    8.2502   21.0776 N   0  0  0  0  0  0  0  0  0  0  0  0
    5.5662    8.9937   20.1843 C   0  0  0  0  0  0  0  0  0  0  0  0
    5.0872    8.3059   19.0610 C   0  0  0  0  0  0  0  0  0  0  0  0
    3.3702    0.1209   19.6774 H   0  0  0  0  0  0  0  0  0  0  0  0
    4.0656    0.0561   18.0897 H   0  0  0  0  0  0  0  0  0  0  0  0
    3.7808    6.4712   17.5242 H   0  0  0  0  0  0  0  0  0  0  0  0
    7.8354    6.8215   22.6499 H   0  0  0  0  0  0  0  0  0  0  0  0
    3.3143    1.9676   22.2742 H   0  0  0  0  0  0  0  0  0  0  0  0
    4.3931    9.0717   18.0354 C   0  0  0  0  0  0  0  0  0  0  0  0
    3.4096    9.8274   18.3434 O   0  0  0  0  0  0  0  0  0  0  0  0
    4.7983    8.9941   16.6777 N   0  0  0  0  0  0  0  0  0  0  0  0
    5.5818    8.4204   16.3612 H   0  0  0  0  0  0  0  0  0  0  0  0
    4.0490    9.7883   15.6906 C   0  0  0  0  0  0  0  0  0  0  0  0
    3.6102    8.9225   14.5923 C   0  0  0  0  0  0  0  0  0  0  0  0
    2.6072    9.2949   13.7541 C   0  0  0  0  0  0  0  0  0  0  0  0
    2.2081    8.4554   12.7290 C   0  0  0  0  0  0  0  0  0  0  0  0
    2.8312    7.2481   12.5656 C   0  0  0  0  0  0  0  0  0  0  0  0
    2.4636    6.4020   11.5709 F   0  0  0  0  0  0  0  0  0  0  0  0
    3.8349    6.8739   13.4028 C   0  0  0  0  0  0  0  0  0  0  0  0
    4.2490    7.6980   14.4336 C   0  0  0  0  0  0  0  0  0  0  0  0
  1  2  1  0  0  0
  2  3  1  0  0  0
  3  4  1  0  0  0
  4  5  1  0  0  0
  5  6  1  0  0  0
  6  7  1  0  0  0
  7  8  1  0  0  0
  8  9  2  0  0  0
  9 10  1  0  0  0
 10 11  1  0  0  0
 11 12  1  0  0  0
 12 13  1  0  0  0
 13 14  1  0  0  0
 14 15  1  0  0  0
 15 16  1  0  0  0
 16 17  1  0  0  0
 17 18  1  0  0  0
 18 19  2  0  0  0
 10 20  2  0  0  0
 20 21  1  0  0  0
 21 22  2  0  0  0
 22 28  1  0  0  0
 28 29  2  0  0  0
 28 30  1  0  0  0
 30 32  1  0  0  0
 32 33  1  0  0  0
 33 34  2  0  0  0
 34 35  1  0  0  0
 35 36  2  0  0  0
 36 37  1  0  0  0
 36 38  1  0  0  0
 38 39  2  0  0  0
 18  2  1  0  0  0
 39 33  1  0  0  0
 22  8  1  0  0  0
  1 23  1  0  0  0
  1 24  1  0  0  0
  7 25  1  0  0  0
 11 26  1  0  0  0
 17 27  1  0  0  0
 30 31  1  0  0  0
M  END
> <minimizedAffinity>
-7.41993

> <CNNscore>
0.3411835432

> <CNNaffinity>
5.9696264267

> <CNN_VS>
2.0367383957

> <CNNaffinity_variance>
1.2050173283

$$$$
[H]c1nc2nc(c1C(=O)N([H])C([H])([H])c1c([H])c([H])c(F)c([H])c1[H])N([H])C([H])([H])C([H])([H])C([H])([H])C([H])([H])[C@]([H])(N([H])[H])C(=O)N([H])C([H])([H])C([H])([H])C([H])([H])C([H])([H])C([H])([H])N2[H]


 39 41  0  0  0  0  0  0  0  0999 V2000
    8.9350    2.8103    6.6634 N   0  0  0  0  0  0  0  0  0  0  0  0
    7.8576    3.7636    6.9059 C   0  0  0  0  0  0  0  0  0  0  0  0
    7.1077    3.2971    8.1244 C   0  0  0  0  0  0  0  0  0  0  0  0
    5.7111    2.8507    7.7924 C   0  0  0  0  0  0  0  0  0  0  0  0
    4.6929    3.5090    8.6916 C   0  0  0  0  0  0  0  0  0  0  0  0
    3.8547    4.5222    7.9772 C   0  0  0  0  0  0  0  0  0  0  0  0
    4.0223    5.8112    8.6159 N   0  0  0  0  0  0  0  0  0  0  0  0
    3.9294    7.0682    7.9593 C   0  0  0  0  0  0  0  0  0  0  0  0
    4.5326    7.2919    6.7782 N   0  0  0  0  0  0  0  0  0  0  0  0
    4.4904    8.4817    6.1873 C   0  0  0  0  0  0  0  0  0  0  0  0
    5.1096    8.7670    4.9402 N   0  0  0  0  0  0  0  0  0  0  0  0
    6.1275    7.8759    4.4177 C   0  0  0  0  0  0  0  0  0  0  0  0
    7.4119    8.2085    5.1257 C   0  0  0  0  0  0  0  0  0  0  0  0
    8.6129    7.6091    4.4578 C   0  0  0  0  0  0  0  0  0  0  0  0
    8.4393    6.1497    4.1362 C   0  0  0  0  0  0  0  0  0  0  0  0
    9.5303    5.3891    4.8764 C   0  0  0  0  0  0  0  0  0  0  0  0
    9.4213    5.6711    6.2825 N   0  0  0  0  0  0  0  0  0  0  0  0
    8.3999    5.1305    7.1140 C   0  0  0  0  0  0  0  0  0  0  0  0
    7.9137    5.8080    8.0719 O   0  0  0  0  0  0  0  0  0  0  0  0
    3.8293    9.4852    6.7842 N   0  0  0  0  0  0  0  0  0  0  0  0
    3.1879    9.3626    7.9742 C   0  0  0  0  0  0  0  0  0  0  0  0
    3.2488    8.0965    8.5722 C   0  0  0  0  0  0  0  0  0  0  0  0
    9.8448    3.1464    7.0522 H   0  0  0  0  0  0  0  0  0  0  0  0
    8.6470    1.8923    7.0188 H   0  0  0  0  0  0  0  0  0  0  0  0
    4.2463    5.7992    9.6501 H   0  0  0  0  0  0  0  0  0  0  0  0
    4.8702    9.6025    4.3605 H   0  0  0  0  0  0  0  0  0  0  0  0
   10.1166    6.3084    6.7620 H   0  0  0  0  0  0  0  0  0  0  0  0
    2.5147    7.8907    9.8128 C   0  0  0  0  0  0  0  0  0  0  0  0
    1.2738    7.5863    9.7901 O   0  0  0  0  0  0  0  0  0  0  0  0
    3.1650    8.0222   11.0672 N   0  0  0  0  0  0  0  0  0  0  0  0
    4.1557    8.2519   11.1607 H   0  0  0  0  0  0  0  0  0  0  0  0
    2.3628    7.8081   12.2827 C   0  0  0  0  0  0  0  0  0  0  0  0
    2.7004    6.5098   12.8734 C   0  0  0  0  0  0  0  0  0  0  0  0
    2.0437    6.0360   13.9650 C   0  0  0  0  0  0  0  0  0  0  0  0
    2.3869    4.8099   14.5068 C   0  0  0  0  0  0  0  0  0  0  0  0
    3.3918    4.0781   13.9349 C   0  0  0  0  0  0  0  0  0  0  0  0
    3.7527    2.8725   14.4417 F   0  0  0  0  0  0  0  0  0  0  0  0
    4.0497    4.5501   12.8427 C   0  0  0  0  0  0  0  0  0  0  0  0
    3.7224    5.7732   12.2858 C   0  0  0  0  0  0  0  0  0  0  0  0
  1  2  1  0  0  0
  2  3  1  0  0  0
  3  4  1  0  0  0
  4  5  1  0  0  0
  5  6  1  0  0  0
  6  7  1  0  0  0
  7  8  1  0  0  0
  8  9  2  0  0  0
  9 10  1  0  0  0
 10 11  1  0  0  0
 11 12  1  0  0  0
 12 13  1  0  0  0
 13 14  1  0  0  0
 14 15  1  0  0  0
 15 16  1  0  0  0
 16 17  1  0  0  0
 17 18  1  0  0  0
 18 19  2  0  0  0
 10 20  2  0  0  0
 20 21  1  0  0  0
 21 22  2  0  0  0
 22 28  1  0  0  0
 28 29  2  0  0  0
 28 30  1  0  0  0
 30 32  1  0  0  0
 32 33  1  0  0  0
 33 34  2  0  0  0
 34 35  1  0  0  0
 35 36  2  0  0  0
 36 37  1  0  0  0
 36 38  1  0  0  0
 38 39  2  0  0  0
 18  2  1  0  0  0
 39 33  1  0  0  0
 22  8  1  0  0  0
  1 23  1  0  0  0
  1 24  1  0  0  0
  7 25  1  0  0  0
 11 26  1  0  0  0
 17 27  1  0  0  0
 30 31  1  0  0  0
M  END
> <minimizedAffinity>
-6.07760

> <CNNscore>
0.3397864103

> <CNNaffinity>
5.0252981186

> <CNN_VS>
1.7075279951

> <CNNaffinity_variance>
0.9056268930

$$$$
[H]c1nc2nc(c1C(=O)N([H])C([H])([H])c1c([H])c([H])c(F)c([H])c1[H])N([H])C([H])([H])C([H])([H])C([H])([H])C([H])([H])[C@]([H])(N([H])[H])C(=O)N([H])C([H])([H])C([H])([H])C([H])([H])C([H])([H])C([H])([H])N2[H]


 39 41  0  0  0  0  0  0  0  0999 V2000
    7.7423    2.4722    5.3146 N   0  0  0  0  0  0  0  0  0  0  0  0
    6.8757    2.9255    6.3971 C   0  0  0  0  0  0  0  0  0  0  0  0
    6.7801    1.8059    7.3980 C   0  0  0  0  0  0  0  0  0  0  0  0
    5.3975    1.2189    7.4596 C   0  0  0  0  0  0  0  0  0  0  0  0
    4.8919    1.1456    8.8800 C   0  0  0  0  0  0  0  0  0  0  0  0
    3.7967    2.1266    9.1589 C   0  0  0  0  0  0  0  0  0  0  0  0
    4.2102    3.0057   10.2331 N   0  0  0  0  0  0  0  0  0  0  0  0
    3.7979    4.3569   10.3895 C   0  0  0  0  0  0  0  0  0  0  0  0
    3.7859    5.2138    9.3530 N   0  0  0  0  0  0  0  0  0  0  0  0
    3.4504    6.4906    9.5071 C   0  0  0  0  0  0  0  0  0  0  0  0
    3.4209    7.4336    8.4441 N   0  0  0  0  0  0  0  0  0  0  0  0
    4.1046    7.1412    7.1990 C   0  0  0  0  0  0  0  0  0  0  0  0
    5.5628    7.4383    7.4151 C   0  0  0  0  0  0  0  0  0  0  0  0
    6.3358    7.5070    6.1323 C   0  0  0  0  0  0  0  0  0  0  0  0
    6.0664    6.3409    5.2208 C   0  0  0  0  0  0  0  0  0  0  0  0
    7.3923    5.6297    4.9900 C   0  0  0  0  0  0  0  0  0  0  0  0
    7.9352    5.2346    6.2620 N   0  0  0  0  0  0  0  0  0  0  0  0
    7.4223    4.1521    7.0315 C   0  0  0  0  0  0  0  0  0  0  0  0
    7.4155    4.2014    8.3006 O   0  0  0  0  0  0  0  0  0  0  0  0
    3.1151    6.9360   10.7276 N   0  0  0  0  0  0  0  0  0  0  0  0
    3.0950    6.1532   11.8363 C   0  0  0  0  0  0  0  0  0  0  0  0
    3.4522    4.8119   11.6424 C   0  0  0  0  0  0  0  0  0  0  0  0
    8.7212    2.8186    5.4307 H   0  0  0  0  0  0  0  0  0  0  0  0
    7.6704    1.4515    5.2423 H   0  0  0  0  0  0  0  0  0  0  0  0
    4.8845    2.6003   10.9408 H   0  0  0  0  0  0  0  0  0  0  0  0
    2.9233    8.3501    8.5060 H   0  0  0  0  0  0  0  0  0  0  0  0
    8.7586    5.7493    6.6821 H   0  0  0  0  0  0  0  0  0  0  0  0
    3.3750    3.9122   12.7847 C   0  0  0  0  0  0  0  0  0  0  0  0
    2.6525    2.8593   12.7342 O   0  0  0  0  0  0  0  0  0  0  0  0
    4.1021    4.1877   13.9717 N   0  0  0  0  0  0  0  0  0  0  0  0
    4.7074    5.0034   14.0785 H   0  0  0  0  0  0  0  0  0  0  0  0
    3.9736    3.2411   15.0915 C   0  0  0  0  0  0  0  0  0  0  0  0
    3.9644    3.9762   16.3595 C   0  0  0  0  0  0  0  0  0  0  0  0
    5.0819    4.0798   17.1263 C   0  0  0  0  0  0  0  0  0  0  0  0
    5.0439    4.7743   18.3226 C   0  0  0  0  0  0  0  0  0  0  0  0
    3.8734    5.3562   18.7271 C   0  0  0  0  0  0  0  0  0  0  0  0
    3.8027    6.0438   19.8944 F   0  0  0  0  0  0  0  0  0  0  0  0
    2.7546    5.2540   17.9613 C   0  0  0  0  0  0  0  0  0  0  0  0
    2.7710    4.5643   16.7624 C   0  0  0  0  0  0  0  0  0  0  0  0
  1  2  1  0  0  0
  2  3  1  0  0  0
  3  4  1  0  0  0
  4  5  1  0  0  0
  5  6  1  0  0  0
  6  7  1  0  0  0
  7  8  1  0  0  0
  8  9  2  0  0  0
  9 10  1  0  0  0
 10 11  1  0  0  0
 11 12  1  0  0  0
 12 13  1  0  0  0
 13 14  1  0  0  0
 14 15  1  0  0  0
 15 16  1  0  0  0
 16 17  1  0  0  0
 17 18  1  0  0  0
 18 19  2  0  0  0
 10 20  2  0  0  0
 20 21  1  0  0  0
 21 22  2  0  0  0
 22 28  1  0  0  0
 28 29  2  0  0  0
 28 30  1  0  0  0
 30 32  1  0  0  0
 32 33  1  0  0  0
 33 34  2  0  0  0
 34 35  1  0  0  0
 35 36  2  0  0  0
 36 37  1  0  0  0
 36 38  1  0  0  0
 38 39  2  0  0  0
 18  2  1  0  0  0
 39 33  1  0  0  0
 22  8  1  0  0  0
  1 23  1  0  0  0
  1 24  1  0  0  0
  7 25  1  0  0  0
 11 26  1  0  0  0
 17 27  1  0  0  0
 30 31  1  0  0  0
M  END
> <minimizedAffinity>
-6.08510

> <CNNscore>
0.3251758218

> <CNNaffinity>
5.5405793190

> <CNN_VS>
1.8016624451

> <CNNaffinity_variance>
1.4938764572

$$$$
[H]c1nc2nc(c1C(=O)N([H])C([H])([H])c1c([H])c([H])c(F)c([H])c1[H])N([H])C([H])([H])C([H])([H])C([H])([H])C([H])([H])[C@]([H])(N([H])[H])C(=O)N([H])C([H])([H])C([H])([H])C([H])([H])C([H])([H])C([H])([H])N2[H]


 39 41  0  0  0  0  0  0  0  0999 V2000
    0.9369    3.0029    9.0295 N   0  0  0  0  0  0  0  0  0  0  0  0
    1.6877    4.0264    9.7488 C   0  0  0  0  0  0  0  0  0  0  0  0
    1.0384    4.2001   11.0952 C   0  0  0  0  0  0  0  0  0  0  0  0
    0.3907    5.5488   11.2408 C   0  0  0  0  0  0  0  0  0  0  0  0
    0.8238    6.2345   12.5140 C   0  0  0  0  0  0  0  0  0  0  0  0
    1.7259    7.4028   12.2675 C   0  0  0  0  0  0  0  0  0  0  0  0
    2.9872    7.1783   12.9429 N   0  0  0  0  0  0  0  0  0  0  0  0
    4.2473    7.6720   12.5089 C   0  0  0  0  0  0  0  0  0  0  0  0
    4.6315    7.5875   11.2228 N   0  0  0  0  0  0  0  0  0  0  0  0
    5.8299    8.0014   10.8238 C   0  0  0  0  0  0  0  0  0  0  0  0
    6.2811    7.9348    9.4777 N   0  0  0  0  0  0  0  0  0  0  0  0
    5.5975    7.0786    8.5275 C   0  0  0  0  0  0  0  0  0  0  0  0
    6.0940    5.6779    8.7578 C   0  0  0  0  0  0  0  0  0  0  0  0
    5.7356    4.7457    7.6396 C   0  0  0  0  0  0  0  0  0  0  0  0
    4.2877    4.8354    7.2410 C   0  0  0  0  0  0  0  0  0  0  0  0
    3.6740    3.4580    7.4485 C   0  0  0  0  0  0  0  0  0  0  0  0
    3.8555    3.0704    8.8217 N   0  0  0  0  0  0  0  0  0  0  0  0
    3.1107    3.6283    9.8991 C   0  0  0  0  0  0  0  0  0  0  0  0
    3.6457    3.8059   11.0372 O   0  0  0  0  0  0  0  0  0  0  0  0
    6.6779    8.5167   11.7270 N   0  0  0  0  0  0  0  0  0  0  0  0
    6.3865    8.6462   13.0464 C   0  0  0  0  0  0  0  0  0  0  0  0
    5.1156    8.2025   13.4367 C   0  0  0  0  0  0  0  0  0  0  0  0
    1.3938    2.0659    9.0995 H   0  0  0  0  0  0  0  0  0  0  0  0
   -0.0341    3.0155    9.3597 H   0  0  0  0  0  0  0  0  0  0  0  0
    2.9539    6.5852   13.8188 H   0  0  0  0  0  0  0  0  0  0  0  0
    7.0978    8.4797    9.1205 H   0  0  0  0  0  0  0  0  0  0  0  0
    4.5693    2.3357    9.0866 H   0  0  0  0  0  0  0  0  0  0  0  0
    4.7245    8.3874   14.8270 C   0  0  0  0  0  0  0  0  0  0  0  0
    3.6415    8.9988   15.1210 O   0  0  0  0  0  0  0  0  0  0  0  0
    5.5374    7.8900   15.8784 N   0  0  0  0  0  0  0  0  0  0  0  0
    6.4091    7.3827   15.7175 H   0  0  0  0  0  0  0  0  0  0  0  0
    5.0874    8.1176   17.2613 C   0  0  0  0  0  0  0  0  0  0  0  0
    4.7763    6.8335   17.8958 C   0  0  0  0  0  0  0  0  0  0  0  0
    5.3927    5.6851   17.5103 C   0  0  0  0  0  0  0  0  0  0  0  0
    5.0754    4.4850   18.1217 C   0  0  0  0  0  0  0  0  0  0  0  0
    4.1370    4.4634   19.1174 C   0  0  0  0  0  0  0  0  0  0  0  0
    3.8031    3.3035   19.7368 F   0  0  0  0  0  0  0  0  0  0  0  0
    3.5195    5.6111   19.5048 C   0  0  0  0  0  0  0  0  0  0  0  0
    3.8220    6.8211   18.9066 C   0  0  0  0  0  0  0  0  0  0  0  0
  1  2  1  0  0  0
  2  3  1  0  0  0
  3  4  1  0  0  0
  4  5  1  0  0  0
  5  6  1  0  0  0
  6  7  1  0  0  0
  7  8  1  0  0  0
  8  9  2  0  0  0
  9 10  1  0  0  0
 10 11  1  0  0  0
 11 12  1  0  0  0
 12 13  1  0  0  0
 13 14  1  0  0  0
 14 15  1  0  0  0
 15 16  1  0  0  0
 16 17  1  0  0  0
 17 18  1  0  0  0
 18 19  2  0  0  0
 10 20  2  0  0  0
 20 21  1  0  0  0
 21 22  2  0  0  0
 22 28  1  0  0  0
 28 29  2  0  0  0
 28 30  1  0  0  0
 30 32  1  0  0  0
 32 33  1  0  0  0
 33 34  2  0  0  0
 34 35  1  0  0  0
 35 36  2  0  0  0
 36 37  1  0  0  0
 36 38  1  0  0  0
 38 39  2  0  0  0
 18  2  1  0  0  0
 39 33  1  0  0  0
 22  8  1  0  0  0
  1 23  1  0  0  0
  1 24  1  0  0  0
  7 25  1  0  0  0
 11 26  1  0  0  0
 17 27  1  0  0  0
 30 31  1  0  0  0
M  END
> <minimizedAffinity>
-6.77975

> <CNNscore>
0.3024873734

> <CNNaffinity>
5.5790853500

> <CNN_VS>
1.6876028776

> <CNNaffinity_variance>
2.2611496449

$$$$
[H]c1nc2nc(c1C(=O)N([H])C([H])([H])c1c([H])c([H])c(F)c([H])c1[H])N([H])C([H])([H])C([H])([H])C([H])([H])C([H])([H])[C@]([H])(N([H])[H])C(=O)N([H])C([H])([H])C([H])([H])C([H])([H])C([H])([H])C([H])([H])N2[H]


 39 41  0  0  0  0  0  0  0  0999 V2000
    4.9067    9.6990   19.0481 N   0  0  0  0  0  0  0  0  0  0  0  0
    4.5825    8.8114   17.9367 C   0  0  0  0  0  0  0  0  0  0  0  0
    4.7727    9.5926   16.6646 C   0  0  0  0  0  0  0  0  0  0  0  0
    3.4724    9.8362   15.9508 C   0  0  0  0  0  0  0  0  0  0  0  0
    3.5571    9.4362   14.4977 C   0  0  0  0  0  0  0  0  0  0  0  0
    2.7632    8.2067   14.1856 C   0  0  0  0  0  0  0  0  0  0  0  0
    3.6499    7.1921   13.6548 N   0  0  0  0  0  0  0  0  0  0  0  0
    3.4705    5.7899   13.8021 C   0  0  0  0  0  0  0  0  0  0  0  0
    3.1413    5.2427   14.9857 N   0  0  0  0  0  0  0  0  0  0  0  0
    3.0236    3.9276   15.1379 C   0  0  0  0  0  0  0  0  0  0  0  0
    2.6768    3.3022   16.3662 N   0  0  0  0  0  0  0  0  0  0  0  0
    2.7864    4.0404   17.6097 C   0  0  0  0  0  0  0  0  0  0  0  0
    4.2352    4.0156   18.0121 C   0  0  0  0  0  0  0  0  0  0  0  0
    4.4483    4.4419   19.4337 C   0  0  0  0  0  0  0  0  0  0  0  0
    3.7279    5.7165   19.7792 C   0  0  0  0  0  0  0  0  0  0  0  0
    4.7790    6.7284   20.2131 C   0  0  0  0  0  0  0  0  0  0  0  0
    5.7327    6.8930   19.1490 N   0  0  0  0  0  0  0  0  0  0  0  0
    5.4545    7.6092   17.9504 C   0  0  0  0  0  0  0  0  0  0  0  0
    5.9489    7.2383   16.8409 O   0  0  0  0  0  0  0  0  0  0  0  0
    3.2386    3.1254   14.0839 N   0  0  0  0  0  0  0  0  0  0  0  0
    3.5741    3.5775   12.8488 C   0  0  0  0  0  0  0  0  0  0  0  0
    3.6895    4.9682   12.7190 C   0  0  0  0  0  0  0  0  0  0  0  0
    5.8828    9.5511   19.3904 H   0  0  0  0  0  0  0  0  0  0  0  0
    4.7095   10.6649   18.7649 H   0  0  0  0  0  0  0  0  0  0  0  0
    4.5024    7.5380   13.1316 H   0  0  0  0  0  0  0  0  0  0  0  0
    2.3383    2.3159   16.4304 H   0  0  0  0  0  0  0  0  0  0  0  0
    6.7022    6.4759   19.2222 H   0  0  0  0  0  0  0  0  0  0  0  0
    3.9740    5.5099   11.3976 C   0  0  0  0  0  0  0  0  0  0  0  0
    3.4353    6.6035   11.0144 O   0  0  0  0  0  0  0  0  0  0  0  0
    4.8557    4.8343   10.5145 N   0  0  0  0  0  0  0  0  0  0  0  0
    5.3299    3.9630   10.7579 H   0  0  0  0  0  0  0  0  0  0  0  0
    5.0940    5.4324    9.1908 C   0  0  0  0  0  0  0  0  0  0  0  0
    5.9195    4.5295    8.3836 C   0  0  0  0  0  0  0  0  0  0  0  0
    7.0970    4.0377    8.8516 C   0  0  0  0  0  0  0  0  0  0  0  0
    7.8602    3.1921    8.0660 C   0  0  0  0  0  0  0  0  0  0  0  0
    7.4202    2.8545    6.8150 C   0  0  0  0  0  0  0  0  0  0  0  0
    8.1448    2.0280    6.0198 F   0  0  0  0  0  0  0  0  0  0  0  0
    6.2425    3.3451    6.3452 C   0  0  0  0  0  0  0  0  0  0  0  0
    5.4646    4.1917    7.1141 C   0  0  0  0  0  0  0  0  0  0  0  0
  1  2  1  0  0  0
  2  3  1  0  0  0
  3  4  1  0  0  0
  4  5  1  0  0  0
  5  6  1  0  0  0
  6  7  1  0  0  0
  7  8  1  0  0  0
  8  9  2  0  0  0
  9 10  1  0  0  0
 10 11  1  0  0  0
 11 12  1  0  0  0
 12 13  1  0  0  0
 13 14  1  0  0  0
 14 15  1  0  0  0
 15 16  1  0  0  0
 16 17  1  0  0  0
 17 18  1  0  0  0
 18 19  2  0  0  0
 10 20  2  0  0  0
 20 21  1  0  0  0
 21 22  2  0  0  0
 22 28  1  0  0  0
 28 29  2  0  0  0
 28 30  1  0  0  0
 30 32  1  0  0  0
 32 33  1  0  0  0
 33 34  2  0  0  0
 34 35  1  0  0  0
 35 36  2  0  0  0
 36 37  1  0  0  0
 36 38  1  0  0  0
 38 39  2  0  0  0
 18  2  1  0  0  0
 39 33  1  0  0  0
 22  8  1  0  0  0
  1 23  1  0  0  0
  1 24  1  0  0  0
  7 25  1  0  0  0
 11 26  1  0  0  0
 17 27  1  0  0  0
 30 31  1  0  0  0
M  END
> <minimizedAffinity>
-6.67222

> <CNNscore>
0.2387042344

> <CNNaffinity>
5.4234685898

> <CNN_VS>
1.2946048975

> <CNNaffinity_variance>
0.8426235914

$$$$
[H]c1nc2nc(c1C(=O)N([H])C([H])([H])c1c([H])c([H])c(F)c([H])c1[H])N([H])C([H])([H])C([H])([H])C([H])([H])C([H])([H])[C@]([H])(N([H])[H])C(=O)N([H])C([H])([H])C([H])([H])C([H])([H])C([H])([H])C([H])([H])N2[H]


 39 41  0  0  0  0  0  0  0  0999 V2000
    4.7969    3.3559   22.1373 N   0  0  0  0  0  0  0  0  0  0  0  0
    4.7261    4.0546   20.8585 C   0  0  0  0  0  0  0  0  0  0  0  0
    4.1640    3.0912   19.8482 C   0  0  0  0  0  0  0  0  0  0  0  0
    5.1767    2.7121   18.8039 C   0  0  0  0  0  0  0  0  0  0  0  0
    4.6236    2.8854   17.4101 C   0  0  0  0  0  0  0  0  0  0  0  0
    5.2420    4.0345   16.6777 C   0  0  0  0  0  0  0  0  0  0  0  0
    4.2042    4.9745   16.3080 N   0  0  0  0  0  0  0  0  0  0  0  0
    4.3812    6.3784   16.1743 C   0  0  0  0  0  0  0  0  0  0  0  0
    5.0535    7.0939   17.0934 N   0  0  0  0  0  0  0  0  0  0  0  0
    5.1761    8.4138   16.9973 C   0  0  0  0  0  0  0  0  0  0  0  0
    5.8771    9.2131   17.9407 N   0  0  0  0  0  0  0  0  0  0  0  0
    6.1890    8.6777   19.2519 C   0  0  0  0  0  0  0  0  0  0  0  0
    4.9430    8.7959   20.0854 C   0  0  0  0  0  0  0  0  0  0  0  0
    5.2045    8.5984   21.5485 C   0  0  0  0  0  0  0  0  0  0  0  0
    6.0333    7.3766   21.8376 C   0  0  0  0  0  0  0  0  0  0  0  0
    5.2035    6.4669   22.7325 C   0  0  0  0  0  0  0  0  0  0  0  0
    3.9664    6.1614   22.0654 N   0  0  0  0  0  0  0  0  0  0  0  0
    3.8698    5.2634   20.9649 C   0  0  0  0  0  0  0  0  0  0  0  0
    3.0383    5.4698   20.0274 O   0  0  0  0  0  0  0  0  0  0  0  0
    4.6148    9.0487   15.9570 N   0  0  0  0  0  0  0  0  0  0  0  0
    3.9174    8.4195   14.9771 C   0  0  0  0  0  0  0  0  0  0  0  0
    3.8063    7.0282   15.1050 C   0  0  0  0  0  0  0  0  0  0  0  0
    3.9763    3.5762   22.7453 H   0  0  0  0  0  0  0  0  0  0  0  0
    4.9213    2.3538   21.9572 H   0  0  0  0  0  0  0  0  0  0  0  0
    3.2399    4.5711   16.1425 H   0  0  0  0  0  0  0  0  0  0  0  0
    6.1902   10.1899   17.7424 H   0  0  0  0  0  0  0  0  0  0  0  0
    3.0588    6.6061   22.3785 H   0  0  0  0  0  0  0  0  0  0  0  0
    3.1324    6.2960   14.0419 C   0  0  0  0  0  0  0  0  0  0  0  0
    1.8578    6.2044   14.0235 O   0  0  0  0  0  0  0  0  0  0  0  0
    3.8788    5.6742   13.0076 N   0  0  0  0  0  0  0  0  0  0  0  0
    4.8978    5.7157   12.9525 H   0  0  0  0  0  0  0  0  0  0  0  0
    3.1357    4.9437   11.9679 C   0  0  0  0  0  0  0  0  0  0  0  0
    4.0787    4.3004   11.0485 C   0  0  0  0  0  0  0  0  0  0  0  0
    3.6729    3.3436   10.1725 C   0  0  0  0  0  0  0  0  0  0  0  0
    4.5853    2.7476    9.3198 C   0  0  0  0  0  0  0  0  0  0  0  0
    5.8986    3.1292    9.3650 C   0  0  0  0  0  0  0  0  0  0  0  0
    6.8182    2.5644    8.5428 F   0  0  0  0  0  0  0  0  0  0  0  0
    6.3065    4.0863   10.2403 C   0  0  0  0  0  0  0  0  0  0  0  0
    5.4108    4.6944   11.1011 C   0  0  0  0  0  0  0  0  0  0  0  0
  1  2  1  0  0  0
  2  3  1  0  0  0
  3  4  1  0  0  0
  4  5  1  0  0  0
  5  6  1  0  0  0
  6  7  1  0  0  0
  7  8  1  0  0  0
  8  9  2  0  0  0
  9 10  1  0  0  0
 10 11  1  0  0  0
 11 12  1  0  0  0
 12 13  1  0  0  0
 13 14  1  0  0  0
 14 15  1  0  0  0
 15 16  1  0  0  0
 16 17  1  0  0  0
 17 18  1  0  0  0
 18 19  2  0  0  0
 10 20  2  0  0  0
 20 21  1  0  0  0
 21 22  2  0  0  0
 22 28  1  0  0  0
 28 29  2  0  0  0
 28 30  1  0  0  0
 30 32  1  0  0  0
 32 33  1  0  0  0
 33 34  2  0  0  0
 34 35  1  0  0  0
 35 36  2  0  0  0
 36 37  1  0  0  0
 36 38  1  0  0  0
 38 39  2  0  0  0
 18  2  1  0  0  0
 39 33  1  0  0  0
 22  8  1  0  0  0
  1 23  1  0  0  0
  1 24  1  0  0  0
  7 25  1  0  0  0
 11 26  1  0  0  0
 17 27  1  0  0  0
 30 31  1  0  0  0
M  END
> <minimizedAffinity>
-8.57088

> <CNNscore>
0.1996300817

> <CNNaffinity>
5.5861940384

> <CNN_VS>
1.1151723862

> <CNNaffinity_variance>
0.6430595517

$$$$
[H]c1nc2nc(c1C(=O)N([H])C([H])([H])c1c([H])c([H])c(F)c([H])c1[H])N([H])C([H])([H])C([H])([H])C([H])([H])C([H])([H])[C@]([H])(N([H])[H])C(=O)N([H])C([H])([H])C([H])([H])C([H])([H])C([H])([H])C([H])([H])N2[H]


 39 41  0  0  0  0  0  0  0  0999 V2000
    0.0574    6.1183   10.2342 N   0  0  0  0  0  0  0  0  0  0  0  0
    0.8630    6.1345   11.4504 C   0  0  0  0  0  0  0  0  0  0  0  0
    1.0340    7.5725   11.8596 C   0  0  0  0  0  0  0  0  0  0  0  0
    2.4596    8.0315   11.7303 C   0  0  0  0  0  0  0  0  0  0  0  0
    2.9437    8.6925   12.9982 C   0  0  0  0  0  0  0  0  0  0  0  0
    3.9473    7.8656   13.7387 C   0  0  0  0  0  0  0  0  0  0  0  0
    3.4419    7.5836   15.0663 N   0  0  0  0  0  0  0  0  0  0  0  0
    3.7363    6.4174   15.8235 C   0  0  0  0  0  0  0  0  0  0  0  0
    3.6952    5.1912   15.2726 N   0  0  0  0  0  0  0  0  0  0  0  0
    3.9195    4.0956   15.9908 C   0  0  0  0  0  0  0  0  0  0  0  0
    3.8891    2.7796   15.4549 N   0  0  0  0  0  0  0  0  0  0  0  0
    3.2552    2.5351   14.1736 C   0  0  0  0  0  0  0  0  0  0  0  0
    1.7734    2.4634   14.4201 C   0  0  0  0  0  0  0  0  0  0  0  0
    1.0210    1.8854   13.2592 C   0  0  0  0  0  0  0  0  0  0  0  0
    1.4039    2.5058   11.9432 C   0  0  0  0  0  0  0  0  0  0  0  0
    0.1468    3.1284   11.3523 C   0  0  0  0  0  0  0  0  0  0  0  0
   -0.3841    4.0818   12.2893 N   0  0  0  0  0  0  0  0  0  0  0  0
    0.2038    5.3559   12.5298 C   0  0  0  0  0  0  0  0  0  0  0  0
    0.1833    5.8739   13.6892 O   0  0  0  0  0  0  0  0  0  0  0  0
    4.1938    4.2158   17.2987 N   0  0  0  0  0  0  0  0  0  0  0  0
    4.2594    5.4056   17.9488 C   0  0  0  0  0  0  0  0  0  0  0  0
    4.0197    6.5427   17.1653 C   0  0  0  0  0  0  0  0  0  0  0  0
   -0.9491    5.9259   10.4384 H   0  0  0  0  0  0  0  0  0  0  0  0
    0.2161    6.9938    9.7239 H   0  0  0  0  0  0  0  0  0  0  0  0
    2.7913    8.3050   15.4861 H   0  0  0  0  0  0  0  0  0  0  0  0
    4.3067    1.9543   15.9406 H   0  0  0  0  0  0  0  0  0  0  0  0
   -1.2553    3.8632   12.8484 H   0  0  0  0  0  0  0  0  0  0  0  0
    4.1514    7.8480   17.7970 C   0  0  0  0  0  0  0  0  0  0  0  0
    4.6830    8.8240   17.1662 O   0  0  0  0  0  0  0  0  0  0  0  0
    3.6896    8.0591   19.1221 N   0  0  0  0  0  0  0  0  0  0  0  0
    3.2450    7.3289   19.6810 H   0  0  0  0  0  0  0  0  0  0  0  0
    3.8601    9.4005   19.7036 C   0  0  0  0  0  0  0  0  0  0  0  0
    5.0444    9.4163   20.5671 C   0  0  0  0  0  0  0  0  0  0  0  0
    4.9710    9.0597   21.8766 C   0  0  0  0  0  0  0  0  0  0  0  0
    6.1033    9.0899   22.6714 C   0  0  0  0  0  0  0  0  0  0  0  0
    7.2971    9.4808   22.1288 C   0  0  0  0  0  0  0  0  0  0  0  0
    8.4256    9.5215   22.8808 F   0  0  0  0  0  0  0  0  0  0  0  0
    7.3727    9.8375   20.8190 C   0  0  0  0  0  0  0  0  0  0  0  0
    6.2529    9.8145   20.0074 C   0  0  0  0  0  0  0  0  0  0  0  0
  1  2  1  0  0  0
  2  3  1  0  0  0
  3  4  1  0  0  0
  4  5  1  0  0  0
  5  6  1  0  0  0
  6  7  1  0  0  0
  7  8  1  0  0  0
  8  9  2  0  0  0
  9 10  1  0  0  0
 10 11  1  0  0  0
 11 12  1  0  0  0
 12 13  1  0  0  0
 13 14  1  0  0  0
 14 15  1  0  0  0
 15 16  1  0  0  0
 16 17  1  0  0  0
 17 18  1  0  0  0
 18 19  2  0  0  0
 10 20  2  0  0  0
 20 21  1  0  0  0
 21 22  2  0  0  0
 22 28  1  0  0  0
 28 29  2  0  0  0
 28 30  1  0  0  0
 30 32  1  0  0  0
 32 33  1  0  0  0
 33 34  2  0  0  0
 34 35  1  0  0  0
 35 36  2  0  0  0
 36 37  1  0  0  0
 36 38  1  0  0  0
 38 39  2  0  0  0
 18  2  1  0  0  0
 39 33  1  0  0  0
 22  8  1  0  0  0
  1 23  1  0  0  0
  1 24  1  0  0  0
  7 25  1  0  0  0
 11 26  1  0  0  0
 17 27  1  0  0  0
 30 31  1  0  0  0
M  END
> <minimizedAffinity>
-8.56972

> <CNNscore>
0.1932540387

> <CNNaffinity>
5.5687227249

> <CNN_VS>
1.0761781931

> <CNNaffinity_variance>
0.5823408365

$$$$
[H]c1nc(N([H])[H])c2c(-c3c([H])c([H])c(N([H])C(=O)c4c([H])n(C([H])(C([H])([H])[H])C([H])([H])[H])c(=O)n(-c5c([H])c([H])c([H])c([H])c5[H])c4=O)c([H])c3[H])c([H])c(C3([H])C([H])([H])N(C(=O)C4([H])C([H])([H])C4([H])[H])C3([H])[H])n2n1


 48 54  0  0  0  0  0  0  0  0999 V2000
    3.0424    4.9388   14.4338 C   0  0  0  0  0  0  0  0  0  0  0  0
    4.2803    4.3676   14.8258 C   0  0  0  0  0  0  0  0  0  0  0  0
    4.5474    4.0272   16.1217 C   0  0  0  0  0  0  0  0  0  0  0  0
    3.5898    4.2369   17.1121 C   0  0  0  0  0  0  0  0  0  0  0  0
    2.4007    4.7909   16.7088 C   0  0  0  0  0  0  0  0  0  0  0  0
    2.1153    5.1370   15.4203 C   0  0  0  0  0  0  0  0  0  0  0  0
    3.8985    3.9011   18.5021 C   0  0  0  0  0  0  0  0  0  0  0  0
    4.2724    4.8277   19.4906 C   0  0  0  0  0  0  0  0  0  0  0  0
    4.4196    4.1061   20.6501 C   0  0  0  0  0  0  0  0  0  0  0  0
    4.1616    2.8070   20.4319 N   0  0  0  0  0  0  0  0  0  0  0  0
    4.1673    1.7288   21.1980 N   0  0  0  0  0  0  0  0  0  0  0  0
    3.8810    0.5035   20.7715 C   0  0  0  0  0  0  0  0  0  0  0  0
    3.5643    0.3246   19.4879 N   0  0  0  0  0  0  0  0  0  0  0  0
    3.5438    1.3909   18.6674 C   0  0  0  0  0  0  0  0  0  0  0  0
    3.2401    1.2308   17.2792 N   0  0  0  0  0  0  0  0  0  0  0  0
    3.8402    2.6763   19.1058 C   0  0  0  0  0  0  0  0  0  0  0  0
    2.3379    0.9420   16.8934 H   0  0  0  0  0  0  0  0  0  0  0  0
    4.0288    1.4334   16.6005 H   0  0  0  0  0  0  0  0  0  0  0  0
    4.8041    4.6991   21.9490 C   0  0  0  0  0  0  0  0  0  0  0  0
    6.1539    4.2867   22.4228 C   0  0  0  0  0  0  0  0  0  0  0  0
    6.6685    5.6044   22.1639 N   0  0  0  0  0  0  0  0  0  0  0  0
    5.3534    6.0726   21.8537 C   0  0  0  0  0  0  0  0  0  0  0  0
    7.9982    6.1375   22.2275 C   0  0  0  0  0  0  0  0  0  0  0  0
    8.9816    5.4164   22.5544 O   0  0  0  0  0  0  0  0  0  0  0  0
    8.2164    7.5499   21.9036 C   0  0  0  0  0  0  0  0  0  0  0  0
    9.4335    7.9344   21.0646 C   0  0  0  0  0  0  0  0  0  0  0  0
    8.0415    8.0135   20.4977 C   0  0  0  0  0  0  0  0  0  0  0  0
    3.2548    6.3708   12.3901 C   0  0  0  0  0  0  0  0  0  0  0  0
    3.9042    7.2936   12.9230 O   0  0  0  0  0  0  0  0  0  0  0  0
    2.8309    5.2280   13.0753 N   0  0  0  0  0  0  0  0  0  0  0  0
    2.2738    4.4662   12.5422 H   0  0  0  0  0  0  0  0  0  0  0  0
    1.3806    6.2039    9.1863 N   0  0  0  0  0  0  0  0  0  0  0  0
    1.7291    6.0589   10.4987 C   0  0  0  0  0  0  0  0  0  0  0  0
    2.9348    6.5374   10.9482 C   0  0  0  0  0  0  0  0  0  0  0  0
    3.7770    7.1567   10.0638 C   0  0  0  0  0  0  0  0  0  0  0  0
    4.8850    7.6017   10.4488 O   0  0  0  0  0  0  0  0  0  0  0  0
    3.4462    7.3082    8.7583 N   0  0  0  0  0  0  0  0  0  0  0  0
    2.2409    6.8124    8.3865 C   0  0  0  0  0  0  0  0  0  0  0  0
    1.9430    6.9564    7.1803 O   0  0  0  0  0  0  0  0  0  0  0  0
    4.3320    7.9544    7.8609 C   0  0  0  0  0  0  0  0  0  0  0  0
    4.3979    9.3256    7.7287 C   0  0  0  0  0  0  0  0  0  0  0  0
    5.2772    9.9270    6.8379 C   0  0  0  0  0  0  0  0  0  0  0  0
    6.1075    9.1581    6.0627 C   0  0  0  0  0  0  0  0  0  0  0  0
    6.0619    7.8002    6.1746 C   0  0  0  0  0  0  0  0  0  0  0  0
    5.1729    7.2008    7.0749 C   0  0  0  0  0  0  0  0  0  0  0  0
    0.0032    4.1849    9.0529 C   0  0  0  0  0  0  0  0  0  0  0  0
    0.0912    5.6812    8.8068 C   0  0  0  0  0  0  0  0  0  0  0  0
   -1.0774    6.3687    9.4223 C   0  0  0  0  0  0  0  0  0  0  0  0
 46 47  1  0  0  0
 47 48  1  0  0  0
 47 32  1  0  0  0
 32 33  1  0  0  0
 33 34  2  0  0  0
 34 28  1  0  0  0
 28 29  2  0  0  0
 28 30  1  0  0  0
 30  1  1  0  0  0
  1  2  2  0  0  0
  2  3  1  0  0  0
  3  4  2  0  0  0
  4  5  1  0  0  0
  5  6  2  0  0  0
  4  7  1  0  0  0
  7  8  1  0  0  0
  8  9  2  0  0  0
  9 19  1  0  0  0
 19 20  1  0  0  0
 20 21  1  0  0  0
 21 22  1  0  0  0
 21 23  1  0  0  0
 23 24  2  0  0  0
 23 25  1  0  0  0
 25 26  1  0  0  0
 26 27  1  0  0  0
  9 10  1  0  0  0
 10 11  1  0  0  0
 11 12  2  0  0  0
 12 13  1  0  0  0
 13 14  2  0  0  0
 14 15  1  0  0  0
 14 16  1  0  0  0
 34 35  1  0  0  0
 35 36  2  0  0  0
 35 37  1  0  0  0
 37 40  1  0  0  0
 40 41  2  0  0  0
 41 42  1  0  0  0
 42 43  2  0  0  0
 43 44  1  0  0  0
 44 45  2  0  0  0
 37 38  1  0  0  0
 38 39  2  0  0  0
 38 32  1  0  0  0
  6  1  1  0  0  0
 16  7  2  0  0  0
 45 40  1  0  0  0
 22 19  1  0  0  0
 27 25  1  0  0  0
 16 10  1  0  0  0
 30 31  1  0  0  0
 15 17  1  0  0  0
 15 18  1  0  0  0
M  END
> <minimizedAffinity>
-8.78053

> <CNNscore>
0.2664061487

> <CNNaffinity>
7.0637893677

> <CNN_VS>
1.8818368912

> <CNNaffinity_variance>
0.8776031733

$$$$
[H]c1nc(N([H])[H])c2c(-c3c([H])c([H])c(N([H])C(=O)c4c([H])n(C([H])(C([H])([H])[H])C([H])([H])[H])c(=O)n(-c5c([H])c([H])c([H])c([H])c5[H])c4=O)c([H])c3[H])c([H])c(C3([H])C([H])([H])N(C(=O)C4([H])C([H])([H])C4([H])[H])C3([H])[H])n2n1


 48 54  0  0  0  0  0  0  0  0999 V2000
    2.8763    4.8800   14.9447 C   0  0  0  0  0  0  0  0  0  0  0  0
    2.1253    5.1281   16.1224 C   0  0  0  0  0  0  0  0  0  0  0  0
    2.5894    4.7995   17.3647 C   0  0  0  0  0  0  0  0  0  0  0  0
    3.8389    4.1997   17.5090 C   0  0  0  0  0  0  0  0  0  0  0  0
    4.5462    3.9694   16.3558 C   0  0  0  0  0  0  0  0  0  0  0  0
    4.1002    4.2906   15.1070 C   0  0  0  0  0  0  0  0  0  0  0  0
    4.3118    3.8202   18.8405 C   0  0  0  0  0  0  0  0  0  0  0  0
    4.8951    4.6997   19.7689 C   0  0  0  0  0  0  0  0  0  0  0  0
    5.1448    3.9520   20.8938 C   0  0  0  0  0  0  0  0  0  0  0  0
    4.7540    2.6811   20.7105 N   0  0  0  0  0  0  0  0  0  0  0  0
    4.7798    1.5949   21.4649 N   0  0  0  0  0  0  0  0  0  0  0  0
    4.3378    0.4027   21.0796 C   0  0  0  0  0  0  0  0  0  0  0  0
    3.8303    0.2681   19.8531 N   0  0  0  0  0  0  0  0  0  0  0  0
    3.7812    1.3444   19.0468 C   0  0  0  0  0  0  0  0  0  0  0  0
    3.2732    1.2290   17.7151 N   0  0  0  0  0  0  0  0  0  0  0  0
    4.2397    2.5955   19.4428 C   0  0  0  0  0  0  0  0  0  0  0  0
    2.3054    1.0189   17.4599 H   0  0  0  0  0  0  0  0  0  0  0  0
    3.9725    1.3776   16.9323 H   0  0  0  0  0  0  0  0  0  0  0  0
    5.7551    4.4936   22.1270 C   0  0  0  0  0  0  0  0  0  0  0  0
    7.0798    5.1375   21.9103 C   0  0  0  0  0  0  0  0  0  0  0  0
    6.5083    6.4363   22.1440 N   0  0  0  0  0  0  0  0  0  0  0  0
    5.2627    5.8379   22.5117 C   0  0  0  0  0  0  0  0  0  0  0  0
    7.0604    7.7549   22.0297 C   0  0  0  0  0  0  0  0  0  0  0  0
    8.2541    7.9391   21.6623 O   0  0  0  0  0  0  0  0  0  0  0  0
    6.2169    8.9109   22.3454 C   0  0  0  0  0  0  0  0  0  0  0  0
    6.1247   10.0537   21.3362 C   0  0  0  0  0  0  0  0  0  0  0  0
    4.9598    9.1311   21.5754 C   0  0  0  0  0  0  0  0  0  0  0  0
    1.4976    4.5337   12.8827 C   0  0  0  0  0  0  0  0  0  0  0  0
    1.0906    3.3889   13.1675 O   0  0  0  0  0  0  0  0  0  0  0  0
    2.3452    5.2802   13.7070 N   0  0  0  0  0  0  0  0  0  0  0  0
    2.6528    6.2710   13.3930 H   0  0  0  0  0  0  0  0  0  0  0  0
   -0.7582    5.4084   10.0629 N   0  0  0  0  0  0  0  0  0  0  0  0
   -0.2786    4.8970   11.2348 C   0  0  0  0  0  0  0  0  0  0  0  0
    1.0335    5.0948   11.5870 C   0  0  0  0  0  0  0  0  0  0  0  0
    1.8480    5.8072   10.7478 C   0  0  0  0  0  0  0  0  0  0  0  0
    3.0512    6.0009   11.0456 O   0  0  0  0  0  0  0  0  0  0  0  0
    1.3877    6.3208    9.5813 N   0  0  0  0  0  0  0  0  0  0  0  0
    0.0828    6.0870    9.2997 C   0  0  0  0  0  0  0  0  0  0  0  0
   -0.3343    6.5645    8.2216 O   0  0  0  0  0  0  0  0  0  0  0  0
    2.2477    7.0569    8.7291 C   0  0  0  0  0  0  0  0  0  0  0  0
    2.3995    8.4248    8.8163 C   0  0  0  0  0  0  0  0  0  0  0  0
    3.2504    9.1160    7.9639 C   0  0  0  0  0  0  0  0  0  0  0  0
    3.9650    8.4419    7.0065 C   0  0  0  0  0  0  0  0  0  0  0  0
    3.8327    7.0893    6.8996 C   0  0  0  0  0  0  0  0  0  0  0  0
    2.9731    6.3991    7.7626 C   0  0  0  0  0  0  0  0  0  0  0  0
   -2.4060    3.6934    9.4841 C   0  0  0  0  0  0  0  0  0  0  0  0
   -2.1507    5.1610    9.7810 C   0  0  0  0  0  0  0  0  0  0  0  0
   -3.1029    5.6444   10.8187 C   0  0  0  0  0  0  0  0  0  0  0  0
 46 47  1  0  0  0
 47 48  1  0  0  0
 47 32  1  0  0  0
 32 33  1  0  0  0
 33 34  2  0  0  0
 34 28  1  0  0  0
 28 29  2  0  0  0
 28 30  1  0  0  0
 30  1  1  0  0  0
  1  2  2  0  0  0
  2  3  1  0  0  0
  3  4  2  0  0  0
  4  5  1  0  0  0
  5  6  2  0  0  0
  4  7  1  0  0  0
  7  8  1  0  0  0
  8  9  2  0  0  0
  9 19  1  0  0  0
 19 20  1  0  0  0
 20 21  1  0  0  0
 21 22  1  0  0  0
 21 23  1  0  0  0
 23 24  2  0  0  0
 23 25  1  0  0  0
 25 26  1  0  0  0
 26 27  1  0  0  0
  9 10  1  0  0  0
 10 11  1  0  0  0
 11 12  2  0  0  0
 12 13  1  0  0  0
 13 14  2  0  0  0
 14 15  1  0  0  0
 14 16  1  0  0  0
 34 35  1  0  0  0
 35 36  2  0  0  0
 35 37  1  0  0  0
 37 40  1  0  0  0
 40 41  2  0  0  0
 41 42  1  0  0  0
 42 43  2  0  0  0
 43 44  1  0  0  0
 44 45  2  0  0  0
 37 38  1  0  0  0
 38 39  2  0  0  0
 38 32  1  0  0  0
  6  1  1  0  0  0
 16  7  2  0  0  0
 45 40  1  0  0  0
 22 19  1  0  0  0
 27 25  1  0  0  0
 16 10  1  0  0  0
 30 31  1  0  0  0
 15 17  1  0  0  0
 15 18  1  0  0  0
M  END
> <minimizedAffinity>
-9.17623

> <CNNscore>
0.1861882210

> <CNNaffinity>
6.8962221146

> <CNN_VS>
1.2839952707

> <CNNaffinity_variance>
0.5453816652

$$$$
[H]c1nc(N([H])[H])c2c(-c3c([H])c([H])c(N([H])C(=O)c4c([H])n(C([H])(C([H])([H])[H])C([H])([H])[H])c(=O)n(-c5c([H])c([H])c([H])c([H])c5[H])c4=O)c([H])c3[H])c([H])c(C3([H])C([H])([H])N(C(=O)C4([H])C([H])([H])C4([H])[H])C3([H])[H])n2n1


 48 54  0  0  0  0  0  0  0  0999 V2000
    3.0955    5.1980   14.7590 C   0  0  0  0  0  0  0  0  0  0  0  0
    3.8278    4.3025   13.9377 C   0  0  0  0  0  0  0  0  0  0  0  0
    3.4264    3.9819   12.6717 C   0  0  0  0  0  0  0  0  0  0  0  0
    2.2629    4.5386   12.1442 C   0  0  0  0  0  0  0  0  0  0  0  0
    1.5717    5.4012   12.9574 C   0  0  0  0  0  0  0  0  0  0  0  0
    1.9563    5.7339   14.2235 C   0  0  0  0  0  0  0  0  0  0  0  0
    1.8234    4.1621   10.8005 C   0  0  0  0  0  0  0  0  0  0  0  0
    1.9245    4.9795    9.6616 C   0  0  0  0  0  0  0  0  0  0  0  0
    1.4469    4.2303    8.6140 C   0  0  0  0  0  0  0  0  0  0  0  0
    1.0631    3.0166    9.0398 N   0  0  0  0  0  0  0  0  0  0  0  0
    0.5446    1.9561    8.4432 N   0  0  0  0  0  0  0  0  0  0  0  0
    0.2218    0.8276    9.0658 C   0  0  0  0  0  0  0  0  0  0  0  0
    0.4247    0.7354   10.3811 N   0  0  0  0  0  0  0  0  0  0  0  0
    0.9510    1.7876   11.0343 C   0  0  0  0  0  0  0  0  0  0  0  0
    1.1522    1.7349   12.4490 N   0  0  0  0  0  0  0  0  0  0  0  0
    1.2932    2.9711   10.3904 C   0  0  0  0  0  0  0  0  0  0  0  0
    1.8139    1.1267   12.9372 H   0  0  0  0  0  0  0  0  0  0  0  0
    0.5566    2.3903   13.0318 H   0  0  0  0  0  0  0  0  0  0  0  0
    1.3793    4.7115    7.2174 C   0  0  0  0  0  0  0  0  0  0  0  0
    0.0251    5.1719    6.8044 C   0  0  0  0  0  0  0  0  0  0  0  0
    0.4720    6.5387    6.7934 N   0  0  0  0  0  0  0  0  0  0  0  0
    1.8166    6.1161    7.0344 C   0  0  0  0  0  0  0  0  0  0  0  0
   -0.2357    7.7711    6.6007 C   0  0  0  0  0  0  0  0  0  0  0  0
   -1.4818    7.7900    6.3989 O   0  0  0  0  0  0  0  0  0  0  0  0
    0.5071    9.0336    6.6413 C   0  0  0  0  0  0  0  0  0  0  0  0
    1.2087    9.5173    5.3738 C   0  0  0  0  0  0  0  0  0  0  0  0
   -0.0172   10.2150    5.8988 C   0  0  0  0  0  0  0  0  0  0  0  0
    2.9332    5.3201   17.2553 C   0  0  0  0  0  0  0  0  0  0  0  0
    1.7887    4.8322   17.3531 O   0  0  0  0  0  0  0  0  0  0  0  0
    3.5932    5.5048   16.0366 N   0  0  0  0  0  0  0  0  0  0  0  0
    4.5898    5.9313   16.0325 H   0  0  0  0  0  0  0  0  0  0  0  0
    4.4561    7.4597   19.8834 N   0  0  0  0  0  0  0  0  0  0  0  0
    3.8677    7.0448   18.7231 C   0  0  0  0  0  0  0  0  0  0  0  0
    3.5926    5.7141   18.5277 C   0  0  0  0  0  0  0  0  0  0  0  0
    3.9179    4.8158   19.5087 C   0  0  0  0  0  0  0  0  0  0  0  0
    3.6784    3.5940   19.3545 O   0  0  0  0  0  0  0  0  0  0  0  0
    4.5025    5.2114   20.6656 N   0  0  0  0  0  0  0  0  0  0  0  0
    4.7433    6.5393   20.7893 C   0  0  0  0  0  0  0  0  0  0  0  0
    5.2827    6.8962   21.8598 O   0  0  0  0  0  0  0  0  0  0  0  0
    4.8285    4.2649   21.6684 C   0  0  0  0  0  0  0  0  0  0  0  0
    5.9733    3.4967   21.6314 C   0  0  0  0  0  0  0  0  0  0  0  0
    6.2621    2.5767   22.6307 C   0  0  0  0  0  0  0  0  0  0  0  0
    5.4026    2.4128   23.6870 C   0  0  0  0  0  0  0  0  0  0  0  0
    4.2640    3.1602   23.7471 C   0  0  0  0  0  0  0  0  0  0  0  0
    3.9795    4.0859   22.7361 C   0  0  0  0  0  0  0  0  0  0  0  0
    6.1170    9.2361   19.6046 C   0  0  0  0  0  0  0  0  0  0  0  0
    4.6969    8.8764   20.0059 C   0  0  0  0  0  0  0  0  0  0  0  0
    3.7275    9.7483   19.2869 C   0  0  0  0  0  0  0  0  0  0  0  0
 46 47  1  0  0  0
 47 48  1  0  0  0
 47 32  1  0  0  0
 32 33  1  0  0  0
 33 34  2  0  0  0
 34 28  1  0  0  0
 28 29  2  0  0  0
 28 30  1  0  0  0
 30  1  1  0  0  0
  1  2  2  0  0  0
  2  3  1  0  0  0
  3  4  2  0  0  0
  4  5  1  0  0  0
  5  6  2  0  0  0
  4  7  1  0  0  0
  7  8  1  0  0  0
  8  9  2  0  0  0
  9 19  1  0  0  0
 19 20  1  0  0  0
 20 21  1  0  0  0
 21 22  1  0  0  0
 21 23  1  0  0  0
 23 24  2  0  0  0
 23 25  1  0  0  0
 25 26  1  0  0  0
 26 27  1  0  0  0
  9 10  1  0  0  0
 10 11  1  0  0  0
 11 12  2  0  0  0
 12 13  1  0  0  0
 13 14  2  0  0  0
 14 15  1  0  0  0
 14 16  1  0  0  0
 34 35  1  0  0  0
 35 36  2  0  0  0
 35 37  1  0  0  0
 37 40  1  0  0  0
 40 41  2  0  0  0
 41 42  1  0  0  0
 42 43  2  0  0  0
 43 44  1  0  0  0
 44 45  2  0  0  0
 37 38  1  0  0  0
 38 39  2  0  0  0
 38 32  1  0  0  0
  6  1  1  0  0  0
 16  7  2  0  0  0
 45 40  1  0  0  0
 22 19  1  0  0  0
 27 25  1  0  0  0
 16 10  1  0  0  0
 30 31  1  0  0  0
 15 17  1  0  0  0
 15 18  1  0  0  0
M  END
> <minimizedAffinity>
-9.31033

> <CNNscore>
0.0916961357

> <CNNaffinity>
6.4096727371

> <CNN_VS>
0.5877422094

> <CNNaffinity_variance>
0.6887797713

$$$$
[H]c1nc(N([H])[H])c2c(-c3c([H])c([H])c(N([H])C(=O)c4c([H])n(C([H])(C([H])([H])[H])C([H])([H])[H])c(=O)n(-c5c([H])c([H])c([H])c([H])c5[H])c4=O)c([H])c3[H])c([H])c(C3([H])C([H])([H])N(C(=O)C4([H])C([H])([H])C4([H])[H])C3([H])[H])n2n1


 48 54  0  0  0  0  0  0  0  0999 V2000
    4.0182    8.2487   12.5621 C   0  0  0  0  0  0  0  0  0  0  0  0
    5.1337    8.8515   13.1981 C   0  0  0  0  0  0  0  0  0  0  0  0
    5.0977    9.2550   14.5029 C   0  0  0  0  0  0  0  0  0  0  0  0
    3.9394    9.0805   15.2579 C   0  0  0  0  0  0  0  0  0  0  0  0
    2.8738    8.4957   14.6208 C   0  0  0  0  0  0  0  0  0  0  0  0
    2.8905    8.0860   13.3195 C   0  0  0  0  0  0  0  0  0  0  0  0
    3.8998    9.5473   16.6438 C   0  0  0  0  0  0  0  0  0  0  0  0
    4.3163    8.7986   17.7580 C   0  0  0  0  0  0  0  0  0  0  0  0
    4.1577    9.6202   18.8474 C   0  0  0  0  0  0  0  0  0  0  0  0
    3.6734   10.8138   18.4700 N   0  0  0  0  0  0  0  0  0  0  0  0
    3.3489   11.9196   19.1192 N   0  0  0  0  0  0  0  0  0  0  0  0
    2.8671   13.0150   18.5419 C   0  0  0  0  0  0  0  0  0  0  0  0
    2.6896   13.0227   17.2196 N   0  0  0  0  0  0  0  0  0  0  0  0
    3.0055   11.9216   16.5136 C   0  0  0  0  0  0  0  0  0  0  0  0
    2.7979   11.8839   15.0992 N   0  0  0  0  0  0  0  0  0  0  0  0
    3.5118   10.7722   17.1094 C   0  0  0  0  0  0  0  0  0  0  0  0
    3.2965   12.4468   14.4059 H   0  0  0  0  0  0  0  0  0  0  0  0
    2.0593   11.2074   14.7519 H   0  0  0  0  0  0  0  0  0  0  0  0
    4.4867    9.2262   20.2341 C   0  0  0  0  0  0  0  0  0  0  0  0
    5.1114    7.8795   20.3450 C   0  0  0  0  0  0  0  0  0  0  0  0
    6.3785    8.4734   20.6768 N   0  0  0  0  0  0  0  0  0  0  0  0
    5.7732    9.7677   20.7332 C   0  0  0  0  0  0  0  0  0  0  0  0
    7.6801    7.9005   20.8616 C   0  0  0  0  0  0  0  0  0  0  0  0
    7.8778    6.6602   20.7329 O   0  0  0  0  0  0  0  0  0  0  0  0
    8.8027    8.7773   21.2054 C   0  0  0  0  0  0  0  0  0  0  0  0
    9.0941    9.0588   22.6781 C   0  0  0  0  0  0  0  0  0  0  0  0
   10.0124    8.1966   21.8544 C   0  0  0  0  0  0  0  0  0  0  0  0
    3.1722    7.9168   10.2282 C   0  0  0  0  0  0  0  0  0  0  0  0
    2.0397    8.4085   10.4102 O   0  0  0  0  0  0  0  0  0  0  0  0
    4.1462    7.8283   11.2276 N   0  0  0  0  0  0  0  0  0  0  0  0
    5.1098    7.3915   10.9917 H   0  0  0  0  0  0  0  0  0  0  0  0
    2.8133    5.9865    7.0739 N   0  0  0  0  0  0  0  0  0  0  0  0
    2.6042    6.4716    8.3332 C   0  0  0  0  0  0  0  0  0  0  0  0
    3.4580    7.4081    8.8613 C   0  0  0  0  0  0  0  0  0  0  0  0
    4.5166    7.8430    8.1095 C   0  0  0  0  0  0  0  0  0  0  0  0
    5.3122    8.6972    8.5692 O   0  0  0  0  0  0  0  0  0  0  0  0
    4.7381    7.3713    6.8585 N   0  0  0  0  0  0  0  0  0  0  0  0
    3.8547    6.4502    6.4026 C   0  0  0  0  0  0  0  0  0  0  0  0
    4.0659    6.0201    5.2473 O   0  0  0  0  0  0  0  0  0  0  0  0
    5.8387    7.8371    6.0973 C   0  0  0  0  0  0  0  0  0  0  0  0
    7.0235    7.1400    5.9870 C   0  0  0  0  0  0  0  0  0  0  0  0
    8.0837    7.6261    5.2333 C   0  0  0  0  0  0  0  0  0  0  0  0
    7.9706    8.8246    4.5759 C   0  0  0  0  0  0  0  0  0  0  0  0
    6.8097    9.5332    4.6688 C   0  0  0  0  0  0  0  0  0  0  0  0
    5.7449    9.0369    5.4304 C   0  0  0  0  0  0  0  0  0  0  0  0
    1.9396    3.7220    7.3908 C   0  0  0  0  0  0  0  0  0  0  0  0
    1.8598    5.0149    6.5977 C   0  0  0  0  0  0  0  0  0  0  0  0
    0.4496    5.4888    6.5357 C   0  0  0  0  0  0  0  0  0  0  0  0
 46 47  1  0  0  0
 47 48  1  0  0  0
 47 32  1  0  0  0
 32 33  1  0  0  0
 33 34  2  0  0  0
 34 28  1  0  0  0
 28 29  2  0  0  0
 28 30  1  0  0  0
 30  1  1  0  0  0
  1  2  2  0  0  0
  2  3  1  0  0  0
  3  4  2  0  0  0
  4  5  1  0  0  0
  5  6  2  0  0  0
  4  7  1  0  0  0
  7  8  1  0  0  0
  8  9  2  0  0  0
  9 19  1  0  0  0
 19 20  1  0  0  0
 20 21  1  0  0  0
 21 22  1  0  0  0
 21 23  1  0  0  0
 23 24  2  0  0  0
 23 25  1  0  0  0
 25 26  1  0  0  0
 26 27  1  0  0  0
  9 10  1  0  0  0
 10 11  1  0  0  0
 11 12  2  0  0  0
 12 13  1  0  0  0
 13 14  2  0  0  0
 14 15  1  0  0  0
 14 16  1  0  0  0
 34 35  1  0  0  0
 35 36  2  0  0  0
 35 37  1  0  0  0
 37 40  1  0  0  0
 40 41  2  0  0  0
 41 42  1  0  0  0
 42 43  2  0  0  0
 43 44  1  0  0  0
 44 45  2  0  0  0
 37 38  1  0  0  0
 38 39  2  0  0  0
 38 32  1  0  0  0
  6  1  1  0  0  0
 16  7  2  0  0  0
 45 40  1  0  0  0
 22 19  1  0  0  0
 27 25  1  0  0  0
 16 10  1  0  0  0
 30 31  1  0  0  0
 15 17  1  0  0  0
 15 18  1  0  0  0
M  END
> <minimizedAffinity>
-8.08520

> <CNNscore>
0.0879395157

> <CNNaffinity>
5.8427476883

> <CNN_VS>
0.5138084292

> <CNNaffinity_variance>
0.5536631942

$$$$
[H]c1nc(N([H])[H])c2c(-c3c([H])c([H])c(N([H])C(=O)c4c([H])n(C([H])(C([H])([H])[H])C([H])([H])[H])c(=O)n(-c5c([H])c([H])c([H])c([H])c5[H])c4=O)c([H])c3[H])c([H])c(C3([H])C([H])([H])N(C(=O)C4([H])C([H])([H])C4([H])[H])C3([H])[H])n2n1


 48 54  0  0  0  0  0  0  0  0999 V2000
    3.4747    5.1007   14.8603 C   0  0  0  0  0  0  0  0  0  0  0  0
    3.3425    3.7500   14.4472 C   0  0  0  0  0  0  0  0  0  0  0  0
    2.9236    3.4102   13.1919 C   0  0  0  0  0  0  0  0  0  0  0  0
    2.6093    4.4032   12.2661 C   0  0  0  0  0  0  0  0  0  0  0  0
    2.7446    5.7017   12.6890 C   0  0  0  0  0  0  0  0  0  0  0  0
    3.1615    6.0608   13.9374 C   0  0  0  0  0  0  0  0  0  0  0  0
    2.1287    4.0287   10.9361 C   0  0  0  0  0  0  0  0  0  0  0  0
    0.7762    3.9122   10.5717 C   0  0  0  0  0  0  0  0  0  0  0  0
    0.7698    3.5932    9.2357 C   0  0  0  0  0  0  0  0  0  0  0  0
    2.0244    3.5077    8.7663 N   0  0  0  0  0  0  0  0  0  0  0  0
    2.5445    3.2311    7.5820 N   0  0  0  0  0  0  0  0  0  0  0  0
    3.8475    3.1903    7.3254 C   0  0  0  0  0  0  0  0  0  0  0  0
    4.7079    3.4412    8.3137 N   0  0  0  0  0  0  0  0  0  0  0  0
    4.2283    3.7286    9.5376 C   0  0  0  0  0  0  0  0  0  0  0  0
    5.1221    3.9711   10.6271 N   0  0  0  0  0  0  0  0  0  0  0  0
    2.8667    3.7752    9.8141 C   0  0  0  0  0  0  0  0  0  0  0  0
    5.7599    4.7661   10.7125 H   0  0  0  0  0  0  0  0  0  0  0  0
    5.1122    3.2558   11.4095 H   0  0  0  0  0  0  0  0  0  0  0  0
   -0.4603    3.3831    8.4424 C   0  0  0  0  0  0  0  0  0  0  0  0
   -1.5817    2.7852    9.2178 C   0  0  0  0  0  0  0  0  0  0  0  0
   -2.2957    4.0331    9.1841 N   0  0  0  0  0  0  0  0  0  0  0  0
   -1.3122    4.5886    8.3072 C   0  0  0  0  0  0  0  0  0  0  0  0
   -3.5139    4.4512    9.8149 C   0  0  0  0  0  0  0  0  0  0  0  0
   -4.1685    3.6731   10.5631 O   0  0  0  0  0  0  0  0  0  0  0  0
   -4.0050    5.8126    9.5849 C   0  0  0  0  0  0  0  0  0  0  0  0
   -4.9264    6.0727    8.3948 C   0  0  0  0  0  0  0  0  0  0  0  0
   -5.4473    6.1171    9.8062 C   0  0  0  0  0  0  0  0  0  0  0  0
    3.2026    5.3247   17.3399 C   0  0  0  0  0  0  0  0  0  0  0  0
    1.9933    5.0199   17.3840 O   0  0  0  0  0  0  0  0  0  0  0  0
    3.9461    5.3685   16.1565 N   0  0  0  0  0  0  0  0  0  0  0  0
    4.9951    5.6382   16.1990 H   0  0  0  0  0  0  0  0  0  0  0  0
    4.7748    7.3178   20.0529 N   0  0  0  0  0  0  0  0  0  0  0  0
    4.1965    6.9614   18.8683 C   0  0  0  0  0  0  0  0  0  0  0  0
    3.8471    5.6538   18.6381 C   0  0  0  0  0  0  0  0  0  0  0  0
    4.0885    4.7192   19.6094 C   0  0  0  0  0  0  0  0  0  0  0  0
    3.7800    3.5175   19.4236 O   0  0  0  0  0  0  0  0  0  0  0  0
    4.6619    5.0566   20.7900 N   0  0  0  0  0  0  0  0  0  0  0  0
    4.9790    6.3648   20.9475 C   0  0  0  0  0  0  0  0  0  0  0  0
    5.5074    6.6681   22.0398 O   0  0  0  0  0  0  0  0  0  0  0  0
    4.9004    4.0735   21.7821 C   0  0  0  0  0  0  0  0  0  0  0  0
    4.0809    3.8985   22.8774 C   0  0  0  0  0  0  0  0  0  0  0  0
    4.3445    2.9256   23.8325 C   0  0  0  0  0  0  0  0  0  0  0  0
    5.4395    2.1098   23.7025 C   0  0  0  0  0  0  0  0  0  0  0  0
    6.2654    2.2623   22.6287 C   0  0  0  0  0  0  0  0  0  0  0  0
    5.9933    3.2453   21.6696 C   0  0  0  0  0  0  0  0  0  0  0  0
    6.4989    9.0217   19.7130 C   0  0  0  0  0  0  0  0  0  0  0  0
    5.0972    8.7146   20.2110 C   0  0  0  0  0  0  0  0  0  0  0  0
    4.1218    9.6626   19.6053 C   0  0  0  0  0  0  0  0  0  0  0  0
 46 47  1  0  0  0
 47 48  1  0  0  0
 47 32  1  0  0  0
 32 33  1  0  0  0
 33 34  2  0  0  0
 34 28  1  0  0  0
 28 29  2  0  0  0
 28 30  1  0  0  0
 30  1  1  0  0  0
  1  2  2  0  0  0
  2  3  1  0  0  0
  3  4  2  0  0  0
  4  5  1  0  0  0
  5  6  2  0  0  0
  4  7  1  0  0  0
  7  8  1  0  0  0
  8  9  2  0  0  0
  9 19  1  0  0  0
 19 20  1  0  0  0
 20 21  1  0  0  0
 21 22  1  0  0  0
 21 23  1  0  0  0
 23 24  2  0  0  0
 23 25  1  0  0  0
 25 26  1  0  0  0
 26 27  1  0  0  0
  9 10  1  0  0  0
 10 11  1  0  0  0
 11 12  2  0  0  0
 12 13  1  0  0  0
 13 14  2  0  0  0
 14 15  1  0  0  0
 14 16  1  0  0  0
 34 35  1  0  0  0
 35 36  2  0  0  0
 35 37  1  0  0  0
 37 40  1  0  0  0
 40 41  2  0  0  0
 41 42  1  0  0  0
 42 43  2  0  0  0
 43 44  1  0  0  0
 44 45  2  0  0  0
 37 38  1  0  0  0
 38 39  2  0  0  0
 38 32  1  0  0  0
  6  1  1  0  0  0
 16  7  2  0  0  0
 45 40  1  0  0  0
 22 19  1  0  0  0
 27 25  1  0  0  0
 16 10  1  0  0  0
 30 31  1  0  0  0
 15 17  1  0  0  0
 15 18  1  0  0  0
M  END
> <minimizedAffinity>
-9.12942

> <CNNscore>
0.0660722479

> <CNNaffinity>
6.4950075150

> <CNN_VS>
0.4291397333

> <CNNaffinity_variance>
0.7669380903

$$$$
[H]c1nc(N([H])[H])c2c(-c3c([H])c([H])c(N([H])C(=O)c4c([H])n(C([H])(C([H])([H])[H])C([H])([H])[H])c(=O)n(-c5c([H])c([H])c([H])c([H])c5[H])c4=O)c([H])c3[H])c([H])c(C3([H])C([H])([H])N(C(=O)C4([H])C([H])([H])C4([H])[H])C3([H])[H])n2n1


 48 54  0  0  0  0  0  0  0  0999 V2000
    2.4350    4.7695   15.5543 C   0  0  0  0  0  0  0  0  0  0  0  0
    2.3136    3.4866   14.9611 C   0  0  0  0  0  0  0  0  0  0  0  0
    1.8106    3.3108   13.7030 C   0  0  0  0  0  0  0  0  0  0  0  0
    1.3955    4.4109   12.9550 C   0  0  0  0  0  0  0  0  0  0  0  0
    1.5223    5.6410   13.5501 C   0  0  0  0  0  0  0  0  0  0  0  0
    2.0222    5.8368   14.8044 C   0  0  0  0  0  0  0  0  0  0  0  0
    0.8264    4.2088   11.6226 C   0  0  0  0  0  0  0  0  0  0  0  0
   -0.5354    3.9879   11.3535 C   0  0  0  0  0  0  0  0  0  0  0  0
   -0.6422    3.9000    9.9868 C   0  0  0  0  0  0  0  0  0  0  0  0
    0.5603    4.0516    9.4101 N   0  0  0  0  0  0  0  0  0  0  0  0
    0.9849    4.0452    8.1575 N   0  0  0  0  0  0  0  0  0  0  0  0
    2.2520    4.2107    7.7935 C   0  0  0  0  0  0  0  0  0  0  0  0
    3.1756    4.3967    8.7381 N   0  0  0  0  0  0  0  0  0  0  0  0
    2.7939    4.4121   10.0283 C   0  0  0  0  0  0  0  0  0  0  0  0
    3.7617    4.5770   11.0680 N   0  0  0  0  0  0  0  0  0  0  0  0
    1.4703    4.2416   10.4175 C   0  0  0  0  0  0  0  0  0  0  0  0
    4.3148    5.4194   11.2427 H   0  0  0  0  0  0  0  0  0  0  0  0
    3.9086    3.7446   11.7079 H   0  0  0  0  0  0  0  0  0  0  0  0
   -1.9161    3.6751    9.2705 C   0  0  0  0  0  0  0  0  0  0  0  0
   -3.1241    4.0290   10.0654 C   0  0  0  0  0  0  0  0  0  0  0  0
   -3.3615    5.1753    9.2300 N   0  0  0  0  0  0  0  0  0  0  0  0
   -2.3037    4.7748    8.3552 C   0  0  0  0  0  0  0  0  0  0  0  0
   -4.3167    6.2409    9.3234 C   0  0  0  0  0  0  0  0  0  0  0  0
   -5.1521    6.2952   10.2684 O   0  0  0  0  0  0  0  0  0  0  0  0
   -4.3185    7.2885    8.2988 C   0  0  0  0  0  0  0  0  0  0  0  0
   -5.1609    7.0877    7.0407 C   0  0  0  0  0  0  0  0  0  0  0  0
   -5.5504    8.0998    8.0843 C   0  0  0  0  0  0  0  0  0  0  0  0
    4.1856    4.2820   17.2778 C   0  0  0  0  0  0  0  0  0  0  0  0
    4.9197    3.5836   16.5494 O   0  0  0  0  0  0  0  0  0  0  0  0
    2.9956    4.8705   16.8386 N   0  0  0  0  0  0  0  0  0  0  0  0
    2.4130    5.4684   17.5300 H   0  0  0  0  0  0  0  0  0  0  0  0
    5.0817    3.4888   20.7952 N   0  0  0  0  0  0  0  0  0  0  0  0
    4.6575    3.3709   19.5026 C   0  0  0  0  0  0  0  0  0  0  0  0
    4.6372    4.4707   18.6812 C   0  0  0  0  0  0  0  0  0  0  0  0
    5.0452    5.6801   19.1774 C   0  0  0  0  0  0  0  0  0  0  0  0
    5.0351    6.7007   18.4479 O   0  0  0  0  0  0  0  0  0  0  0  0
    5.4686    5.8138   20.4578 N   0  0  0  0  0  0  0  0  0  0  0  0
    5.4625    4.6862   21.2095 C   0  0  0  0  0  0  0  0  0  0  0  0
    5.8548    4.8179   22.3897 O   0  0  0  0  0  0  0  0  0  0  0  0
    5.8886    7.0744   20.9497 C   0  0  0  0  0  0  0  0  0  0  0  0
    7.2131    7.4541   21.0071 C   0  0  0  0  0  0  0  0  0  0  0  0
    7.5908    8.6975   21.4967 C   0  0  0  0  0  0  0  0  0  0  0  0
    6.6406    9.5829   21.9381 C   0  0  0  0  0  0  0  0  0  0  0  0
    5.3242    9.2318   21.8919 C   0  0  0  0  0  0  0  0  0  0  0  0
    4.9509    7.9765   21.3970 C   0  0  0  0  0  0  0  0  0  0  0  0
    3.8237    1.4605   21.3382 C   0  0  0  0  0  0  0  0  0  0  0  0
    5.0799    2.2792   21.5804 C   0  0  0  0  0  0  0  0  0  0  0  0
    6.2862    1.4204   21.4239 C   0  0  0  0  0  0  0  0  0  0  0  0
 46 47  1  0  0  0
 47 48  1  0  0  0
 47 32  1  0  0  0
 32 33  1  0  0  0
 33 34  2  0  0  0
 34 28  1  0  0  0
 28 29  2  0  0  0
 28 30  1  0  0  0
 30  1  1  0  0  0
  1  2  2  0  0  0
  2  3  1  0  0  0
  3  4  2  0  0  0
  4  5  1  0  0  0
  5  6  2  0  0  0
  4  7  1  0  0  0
  7  8  1  0  0  0
  8  9  2  0  0  0
  9 19  1  0  0  0
 19 20  1  0  0  0
 20 21  1  0  0  0
 21 22  1  0  0  0
 21 23  1  0  0  0
 23 24  2  0  0  0
 23 25  1  0  0  0
 25 26  1  0  0  0
 26 27  1  0  0  0
  9 10  1  0  0  0
 10 11  1  0  0  0
 11 12  2  0  0  0
 12 13  1  0  0  0
 13 14  2  0  0  0
 14 15  1  0  0  0
 14 16  1  0  0  0
 34 35  1  0  0  0
 35 36  2  0  0  0
 35 37  1  0  0  0
 37 40  1  0  0  0
 40 41  2  0  0  0
 41 42  1  0  0  0
 42 43  2  0  0  0
 43 44  1  0  0  0
 44 45  2  0  0  0
 37 38  1  0  0  0
 38 39  2  0  0  0
 38 32  1  0  0  0
  6  1  1  0  0  0
 16  7  2  0  0  0
 45 40  1  0  0  0
 22 19  1  0  0  0
 27 25  1  0  0  0
 16 10  1  0  0  0
 30 31  1  0  0  0
 15 17  1  0  0  0
 15 18  1  0  0  0
M  END
> <minimizedAffinity>
-8.70699

> <CNNscore>
0.0632784590

> <CNNaffinity>
6.4606704712

> <CNN_VS>
0.4088212848

> <CNNaffinity_variance>
0.6308504939

$$$$
[H]c1nc(N([H])[H])c2c(-c3c([H])c([H])c(N([H])C(=O)c4c([H])n(C([H])(C([H])([H])[H])C([H])([H])[H])c(=O)n(-c5c([H])c([H])c([H])c([H])c5[H])c4=O)c([H])c3[H])c([H])c(C3([H])C([H])([H])N(C(=O)C4([H])C([H])([H])C4([H])[H])C3([H])[H])n2n1


 48 54  0  0  0  0  0  0  0  0999 V2000
    2.4121    5.9227   15.2215 C   0  0  0  0  0  0  0  0  0  0  0  0
    2.2311    4.5620   14.8635 C   0  0  0  0  0  0  0  0  0  0  0  0
    1.8100    4.1862   13.6193 C   0  0  0  0  0  0  0  0  0  0  0  0
    1.5422    5.1509   12.6499 C   0  0  0  0  0  0  0  0  0  0  0  0
    1.7241    6.4599   13.0199 C   0  0  0  0  0  0  0  0  0  0  0  0
    2.1440    6.8547   14.2565 C   0  0  0  0  0  0  0  0  0  0  0  0
    1.0587    4.7398   11.3318 C   0  0  0  0  0  0  0  0  0  0  0  0
    1.8798    4.4057   10.2410 C   0  0  0  0  0  0  0  0  0  0  0  0
    1.0304    4.0350    9.2271 C   0  0  0  0  0  0  0  0  0  0  0  0
   -0.2476    4.1222    9.6281 N   0  0  0  0  0  0  0  0  0  0  0  0
   -1.4109    3.8888    9.0437 N   0  0  0  0  0  0  0  0  0  0  0  0
   -2.5917    4.0494    9.6313 C   0  0  0  0  0  0  0  0  0  0  0  0
   -2.6310    4.4745   10.8953 N   0  0  0  0  0  0  0  0  0  0  0  0
   -1.4736    4.7254   11.5343 C   0  0  0  0  0  0  0  0  0  0  0  0
   -1.4796    5.2128   12.8787 N   0  0  0  0  0  0  0  0  0  0  0  0
   -0.2341    4.5583   10.9276 C   0  0  0  0  0  0  0  0  0  0  0  0
   -1.7982    4.6955   13.7014 H   0  0  0  0  0  0  0  0  0  0  0  0
   -1.1182    6.1992   13.0211 H   0  0  0  0  0  0  0  0  0  0  0  0
    1.4828    3.5981    7.8888 C   0  0  0  0  0  0  0  0  0  0  0  0
    1.6006    4.7064    6.9018 C   0  0  0  0  0  0  0  0  0  0  0  0
    3.0351    4.6113    6.9373 N   0  0  0  0  0  0  0  0  0  0  0  0
    2.9517    3.4455    7.7611 C   0  0  0  0  0  0  0  0  0  0  0  0
    4.0586    5.4186    6.3396 C   0  0  0  0  0  0  0  0  0  0  0  0
    3.7742    6.4263    5.6342 O   0  0  0  0  0  0  0  0  0  0  0  0
    5.4638    5.0639    6.5563 C   0  0  0  0  0  0  0  0  0  0  0  0
    6.4452    6.1588    6.9696 C   0  0  0  0  0  0  0  0  0  0  0  0
    6.0198    5.0890    7.9390 C   0  0  0  0  0  0  0  0  0  0  0  0
    4.0707    6.8907   16.8292 C   0  0  0  0  0  0  0  0  0  0  0  0
    4.8737    7.3169   15.9744 O   0  0  0  0  0  0  0  0  0  0  0  0
    2.8825    6.2262   16.5102 N   0  0  0  0  0  0  0  0  0  0  0  0
    2.2326    5.8887   17.3094 H   0  0  0  0  0  0  0  0  0  0  0  0
    5.0976    8.6653   19.9277 N   0  0  0  0  0  0  0  0  0  0  0  0
    4.7709    8.3984   18.6290 C   0  0  0  0  0  0  0  0  0  0  0  0
    4.4374    7.1214   18.2510 C   0  0  0  0  0  0  0  0  0  0  0  0
    4.4400    6.1264   19.1917 C   0  0  0  0  0  0  0  0  0  0  0  0
    4.1404    4.9508   18.8721 O   0  0  0  0  0  0  0  0  0  0  0  0
    4.7622    6.3748   20.4844 N   0  0  0  0  0  0  0  0  0  0  0  0
    5.0794    7.6577   20.7848 C   0  0  0  0  0  0  0  0  0  0  0  0
    5.3753    7.8787   21.9797 O   0  0  0  0  0  0  0  0  0  0  0  0
    4.7560    5.3303   21.4419 C   0  0  0  0  0  0  0  0  0  0  0  0
    3.6889    5.0882   22.2812 C   0  0  0  0  0  0  0  0  0  0  0  0
    3.7162    4.0562   23.2100 C   0  0  0  0  0  0  0  0  0  0  0  0
    4.8198    3.2479   23.3112 C   0  0  0  0  0  0  0  0  0  0  0  0
    5.8880    3.4663   22.4929 C   0  0  0  0  0  0  0  0  0  0  0  0
    5.8533    4.5086   21.5587 C   0  0  0  0  0  0  0  0  0  0  0  0
    6.8898   10.3319   19.9756 C   0  0  0  0  0  0  0  0  0  0  0  0
    5.4227   10.0363   20.2353 C   0  0  0  0  0  0  0  0  0  0  0  0
    4.5705   11.0557   19.5631 C   0  0  0  0  0  0  0  0  0  0  0  0
 46 47  1  0  0  0
 47 48  1  0  0  0
 47 32  1  0  0  0
 32 33  1  0  0  0
 33 34  2  0  0  0
 34 28  1  0  0  0
 28 29  2  0  0  0
 28 30  1  0  0  0
 30  1  1  0  0  0
  1  2  2  0  0  0
  2  3  1  0  0  0
  3  4  2  0  0  0
  4  5  1  0  0  0
  5  6  2  0  0  0
  4  7  1  0  0  0
  7  8  1  0  0  0
  8  9  2  0  0  0
  9 19  1  0  0  0
 19 20  1  0  0  0
 20 21  1  0  0  0
 21 22  1  0  0  0
 21 23  1  0  0  0
 23 24  2  0  0  0
 23 25  1  0  0  0
 25 26  1  0  0  0
 26 27  1  0  0  0
  9 10  1  0  0  0
 10 11  1  0  0  0
 11 12  2  0  0  0
 12 13  1  0  0  0
 13 14  2  0  0  0
 14 15  1  0  0  0
 14 16  1  0  0  0
 34 35  1  0  0  0
 35 36  2  0  0  0
 35 37  1  0  0  0
 37 40  1  0  0  0
 40 41  2  0  0  0
 41 42  1  0  0  0
 42 43  2  0  0  0
 43 44  1  0  0  0
 44 45  2  0  0  0
 37 38  1  0  0  0
 38 39  2  0  0  0
 38 32  1  0  0  0
  6  1  1  0  0  0
 16  7  2  0  0  0
 45 40  1  0  0  0
 22 19  1  0  0  0
 27 25  1  0  0  0
 16 10  1  0  0  0
 30 31  1  0  0  0
 15 17  1  0  0  0
 15 18  1  0  0  0
M  END
> <minimizedAffinity>
-8.29534

> <CNNscore>
0.0623631217

> <CNNaffinity>
6.3409647942

> <CNN_VS>
0.3954423666

> <CNNaffinity_variance>
0.9228454828

$$$$
[H]c1nc(N([H])[H])c2c(-c3c([H])c([H])c(N([H])C(=O)c4c([H])n(C([H])(C([H])([H])[H])C([H])([H])[H])c(=O)n(-c5c([H])c([H])c([H])c([H])c5[H])c4=O)c([H])c3[H])c([H])c(C3([H])C([H])([H])N(C(=O)C4([H])C([H])([H])C4([H])[H])C3([H])[H])n2n1


 48 54  0  0  0  0  0  0  0  0999 V2000
    2.5995    6.3156   15.1952 C   0  0  0  0  0  0  0  0  0  0  0  0
    1.9909    5.0920   14.8146 C   0  0  0  0  0  0  0  0  0  0  0  0
    1.2759    4.9633   13.6575 C   0  0  0  0  0  0  0  0  0  0  0  0
    1.1236    6.0541   12.8038 C   0  0  0  0  0  0  0  0  0  0  0  0
    1.7208    7.2266   13.1934 C   0  0  0  0  0  0  0  0  0  0  0  0
    2.4386    7.3747   14.3442 C   0  0  0  0  0  0  0  0  0  0  0  0
    0.3272    5.9151   11.5845 C   0  0  0  0  0  0  0  0  0  0  0  0
    0.8547    5.7358   10.2941 C   0  0  0  0  0  0  0  0  0  0  0  0
   -0.2268    5.6028    9.4577 C   0  0  0  0  0  0  0  0  0  0  0  0
   -1.3722    5.6900   10.1521 N   0  0  0  0  0  0  0  0  0  0  0  0
   -2.6519    5.6328    9.8227 N   0  0  0  0  0  0  0  0  0  0  0  0
   -3.6552    5.7530   10.6854 C   0  0  0  0  0  0  0  0  0  0  0  0
   -3.3769    5.9456   11.9759 N   0  0  0  0  0  0  0  0  0  0  0  0
   -2.0895    6.0105   12.3620 C   0  0  0  0  0  0  0  0  0  0  0  0
   -1.7554    6.2479   13.7319 N   0  0  0  0  0  0  0  0  0  0  0  0
   -1.0340    5.8840   11.4662 C   0  0  0  0  0  0  0  0  0  0  0  0
   -1.9357    5.6104   14.5111 H   0  0  0  0  0  0  0  0  0  0  0  0
   -1.2779    7.1702   13.9448 H   0  0  0  0  0  0  0  0  0  0  0  0
   -0.1212    5.3882    7.9985 C   0  0  0  0  0  0  0  0  0  0  0  0
    1.2551    5.0584    7.5367 C   0  0  0  0  0  0  0  0  0  0  0  0
    0.8604    3.7020    7.2671 N   0  0  0  0  0  0  0  0  0  0  0  0
   -0.5025    4.0267    7.5530 C   0  0  0  0  0  0  0  0  0  0  0  0
    1.6168    2.5511    6.8674 C   0  0  0  0  0  0  0  0  0  0  0  0
    2.8655    2.6125    6.6917 O   0  0  0  0  0  0  0  0  0  0  0  0
    0.9218    1.2776    6.6614 C   0  0  0  0  0  0  0  0  0  0  0  0
    1.2759    0.0913    7.5560 C   0  0  0  0  0  0  0  0  0  0  0  0
   -0.0463    0.7980    7.6883 C   0  0  0  0  0  0  0  0  0  0  0  0
    4.3160    5.4345   16.7921 C   0  0  0  0  0  0  0  0  0  0  0  0
    4.6459    4.4369   16.1188 O   0  0  0  0  0  0  0  0  0  0  0  0
    3.3487    6.3576   16.3830 N   0  0  0  0  0  0  0  0  0  0  0  0
    3.1190    7.2031   17.0213 H   0  0  0  0  0  0  0  0  0  0  0  0
    6.6612    6.7710   19.3452 N   0  0  0  0  0  0  0  0  0  0  0  0
    6.0039    6.5579   18.1673 C   0  0  0  0  0  0  0  0  0  0  0  0
    5.0124    5.6113   18.0931 C   0  0  0  0  0  0  0  0  0  0  0  0
    4.6972    4.8880   19.2124 C   0  0  0  0  0  0  0  0  0  0  0  0
    3.7961    4.0162   19.1710 O   0  0  0  0  0  0  0  0  0  0  0  0
    5.3402    5.0872   20.3886 N   0  0  0  0  0  0  0  0  0  0  0  0
    6.3061    6.0377   20.3875 C   0  0  0  0  0  0  0  0  0  0  0  0
    6.8945    6.2156   21.4768 O   0  0  0  0  0  0  0  0  0  0  0  0
    4.9962    4.3290   21.5351 C   0  0  0  0  0  0  0  0  0  0  0  0
    4.0284    4.7253   22.4341 C   0  0  0  0  0  0  0  0  0  0  0  0
    3.7165    3.9586   23.5491 C   0  0  0  0  0  0  0  0  0  0  0  0
    4.3740    2.7771   23.7800 C   0  0  0  0  0  0  0  0  0  0  0  0
    5.3350    2.3629   22.9062 C   0  0  0  0  0  0  0  0  0  0  0  0
    5.6441    3.1411   21.7842 C   0  0  0  0  0  0  0  0  0  0  0  0
    9.0583    7.2066   19.5806 C   0  0  0  0  0  0  0  0  0  0  0  0
    7.6791    7.7925   19.3323 C   0  0  0  0  0  0  0  0  0  0  0  0
    7.7010    8.6500   18.1152 C   0  0  0  0  0  0  0  0  0  0  0  0
 46 47  1  0  0  0
 47 48  1  0  0  0
 47 32  1  0  0  0
 32 33  1  0  0  0
 33 34  2  0  0  0
 34 28  1  0  0  0
 28 29  2  0  0  0
 28 30  1  0  0  0
 30  1  1  0  0  0
  1  2  2  0  0  0
  2  3  1  0  0  0
  3  4  2  0  0  0
  4  5  1  0  0  0
  5  6  2  0  0  0
  4  7  1  0  0  0
  7  8  1  0  0  0
  8  9  2  0  0  0
  9 19  1  0  0  0
 19 20  1  0  0  0
 20 21  1  0  0  0
 21 22  1  0  0  0
 21 23  1  0  0  0
 23 24  2  0  0  0
 23 25  1  0  0  0
 25 26  1  0  0  0
 26 27  1  0  0  0
  9 10  1  0  0  0
 10 11  1  0  0  0
 11 12  2  0  0  0
 12 13  1  0  0  0
 13 14  2  0  0  0
 14 15  1  0  0  0
 14 16  1  0  0  0
 34 35  1  0  0  0
 35 36  2  0  0  0
 35 37  1  0  0  0
 37 40  1  0  0  0
 40 41  2  0  0  0
 41 42  1  0  0  0
 42 43  2  0  0  0
 43 44  1  0  0  0
 44 45  2  0  0  0
 37 38  1  0  0  0
 38 39  2  0  0  0
 38 32  1  0  0  0
  6  1  1  0  0  0
 16  7  2  0  0  0
 45 40  1  0  0  0
 22 19  1  0  0  0
 27 25  1  0  0  0
 16 10  1  0  0  0
 30 31  1  0  0  0
 15 17  1  0  0  0
 15 18  1  0  0  0
M  END
> <minimizedAffinity>
-8.60587

> <CNNscore>
0.0600799881

> <CNNaffinity>
6.5136771202

> <CNN_VS>
0.3913416564

> <CNNaffinity_variance>
0.2394435108

$$$$
[H]c1nc(N([H])[H])c2c(-c3c([H])c([H])c(N([H])C(=O)c4c([H])n(C([H])(C([H])([H])[H])C([H])([H])[H])c(=O)n(-c5c([H])c([H])c([H])c([H])c5[H])c4=O)c([H])c3[H])c([H])c(C3([H])C([H])([H])N(C(=O)C4([H])C([H])([H])C4([H])[H])C3([H])[H])n2n1


 48 54  0  0  0  0  0  0  0  0999 V2000
    3.2470    6.1025   15.5765 C   0  0  0  0  0  0  0  0  0  0  0  0
    2.8881    4.7967   15.1541 C   0  0  0  0  0  0  0  0  0  0  0  0
    2.4809    4.5306   13.8774 C   0  0  0  0  0  0  0  0  0  0  0  0
    2.4064    5.5573   12.9381 C   0  0  0  0  0  0  0  0  0  0  0  0
    2.7580    6.8115   13.3703 C   0  0  0  0  0  0  0  0  0  0  0  0
    3.1672    7.0968   14.6401 C   0  0  0  0  0  0  0  0  0  0  0  0
    1.9361    5.2681   11.5833 C   0  0  0  0  0  0  0  0  0  0  0  0
    0.6166    5.4474   11.1333 C   0  0  0  0  0  0  0  0  0  0  0  0
    0.6204    5.1064    9.8027 C   0  0  0  0  0  0  0  0  0  0  0  0
    1.8502    4.7323    9.4163 N   0  0  0  0  0  0  0  0  0  0  0  0
    2.3663    4.3188    8.2708 N   0  0  0  0  0  0  0  0  0  0  0  0
    3.6401    3.9825    8.0994 C   0  0  0  0  0  0  0  0  0  0  0  0
    4.4731    4.0585    9.1388 N   0  0  0  0  0  0  0  0  0  0  0  0
    3.9963    4.4745   10.3265 C   0  0  0  0  0  0  0  0  0  0  0  0
    4.8537    4.5373   11.4692 N   0  0  0  0  0  0  0  0  0  0  0  0
    2.6655    4.8299   10.5138 C   0  0  0  0  0  0  0  0  0  0  0  0
    5.6468    5.1719   11.5882 H   0  0  0  0  0  0  0  0  0  0  0  0
    4.6361    3.8609   12.2560 H   0  0  0  0  0  0  0  0  0  0  0  0
   -0.5748    5.1571    8.9336 C   0  0  0  0  0  0  0  0  0  0  0  0
   -1.2820    6.4669    8.9586 C   0  0  0  0  0  0  0  0  0  0  0  0
   -0.8358    6.7552    7.6222 N   0  0  0  0  0  0  0  0  0  0  0  0
   -0.2812    5.4421    7.5088 C   0  0  0  0  0  0  0  0  0  0  0  0
   -0.9568    7.9310    6.8101 C   0  0  0  0  0  0  0  0  0  0  0  0
   -1.5364    8.9685    7.2361 O   0  0  0  0  0  0  0  0  0  0  0  0
   -0.3925    7.9246    5.4578 C   0  0  0  0  0  0  0  0  0  0  0  0
   -1.2928    7.5410    4.2851 C   0  0  0  0  0  0  0  0  0  0  0  0
   -0.8288    8.9598    4.4781 C   0  0  0  0  0  0  0  0  0  0  0  0
    4.9387    6.7746   17.2967 C   0  0  0  0  0  0  0  0  0  0  0  0
    5.8314    7.1237   16.4976 O   0  0  0  0  0  0  0  0  0  0  0  0
    3.6902    6.2884   16.8968 N   0  0  0  0  0  0  0  0  0  0  0  0
    2.9634    6.0090   17.6510 H   0  0  0  0  0  0  0  0  0  0  0  0
    6.0811    8.2562   20.5068 N   0  0  0  0  0  0  0  0  0  0  0  0
    5.7835    8.0877   19.1847 C   0  0  0  0  0  0  0  0  0  0  0  0
    5.2632    6.8969   18.7420 C   0  0  0  0  0  0  0  0  0  0  0  0
    5.0510    5.8872   19.6423 C   0  0  0  0  0  0  0  0  0  0  0  0
    4.5778    4.7889   19.2634 O   0  0  0  0  0  0  0  0  0  0  0  0
    5.3414    6.0383   20.9574 N   0  0  0  0  0  0  0  0  0  0  0  0
    5.8508    7.2401   21.3221 C   0  0  0  0  0  0  0  0  0  0  0  0
    6.1159    7.3716   22.5373 O   0  0  0  0  0  0  0  0  0  0  0  0
    5.1115    4.9809   21.8721 C   0  0  0  0  0  0  0  0  0  0  0  0
    3.9634    4.8801   22.6294 C   0  0  0  0  0  0  0  0  0  0  0  0
    3.7704    3.8308   23.5182 C   0  0  0  0  0  0  0  0  0  0  0  0
    4.7310    2.8621   23.6612 C   0  0  0  0  0  0  0  0  0  0  0  0
    5.8752    2.9387   22.9240 C   0  0  0  0  0  0  0  0  0  0  0  0
    6.0628    3.9995   22.0298 C   0  0  0  0  0  0  0  0  0  0  0  0
    8.0040    9.7583   20.3126 C   0  0  0  0  0  0  0  0  0  0  0  0
    6.6126    9.5431   20.8825 C   0  0  0  0  0  0  0  0  0  0  0  0
    5.7428   10.7072   20.5574 C   0  0  0  0  0  0  0  0  0  0  0  0
 46 47  1  0  0  0
 47 48  1  0  0  0
 47 32  1  0  0  0
 32 33  1  0  0  0
 33 34  2  0  0  0
 34 28  1  0  0  0
 28 29  2  0  0  0
 28 30  1  0  0  0
 30  1  1  0  0  0
  1  2  2  0  0  0
  2  3  1  0  0  0
  3  4  2  0  0  0
  4  5  1  0  0  0
  5  6  2  0  0  0
  4  7  1  0  0  0
  7  8  1  0  0  0
  8  9  2  0  0  0
  9 19  1  0  0  0
 19 20  1  0  0  0
 20 21  1  0  0  0
 21 22  1  0  0  0
 21 23  1  0  0  0
 23 24  2  0  0  0
 23 25  1  0  0  0
 25 26  1  0  0  0
 26 27  1  0  0  0
  9 10  1  0  0  0
 10 11  1  0  0  0
 11 12  2  0  0  0
 12 13  1  0  0  0
 13 14  2  0  0  0
 14 15  1  0  0  0
 14 16  1  0  0  0
 34 35  1  0  0  0
 35 36  2  0  0  0
 35 37  1  0  0  0
 37 40  1  0  0  0
 40 41  2  0  0  0
 41 42  1  0  0  0
 42 43  2  0  0  0
 43 44  1  0  0  0
 44 45  2  0  0  0
 37 38  1  0  0  0
 38 39  2  0  0  0
 38 32  1  0  0  0
  6  1  1  0  0  0
 16  7  2  0  0  0
 45 40  1  0  0  0
 22 19  1  0  0  0
 27 25  1  0  0  0
 16 10  1  0  0  0
 30 31  1  0  0  0
 15 17  1  0  0  0
 15 18  1  0  0  0
M  END
> <minimizedAffinity>
-8.28444

> <CNNscore>
0.0492882282

> <CNNaffinity>
6.2389497757

> <CNN_VS>
0.3075067699

> <CNNaffinity_variance>
1.0108654499

$$$$
[H]c1c([H])c([H])c(C([H])([H])C([H])([H])C([H])([H])N([H])c2nc([H])c3c(-c4c([H])c([H])c(N5C([H])([H])C([H])([H])N([H])C([H])([H])C5([H])[H])c([H])c4[H])nn(C([H])([H])[C@]4([H])C([H])([H])C([H])([H])[C@@]([H])(N([H])[H])C([H])([H])C4([H])[H])c3n2)c([H])c1[H]


 43 48  0  0  0  0  0  0  0  0999 V2000
    4.7614    3.7106   17.1819 N   0  0  0  0  0  0  0  0  0  0  0  0
    4.5579    4.3957   16.0918 N   0  0  0  0  0  0  0  0  0  0  0  0
    3.7211    3.7737   15.2488 C   0  0  0  0  0  0  0  0  0  0  0  0
    3.3725    2.5998   15.8655 C   0  0  0  0  0  0  0  0  0  0  0  0
    2.5388    1.5807   15.4487 C   0  0  0  0  0  0  0  0  0  0  0  0
    2.3841    0.5236   16.2904 N   0  0  0  0  0  0  0  0  0  0  0  0
    3.0189    0.4793   17.4763 C   0  0  0  0  0  0  0  0  0  0  0  0
    3.8288    1.4970   17.8519 N   0  0  0  0  0  0  0  0  0  0  0  0
    4.0360    2.5827   17.0740 C   0  0  0  0  0  0  0  0  0  0  0  0
    3.3095    4.3082   13.9474 C   0  0  0  0  0  0  0  0  0  0  0  0
    2.1193    4.9461   13.7742 C   0  0  0  0  0  0  0  0  0  0  0  0
    1.7854    5.4288   12.5266 C   0  0  0  0  0  0  0  0  0  0  0  0
    2.6274    5.2901   11.4158 C   0  0  0  0  0  0  0  0  0  0  0  0
    3.8132    4.6484   11.6119 C   0  0  0  0  0  0  0  0  0  0  0  0
    4.1409    4.1632   12.8816 C   0  0  0  0  0  0  0  0  0  0  0  0
    2.2567    5.7882   10.1507 N   0  0  0  0  0  0  0  0  0  0  0  0
    2.0256    4.9792    8.9830 C   0  0  0  0  0  0  0  0  0  0  0  0
    2.9094    5.4645    7.8524 C   0  0  0  0  0  0  0  0  0  0  0  0
    2.9773    6.8955    7.7436 N   0  0  0  0  0  0  0  0  0  0  0  0
    1.8718    7.4740    8.4825 C   0  0  0  0  0  0  0  0  0  0  0  0
    2.0705    7.2433    9.9589 C   0  0  0  0  0  0  0  0  0  0  0  0
    2.8271    7.1319    6.7302 H   0  0  0  0  0  0  0  0  0  0  0  0
    2.8093   -0.6552   18.3024 N   0  0  0  0  0  0  0  0  0  0  0  0
    3.0812   -1.5803   17.9529 H   0  0  0  0  0  0  0  0  0  0  0  0
    2.2233   -0.5393   19.6168 C   0  0  0  0  0  0  0  0  0  0  0  0
    3.2641   -0.4974   20.6885 C   0  0  0  0  0  0  0  0  0  0  0  0
    2.8735    0.5732   21.6972 C   0  0  0  0  0  0  0  0  0  0  0  0
    4.0586    1.4309   21.9529 C   0  0  0  0  0  0  0  0  0  0  0  0
    5.2149    1.1895   21.2474 C   0  0  0  0  0  0  0  0  0  0  0  0
    6.3419    1.9850   21.4724 C   0  0  0  0  0  0  0  0  0  0  0  0
    6.2967    3.0070   22.3963 C   0  0  0  0  0  0  0  0  0  0  0  0
    5.1321    3.2415   23.0990 C   0  0  0  0  0  0  0  0  0  0  0  0
    3.9987    2.4511   22.8814 C   0  0  0  0  0  0  0  0  0  0  0  0
    5.5988    4.0771   18.2950 C   0  0  0  0  0  0  0  0  0  0  0  0
    3.5160    7.9803   19.4309 N   0  0  0  0  0  0  0  0  0  0  0  0
    4.7852    7.8302   20.1133 C   0  0  0  0  0  0  0  0  0  0  0  0
    4.6926    6.6154   20.9901 C   0  0  0  0  0  0  0  0  0  0  0  0
    4.5159    5.3424   20.1674 C   0  0  0  0  0  0  0  0  0  0  0  0
    5.2907    5.4098   18.8917 C   0  0  0  0  0  0  0  0  0  0  0  0
    6.4789    6.3014   19.0779 C   0  0  0  0  0  0  0  0  0  0  0  0
    5.9436    7.7372   19.1761 C   0  0  0  0  0  0  0  0  0  0  0  0
    2.8496    7.2074   19.6489 H   0  0  0  0  0  0  0  0  0  0  0  0
    3.6275    8.1283   18.4036 H   0  0  0  0  0  0  0  0  0  0  0  0
 35 36  1  0  0  0
 36 37  1  0  0  0
 37 38  1  0  0  0
 38 39  1  0  0  0
 39 34  1  0  0  0
 34  1  1  0  0  0
  1  2  1  0  0  0
  2  3  2  0  0  0
  3 10  1  0  0  0
 10 11  2  0  0  0
 11 12  1  0  0  0
 12 13  2  0  0  0
 13 14  1  0  0  0
 14 15  2  0  0  0
 13 16  1  0  0  0
 16 17  1  0  0  0
 17 18  1  0  0  0
 18 19  1  0  0  0
 19 20  1  0  0  0
 20 21  1  0  0  0
  3  4  1  0  0  0
  4  5  2  0  0  0
  5  6  1  0  0  0
  6  7  2  0  0  0
  7 23  1  0  0  0
 23 25  1  0  0  0
 25 26  1  0  0  0
 26 27  1  0  0  0
 27 28  1  0  0  0
 28 29  2  0  0  0
 29 30  1  0  0  0
 30 31  2  0  0  0
 31 32  1  0  0  0
 32 33  2  0  0  0
  7  8  1  0  0  0
  8  9  2  0  0  0
 39 40  1  0  0  0
 40 41  1  0  0  0
 41 36  1  0  0  0
  9  1  1  0  0  0
 15 10  1  0  0  0
 21 16  1  0  0  0
  9  4  1  0  0  0
 33 28  1  0  0  0
 35 42  1  0  0  0
 35 43  1  0  0  0
 19 22  1  0  0  0
 23 24  1  0  0  0
M  END
> <minimizedAffinity>
-8.91353

> <CNNscore>
0.7575609088

> <CNNaffinity>
7.5302381516

> <CNN_VS>
5.7046141624

> <CNNaffinity_variance>
0.1037594303

$$$$
[H]c1c([H])c([H])c(C([H])([H])C([H])([H])C([H])([H])N([H])c2nc([H])c3c(-c4c([H])c([H])c(N5C([H])([H])C([H])([H])N([H])C([H])([H])C5([H])[H])c([H])c4[H])nn(C([H])([H])[C@]4([H])C([H])([H])C([H])([H])[C@@]([H])(N([H])[H])C([H])([H])C4([H])[H])c3n2)c([H])c1[H]


 43 48  0  0  0  0  0  0  0  0999 V2000
    5.0833    4.2605   17.3760 N   0  0  0  0  0  0  0  0  0  0  0  0
    4.5605    4.2770   16.1821 N   0  0  0  0  0  0  0  0  0  0  0  0
    3.8364    3.1776   15.9285 C   0  0  0  0  0  0  0  0  0  0  0  0
    3.9139    2.4087   17.0612 C   0  0  0  0  0  0  0  0  0  0  0  0
    3.3581    1.1777   17.3495 C   0  0  0  0  0  0  0  0  0  0  0  0
    3.6148    0.6548   18.5785 N   0  0  0  0  0  0  0  0  0  0  0  0
    4.3781    1.3138   19.4698 C   0  0  0  0  0  0  0  0  0  0  0  0
    4.9067    2.5190   19.1522 N   0  0  0  0  0  0  0  0  0  0  0  0
    4.6996    3.1073   17.9531 C   0  0  0  0  0  0  0  0  0  0  0  0
    3.1321    2.9233   14.6683 C   0  0  0  0  0  0  0  0  0  0  0  0
    2.0337    2.1213   14.6058 C   0  0  0  0  0  0  0  0  0  0  0  0
    1.4117    1.9189   13.3922 C   0  0  0  0  0  0  0  0  0  0  0  0
    1.8656    2.5096   12.2059 C   0  0  0  0  0  0  0  0  0  0  0  0
    2.9663    3.3082   12.2917 C   0  0  0  0  0  0  0  0  0  0  0  0
    3.5886    3.5059   13.5280 C   0  0  0  0  0  0  0  0  0  0  0  0
    1.2131    2.2794   10.9782 N   0  0  0  0  0  0  0  0  0  0  0  0
    0.9251    3.2917    9.9966 C   0  0  0  0  0  0  0  0  0  0  0  0
   -0.5587    3.2878    9.6909 C   0  0  0  0  0  0  0  0  0  0  0  0
   -1.1203    1.9715    9.5641 N   0  0  0  0  0  0  0  0  0  0  0  0
   -0.0440    1.0207    9.3633 C   0  0  0  0  0  0  0  0  0  0  0  0
    0.7792    0.9108   10.6213 C   0  0  0  0  0  0  0  0  0  0  0  0
   -1.6996    1.9701    8.6867 H   0  0  0  0  0  0  0  0  0  0  0  0
    4.6026    0.7067   20.7326 N   0  0  0  0  0  0  0  0  0  0  0  0
    5.5515    0.4019   20.9748 H   0  0  0  0  0  0  0  0  0  0  0  0
    3.5317    0.5070   21.6801 C   0  0  0  0  0  0  0  0  0  0  0  0
    3.3340    1.7014   22.5564 C   0  0  0  0  0  0  0  0  0  0  0  0
    4.6845    2.1074   23.1287 C   0  0  0  0  0  0  0  0  0  0  0  0
    4.9944    3.4844   22.6668 C   0  0  0  0  0  0  0  0  0  0  0  0
    6.2943    3.7962   22.3409 C   0  0  0  0  0  0  0  0  0  0  0  0
    6.6078    5.0863   21.9037 C   0  0  0  0  0  0  0  0  0  0  0  0
    5.6207    6.0427   21.7990 C   0  0  0  0  0  0  0  0  0  0  0  0
    4.3196    5.7202   22.1283 C   0  0  0  0  0  0  0  0  0  0  0  0
    3.9953    4.4321   22.5668 C   0  0  0  0  0  0  0  0  0  0  0  0
    5.9139    5.2733   17.9752 C   0  0  0  0  0  0  0  0  0  0  0  0
    3.5737    8.9878   16.7146 N   0  0  0  0  0  0  0  0  0  0  0  0
    4.3002    9.2038   17.9494 C   0  0  0  0  0  0  0  0  0  0  0  0
    3.7551    8.2516   18.9737 C   0  0  0  0  0  0  0  0  0  0  0  0
    4.0235    6.7996   18.5883 C   0  0  0  0  0  0  0  0  0  0  0  0
    5.3500    6.6537   17.9165 C   0  0  0  0  0  0  0  0  0  0  0  0
    6.2738    7.7277   18.4010 C   0  0  0  0  0  0  0  0  0  0  0  0
    5.7765    9.0467   17.7922 C   0  0  0  0  0  0  0  0  0  0  0  0
    2.8855    8.2065   16.7856 H   0  0  0  0  0  0  0  0  0  0  0  0
    4.2053    8.8847   15.8900 H   0  0  0  0  0  0  0  0  0  0  0  0
 35 36  1  0  0  0
 36 37  1  0  0  0
 37 38  1  0  0  0
 38 39  1  0  0  0
 39 34  1  0  0  0
 34  1  1  0  0  0
  1  2  1  0  0  0
  2  3  2  0  0  0
  3 10  1  0  0  0
 10 11  2  0  0  0
 11 12  1  0  0  0
 12 13  2  0  0  0
 13 14  1  0  0  0
 14 15  2  0  0  0
 13 16  1  0  0  0
 16 17  1  0  0  0
 17 18  1  0  0  0
 18 19  1  0  0  0
 19 20  1  0  0  0
 20 21  1  0  0  0
  3  4  1  0  0  0
  4  5  2  0  0  0
  5  6  1  0  0  0
  6  7  2  0  0  0
  7 23  1  0  0  0
 23 25  1  0  0  0
 25 26  1  0  0  0
 26 27  1  0  0  0
 27 28  1  0  0  0
 28 29  2  0  0  0
 29 30  1  0  0  0
 30 31  2  0  0  0
 31 32  1  0  0  0
 32 33  2  0  0  0
  7  8  1  0  0  0
  8  9  2  0  0  0
 39 40  1  0  0  0
 40 41  1  0  0  0
 41 36  1  0  0  0
  9  1  1  0  0  0
 15 10  1  0  0  0
 21 16  1  0  0  0
  9  4  1  0  0  0
 33 28  1  0  0  0
 35 42  1  0  0  0
 35 43  1  0  0  0
 19 22  1  0  0  0
 23 24  1  0  0  0
M  END
> <minimizedAffinity>
-9.43452

> <CNNscore>
0.6876311302

> <CNNaffinity>
7.6308546066

> <CNN_VS>
5.2472133636

> <CNNaffinity_variance>
0.4357681870

$$$$
[H]c1c([H])c([H])c(C([H])([H])C([H])([H])C([H])([H])N([H])c2nc([H])c3c(-c4c([H])c([H])c(N5C([H])([H])C([H])([H])N([H])C([H])([H])C5([H])[H])c([H])c4[H])nn(C([H])([H])[C@]4([H])C([H])([H])C([H])([H])[C@@]([H])(N([H])[H])C([H])([H])C4([H])[H])c3n2)c([H])c1[H]


 43 48  0  0  0  0  0  0  0  0999 V2000
    4.2474    2.1557   18.6730 N   0  0  0  0  0  0  0  0  0  0  0  0
    3.9408    1.8415   17.4457 N   0  0  0  0  0  0  0  0  0  0  0  0
    3.5310    2.9026   16.7361 C   0  0  0  0  0  0  0  0  0  0  0  0
    3.5865    3.9708   17.5940 C   0  0  0  0  0  0  0  0  0  0  0  0
    3.2773    5.3014   17.3909 C   0  0  0  0  0  0  0  0  0  0  0  0
    3.4351    6.1423   18.4482 N   0  0  0  0  0  0  0  0  0  0  0  0
    3.8739    5.6905   19.6375 C   0  0  0  0  0  0  0  0  0  0  0  0
    4.1674    4.3788   19.7999 N   0  0  0  0  0  0  0  0  0  0  0  0
    4.0378    3.4785   18.8002 C   0  0  0  0  0  0  0  0  0  0  0  0
    3.1232    2.8495   15.3290 C   0  0  0  0  0  0  0  0  0  0  0  0
    3.7532    3.5799   14.3682 C   0  0  0  0  0  0  0  0  0  0  0  0
    3.3262    3.4891   13.0604 C   0  0  0  0  0  0  0  0  0  0  0  0
    2.2597    2.6683   12.6721 C   0  0  0  0  0  0  0  0  0  0  0  0
    1.6438    1.9465   13.6499 C   0  0  0  0  0  0  0  0  0  0  0  0
    2.0857    2.0467   14.9725 C   0  0  0  0  0  0  0  0  0  0  0  0
    1.8409    2.6006   11.3281 N   0  0  0  0  0  0  0  0  0  0  0  0
    2.1039    3.6058   10.3324 C   0  0  0  0  0  0  0  0  0  0  0  0
    0.7956    4.0581    9.7169 C   0  0  0  0  0  0  0  0  0  0  0  0
   -0.1170    2.9832    9.4414 N   0  0  0  0  0  0  0  0  0  0  0  0
    0.6163    1.7322    9.4522 C   0  0  0  0  0  0  0  0  0  0  0  0
    1.0779    1.4250   10.8539 C   0  0  0  0  0  0  0  0  0  0  0  0
   -0.4685    3.1251    8.4608 H   0  0  0  0  0  0  0  0  0  0  0  0
    4.0144    6.6260   20.6952 N   0  0  0  0  0  0  0  0  0  0  0  0
    3.4877    6.4770   21.5625 H   0  0  0  0  0  0  0  0  0  0  0  0
    4.8761    7.7786   20.5795 C   0  0  0  0  0  0  0  0  0  0  0  0
    5.8669    7.8471   21.6963 C   0  0  0  0  0  0  0  0  0  0  0  0
    6.3364    6.4340   22.0108 C   0  0  0  0  0  0  0  0  0  0  0  0
    7.7945    6.3535   21.7410 C   0  0  0  0  0  0  0  0  0  0  0  0
    8.5867    5.6236   22.5970 C   0  0  0  0  0  0  0  0  0  0  0  0
    9.9615    5.5347   22.3614 C   0  0  0  0  0  0  0  0  0  0  0  0
   10.5226    6.1744   21.2770 C   0  0  0  0  0  0  0  0  0  0  0  0
    9.7197    6.9042   20.4239 C   0  0  0  0  0  0  0  0  0  0  0  0
    8.3427    6.9997   20.6507 C   0  0  0  0  0  0  0  0  0  0  0  0
    4.7200    1.2689   19.7050 C   0  0  0  0  0  0  0  0  0  0  0  0
    3.9715    3.9638   23.3161 N   0  0  0  0  0  0  0  0  0  0  0  0
    4.8356    2.8490   23.6475 C   0  0  0  0  0  0  0  0  0  0  0  0
    4.0512    1.5855   23.4439 C   0  0  0  0  0  0  0  0  0  0  0  0
    3.6732    1.3904   21.9784 C   0  0  0  0  0  0  0  0  0  0  0  0
    4.7586    1.8697   21.0705 C   0  0  0  0  0  0  0  0  0  0  0  0
    6.0782    1.7532   21.7679 C   0  0  0  0  0  0  0  0  0  0  0  0
    6.1010    2.8369   22.8554 C   0  0  0  0  0  0  0  0  0  0  0  0
    3.0364    3.6569   22.9688 H   0  0  0  0  0  0  0  0  0  0  0  0
    4.4273    4.6477   22.6727 H   0  0  0  0  0  0  0  0  0  0  0  0
 35 36  1  0  0  0
 36 37  1  0  0  0
 37 38  1  0  0  0
 38 39  1  0  0  0
 39 34  1  0  0  0
 34  1  1  0  0  0
  1  2  1  0  0  0
  2  3  2  0  0  0
  3 10  1  0  0  0
 10 11  2  0  0  0
 11 12  1  0  0  0
 12 13  2  0  0  0
 13 14  1  0  0  0
 14 15  2  0  0  0
 13 16  1  0  0  0
 16 17  1  0  0  0
 17 18  1  0  0  0
 18 19  1  0  0  0
 19 20  1  0  0  0
 20 21  1  0  0  0
  3  4  1  0  0  0
  4  5  2  0  0  0
  5  6  1  0  0  0
  6  7  2  0  0  0
  7 23  1  0  0  0
 23 25  1  0  0  0
 25 26  1  0  0  0
 26 27  1  0  0  0
 27 28  1  0  0  0
 28 29  2  0  0  0
 29 30  1  0  0  0
 30 31  2  0  0  0
 31 32  1  0  0  0
 32 33  2  0  0  0
  7  8  1  0  0  0
  8  9  2  0  0  0
 39 40  1  0  0  0
 40 41  1  0  0  0
 41 36  1  0  0  0
  9  1  1  0  0  0
 15 10  1  0  0  0
 21 16  1  0  0  0
  9  4  1  0  0  0
 33 28  1  0  0  0
 35 42  1  0  0  0
 35 43  1  0  0  0
 19 22  1  0  0  0
 23 24  1  0  0  0
M  END
> <minimizedAffinity>
-9.73350

> <CNNscore>
0.4455381036

> <CNNaffinity>
7.4231786728

> <CNN_VS>
3.3073089123

> <CNNaffinity_variance>
0.2622606456

$$$$
[H]c1c([H])c([H])c(C([H])([H])C([H])([H])C([H])([H])N([H])c2nc([H])c3c(-c4c([H])c([H])c(N5C([H])([H])C([H])([H])N([H])C([H])([H])C5([H])[H])c([H])c4[H])nn(C([H])([H])[C@]4([H])C([H])([H])C([H])([H])[C@@]([H])(N([H])[H])C([H])([H])C4([H])[H])c3n2)c([H])c1[H]


 43 48  0  0  0  0  0  0  0  0999 V2000
    4.3212    2.0113   18.6357 N   0  0  0  0  0  0  0  0  0  0  0  0
    4.1091    1.7529   17.3758 N   0  0  0  0  0  0  0  0  0  0  0  0
    3.6740    2.8275   16.7024 C   0  0  0  0  0  0  0  0  0  0  0  0
    3.6089    3.8437   17.6205 C   0  0  0  0  0  0  0  0  0  0  0  0
    3.2264    5.1626   17.4732 C   0  0  0  0  0  0  0  0  0  0  0  0
    3.2661    5.9467   18.5838 N   0  0  0  0  0  0  0  0  0  0  0  0
    3.6620    5.4523   19.7712 C   0  0  0  0  0  0  0  0  0  0  0  0
    4.0300    4.1538   19.8781 N   0  0  0  0  0  0  0  0  0  0  0  0
    4.0188    3.3088   18.8233 C   0  0  0  0  0  0  0  0  0  0  0  0
    3.3548    2.8337   15.2716 C   0  0  0  0  0  0  0  0  0  0  0  0
    2.4981    1.9304   14.7206 C   0  0  0  0  0  0  0  0  0  0  0  0
    2.2351    1.9849   13.3683 C   0  0  0  0  0  0  0  0  0  0  0  0
    2.8174    2.9408   12.5261 C   0  0  0  0  0  0  0  0  0  0  0  0
    3.6715    3.8346   13.0988 C   0  0  0  0  0  0  0  0  0  0  0  0
    3.9306    3.7695   14.4711 C   0  0  0  0  0  0  0  0  0  0  0  0
    2.5346    2.9683   11.1458 N   0  0  0  0  0  0  0  0  0  0  0  0
    2.6113    4.1396   10.3131 C   0  0  0  0  0  0  0  0  0  0  0  0
    1.2828    4.3482    9.6154 C   0  0  0  0  0  0  0  0  0  0  0  0
    0.6956    3.1368    9.1137 N   0  0  0  0  0  0  0  0  0  0  0  0
    1.7182    2.1102    9.0554 C   0  0  0  0  0  0  0  0  0  0  0  0
    2.1326    1.7247   10.4524 C   0  0  0  0  0  0  0  0  0  0  0  0
    0.3965    3.3296    8.1244 H   0  0  0  0  0  0  0  0  0  0  0  0
    3.6784    6.3297   20.8864 N   0  0  0  0  0  0  0  0  0  0  0  0
    2.7893    6.6985   21.2405 H   0  0  0  0  0  0  0  0  0  0  0  0
    4.9115    6.7155   21.5306 C   0  0  0  0  0  0  0  0  0  0  0  0
    5.1144    8.1959   21.5030 C   0  0  0  0  0  0  0  0  0  0  0  0
    5.5656    8.5940   20.1051 C   0  0  0  0  0  0  0  0  0  0  0  0
    4.7209    9.7251   19.6442 C   0  0  0  0  0  0  0  0  0  0  0  0
    5.0997   11.0081   19.9662 C   0  0  0  0  0  0  0  0  0  0  0  0
    4.3191   12.0872   19.5422 C   0  0  0  0  0  0  0  0  0  0  0  0
    3.1750   11.8689   18.8050 C   0  0  0  0  0  0  0  0  0  0  0  0
    2.8033   10.5782   18.4869 C   0  0  0  0  0  0  0  0  0  0  0  0
    3.5775    9.4912   18.9064 C   0  0  0  0  0  0  0  0  0  0  0  0
    4.7884    1.0951   19.6441 C   0  0  0  0  0  0  0  0  0  0  0  0
    3.9322    3.6550   23.3288 N   0  0  0  0  0  0  0  0  0  0  0  0
    4.7843    2.5266   23.6446 C   0  0  0  0  0  0  0  0  0  0  0  0
    4.0050    1.2734   23.3700 C   0  0  0  0  0  0  0  0  0  0  0  0
    3.6722    1.1340   21.8873 C   0  0  0  0  0  0  0  0  0  0  0  0
    4.7856    1.6443   21.0317 C   0  0  0  0  0  0  0  0  0  0  0  0
    6.0829    1.4988   21.7645 C   0  0  0  0  0  0  0  0  0  0  0  0
    6.0736    2.5411   22.8920 C   0  0  0  0  0  0  0  0  0  0  0  0
    3.0079    3.3635   22.9416 H   0  0  0  0  0  0  0  0  0  0  0  0
    4.4085    4.3614   22.7257 H   0  0  0  0  0  0  0  0  0  0  0  0
 35 36  1  0  0  0
 36 37  1  0  0  0
 37 38  1  0  0  0
 38 39  1  0  0  0
 39 34  1  0  0  0
 34  1  1  0  0  0
  1  2  1  0  0  0
  2  3  2  0  0  0
  3 10  1  0  0  0
 10 11  2  0  0  0
 11 12  1  0  0  0
 12 13  2  0  0  0
 13 14  1  0  0  0
 14 15  2  0  0  0
 13 16  1  0  0  0
 16 17  1  0  0  0
 17 18  1  0  0  0
 18 19  1  0  0  0
 19 20  1  0  0  0
 20 21  1  0  0  0
  3  4  1  0  0  0
  4  5  2  0  0  0
  5  6  1  0  0  0
  6  7  2  0  0  0
  7 23  1  0  0  0
 23 25  1  0  0  0
 25 26  1  0  0  0
 26 27  1  0  0  0
 27 28  1  0  0  0
 28 29  2  0  0  0
 29 30  1  0  0  0
 30 31  2  0  0  0
 31 32  1  0  0  0
 32 33  2  0  0  0
  7  8  1  0  0  0
  8  9  2  0  0  0
 39 40  1  0  0  0
 40 41  1  0  0  0
 41 36  1  0  0  0
  9  1  1  0  0  0
 15 10  1  0  0  0
 21 16  1  0  0  0
  9  4  1  0  0  0
 33 28  1  0  0  0
 35 42  1  0  0  0
 35 43  1  0  0  0
 19 22  1  0  0  0
 23 24  1  0  0  0
M  END
> <minimizedAffinity>
-10.33432

> <CNNscore>
0.2380272448

> <CNNaffinity>
7.2003068924

> <CNN_VS>
1.7138692141

> <CNNaffinity_variance>
0.4558824599

$$$$
[H]c1c([H])c([H])c(C([H])([H])C([H])([H])C([H])([H])N([H])c2nc([H])c3c(-c4c([H])c([H])c(N5C([H])([H])C([H])([H])N([H])C([H])([H])C5([H])[H])c([H])c4[H])nn(C([H])([H])[C@]4([H])C([H])([H])C([H])([H])[C@@]([H])(N([H])[H])C([H])([H])C4([H])[H])c3n2)c([H])c1[H]


 43 48  0  0  0  0  0  0  0  0999 V2000
    3.9818    2.8596   18.7361 N   0  0  0  0  0  0  0  0  0  0  0  0
    3.6541    2.8882   17.4748 N   0  0  0  0  0  0  0  0  0  0  0  0
    3.4639    4.1374   17.0268 C   0  0  0  0  0  0  0  0  0  0  0  0
    3.6923    4.9591   18.1004 C   0  0  0  0  0  0  0  0  0  0  0  0
    3.6374    6.3351   18.2045 C   0  0  0  0  0  0  0  0  0  0  0  0
    3.9197    6.8761   19.4201 N   0  0  0  0  0  0  0  0  0  0  0  0
    4.2379    6.0982   20.4712 C   0  0  0  0  0  0  0  0  0  0  0  0
    4.2818    4.7522   20.3320 N   0  0  0  0  0  0  0  0  0  0  0  0
    4.0149    4.1364   19.1587 C   0  0  0  0  0  0  0  0  0  0  0  0
    3.0891    4.4745   15.6502 C   0  0  0  0  0  0  0  0  0  0  0  0
    2.0230    5.2730   15.3687 C   0  0  0  0  0  0  0  0  0  0  0  0
    1.7183    5.5565   14.0543 C   0  0  0  0  0  0  0  0  0  0  0  0
    2.4668    5.0530   12.9827 C   0  0  0  0  0  0  0  0  0  0  0  0
    3.5290    4.2561   13.2875 C   0  0  0  0  0  0  0  0  0  0  0  0
    3.8283    3.9757   14.6241 C   0  0  0  0  0  0  0  0  0  0  0  0
    2.1277    5.3546   11.6484 N   0  0  0  0  0  0  0  0  0  0  0  0
    1.2619    4.5585   10.8190 C   0  0  0  0  0  0  0  0  0  0  0  0
    1.9893    4.1884    9.5428 C   0  0  0  0  0  0  0  0  0  0  0  0
    2.7490    5.2677    8.9752 N   0  0  0  0  0  0  0  0  0  0  0  0
    2.2902    6.5167    9.5518 C   0  0  0  0  0  0  0  0  0  0  0  0
    2.6697    6.5740   11.0095 C   0  0  0  0  0  0  0  0  0  0  0  0
    2.5167    5.2984    7.9503 H   0  0  0  0  0  0  0  0  0  0  0  0
    4.5205    6.7328   21.7086 N   0  0  0  0  0  0  0  0  0  0  0  0
    3.8532    6.6333   22.4809 H   0  0  0  0  0  0  0  0  0  0  0  0
    5.7191    7.5133   21.9049 C   0  0  0  0  0  0  0  0  0  0  0  0
    6.9357    6.6505   22.0007 C   0  0  0  0  0  0  0  0  0  0  0  0
    8.1659    7.5359   21.8619 C   0  0  0  0  0  0  0  0  0  0  0  0
    9.3298    6.8145   22.4367 C   0  0  0  0  0  0  0  0  0  0  0  0
   10.0498    5.9677   21.6257 C   0  0  0  0  0  0  0  0  0  0  0  0
   11.1491    5.2791   22.1465 C   0  0  0  0  0  0  0  0  0  0  0  0
   11.5114    5.4464   23.4658 C   0  0  0  0  0  0  0  0  0  0  0  0
   10.7828    6.2981   24.2715 C   0  0  0  0  0  0  0  0  0  0  0  0
    9.6810    6.9919   23.7602 C   0  0  0  0  0  0  0  0  0  0  0  0
    4.2575    1.6941   19.5362 C   0  0  0  0  0  0  0  0  0  0  0  0
    4.9406    3.7640   23.5502 N   0  0  0  0  0  0  0  0  0  0  0  0
    5.4208    2.3971   23.5619 C   0  0  0  0  0  0  0  0  0  0  0  0
    4.2408    1.4956   23.3425 C   0  0  0  0  0  0  0  0  0  0  0  0
    3.6262    1.7029   21.9612 C   0  0  0  0  0  0  0  0  0  0  0  0
    4.6768    1.9880   20.9379 C   0  0  0  0  0  0  0  0  0  0  0  0
    5.9635    1.3452   21.3536 C   0  0  0  0  0  0  0  0  0  0  0  0
    6.4915    2.1467   22.5521 C   0  0  0  0  0  0  0  0  0  0  0  0
    3.9191    3.8285   23.3467 H   0  0  0  0  0  0  0  0  0  0  0  0
    5.5073    4.3833   22.9297 H   0  0  0  0  0  0  0  0  0  0  0  0
 35 36  1  0  0  0
 36 37  1  0  0  0
 37 38  1  0  0  0
 38 39  1  0  0  0
 39 34  1  0  0  0
 34  1  1  0  0  0
  1  2  1  0  0  0
  2  3  2  0  0  0
  3 10  1  0  0  0
 10 11  2  0  0  0
 11 12  1  0  0  0
 12 13  2  0  0  0
 13 14  1  0  0  0
 14 15  2  0  0  0
 13 16  1  0  0  0
 16 17  1  0  0  0
 17 18  1  0  0  0
 18 19  1  0  0  0
 19 20  1  0  0  0
 20 21  1  0  0  0
  3  4  1  0  0  0
  4  5  2  0  0  0
  5  6  1  0  0  0
  6  7  2  0  0  0
  7 23  1  0  0  0
 23 25  1  0  0  0
 25 26  1  0  0  0
 26 27  1  0  0  0
 27 28  1  0  0  0
 28 29  2  0  0  0
 29 30  1  0  0  0
 30 31  2  0  0  0
 31 32  1  0  0  0
 32 33  2  0  0  0
  7  8  1  0  0  0
  8  9  2  0  0  0
 39 40  1  0  0  0
 40 41  1  0  0  0
 41 36  1  0  0  0
  9  1  1  0  0  0
 15 10  1  0  0  0
 21 16  1  0  0  0
  9  4  1  0  0  0
 33 28  1  0  0  0
 35 42  1  0  0  0
 35 43  1  0  0  0
 19 22  1  0  0  0
 23 24  1  0  0  0
M  END
> <minimizedAffinity>
-9.20235

> <CNNscore>
0.2335484624

> <CNNaffinity>
6.9620895386

> <CNN_VS>
1.6259852648

> <CNNaffinity_variance>
0.2711173296

$$$$
[H]c1c([H])c([H])c(C([H])([H])C([H])([H])C([H])([H])N([H])c2nc([H])c3c(-c4c([H])c([H])c(N5C([H])([H])C([H])([H])N([H])C([H])([H])C5([H])[H])c([H])c4[H])nn(C([H])([H])[C@]4([H])C([H])([H])C([H])([H])[C@@]([H])(N([H])[H])C([H])([H])C4([H])[H])c3n2)c([H])c1[H]


 43 48  0  0  0  0  0  0  0  0999 V2000
    2.6499    5.3041   16.0828 N   0  0  0  0  0  0  0  0  0  0  0  0
    3.2441    6.2976   16.6820 N   0  0  0  0  0  0  0  0  0  0  0  0
    3.9882    5.8932   17.7214 C   0  0  0  0  0  0  0  0  0  0  0  0
    3.8464    4.5305   17.7757 C   0  0  0  0  0  0  0  0  0  0  0  0
    4.3904    3.6060   18.6456 C   0  0  0  0  0  0  0  0  0  0  0  0
    4.0625    2.3010   18.4471 N   0  0  0  0  0  0  0  0  0  0  0  0
    3.2430    1.9339   17.4446 C   0  0  0  0  0  0  0  0  0  0  0  0
    2.7281    2.8682   16.6111 N   0  0  0  0  0  0  0  0  0  0  0  0
    3.0043    4.1850   16.7402 C   0  0  0  0  0  0  0  0  0  0  0  0
    4.7691    6.7902   18.5785 C   0  0  0  0  0  0  0  0  0  0  0  0
    6.1305    6.7791   18.5823 C   0  0  0  0  0  0  0  0  0  0  0  0
    6.8120    7.6463   19.4094 C   0  0  0  0  0  0  0  0  0  0  0  0
    6.1572    8.5497   20.2564 C   0  0  0  0  0  0  0  0  0  0  0  0
    4.7949    8.5435   20.2364 C   0  0  0  0  0  0  0  0  0  0  0  0
    4.1147    7.6595   19.3935 C   0  0  0  0  0  0  0  0  0  0  0  0
    6.8804    9.4203   21.0961 N   0  0  0  0  0  0  0  0  0  0  0  0
    7.9067    9.0109   22.0182 C   0  0  0  0  0  0  0  0  0  0  0  0
    7.5592    9.5033   23.4081 C   0  0  0  0  0  0  0  0  0  0  0  0
    7.0504   10.8465   23.4363 N   0  0  0  0  0  0  0  0  0  0  0  0
    7.3865   11.5006   22.1865 C   0  0  0  0  0  0  0  0  0  0  0  0
    6.6073   10.8739   21.0585 C   0  0  0  0  0  0  0  0  0  0  0  0
    7.5688   11.3533   24.1977 H   0  0  0  0  0  0  0  0  0  0  0  0
    2.9456    0.5542   17.2984 N   0  0  0  0  0  0  0  0  0  0  0  0
    2.5534    0.2226   16.4106 H   0  0  0  0  0  0  0  0  0  0  0  0
    3.1792   -0.3900   18.3654 C   0  0  0  0  0  0  0  0  0  0  0  0
    2.5011    0.0223   19.6318 C   0  0  0  0  0  0  0  0  0  0  0  0
    3.2959   -0.5314   20.8057 C   0  0  0  0  0  0  0  0  0  0  0  0
    4.1686    0.5489   21.3319 C   0  0  0  0  0  0  0  0  0  0  0  0
    3.5979    1.5602   22.0700 C   0  0  0  0  0  0  0  0  0  0  0  0
    4.4011    2.5866   22.5749 C   0  0  0  0  0  0  0  0  0  0  0  0
    5.7586    2.5872   22.3355 C   0  0  0  0  0  0  0  0  0  0  0  0
    6.3218    1.5682   21.5941 C   0  0  0  0  0  0  0  0  0  0  0  0
    5.5269    0.5363   21.0842 C   0  0  0  0  0  0  0  0  0  0  0  0
    1.7791    5.3753   14.9378 C   0  0  0  0  0  0  0  0  0  0  0  0
    2.2277    7.6921   11.0271 N   0  0  0  0  0  0  0  0  0  0  0  0
    3.5022    7.5056   11.6904 C   0  0  0  0  0  0  0  0  0  0  0  0
    3.4387    8.2149   13.0117 C   0  0  0  0  0  0  0  0  0  0  0  0
    2.3993    7.5867   13.9357 C   0  0  0  0  0  0  0  0  0  0  0  0
    2.3506    6.1030   13.7670 C   0  0  0  0  0  0  0  0  0  0  0  0
    3.6904    5.6092   13.3170 C   0  0  0  0  0  0  0  0  0  0  0  0
    3.8651    6.0676   11.8620 C   0  0  0  0  0  0  0  0  0  0  0  0
    1.5436    8.2185   11.6136 H   0  0  0  0  0  0  0  0  0  0  0  0
    1.8305    6.7985   10.6622 H   0  0  0  0  0  0  0  0  0  0  0  0
 35 36  1  0  0  0
 36 37  1  0  0  0
 37 38  1  0  0  0
 38 39  1  0  0  0
 39 34  1  0  0  0
 34  1  1  0  0  0
  1  2  1  0  0  0
  2  3  2  0  0  0
  3 10  1  0  0  0
 10 11  2  0  0  0
 11 12  1  0  0  0
 12 13  2  0  0  0
 13 14  1  0  0  0
 14 15  2  0  0  0
 13 16  1  0  0  0
 16 17  1  0  0  0
 17 18  1  0  0  0
 18 19  1  0  0  0
 19 20  1  0  0  0
 20 21  1  0  0  0
  3  4  1  0  0  0
  4  5  2  0  0  0
  5  6  1  0  0  0
  6  7  2  0  0  0
  7 23  1  0  0  0
 23 25  1  0  0  0
 25 26  1  0  0  0
 26 27  1  0  0  0
 27 28  1  0  0  0
 28 29  2  0  0  0
 29 30  1  0  0  0
 30 31  2  0  0  0
 31 32  1  0  0  0
 32 33  2  0  0  0
  7  8  1  0  0  0
  8  9  2  0  0  0
 39 40  1  0  0  0
 40 41  1  0  0  0
 41 36  1  0  0  0
  9  1  1  0  0  0
 15 10  1  0  0  0
 21 16  1  0  0  0
  9  4  1  0  0  0
 33 28  1  0  0  0
 35 42  1  0  0  0
 35 43  1  0  0  0
 19 22  1  0  0  0
 23 24  1  0  0  0
M  END
> <minimizedAffinity>
-8.63521

> <CNNscore>
0.2308756709

> <CNNaffinity>
6.9895505905

> <CNN_VS>
1.6137171984

> <CNNaffinity_variance>
0.2834240496

$$$$
[H]c1c([H])c([H])c(C([H])([H])C([H])([H])C([H])([H])N([H])c2nc([H])c3c(-c4c([H])c([H])c(N5C([H])([H])C([H])([H])N([H])C([H])([H])C5([H])[H])c([H])c4[H])nn(C([H])([H])[C@]4([H])C([H])([H])C([H])([H])[C@@]([H])(N([H])[H])C([H])([H])C4([H])[H])c3n2)c([H])c1[H]


 43 48  0  0  0  0  0  0  0  0999 V2000
    2.8715    5.5887   14.2416 N   0  0  0  0  0  0  0  0  0  0  0  0
    1.9069    6.0157   13.4759 N   0  0  0  0  0  0  0  0  0  0  0  0
    1.0962    5.0247   13.0784 C   0  0  0  0  0  0  0  0  0  0  0  0
    1.5977    3.8809   13.6443 C   0  0  0  0  0  0  0  0  0  0  0  0
    1.1566    2.5744   13.5680 C   0  0  0  0  0  0  0  0  0  0  0  0
    1.8713    1.6386   14.2487 N   0  0  0  0  0  0  0  0  0  0  0  0
    2.9600    1.9782   14.9633 C   0  0  0  0  0  0  0  0  0  0  0  0
    3.3632    3.2695   15.0152 N   0  0  0  0  0  0  0  0  0  0  0  0
    2.7087    4.2592   14.3678 C   0  0  0  0  0  0  0  0  0  0  0  0
   -0.0725    5.2087   12.2128 C   0  0  0  0  0  0  0  0  0  0  0  0
   -0.0141    4.9981   10.8690 C   0  0  0  0  0  0  0  0  0  0  0  0
   -1.1461    5.1865   10.1048 C   0  0  0  0  0  0  0  0  0  0  0  0
   -2.3686    5.5899   10.6569 C   0  0  0  0  0  0  0  0  0  0  0  0
   -2.4040    5.7950   12.0034 C   0  0  0  0  0  0  0  0  0  0  0  0
   -1.2498    5.6007   12.7681 C   0  0  0  0  0  0  0  0  0  0  0  0
   -3.5079    5.7808    9.8497 N   0  0  0  0  0  0  0  0  0  0  0  0
   -3.4968    5.8443    8.4120 C   0  0  0  0  0  0  0  0  0  0  0  0
   -4.1404    7.1394    7.9610 C   0  0  0  0  0  0  0  0  0  0  0  0
   -5.3269    7.4828    8.6947 N   0  0  0  0  0  0  0  0  0  0  0  0
   -5.8071    6.3025    9.3869 C   0  0  0  0  0  0  0  0  0  0  0  0
   -4.8394    5.9239   10.4788 C   0  0  0  0  0  0  0  0  0  0  0  0
   -6.0590    7.7431    7.9865 H   0  0  0  0  0  0  0  0  0  0  0  0
    3.6557    0.9482   15.6479 N   0  0  0  0  0  0  0  0  0  0  0  0
    4.3718    0.4138   15.1445 H   0  0  0  0  0  0  0  0  0  0  0  0
    3.3796    0.6345   17.0299 C   0  0  0  0  0  0  0  0  0  0  0  0
    4.3573    1.2850   17.9544 C   0  0  0  0  0  0  0  0  0  0  0  0
    3.6587    1.5593   19.2784 C   0  0  0  0  0  0  0  0  0  0  0  0
    4.6867    1.9370   20.2813 C   0  0  0  0  0  0  0  0  0  0  0  0
    5.5528    0.9700   20.7376 C   0  0  0  0  0  0  0  0  0  0  0  0
    6.5280    1.3040   21.6815 C   0  0  0  0  0  0  0  0  0  0  0  0
    6.6232    2.5955   22.1538 C   0  0  0  0  0  0  0  0  0  0  0  0
    5.7500    3.5585   21.6900 C   0  0  0  0  0  0  0  0  0  0  0  0
    4.7703    3.2347   20.7455 C   0  0  0  0  0  0  0  0  0  0  0  0
    3.9170    6.3759   14.8430 C   0  0  0  0  0  0  0  0  0  0  0  0
    3.3007    7.5801   19.2057 N   0  0  0  0  0  0  0  0  0  0  0  0
    3.8696    6.2527   19.0899 C   0  0  0  0  0  0  0  0  0  0  0  0
    2.8732    5.3886   18.3733 C   0  0  0  0  0  0  0  0  0  0  0  0
    2.6462    5.8642   16.9412 C   0  0  0  0  0  0  0  0  0  0  0  0
    3.9101    6.3813   16.3353 C   0  0  0  0  0  0  0  0  0  0  0  0
    5.0817    5.6972   16.9686 C   0  0  0  0  0  0  0  0  0  0  0  0
    5.1931    6.2439   18.3991 C   0  0  0  0  0  0  0  0  0  0  0  0
    2.3725    7.6611   18.7357 H   0  0  0  0  0  0  0  0  0  0  0  0
    3.9631    8.3285   18.9044 H   0  0  0  0  0  0  0  0  0  0  0  0
 35 36  1  0  0  0
 36 37  1  0  0  0
 37 38  1  0  0  0
 38 39  1  0  0  0
 39 34  1  0  0  0
 34  1  1  0  0  0
  1  2  1  0  0  0
  2  3  2  0  0  0
  3 10  1  0  0  0
 10 11  2  0  0  0
 11 12  1  0  0  0
 12 13  2  0  0  0
 13 14  1  0  0  0
 14 15  2  0  0  0
 13 16  1  0  0  0
 16 17  1  0  0  0
 17 18  1  0  0  0
 18 19  1  0  0  0
 19 20  1  0  0  0
 20 21  1  0  0  0
  3  4  1  0  0  0
  4  5  2  0  0  0
  5  6  1  0  0  0
  6  7  2  0  0  0
  7 23  1  0  0  0
 23 25  1  0  0  0
 25 26  1  0  0  0
 26 27  1  0  0  0
 27 28  1  0  0  0
 28 29  2  0  0  0
 29 30  1  0  0  0
 30 31  2  0  0  0
 31 32  1  0  0  0
 32 33  2  0  0  0
  7  8  1  0  0  0
  8  9  2  0  0  0
 39 40  1  0  0  0
 40 41  1  0  0  0
 41 36  1  0  0  0
  9  1  1  0  0  0
 15 10  1  0  0  0
 21 16  1  0  0  0
  9  4  1  0  0  0
 33 28  1  0  0  0
 35 42  1  0  0  0
 35 43  1  0  0  0
 19 22  1  0  0  0
 23 24  1  0  0  0
M  END
> <minimizedAffinity>
-8.32601

> <CNNscore>
0.2186897844

> <CNNaffinity>
6.6480255127

> <CNN_VS>
1.4538552761

> <CNNaffinity_variance>
0.2722730041

$$$$
[H]c1c([H])c([H])c(C([H])([H])C([H])([H])C([H])([H])N([H])c2nc([H])c3c(-c4c([H])c([H])c(N5C([H])([H])C([H])([H])N([H])C([H])([H])C5([H])[H])c([H])c4[H])nn(C([H])([H])[C@]4([H])C([H])([H])C([H])([H])[C@@]([H])(N([H])[H])C([H])([H])C4([H])[H])c3n2)c([H])c1[H]


 43 48  0  0  0  0  0  0  0  0999 V2000
    4.6243    5.5732   16.7297 N   0  0  0  0  0  0  0  0  0  0  0  0
    3.8944    5.9802   15.7294 N   0  0  0  0  0  0  0  0  0  0  0  0
    3.0039    5.0565   15.3405 C   0  0  0  0  0  0  0  0  0  0  0  0
    3.1943    3.9806   16.1688 C   0  0  0  0  0  0  0  0  0  0  0  0
    2.5523    2.7587   16.2142 C   0  0  0  0  0  0  0  0  0  0  0  0
    2.9661    1.8765   17.1630 N   0  0  0  0  0  0  0  0  0  0  0  0
    3.9586    2.1874   18.0172 C   0  0  0  0  0  0  0  0  0  0  0  0
    4.5653    3.3954   17.9432 N   0  0  0  0  0  0  0  0  0  0  0  0
    4.2136    4.3277   17.0299 C   0  0  0  0  0  0  0  0  0  0  0  0
    2.0508    5.2373   14.2414 C   0  0  0  0  0  0  0  0  0  0  0  0
    2.1788    4.5729   13.0600 C   0  0  0  0  0  0  0  0  0  0  0  0
    1.2512    4.7825   12.0618 C   0  0  0  0  0  0  0  0  0  0  0  0
    0.1694    5.6597   12.2116 C   0  0  0  0  0  0  0  0  0  0  0  0
    0.0609    6.3140   13.4018 C   0  0  0  0  0  0  0  0  0  0  0  0
    1.0077    6.0933   14.4066 C   0  0  0  0  0  0  0  0  0  0  0  0
   -0.7599    5.8588   11.1710 N   0  0  0  0  0  0  0  0  0  0  0  0
   -2.1760    5.6247   11.2762 C   0  0  0  0  0  0  0  0  0  0  0  0
   -2.6091    4.6648   10.1871 C   0  0  0  0  0  0  0  0  0  0  0  0
   -2.0090    4.9301    8.9090 N   0  0  0  0  0  0  0  0  0  0  0  0
   -1.4718    6.2771    8.9147 C   0  0  0  0  0  0  0  0  0  0  0  0
   -0.2964    6.3522    9.8555 C   0  0  0  0  0  0  0  0  0  0  0  0
   -2.7836    4.9110    8.1984 H   0  0  0  0  0  0  0  0  0  0  0  0
    4.3368    1.2171   18.9810 N   0  0  0  0  0  0  0  0  0  0  0  0
    4.1366    0.2286   18.7948 H   0  0  0  0  0  0  0  0  0  0  0  0
    4.9924    1.5865   20.2132 C   0  0  0  0  0  0  0  0  0  0  0  0
    4.0156    1.7741   21.3288 C   0  0  0  0  0  0  0  0  0  0  0  0
    4.7680    2.2954   22.5447 C   0  0  0  0  0  0  0  0  0  0  0  0
    5.1528    3.7066   22.2882 C   0  0  0  0  0  0  0  0  0  0  0  0
    4.1596    4.6377   22.0887 C   0  0  0  0  0  0  0  0  0  0  0  0
    4.4998    5.9714   21.8460 C   0  0  0  0  0  0  0  0  0  0  0  0
    5.8235    6.3539   21.8063 C   0  0  0  0  0  0  0  0  0  0  0  0
    6.8127    5.4126   22.0077 C   0  0  0  0  0  0  0  0  0  0  0  0
    6.4830    4.0752   22.2513 C   0  0  0  0  0  0  0  0  0  0  0  0
    5.6722    6.3041   17.3949 C   0  0  0  0  0  0  0  0  0  0  0  0
    5.7594   10.5407   19.0996 N   0  0  0  0  0  0  0  0  0  0  0  0
    4.4152   10.1310   18.7467 C   0  0  0  0  0  0  0  0  0  0  0  0
    4.3844    9.8891   17.2657 C   0  0  0  0  0  0  0  0  0  0  0  0
    5.2861    8.7235   16.8692 C   0  0  0  0  0  0  0  0  0  0  0  0
    5.2660    7.6465   17.9045 C   0  0  0  0  0  0  0  0  0  0  0  0
    3.9529    7.6716   18.6231 C   0  0  0  0  0  0  0  0  0  0  0  0
    3.9543    8.9296   19.5036 C   0  0  0  0  0  0  0  0  0  0  0  0
    6.4093   10.5298   18.2832 H   0  0  0  0  0  0  0  0  0  0  0  0
    6.1395   10.0110   19.9147 H   0  0  0  0  0  0  0  0  0  0  0  0
 35 36  1  0  0  0
 36 37  1  0  0  0
 37 38  1  0  0  0
 38 39  1  0  0  0
 39 34  1  0  0  0
 34  1  1  0  0  0
  1  2  1  0  0  0
  2  3  2  0  0  0
  3 10  1  0  0  0
 10 11  2  0  0  0
 11 12  1  0  0  0
 12 13  2  0  0  0
 13 14  1  0  0  0
 14 15  2  0  0  0
 13 16  1  0  0  0
 16 17  1  0  0  0
 17 18  1  0  0  0
 18 19  1  0  0  0
 19 20  1  0  0  0
 20 21  1  0  0  0
  3  4  1  0  0  0
  4  5  2  0  0  0
  5  6  1  0  0  0
  6  7  2  0  0  0
  7 23  1  0  0  0
 23 25  1  0  0  0
 25 26  1  0  0  0
 26 27  1  0  0  0
 27 28  1  0  0  0
 28 29  2  0  0  0
 29 30  1  0  0  0
 30 31  2  0  0  0
 31 32  1  0  0  0
 32 33  2  0  0  0
  7  8  1  0  0  0
  8  9  2  0  0  0
 39 40  1  0  0  0
 40 41  1  0  0  0
 41 36  1  0  0  0
  9  1  1  0  0  0
 15 10  1  0  0  0
 21 16  1  0  0  0
  9  4  1  0  0  0
 33 28  1  0  0  0
 35 42  1  0  0  0
 35 43  1  0  0  0
 19 22  1  0  0  0
 23 24  1  0  0  0
M  END
> <minimizedAffinity>
-8.05663

> <CNNscore>
0.2168964297

> <CNNaffinity>
6.6640310287

> <CNN_VS>
1.4454045296

> <CNNaffinity_variance>
0.4456592500

$$$$
[H]c1c([H])c([H])c(C([H])([H])C([H])([H])C([H])([H])N([H])c2nc([H])c3c(-c4c([H])c([H])c(N5C([H])([H])C([H])([H])N([H])C([H])([H])C5([H])[H])c([H])c4[H])nn(C([H])([H])[C@]4([H])C([H])([H])C([H])([H])[C@@]([H])(N([H])[H])C([H])([H])C4([H])[H])c3n2)c([H])c1[H]


 43 48  0  0  0  0  0  0  0  0999 V2000
    3.5551    5.8763   18.0758 N   0  0  0  0  0  0  0  0  0  0  0  0
    3.1869    6.3146   16.9047 N   0  0  0  0  0  0  0  0  0  0  0  0
    2.9910    5.3197   16.0277 C   0  0  0  0  0  0  0  0  0  0  0  0
    3.2601    4.1610   16.7096 C   0  0  0  0  0  0  0  0  0  0  0  0
    3.2180    2.8448   16.2934 C   0  0  0  0  0  0  0  0  0  0  0  0
    3.5428    1.8945   17.2106 N   0  0  0  0  0  0  0  0  0  0  0  0
    3.8892    2.2295   18.4672 C   0  0  0  0  0  0  0  0  0  0  0  0
    3.9196    3.5307   18.8398 N   0  0  0  0  0  0  0  0  0  0  0  0
    3.6110    4.5349   17.9894 C   0  0  0  0  0  0  0  0  0  0  0  0
    2.5721    5.5139   14.6364 C   0  0  0  0  0  0  0  0  0  0  0  0
    1.3009    5.8764   14.3106 C   0  0  0  0  0  0  0  0  0  0  0  0
    0.9642    6.0452   12.9843 C   0  0  0  0  0  0  0  0  0  0  0  0
    1.8839    5.8580   11.9445 C   0  0  0  0  0  0  0  0  0  0  0  0
    3.1500    5.4953   12.2934 C   0  0  0  0  0  0  0  0  0  0  0  0
    3.4797    5.3271   13.6416 C   0  0  0  0  0  0  0  0  0  0  0  0
    1.5093    6.0315   10.5970 N   0  0  0  0  0  0  0  0  0  0  0  0
    2.4148    5.9905    9.4792 C   0  0  0  0  0  0  0  0  0  0  0  0
    2.2875    7.2724    8.6819 C   0  0  0  0  0  0  0  0  0  0  0  0
    0.9310    7.7108    8.5030 N   0  0  0  0  0  0  0  0  0  0  0  0
    0.0399    6.6018    8.7837 C   0  0  0  0  0  0  0  0  0  0  0  0
    0.0900    6.2680   10.2528 C   0  0  0  0  0  0  0  0  0  0  0  0
    0.8181    7.9458    7.4845 H   0  0  0  0  0  0  0  0  0  0  0  0
    4.2151    1.1841   19.3698 N   0  0  0  0  0  0  0  0  0  0  0  0
    3.5844    0.3789   19.4448 H   0  0  0  0  0  0  0  0  0  0  0  0
    5.4073    1.2274   20.1829 C   0  0  0  0  0  0  0  0  0  0  0  0
    5.0952    1.0774   21.6368 C   0  0  0  0  0  0  0  0  0  0  0  0
    6.1226    1.8684   22.4337 C   0  0  0  0  0  0  0  0  0  0  0  0
    5.7318    3.3010   22.4107 C   0  0  0  0  0  0  0  0  0  0  0  0
    4.4168    3.6320   22.6438 C   0  0  0  0  0  0  0  0  0  0  0  0
    4.0276    4.9744   22.6270 C   0  0  0  0  0  0  0  0  0  0  0  0
    4.9555    5.9630   22.3784 C   0  0  0  0  0  0  0  0  0  0  0  0
    6.2723    5.6209   22.1458 C   0  0  0  0  0  0  0  0  0  0  0  0
    6.6722    4.2805   22.1603 C   0  0  0  0  0  0  0  0  0  0  0  0
    3.8494    6.6638   19.2453 C   0  0  0  0  0  0  0  0  0  0  0  0
    5.1546   10.6977   17.5461 N   0  0  0  0  0  0  0  0  0  0  0  0
    6.0329   10.2528   18.6090 C   0  0  0  0  0  0  0  0  0  0  0  0
    5.2201   10.1654   19.8679 C   0  0  0  0  0  0  0  0  0  0  0  0
    4.1333    9.0996   19.7606 C   0  0  0  0  0  0  0  0  0  0  0  0
    4.6060    7.9210   18.9734 C   0  0  0  0  0  0  0  0  0  0  0  0
    6.0921    7.7978   19.1061 C   0  0  0  0  0  0  0  0  0  0  0  0
    6.7054    8.9551   18.3048 C   0  0  0  0  0  0  0  0  0  0  0  0
    4.1662   10.8083   17.8624 H   0  0  0  0  0  0  0  0  0  0  0  0
    5.2315   10.1078   16.6884 H   0  0  0  0  0  0  0  0  0  0  0  0
 35 36  1  0  0  0
 36 37  1  0  0  0
 37 38  1  0  0  0
 38 39  1  0  0  0
 39 34  1  0  0  0
 34  1  1  0  0  0
  1  2  1  0  0  0
  2  3  2  0  0  0
  3 10  1  0  0  0
 10 11  2  0  0  0
 11 12  1  0  0  0
 12 13  2  0  0  0
 13 14  1  0  0  0
 14 15  2  0  0  0
 13 16  1  0  0  0
 16 17  1  0  0  0
 17 18  1  0  0  0
 18 19  1  0  0  0
 19 20  1  0  0  0
 20 21  1  0  0  0
  3  4  1  0  0  0
  4  5  2  0  0  0
  5  6  1  0  0  0
  6  7  2  0  0  0
  7 23  1  0  0  0
 23 25  1  0  0  0
 25 26  1  0  0  0
 26 27  1  0  0  0
 27 28  1  0  0  0
 28 29  2  0  0  0
 29 30  1  0  0  0
 30 31  2  0  0  0
 31 32  1  0  0  0
 32 33  2  0  0  0
  7  8  1  0  0  0
  8  9  2  0  0  0
 39 40  1  0  0  0
 40 41  1  0  0  0
 41 36  1  0  0  0
  9  1  1  0  0  0
 15 10  1  0  0  0
 21 16  1  0  0  0
  9  4  1  0  0  0
 33 28  1  0  0  0
 35 42  1  0  0  0
 35 43  1  0  0  0
 19 22  1  0  0  0
 23 24  1  0  0  0
M  END
> <minimizedAffinity>
-8.12260

> <CNNscore>
0.2062477618

> <CNNaffinity>
6.7235231400

> <CNN_VS>
1.3867115974

> <CNNaffinity_variance>
0.6106522083

$$$$
[H]OC1([H])C([H])([H])C([H])([H])C([H])(N([H])c2nc(N([H])C([H])([H])C([H])([H])C([H])([H])C([H])([H])[H])nc([H])c2-c2nc([H])c(C([H])([H])N([H])C([H])([H])C3([H])C([H])([H])C3([H])[H])c([H])c2[H])C([H])([H])C1([H])[H]


 35 38  0  0  0  0  0  0  0  0999 V2000
    2.9468    0.2803   18.5819 C   0  0  0  0  0  0  0  0  0  0  0  0
    2.0507    0.0044   17.6251 N   0  0  0  0  0  0  0  0  0  0  0  0
    1.9148    0.7043   16.5081 C   0  0  0  0  0  0  0  0  0  0  0  0
    2.7502    1.8236   16.2695 C   0  0  0  0  0  0  0  0  0  0  0  0
    3.6453    2.0818   17.2572 C   0  0  0  0  0  0  0  0  0  0  0  0
    3.7387    1.3229   18.3850 N   0  0  0  0  0  0  0  0  0  0  0  0
    2.5489    2.5666   15.0283 C   0  0  0  0  0  0  0  0  0  0  0  0
    1.9052    3.7400   14.8663 C   0  0  0  0  0  0  0  0  0  0  0  0
    1.8614    4.3723   13.6373 C   0  0  0  0  0  0  0  0  0  0  0  0
    2.4783    3.8197   12.5408 C   0  0  0  0  0  0  0  0  0  0  0  0
    3.1264    2.6208   12.7514 C   0  0  0  0  0  0  0  0  0  0  0  0
    3.1573    2.0318   13.9290 N   0  0  0  0  0  0  0  0  0  0  0  0
    2.4383    4.4854   11.2172 C   0  0  0  0  0  0  0  0  0  0  0  0
    3.5758    5.3758   11.1456 N   0  0  0  0  0  0  0  0  0  0  0  0
    4.2835    5.1878   11.8613 H   0  0  0  0  0  0  0  0  0  0  0  0
    3.1302    6.7445   11.2275 C   0  0  0  0  0  0  0  0  0  0  0  0
    3.9854    7.5318   12.1635 C   0  0  0  0  0  0  0  0  0  0  0  0
    3.1961    8.4263   13.1149 C   0  0  0  0  0  0  0  0  0  0  0  0
    3.9330    7.2692   13.6354 C   0  0  0  0  0  0  0  0  0  0  0  0
    3.0309   -0.5184   19.7694 N   0  0  0  0  0  0  0  0  0  0  0  0
    2.8361   -1.5334   19.6831 H   0  0  0  0  0  0  0  0  0  0  0  0
    3.3532    0.0953   21.0057 C   0  0  0  0  0  0  0  0  0  0  0  0
    4.8099    0.2207   21.2790 C   0  0  0  0  0  0  0  0  0  0  0  0
    4.2033    2.6505   21.6844 C   0  0  0  0  0  0  0  0  0  0  0  0
    5.2516    1.5934   21.6289 C   0  0  0  0  0  0  0  0  0  0  0  0
    4.4636    3.2611   17.1916 N   0  0  0  0  0  0  0  0  0  0  0  0
    5.1617    3.4909   16.4922 H   0  0  0  0  0  0  0  0  0  0  0  0
    4.2489    4.2991   18.2092 C   0  0  0  0  0  0  0  0  0  0  0  0
    3.2854    5.3008   17.6765 C   0  0  0  0  0  0  0  0  0  0  0  0
    4.0149    6.6433   17.5437 C   0  0  0  0  0  0  0  0  0  0  0  0
    4.5252    7.0670   18.8887 C   0  0  0  0  0  0  0  0  0  0  0  0
    3.4322    7.4370   19.6932 O   0  0  0  0  0  0  0  0  0  0  0  0
    5.2735    5.9740   19.6203 C   0  0  0  0  0  0  0  0  0  0  0  0
    5.5656    4.8563   18.6267 C   0  0  0  0  0  0  0  0  0  0  0  0
    3.0140    8.2832   19.3307 H   0  0  0  0  0  0  0  0  0  0  0  0
 24 25  1  0  0  0
 25 23  1  0  0  0
 23 22  1  0  0  0
 22 20  1  0  0  0
 20  1  1  0  0  0
  1  2  2  0  0  0
  2  3  1  0  0  0
  3  4  2  0  0  0
  4  5  1  0  0  0
  5 26  1  0  0  0
 26 28  1  0  0  0
 28 29  1  0  0  0
 29 30  1  0  0  0
 30 31  1  0  0  0
 31 32  1  0  0  0
 31 33  1  0  0  0
 33 34  1  0  0  0
  5  6  2  0  0  0
  4  7  1  0  0  0
  7  8  2  0  0  0
  8  9  1  0  0  0
  9 10  2  0  0  0
 10 13  1  0  0  0
 13 14  1  0  0  0
 14 16  1  0  0  0
 16 17  1  0  0  0
 17 18  1  0  0  0
 18 19  1  0  0  0
 10 11  1  0  0  0
 11 12  2  0  0  0
  6  1  1  0  0  0
 12  7  1  0  0  0
 34 28  1  0  0  0
 19 17  1  0  0  0
 20 21  1  0  0  0
 26 27  1  0  0  0
 32 35  1  0  0  0
 14 15  1  0  0  0
M  END
> <minimizedAffinity>
-6.13173

> <CNNscore>
0.8718026876

> <CNNaffinity>
7.1632995605

> <CNN_VS>
6.2449836731

> <CNNaffinity_variance>
0.2677505612

$$$$
[H]OC1([H])C([H])([H])C([H])([H])C([H])(N([H])c2nc(N([H])C([H])([H])C([H])([H])C([H])([H])C([H])([H])[H])nc([H])c2-c2nc([H])c(C([H])([H])N([H])C([H])([H])C3([H])C([H])([H])C3([H])[H])c([H])c2[H])C([H])([H])C1([H])[H]


 35 38  0  0  0  0  0  0  0  0999 V2000
    3.3765    0.6110   19.3887 C   0  0  0  0  0  0  0  0  0  0  0  0
    2.7232    0.0346   18.3709 N   0  0  0  0  0  0  0  0  0  0  0  0
    2.6891    0.5194   17.1382 C   0  0  0  0  0  0  0  0  0  0  0  0
    3.3738    1.7217   16.8325 C   0  0  0  0  0  0  0  0  0  0  0  0
    4.0231    2.2854   17.8832 C   0  0  0  0  0  0  0  0  0  0  0  0
    4.0230    1.7373   19.1306 N   0  0  0  0  0  0  0  0  0  0  0  0
    3.2924    2.2176   15.4612 C   0  0  0  0  0  0  0  0  0  0  0  0
    2.6353    1.6630   14.4228 C   0  0  0  0  0  0  0  0  0  0  0  0
    2.5773    2.2894   13.1914 C   0  0  0  0  0  0  0  0  0  0  0  0
    3.1900    3.5031   12.9912 C   0  0  0  0  0  0  0  0  0  0  0  0
    3.8487    4.0350   14.0798 C   0  0  0  0  0  0  0  0  0  0  0  0
    3.8947    3.4240   15.2455 N   0  0  0  0  0  0  0  0  0  0  0  0
    3.1374    4.1853   11.6765 C   0  0  0  0  0  0  0  0  0  0  0  0
    1.7573    4.5387   11.4269 N   0  0  0  0  0  0  0  0  0  0  0  0
    1.0955    4.0366   12.0255 H   0  0  0  0  0  0  0  0  0  0  0  0
    1.4417    4.3218   10.0370 C   0  0  0  0  0  0  0  0  0  0  0  0
    1.2506    2.8696    9.7509 C   0  0  0  0  0  0  0  0  0  0  0  0
   -0.1928    2.4885    9.4351 C   0  0  0  0  0  0  0  0  0  0  0  0
    0.8320    2.4179    8.3874 C   0  0  0  0  0  0  0  0  0  0  0  0
    3.3624    0.0316   20.6998 N   0  0  0  0  0  0  0  0  0  0  0  0
    2.7288   -0.7727   20.8652 H   0  0  0  0  0  0  0  0  0  0  0  0
    4.1855    0.5774   21.7164 C   0  0  0  0  0  0  0  0  0  0  0  0
    3.5202    1.5867   22.5831 C   0  0  0  0  0  0  0  0  0  0  0  0
    3.5948    4.0008   23.3593 C   0  0  0  0  0  0  0  0  0  0  0  0
    4.3163    2.8178   22.8121 C   0  0  0  0  0  0  0  0  0  0  0  0
    4.6505    3.5693   17.7319 N   0  0  0  0  0  0  0  0  0  0  0  0
    4.9830    3.9975   16.8745 H   0  0  0  0  0  0  0  0  0  0  0  0
    4.7900    4.4069   18.9311 C   0  0  0  0  0  0  0  0  0  0  0  0
    3.4777    5.0446   19.2259 C   0  0  0  0  0  0  0  0  0  0  0  0
    3.6362    6.5618   19.0664 C   0  0  0  0  0  0  0  0  0  0  0  0
    4.6864    7.0545   20.0168 C   0  0  0  0  0  0  0  0  0  0  0  0
    4.1846    6.9762   21.3285 O   0  0  0  0  0  0  0  0  0  0  0  0
    5.9643    6.2452   19.9741 C   0  0  0  0  0  0  0  0  0  0  0  0
    5.9194    5.3581   18.7360 C   0  0  0  0  0  0  0  0  0  0  0  0
    3.4367    7.6461   21.4473 H   0  0  0  0  0  0  0  0  0  0  0  0
 24 25  1  0  0  0
 25 23  1  0  0  0
 23 22  1  0  0  0
 22 20  1  0  0  0
 20  1  1  0  0  0
  1  2  2  0  0  0
  2  3  1  0  0  0
  3  4  2  0  0  0
  4  5  1  0  0  0
  5 26  1  0  0  0
 26 28  1  0  0  0
 28 29  1  0  0  0
 29 30  1  0  0  0
 30 31  1  0  0  0
 31 32  1  0  0  0
 31 33  1  0  0  0
 33 34  1  0  0  0
  5  6  2  0  0  0
  4  7  1  0  0  0
  7  8  2  0  0  0
  8  9  1  0  0  0
  9 10  2  0  0  0
 10 13  1  0  0  0
 13 14  1  0  0  0
 14 16  1  0  0  0
 16 17  1  0  0  0
 17 18  1  0  0  0
 18 19  1  0  0  0
 10 11  1  0  0  0
 11 12  2  0  0  0
  6  1  1  0  0  0
 12  7  1  0  0  0
 34 28  1  0  0  0
 19 17  1  0  0  0
 20 21  1  0  0  0
 26 27  1  0  0  0
 32 35  1  0  0  0
 14 15  1  0  0  0
M  END
> <minimizedAffinity>
-7.20503

> <CNNscore>
0.8124401569

> <CNNaffinity>
7.1642189026

> <CNN_VS>
5.8204989433

> <CNNaffinity_variance>
0.2518597543

$$$$
[H]OC1([H])C([H])([H])C([H])([H])C([H])(N([H])c2nc(N([H])C([H])([H])C([H])([H])C([H])([H])C([H])([H])[H])nc([H])c2-c2nc([H])c(C([H])([H])N([H])C([H])([H])C3([H])C([H])([H])C3([H])[H])c([H])c2[H])C([H])([H])C1([H])[H]


 35 38  0  0  0  0  0  0  0  0999 V2000
    2.8339    0.3251   18.3312 C   0  0  0  0  0  0  0  0  0  0  0  0
    2.1273    0.3144   17.1931 N   0  0  0  0  0  0  0  0  0  0  0  0
    2.1641    1.2785   16.2847 C   0  0  0  0  0  0  0  0  0  0  0  0
    2.9903    2.4113   16.4897 C   0  0  0  0  0  0  0  0  0  0  0  0
    3.6910    2.3971   17.6525 C   0  0  0  0  0  0  0  0  0  0  0  0
    3.6125    1.3737   18.5486 N   0  0  0  0  0  0  0  0  0  0  0  0
    2.9828    3.4496   15.4626 C   0  0  0  0  0  0  0  0  0  0  0  0
    2.3186    4.6226   15.4825 C   0  0  0  0  0  0  0  0  0  0  0  0
    2.4694    5.5515   14.4693 C   0  0  0  0  0  0  0  0  0  0  0  0
    3.3071    5.3040   13.4085 C   0  0  0  0  0  0  0  0  0  0  0  0
    3.9680    4.0938   13.4291 C   0  0  0  0  0  0  0  0  0  0  0  0
    3.8118    3.2200   14.4020 N   0  0  0  0  0  0  0  0  0  0  0  0
    3.4773    6.2896   12.3147 C   0  0  0  0  0  0  0  0  0  0  0  0
    4.7091    7.0053   12.5645 N   0  0  0  0  0  0  0  0  0  0  0  0
    5.3587    6.4953   13.1698 H   0  0  0  0  0  0  0  0  0  0  0  0
    4.4158    8.3020   13.1223 C   0  0  0  0  0  0  0  0  0  0  0  0
    5.2489    8.5662   14.3319 C   0  0  0  0  0  0  0  0  0  0  0  0
    4.5208    9.3447   15.4237 C   0  0  0  0  0  0  0  0  0  0  0  0
    4.8927    7.9427   15.6445 C   0  0  0  0  0  0  0  0  0  0  0  0
    2.7371   -0.7518   19.2724 N   0  0  0  0  0  0  0  0  0  0  0  0
    2.7257   -1.7194   18.8990 H   0  0  0  0  0  0  0  0  0  0  0  0
    2.6426   -0.4662   20.6575 C   0  0  0  0  0  0  0  0  0  0  0  0
    3.9390   -0.4773   21.3866 C   0  0  0  0  0  0  0  0  0  0  0  0
    3.5299    1.7374   22.5546 C   0  0  0  0  0  0  0  0  0  0  0  0
    4.4427    0.8673   21.7613 C   0  0  0  0  0  0  0  0  0  0  0  0
    4.4683    3.5438   18.0341 N   0  0  0  0  0  0  0  0  0  0  0  0
    5.1085    4.0769   17.4553 H   0  0  0  0  0  0  0  0  0  0  0  0
    4.2958    4.0629   19.3979 C   0  0  0  0  0  0  0  0  0  0  0  0
    3.5800    5.3660   19.3279 C   0  0  0  0  0  0  0  0  0  0  0  0
    4.5259    6.4598   19.8391 C   0  0  0  0  0  0  0  0  0  0  0  0
    4.9235    6.1526   21.2521 C   0  0  0  0  0  0  0  0  0  0  0  0
    3.8112    6.3503   22.0901 O   0  0  0  0  0  0  0  0  0  0  0  0
    5.3890    4.7264   21.4499 C   0  0  0  0  0  0  0  0  0  0  0  0
    5.6214    4.1114   20.0754 C   0  0  0  0  0  0  0  0  0  0  0  0
    3.5829    7.3346   22.1260 H   0  0  0  0  0  0  0  0  0  0  0  0
 24 25  1  0  0  0
 25 23  1  0  0  0
 23 22  1  0  0  0
 22 20  1  0  0  0
 20  1  1  0  0  0
  1  2  2  0  0  0
  2  3  1  0  0  0
  3  4  2  0  0  0
  4  5  1  0  0  0
  5 26  1  0  0  0
 26 28  1  0  0  0
 28 29  1  0  0  0
 29 30  1  0  0  0
 30 31  1  0  0  0
 31 32  1  0  0  0
 31 33  1  0  0  0
 33 34  1  0  0  0
  5  6  2  0  0  0
  4  7  1  0  0  0
  7  8  2  0  0  0
  8  9  1  0  0  0
  9 10  2  0  0  0
 10 13  1  0  0  0
 13 14  1  0  0  0
 14 16  1  0  0  0
 16 17  1  0  0  0
 17 18  1  0  0  0
 18 19  1  0  0  0
 10 11  1  0  0  0
 11 12  2  0  0  0
  6  1  1  0  0  0
 12  7  1  0  0  0
 34 28  1  0  0  0
 19 17  1  0  0  0
 20 21  1  0  0  0
 26 27  1  0  0  0
 32 35  1  0  0  0
 14 15  1  0  0  0
M  END
> <minimizedAffinity>
-6.99326

> <CNNscore>
0.7206118703

> <CNNaffinity>
7.0379614830

> <CNN_VS>
5.0716385841

> <CNNaffinity_variance>
0.2325992882

$$$$
[H]OC1([H])C([H])([H])C([H])([H])C([H])(N([H])c2nc(N([H])C([H])([H])C([H])([H])C([H])([H])C([H])([H])[H])nc([H])c2-c2nc([H])c(C([H])([H])N([H])C([H])([H])C3([H])C([H])([H])C3([H])[H])c([H])c2[H])C([H])([H])C1([H])[H]


 35 38  0  0  0  0  0  0  0  0999 V2000
    4.0374    1.1685   20.2684 C   0  0  0  0  0  0  0  0  0  0  0  0
    3.4212    0.4936   19.2888 N   0  0  0  0  0  0  0  0  0  0  0  0
    3.3016    0.9317   18.0440 C   0  0  0  0  0  0  0  0  0  0  0  0
    3.8457    2.1890   17.6820 C   0  0  0  0  0  0  0  0  0  0  0  0
    4.4602    2.8519   18.6950 C   0  0  0  0  0  0  0  0  0  0  0  0
    4.5529    2.3477   19.9574 N   0  0  0  0  0  0  0  0  0  0  0  0
    3.6740    2.6286   16.2998 C   0  0  0  0  0  0  0  0  0  0  0  0
    3.2461    1.8981   15.2506 C   0  0  0  0  0  0  0  0  0  0  0  0
    3.0536    2.4705   14.0067 C   0  0  0  0  0  0  0  0  0  0  0  0
    3.2926    3.8085   13.8047 C   0  0  0  0  0  0  0  0  0  0  0  0
    3.7268    4.5183   14.9045 C   0  0  0  0  0  0  0  0  0  0  0  0
    3.9059    3.9566   16.0822 N   0  0  0  0  0  0  0  0  0  0  0  0
    3.0921    4.4352   12.4767 C   0  0  0  0  0  0  0  0  0  0  0  0
    3.0614    5.8678   12.6740 N   0  0  0  0  0  0  0  0  0  0  0  0
    3.0884    6.1418   13.6602 H   0  0  0  0  0  0  0  0  0  0  0  0
    1.8980    6.4244   12.0297 C   0  0  0  0  0  0  0  0  0  0  0  0
    1.0657    7.1957   12.9991 C   0  0  0  0  0  0  0  0  0  0  0  0
   -0.4335    6.9507   12.8556 C   0  0  0  0  0  0  0  0  0  0  0  0
    0.2766    6.4821   14.0510 C   0  0  0  0  0  0  0  0  0  0  0  0
    4.1214    0.6338   21.5959 N   0  0  0  0  0  0  0  0  0  0  0  0
    4.5972   -0.2794   21.7190 H   0  0  0  0  0  0  0  0  0  0  0  0
    3.5456    1.3473   22.6768 C   0  0  0  0  0  0  0  0  0  0  0  0
    4.5257    1.9436   23.6234 C   0  0  0  0  0  0  0  0  0  0  0  0
    3.6574    4.2673   23.0917 C   0  0  0  0  0  0  0  0  0  0  0  0
    4.8174    3.3781   23.3803 C   0  0  0  0  0  0  0  0  0  0  0  0
    4.9429    4.1892   18.4867 N   0  0  0  0  0  0  0  0  0  0  0  0
    5.2190    4.6170   17.6092 H   0  0  0  0  0  0  0  0  0  0  0  0
    5.0016    5.0834   19.6512 C   0  0  0  0  0  0  0  0  0  0  0  0
    3.7684    5.9165   19.6787 C   0  0  0  0  0  0  0  0  0  0  0  0
    4.1758    7.3816   19.4792 C   0  0  0  0  0  0  0  0  0  0  0  0
    5.1124    7.7909   20.5766 C   0  0  0  0  0  0  0  0  0  0  0  0
    4.3907    7.8774   21.7809 O   0  0  0  0  0  0  0  0  0  0  0  0
    6.2441    6.8113   20.7988 C   0  0  0  0  0  0  0  0  0  0  0  0
    6.2767    5.8523   19.6151 C   0  0  0  0  0  0  0  0  0  0  0  0
    3.7418    8.6514   21.7339 H   0  0  0  0  0  0  0  0  0  0  0  0
 24 25  1  0  0  0
 25 23  1  0  0  0
 23 22  1  0  0  0
 22 20  1  0  0  0
 20  1  1  0  0  0
  1  2  2  0  0  0
  2  3  1  0  0  0
  3  4  2  0  0  0
  4  5  1  0  0  0
  5 26  1  0  0  0
 26 28  1  0  0  0
 28 29  1  0  0  0
 29 30  1  0  0  0
 30 31  1  0  0  0
 31 32  1  0  0  0
 31 33  1  0  0  0
 33 34  1  0  0  0
  5  6  2  0  0  0
  4  7  1  0  0  0
  7  8  2  0  0  0
  8  9  1  0  0  0
  9 10  2  0  0  0
 10 13  1  0  0  0
 13 14  1  0  0  0
 14 16  1  0  0  0
 16 17  1  0  0  0
 17 18  1  0  0  0
 18 19  1  0  0  0
 10 11  1  0  0  0
 11 12  2  0  0  0
  6  1  1  0  0  0
 12  7  1  0  0  0
 34 28  1  0  0  0
 19 17  1  0  0  0
 20 21  1  0  0  0
 26 27  1  0  0  0
 32 35  1  0  0  0
 14 15  1  0  0  0
M  END
> <minimizedAffinity>
-7.87748

> <CNNscore>
0.4739296436

> <CNNaffinity>
6.8936052322

> <CNN_VS>
3.2670838833

> <CNNaffinity_variance>
0.5675020814

$$$$
[H]OC1([H])C([H])([H])C([H])([H])C([H])(N([H])c2nc(N([H])C([H])([H])C([H])([H])C([H])([H])C([H])([H])[H])nc([H])c2-c2nc([H])c(C([H])([H])N([H])C([H])([H])C3([H])C([H])([H])C3([H])[H])c([H])c2[H])C([H])([H])C1([H])[H]


 35 38  0  0  0  0  0  0  0  0999 V2000
    4.0472    1.1527   20.2589 C   0  0  0  0  0  0  0  0  0  0  0  0
    3.3499    0.6026   19.2560 N   0  0  0  0  0  0  0  0  0  0  0  0
    3.2734    1.1121   18.0351 C   0  0  0  0  0  0  0  0  0  0  0  0
    3.9577    2.3140   17.7269 C   0  0  0  0  0  0  0  0  0  0  0  0
    4.6521    2.8509   18.7627 C   0  0  0  0  0  0  0  0  0  0  0  0
    4.6943    2.2781   19.9983 N   0  0  0  0  0  0  0  0  0  0  0  0
    3.8287    2.8377   16.3697 C   0  0  0  0  0  0  0  0  0  0  0  0
    3.5293    2.1527   15.2478 C   0  0  0  0  0  0  0  0  0  0  0  0
    3.3597    2.7965   14.0358 C   0  0  0  0  0  0  0  0  0  0  0  0
    3.4906    4.1611   13.9411 C   0  0  0  0  0  0  0  0  0  0  0  0
    3.7951    4.8224   15.1124 C   0  0  0  0  0  0  0  0  0  0  0  0
    3.9542    4.1929   16.2582 N   0  0  0  0  0  0  0  0  0  0  0  0
    3.3131    4.8644   12.6486 C   0  0  0  0  0  0  0  0  0  0  0  0
    4.4808    5.6925   12.4423 N   0  0  0  0  0  0  0  0  0  0  0  0
    4.3400    6.6681   12.7193 H   0  0  0  0  0  0  0  0  0  0  0  0
    4.8955    5.6168   11.0636 C   0  0  0  0  0  0  0  0  0  0  0  0
    5.7555    4.4203   10.8273 C   0  0  0  0  0  0  0  0  0  0  0  0
    5.2423    3.5009    9.7229 C   0  0  0  0  0  0  0  0  0  0  0  0
    6.4839    4.2587    9.5304 C   0  0  0  0  0  0  0  0  0  0  0  0
    4.0776    0.5476   21.5581 N   0  0  0  0  0  0  0  0  0  0  0  0
    4.4764   -0.4066   21.6368 H   0  0  0  0  0  0  0  0  0  0  0  0
    3.5541    1.2510   22.6717 C   0  0  0  0  0  0  0  0  0  0  0  0
    4.5784    1.8272   23.5834 C   0  0  0  0  0  0  0  0  0  0  0  0
    3.4840    4.0771   23.1630 C   0  0  0  0  0  0  0  0  0  0  0  0
    4.7111    3.3029   23.5012 C   0  0  0  0  0  0  0  0  0  0  0  0
    5.2857    4.1318   18.6126 N   0  0  0  0  0  0  0  0  0  0  0  0
    5.7224    4.5114   17.7793 H   0  0  0  0  0  0  0  0  0  0  0  0
    5.2657    5.0431   19.7650 C   0  0  0  0  0  0  0  0  0  0  0  0
    3.9464    5.7309   19.8095 C   0  0  0  0  0  0  0  0  0  0  0  0
    4.1802    7.2299   19.5843 C   0  0  0  0  0  0  0  0  0  0  0  0
    5.0860    7.7583   20.6563 C   0  0  0  0  0  0  0  0  0  0  0  0
    4.3836    7.7791   21.8749 O   0  0  0  0  0  0  0  0  0  0  0  0
    6.3261    6.9169   20.8653 C   0  0  0  0  0  0  0  0  0  0  0  0
    6.4439    5.9513   19.6925 C   0  0  0  0  0  0  0  0  0  0  0  0
    3.6500    8.4737   21.8329 H   0  0  0  0  0  0  0  0  0  0  0  0
 24 25  1  0  0  0
 25 23  1  0  0  0
 23 22  1  0  0  0
 22 20  1  0  0  0
 20  1  1  0  0  0
  1  2  2  0  0  0
  2  3  1  0  0  0
  3  4  2  0  0  0
  4  5  1  0  0  0
  5 26  1  0  0  0
 26 28  1  0  0  0
 28 29  1  0  0  0
 29 30  1  0  0  0
 30 31  1  0  0  0
 31 32  1  0  0  0
 31 33  1  0  0  0
 33 34  1  0  0  0
  5  6  2  0  0  0
  4  7  1  0  0  0
  7  8  2  0  0  0
  8  9  1  0  0  0
  9 10  2  0  0  0
 10 13  1  0  0  0
 13 14  1  0  0  0
 14 16  1  0  0  0
 16 17  1  0  0  0
 17 18  1  0  0  0
 18 19  1  0  0  0
 10 11  1  0  0  0
 11 12  2  0  0  0
  6  1  1  0  0  0
 12  7  1  0  0  0
 34 28  1  0  0  0
 19 17  1  0  0  0
 20 21  1  0  0  0
 26 27  1  0  0  0
 32 35  1  0  0  0
 14 15  1  0  0  0
M  END
> <minimizedAffinity>
-7.70391

> <CNNscore>
0.4080604613

> <CNNaffinity>
6.7958846092

> <CNN_VS>
2.7731318474

> <CNNaffinity_variance>
0.5525649786

$$$$
[H]OC1([H])C([H])([H])C([H])([H])C([H])(N([H])c2nc(N([H])C([H])([H])C([H])([H])C([H])([H])C([H])([H])[H])nc([H])c2-c2nc([H])c(C([H])([H])N([H])C([H])([H])C3([H])C([H])([H])C3([H])[H])c([H])c2[H])C([H])([H])C1([H])[H]


 35 38  0  0  0  0  0  0  0  0999 V2000
    2.0266    2.6057   13.9103 C   0  0  0  0  0  0  0  0  0  0  0  0
    1.8755    2.0515   15.1206 N   0  0  0  0  0  0  0  0  0  0  0  0
    2.3832    2.5523   16.2374 C   0  0  0  0  0  0  0  0  0  0  0  0
    3.1406    3.7492   16.1948 C   0  0  0  0  0  0  0  0  0  0  0  0
    3.2806    4.2859   14.9557 C   0  0  0  0  0  0  0  0  0  0  0  0
    2.7322    3.7240   13.8421 N   0  0  0  0  0  0  0  0  0  0  0  0
    3.6872    4.2497   17.4533 C   0  0  0  0  0  0  0  0  0  0  0  0
    4.8365    3.8833   18.0554 C   0  0  0  0  0  0  0  0  0  0  0  0
    5.2720    4.5039   19.2117 C   0  0  0  0  0  0  0  0  0  0  0  0
    4.5420    5.5191   19.7817 C   0  0  0  0  0  0  0  0  0  0  0  0
    3.3750    5.8633   19.1324 C   0  0  0  0  0  0  0  0  0  0  0  0
    2.9746    5.2606   18.0321 N   0  0  0  0  0  0  0  0  0  0  0  0
    4.9958    6.1923   21.0217 C   0  0  0  0  0  0  0  0  0  0  0  0
    3.9196    6.0996   21.9835 N   0  0  0  0  0  0  0  0  0  0  0  0
    4.0783    6.6612   22.8248 H   0  0  0  0  0  0  0  0  0  0  0  0
    3.6972    4.7193   22.3355 C   0  0  0  0  0  0  0  0  0  0  0  0
    4.8613    4.1631   23.0858 C   0  0  0  0  0  0  0  0  0  0  0  0
    4.5658    2.8426   23.7909 C   0  0  0  0  0  0  0  0  0  0  0  0
    5.4926    2.8773   22.6540 C   0  0  0  0  0  0  0  0  0  0  0  0
    1.4539    2.0017   12.7432 N   0  0  0  0  0  0  0  0  0  0  0  0
    0.7296    1.2727   12.8832 H   0  0  0  0  0  0  0  0  0  0  0  0
    1.9003    2.3982   11.4577 C   0  0  0  0  0  0  0  0  0  0  0  0
    2.9841    1.5550   10.8860 C   0  0  0  0  0  0  0  0  0  0  0  0
    3.5922   -0.0812    9.0450 C   0  0  0  0  0  0  0  0  0  0  0  0
    2.5343    0.6087    9.8352 C   0  0  0  0  0  0  0  0  0  0  0  0
    4.1288    5.4296   14.7623 N   0  0  0  0  0  0  0  0  0  0  0  0
    5.0907    5.4382   14.4402 H   0  0  0  0  0  0  0  0  0  0  0  0
    3.5473    6.7586   14.9959 C   0  0  0  0  0  0  0  0  0  0  0  0
    3.1741    7.3559   13.6846 C   0  0  0  0  0  0  0  0  0  0  0  0
    4.0395    8.6024   13.4626 C   0  0  0  0  0  0  0  0  0  0  0  0
    3.7980    9.5797   14.5743 C   0  0  0  0  0  0  0  0  0  0  0  0
    2.5083   10.1224   14.4295 O   0  0  0  0  0  0  0  0  0  0  0  0
    3.8725    8.9560   15.9509 C   0  0  0  0  0  0  0  0  0  0  0  0
    4.4941    7.5721   15.8084 C   0  0  0  0  0  0  0  0  0  0  0  0
    2.4746   10.7038   13.6030 H   0  0  0  0  0  0  0  0  0  0  0  0
 24 25  1  0  0  0
 25 23  1  0  0  0
 23 22  1  0  0  0
 22 20  1  0  0  0
 20  1  1  0  0  0
  1  2  2  0  0  0
  2  3  1  0  0  0
  3  4  2  0  0  0
  4  5  1  0  0  0
  5 26  1  0  0  0
 26 28  1  0  0  0
 28 29  1  0  0  0
 29 30  1  0  0  0
 30 31  1  0  0  0
 31 32  1  0  0  0
 31 33  1  0  0  0
 33 34  1  0  0  0
  5  6  2  0  0  0
  4  7  1  0  0  0
  7  8  2  0  0  0
  8  9  1  0  0  0
  9 10  2  0  0  0
 10 13  1  0  0  0
 13 14  1  0  0  0
 14 16  1  0  0  0
 16 17  1  0  0  0
 17 18  1  0  0  0
 18 19  1  0  0  0
 10 11  1  0  0  0
 11 12  2  0  0  0
  6  1  1  0  0  0
 12  7  1  0  0  0
 34 28  1  0  0  0
 19 17  1  0  0  0
 20 21  1  0  0  0
 26 27  1  0  0  0
 32 35  1  0  0  0
 14 15  1  0  0  0
M  END
> <minimizedAffinity>
-6.93018

> <CNNscore>
0.3675622940

> <CNNaffinity>
6.6235761642

> <CNN_VS>
2.4345767498

> <CNNaffinity_variance>
0.2798877060

$$$$
[H]OC1([H])C([H])([H])C([H])([H])C([H])(N([H])c2nc(N([H])C([H])([H])C([H])([H])C([H])([H])C([H])([H])[H])nc([H])c2-c2nc([H])c(C([H])([H])N([H])C([H])([H])C3([H])C([H])([H])C3([H])[H])c([H])c2[H])C([H])([H])C1([H])[H]


 35 38  0  0  0  0  0  0  0  0999 V2000
    4.4255    1.3465   20.5053 C   0  0  0  0  0  0  0  0  0  0  0  0
    3.5989    0.5906   19.7703 N   0  0  0  0  0  0  0  0  0  0  0  0
    3.2195    0.8864   18.5356 C   0  0  0  0  0  0  0  0  0  0  0  0
    3.6947    2.0680   17.9143 C   0  0  0  0  0  0  0  0  0  0  0  0
    4.5266    2.8159   18.6835 C   0  0  0  0  0  0  0  0  0  0  0  0
    4.8824    2.4578   19.9491 N   0  0  0  0  0  0  0  0  0  0  0  0
    3.2346    2.3516   16.5575 C   0  0  0  0  0  0  0  0  0  0  0  0
    3.1144    1.4860   15.5310 C   0  0  0  0  0  0  0  0  0  0  0  0
    2.5850    1.8804   14.3160 C   0  0  0  0  0  0  0  0  0  0  0  0
    2.1624    3.1733   14.1206 C   0  0  0  0  0  0  0  0  0  0  0  0
    2.3016    4.0245   15.1967 C   0  0  0  0  0  0  0  0  0  0  0  0
    2.8091    3.6320   16.3468 N   0  0  0  0  0  0  0  0  0  0  0  0
    1.5944    3.6106   12.8233 C   0  0  0  0  0  0  0  0  0  0  0  0
    0.1688    3.3719   12.8722 N   0  0  0  0  0  0  0  0  0  0  0  0
   -0.1127    2.5018   12.4115 H   0  0  0  0  0  0  0  0  0  0  0  0
   -0.5337    4.4932   12.2997 C   0  0  0  0  0  0  0  0  0  0  0  0
   -0.3725    5.7140   13.1428 C   0  0  0  0  0  0  0  0  0  0  0  0
   -0.3152    7.0121   12.3429 C   0  0  0  0  0  0  0  0  0  0  0  0
   -1.4651    6.7338   13.2107 C   0  0  0  0  0  0  0  0  0  0  0  0
    4.7863    0.9661   21.8395 N   0  0  0  0  0  0  0  0  0  0  0  0
    5.6069    0.3431   21.9584 H   0  0  0  0  0  0  0  0  0  0  0  0
    4.0135    1.4289   22.9338 C   0  0  0  0  0  0  0  0  0  0  0  0
    4.5667    2.6226   23.6276 C   0  0  0  0  0  0  0  0  0  0  0  0
    4.5119    5.0372   22.8509 C   0  0  0  0  0  0  0  0  0  0  0  0
    3.7862    3.8677   23.4212 C   0  0  0  0  0  0  0  0  0  0  0  0
    4.9767    4.0974   18.2144 N   0  0  0  0  0  0  0  0  0  0  0  0
    5.2185    4.3577   17.2642 H   0  0  0  0  0  0  0  0  0  0  0  0
    5.0522    5.1939   19.1897 C   0  0  0  0  0  0  0  0  0  0  0  0
    3.7069    5.8185   19.3139 C   0  0  0  0  0  0  0  0  0  0  0  0
    3.8020    7.2642   18.8108 C   0  0  0  0  0  0  0  0  0  0  0  0
    4.8079    8.0120   19.6343 C   0  0  0  0  0  0  0  0  0  0  0  0
    4.2806    8.2132   20.9228 O   0  0  0  0  0  0  0  0  0  0  0  0
    6.1208    7.2768   19.7945 C   0  0  0  0  0  0  0  0  0  0  0  0
    6.1428    6.1279   18.7939 C   0  0  0  0  0  0  0  0  0  0  0  0
    3.5015    8.8559   20.8750 H   0  0  0  0  0  0  0  0  0  0  0  0
 24 25  1  0  0  0
 25 23  1  0  0  0
 23 22  1  0  0  0
 22 20  1  0  0  0
 20  1  1  0  0  0
  1  2  2  0  0  0
  2  3  1  0  0  0
  3  4  2  0  0  0
  4  5  1  0  0  0
  5 26  1  0  0  0
 26 28  1  0  0  0
 28 29  1  0  0  0
 29 30  1  0  0  0
 30 31  1  0  0  0
 31 32  1  0  0  0
 31 33  1  0  0  0
 33 34  1  0  0  0
  5  6  2  0  0  0
  4  7  1  0  0  0
  7  8  2  0  0  0
  8  9  1  0  0  0
  9 10  2  0  0  0
 10 13  1  0  0  0
 13 14  1  0  0  0
 14 16  1  0  0  0
 16 17  1  0  0  0
 17 18  1  0  0  0
 18 19  1  0  0  0
 10 11  1  0  0  0
 11 12  2  0  0  0
  6  1  1  0  0  0
 12  7  1  0  0  0
 34 28  1  0  0  0
 19 17  1  0  0  0
 20 21  1  0  0  0
 26 27  1  0  0  0
 32 35  1  0  0  0
 14 15  1  0  0  0
M  END
> <minimizedAffinity>
-7.95492

> <CNNscore>
0.3652767539

> <CNNaffinity>
6.8750648499

> <CNN_VS>
2.5113012791

> <CNNaffinity_variance>
0.8159292936

$$$$
[H]OC1([H])C([H])([H])C([H])([H])C([H])(N([H])c2nc(N([H])C([H])([H])C([H])([H])C([H])([H])C([H])([H])[H])nc([H])c2-c2nc([H])c(C([H])([H])N([H])C([H])([H])C3([H])C([H])([H])C3([H])[H])c([H])c2[H])C([H])([H])C1([H])[H]


 35 38  0  0  0  0  0  0  0  0999 V2000
    5.1188    1.8173   20.6871 C   0  0  0  0  0  0  0  0  0  0  0  0
    4.3442    0.9431   20.0310 N   0  0  0  0  0  0  0  0  0  0  0  0
    3.8452    1.1520   18.8214 C   0  0  0  0  0  0  0  0  0  0  0  0
    4.1236    2.3638   18.1417 C   0  0  0  0  0  0  0  0  0  0  0  0
    4.9069    3.2319   18.8317 C   0  0  0  0  0  0  0  0  0  0  0  0
    5.3926    2.9591   20.0752 N   0  0  0  0  0  0  0  0  0  0  0  0
    3.5377    2.5470   16.8165 C   0  0  0  0  0  0  0  0  0  0  0  0
    3.4077    1.6272   15.8394 C   0  0  0  0  0  0  0  0  0  0  0  0
    2.7552    1.9221   14.6566 C   0  0  0  0  0  0  0  0  0  0  0  0
    2.2159    3.1680   14.4436 C   0  0  0  0  0  0  0  0  0  0  0  0
    2.3698    4.0772   15.4692 C   0  0  0  0  0  0  0  0  0  0  0  0
    2.9955    3.7795   16.5892 N   0  0  0  0  0  0  0  0  0  0  0  0
    1.5152    3.4987   13.1802 C   0  0  0  0  0  0  0  0  0  0  0  0
    2.3459    4.4360   12.4568 N   0  0  0  0  0  0  0  0  0  0  0  0
    1.8141    5.0573   11.8406 H   0  0  0  0  0  0  0  0  0  0  0  0
    3.3480    3.7215   11.7060 C   0  0  0  0  0  0  0  0  0  0  0  0
    2.7251    2.8992   10.6275 C   0  0  0  0  0  0  0  0  0  0  0  0
    3.7355    2.2478    9.6879 C   0  0  0  0  0  0  0  0  0  0  0  0
    2.9324    1.4179   10.5930 C   0  0  0  0  0  0  0  0  0  0  0  0
    5.6170    1.5252   21.9991 N   0  0  0  0  0  0  0  0  0  0  0  0
    5.8451    0.5378   22.2199 H   0  0  0  0  0  0  0  0  0  0  0  0
    5.7620    2.5723   22.9433 C   0  0  0  0  0  0  0  0  0  0  0  0
    4.5913    2.7712   23.8391 C   0  0  0  0  0  0  0  0  0  0  0  0
    4.4543    5.0827   22.8027 C   0  0  0  0  0  0  0  0  0  0  0  0
    3.7754    3.9699   23.5240 C   0  0  0  0  0  0  0  0  0  0  0  0
    5.1586    4.5443   18.3036 N   0  0  0  0  0  0  0  0  0  0  0  0
    5.2930    4.8043   17.3322 H   0  0  0  0  0  0  0  0  0  0  0  0
    5.1732    5.6697   19.2483 C   0  0  0  0  0  0  0  0  0  0  0  0
    3.7956    6.2230   19.3561 C   0  0  0  0  0  0  0  0  0  0  0  0
    3.8120    7.6574   18.8134 C   0  0  0  0  0  0  0  0  0  0  0  0
    4.7747    8.4813   19.6155 C   0  0  0  0  0  0  0  0  0  0  0  0
    4.2359    8.6887   20.8982 O   0  0  0  0  0  0  0  0  0  0  0  0
    6.1256    7.8237   19.7950 C   0  0  0  0  0  0  0  0  0  0  0  0
    6.2114    6.6507   18.8264 C   0  0  0  0  0  0  0  0  0  0  0  0
    3.4229    9.2863   20.8332 H   0  0  0  0  0  0  0  0  0  0  0  0
 24 25  1  0  0  0
 25 23  1  0  0  0
 23 22  1  0  0  0
 22 20  1  0  0  0
 20  1  1  0  0  0
  1  2  2  0  0  0
  2  3  1  0  0  0
  3  4  2  0  0  0
  4  5  1  0  0  0
  5 26  1  0  0  0
 26 28  1  0  0  0
 28 29  1  0  0  0
 29 30  1  0  0  0
 30 31  1  0  0  0
 31 32  1  0  0  0
 31 33  1  0  0  0
 33 34  1  0  0  0
  5  6  2  0  0  0
  4  7  1  0  0  0
  7  8  2  0  0  0
  8  9  1  0  0  0
  9 10  2  0  0  0
 10 13  1  0  0  0
 13 14  1  0  0  0
 14 16  1  0  0  0
 16 17  1  0  0  0
 17 18  1  0  0  0
 18 19  1  0  0  0
 10 11  1  0  0  0
 11 12  2  0  0  0
  6  1  1  0  0  0
 12  7  1  0  0  0
 34 28  1  0  0  0
 19 17  1  0  0  0
 20 21  1  0  0  0
 26 27  1  0  0  0
 32 35  1  0  0  0
 14 15  1  0  0  0
M  END
> <minimizedAffinity>
-7.58900

> <CNNscore>
0.3059014082

> <CNNaffinity>
6.7772989273

> <CNN_VS>
2.0731852055

> <CNNaffinity_variance>
0.6188620329

$$$$
[H]OC1([H])C([H])([H])C([H])([H])C([H])(N([H])c2nc(N([H])C([H])([H])C([H])([H])C([H])([H])C([H])([H])[H])nc([H])c2-c2nc([H])c(C([H])([H])N([H])C([H])([H])C3([H])C([H])([H])C3([H])[H])c([H])c2[H])C([H])([H])C1([H])[H]


 35 38  0  0  0  0  0  0  0  0999 V2000
    3.1101    2.3841   14.3843 C   0  0  0  0  0  0  0  0  0  0  0  0
    2.8108    1.7078   15.5013 N   0  0  0  0  0  0  0  0  0  0  0  0
    3.0791    2.1368   16.7260 C   0  0  0  0  0  0  0  0  0  0  0  0
    3.7225    3.3855   16.9121 C   0  0  0  0  0  0  0  0  0  0  0  0
    4.0173    4.0464   15.7634 C   0  0  0  0  0  0  0  0  0  0  0  0
    3.7140    3.5534   14.5300 N   0  0  0  0  0  0  0  0  0  0  0  0
    4.0057    3.8038   18.2825 C   0  0  0  0  0  0  0  0  0  0  0  0
    4.9933    3.3665   19.0894 C   0  0  0  0  0  0  0  0  0  0  0  0
    5.1924    3.9137   20.3436 C   0  0  0  0  0  0  0  0  0  0  0  0
    4.3854    4.9260   20.8044 C   0  0  0  0  0  0  0  0  0  0  0  0
    3.3897    5.3439   19.9466 C   0  0  0  0  0  0  0  0  0  0  0  0
    3.2137    4.8106   18.7554 N   0  0  0  0  0  0  0  0  0  0  0  0
    4.5861    5.5208   22.1470 C   0  0  0  0  0  0  0  0  0  0  0  0
    4.3662    6.9453   22.0268 N   0  0  0  0  0  0  0  0  0  0  0  0
    3.6871    7.1909   21.3009 H   0  0  0  0  0  0  0  0  0  0  0  0
    5.6208    7.6143   21.7878 C   0  0  0  0  0  0  0  0  0  0  0  0
    5.4128    9.0713   21.5402 C   0  0  0  0  0  0  0  0  0  0  0  0
    6.0511    9.5741   20.2487 C   0  0  0  0  0  0  0  0  0  0  0  0
    4.5903    9.5292   20.3774 C   0  0  0  0  0  0  0  0  0  0  0  0
    2.7955    1.8525   13.0907 N   0  0  0  0  0  0  0  0  0  0  0  0
    2.9946    0.8491   12.9199 H   0  0  0  0  0  0  0  0  0  0  0  0
    2.2496    2.7031   12.0970 C   0  0  0  0  0  0  0  0  0  0  0  0
    0.8257    3.0769   12.3092 C   0  0  0  0  0  0  0  0  0  0  0  0
    0.7599    5.3929   13.3427 C   0  0  0  0  0  0  0  0  0  0  0  0
    0.5424    4.5249   12.1516 C   0  0  0  0  0  0  0  0  0  0  0  0
    4.7797    5.2635   15.8130 N   0  0  0  0  0  0  0  0  0  0  0  0
    5.7831    5.3689   15.7074 H   0  0  0  0  0  0  0  0  0  0  0  0
    4.0436    6.5244   15.9785 C   0  0  0  0  0  0  0  0  0  0  0  0
    3.7354    7.0799   14.6323 C   0  0  0  0  0  0  0  0  0  0  0  0
    4.4835    8.4102   14.4807 C   0  0  0  0  0  0  0  0  0  0  0  0
    4.0378    9.3564   15.5555 C   0  0  0  0  0  0  0  0  0  0  0  0
    2.7180    9.7613   15.2854 O   0  0  0  0  0  0  0  0  0  0  0  0
    4.0468    8.7433   16.9389 C   0  0  0  0  0  0  0  0  0  0  0  0
    4.8198    7.4321   16.8684 C   0  0  0  0  0  0  0  0  0  0  0  0
    2.7020   10.3363   14.4539 H   0  0  0  0  0  0  0  0  0  0  0  0
 24 25  1  0  0  0
 25 23  1  0  0  0
 23 22  1  0  0  0
 22 20  1  0  0  0
 20  1  1  0  0  0
  1  2  2  0  0  0
  2  3  1  0  0  0
  3  4  2  0  0  0
  4  5  1  0  0  0
  5 26  1  0  0  0
 26 28  1  0  0  0
 28 29  1  0  0  0
 29 30  1  0  0  0
 30 31  1  0  0  0
 31 32  1  0  0  0
 31 33  1  0  0  0
 33 34  1  0  0  0
  5  6  2  0  0  0
  4  7  1  0  0  0
  7  8  2  0  0  0
  8  9  1  0  0  0
  9 10  2  0  0  0
 10 13  1  0  0  0
 13 14  1  0  0  0
 14 16  1  0  0  0
 16 17  1  0  0  0
 17 18  1  0  0  0
 18 19  1  0  0  0
 10 11  1  0  0  0
 11 12  2  0  0  0
  6  1  1  0  0  0
 12  7  1  0  0  0
 34 28  1  0  0  0
 19 17  1  0  0  0
 20 21  1  0  0  0
 26 27  1  0  0  0
 32 35  1  0  0  0
 14 15  1  0  0  0
M  END
> <minimizedAffinity>
-7.12369

> <CNNscore>
0.3034366071

> <CNNaffinity>
6.2611002922

> <CNN_VS>
1.8998470306

> <CNNaffinity_variance>
0.2316625863

$$$$
[H]O[C@]1([H])C([H])([H])C([H])([H])[C@@]([H])(N([H])c2nc(N([H])C([H])([H])C([H])([H])C([H])([H])C([H])([H])[H])nc([H])c2C(=O)N([H])C([H])([H])c2c([H])c([H])c([H])c(OC([H])([H])[H])c2[H])C([H])([H])C1([H])[H]


 35 37  0  0  0  0  0  0  0  0999 V2000
    3.0599    0.2200   18.6098 C   0  0  0  0  0  0  0  0  0  0  0  0
    2.4922   -0.0539   17.4369 N   0  0  0  0  0  0  0  0  0  0  0  0
    2.4328    0.8239   16.4207 C   0  0  0  0  0  0  0  0  0  0  0  0
    2.9853    2.0980   16.5697 C   0  0  0  0  0  0  0  0  0  0  0  0
    3.5663    2.3686   17.7789 C   0  0  0  0  0  0  0  0  0  0  0  0
    3.5912    1.4253   18.7723 N   0  0  0  0  0  0  0  0  0  0  0  0
    2.9279    3.0558   15.5128 C   0  0  0  0  0  0  0  0  0  0  0  0
    2.3766    4.1594   15.6221 O   0  0  0  0  0  0  0  0  0  0  0  0
    3.5175    2.7777   14.2511 N   0  0  0  0  0  0  0  0  0  0  0  0
    3.9963    1.8893   14.0837 H   0  0  0  0  0  0  0  0  0  0  0  0
    3.4534    3.7534   13.1839 C   0  0  0  0  0  0  0  0  0  0  0  0
    2.4330    3.3542   12.2038 C   0  0  0  0  0  0  0  0  0  0  0  0
    1.8100    4.3511   11.4755 C   0  0  0  0  0  0  0  0  0  0  0  0
    0.8437    4.0760   10.5444 C   0  0  0  0  0  0  0  0  0  0  0  0
    0.4625    2.7672   10.3081 C   0  0  0  0  0  0  0  0  0  0  0  0
    1.0633    1.7563   11.0161 C   0  0  0  0  0  0  0  0  0  0  0  0
    2.0261    2.0663   11.9400 C   0  0  0  0  0  0  0  0  0  0  0  0
    0.6848    0.4542   10.7819 O   0  0  0  0  0  0  0  0  0  0  0  0
   -0.1024    0.0978    9.6662 C   0  0  0  0  0  0  0  0  0  0  0  0
    3.0999   -0.7228   19.6687 N   0  0  0  0  0  0  0  0  0  0  0  0
    3.1278   -1.7468   19.3682 H   0  0  0  0  0  0  0  0  0  0  0  0
    3.1049   -0.4028   21.0674 C   0  0  0  0  0  0  0  0  0  0  0  0
    3.3387    1.0615   21.3464 C   0  0  0  0  0  0  0  0  0  0  0  0
    5.8303    0.8590   21.3200 C   0  0  0  0  0  0  0  0  0  0  0  0
    4.6325    1.2462   22.1454 C   0  0  0  0  0  0  0  0  0  0  0  0
    4.1991    3.5928   18.1068 N   0  0  0  0  0  0  0  0  0  0  0  0
    4.6970    4.2277   17.4681 H   0  0  0  0  0  0  0  0  0  0  0  0
    4.1811    4.0636   19.5060 C   0  0  0  0  0  0  0  0  0  0  0  0
    5.5909    4.2525   19.9522 C   0  0  0  0  0  0  0  0  0  0  0  0
    5.7156    5.0732   21.2160 C   0  0  0  0  0  0  0  0  0  0  0  0
    4.9480    6.3769   21.1053 C   0  0  0  0  0  0  0  0  0  0  0  0
    3.8331    6.3664   21.9434 O   0  0  0  0  0  0  0  0  0  0  0  0
    4.4586    6.4887   19.6838 C   0  0  0  0  0  0  0  0  0  0  0  0
    3.4120    5.3842   19.4832 C   0  0  0  0  0  0  0  0  0  0  0  0
    3.8754    7.2014   22.5127 H   0  0  0  0  0  0  0  0  0  0  0  0
 24 25  1  0  0  0
 25 23  1  0  0  0
 23 22  1  0  0  0
 22 20  1  0  0  0
 20  1  1  0  0  0
  1  2  2  0  0  0
  2  3  1  0  0  0
  3  4  2  0  0  0
  4  7  1  0  0  0
  7  8  2  0  0  0
  7  9  1  0  0  0
  9 11  1  0  0  0
 11 12  1  0  0  0
 12 13  2  0  0  0
 13 14  1  0  0  0
 14 15  2  0  0  0
 15 16  1  0  0  0
 16 18  1  0  0  0
 18 19  1  0  0  0
 16 17  2  0  0  0
  4  5  1  0  0  0
  5 26  1  0  0  0
 26 28  1  0  0  0
 28 29  1  0  0  0
 29 30  1  0  0  0
 30 31  1  0  0  0
 31 32  1  0  0  0
 31 33  1  0  0  0
 33 34  1  0  0  0
  5  6  2  0  0  0
  6  1  1  0  0  0
 17 12  1  0  0  0
 34 28  1  0  0  0
 20 21  1  0  0  0
  9 10  1  0  0  0
 26 27  1  0  0  0
 32 35  1  0  0  0
M  END
> <minimizedAffinity>
-7.18858

> <CNNscore>
0.9490795732

> <CNNaffinity>
7.0907125473

> <CNN_VS>
6.7296504974

> <CNNaffinity_variance>
0.0627665147

$$$$
[H]O[C@]1([H])C([H])([H])C([H])([H])[C@@]([H])(N([H])c2nc(N([H])C([H])([H])C([H])([H])C([H])([H])C([H])([H])[H])nc([H])c2C(=O)N([H])C([H])([H])c2c([H])c([H])c([H])c(OC([H])([H])[H])c2[H])C([H])([H])C1([H])[H]


 35 37  0  0  0  0  0  0  0  0999 V2000
    2.9256    0.3192   18.5630 C   0  0  0  0  0  0  0  0  0  0  0  0
    2.5780   -0.1077   17.3506 N   0  0  0  0  0  0  0  0  0  0  0  0
    2.6924    0.6425   16.2411 C   0  0  0  0  0  0  0  0  0  0  0  0
    3.1983    1.9413   16.3295 C   0  0  0  0  0  0  0  0  0  0  0  0
    3.5527    2.3695   17.5800 C   0  0  0  0  0  0  0  0  0  0  0  0
    3.4088    1.5507   18.6692 N   0  0  0  0  0  0  0  0  0  0  0  0
    3.3213    2.7661   15.1709 C   0  0  0  0  0  0  0  0  0  0  0  0
    4.2335    3.5889   15.0135 O   0  0  0  0  0  0  0  0  0  0  0  0
    2.3747    2.6779   14.1159 N   0  0  0  0  0  0  0  0  0  0  0  0
    1.5947    2.0182   14.1689 H   0  0  0  0  0  0  0  0  0  0  0  0
    2.5053    3.5192   12.9452 C   0  0  0  0  0  0  0  0  0  0  0  0
    1.6138    4.6818   13.0646 C   0  0  0  0  0  0  0  0  0  0  0  0
    0.2855    4.5175   12.7164 C   0  0  0  0  0  0  0  0  0  0  0  0
   -0.6181    5.5444   12.7895 C   0  0  0  0  0  0  0  0  0  0  0  0
   -0.2122    6.7943   13.2223 C   0  0  0  0  0  0  0  0  0  0  0  0
    1.1003    6.9875   13.5745 C   0  0  0  0  0  0  0  0  0  0  0  0
    1.9779    5.9391   13.4895 C   0  0  0  0  0  0  0  0  0  0  0  0
    1.5050    8.2303   14.0050 O   0  0  0  0  0  0  0  0  0  0  0  0
    2.7285    8.7988   13.5912 C   0  0  0  0  0  0  0  0  0  0  0  0
    2.7851   -0.4911   19.7186 N   0  0  0  0  0  0  0  0  0  0  0  0
    2.0299   -1.2434   19.6604 H   0  0  0  0  0  0  0  0  0  0  0  0
    3.5629   -0.3707   20.9183 C   0  0  0  0  0  0  0  0  0  0  0  0
    2.9867    0.6093   21.9104 C   0  0  0  0  0  0  0  0  0  0  0  0
    5.3566    1.3750   21.6928 C   0  0  0  0  0  0  0  0  0  0  0  0
    3.9755    1.7529   22.1572 C   0  0  0  0  0  0  0  0  0  0  0  0
    4.1061    3.6423   17.8633 N   0  0  0  0  0  0  0  0  0  0  0  0
    4.4724    4.3269   17.1880 H   0  0  0  0  0  0  0  0  0  0  0  0
    4.2002    4.0935   19.2659 C   0  0  0  0  0  0  0  0  0  0  0  0
    5.6131    4.4852   19.5355 C   0  0  0  0  0  0  0  0  0  0  0  0
    5.7787    5.3049   20.7954 C   0  0  0  0  0  0  0  0  0  0  0  0
    4.8217    6.4815   20.8180 C   0  0  0  0  0  0  0  0  0  0  0  0
    3.8376    6.2991   21.7896 O   0  0  0  0  0  0  0  0  0  0  0  0
    4.1421    6.5315   19.4733 C   0  0  0  0  0  0  0  0  0  0  0  0
    3.2505    5.2860   19.3763 C   0  0  0  0  0  0  0  0  0  0  0  0
    3.8308    7.1265   22.3715 H   0  0  0  0  0  0  0  0  0  0  0  0
 24 25  1  0  0  0
 25 23  1  0  0  0
 23 22  1  0  0  0
 22 20  1  0  0  0
 20  1  1  0  0  0
  1  2  2  0  0  0
  2  3  1  0  0  0
  3  4  2  0  0  0
  4  7  1  0  0  0
  7  8  2  0  0  0
  7  9  1  0  0  0
  9 11  1  0  0  0
 11 12  1  0  0  0
 12 13  2  0  0  0
 13 14  1  0  0  0
 14 15  2  0  0  0
 15 16  1  0  0  0
 16 18  1  0  0  0
 18 19  1  0  0  0
 16 17  2  0  0  0
  4  5  1  0  0  0
  5 26  1  0  0  0
 26 28  1  0  0  0
 28 29  1  0  0  0
 29 30  1  0  0  0
 30 31  1  0  0  0
 31 32  1  0  0  0
 31 33  1  0  0  0
 33 34  1  0  0  0
  5  6  2  0  0  0
  6  1  1  0  0  0
 17 12  1  0  0  0
 34 28  1  0  0  0
 20 21  1  0  0  0
  9 10  1  0  0  0
 26 27  1  0  0  0
 32 35  1  0  0  0
M  END
> <minimizedAffinity>
-7.83511

> <CNNscore>
0.9049273133

> <CNNaffinity>
7.0992202759

> <CNN_VS>
6.4242782593

> <CNNaffinity_variance>
0.1975035369

$$$$
[H]O[C@]1([H])C([H])([H])C([H])([H])[C@@]([H])(N([H])c2nc(N([H])C([H])([H])C([H])([H])C([H])([H])C([H])([H])[H])nc([H])c2C(=O)N([H])C([H])([H])c2c([H])c([H])c([H])c(OC([H])([H])[H])c2[H])C([H])([H])C1([H])[H]


 35 37  0  0  0  0  0  0  0  0999 V2000
    2.8987    0.3127   18.2541 C   0  0  0  0  0  0  0  0  0  0  0  0
    2.4912   -0.0276   17.0330 N   0  0  0  0  0  0  0  0  0  0  0  0
    2.5121    0.8138   15.9849 C   0  0  0  0  0  0  0  0  0  0  0  0
    2.9792    2.1194   16.1510 C   0  0  0  0  0  0  0  0  0  0  0  0
    3.3957    2.4582   17.4098 C   0  0  0  0  0  0  0  0  0  0  0  0
    3.3465    1.5490   18.4337 N   0  0  0  0  0  0  0  0  0  0  0  0
    3.0031    3.0395   15.0597 C   0  0  0  0  0  0  0  0  0  0  0  0
    3.9257    3.8424   14.8651 O   0  0  0  0  0  0  0  0  0  0  0  0
    1.9381    3.0766   14.1210 N   0  0  0  0  0  0  0  0  0  0  0  0
    1.1417    2.4410   14.2105 H   0  0  0  0  0  0  0  0  0  0  0  0
    1.9689    4.0138   13.0183 C   0  0  0  0  0  0  0  0  0  0  0  0
    0.7567    4.8451   13.0363 C   0  0  0  0  0  0  0  0  0  0  0  0
    0.7586    5.9754   13.8332 C   0  0  0  0  0  0  0  0  0  0  0  0
   -0.3263    6.8073   13.9184 C   0  0  0  0  0  0  0  0  0  0  0  0
   -1.4714    6.5282   13.1937 C   0  0  0  0  0  0  0  0  0  0  0  0
   -1.5028    5.4130   12.3941 C   0  0  0  0  0  0  0  0  0  0  0  0
   -0.4004    4.6022   12.3319 C   0  0  0  0  0  0  0  0  0  0  0  0
   -2.6412    5.1345   11.6730 O   0  0  0  0  0  0  0  0  0  0  0  0
   -3.8278    5.8801   11.8390 C   0  0  0  0  0  0  0  0  0  0  0  0
    2.8566   -0.5933   19.3447 N   0  0  0  0  0  0  0  0  0  0  0  0
    2.8582   -1.6275   19.0802 H   0  0  0  0  0  0  0  0  0  0  0  0
    2.8133   -0.2247   20.7307 C   0  0  0  0  0  0  0  0  0  0  0  0
    4.1618   -0.2715   21.4059 C   0  0  0  0  0  0  0  0  0  0  0  0
    6.1713    1.2156   21.3896 C   0  0  0  0  0  0  0  0  0  0  0  0
    4.6873    1.1492   21.6335 C   0  0  0  0  0  0  0  0  0  0  0  0
    3.9232    3.7240   17.7649 N   0  0  0  0  0  0  0  0  0  0  0  0
    4.2686    4.4558   17.1292 H   0  0  0  0  0  0  0  0  0  0  0  0
    4.0188    4.0929   19.1912 C   0  0  0  0  0  0  0  0  0  0  0  0
    5.4529    4.3428   19.5127 C   0  0  0  0  0  0  0  0  0  0  0  0
    5.6559    5.0790   20.8178 C   0  0  0  0  0  0  0  0  0  0  0  0
    4.8056    6.3335   20.8818 C   0  0  0  0  0  0  0  0  0  0  0  0
    3.7835    6.1902   21.8201 O   0  0  0  0  0  0  0  0  0  0  0  0
    4.1694    6.5125   19.5268 C   0  0  0  0  0  0  0  0  0  0  0  0
    3.1749    5.3579   19.3439 C   0  0  0  0  0  0  0  0  0  0  0  0
    3.8338    6.9840   22.4450 H   0  0  0  0  0  0  0  0  0  0  0  0
 24 25  1  0  0  0
 25 23  1  0  0  0
 23 22  1  0  0  0
 22 20  1  0  0  0
 20  1  1  0  0  0
  1  2  2  0  0  0
  2  3  1  0  0  0
  3  4  2  0  0  0
  4  7  1  0  0  0
  7  8  2  0  0  0
  7  9  1  0  0  0
  9 11  1  0  0  0
 11 12  1  0  0  0
 12 13  2  0  0  0
 13 14  1  0  0  0
 14 15  2  0  0  0
 15 16  1  0  0  0
 16 18  1  0  0  0
 18 19  1  0  0  0
 16 17  2  0  0  0
  4  5  1  0  0  0
  5 26  1  0  0  0
 26 28  1  0  0  0
 28 29  1  0  0  0
 29 30  1  0  0  0
 30 31  1  0  0  0
 31 32  1  0  0  0
 31 33  1  0  0  0
 33 34  1  0  0  0
  5  6  2  0  0  0
  6  1  1  0  0  0
 17 12  1  0  0  0
 34 28  1  0  0  0
 20 21  1  0  0  0
  9 10  1  0  0  0
 26 27  1  0  0  0
 32 35  1  0  0  0
M  END
> <minimizedAffinity>
-7.95020

> <CNNscore>
0.8983886242

> <CNNaffinity>
6.9775419235

> <CNN_VS>
6.2685441971

> <CNNaffinity_variance>
0.2374560833

$$$$
[H]O[C@]1([H])C([H])([H])C([H])([H])[C@@]([H])(N([H])c2nc(N([H])C([H])([H])C([H])([H])C([H])([H])C([H])([H])[H])nc([H])c2C(=O)N([H])C([H])([H])c2c([H])c([H])c([H])c(OC([H])([H])[H])c2[H])C([H])([H])C1([H])[H]


 35 37  0  0  0  0  0  0  0  0999 V2000
    3.8999    1.2571   21.7832 C   0  0  0  0  0  0  0  0  0  0  0  0
    3.1935    0.1858   21.4281 N   0  0  0  0  0  0  0  0  0  0  0  0
    2.8951   -0.1140   20.1522 C   0  0  0  0  0  0  0  0  0  0  0  0
    3.3334    0.7202   19.1214 C   0  0  0  0  0  0  0  0  0  0  0  0
    4.0587    1.8180   19.4978 C   0  0  0  0  0  0  0  0  0  0  0  0
    4.3262    2.0633   20.8190 N   0  0  0  0  0  0  0  0  0  0  0  0
    3.0229    0.4344   17.7577 C   0  0  0  0  0  0  0  0  0  0  0  0
    2.6444   -0.6769   17.3632 O   0  0  0  0  0  0  0  0  0  0  0  0
    3.1381    1.4413   16.7629 N   0  0  0  0  0  0  0  0  0  0  0  0
    3.4399    2.3868   17.0104 H   0  0  0  0  0  0  0  0  0  0  0  0
    2.8233    1.1429   15.3819 C   0  0  0  0  0  0  0  0  0  0  0  0
    2.3114    2.3489   14.7153 C   0  0  0  0  0  0  0  0  0  0  0  0
    1.4684    2.1814   13.6319 C   0  0  0  0  0  0  0  0  0  0  0  0
    0.9467    3.2453   12.9446 C   0  0  0  0  0  0  0  0  0  0  0  0
    1.2591    4.5375   13.3280 C   0  0  0  0  0  0  0  0  0  0  0  0
    2.0936    4.7350   14.3998 C   0  0  0  0  0  0  0  0  0  0  0  0
    2.5980    3.6488   15.0649 C   0  0  0  0  0  0  0  0  0  0  0  0
    2.4049    6.0198   14.7818 O   0  0  0  0  0  0  0  0  0  0  0  0
    3.5930    6.6539   14.3603 C   0  0  0  0  0  0  0  0  0  0  0  0
    4.1921    1.5544   23.1390 N   0  0  0  0  0  0  0  0  0  0  0  0
    4.0639    0.7445   23.8225 H   0  0  0  0  0  0  0  0  0  0  0  0
    4.6325    2.8267   23.6350 C   0  0  0  0  0  0  0  0  0  0  0  0
    3.5952    3.9142   23.5011 C   0  0  0  0  0  0  0  0  0  0  0  0
    5.6411    4.9095   22.4650 C   0  0  0  0  0  0  0  0  0  0  0  0
    4.1674    5.0944   22.7099 C   0  0  0  0  0  0  0  0  0  0  0  0
    4.6076    2.7623   18.5957 N   0  0  0  0  0  0  0  0  0  0  0  0
    4.9231    2.5925   17.6312 H   0  0  0  0  0  0  0  0  0  0  0  0
    4.7761    4.1633   19.0300 C   0  0  0  0  0  0  0  0  0  0  0  0
    5.5178    4.8955   17.9641 C   0  0  0  0  0  0  0  0  0  0  0  0
    5.4366    6.3993   18.1012 C   0  0  0  0  0  0  0  0  0  0  0  0
    4.0001    6.8630   18.2507 C   0  0  0  0  0  0  0  0  0  0  0  0
    3.7665    7.3390   19.5409 O   0  0  0  0  0  0  0  0  0  0  0  0
    3.1168    5.6609   18.0329 C   0  0  0  0  0  0  0  0  0  0  0  0
    3.3597    4.7082   19.2115 C   0  0  0  0  0  0  0  0  0  0  0  0
    3.3643    8.2630   19.4535 H   0  0  0  0  0  0  0  0  0  0  0  0
 24 25  1  0  0  0
 25 23  1  0  0  0
 23 22  1  0  0  0
 22 20  1  0  0  0
 20  1  1  0  0  0
  1  2  2  0  0  0
  2  3  1  0  0  0
  3  4  2  0  0  0
  4  7  1  0  0  0
  7  8  2  0  0  0
  7  9  1  0  0  0
  9 11  1  0  0  0
 11 12  1  0  0  0
 12 13  2  0  0  0
 13 14  1  0  0  0
 14 15  2  0  0  0
 15 16  1  0  0  0
 16 18  1  0  0  0
 18 19  1  0  0  0
 16 17  2  0  0  0
  4  5  1  0  0  0
  5 26  1  0  0  0
 26 28  1  0  0  0
 28 29  1  0  0  0
 29 30  1  0  0  0
 30 31  1  0  0  0
 31 32  1  0  0  0
 31 33  1  0  0  0
 33 34  1  0  0  0
  5  6  2  0  0  0
  6  1  1  0  0  0
 17 12  1  0  0  0
 34 28  1  0  0  0
 20 21  1  0  0  0
  9 10  1  0  0  0
 26 27  1  0  0  0
 32 35  1  0  0  0
M  END
> <minimizedAffinity>
-7.98658

> <CNNscore>
0.7665588260

> <CNNaffinity>
7.0762848854

> <CNN_VS>
5.4243884087

> <CNNaffinity_variance>
0.1169810295

$$$$
[H]O[C@]1([H])C([H])([H])C([H])([H])[C@@]([H])(N([H])c2nc(N([H])C([H])([H])C([H])([H])C([H])([H])C([H])([H])[H])nc([H])c2C(=O)N([H])C([H])([H])c2c([H])c([H])c([H])c(OC([H])([H])[H])c2[H])C([H])([H])C1([H])[H]


 35 37  0  0  0  0  0  0  0  0999 V2000
    3.7056    1.1046   19.1220 C   0  0  0  0  0  0  0  0  0  0  0  0
    3.0955    0.5712   18.0655 N   0  0  0  0  0  0  0  0  0  0  0  0
    2.9067    1.2304   16.9094 C   0  0  0  0  0  0  0  0  0  0  0  0
    3.3617    2.5441   16.7760 C   0  0  0  0  0  0  0  0  0  0  0  0
    3.9873    3.0821   17.8677 C   0  0  0  0  0  0  0  0  0  0  0  0
    4.1457    2.3522   19.0164 N   0  0  0  0  0  0  0  0  0  0  0  0
    3.1660    3.2738   15.5648 C   0  0  0  0  0  0  0  0  0  0  0  0
    3.7373    2.9960   14.5017 O   0  0  0  0  0  0  0  0  0  0  0  0
    2.2816    4.3842   15.5236 N   0  0  0  0  0  0  0  0  0  0  0  0
    1.7683    4.6733   16.3598 H   0  0  0  0  0  0  0  0  0  0  0  0
    2.0901    5.1202   14.2920 C   0  0  0  0  0  0  0  0  0  0  0  0
    2.6146    6.4854   14.4401 C   0  0  0  0  0  0  0  0  0  0  0  0
    2.0577    7.4812   13.6586 C   0  0  0  0  0  0  0  0  0  0  0  0
    2.4847    8.7811   13.7233 C   0  0  0  0  0  0  0  0  0  0  0  0
    3.5040    9.1326   14.5903 C   0  0  0  0  0  0  0  0  0  0  0  0
    4.0763    8.1656   15.3785 C   0  0  0  0  0  0  0  0  0  0  0  0
    3.6254    6.8751   15.2888 C   0  0  0  0  0  0  0  0  0  0  0  0
    5.0902    8.5142   16.2411 O   0  0  0  0  0  0  0  0  0  0  0  0
    6.3838    8.8351   15.7773 C   0  0  0  0  0  0  0  0  0  0  0  0
    3.8828    0.3888   20.3336 N   0  0  0  0  0  0  0  0  0  0  0  0
    3.4313   -0.5781   20.3636 H   0  0  0  0  0  0  0  0  0  0  0  0
    4.6031    0.8614   21.4810 C   0  0  0  0  0  0  0  0  0  0  0  0
    3.7746    1.7341   22.3913 C   0  0  0  0  0  0  0  0  0  0  0  0
    3.5365    4.0436   23.3184 C   0  0  0  0  0  0  0  0  0  0  0  0
    4.4216    3.1155   22.5302 C   0  0  0  0  0  0  0  0  0  0  0  0
    4.5363    4.3872   17.9133 N   0  0  0  0  0  0  0  0  0  0  0  0
    4.7885    4.9854   17.1149 H   0  0  0  0  0  0  0  0  0  0  0  0
    4.8045    5.0131   19.2232 C   0  0  0  0  0  0  0  0  0  0  0  0
    6.0278    5.8555   19.0954 C   0  0  0  0  0  0  0  0  0  0  0  0
    6.2048    6.8334   20.2351 C   0  0  0  0  0  0  0  0  0  0  0  0
    4.9452    7.6467   20.4651 C   0  0  0  0  0  0  0  0  0  0  0  0
    4.3378    7.2869   21.6681 O   0  0  0  0  0  0  0  0  0  0  0  0
    3.9896    7.3177   19.3465 C   0  0  0  0  0  0  0  0  0  0  0  0
    3.5671    5.8543   19.5353 C   0  0  0  0  0  0  0  0  0  0  0  0
    4.1943    8.1355   22.1995 H   0  0  0  0  0  0  0  0  0  0  0  0
 24 25  1  0  0  0
 25 23  1  0  0  0
 23 22  1  0  0  0
 22 20  1  0  0  0
 20  1  1  0  0  0
  1  2  2  0  0  0
  2  3  1  0  0  0
  3  4  2  0  0  0
  4  7  1  0  0  0
  7  8  2  0  0  0
  7  9  1  0  0  0
  9 11  1  0  0  0
 11 12  1  0  0  0
 12 13  2  0  0  0
 13 14  1  0  0  0
 14 15  2  0  0  0
 15 16  1  0  0  0
 16 18  1  0  0  0
 18 19  1  0  0  0
 16 17  2  0  0  0
  4  5  1  0  0  0
  5 26  1  0  0  0
 26 28  1  0  0  0
 28 29  1  0  0  0
 29 30  1  0  0  0
 30 31  1  0  0  0
 31 32  1  0  0  0
 31 33  1  0  0  0
 33 34  1  0  0  0
  5  6  2  0  0  0
  6  1  1  0  0  0
 17 12  1  0  0  0
 34 28  1  0  0  0
 20 21  1  0  0  0
  9 10  1  0  0  0
 26 27  1  0  0  0
 32 35  1  0  0  0
M  END
> <minimizedAffinity>
-7.44753

> <CNNscore>
0.4681414366

> <CNNaffinity>
6.4222173691

> <CNN_VS>
3.0065059662

> <CNNaffinity_variance>
0.4861924052

$$$$
[H]O[C@]1([H])C([H])([H])C([H])([H])[C@@]([H])(N([H])c2nc(N([H])C([H])([H])C([H])([H])C([H])([H])C([H])([H])[H])nc([H])c2C(=O)N([H])C([H])([H])c2c([H])c([H])c([H])c(OC([H])([H])[H])c2[H])C([H])([H])C1([H])[H]


 35 37  0  0  0  0  0  0  0  0999 V2000
    4.0650    1.4753   19.1731 C   0  0  0  0  0  0  0  0  0  0  0  0
    3.4335    1.1302   18.0527 N   0  0  0  0  0  0  0  0  0  0  0  0
    3.3822    1.9130   16.9612 C   0  0  0  0  0  0  0  0  0  0  0  0
    4.0133    3.1589   16.9692 C   0  0  0  0  0  0  0  0  0  0  0  0
    4.6594    3.5032   18.1255 C   0  0  0  0  0  0  0  0  0  0  0  0
    4.6714    2.6554   19.2018 N   0  0  0  0  0  0  0  0  0  0  0  0
    3.9669    4.0174   15.8296 C   0  0  0  0  0  0  0  0  0  0  0  0
    4.0823    5.2485   15.8984 O   0  0  0  0  0  0  0  0  0  0  0  0
    3.7804    3.4822   14.5275 N   0  0  0  0  0  0  0  0  0  0  0  0
    3.6822    2.4737   14.3873 H   0  0  0  0  0  0  0  0  0  0  0  0
    3.7326    4.3595   13.3772 C   0  0  0  0  0  0  0  0  0  0  0  0
    3.5269    3.5689   12.1551 C   0  0  0  0  0  0  0  0  0  0  0  0
    2.6910    2.4697   12.2282 C   0  0  0  0  0  0  0  0  0  0  0  0
    2.4434    1.6705   11.1436 C   0  0  0  0  0  0  0  0  0  0  0  0
    3.0374    1.9522    9.9261 C   0  0  0  0  0  0  0  0  0  0  0  0
    3.8722    3.0369    9.8232 C   0  0  0  0  0  0  0  0  0  0  0  0
    4.0983    3.8153   10.9276 C   0  0  0  0  0  0  0  0  0  0  0  0
    4.4635    3.3178    8.6127 O   0  0  0  0  0  0  0  0  0  0  0  0
    4.5984    2.3384    7.6058 C   0  0  0  0  0  0  0  0  0  0  0  0
    4.0949    0.6329   20.3139 N   0  0  0  0  0  0  0  0  0  0  0  0
    3.5174   -0.2616   20.2369 H   0  0  0  0  0  0  0  0  0  0  0  0
    4.8240    0.8944   21.5217 C   0  0  0  0  0  0  0  0  0  0  0  0
    3.9801    1.5114   22.6097 C   0  0  0  0  0  0  0  0  0  0  0  0
    5.9597    3.0382   22.6113 C   0  0  0  0  0  0  0  0  0  0  0  0
    4.8156    2.5003   23.4284 C   0  0  0  0  0  0  0  0  0  0  0  0
    5.3751    4.7111   18.3133 N   0  0  0  0  0  0  0  0  0  0  0  0
    5.9214    5.2275   17.6106 H   0  0  0  0  0  0  0  0  0  0  0  0
    5.3806    5.3483   19.6451 C   0  0  0  0  0  0  0  0  0  0  0  0
    6.5585    6.2588   19.7210 C   0  0  0  0  0  0  0  0  0  0  0  0
    6.4837    7.2427   20.8669 C   0  0  0  0  0  0  0  0  0  0  0  0
    5.1596    7.9828   20.8732 C   0  0  0  0  0  0  0  0  0  0  0  0
    4.3774    7.5864   21.9580 O   0  0  0  0  0  0  0  0  0  0  0  0
    4.4285    7.6027   19.6108 C   0  0  0  0  0  0  0  0  0  0  0  0
    4.0629    6.1173   19.7359 C   0  0  0  0  0  0  0  0  0  0  0  0
    4.0981    8.4243   22.4509 H   0  0  0  0  0  0  0  0  0  0  0  0
 24 25  1  0  0  0
 25 23  1  0  0  0
 23 22  1  0  0  0
 22 20  1  0  0  0
 20  1  1  0  0  0
  1  2  2  0  0  0
  2  3  1  0  0  0
  3  4  2  0  0  0
  4  7  1  0  0  0
  7  8  2  0  0  0
  7  9  1  0  0  0
  9 11  1  0  0  0
 11 12  1  0  0  0
 12 13  2  0  0  0
 13 14  1  0  0  0
 14 15  2  0  0  0
 15 16  1  0  0  0
 16 18  1  0  0  0
 18 19  1  0  0  0
 16 17  2  0  0  0
  4  5  1  0  0  0
  5 26  1  0  0  0
 26 28  1  0  0  0
 28 29  1  0  0  0
 29 30  1  0  0  0
 30 31  1  0  0  0
 31 32  1  0  0  0
 31 33  1  0  0  0
 33 34  1  0  0  0
  5  6  2  0  0  0
  6  1  1  0  0  0
 17 12  1  0  0  0
 34 28  1  0  0  0
 20 21  1  0  0  0
  9 10  1  0  0  0
 26 27  1  0  0  0
 32 35  1  0  0  0
M  END
> <minimizedAffinity>
-7.15120

> <CNNscore>
0.3838864565

> <CNNaffinity>
6.4316358566

> <CNN_VS>
2.4690179825

> <CNNaffinity_variance>
0.5532258153

$$$$
[H]O[C@]1([H])C([H])([H])C([H])([H])[C@@]([H])(N([H])c2nc(N([H])C([H])([H])C([H])([H])C([H])([H])C([H])([H])[H])nc([H])c2C(=O)N([H])C([H])([H])c2c([H])c([H])c([H])c(OC([H])([H])[H])c2[H])C([H])([H])C1([H])[H]


 35 37  0  0  0  0  0  0  0  0999 V2000
    4.1022    1.8028   18.2626 C   0  0  0  0  0  0  0  0  0  0  0  0
    3.1964    1.5129   17.3308 N   0  0  0  0  0  0  0  0  0  0  0  0
    3.0376    2.2300   16.2050 C   0  0  0  0  0  0  0  0  0  0  0  0
    3.8482    3.3427   15.9695 C   0  0  0  0  0  0  0  0  0  0  0  0
    4.7757    3.6311   16.9335 C   0  0  0  0  0  0  0  0  0  0  0  0
    4.8830    2.8564   18.0585 N   0  0  0  0  0  0  0  0  0  0  0  0
    3.6959    4.1305   14.7888 C   0  0  0  0  0  0  0  0  0  0  0  0
    3.8184    5.3628   14.7711 O   0  0  0  0  0  0  0  0  0  0  0  0
    3.3876    3.5183   13.5450 N   0  0  0  0  0  0  0  0  0  0  0  0
    3.2757    2.5038   13.4767 H   0  0  0  0  0  0  0  0  0  0  0  0
    3.2330    4.3244   12.3527 C   0  0  0  0  0  0  0  0  0  0  0  0
    1.8251    4.3247   11.9301 C   0  0  0  0  0  0  0  0  0  0  0  0
    0.8970    4.9121   12.7704 C   0  0  0  0  0  0  0  0  0  0  0  0
   -0.4373    4.9554   12.4638 C   0  0  0  0  0  0  0  0  0  0  0  0
   -0.8944    4.4004   11.2817 C   0  0  0  0  0  0  0  0  0  0  0  0
    0.0035    3.8102   10.4276 C   0  0  0  0  0  0  0  0  0  0  0  0
    1.3310    3.7841   10.7650 C   0  0  0  0  0  0  0  0  0  0  0  0
   -0.4501    3.2579    9.2517 O   0  0  0  0  0  0  0  0  0  0  0  0
   -1.7914    2.8500    9.0904 C   0  0  0  0  0  0  0  0  0  0  0  0
    4.2415    1.0338   19.4463 N   0  0  0  0  0  0  0  0  0  0  0  0
    3.6805    0.1259   19.4703 H   0  0  0  0  0  0  0  0  0  0  0  0
    5.0574    1.3831   20.5737 C   0  0  0  0  0  0  0  0  0  0  0  0
    4.6057    2.6411   21.2737 C   0  0  0  0  0  0  0  0  0  0  0  0
    4.1999    3.2473   23.6649 C   0  0  0  0  0  0  0  0  0  0  0  0
    3.8510    2.2876   22.5589 C   0  0  0  0  0  0  0  0  0  0  0  0
    5.7006    4.7016   16.8596 N   0  0  0  0  0  0  0  0  0  0  0  0
    6.5981    4.7162   16.3566 H   0  0  0  0  0  0  0  0  0  0  0  0
    5.4034    5.9635   17.5660 C   0  0  0  0  0  0  0  0  0  0  0  0
    4.0869    5.8159   18.2496 C   0  0  0  0  0  0  0  0  0  0  0  0
    3.8337    6.8744   19.2994 C   0  0  0  0  0  0  0  0  0  0  0  0
    4.9967    6.9810   20.2673 C   0  0  0  0  0  0  0  0  0  0  0  0
    5.6801    8.1837   20.0878 O   0  0  0  0  0  0  0  0  0  0  0  0
    5.9479    5.8554   19.9497 C   0  0  0  0  0  0  0  0  0  0  0  0
    6.5437    6.1504   18.5664 C   0  0  0  0  0  0  0  0  0  0  0  0
    5.7407    8.6343   20.9913 H   0  0  0  0  0  0  0  0  0  0  0  0
 24 25  1  0  0  0
 25 23  1  0  0  0
 23 22  1  0  0  0
 22 20  1  0  0  0
 20  1  1  0  0  0
  1  2  2  0  0  0
  2  3  1  0  0  0
  3  4  2  0  0  0
  4  7  1  0  0  0
  7  8  2  0  0  0
  7  9  1  0  0  0
  9 11  1  0  0  0
 11 12  1  0  0  0
 12 13  2  0  0  0
 13 14  1  0  0  0
 14 15  2  0  0  0
 15 16  1  0  0  0
 16 18  1  0  0  0
 18 19  1  0  0  0
 16 17  2  0  0  0
  4  5  1  0  0  0
  5 26  1  0  0  0
 26 28  1  0  0  0
 28 29  1  0  0  0
 29 30  1  0  0  0
 30 31  1  0  0  0
 31 32  1  0  0  0
 31 33  1  0  0  0
 33 34  1  0  0  0
  5  6  2  0  0  0
  6  1  1  0  0  0
 17 12  1  0  0  0
 34 28  1  0  0  0
 20 21  1  0  0  0
  9 10  1  0  0  0
 26 27  1  0  0  0
 32 35  1  0  0  0
M  END
> <minimizedAffinity>
-6.32772

> <CNNscore>
0.3279825449

> <CNNaffinity>
6.2593717575

> <CNN_VS>
2.0529646873

> <CNNaffinity_variance>
0.5804708004

$$$$
[H]O[C@]1([H])C([H])([H])C([H])([H])[C@@]([H])(N([H])c2nc(N([H])C([H])([H])C([H])([H])C([H])([H])C([H])([H])[H])nc([H])c2C(=O)N([H])C([H])([H])c2c([H])c([H])c([H])c(OC([H])([H])[H])c2[H])C([H])([H])C1([H])[H]


 35 37  0  0  0  0  0  0  0  0999 V2000
    4.6425    2.2157   19.6004 C   0  0  0  0  0  0  0  0  0  0  0  0
    4.4677    1.8742   18.3254 N   0  0  0  0  0  0  0  0  0  0  0  0
    3.9949    2.7178   17.3917 C   0  0  0  0  0  0  0  0  0  0  0  0
    3.6600    4.0272   17.7437 C   0  0  0  0  0  0  0  0  0  0  0  0
    3.8439    4.3673   19.0565 C   0  0  0  0  0  0  0  0  0  0  0  0
    4.3304    3.4556   19.9562 N   0  0  0  0  0  0  0  0  0  0  0  0
    3.1450    4.9428   16.7771 C   0  0  0  0  0  0  0  0  0  0  0  0
    1.9614    5.3061   16.7451 O   0  0  0  0  0  0  0  0  0  0  0  0
    3.9917    5.4939   15.7791 N   0  0  0  0  0  0  0  0  0  0  0  0
    4.9837    5.2468   15.7423 H   0  0  0  0  0  0  0  0  0  0  0  0
    3.4614    6.4202   14.8014 C   0  0  0  0  0  0  0  0  0  0  0  0
    3.4449    5.7890   13.4740 C   0  0  0  0  0  0  0  0  0  0  0  0
    3.7424    4.4408   13.3945 C   0  0  0  0  0  0  0  0  0  0  0  0
    3.7572    3.7682   12.2013 C   0  0  0  0  0  0  0  0  0  0  0  0
    3.4688    4.4379   11.0254 C   0  0  0  0  0  0  0  0  0  0  0  0
    3.1698    5.7767   11.0731 C   0  0  0  0  0  0  0  0  0  0  0  0
    3.1640    6.4189   12.2831 C   0  0  0  0  0  0  0  0  0  0  0  0
    2.8828    6.4436    9.9041 O   0  0  0  0  0  0  0  0  0  0  0  0
    2.7209    7.8450    9.8679 C   0  0  0  0  0  0  0  0  0  0  0  0
    5.1345    1.3017   20.5670 N   0  0  0  0  0  0  0  0  0  0  0  0
    5.1772    0.2825   20.2524 H   0  0  0  0  0  0  0  0  0  0  0  0
    5.5633    1.6441   21.8928 C   0  0  0  0  0  0  0  0  0  0  0  0
    4.4390    1.6690   22.8987 C   0  0  0  0  0  0  0  0  0  0  0  0
    3.7512    4.0096   23.4451 C   0  0  0  0  0  0  0  0  0  0  0  0
    4.6163    2.8493   23.8589 C   0  0  0  0  0  0  0  0  0  0  0  0
    3.5852    5.6521   19.5942 N   0  0  0  0  0  0  0  0  0  0  0  0
    2.7715    5.9411   20.1538 H   0  0  0  0  0  0  0  0  0  0  0  0
    4.5511    6.7430   19.3563 C   0  0  0  0  0  0  0  0  0  0  0  0
    3.7851    7.9885   19.0662 C   0  0  0  0  0  0  0  0  0  0  0  0
    4.6203    9.2448   19.1701 C   0  0  0  0  0  0  0  0  0  0  0  0
    5.3697    9.3018   20.4877 C   0  0  0  0  0  0  0  0  0  0  0  0
    6.7394    9.1335   20.2847 O   0  0  0  0  0  0  0  0  0  0  0  0
    4.8810    8.1514   21.3306 C   0  0  0  0  0  0  0  0  0  0  0  0
    5.3592    6.8625   20.6481 C   0  0  0  0  0  0  0  0  0  0  0  0
    7.2090    9.9063   20.7379 H   0  0  0  0  0  0  0  0  0  0  0  0
 24 25  1  0  0  0
 25 23  1  0  0  0
 23 22  1  0  0  0
 22 20  1  0  0  0
 20  1  1  0  0  0
  1  2  2  0  0  0
  2  3  1  0  0  0
  3  4  2  0  0  0
  4  7  1  0  0  0
  7  8  2  0  0  0
  7  9  1  0  0  0
  9 11  1  0  0  0
 11 12  1  0  0  0
 12 13  2  0  0  0
 13 14  1  0  0  0
 14 15  2  0  0  0
 15 16  1  0  0  0
 16 18  1  0  0  0
 18 19  1  0  0  0
 16 17  2  0  0  0
  4  5  1  0  0  0
  5 26  1  0  0  0
 26 28  1  0  0  0
 28 29  1  0  0  0
 29 30  1  0  0  0
 30 31  1  0  0  0
 31 32  1  0  0  0
 31 33  1  0  0  0
 33 34  1  0  0  0
  5  6  2  0  0  0
  6  1  1  0  0  0
 17 12  1  0  0  0
 34 28  1  0  0  0
 20 21  1  0  0  0
  9 10  1  0  0  0
 26 27  1  0  0  0
 32 35  1  0  0  0
M  END
> <minimizedAffinity>
-7.07989

> <CNNscore>
0.3248448074

> <CNNaffinity>
6.3466901779

> <CNN_VS>
2.0616893768

> <CNNaffinity_variance>
0.5358232260

$$$$
[H]O[C@]1([H])C([H])([H])C([H])([H])[C@@]([H])(N([H])c2nc(N([H])C([H])([H])C([H])([H])C([H])([H])C([H])([H])[H])nc([H])c2C(=O)N([H])C([H])([H])c2c([H])c([H])c([H])c(OC([H])([H])[H])c2[H])C([H])([H])C1([H])[H]


 35 37  0  0  0  0  0  0  0  0999 V2000
    4.1092    2.0552   17.8614 C   0  0  0  0  0  0  0  0  0  0  0  0
    3.4869    1.3453   16.9224 N   0  0  0  0  0  0  0  0  0  0  0  0
    3.2191    1.8186   15.6931 C   0  0  0  0  0  0  0  0  0  0  0  0
    3.5996    3.1180   15.3504 C   0  0  0  0  0  0  0  0  0  0  0  0
    4.2386    3.8383   16.3229 C   0  0  0  0  0  0  0  0  0  0  0  0
    4.4795    3.2927   17.5564 N   0  0  0  0  0  0  0  0  0  0  0  0
    3.3191    3.6526   14.0568 C   0  0  0  0  0  0  0  0  0  0  0  0
    3.3989    4.8583   13.7855 O   0  0  0  0  0  0  0  0  0  0  0  0
    2.9239    2.8004   12.9917 N   0  0  0  0  0  0  0  0  0  0  0  0
    2.8400    1.7911   13.1350 H   0  0  0  0  0  0  0  0  0  0  0  0
    2.6395    3.3505   11.6834 C   0  0  0  0  0  0  0  0  0  0  0  0
    3.3036    2.5450   10.6485 C   0  0  0  0  0  0  0  0  0  0  0  0
    2.9142    1.2258   10.5058 C   0  0  0  0  0  0  0  0  0  0  0  0
    3.4798    0.3971    9.5731 C   0  0  0  0  0  0  0  0  0  0  0  0
    4.4739    0.8728    8.7366 C   0  0  0  0  0  0  0  0  0  0  0  0
    4.8813    2.1781    8.8551 C   0  0  0  0  0  0  0  0  0  0  0  0
    4.2948    2.9798    9.7984 C   0  0  0  0  0  0  0  0  0  0  0  0
    5.8700    2.6521    8.0235 O   0  0  0  0  0  0  0  0  0  0  0  0
    6.7531    1.7833    7.3476 C   0  0  0  0  0  0  0  0  0  0  0  0
    4.3706    1.5335   19.1542 N   0  0  0  0  0  0  0  0  0  0  0  0
    3.9201    0.5891   19.3657 H   0  0  0  0  0  0  0  0  0  0  0  0
    5.1717    2.1688   20.1609 C   0  0  0  0  0  0  0  0  0  0  0  0
    4.3683    3.0008   21.1297 C   0  0  0  0  0  0  0  0  0  0  0  0
    6.2008    2.0403   22.5329 C   0  0  0  0  0  0  0  0  0  0  0  0
    5.0237    2.9784   22.5140 C   0  0  0  0  0  0  0  0  0  0  0  0
    4.7204    5.1597   16.1539 N   0  0  0  0  0  0  0  0  0  0  0  0
    5.5869    5.4514   15.6818 H   0  0  0  0  0  0  0  0  0  0  0  0
    3.9398    6.2886   16.6978 C   0  0  0  0  0  0  0  0  0  0  0  0
    4.3467    6.4958   18.1168 C   0  0  0  0  0  0  0  0  0  0  0  0
    3.9104    7.8306   18.6776 C   0  0  0  0  0  0  0  0  0  0  0  0
    4.3234    8.9726   17.7687 C   0  0  0  0  0  0  0  0  0  0  0  0
    3.2079    9.5470   17.1592 O   0  0  0  0  0  0  0  0  0  0  0  0
    5.1950    8.3897   16.6855 C   0  0  0  0  0  0  0  0  0  0  0  0
    4.2970    7.4910   15.8244 C   0  0  0  0  0  0  0  0  0  0  0  0
    3.2469   10.5423   17.3349 H   0  0  0  0  0  0  0  0  0  0  0  0
 24 25  1  0  0  0
 25 23  1  0  0  0
 23 22  1  0  0  0
 22 20  1  0  0  0
 20  1  1  0  0  0
  1  2  2  0  0  0
  2  3  1  0  0  0
  3  4  2  0  0  0
  4  7  1  0  0  0
  7  8  2  0  0  0
  7  9  1  0  0  0
  9 11  1  0  0  0
 11 12  1  0  0  0
 12 13  2  0  0  0
 13 14  1  0  0  0
 14 15  2  0  0  0
 15 16  1  0  0  0
 16 18  1  0  0  0
 18 19  1  0  0  0
 16 17  2  0  0  0
  4  5  1  0  0  0
  5 26  1  0  0  0
 26 28  1  0  0  0
 28 29  1  0  0  0
 29 30  1  0  0  0
 30 31  1  0  0  0
 31 32  1  0  0  0
 31 33  1  0  0  0
 33 34  1  0  0  0
  5  6  2  0  0  0
  6  1  1  0  0  0
 17 12  1  0  0  0
 34 28  1  0  0  0
 20 21  1  0  0  0
  9 10  1  0  0  0
 26 27  1  0  0  0
 32 35  1  0  0  0
M  END
> <minimizedAffinity>
-6.39742

> <CNNscore>
0.2840631008

> <CNNaffinity>
6.1777887344

> <CNN_VS>
1.7548818588

> <CNNaffinity_variance>
0.5991990566

$$$$
[H]O[C@]1([H])C([H])([H])C([H])([H])[C@@]([H])(n2c([H])c(-c3c([H])c([H])c(C([H])([H])N4C5([H])C([H])([H])C([H])([H])C4([H])C([H])([H])C5([H])[H])c([H])c3[H])c3c([H])nc(N([H])[C@@]([H])(C([H])([H])[H])C([H])([H])C([H])([H])C([H])([H])[H])nc32)C([H])([H])C1([H])[H]


 38 43  0  0  0  0  0  0  0  0999 V2000
    3.4043    1.0983   18.0028 C   0  0  0  0  0  0  0  0  0  0  0  0
    3.0619    0.5053   16.8458 N   0  0  0  0  0  0  0  0  0  0  0  0
    3.0699    1.1459   15.6539 C   0  0  0  0  0  0  0  0  0  0  0  0
    3.4499    2.4903   15.6033 C   0  0  0  0  0  0  0  0  0  0  0  0
    3.5735    3.4323   14.6106 C   0  0  0  0  0  0  0  0  0  0  0  0
    3.9968    4.5746   15.2521 C   0  0  0  0  0  0  0  0  0  0  0  0
    4.1240    4.3375   16.5680 N   0  0  0  0  0  0  0  0  0  0  0  0
    3.7908    3.0544   16.8080 C   0  0  0  0  0  0  0  0  0  0  0  0
    3.7698    2.3904   17.9567 N   0  0  0  0  0  0  0  0  0  0  0  0
    4.5475    5.3148   17.5259 C   0  0  0  0  0  0  0  0  0  0  0  0
    6.0566    5.3327   17.5737 C   0  0  0  0  0  0  0  0  0  0  0  0
    6.5738    6.5910   18.2542 C   0  0  0  0  0  0  0  0  0  0  0  0
    6.2838    7.7590   17.3626 C   0  0  0  0  0  0  0  0  0  0  0  0
    5.9501    8.8546   18.1531 O   0  0  0  0  0  0  0  0  0  0  0  0
    5.1411    7.4438   16.3877 C   0  0  0  0  0  0  0  0  0  0  0  0
    4.0897    6.7103   17.2285 C   0  0  0  0  0  0  0  0  0  0  0  0
    6.7842    9.1015   18.6438 H   0  0  0  0  0  0  0  0  0  0  0  0
    3.3062    3.2175   13.1975 C   0  0  0  0  0  0  0  0  0  0  0  0
    3.9257    4.0389   12.2807 C   0  0  0  0  0  0  0  0  0  0  0  0
    3.6750    3.8349   10.9328 C   0  0  0  0  0  0  0  0  0  0  0  0
    2.8118    2.8143   10.5553 C   0  0  0  0  0  0  0  0  0  0  0  0
    2.1943    1.9952   11.4740 C   0  0  0  0  0  0  0  0  0  0  0  0
    2.4450    2.2005   12.8020 C   0  0  0  0  0  0  0  0  0  0  0  0
    2.5719    2.6257    9.1046 C   0  0  0  0  0  0  0  0  0  0  0  0
    2.8862    1.2660    8.7660 N   0  0  0  0  0  0  0  0  0  0  0  0
    2.5346    0.9516    7.3695 C   0  0  0  0  0  0  0  0  0  0  0  0
    3.4391    1.8739    6.6224 C   0  0  0  0  0  0  0  0  0  0  0  0
    4.6953    1.8721    7.4917 C   0  0  0  0  0  0  0  0  0  0  0  0
    4.3122    1.0130    8.6715 C   0  0  0  0  0  0  0  0  0  0  0  0
    4.3181   -0.4212    8.1894 C   0  0  0  0  0  0  0  0  0  0  0  0
    3.0923   -0.4525    7.2810 C   0  0  0  0  0  0  0  0  0  0  0  0
    3.3698    0.3557   19.2116 N   0  0  0  0  0  0  0  0  0  0  0  0
    3.1374   -0.6581   19.1733 H   0  0  0  0  0  0  0  0  0  0  0  0
    3.6432    0.9405   20.5022 C   0  0  0  0  0  0  0  0  0  0  0  0
    2.8101    0.3538   21.5936 C   0  0  0  0  0  0  0  0  0  0  0  0
    5.1248    0.9040   20.8248 C   0  0  0  0  0  0  0  0  0  0  0  0
    6.5259    2.3056   22.2354 C   0  0  0  0  0  0  0  0  0  0  0  0
    5.7037    2.3031   20.9505 C   0  0  0  0  0  0  0  0  0  0  0  0
 37 38  1  0  0  0
 38 36  1  0  0  0
 36 34  1  0  0  0
 34 35  1  0  0  0
 34 32  1  0  0  0
 32  1  1  0  0  0
  1  2  2  0  0  0
  2  3  1  0  0  0
  3  4  2  0  0  0
  4  5  1  0  0  0
  5  6  2  0  0  0
  6  7  1  0  0  0
  7 10  1  0  0  0
 10 11  1  0  0  0
 11 12  1  0  0  0
 12 13  1  0  0  0
 13 14  1  0  0  0
 13 15  1  0  0  0
 15 16  1  0  0  0
  7  8  1  0  0  0
  8  9  2  0  0  0
  5 18  1  0  0  0
 18 19  2  0  0  0
 19 20  1  0  0  0
 20 21  2  0  0  0
 21 24  1  0  0  0
 24 25  1  0  0  0
 25 26  1  0  0  0
 26 27  1  0  0  0
 27 28  1  0  0  0
 28 29  1  0  0  0
 29 30  1  0  0  0
 30 31  1  0  0  0
 21 22  1  0  0  0
 22 23  2  0  0  0
  9  1  1  0  0  0
 23 18  1  0  0  0
  8  4  1  0  0  0
 29 25  1  0  0  0
 16 10  1  0  0  0
 31 26  1  0  0  0
 32 33  1  0  0  0
 14 17  1  0  0  0
M  END
> <minimizedAffinity>
-7.65902

> <CNNscore>
0.7920551300

> <CNNaffinity>
7.3497033119

> <CNN_VS>
5.8213701248

> <CNNaffinity_variance>
0.2240438461

$$$$
[H]O[C@]1([H])C([H])([H])C([H])([H])[C@@]([H])(n2c([H])c(-c3c([H])c([H])c(C([H])([H])N4C5([H])C([H])([H])C([H])([H])C4([H])C([H])([H])C5([H])[H])c([H])c3[H])c3c([H])nc(N([H])[C@@]([H])(C([H])([H])[H])C([H])([H])C([H])([H])C([H])([H])[H])nc32)C([H])([H])C1([H])[H]


 38 43  0  0  0  0  0  0  0  0999 V2000
    4.2824    1.7316   18.6330 C   0  0  0  0  0  0  0  0  0  0  0  0
    3.8370    0.9548   17.6302 N   0  0  0  0  0  0  0  0  0  0  0  0
    3.5306    1.4333   16.4021 C   0  0  0  0  0  0  0  0  0  0  0  0
    3.6780    2.7994   16.1448 C   0  0  0  0  0  0  0  0  0  0  0  0
    3.4717    3.6152   15.0584 C   0  0  0  0  0  0  0  0  0  0  0  0
    3.8167    4.8770   15.4880 C   0  0  0  0  0  0  0  0  0  0  0  0
    4.2127    4.8291   16.7705 N   0  0  0  0  0  0  0  0  0  0  0  0
    4.1350    3.5537   17.1973 C   0  0  0  0  0  0  0  0  0  0  0  0
    4.4247    3.0450   18.3881 N   0  0  0  0  0  0  0  0  0  0  0  0
    4.6404    5.9692   17.5250 C   0  0  0  0  0  0  0  0  0  0  0  0
    6.1498    6.0031   17.5491 C   0  0  0  0  0  0  0  0  0  0  0  0
    6.6660    7.3682   17.9779 C   0  0  0  0  0  0  0  0  0  0  0  0
    6.3570    8.3492   16.8890 C   0  0  0  0  0  0  0  0  0  0  0  0
    6.0248    9.5708   17.4669 O   0  0  0  0  0  0  0  0  0  0  0  0
    5.2052    7.8531   16.0044 C   0  0  0  0  0  0  0  0  0  0  0  0
    4.1691    7.2831   16.9801 C   0  0  0  0  0  0  0  0  0  0  0  0
    6.8629    9.9085   17.8925 H   0  0  0  0  0  0  0  0  0  0  0  0
    2.9937    3.1876   13.7535 C   0  0  0  0  0  0  0  0  0  0  0  0
    3.6456    3.6521   12.6317 C   0  0  0  0  0  0  0  0  0  0  0  0
    3.1941    3.2441   11.3865 C   0  0  0  0  0  0  0  0  0  0  0  0
    2.1049    2.3852   11.3132 C   0  0  0  0  0  0  0  0  0  0  0  0
    1.4556    1.9228   12.4361 C   0  0  0  0  0  0  0  0  0  0  0  0
    1.9049    2.3281   13.6618 C   0  0  0  0  0  0  0  0  0  0  0  0
    1.6541    1.9690    9.9637 C   0  0  0  0  0  0  0  0  0  0  0  0
    0.2284    2.1262    9.8933 N   0  0  0  0  0  0  0  0  0  0  0  0
   -0.1555    3.4953    9.5049 C   0  0  0  0  0  0  0  0  0  0  0  0
    0.4251    3.5868    8.1332 C   0  0  0  0  0  0  0  0  0  0  0  0
    0.2230    2.1698    7.5994 C   0  0  0  0  0  0  0  0  0  0  0  0
   -0.3712    1.4279    8.7711 C   0  0  0  0  0  0  0  0  0  0  0  0
   -1.8112    1.8773    8.8895 C   0  0  0  0  0  0  0  0  0  0  0  0
   -1.6530    3.3114    9.3868 C   0  0  0  0  0  0  0  0  0  0  0  0
    4.5822    1.1514   19.8930 N   0  0  0  0  0  0  0  0  0  0  0  0
    5.3517    0.4534   19.9556 H   0  0  0  0  0  0  0  0  0  0  0  0
    3.8679    1.4836   21.1020 C   0  0  0  0  0  0  0  0  0  0  0  0
    3.2555    0.2917   21.7606 C   0  0  0  0  0  0  0  0  0  0  0  0
    4.7329    2.2874   22.0540 C   0  0  0  0  0  0  0  0  0  0  0  0
    5.6919    2.1055   24.2821 C   0  0  0  0  0  0  0  0  0  0  0  0
    4.3839    1.9991   23.5044 C   0  0  0  0  0  0  0  0  0  0  0  0
 37 38  1  0  0  0
 38 36  1  0  0  0
 36 34  1  0  0  0
 34 35  1  0  0  0
 34 32  1  0  0  0
 32  1  1  0  0  0
  1  2  2  0  0  0
  2  3  1  0  0  0
  3  4  2  0  0  0
  4  5  1  0  0  0
  5  6  2  0  0  0
  6  7  1  0  0  0
  7 10  1  0  0  0
 10 11  1  0  0  0
 11 12  1  0  0  0
 12 13  1  0  0  0
 13 14  1  0  0  0
 13 15  1  0  0  0
 15 16  1  0  0  0
  7  8  1  0  0  0
  8  9  2  0  0  0
  5 18  1  0  0  0
 18 19  2  0  0  0
 19 20  1  0  0  0
 20 21  2  0  0  0
 21 24  1  0  0  0
 24 25  1  0  0  0
 25 26  1  0  0  0
 26 27  1  0  0  0
 27 28  1  0  0  0
 28 29  1  0  0  0
 29 30  1  0  0  0
 30 31  1  0  0  0
 21 22  1  0  0  0
 22 23  2  0  0  0
  9  1  1  0  0  0
 23 18  1  0  0  0
  8  4  1  0  0  0
 29 25  1  0  0  0
 16 10  1  0  0  0
 31 26  1  0  0  0
 32 33  1  0  0  0
 14 17  1  0  0  0
M  END
> <minimizedAffinity>
-7.53675

> <CNNscore>
0.5767890811

> <CNNaffinity>
7.1892724037

> <CNN_VS>
4.1466937065

> <CNNaffinity_variance>
0.2887490392

$$$$
[H]O[C@]1([H])C([H])([H])C([H])([H])[C@@]([H])(n2c([H])c(-c3c([H])c([H])c(C([H])([H])N4C5([H])C([H])([H])C([H])([H])C4([H])C([H])([H])C5([H])[H])c([H])c3[H])c3c([H])nc(N([H])[C@@]([H])(C([H])([H])[H])C([H])([H])C([H])([H])C([H])([H])[H])nc32)C([H])([H])C1([H])[H]


 38 43  0  0  0  0  0  0  0  0999 V2000
    4.0832    1.4720   19.3279 C   0  0  0  0  0  0  0  0  0  0  0  0
    3.8994    0.7946   18.1812 N   0  0  0  0  0  0  0  0  0  0  0  0
    3.7320    1.3990   16.9821 C   0  0  0  0  0  0  0  0  0  0  0  0
    3.7481    2.7951   16.9124 C   0  0  0  0  0  0  0  0  0  0  0  0
    3.6152    3.7232   15.9079 C   0  0  0  0  0  0  0  0  0  0  0  0
    3.7304    4.9449   16.5322 C   0  0  0  0  0  0  0  0  0  0  0  0
    3.9239    4.7670   17.8494 N   0  0  0  0  0  0  0  0  0  0  0  0
    3.9384    3.4448   18.1072 C   0  0  0  0  0  0  0  0  0  0  0  0
    4.0990    2.8139   19.2635 N   0  0  0  0  0  0  0  0  0  0  0  0
    4.0845    5.8338   18.7917 C   0  0  0  0  0  0  0  0  0  0  0  0
    3.9407    5.2797   20.1890 C   0  0  0  0  0  0  0  0  0  0  0  0
    4.4832    6.2495   21.2276 C   0  0  0  0  0  0  0  0  0  0  0  0
    5.9721    6.3128   21.0771 C   0  0  0  0  0  0  0  0  0  0  0  0
    6.3923    7.6173   21.3185 O   0  0  0  0  0  0  0  0  0  0  0  0
    6.4084    5.8687   19.6743 C   0  0  0  0  0  0  0  0  0  0  0  0
    5.4095    6.5298   18.7175 C   0  0  0  0  0  0  0  0  0  0  0  0
    6.2205    7.7845   22.2881 H   0  0  0  0  0  0  0  0  0  0  0  0
    3.4035    3.4271   14.5002 C   0  0  0  0  0  0  0  0  0  0  0  0
    3.9591    4.2698   13.5620 C   0  0  0  0  0  0  0  0  0  0  0  0
    3.7614    3.9886   12.2193 C   0  0  0  0  0  0  0  0  0  0  0  0
    3.0133    2.8723   11.8680 C   0  0  0  0  0  0  0  0  0  0  0  0
    2.4594    2.0320   12.8080 C   0  0  0  0  0  0  0  0  0  0  0  0
    2.6574    2.3138   14.1308 C   0  0  0  0  0  0  0  0  0  0  0  0
    2.8272    2.6034   10.4221 C   0  0  0  0  0  0  0  0  0  0  0  0
    2.7883    1.1812   10.2266 N   0  0  0  0  0  0  0  0  0  0  0  0
    1.8304    0.7967    9.1743 C   0  0  0  0  0  0  0  0  0  0  0  0
    2.4320    1.4492    7.9746 C   0  0  0  0  0  0  0  0  0  0  0  0
    3.9290    1.2994    8.2394 C   0  0  0  0  0  0  0  0  0  0  0  0
    3.9881    0.6547    9.6023 C   0  0  0  0  0  0  0  0  0  0  0  0
    3.6024   -0.7967    9.4174 C   0  0  0  0  0  0  0  0  0  0  0  0
    2.1113   -0.6890    9.1109 C   0  0  0  0  0  0  0  0  0  0  0  0
    4.2517    0.7625   20.5454 N   0  0  0  0  0  0  0  0  0  0  0  0
    3.8567   -0.1969   20.6278 H   0  0  0  0  0  0  0  0  0  0  0  0
    4.9491    1.3090   21.6844 C   0  0  0  0  0  0  0  0  0  0  0  0
    6.0554    2.2344   21.2984 C   0  0  0  0  0  0  0  0  0  0  0  0
    3.9872    1.9408   22.6724 C   0  0  0  0  0  0  0  0  0  0  0  0
    3.5557    4.0795   23.7481 C   0  0  0  0  0  0  0  0  0  0  0  0
    4.6506    3.0566   23.4622 C   0  0  0  0  0  0  0  0  0  0  0  0
 37 38  1  0  0  0
 38 36  1  0  0  0
 36 34  1  0  0  0
 34 35  1  0  0  0
 34 32  1  0  0  0
 32  1  1  0  0  0
  1  2  2  0  0  0
  2  3  1  0  0  0
  3  4  2  0  0  0
  4  5  1  0  0  0
  5  6  2  0  0  0
  6  7  1  0  0  0
  7 10  1  0  0  0
 10 11  1  0  0  0
 11 12  1  0  0  0
 12 13  1  0  0  0
 13 14  1  0  0  0
 13 15  1  0  0  0
 15 16  1  0  0  0
  7  8  1  0  0  0
  8  9  2  0  0  0
  5 18  1  0  0  0
 18 19  2  0  0  0
 19 20  1  0  0  0
 20 21  2  0  0  0
 21 24  1  0  0  0
 24 25  1  0  0  0
 25 26  1  0  0  0
 26 27  1  0  0  0
 27 28  1  0  0  0
 28 29  1  0  0  0
 29 30  1  0  0  0
 30 31  1  0  0  0
 21 22  1  0  0  0
 22 23  2  0  0  0
  9  1  1  0  0  0
 23 18  1  0  0  0
  8  4  1  0  0  0
 29 25  1  0  0  0
 16 10  1  0  0  0
 31 26  1  0  0  0
 32 33  1  0  0  0
 14 17  1  0  0  0
M  END
> <minimizedAffinity>
-8.51119

> <CNNscore>
0.4608089328

> <CNNaffinity>
7.1127901077

> <CNN_VS>
3.2776372433

> <CNNaffinity_variance>
0.3595619798

$$$$
[H]O[C@]1([H])C([H])([H])C([H])([H])[C@@]([H])(n2c([H])c(-c3c([H])c([H])c(C([H])([H])N4C5([H])C([H])([H])C([H])([H])C4([H])C([H])([H])C5([H])[H])c([H])c3[H])c3c([H])nc(N([H])[C@@]([H])(C([H])([H])[H])C([H])([H])C([H])([H])C([H])([H])[H])nc32)C([H])([H])C1([H])[H]


 38 43  0  0  0  0  0  0  0  0999 V2000
    4.4885    1.6493   19.4011 C   0  0  0  0  0  0  0  0  0  0  0  0
    3.7393    1.3217   18.3340 N   0  0  0  0  0  0  0  0  0  0  0  0
    3.4994    2.1708   17.3081 C   0  0  0  0  0  0  0  0  0  0  0  0
    4.0491    3.4556   17.3416 C   0  0  0  0  0  0  0  0  0  0  0  0
    4.0222    4.5501   16.5113 C   0  0  0  0  0  0  0  0  0  0  0  0
    4.7825    5.5032   17.1510 C   0  0  0  0  0  0  0  0  0  0  0  0
    5.2477    5.0115   18.3111 N   0  0  0  0  0  0  0  0  0  0  0  0
    4.8064    3.7462   18.4497 C   0  0  0  0  0  0  0  0  0  0  0  0
    5.0179    2.8838   19.4357 N   0  0  0  0  0  0  0  0  0  0  0  0
    6.0746    5.7440   19.2231 C   0  0  0  0  0  0  0  0  0  0  0  0
    6.7058    6.9033   18.4899 C   0  0  0  0  0  0  0  0  0  0  0  0
    7.2636    7.9338   19.4597 C   0  0  0  0  0  0  0  0  0  0  0  0
    6.1126    8.6000   20.1489 C   0  0  0  0  0  0  0  0  0  0  0  0
    6.4683    8.8568   21.4695 O   0  0  0  0  0  0  0  0  0  0  0  0
    4.8538    7.7233   20.1021 C   0  0  0  0  0  0  0  0  0  0  0  0
    5.3447    6.3032   20.4063 C   0  0  0  0  0  0  0  0  0  0  0  0
    7.1855    9.5507   21.4292 H   0  0  0  0  0  0  0  0  0  0  0  0
    3.3275    4.6326   15.2366 C   0  0  0  0  0  0  0  0  0  0  0  0
    3.8201    3.9076   14.1732 C   0  0  0  0  0  0  0  0  0  0  0  0
    3.1585    3.9821   12.9575 C   0  0  0  0  0  0  0  0  0  0  0  0
    2.0273    4.7814   12.8542 C   0  0  0  0  0  0  0  0  0  0  0  0
    1.5376    5.5046   13.9188 C   0  0  0  0  0  0  0  0  0  0  0  0
    2.1937    5.4277   15.1155 C   0  0  0  0  0  0  0  0  0  0  0  0
    1.3458    4.8321   11.5386 C   0  0  0  0  0  0  0  0  0  0  0  0
   -0.0717    4.8782   11.7637 N   0  0  0  0  0  0  0  0  0  0  0  0
   -0.6347    6.2051   11.4555 C   0  0  0  0  0  0  0  0  0  0  0  0
   -0.3578    6.3110    9.9930 C   0  0  0  0  0  0  0  0  0  0  0  0
   -0.5522    4.8714    9.5202 C   0  0  0  0  0  0  0  0  0  0  0  0
   -0.8320    4.1118   10.7935 C   0  0  0  0  0  0  0  0  0  0  0  0
   -2.2479    4.4522   11.2046 C   0  0  0  0  0  0  0  0  0  0  0  0
   -2.1051    5.9046   11.6506 C   0  0  0  0  0  0  0  0  0  0  0  0
    4.6927    0.7001   20.4362 N   0  0  0  0  0  0  0  0  0  0  0  0
    4.6345   -0.3137   20.2082 H   0  0  0  0  0  0  0  0  0  0  0  0
    4.9795    1.0732   21.8004 C   0  0  0  0  0  0  0  0  0  0  0  0
    6.3758    1.5686   21.9855 C   0  0  0  0  0  0  0  0  0  0  0  0
    3.9468    2.0454   22.3380 C   0  0  0  0  0  0  0  0  0  0  0  0
    3.4514    4.0246   23.6626 C   0  0  0  0  0  0  0  0  0  0  0  0
    4.5958    3.1691   23.1284 C   0  0  0  0  0  0  0  0  0  0  0  0
 37 38  1  0  0  0
 38 36  1  0  0  0
 36 34  1  0  0  0
 34 35  1  0  0  0
 34 32  1  0  0  0
 32  1  1  0  0  0
  1  2  2  0  0  0
  2  3  1  0  0  0
  3  4  2  0  0  0
  4  5  1  0  0  0
  5  6  2  0  0  0
  6  7  1  0  0  0
  7 10  1  0  0  0
 10 11  1  0  0  0
 11 12  1  0  0  0
 12 13  1  0  0  0
 13 14  1  0  0  0
 13 15  1  0  0  0
 15 16  1  0  0  0
  7  8  1  0  0  0
  8  9  2  0  0  0
  5 18  1  0  0  0
 18 19  2  0  0  0
 19 20  1  0  0  0
 20 21  2  0  0  0
 21 24  1  0  0  0
 24 25  1  0  0  0
 25 26  1  0  0  0
 26 27  1  0  0  0
 27 28  1  0  0  0
 28 29  1  0  0  0
 29 30  1  0  0  0
 30 31  1  0  0  0
 21 22  1  0  0  0
 22 23  2  0  0  0
  9  1  1  0  0  0
 23 18  1  0  0  0
  8  4  1  0  0  0
 29 25  1  0  0  0
 16 10  1  0  0  0
 31 26  1  0  0  0
 32 33  1  0  0  0
 14 17  1  0  0  0
M  END
> <minimizedAffinity>
-8.11735

> <CNNscore>
0.4126626849

> <CNNaffinity>
7.0285706520

> <CNN_VS>
2.9004287720

> <CNNaffinity_variance>
0.3595609069

$$$$
[H]O[C@]1([H])C([H])([H])C([H])([H])[C@@]([H])(n2c([H])c(-c3c([H])c([H])c(C([H])([H])N4C5([H])C([H])([H])C([H])([H])C4([H])C([H])([H])C5([H])[H])c([H])c3[H])c3c([H])nc(N([H])[C@@]([H])(C([H])([H])[H])C([H])([H])C([H])([H])C([H])([H])[H])nc32)C([H])([H])C1([H])[H]


 38 43  0  0  0  0  0  0  0  0999 V2000
    4.3109    1.7751   20.0143 C   0  0  0  0  0  0  0  0  0  0  0  0
    3.8420    1.0617   18.9757 N   0  0  0  0  0  0  0  0  0  0  0  0
    3.7004    1.5713   17.7302 C   0  0  0  0  0  0  0  0  0  0  0  0
    4.0539    2.9028   17.4925 C   0  0  0  0  0  0  0  0  0  0  0  0
    4.0466    3.7334   16.3979 C   0  0  0  0  0  0  0  0  0  0  0  0
    4.5277    4.9380   16.8598 C   0  0  0  0  0  0  0  0  0  0  0  0
    4.8127    4.8429   18.1688 N   0  0  0  0  0  0  0  0  0  0  0  0
    4.5273    3.5926   18.5814 C   0  0  0  0  0  0  0  0  0  0  0  0
    4.6512    3.0551   19.7883 N   0  0  0  0  0  0  0  0  0  0  0  0
    5.3335    5.9172   18.9604 C   0  0  0  0  0  0  0  0  0  0  0  0
    5.9774    6.9322   18.0466 C   0  0  0  0  0  0  0  0  0  0  0  0
    6.1916    8.2598   18.7576 C   0  0  0  0  0  0  0  0  0  0  0  0
    4.8510    8.8804   19.0052 C   0  0  0  0  0  0  0  0  0  0  0  0
    4.8783    9.5310   20.2351 O   0  0  0  0  0  0  0  0  0  0  0  0
    3.7382    7.8237   18.9914 C   0  0  0  0  0  0  0  0  0  0  0  0
    4.3049    6.6366   19.7789 C   0  0  0  0  0  0  0  0  0  0  0  0
    5.5055   10.3001   20.1234 H   0  0  0  0  0  0  0  0  0  0  0  0
    3.6170    3.3687   15.0575 C   0  0  0  0  0  0  0  0  0  0  0  0
    3.9881    4.1793   14.0066 C   0  0  0  0  0  0  0  0  0  0  0  0
    3.5823    3.8328   12.7274 C   0  0  0  0  0  0  0  0  0  0  0  0
    2.8191    2.6859   12.5504 C   0  0  0  0  0  0  0  0  0  0  0  0
    2.4499    1.8779   13.6027 C   0  0  0  0  0  0  0  0  0  0  0  0
    2.8527    2.2241   14.8622 C   0  0  0  0  0  0  0  0  0  0  0  0
    2.4076    2.3472   11.1671 C   0  0  0  0  0  0  0  0  0  0  0  0
    1.3503    3.2376   10.7776 N   0  0  0  0  0  0  0  0  0  0  0  0
    1.7595    4.1295    9.6778 C   0  0  0  0  0  0  0  0  0  0  0  0
    2.0154    3.1491    8.5822 C   0  0  0  0  0  0  0  0  0  0  0  0
    0.9384    2.0948    8.8313 C   0  0  0  0  0  0  0  0  0  0  0  0
    0.2596    2.5684   10.0928 C   0  0  0  0  0  0  0  0  0  0  0  0
   -0.6053    3.7490    9.7081 C   0  0  0  0  0  0  0  0  0  0  0  0
    0.4398    4.8209    9.4120 C   0  0  0  0  0  0  0  0  0  0  0  0
    4.4295    1.1659   21.2905 N   0  0  0  0  0  0  0  0  0  0  0  0
    3.6524    0.5661   21.6363 H   0  0  0  0  0  0  0  0  0  0  0  0
    5.5833    1.3376   22.1401 C   0  0  0  0  0  0  0  0  0  0  0  0
    6.8644    0.9902   21.4565 C   0  0  0  0  0  0  0  0  0  0  0  0
    5.6162    2.7228   22.7570 C   0  0  0  0  0  0  0  0  0  0  0  0
    3.8964    4.3533   23.3059 C   0  0  0  0  0  0  0  0  0  0  0  0
    4.4154    2.9624   23.6566 C   0  0  0  0  0  0  0  0  0  0  0  0
 37 38  1  0  0  0
 38 36  1  0  0  0
 36 34  1  0  0  0
 34 35  1  0  0  0
 34 32  1  0  0  0
 32  1  1  0  0  0
  1  2  2  0  0  0
  2  3  1  0  0  0
  3  4  2  0  0  0
  4  5  1  0  0  0
  5  6  2  0  0  0
  6  7  1  0  0  0
  7 10  1  0  0  0
 10 11  1  0  0  0
 11 12  1  0  0  0
 12 13  1  0  0  0
 13 14  1  0  0  0
 13 15  1  0  0  0
 15 16  1  0  0  0
  7  8  1  0  0  0
  8  9  2  0  0  0
  5 18  1  0  0  0
 18 19  2  0  0  0
 19 20  1  0  0  0
 20 21  2  0  0  0
 21 24  1  0  0  0
 24 25  1  0  0  0
 25 26  1  0  0  0
 26 27  1  0  0  0
 27 28  1  0  0  0
 28 29  1  0  0  0
 29 30  1  0  0  0
 30 31  1  0  0  0
 21 22  1  0  0  0
 22 23  2  0  0  0
  9  1  1  0  0  0
 23 18  1  0  0  0
  8  4  1  0  0  0
 29 25  1  0  0  0
 16 10  1  0  0  0
 31 26  1  0  0  0
 32 33  1  0  0  0
 14 17  1  0  0  0
M  END
> <minimizedAffinity>
-8.50679

> <CNNscore>
0.4070581794

> <CNNaffinity>
7.1583185196

> <CNN_VS>
2.9138522148

> <CNNaffinity_variance>
0.3936073184

$$$$
[H]O[C@]1([H])C([H])([H])C([H])([H])[C@@]([H])(n2c([H])c(-c3c([H])c([H])c(C([H])([H])N4C5([H])C([H])([H])C([H])([H])C4([H])C([H])([H])C5([H])[H])c([H])c3[H])c3c([H])nc(N([H])[C@@]([H])(C([H])([H])[H])C([H])([H])C([H])([H])C([H])([H])[H])nc32)C([H])([H])C1([H])[H]


 38 43  0  0  0  0  0  0  0  0999 V2000
    4.3223    1.7347   20.1488 C   0  0  0  0  0  0  0  0  0  0  0  0
    3.7906    0.9918   19.1624 N   0  0  0  0  0  0  0  0  0  0  0  0
    3.5995    1.4560   17.9058 C   0  0  0  0  0  0  0  0  0  0  0  0
    3.9669    2.7695   17.5993 C   0  0  0  0  0  0  0  0  0  0  0  0
    3.9234    3.5573   16.4743 C   0  0  0  0  0  0  0  0  0  0  0  0
    4.4491    4.7683   16.8651 C   0  0  0  0  0  0  0  0  0  0  0  0
    4.7946    4.7178   18.1621 N   0  0  0  0  0  0  0  0  0  0  0  0
    4.5051    3.4906   18.6367 C   0  0  0  0  0  0  0  0  0  0  0  0
    4.6761    2.9975   19.8567 N   0  0  0  0  0  0  0  0  0  0  0  0
    5.3732    5.8105   18.8853 C   0  0  0  0  0  0  0  0  0  0  0  0
    5.9665    6.7903   17.9014 C   0  0  0  0  0  0  0  0  0  0  0  0
    6.2362    8.1368   18.5555 C   0  0  0  0  0  0  0  0  0  0  0  0
    4.9192    8.7785   18.8674 C   0  0  0  0  0  0  0  0  0  0  0  0
    5.0295    9.4663   20.0721 O   0  0  0  0  0  0  0  0  0  0  0  0
    3.7990    7.7333   18.9569 C   0  0  0  0  0  0  0  0  0  0  0  0
    4.4044    6.5653   19.7439 C   0  0  0  0  0  0  0  0  0  0  0  0
    5.6548   10.2252   19.8971 H   0  0  0  0  0  0  0  0  0  0  0  0
    3.4232    3.1505   15.1711 C   0  0  0  0  0  0  0  0  0  0  0  0
    3.9102    3.7911   14.0524 C   0  0  0  0  0  0  0  0  0  0  0  0
    3.4373    3.4037   12.8085 C   0  0  0  0  0  0  0  0  0  0  0  0
    2.4931    2.3877   12.7335 C   0  0  0  0  0  0  0  0  0  0  0  0
    2.0084    1.7495   13.8533 C   0  0  0  0  0  0  0  0  0  0  0  0
    2.4780    2.1353   15.0776 C   0  0  0  0  0  0  0  0  0  0  0  0
    2.0146    1.9996   11.3852 C   0  0  0  0  0  0  0  0  0  0  0  0
    3.1358    2.0023   10.4878 N   0  0  0  0  0  0  0  0  0  0  0  0
    3.5077    0.6392   10.0682 C   0  0  0  0  0  0  0  0  0  0  0  0
    2.2813    0.2115    9.3333 C   0  0  0  0  0  0  0  0  0  0  0  0
    1.8341    1.5098    8.6638 C   0  0  0  0  0  0  0  0  0  0  0  0
    2.8185    2.5328    9.1747 C   0  0  0  0  0  0  0  0  0  0  0  0
    4.1213    2.2899    8.4444 C   0  0  0  0  0  0  0  0  0  0  0  0
    4.5859    0.9731    9.0600 C   0  0  0  0  0  0  0  0  0  0  0  0
    4.4900    1.1727   21.4411 N   0  0  0  0  0  0  0  0  0  0  0  0
    3.7168    0.6076   21.8486 H   0  0  0  0  0  0  0  0  0  0  0  0
    5.6888    1.3469   22.2252 C   0  0  0  0  0  0  0  0  0  0  0  0
    6.9331    1.0375   21.4600 C   0  0  0  0  0  0  0  0  0  0  0  0
    5.7349    2.7188   22.8704 C   0  0  0  0  0  0  0  0  0  0  0  0
    3.9023    4.2593   23.3017 C   0  0  0  0  0  0  0  0  0  0  0  0
    4.5342    2.9528   23.7716 C   0  0  0  0  0  0  0  0  0  0  0  0
 37 38  1  0  0  0
 38 36  1  0  0  0
 36 34  1  0  0  0
 34 35  1  0  0  0
 34 32  1  0  0  0
 32  1  1  0  0  0
  1  2  2  0  0  0
  2  3  1  0  0  0
  3  4  2  0  0  0
  4  5  1  0  0  0
  5  6  2  0  0  0
  6  7  1  0  0  0
  7 10  1  0  0  0
 10 11  1  0  0  0
 11 12  1  0  0  0
 12 13  1  0  0  0
 13 14  1  0  0  0
 13 15  1  0  0  0
 15 16  1  0  0  0
  7  8  1  0  0  0
  8  9  2  0  0  0
  5 18  1  0  0  0
 18 19  2  0  0  0
 19 20  1  0  0  0
 20 21  2  0  0  0
 21 24  1  0  0  0
 24 25  1  0  0  0
 25 26  1  0  0  0
 26 27  1  0  0  0
 27 28  1  0  0  0
 28 29  1  0  0  0
 29 30  1  0  0  0
 30 31  1  0  0  0
 21 22  1  0  0  0
 22 23  2  0  0  0
  9  1  1  0  0  0
 23 18  1  0  0  0
  8  4  1  0  0  0
 29 25  1  0  0  0
 16 10  1  0  0  0
 31 26  1  0  0  0
 32 33  1  0  0  0
 14 17  1  0  0  0
M  END
> <minimizedAffinity>
-8.78056

> <CNNscore>
0.3391681612

> <CNNaffinity>
7.0525450706

> <CNN_VS>
2.3919987679

> <CNNaffinity_variance>
0.3011579216

$$$$
[H]O[C@]1([H])C([H])([H])C([H])([H])[C@@]([H])(n2c([H])c(-c3c([H])c([H])c(C([H])([H])N4C5([H])C([H])([H])C([H])([H])C4([H])C([H])([H])C5([H])[H])c([H])c3[H])c3c([H])nc(N([H])[C@@]([H])(C([H])([H])[H])C([H])([H])C([H])([H])C([H])([H])[H])nc32)C([H])([H])C1([H])[H]


 38 43  0  0  0  0  0  0  0  0999 V2000
    3.1755    2.5652   16.7099 C   0  0  0  0  0  0  0  0  0  0  0  0
    2.8225    1.4416   16.0615 N   0  0  0  0  0  0  0  0  0  0  0  0
    2.6363    1.3862   14.7223 C   0  0  0  0  0  0  0  0  0  0  0  0
    2.8152    2.5437   13.9591 C   0  0  0  0  0  0  0  0  0  0  0  0
    2.7173    2.8571   12.6248 C   0  0  0  0  0  0  0  0  0  0  0  0
    3.0274    4.1963   12.5482 C   0  0  0  0  0  0  0  0  0  0  0  0
    3.3001    4.6716   13.7745 N   0  0  0  0  0  0  0  0  0  0  0  0
    3.1750    3.6665   14.6629 C   0  0  0  0  0  0  0  0  0  0  0  0
    3.3479    3.6790   15.9785 N   0  0  0  0  0  0  0  0  0  0  0  0
    3.6611    6.0300   14.0505 C   0  0  0  0  0  0  0  0  0  0  0  0
    3.8974    6.7497   12.7443 C   0  0  0  0  0  0  0  0  0  0  0  0
    3.8915    8.2588   12.9349 C   0  0  0  0  0  0  0  0  0  0  0  0
    2.4944    8.6837   13.2679 C   0  0  0  0  0  0  0  0  0  0  0  0
    2.5498    9.7228   14.1919 O   0  0  0  0  0  0  0  0  0  0  0  0
    1.6785    7.5147   13.8364 C   0  0  0  0  0  0  0  0  0  0  0  0
    2.6254    6.8027   14.8094 C   0  0  0  0  0  0  0  0  0  0  0  0
    2.9500   10.4986   13.7067 H   0  0  0  0  0  0  0  0  0  0  0  0
    2.3624    1.9338   11.5590 C   0  0  0  0  0  0  0  0  0  0  0  0
    3.3717    1.4171   10.7758 C   0  0  0  0  0  0  0  0  0  0  0  0
    3.0369    0.5346    9.7608 C   0  0  0  0  0  0  0  0  0  0  0  0
    1.7016    0.2036    9.5695 C   0  0  0  0  0  0  0  0  0  0  0  0
    0.6953    0.7217   10.3539 C   0  0  0  0  0  0  0  0  0  0  0  0
    1.0308    1.5915   11.3535 C   0  0  0  0  0  0  0  0  0  0  0  0
    1.3842   -0.7458    8.4761 C   0  0  0  0  0  0  0  0  0  0  0  0
    0.3975   -1.6737    8.9533 N   0  0  0  0  0  0  0  0  0  0  0  0
   -0.4634   -2.1694    7.8645 C   0  0  0  0  0  0  0  0  0  0  0  0
    0.5260   -2.8888    7.0099 C   0  0  0  0  0  0  0  0  0  0  0  0
    1.4799   -3.4814    8.0455 C   0  0  0  0  0  0  0  0  0  0  0  0
    0.9580   -2.9500    9.3576 C   0  0  0  0  0  0  0  0  0  0  0  0
   -0.3001   -3.7281    9.6761 C   0  0  0  0  0  0  0  0  0  0  0  0
   -1.2748   -3.1906    8.6322 C   0  0  0  0  0  0  0  0  0  0  0  0
    3.3515    2.5397   18.1178 N   0  0  0  0  0  0  0  0  0  0  0  0
    2.5102    2.5134   18.7300 H   0  0  0  0  0  0  0  0  0  0  0  0
    4.6493    2.5483   18.7487 C   0  0  0  0  0  0  0  0  0  0  0  0
    5.3504    3.8599   18.6166 C   0  0  0  0  0  0  0  0  0  0  0  0
    4.5686    2.0803   20.1892 C   0  0  0  0  0  0  0  0  0  0  0  0
    6.3737    1.7865   21.7932 C   0  0  0  0  0  0  0  0  0  0  0  0
    5.7357    1.1764   20.5491 C   0  0  0  0  0  0  0  0  0  0  0  0
 37 38  1  0  0  0
 38 36  1  0  0  0
 36 34  1  0  0  0
 34 35  1  0  0  0
 34 32  1  0  0  0
 32  1  1  0  0  0
  1  2  2  0  0  0
  2  3  1  0  0  0
  3  4  2  0  0  0
  4  5  1  0  0  0
  5  6  2  0  0  0
  6  7  1  0  0  0
  7 10  1  0  0  0
 10 11  1  0  0  0
 11 12  1  0  0  0
 12 13  1  0  0  0
 13 14  1  0  0  0
 13 15  1  0  0  0
 15 16  1  0  0  0
  7  8  1  0  0  0
  8  9  2  0  0  0
  5 18  1  0  0  0
 18 19  2  0  0  0
 19 20  1  0  0  0
 20 21  2  0  0  0
 21 24  1  0  0  0
 24 25  1  0  0  0
 25 26  1  0  0  0
 26 27  1  0  0  0
 27 28  1  0  0  0
 28 29  1  0  0  0
 29 30  1  0  0  0
 30 31  1  0  0  0
 21 22  1  0  0  0
 22 23  2  0  0  0
  9  1  1  0  0  0
 23 18  1  0  0  0
  8  4  1  0  0  0
 29 25  1  0  0  0
 16 10  1  0  0  0
 31 26  1  0  0  0
 32 33  1  0  0  0
 14 17  1  0  0  0
M  END
> <minimizedAffinity>
-7.09462

> <CNNscore>
0.2817955911

> <CNNaffinity>
6.7017812729

> <CNN_VS>
1.8885324001

> <CNNaffinity_variance>
0.3058750033

$$$$
[H]O[C@]1([H])C([H])([H])C([H])([H])[C@@]([H])(n2c([H])c(-c3c([H])c([H])c(C([H])([H])N4C5([H])C([H])([H])C([H])([H])C4([H])C([H])([H])C5([H])[H])c([H])c3[H])c3c([H])nc(N([H])[C@@]([H])(C([H])([H])[H])C([H])([H])C([H])([H])C([H])([H])[H])nc32)C([H])([H])C1([H])[H]


 38 43  0  0  0  0  0  0  0  0999 V2000
    4.1509    5.9668   20.4848 C   0  0  0  0  0  0  0  0  0  0  0  0
    3.7817    6.2750   19.2294 N   0  0  0  0  0  0  0  0  0  0  0  0
    3.6451    5.3519   18.2494 C   0  0  0  0  0  0  0  0  0  0  0  0
    3.8957    4.0072   18.5375 C   0  0  0  0  0  0  0  0  0  0  0  0
    3.8621    2.8338   17.8231 C   0  0  0  0  0  0  0  0  0  0  0  0
    4.2261    1.8570   18.7225 C   0  0  0  0  0  0  0  0  0  0  0  0
    4.4681    2.4098   19.9224 N   0  0  0  0  0  0  0  0  0  0  0  0
    4.2700    3.7392   19.8312 C   0  0  0  0  0  0  0  0  0  0  0  0
    4.3925    4.6749   20.7642 N   0  0  0  0  0  0  0  0  0  0  0  0
    4.8687    1.6726   21.0835 C   0  0  0  0  0  0  0  0  0  0  0  0
    6.0106    2.3975   21.7547 C   0  0  0  0  0  0  0  0  0  0  0  0
    6.2195    1.9033   23.1781 C   0  0  0  0  0  0  0  0  0  0  0  0
    5.0509    2.3456   24.0040 C   0  0  0  0  0  0  0  0  0  0  0  0
    4.7508    1.3483   24.9269 O   0  0  0  0  0  0  0  0  0  0  0  0
    3.8272    2.6366   23.1246 C   0  0  0  0  0  0  0  0  0  0  0  0
    3.7871    1.4927   22.1048 C   0  0  0  0  0  0  0  0  0  0  0  0
    5.5227    1.3210   25.5602 H   0  0  0  0  0  0  0  0  0  0  0  0
    3.5070    2.7038   16.4192 C   0  0  0  0  0  0  0  0  0  0  0  0
    4.0550    3.5918   15.5191 C   0  0  0  0  0  0  0  0  0  0  0  0
    3.7205    3.4688   14.1797 C   0  0  0  0  0  0  0  0  0  0  0  0
    2.8482    2.4593   13.7934 C   0  0  0  0  0  0  0  0  0  0  0  0
    2.3022    1.5735   14.6953 C   0  0  0  0  0  0  0  0  0  0  0  0
    2.6354    1.6991   16.0150 C   0  0  0  0  0  0  0  0  0  0  0  0
    2.5176    2.3582   12.3518 C   0  0  0  0  0  0  0  0  0  0  0  0
    2.3405    3.6856   11.8330 N   0  0  0  0  0  0  0  0  0  0  0  0
    2.7202    3.7757   10.4117 C   0  0  0  0  0  0  0  0  0  0  0  0
    1.7271    2.8571    9.7818 C   0  0  0  0  0  0  0  0  0  0  0  0
    0.4784    3.0987   10.6279 C   0  0  0  0  0  0  0  0  0  0  0  0
    0.9468    4.0641   11.6887 C   0  0  0  0  0  0  0  0  0  0  0  0
    1.0838    5.4153   11.0216 C   0  0  0  0  0  0  0  0  0  0  0  0
    2.3056    5.2041   10.1320 C   0  0  0  0  0  0  0  0  0  0  0  0
    4.2711    6.9948   21.4557 N   0  0  0  0  0  0  0  0  0  0  0  0
    3.5449    7.0747   22.1969 H   0  0  0  0  0  0  0  0  0  0  0  0
    5.3590    7.9429   21.4670 C   0  0  0  0  0  0  0  0  0  0  0  0
    6.5221    7.5017   20.6413 C   0  0  0  0  0  0  0  0  0  0  0  0
    4.8847    9.3354   21.0973 C   0  0  0  0  0  0  0  0  0  0  0  0
    3.6041    9.7824   19.0780 C   0  0  0  0  0  0  0  0  0  0  0  0
    5.0227    9.5950   19.6066 C   0  0  0  0  0  0  0  0  0  0  0  0
 37 38  1  0  0  0
 38 36  1  0  0  0
 36 34  1  0  0  0
 34 35  1  0  0  0
 34 32  1  0  0  0
 32  1  1  0  0  0
  1  2  2  0  0  0
  2  3  1  0  0  0
  3  4  2  0  0  0
  4  5  1  0  0  0
  5  6  2  0  0  0
  6  7  1  0  0  0
  7 10  1  0  0  0
 10 11  1  0  0  0
 11 12  1  0  0  0
 12 13  1  0  0  0
 13 14  1  0  0  0
 13 15  1  0  0  0
 15 16  1  0  0  0
  7  8  1  0  0  0
  8  9  2  0  0  0
  5 18  1  0  0  0
 18 19  2  0  0  0
 19 20  1  0  0  0
 20 21  2  0  0  0
 21 24  1  0  0  0
 24 25  1  0  0  0
 25 26  1  0  0  0
 26 27  1  0  0  0
 27 28  1  0  0  0
 28 29  1  0  0  0
 29 30  1  0  0  0
 30 31  1  0  0  0
 21 22  1  0  0  0
 22 23  2  0  0  0
  9  1  1  0  0  0
 23 18  1  0  0  0
  8  4  1  0  0  0
 29 25  1  0  0  0
 16 10  1  0  0  0
 31 26  1  0  0  0
 32 33  1  0  0  0
 14 17  1  0  0  0
M  END
> <minimizedAffinity>
-9.88213

> <CNNscore>
0.2389700711

> <CNNaffinity>
7.0242896080

> <CNN_VS>
1.6785949469

> <CNNaffinity_variance>
0.1398275346

$$$$
[H]O[C@]1([H])C([H])([H])C([H])([H])[C@@]([H])(n2c([H])c(-c3c([H])c([H])c(C([H])([H])N4C5([H])C([H])([H])C([H])([H])C4([H])C([H])([H])C5([H])[H])c([H])c3[H])c3c([H])nc(N([H])[C@@]([H])(C([H])([H])[H])C([H])([H])C([H])([H])C([H])([H])[H])nc32)C([H])([H])C1([H])[H]


 38 43  0  0  0  0  0  0  0  0999 V2000
    4.1829    6.0660   20.2580 C   0  0  0  0  0  0  0  0  0  0  0  0
    3.8053    6.3421   18.9976 N   0  0  0  0  0  0  0  0  0  0  0  0
    3.6519    5.3931   18.0452 C   0  0  0  0  0  0  0  0  0  0  0  0
    3.8931    4.0547   18.3690 C   0  0  0  0  0  0  0  0  0  0  0  0
    3.8428    2.8621   17.6884 C   0  0  0  0  0  0  0  0  0  0  0  0
    4.2061    1.9077   18.6119 C   0  0  0  0  0  0  0  0  0  0  0  0
    4.4636    2.4919   19.7936 N   0  0  0  0  0  0  0  0  0  0  0  0
    4.2764    3.8200   19.6666 C   0  0  0  0  0  0  0  0  0  0  0  0
    4.4155    4.7804   20.5716 N   0  0  0  0  0  0  0  0  0  0  0  0
    4.8679    1.7841   20.9715 C   0  0  0  0  0  0  0  0  0  0  0  0
    5.9695    2.5582   21.6549 C   0  0  0  0  0  0  0  0  0  0  0  0
    6.1683    2.0895   23.0883 C   0  0  0  0  0  0  0  0  0  0  0  0
    4.9686    2.4990   23.8860 C   0  0  0  0  0  0  0  0  0  0  0  0
    4.6869    1.5028   24.8159 O   0  0  0  0  0  0  0  0  0  0  0  0
    3.7525    2.7344   22.9798 C   0  0  0  0  0  0  0  0  0  0  0  0
    3.7738    1.5774   21.9743 C   0  0  0  0  0  0  0  0  0  0  0  0
    5.4467    1.5114   25.4640 H   0  0  0  0  0  0  0  0  0  0  0  0
    3.4741    2.6958   16.2918 C   0  0  0  0  0  0  0  0  0  0  0  0
    2.6102    1.6752   15.9586 C   0  0  0  0  0  0  0  0  0  0  0  0
    2.2548    1.5159   14.6284 C   0  0  0  0  0  0  0  0  0  0  0  0
    2.7797    2.3866   13.6821 C   0  0  0  0  0  0  0  0  0  0  0  0
    3.6428    3.4056   14.0183 C   0  0  0  0  0  0  0  0  0  0  0  0
    3.9901    3.5585   15.3315 C   0  0  0  0  0  0  0  0  0  0  0  0
    2.3731    2.1858   12.2707 C   0  0  0  0  0  0  0  0  0  0  0  0
    2.6535    3.3911   11.5421 N   0  0  0  0  0  0  0  0  0  0  0  0
    3.3142    3.1140   10.2539 C   0  0  0  0  0  0  0  0  0  0  0  0
    2.2590    2.3347    9.5425 C   0  0  0  0  0  0  0  0  0  0  0  0
    0.9760    3.0097   10.0240 C   0  0  0  0  0  0  0  0  0  0  0  0
    1.4630    4.0350   11.0181 C   0  0  0  0  0  0  0  0  0  0  0  0
    2.0756    5.1640   10.2183 C   0  0  0  0  0  0  0  0  0  0  0  0
    3.3496    4.5156    9.6842 C   0  0  0  0  0  0  0  0  0  0  0  0
    4.3208    7.1199   21.1984 N   0  0  0  0  0  0  0  0  0  0  0  0
    3.4924    7.4048   21.7603 H   0  0  0  0  0  0  0  0  0  0  0  0
    5.5624    7.8221   21.4165 C   0  0  0  0  0  0  0  0  0  0  0  0
    5.3612    9.2248   21.8869 C   0  0  0  0  0  0  0  0  0  0  0  0
    6.4911    7.0376   22.3235 C   0  0  0  0  0  0  0  0  0  0  0  0
    8.4706    5.6440   22.5621 C   0  0  0  0  0  0  0  0  0  0  0  0
    7.5792    6.3312   21.5325 C   0  0  0  0  0  0  0  0  0  0  0  0
 37 38  1  0  0  0
 38 36  1  0  0  0
 36 34  1  0  0  0
 34 35  1  0  0  0
 34 32  1  0  0  0
 32  1  1  0  0  0
  1  2  2  0  0  0
  2  3  1  0  0  0
  3  4  2  0  0  0
  4  5  1  0  0  0
  5  6  2  0  0  0
  6  7  1  0  0  0
  7 10  1  0  0  0
 10 11  1  0  0  0
 11 12  1  0  0  0
 12 13  1  0  0  0
 13 14  1  0  0  0
 13 15  1  0  0  0
 15 16  1  0  0  0
  7  8  1  0  0  0
  8  9  2  0  0  0
  5 18  1  0  0  0
 18 19  2  0  0  0
 19 20  1  0  0  0
 20 21  2  0  0  0
 21 24  1  0  0  0
 24 25  1  0  0  0
 25 26  1  0  0  0
 26 27  1  0  0  0
 27 28  1  0  0  0
 28 29  1  0  0  0
 29 30  1  0  0  0
 30 31  1  0  0  0
 21 22  1  0  0  0
 22 23  2  0  0  0
  9  1  1  0  0  0
 23 18  1  0  0  0
  8  4  1  0  0  0
 29 25  1  0  0  0
 16 10  1  0  0  0
 31 26  1  0  0  0
 32 33  1  0  0  0
 14 17  1  0  0  0
M  END
> <minimizedAffinity>
-9.60897

> <CNNscore>
0.2119726688

> <CNNaffinity>
6.9697632790

> <CNN_VS>
1.4773993492

> <CNNaffinity_variance>
0.1570647359

$$$$
[H]OC([H])(c1c([H])c([H])c(-c2c([H])nc(N([H])[H])c(C(=O)N([H])[C@@]3([H])C([H])([H])C([H])([H])C([H])([H])[C@]3([H])OC([H])([H])c3c([H])c([H])c(C([H])([H])[H])c(C([H])([H])[H])c3[H])c2[H])c([H])c1[H])C([H])([H])[H]


 38 41  0  0  0  0  0  0  0  0999 V2000
    3.1148    1.7384   15.8146 C   0  0  0  0  0  0  0  0  0  0  0  0
    2.3994    0.5653   15.9732 C   0  0  0  0  0  0  0  0  0  0  0  0
    2.3437   -0.0393   17.1875 N   0  0  0  0  0  0  0  0  0  0  0  0
    2.9839    0.4850   18.2750 C   0  0  0  0  0  0  0  0  0  0  0  0
    2.8693   -0.2175   19.5013 N   0  0  0  0  0  0  0  0  0  0  0  0
    3.7063    1.6498   18.1598 C   0  0  0  0  0  0  0  0  0  0  0  0
    3.7471    2.2420   16.9211 C   0  0  0  0  0  0  0  0  0  0  0  0
    3.6818   -0.7624   19.8461 H   0  0  0  0  0  0  0  0  0  0  0  0
    1.9951   -0.1987   20.0562 H   0  0  0  0  0  0  0  0  0  0  0  0
    3.3668    3.7230   12.0693 C   0  0  0  0  0  0  0  0  0  0  0  0
    4.0206    4.2317   13.1691 C   0  0  0  0  0  0  0  0  0  0  0  0
    3.9224    3.5695   14.3756 C   0  0  0  0  0  0  0  0  0  0  0  0
    3.1862    2.4042   14.5245 C   0  0  0  0  0  0  0  0  0  0  0  0
    2.5544    1.9386   13.4005 C   0  0  0  0  0  0  0  0  0  0  0  0
    2.6154    2.5623   12.1554 C   0  0  0  0  0  0  0  0  0  0  0  0
    2.8848    5.8185   10.8814 C   0  0  0  0  0  0  0  0  0  0  0  0
    3.4420    4.3963   10.7475 C   0  0  0  0  0  0  0  0  0  0  0  0
    2.6045    3.7065    9.8670 O   0  0  0  0  0  0  0  0  0  0  0  0
    2.0695    3.0542   10.3560 H   0  0  0  0  0  0  0  0  0  0  0  0
    4.3699    2.1920   19.3227 C   0  0  0  0  0  0  0  0  0  0  0  0
    5.3673    1.5407   19.7867 O   0  0  0  0  0  0  0  0  0  0  0  0
    3.9838    3.3911   19.9699 N   0  0  0  0  0  0  0  0  0  0  0  0
    3.1822    3.9348   19.6103 H   0  0  0  0  0  0  0  0  0  0  0  0
    4.7040    3.8479   21.1195 C   0  0  0  0  0  0  0  0  0  0  0  0
    5.4867    2.6902   21.7816 C   0  0  0  0  0  0  0  0  0  0  0  0
    6.3089    3.4973   22.7788 C   0  0  0  0  0  0  0  0  0  0  0  0
    6.5373    4.8683   22.1269 C   0  0  0  0  0  0  0  0  0  0  0  0
    5.8739    4.7403   20.7881 C   0  0  0  0  0  0  0  0  0  0  0  0
    5.6285    5.8494   20.0854 O   0  0  0  0  0  0  0  0  0  0  0  0
    6.3441    6.0632   18.9308 C   0  0  0  0  0  0  0  0  0  0  0  0
    5.4664    6.4610   17.7720 C   0  0  0  0  0  0  0  0  0  0  0  0
    4.2572    5.8656   17.5421 C   0  0  0  0  0  0  0  0  0  0  0  0
    3.4935    6.2467   16.4792 C   0  0  0  0  0  0  0  0  0  0  0  0
    3.8607    7.2250   15.5830 C   0  0  0  0  0  0  0  0  0  0  0  0
    3.0262    7.6367   14.4252 C   0  0  0  0  0  0  0  0  0  0  0  0
    5.1085    7.8122   15.8522 C   0  0  0  0  0  0  0  0  0  0  0  0
    5.5506    8.8804   14.9131 C   0  0  0  0  0  0  0  0  0  0  0  0
    5.8920    7.4446   16.9142 C   0  0  0  0  0  0  0  0  0  0  0  0
 16 17  1  0  0  0
 17 18  1  0  0  0
 17 10  1  0  0  0
 10 11  2  0  0  0
 11 12  1  0  0  0
 12 13  2  0  0  0
 13 14  1  0  0  0
 14 15  2  0  0  0
 13  1  1  0  0  0
  1  2  2  0  0  0
  2  3  1  0  0  0
  3  4  2  0  0  0
  4  5  1  0  0  0
  4  6  1  0  0  0
  6  7  2  0  0  0
  6 20  1  0  0  0
 20 21  2  0  0  0
 20 22  1  0  0  0
 22 24  1  0  0  0
 24 25  1  0  0  0
 25 26  1  0  0  0
 26 27  1  0  0  0
 27 28  1  0  0  0
 28 29  1  0  0  0
 29 30  1  0  0  0
 30 31  1  0  0  0
 31 32  2  0  0  0
 32 33  1  0  0  0
 33 34  2  0  0  0
 34 35  1  0  0  0
 34 36  1  0  0  0
 36 37  1  0  0  0
 36 38  2  0  0  0
 15 10  1  0  0  0
  7  1  1  0  0  0
 28 24  1  0  0  0
 38 31  1  0  0  0
 18 19  1  0  0  0
  5  8  1  0  0  0
  5  9  1  0  0  0
 22 23  1  0  0  0
M  END
> <minimizedAffinity>
-8.34717

> <CNNscore>
0.6157165766

> <CNNaffinity>
6.8976821899

> <CNN_VS>
4.2470173836

> <CNNaffinity_variance>
0.7561059594

$$$$
[H]OC([H])(c1c([H])c([H])c(-c2c([H])nc(N([H])[H])c(C(=O)N([H])[C@@]3([H])C([H])([H])C([H])([H])C([H])([H])[C@]3([H])OC([H])([H])c3c([H])c([H])c(C([H])([H])[H])c(C([H])([H])[H])c3[H])c2[H])c([H])c1[H])C([H])([H])[H]


 38 41  0  0  0  0  0  0  0  0999 V2000
    3.6782    2.1341   17.6000 C   0  0  0  0  0  0  0  0  0  0  0  0
    3.1341    0.9096   17.2573 C   0  0  0  0  0  0  0  0  0  0  0  0
    2.4999    0.7555   16.0668 N   0  0  0  0  0  0  0  0  0  0  0  0
    2.3811    1.7910   15.1831 C   0  0  0  0  0  0  0  0  0  0  0  0
    1.7013    1.5352   13.9654 N   0  0  0  0  0  0  0  0  0  0  0  0
    2.9081    3.0250   15.4856 C   0  0  0  0  0  0  0  0  0  0  0  0
    3.5447    3.1550   16.6958 C   0  0  0  0  0  0  0  0  0  0  0  0
    0.7406    1.9055   13.8387 H   0  0  0  0  0  0  0  0  0  0  0  0
    2.1415    0.9880   13.2043 H   0  0  0  0  0  0  0  0  0  0  0  0
    5.6729    2.7434   21.2986 C   0  0  0  0  0  0  0  0  0  0  0  0
    5.3407    3.8181   20.5046 C   0  0  0  0  0  0  0  0  0  0  0  0
    4.6941    3.5944   19.3064 C   0  0  0  0  0  0  0  0  0  0  0  0
    4.3636    2.3213   18.8681 C   0  0  0  0  0  0  0  0  0  0  0  0
    4.7156    1.2855   19.6943 C   0  0  0  0  0  0  0  0  0  0  0  0
    5.3694    1.4474   20.9146 C   0  0  0  0  0  0  0  0  0  0  0  0
    5.4961    2.3458   23.7163 C   0  0  0  0  0  0  0  0  0  0  0  0
    6.3675    2.9301   22.5981 C   0  0  0  0  0  0  0  0  0  0  0  0
    6.4742    4.3033   22.8335 O   0  0  0  0  0  0  0  0  0  0  0  0
    5.9485    4.7971   22.1773 H   0  0  0  0  0  0  0  0  0  0  0  0
    2.7785    4.1051   14.5351 C   0  0  0  0  0  0  0  0  0  0  0  0
    1.5986    4.4078   14.1472 O   0  0  0  0  0  0  0  0  0  0  0  0
    3.8717    4.8404   14.0154 N   0  0  0  0  0  0  0  0  0  0  0  0
    4.8337    4.6145   14.3172 H   0  0  0  0  0  0  0  0  0  0  0  0
    3.6426    5.8946   13.0746 C   0  0  0  0  0  0  0  0  0  0  0  0
    4.0936    7.2585   13.6470 C   0  0  0  0  0  0  0  0  0  0  0  0
    3.9609    8.1026   12.3854 C   0  0  0  0  0  0  0  0  0  0  0  0
    4.2398    7.1543   11.2108 C   0  0  0  0  0  0  0  0  0  0  0  0
    4.5570    5.8483   11.8760 C   0  0  0  0  0  0  0  0  0  0  0  0
    4.5556    4.7354   11.1374 O   0  0  0  0  0  0  0  0  0  0  0  0
    5.4811    4.6205   10.1268 C   0  0  0  0  0  0  0  0  0  0  0  0
    5.5867    3.2136    9.5969 C   0  0  0  0  0  0  0  0  0  0  0  0
    6.7729    2.6916    9.1609 C   0  0  0  0  0  0  0  0  0  0  0  0
    6.8287    1.4169    8.6810 C   0  0  0  0  0  0  0  0  0  0  0  0
    5.7386    0.5803    8.5986 C   0  0  0  0  0  0  0  0  0  0  0  0
    5.8033   -0.8079    8.0740 C   0  0  0  0  0  0  0  0  0  0  0  0
    4.5391    1.1524    9.0552 C   0  0  0  0  0  0  0  0  0  0  0  0
    3.3294    0.2860    8.9909 C   0  0  0  0  0  0  0  0  0  0  0  0
    4.4604    2.4309    9.5411 C   0  0  0  0  0  0  0  0  0  0  0  0
 16 17  1  0  0  0
 17 18  1  0  0  0
 17 10  1  0  0  0
 10 11  2  0  0  0
 11 12  1  0  0  0
 12 13  2  0  0  0
 13 14  1  0  0  0
 14 15  2  0  0  0
 13  1  1  0  0  0
  1  2  2  0  0  0
  2  3  1  0  0  0
  3  4  2  0  0  0
  4  5  1  0  0  0
  4  6  1  0  0  0
  6  7  2  0  0  0
  6 20  1  0  0  0
 20 21  2  0  0  0
 20 22  1  0  0  0
 22 24  1  0  0  0
 24 25  1  0  0  0
 25 26  1  0  0  0
 26 27  1  0  0  0
 27 28  1  0  0  0
 28 29  1  0  0  0
 29 30  1  0  0  0
 30 31  1  0  0  0
 31 32  2  0  0  0
 32 33  1  0  0  0
 33 34  2  0  0  0
 34 35  1  0  0  0
 34 36  1  0  0  0
 36 37  1  0  0  0
 36 38  2  0  0  0
 15 10  1  0  0  0
  7  1  1  0  0  0
 28 24  1  0  0  0
 38 31  1  0  0  0
 18 19  1  0  0  0
  5  8  1  0  0  0
  5  9  1  0  0  0
 22 23  1  0  0  0
M  END
> <minimizedAffinity>
-8.33170

> <CNNscore>
0.6111851335

> <CNNaffinity>
6.5202512741

> <CNN_VS>
3.9850807190

> <CNNaffinity_variance>
0.1480765939

$$$$
[H]OC([H])(c1c([H])c([H])c(-c2c([H])nc(N([H])[H])c(C(=O)N([H])[C@@]3([H])C([H])([H])C([H])([H])C([H])([H])[C@]3([H])OC([H])([H])c3c([H])c([H])c(C([H])([H])[H])c(C([H])([H])[H])c3[H])c2[H])c([H])c1[H])C([H])([H])[H]


 38 41  0  0  0  0  0  0  0  0999 V2000
    3.6917    2.0556   17.6664 C   0  0  0  0  0  0  0  0  0  0  0  0
    3.2122    0.8257   17.2535 C   0  0  0  0  0  0  0  0  0  0  0  0
    2.5984    0.7038   16.0487 N   0  0  0  0  0  0  0  0  0  0  0  0
    2.4376    1.7774   15.2187 C   0  0  0  0  0  0  0  0  0  0  0  0
    1.7836    1.5532   13.9808 N   0  0  0  0  0  0  0  0  0  0  0  0
    2.9000    3.0180   15.5918 C   0  0  0  0  0  0  0  0  0  0  0  0
    3.5171    3.1149   16.8150 C   0  0  0  0  0  0  0  0  0  0  0  0
    0.8072    1.8824   13.8615 H   0  0  0  0  0  0  0  0  0  0  0  0
    2.2580    1.0690   13.1979 H   0  0  0  0  0  0  0  0  0  0  0  0
    5.6294    2.5660   21.4101 C   0  0  0  0  0  0  0  0  0  0  0  0
    5.4937    3.6313   20.5484 C   0  0  0  0  0  0  0  0  0  0  0  0
    4.8615    3.4401   19.3370 C   0  0  0  0  0  0  0  0  0  0  0  0
    4.3542    2.2089   18.9511 C   0  0  0  0  0  0  0  0  0  0  0  0
    4.5143    1.1808   19.8437 C   0  0  0  0  0  0  0  0  0  0  0  0
    5.1433    1.3112   21.0807 C   0  0  0  0  0  0  0  0  0  0  0  0
    5.3346    2.2729   23.8312 C   0  0  0  0  0  0  0  0  0  0  0  0
    6.2998    2.7193   22.7265 C   0  0  0  0  0  0  0  0  0  0  0  0
    6.5511    4.0796   22.9235 O   0  0  0  0  0  0  0  0  0  0  0  0
    6.1042    4.6056   22.2348 H   0  0  0  0  0  0  0  0  0  0  0  0
    2.7268    4.1390   14.6973 C   0  0  0  0  0  0  0  0  0  0  0  0
    1.5388    4.3968   14.3017 O   0  0  0  0  0  0  0  0  0  0  0  0
    3.7861    4.9603   14.2398 N   0  0  0  0  0  0  0  0  0  0  0  0
    4.7538    4.7718   14.5490 H   0  0  0  0  0  0  0  0  0  0  0  0
    3.5149    6.0496   13.3516 C   0  0  0  0  0  0  0  0  0  0  0  0
    3.6552    7.4075   14.0778 C   0  0  0  0  0  0  0  0  0  0  0  0
    3.5556    8.3344   12.8725 C   0  0  0  0  0  0  0  0  0  0  0  0
    4.1408    7.5524   11.6882 C   0  0  0  0  0  0  0  0  0  0  0  0
    4.5763    6.2542   12.2998 C   0  0  0  0  0  0  0  0  0  0  0  0
    4.8563    5.2272   11.4930 O   0  0  0  0  0  0  0  0  0  0  0  0
    4.6039    5.3648   10.1483 C   0  0  0  0  0  0  0  0  0  0  0  0
    5.6585    4.7116    9.2924 C   0  0  0  0  0  0  0  0  0  0  0  0
    6.5296    5.4427    8.5333 C   0  0  0  0  0  0  0  0  0  0  0  0
    7.4660    4.8167    7.7655 C   0  0  0  0  0  0  0  0  0  0  0  0
    7.6083    3.4495    7.6928 C   0  0  0  0  0  0  0  0  0  0  0  0
    8.6294    2.7710    6.8540 C   0  0  0  0  0  0  0  0  0  0  0  0
    6.6957    2.7334    8.4858 C   0  0  0  0  0  0  0  0  0  0  0  0
    6.8106    1.2491    8.4456 C   0  0  0  0  0  0  0  0  0  0  0  0
    5.7469    3.3421    9.2645 C   0  0  0  0  0  0  0  0  0  0  0  0
 16 17  1  0  0  0
 17 18  1  0  0  0
 17 10  1  0  0  0
 10 11  2  0  0  0
 11 12  1  0  0  0
 12 13  2  0  0  0
 13 14  1  0  0  0
 14 15  2  0  0  0
 13  1  1  0  0  0
  1  2  2  0  0  0
  2  3  1  0  0  0
  3  4  2  0  0  0
  4  5  1  0  0  0
  4  6  1  0  0  0
  6  7  2  0  0  0
  6 20  1  0  0  0
 20 21  2  0  0  0
 20 22  1  0  0  0
 22 24  1  0  0  0
 24 25  1  0  0  0
 25 26  1  0  0  0
 26 27  1  0  0  0
 27 28  1  0  0  0
 28 29  1  0  0  0
 29 30  1  0  0  0
 30 31  1  0  0  0
 31 32  2  0  0  0
 32 33  1  0  0  0
 33 34  2  0  0  0
 34 35  1  0  0  0
 34 36  1  0  0  0
 36 37  1  0  0  0
 36 38  2  0  0  0
 15 10  1  0  0  0
  7  1  1  0  0  0
 28 24  1  0  0  0
 38 31  1  0  0  0
 18 19  1  0  0  0
  5  8  1  0  0  0
  5  9  1  0  0  0
 22 23  1  0  0  0
M  END
> <minimizedAffinity>
-8.01762

> <CNNscore>
0.5820035934

> <CNNaffinity>
6.3670358658

> <CNN_VS>
3.7056376934

> <CNNaffinity_variance>
0.2699181736

$$$$
[H]OC([H])(c1c([H])c([H])c(-c2c([H])nc(N([H])[H])c(C(=O)N([H])[C@@]3([H])C([H])([H])C([H])([H])C([H])([H])[C@]3([H])OC([H])([H])c3c([H])c([H])c(C([H])([H])[H])c(C([H])([H])[H])c3[H])c2[H])c([H])c1[H])C([H])([H])[H]


 38 41  0  0  0  0  0  0  0  0999 V2000
    3.7389    2.0340   17.7251 C   0  0  0  0  0  0  0  0  0  0  0  0
    3.3681    0.8028   17.2155 C   0  0  0  0  0  0  0  0  0  0  0  0
    2.8347    0.7139   15.9702 N   0  0  0  0  0  0  0  0  0  0  0  0
    2.6502    1.8226   15.1929 C   0  0  0  0  0  0  0  0  0  0  0  0
    2.0856    1.6312   13.9065 N   0  0  0  0  0  0  0  0  0  0  0  0
    3.0055    3.0658   15.6623 C   0  0  0  0  0  0  0  0  0  0  0  0
    3.5429    3.1289   16.9248 C   0  0  0  0  0  0  0  0  0  0  0  0
    1.0977    1.9039   13.7457 H   0  0  0  0  0  0  0  0  0  0  0  0
    2.6360    1.2259   13.1286 H   0  0  0  0  0  0  0  0  0  0  0  0
    5.4044    2.3197   21.6205 C   0  0  0  0  0  0  0  0  0  0  0  0
    4.7142    1.1898   21.2425 C   0  0  0  0  0  0  0  0  0  0  0  0
    4.1810    1.1212   19.9718 C   0  0  0  0  0  0  0  0  0  0  0  0
    4.3141    2.1525   19.0547 C   0  0  0  0  0  0  0  0  0  0  0  0
    5.0096    3.2549   19.4791 C   0  0  0  0  0  0  0  0  0  0  0  0
    5.5706    3.3834   20.7486 C   0  0  0  0  0  0  0  0  0  0  0  0
    4.9247    2.1227   24.0216 C   0  0  0  0  0  0  0  0  0  0  0  0
    5.9994    2.4427   22.9758 C   0  0  0  0  0  0  0  0  0  0  0  0
    6.3708    3.7770   23.1612 O   0  0  0  0  0  0  0  0  0  0  0  0
    6.0240    4.3250   22.4331 H   0  0  0  0  0  0  0  0  0  0  0  0
    2.8093    4.2247   14.8226 C   0  0  0  0  0  0  0  0  0  0  0  0
    1.6061    4.6058   14.6192 O   0  0  0  0  0  0  0  0  0  0  0  0
    3.8621    4.9555   14.2199 N   0  0  0  0  0  0  0  0  0  0  0  0
    4.8423    4.6669   14.3731 H   0  0  0  0  0  0  0  0  0  0  0  0
    3.5673    6.0920   13.4011 C   0  0  0  0  0  0  0  0  0  0  0  0
    4.1320    7.3890   14.0257 C   0  0  0  0  0  0  0  0  0  0  0  0
    3.8884    8.3408   12.8610 C   0  0  0  0  0  0  0  0  0  0  0  0
    3.9952    7.4883   11.5888 C   0  0  0  0  0  0  0  0  0  0  0  0
    4.3365    6.1220   12.1041 C   0  0  0  0  0  0  0  0  0  0  0  0
    4.2086    5.0764   11.2827 O   0  0  0  0  0  0  0  0  0  0  0  0
    2.9419    4.6660   10.9395 C   0  0  0  0  0  0  0  0  0  0  0  0
    2.9072    3.2379   10.4591 C   0  0  0  0  0  0  0  0  0  0  0  0
    4.0157    2.6173    9.9533 C   0  0  0  0  0  0  0  0  0  0  0  0
    3.9446    1.3263    9.5214 C   0  0  0  0  0  0  0  0  0  0  0  0
    2.7962    0.5681    9.5571 C   0  0  0  0  0  0  0  0  0  0  0  0
    2.7226   -0.8382    9.0844 C   0  0  0  0  0  0  0  0  0  0  0  0
    1.6797    1.2402   10.0825 C   0  0  0  0  0  0  0  0  0  0  0  0
    0.4117    0.4615   10.1467 C   0  0  0  0  0  0  0  0  0  0  0  0
    1.7287    2.5369   10.5220 C   0  0  0  0  0  0  0  0  0  0  0  0
 16 17  1  0  0  0
 17 18  1  0  0  0
 17 10  1  0  0  0
 10 11  2  0  0  0
 11 12  1  0  0  0
 12 13  2  0  0  0
 13 14  1  0  0  0
 14 15  2  0  0  0
 13  1  1  0  0  0
  1  2  2  0  0  0
  2  3  1  0  0  0
  3  4  2  0  0  0
  4  5  1  0  0  0
  4  6  1  0  0  0
  6  7  2  0  0  0
  6 20  1  0  0  0
 20 21  2  0  0  0
 20 22  1  0  0  0
 22 24  1  0  0  0
 24 25  1  0  0  0
 25 26  1  0  0  0
 26 27  1  0  0  0
 27 28  1  0  0  0
 28 29  1  0  0  0
 29 30  1  0  0  0
 30 31  1  0  0  0
 31 32  2  0  0  0
 32 33  1  0  0  0
 33 34  2  0  0  0
 34 35  1  0  0  0
 34 36  1  0  0  0
 36 37  1  0  0  0
 36 38  2  0  0  0
 15 10  1  0  0  0
  7  1  1  0  0  0
 28 24  1  0  0  0
 38 31  1  0  0  0
 18 19  1  0  0  0
  5  8  1  0  0  0
  5  9  1  0  0  0
 22 23  1  0  0  0
M  END
> <minimizedAffinity>
-8.06925

> <CNNscore>
0.5786415935

> <CNNaffinity>
6.6028771400

> <CNN_VS>
3.8206994534

> <CNNaffinity_variance>
0.2282743156

$$$$
[H]OC([H])(c1c([H])c([H])c(-c2c([H])nc(N([H])[H])c(C(=O)N([H])[C@@]3([H])C([H])([H])C([H])([H])C([H])([H])[C@]3([H])OC([H])([H])c3c([H])c([H])c(C([H])([H])[H])c(C([H])([H])[H])c3[H])c2[H])c([H])c1[H])C([H])([H])[H]


 38 41  0  0  0  0  0  0  0  0999 V2000
    3.6446    2.2248   17.7076 C   0  0  0  0  0  0  0  0  0  0  0  0
    3.1701    0.9891   17.3065 C   0  0  0  0  0  0  0  0  0  0  0  0
    2.5398    0.8569   16.1113 N   0  0  0  0  0  0  0  0  0  0  0  0
    2.3572    1.9257   15.2797 C   0  0  0  0  0  0  0  0  0  0  0  0
    1.6871    1.6908   14.0525 N   0  0  0  0  0  0  0  0  0  0  0  0
    2.8139    3.1719   15.6411 C   0  0  0  0  0  0  0  0  0  0  0  0
    3.4480    3.2792   16.8548 C   0  0  0  0  0  0  0  0  0  0  0  0
    0.7061    2.0108   13.9462 H   0  0  0  0  0  0  0  0  0  0  0  0
    2.1543    1.2077   13.2645 H   0  0  0  0  0  0  0  0  0  0  0  0
    5.6405    2.6424   21.4322 C   0  0  0  0  0  0  0  0  0  0  0  0
    5.3543    1.3906   20.9352 C   0  0  0  0  0  0  0  0  0  0  0  0
    4.7037    1.2808   19.7234 C   0  0  0  0  0  0  0  0  0  0  0  0
    4.3245    2.3891   18.9818 C   0  0  0  0  0  0  0  0  0  0  0  0
    4.6321    3.6121   19.5194 C   0  0  0  0  0  0  0  0  0  0  0  0
    5.2867    3.7875   20.7374 C   0  0  0  0  0  0  0  0  0  0  0  0
    5.3893    2.4177   23.8654 C   0  0  0  0  0  0  0  0  0  0  0  0
    6.3407    2.8152   22.7305 C   0  0  0  0  0  0  0  0  0  0  0  0
    6.6238    4.1746   22.8870 O   0  0  0  0  0  0  0  0  0  0  0  0
    6.1737    4.6920   22.1939 H   0  0  0  0  0  0  0  0  0  0  0  0
    2.6176    4.2877   14.7449 C   0  0  0  0  0  0  0  0  0  0  0  0
    1.5208    4.9365   14.8461 O   0  0  0  0  0  0  0  0  0  0  0  0
    3.5611    4.7001   13.7725 N   0  0  0  0  0  0  0  0  0  0  0  0
    4.4554    4.1918   13.6752 H   0  0  0  0  0  0  0  0  0  0  0  0
    3.2752    5.8195   12.9275 C   0  0  0  0  0  0  0  0  0  0  0  0
    4.4277    6.8499   12.9604 C   0  0  0  0  0  0  0  0  0  0  0  0
    3.9666    7.7604   11.8290 C   0  0  0  0  0  0  0  0  0  0  0  0
    3.2023    6.8611   10.8473 C   0  0  0  0  0  0  0  0  0  0  0  0
    3.3153    5.4948   11.4551 C   0  0  0  0  0  0  0  0  0  0  0  0
    2.5091    4.5268   11.0112 O   0  0  0  0  0  0  0  0  0  0  0  0
    1.6433    4.8175    9.9832 C   0  0  0  0  0  0  0  0  0  0  0  0
    0.2225    4.9898   10.4553 C   0  0  0  0  0  0  0  0  0  0  0  0
   -0.1493    4.7244   11.7441 C   0  0  0  0  0  0  0  0  0  0  0  0
   -1.4458    4.8849   12.1333 C   0  0  0  0  0  0  0  0  0  0  0  0
   -2.4507    5.3114   11.2947 C   0  0  0  0  0  0  0  0  0  0  0  0
   -3.8628    5.4839   11.7223 C   0  0  0  0  0  0  0  0  0  0  0  0
   -2.0299    5.5732    9.9798 C   0  0  0  0  0  0  0  0  0  0  0  0
   -3.0796    6.0417    9.0329 C   0  0  0  0  0  0  0  0  0  0  0  0
   -0.7326    5.4186    9.5675 C   0  0  0  0  0  0  0  0  0  0  0  0
 16 17  1  0  0  0
 17 18  1  0  0  0
 17 10  1  0  0  0
 10 11  2  0  0  0
 11 12  1  0  0  0
 12 13  2  0  0  0
 13 14  1  0  0  0
 14 15  2  0  0  0
 13  1  1  0  0  0
  1  2  2  0  0  0
  2  3  1  0  0  0
  3  4  2  0  0  0
  4  5  1  0  0  0
  4  6  1  0  0  0
  6  7  2  0  0  0
  6 20  1  0  0  0
 20 21  2  0  0  0
 20 22  1  0  0  0
 22 24  1  0  0  0
 24 25  1  0  0  0
 25 26  1  0  0  0
 26 27  1  0  0  0
 27 28  1  0  0  0
 28 29  1  0  0  0
 29 30  1  0  0  0
 30 31  1  0  0  0
 31 32  2  0  0  0
 32 33  1  0  0  0
 33 34  2  0  0  0
 34 35  1  0  0  0
 34 36  1  0  0  0
 36 37  1  0  0  0
 36 38  2  0  0  0
 15 10  1  0  0  0
  7  1  1  0  0  0
 28 24  1  0  0  0
 38 31  1  0  0  0
 18 19  1  0  0  0
  5  8  1  0  0  0
  5  9  1  0  0  0
 22 23  1  0  0  0
M  END
> <minimizedAffinity>
-8.02706

> <CNNscore>
0.5258845687

> <CNNaffinity>
6.4291772842

> <CNN_VS>
3.3810050488

> <CNNaffinity_variance>
0.4116154611

$$$$
[H]OC([H])(c1c([H])c([H])c(-c2c([H])nc(N([H])[H])c(C(=O)N([H])[C@@]3([H])C([H])([H])C([H])([H])C([H])([H])[C@]3([H])OC([H])([H])c3c([H])c([H])c(C([H])([H])[H])c(C([H])([H])[H])c3[H])c2[H])c([H])c1[H])C([H])([H])[H]


 38 41  0  0  0  0  0  0  0  0999 V2000
    3.4698    1.2325   18.9539 C   0  0  0  0  0  0  0  0  0  0  0  0
    2.9213    0.0281   18.5519 C   0  0  0  0  0  0  0  0  0  0  0  0
    2.4774   -0.1265   17.2782 N   0  0  0  0  0  0  0  0  0  0  0  0
    2.5576    0.8889   16.3672 C   0  0  0  0  0  0  0  0  0  0  0  0
    2.0675    0.6343   15.0613 N   0  0  0  0  0  0  0  0  0  0  0  0
    3.0962    2.1025   16.7267 C   0  0  0  0  0  0  0  0  0  0  0  0
    3.5380    2.2334   18.0206 C   0  0  0  0  0  0  0  0  0  0  0  0
    1.1610    1.0493   14.7749 H   0  0  0  0  0  0  0  0  0  0  0  0
    2.5929    0.0446   14.3914 H   0  0  0  0  0  0  0  0  0  0  0  0
    4.8308    1.7512   22.9425 C   0  0  0  0  0  0  0  0  0  0  0  0
    3.5583    1.2851   22.6990 C   0  0  0  0  0  0  0  0  0  0  0  0
    3.1385    1.1262   21.3943 C   0  0  0  0  0  0  0  0  0  0  0  0
    3.9536    1.4196   20.3118 C   0  0  0  0  0  0  0  0  0  0  0  0
    5.2107    1.8801   20.6069 C   0  0  0  0  0  0  0  0  0  0  0  0
    5.6917    2.0617   21.9025 C   0  0  0  0  0  0  0  0  0  0  0  0
    6.8047    1.5154   24.3856 C   0  0  0  0  0  0  0  0  0  0  0  0
    5.3318    1.9379   24.3282 C   0  0  0  0  0  0  0  0  0  0  0  0
    4.6212    1.0699   25.1613 O   0  0  0  0  0  0  0  0  0  0  0  0
    4.0834    0.4577   24.6259 H   0  0  0  0  0  0  0  0  0  0  0  0
    3.1788    3.1610   15.7471 C   0  0  0  0  0  0  0  0  0  0  0  0
    2.0897    3.5320   15.1899 O   0  0  0  0  0  0  0  0  0  0  0  0
    4.3838    3.8049   15.3741 N   0  0  0  0  0  0  0  0  0  0  0  0
    5.2753    3.5229   15.8137 H   0  0  0  0  0  0  0  0  0  0  0  0
    4.3650    4.8447   14.3906 C   0  0  0  0  0  0  0  0  0  0  0  0
    3.7725    4.3368   13.0556 C   0  0  0  0  0  0  0  0  0  0  0  0
    3.6598    5.6678   12.3225 C   0  0  0  0  0  0  0  0  0  0  0  0
    3.4157    6.7278   13.4057 C   0  0  0  0  0  0  0  0  0  0  0  0
    3.3593    5.9320   14.6756 C   0  0  0  0  0  0  0  0  0  0  0  0
    3.4564    6.5768   15.8413 O   0  0  0  0  0  0  0  0  0  0  0  0
    4.6333    6.4798   16.5459 C   0  0  0  0  0  0  0  0  0  0  0  0
    4.4136    6.1099   17.9902 C   0  0  0  0  0  0  0  0  0  0  0  0
    3.1713    5.8194   18.4821 C   0  0  0  0  0  0  0  0  0  0  0  0
    3.0099    5.4960   19.7965 C   0  0  0  0  0  0  0  0  0  0  0  0
    4.0434    5.4365   20.7038 C   0  0  0  0  0  0  0  0  0  0  0  0
    3.8634    5.0848   22.1357 C   0  0  0  0  0  0  0  0  0  0  0  0
    5.3031    5.7417   20.1611 C   0  0  0  0  0  0  0  0  0  0  0  0
    6.4566    5.6876   21.1017 C   0  0  0  0  0  0  0  0  0  0  0  0
    5.4879    6.0692   18.8437 C   0  0  0  0  0  0  0  0  0  0  0  0
 16 17  1  0  0  0
 17 18  1  0  0  0
 17 10  1  0  0  0
 10 11  2  0  0  0
 11 12  1  0  0  0
 12 13  2  0  0  0
 13 14  1  0  0  0
 14 15  2  0  0  0
 13  1  1  0  0  0
  1  2  2  0  0  0
  2  3  1  0  0  0
  3  4  2  0  0  0
  4  5  1  0  0  0
  4  6  1  0  0  0
  6  7  2  0  0  0
  6 20  1  0  0  0
 20 21  2  0  0  0
 20 22  1  0  0  0
 22 24  1  0  0  0
 24 25  1  0  0  0
 25 26  1  0  0  0
 26 27  1  0  0  0
 27 28  1  0  0  0
 28 29  1  0  0  0
 29 30  1  0  0  0
 30 31  1  0  0  0
 31 32  2  0  0  0
 32 33  1  0  0  0
 33 34  2  0  0  0
 34 35  1  0  0  0
 34 36  1  0  0  0
 36 37  1  0  0  0
 36 38  2  0  0  0
 15 10  1  0  0  0
  7  1  1  0  0  0
 28 24  1  0  0  0
 38 31  1  0  0  0
 18 19  1  0  0  0
  5  8  1  0  0  0
  5  9  1  0  0  0
 22 23  1  0  0  0
M  END
> <minimizedAffinity>
-7.65230

> <CNNscore>
0.5162316561

> <CNNaffinity>
6.9060745239

> <CNN_VS>
3.5651342869

> <CNNaffinity_variance>
0.0741268545

$$$$
[H]OC([H])(c1c([H])c([H])c(-c2c([H])nc(N([H])[H])c(C(=O)N([H])[C@@]3([H])C([H])([H])C([H])([H])C([H])([H])[C@]3([H])OC([H])([H])c3c([H])c([H])c(C([H])([H])[H])c(C([H])([H])[H])c3[H])c2[H])c([H])c1[H])C([H])([H])[H]


 38 41  0  0  0  0  0  0  0  0999 V2000
    3.6831    2.0734   17.7092 C   0  0  0  0  0  0  0  0  0  0  0  0
    3.2334    0.8501   17.2464 C   0  0  0  0  0  0  0  0  0  0  0  0
    2.6309    0.7607   16.0331 N   0  0  0  0  0  0  0  0  0  0  0  0
    2.4526    1.8613   15.2430 C   0  0  0  0  0  0  0  0  0  0  0  0
    1.8123    1.6702   13.9924 N   0  0  0  0  0  0  0  0  0  0  0  0
    2.8852    3.0966   15.6662 C   0  0  0  0  0  0  0  0  0  0  0  0
    3.4914    3.1603   16.8971 C   0  0  0  0  0  0  0  0  0  0  0  0
    0.8298    1.9826   13.8779 H   0  0  0  0  0  0  0  0  0  0  0  0
    2.3026    1.2263   13.1955 H   0  0  0  0  0  0  0  0  0  0  0  0
    5.5806    2.4832   21.4857 C   0  0  0  0  0  0  0  0  0  0  0  0
    5.3871    3.5854   20.6835 C   0  0  0  0  0  0  0  0  0  0  0  0
    4.7694    3.4266   19.4600 C   0  0  0  0  0  0  0  0  0  0  0  0
    4.3330    2.1921   19.0040 C   0  0  0  0  0  0  0  0  0  0  0  0
    4.5487    1.1267   19.8392 C   0  0  0  0  0  0  0  0  0  0  0  0
    5.1666    1.2234   21.0848 C   0  0  0  0  0  0  0  0  0  0  0  0
    5.2275    2.2282   23.9033 C   0  0  0  0  0  0  0  0  0  0  0  0
    6.2384    2.6006   22.8122 C   0  0  0  0  0  0  0  0  0  0  0  0
    6.5776    3.9423   23.0050 O   0  0  0  0  0  0  0  0  0  0  0  0
    6.1783    4.4921   22.3057 H   0  0  0  0  0  0  0  0  0  0  0  0
    2.6939    4.2467   14.8133 C   0  0  0  0  0  0  0  0  0  0  0  0
    1.4955    4.6562   14.6394 O   0  0  0  0  0  0  0  0  0  0  0  0
    3.7468    4.9395   14.1673 N   0  0  0  0  0  0  0  0  0  0  0  0
    4.7233    4.6274   14.2961 H   0  0  0  0  0  0  0  0  0  0  0  0
    3.4571    6.0701   13.3386 C   0  0  0  0  0  0  0  0  0  0  0  0
    4.1752    7.3378   13.8565 C   0  0  0  0  0  0  0  0  0  0  0  0
    3.8884    8.2700   12.6857 C   0  0  0  0  0  0  0  0  0  0  0  0
    3.8052    7.3737   11.4422 C   0  0  0  0  0  0  0  0  0  0  0  0
    4.0940    6.0013   11.9732 C   0  0  0  0  0  0  0  0  0  0  0  0
    3.8083    4.9444   11.2079 O   0  0  0  0  0  0  0  0  0  0  0  0
    2.5360    4.4254   11.2588 C   0  0  0  0  0  0  0  0  0  0  0  0
    1.5762    5.1582   10.3571 C   0  0  0  0  0  0  0  0  0  0  0  0
    0.4198    5.7140   10.8298 C   0  0  0  0  0  0  0  0  0  0  0  0
   -0.4281    6.3633    9.9827 C   0  0  0  0  0  0  0  0  0  0  0  0
   -0.2004    6.5090    8.6329 C   0  0  0  0  0  0  0  0  0  0  0  0
   -1.1274    7.2163    7.7127 C   0  0  0  0  0  0  0  0  0  0  0  0
    0.9966    5.9246    8.1854 C   0  0  0  0  0  0  0  0  0  0  0  0
    1.2919    6.0580    6.7317 C   0  0  0  0  0  0  0  0  0  0  0  0
    1.8627    5.2677    9.0191 C   0  0  0  0  0  0  0  0  0  0  0  0
 16 17  1  0  0  0
 17 18  1  0  0  0
 17 10  1  0  0  0
 10 11  2  0  0  0
 11 12  1  0  0  0
 12 13  2  0  0  0
 13 14  1  0  0  0
 14 15  2  0  0  0
 13  1  1  0  0  0
  1  2  2  0  0  0
  2  3  1  0  0  0
  3  4  2  0  0  0
  4  5  1  0  0  0
  4  6  1  0  0  0
  6  7  2  0  0  0
  6 20  1  0  0  0
 20 21  2  0  0  0
 20 22  1  0  0  0
 22 24  1  0  0  0
 24 25  1  0  0  0
 25 26  1  0  0  0
 26 27  1  0  0  0
 27 28  1  0  0  0
 28 29  1  0  0  0
 29 30  1  0  0  0
 30 31  1  0  0  0
 31 32  2  0  0  0
 32 33  1  0  0  0
 33 34  2  0  0  0
 34 35  1  0  0  0
 34 36  1  0  0  0
 36 37  1  0  0  0
 36 38  2  0  0  0
 15 10  1  0  0  0
  7  1  1  0  0  0
 28 24  1  0  0  0
 38 31  1  0  0  0
 18 19  1  0  0  0
  5  8  1  0  0  0
  5  9  1  0  0  0
 22 23  1  0  0  0
M  END
> <minimizedAffinity>
-7.58613

> <CNNscore>
0.5150161386

> <CNNaffinity>
6.3486976624

> <CNN_VS>
3.2696816921

> <CNNaffinity_variance>
0.4377764761

$$$$
[H]OC([H])(c1c([H])c([H])c(-c2c([H])nc(N([H])[H])c(C(=O)N([H])[C@@]3([H])C([H])([H])C([H])([H])C([H])([H])[C@]3([H])OC([H])([H])c3c([H])c([H])c(C([H])([H])[H])c(C([H])([H])[H])c3[H])c2[H])c([H])c1[H])C([H])([H])[H]


 38 41  0  0  0  0  0  0  0  0999 V2000
    3.7497    2.1602   17.6153 C   0  0  0  0  0  0  0  0  0  0  0  0
    3.4885    0.9228   17.0553 C   0  0  0  0  0  0  0  0  0  0  0  0
    2.9270    0.8385   15.8220 N   0  0  0  0  0  0  0  0  0  0  0  0
    2.6071    1.9577   15.1063 C   0  0  0  0  0  0  0  0  0  0  0  0
    2.0235    1.7702   13.8278 N   0  0  0  0  0  0  0  0  0  0  0  0
    2.8504    3.2073   15.6273 C   0  0  0  0  0  0  0  0  0  0  0  0
    3.4190    3.2657   16.8763 C   0  0  0  0  0  0  0  0  0  0  0  0
    1.0086    1.9479   13.7077 H   0  0  0  0  0  0  0  0  0  0  0  0
    2.5866    1.4601   13.0160 H   0  0  0  0  0  0  0  0  0  0  0  0
    5.5109    2.5566   21.4587 C   0  0  0  0  0  0  0  0  0  0  0  0
    5.3707    3.6571   20.6431 C   0  0  0  0  0  0  0  0  0  0  0  0
    4.7966    3.5027   19.3980 C   0  0  0  0  0  0  0  0  0  0  0  0
    4.3525    2.2743   18.9331 C   0  0  0  0  0  0  0  0  0  0  0  0
    4.5143    1.2103   19.7822 C   0  0  0  0  0  0  0  0  0  0  0  0
    5.0865    1.3028   21.0498 C   0  0  0  0  0  0  0  0  0  0  0  0
    5.0580    2.3368   23.8630 C   0  0  0  0  0  0  0  0  0  0  0  0
    6.1202    2.6694   22.8084 C   0  0  0  0  0  0  0  0  0  0  0  0
    6.4896    4.0032   23.0017 O   0  0  0  0  0  0  0  0  0  0  0  0
    6.1332    4.5565   22.2823 H   0  0  0  0  0  0  0  0  0  0  0  0
    2.5117    4.3783   14.8521 C   0  0  0  0  0  0  0  0  0  0  0  0
    1.3409    4.4259   14.3410 O   0  0  0  0  0  0  0  0  0  0  0  0
    3.3924    5.4649   14.6298 N   0  0  0  0  0  0  0  0  0  0  0  0
    4.3425    5.4486   15.0357 H   0  0  0  0  0  0  0  0  0  0  0  0
    2.9656    6.5831   13.8447 C   0  0  0  0  0  0  0  0  0  0  0  0
    3.2636    7.9168   14.5683 C   0  0  0  0  0  0  0  0  0  0  0  0
    2.9404    8.8814   13.4339 C   0  0  0  0  0  0  0  0  0  0  0  0
    3.2707    8.1327   12.1351 C   0  0  0  0  0  0  0  0  0  0  0  0
    3.8015    6.8132   12.6106 C   0  0  0  0  0  0  0  0  0  0  0  0
    3.9039    5.8100   11.7348 O   0  0  0  0  0  0  0  0  0  0  0  0
    5.1594    5.3572   11.4034 C   0  0  0  0  0  0  0  0  0  0  0  0
    5.1194    4.1319   10.5270 C   0  0  0  0  0  0  0  0  0  0  0  0
    3.9986    3.3563   10.4179 C   0  0  0  0  0  0  0  0  0  0  0  0
    4.0018    2.2506    9.6207 C   0  0  0  0  0  0  0  0  0  0  0  0
    5.0908    1.8379    8.8866 C   0  0  0  0  0  0  0  0  0  0  0  0
    5.0908    0.6317    8.0198 C   0  0  0  0  0  0  0  0  0  0  0  0
    6.2222    2.6596    9.0251 C   0  0  0  0  0  0  0  0  0  0  0  0
    7.4274    2.2583    8.2474 C   0  0  0  0  0  0  0  0  0  0  0  0
    6.2409    3.7748    9.8206 C   0  0  0  0  0  0  0  0  0  0  0  0
 16 17  1  0  0  0
 17 18  1  0  0  0
 17 10  1  0  0  0
 10 11  2  0  0  0
 11 12  1  0  0  0
 12 13  2  0  0  0
 13 14  1  0  0  0
 14 15  2  0  0  0
 13  1  1  0  0  0
  1  2  2  0  0  0
  2  3  1  0  0  0
  3  4  2  0  0  0
  4  5  1  0  0  0
  4  6  1  0  0  0
  6  7  2  0  0  0
  6 20  1  0  0  0
 20 21  2  0  0  0
 20 22  1  0  0  0
 22 24  1  0  0  0
 24 25  1  0  0  0
 25 26  1  0  0  0
 26 27  1  0  0  0
 27 28  1  0  0  0
 28 29  1  0  0  0
 29 30  1  0  0  0
 30 31  1  0  0  0
 31 32  2  0  0  0
 32 33  1  0  0  0
 33 34  2  0  0  0
 34 35  1  0  0  0
 34 36  1  0  0  0
 36 37  1  0  0  0
 36 38  2  0  0  0
 15 10  1  0  0  0
  7  1  1  0  0  0
 28 24  1  0  0  0
 38 31  1  0  0  0
 18 19  1  0  0  0
  5  8  1  0  0  0
  5  9  1  0  0  0
 22 23  1  0  0  0
M  END
> <minimizedAffinity>
-8.01522

> <CNNscore>
0.4797434807

> <CNNaffinity>
6.4260511398

> <CNN_VS>
3.0828561783

> <CNNaffinity_variance>
0.1339071244

$$$$
[H]OC([H])(c1c([H])c([H])c(-c2c([H])nc(N([H])[H])c(C(=O)N([H])[C@@]3([H])C([H])([H])C([H])([H])C([H])([H])[C@]3([H])OC([H])([H])c3c([H])c([H])c(C([H])([H])[H])c(C([H])([H])[H])c3[H])c2[H])c([H])c1[H])C([H])([H])[H]


 38 41  0  0  0  0  0  0  0  0999 V2000
    3.5204    2.4914   17.5326 C   0  0  0  0  0  0  0  0  0  0  0  0
    3.1737    1.2340   17.0726 C   0  0  0  0  0  0  0  0  0  0  0  0
    2.5449    1.0957   15.8773 N   0  0  0  0  0  0  0  0  0  0  0  0
    2.2394    2.1794   15.1030 C   0  0  0  0  0  0  0  0  0  0  0  0
    1.5814    1.9364   13.8707 N   0  0  0  0  0  0  0  0  0  0  0  0
    2.5667    3.4473   15.5240 C   0  0  0  0  0  0  0  0  0  0  0  0
    3.2023    3.5604   16.7364 C   0  0  0  0  0  0  0  0  0  0  0  0
    0.5707    2.1555   13.7889 H   0  0  0  0  0  0  0  0  0  0  0  0
    2.0862    1.5457   13.0554 H   0  0  0  0  0  0  0  0  0  0  0  0
    5.4888    2.9305   21.2692 C   0  0  0  0  0  0  0  0  0  0  0  0
    4.9145    1.7274   20.9250 C   0  0  0  0  0  0  0  0  0  0  0  0
    4.2793    1.6098   19.7058 C   0  0  0  0  0  0  0  0  0  0  0  0
    4.1963    2.6630   18.8080 C   0  0  0  0  0  0  0  0  0  0  0  0
    4.7836    3.8389   19.1972 C   0  0  0  0  0  0  0  0  0  0  0  0
    5.4386    4.0194   20.4143 C   0  0  0  0  0  0  0  0  0  0  0  0
    5.3750    2.4121   23.6677 C   0  0  0  0  0  0  0  0  0  0  0  0
    6.1860    3.1087   22.5685 C   0  0  0  0  0  0  0  0  0  0  0  0
    6.1958    4.4740   22.8658 O   0  0  0  0  0  0  0  0  0  0  0  0
    5.6266    4.9570   22.2387 H   0  0  0  0  0  0  0  0  0  0  0  0
    2.2418    4.5795   14.6878 C   0  0  0  0  0  0  0  0  0  0  0  0
    2.7513    4.6094   13.5157 O   0  0  0  0  0  0  0  0  0  0  0  0
    1.3992    5.6454   15.0874 N   0  0  0  0  0  0  0  0  0  0  0  0
    0.9745    5.6402   16.0293 H   0  0  0  0  0  0  0  0  0  0  0  0
    1.1368    6.7266   14.1868 C   0  0  0  0  0  0  0  0  0  0  0  0
    2.4502    7.4093   13.7398 C   0  0  0  0  0  0  0  0  0  0  0  0
    1.8902    8.3133   12.6485 C   0  0  0  0  0  0  0  0  0  0  0  0
    0.6765    7.5738   12.0684 C   0  0  0  0  0  0  0  0  0  0  0  0
    0.6496    6.2824   12.8303 C   0  0  0  0  0  0  0  0  0  0  0  0
   -0.4548    5.5326   12.7827 O   0  0  0  0  0  0  0  0  0  0  0  0
   -0.5035    4.4973   11.8790 C   0  0  0  0  0  0  0  0  0  0  0  0
   -0.8837    4.9558   10.4946 C   0  0  0  0  0  0  0  0  0  0  0  0
   -0.0084    4.8945    9.4460 C   0  0  0  0  0  0  0  0  0  0  0  0
   -0.3854    5.3253    8.2088 C   0  0  0  0  0  0  0  0  0  0  0  0
   -1.6304    5.8379    7.9220 C   0  0  0  0  0  0  0  0  0  0  0  0
   -2.0370    6.3075    6.5727 C   0  0  0  0  0  0  0  0  0  0  0  0
   -2.5006    5.8851    9.0243 C   0  0  0  0  0  0  0  0  0  0  0  0
   -3.8630    6.4283    8.7656 C   0  0  0  0  0  0  0  0  0  0  0  0
   -2.1425    5.4576   10.2757 C   0  0  0  0  0  0  0  0  0  0  0  0
 16 17  1  0  0  0
 17 18  1  0  0  0
 17 10  1  0  0  0
 10 11  2  0  0  0
 11 12  1  0  0  0
 12 13  2  0  0  0
 13 14  1  0  0  0
 14 15  2  0  0  0
 13  1  1  0  0  0
  1  2  2  0  0  0
  2  3  1  0  0  0
  3  4  2  0  0  0
  4  5  1  0  0  0
  4  6  1  0  0  0
  6  7  2  0  0  0
  6 20  1  0  0  0
 20 21  2  0  0  0
 20 22  1  0  0  0
 22 24  1  0  0  0
 24 25  1  0  0  0
 25 26  1  0  0  0
 26 27  1  0  0  0
 27 28  1  0  0  0
 28 29  1  0  0  0
 29 30  1  0  0  0
 30 31  1  0  0  0
 31 32  2  0  0  0
 32 33  1  0  0  0
 33 34  2  0  0  0
 34 35  1  0  0  0
 34 36  1  0  0  0
 36 37  1  0  0  0
 36 38  2  0  0  0
 15 10  1  0  0  0
  7  1  1  0  0  0
 28 24  1  0  0  0
 38 31  1  0  0  0
 18 19  1  0  0  0
  5  8  1  0  0  0
  5  9  1  0  0  0
 22 23  1  0  0  0
M  END
> <minimizedAffinity>
-7.96549

> <CNNscore>
0.4484592378

> <CNNaffinity>
6.1469125748

> <CNN_VS>
2.7566397190

> <CNNaffinity_variance>
0.3360464275

$$$$
[H]c1nc(N2C([H])([H])C([H])([H])N([H])C([H])([H])C2([H])[H])c([H])c([H])c1-c1nn(C([H])([H])C2([H])C([H])([H])C([H])([H])N([H])C([H])([H])C2([H])[H])c2nc(N([H])C([H])([H])C([H])([H])C([H])([H])C([H])([H])[H])nc([H])c12


 36 40  0  0  0  0  0  0  0  0999 V2000
    3.0158    0.1895   19.0585 C   0  0  0  0  0  0  0  0  0  0  0  0
    2.3086   -0.0564   17.9442 N   0  0  0  0  0  0  0  0  0  0  0  0
    2.3116    0.7239   16.8526 C   0  0  0  0  0  0  0  0  0  0  0  0
    3.1022    1.8664   16.8783 C   0  0  0  0  0  0  0  0  0  0  0  0
    3.3704    2.8755   16.0090 C   0  0  0  0  0  0  0  0  0  0  0  0
    4.2293    3.7153   16.5990 N   0  0  0  0  0  0  0  0  0  0  0  0
    4.5346    3.3027   17.8124 N   0  0  0  0  0  0  0  0  0  0  0  0
    3.8465    2.1446   18.0239 C   0  0  0  0  0  0  0  0  0  0  0  0
    3.7735    1.2977   19.0646 N   0  0  0  0  0  0  0  0  0  0  0  0
    2.8161    3.0014   14.6633 C   0  0  0  0  0  0  0  0  0  0  0  0
    3.0021    2.0043   13.7429 C   0  0  0  0  0  0  0  0  0  0  0  0
    2.4659    2.1618   12.4828 C   0  0  0  0  0  0  0  0  0  0  0  0
    1.7541    3.2858   12.1285 C   0  0  0  0  0  0  0  0  0  0  0  0
    1.6077    4.2276   13.0777 N   0  0  0  0  0  0  0  0  0  0  0  0
    2.1077    4.1238   14.3144 C   0  0  0  0  0  0  0  0  0  0  0  0
    1.1865    3.4487   10.8352 N   0  0  0  0  0  0  0  0  0  0  0  0
   -0.1126    4.0633   10.7309 C   0  0  0  0  0  0  0  0  0  0  0  0
   -0.3999    4.3149    9.2550 C   0  0  0  0  0  0  0  0  0  0  0  0
   -0.3422    3.0580    8.5726 N   0  0  0  0  0  0  0  0  0  0  0  0
    0.9834    2.5149    8.5552 C   0  0  0  0  0  0  0  0  0  0  0  0
    1.8780    3.0076    9.6679 C   0  0  0  0  0  0  0  0  0  0  0  0
   -0.9726    2.3712    9.0478 H   0  0  0  0  0  0  0  0  0  0  0  0
    2.9642   -0.6907   20.1948 N   0  0  0  0  0  0  0  0  0  0  0  0
    2.4450   -1.5646   20.0819 H   0  0  0  0  0  0  0  0  0  0  0  0
    3.6491   -0.3457   21.3936 C   0  0  0  0  0  0  0  0  0  0  0  0
    3.1729    0.7929   22.1942 C   0  0  0  0  0  0  0  0  0  0  0  0
    5.5326    1.6127   22.1296 C   0  0  0  0  0  0  0  0  0  0  0  0
    4.2467    1.5673   22.8533 C   0  0  0  0  0  0  0  0  0  0  0  0
    5.4062    3.8877   18.7918 C   0  0  0  0  0  0  0  0  0  0  0  0
    4.7242    5.0654   19.5069 C   0  0  0  0  0  0  0  0  0  0  0  0
    5.6703    6.1770   19.7312 C   0  0  0  0  0  0  0  0  0  0  0  0
    5.6066    6.8643   21.0402 C   0  0  0  0  0  0  0  0  0  0  0  0
    4.2196    6.7817   21.5216 N   0  0  0  0  0  0  0  0  0  0  0  0
    4.0723    5.3699   21.9171 C   0  0  0  0  0  0  0  0  0  0  0  0
    3.9579    4.5732   20.6706 C   0  0  0  0  0  0  0  0  0  0  0  0
    3.6216    6.8938   20.6563 H   0  0  0  0  0  0  0  0  0  0  0  0
 27 28  1  0  0  0
 28 26  1  0  0  0
 26 25  1  0  0  0
 25 23  1  0  0  0
 23  1  1  0  0  0
  1  2  2  0  0  0
  2  3  1  0  0  0
  3  4  2  0  0  0
  4  5  1  0  0  0
  5  6  2  0  0  0
  6  7  1  0  0  0
  7 29  1  0  0  0
 29 30  1  0  0  0
 30 31  1  0  0  0
 31 32  1  0  0  0
 32 33  1  0  0  0
 33 34  1  0  0  0
 34 35  1  0  0  0
  7  8  1  0  0  0
  8  9  2  0  0  0
  5 10  1  0  0  0
 10 11  2  0  0  0
 11 12  1  0  0  0
 12 13  2  0  0  0
 13 14  1  0  0  0
 14 15  2  0  0  0
 13 16  1  0  0  0
 16 17  1  0  0  0
 17 18  1  0  0  0
 18 19  1  0  0  0
 19 20  1  0  0  0
 20 21  1  0  0  0
  9  1  1  0  0  0
 15 10  1  0  0  0
 21 16  1  0  0  0
  8  4  1  0  0  0
 35 30  1  0  0  0
 23 24  1  0  0  0
 33 36  1  0  0  0
 19 22  1  0  0  0
M  END
> <minimizedAffinity>
-8.15122

> <CNNscore>
0.9507846236

> <CNNaffinity>
7.6218328476

> <CNN_VS>
7.2467212677

> <CNNaffinity_variance>
0.0743849427

$$$$
[H]c1nc(N2C([H])([H])C([H])([H])N([H])C([H])([H])C2([H])[H])c([H])c([H])c1-c1nn(C([H])([H])C2([H])C([H])([H])C([H])([H])N([H])C([H])([H])C2([H])[H])c2nc(N([H])C([H])([H])C([H])([H])C([H])([H])C([H])([H])[H])nc([H])c12


 36 40  0  0  0  0  0  0  0  0999 V2000
    2.9218    0.3945   18.5159 C   0  0  0  0  0  0  0  0  0  0  0  0
    2.2745    0.3604   17.3402 N   0  0  0  0  0  0  0  0  0  0  0  0
    2.3735    1.3013   16.3887 C   0  0  0  0  0  0  0  0  0  0  0  0
    3.2043    2.3869   16.6388 C   0  0  0  0  0  0  0  0  0  0  0  0
    3.5631    3.5061   15.9572 C   0  0  0  0  0  0  0  0  0  0  0  0
    4.4162    4.2011   16.7188 N   0  0  0  0  0  0  0  0  0  0  0  0
    4.6314    3.5891   17.8655 N   0  0  0  0  0  0  0  0  0  0  0  0
    3.8879    2.4462   17.8524 C   0  0  0  0  0  0  0  0  0  0  0  0
    3.7197    1.4508   18.7393 N   0  0  0  0  0  0  0  0  0  0  0  0
    3.0965    3.8677   14.6209 C   0  0  0  0  0  0  0  0  0  0  0  0
    3.7901    3.4598   13.5125 C   0  0  0  0  0  0  0  0  0  0  0  0
    3.3192    3.8239   12.2692 C   0  0  0  0  0  0  0  0  0  0  0  0
    2.1794    4.5805   12.1140 C   0  0  0  0  0  0  0  0  0  0  0  0
    1.5454    4.9491   13.2416 N   0  0  0  0  0  0  0  0  0  0  0  0
    1.9602    4.6225   14.4710 C   0  0  0  0  0  0  0  0  0  0  0  0
    1.6805    4.9481   10.8344 N   0  0  0  0  0  0  0  0  0  0  0  0
    1.9745    4.0913    9.7138 C   0  0  0  0  0  0  0  0  0  0  0  0
    1.1625    4.5791    8.5194 C   0  0  0  0  0  0  0  0  0  0  0  0
    1.5235    5.9408    8.2656 N   0  0  0  0  0  0  0  0  0  0  0  0
    1.1031    6.8149    9.3200 C   0  0  0  0  0  0  0  0  0  0  0  0
    0.9157    6.1393   10.6578 C   0  0  0  0  0  0  0  0  0  0  0  0
    2.5627    6.0167    8.1704 H   0  0  0  0  0  0  0  0  0  0  0  0
    2.7678   -0.6497   19.4928 N   0  0  0  0  0  0  0  0  0  0  0  0
    2.3111   -1.5111   19.1837 H   0  0  0  0  0  0  0  0  0  0  0  0
    3.2748   -0.4715   20.8105 C   0  0  0  0  0  0  0  0  0  0  0  0
    3.0333    0.7998   21.5104 C   0  0  0  0  0  0  0  0  0  0  0  0
    4.5588    1.9323   23.1336 C   0  0  0  0  0  0  0  0  0  0  0  0
    3.5814    0.8547   22.8830 C   0  0  0  0  0  0  0  0  0  0  0  0
    5.4638    3.9712   18.9710 C   0  0  0  0  0  0  0  0  0  0  0  0
    4.8848    5.1923   19.7040 C   0  0  0  0  0  0  0  0  0  0  0  0
    5.9528    6.1231   20.1214 C   0  0  0  0  0  0  0  0  0  0  0  0
    5.8362    6.7241   21.4687 C   0  0  0  0  0  0  0  0  0  0  0  0
    4.4049    6.8304   21.7886 N   0  0  0  0  0  0  0  0  0  0  0  0
    4.0018    5.4368   22.0465 C   0  0  0  0  0  0  0  0  0  0  0  0
    3.9197    4.7520   20.7328 C   0  0  0  0  0  0  0  0  0  0  0  0
    3.9384    7.0924   20.8760 H   0  0  0  0  0  0  0  0  0  0  0  0
 27 28  1  0  0  0
 28 26  1  0  0  0
 26 25  1  0  0  0
 25 23  1  0  0  0
 23  1  1  0  0  0
  1  2  2  0  0  0
  2  3  1  0  0  0
  3  4  2  0  0  0
  4  5  1  0  0  0
  5  6  2  0  0  0
  6  7  1  0  0  0
  7 29  1  0  0  0
 29 30  1  0  0  0
 30 31  1  0  0  0
 31 32  1  0  0  0
 32 33  1  0  0  0
 33 34  1  0  0  0
 34 35  1  0  0  0
  7  8  1  0  0  0
  8  9  2  0  0  0
  5 10  1  0  0  0
 10 11  2  0  0  0
 11 12  1  0  0  0
 12 13  2  0  0  0
 13 14  1  0  0  0
 14 15  2  0  0  0
 13 16  1  0  0  0
 16 17  1  0  0  0
 17 18  1  0  0  0
 18 19  1  0  0  0
 19 20  1  0  0  0
 20 21  1  0  0  0
  9  1  1  0  0  0
 15 10  1  0  0  0
 21 16  1  0  0  0
  8  4  1  0  0  0
 35 30  1  0  0  0
 23 24  1  0  0  0
 33 36  1  0  0  0
 19 22  1  0  0  0
M  END
> <minimizedAffinity>
-7.76841

> <CNNscore>
0.8228717446

> <CNNaffinity>
7.3518357277

> <CNN_VS>
6.0496177673

> <CNNaffinity_variance>
0.2008678913

$$$$
[H]c1nc(N2C([H])([H])C([H])([H])N([H])C([H])([H])C2([H])[H])c([H])c([H])c1-c1nn(C([H])([H])C2([H])C([H])([H])C([H])([H])N([H])C([H])([H])C2([H])[H])c2nc(N([H])C([H])([H])C([H])([H])C([H])([H])C([H])([H])[H])nc([H])c12


 36 40  0  0  0  0  0  0  0  0999 V2000
    4.2787    1.9977   18.9036 C   0  0  0  0  0  0  0  0  0  0  0  0
    3.4929    1.7600   17.8413 N   0  0  0  0  0  0  0  0  0  0  0  0
    3.2420    2.6468   16.8660 C   0  0  0  0  0  0  0  0  0  0  0  0
    3.8374    3.8987   16.9634 C   0  0  0  0  0  0  0  0  0  0  0  0
    3.8362    5.0303   16.2115 C   0  0  0  0  0  0  0  0  0  0  0  0
    4.6136    5.9342   16.8193 N   0  0  0  0  0  0  0  0  0  0  0  0
    5.1223    5.4468   17.9326 N   0  0  0  0  0  0  0  0  0  0  0  0
    4.6580    4.1708   18.0572 C   0  0  0  0  0  0  0  0  0  0  0  0
    4.8450    3.2124   18.9803 N   0  0  0  0  0  0  0  0  0  0  0  0
    3.1135    5.2089   14.9545 C   0  0  0  0  0  0  0  0  0  0  0  0
    1.7977    5.5894   14.9615 C   0  0  0  0  0  0  0  0  0  0  0  0
    1.1499    5.7445   13.7548 C   0  0  0  0  0  0  0  0  0  0  0  0
    1.7857    5.5287   12.5528 C   0  0  0  0  0  0  0  0  0  0  0  0
    3.0768    5.1567   12.6149 N   0  0  0  0  0  0  0  0  0  0  0  0
    3.7511    4.9922   13.7588 C   0  0  0  0  0  0  0  0  0  0  0  0
    1.1276    5.7001   11.3042 N   0  0  0  0  0  0  0  0  0  0  0  0
    1.8189    6.4107   10.2586 C   0  0  0  0  0  0  0  0  0  0  0  0
    1.0056    6.2747    8.9764 C   0  0  0  0  0  0  0  0  0  0  0  0
   -0.2987    6.8112    9.2209 N   0  0  0  0  0  0  0  0  0  0  0  0
   -1.0394    6.0203   10.1581 C   0  0  0  0  0  0  0  0  0  0  0  0
   -0.1881    5.1915   11.0906 C   0  0  0  0  0  0  0  0  0  0  0  0
   -0.2132    7.7810    9.6043 H   0  0  0  0  0  0  0  0  0  0  0  0
    4.5033    0.9996   19.9145 N   0  0  0  0  0  0  0  0  0  0  0  0
    5.4224    0.5512   19.9283 H   0  0  0  0  0  0  0  0  0  0  0  0
    3.4822    0.7029   20.8604 C   0  0  0  0  0  0  0  0  0  0  0  0
    3.4778    1.3960   22.1581 C   0  0  0  0  0  0  0  0  0  0  0  0
    4.8344    2.5445   23.9145 C   0  0  0  0  0  0  0  0  0  0  0  0
    4.8068    1.8690   22.6021 C   0  0  0  0  0  0  0  0  0  0  0  0
    5.9990    6.0599   18.8900 C   0  0  0  0  0  0  0  0  0  0  0  0
    5.2029    6.7052   20.0360 C   0  0  0  0  0  0  0  0  0  0  0  0
    4.6237    7.9998   19.6239 C   0  0  0  0  0  0  0  0  0  0  0  0
    4.6837    9.1085   20.6024 C   0  0  0  0  0  0  0  0  0  0  0  0
    4.6457    8.5189   21.9490 N   0  0  0  0  0  0  0  0  0  0  0  0
    5.9802    7.9128   22.1010 C   0  0  0  0  0  0  0  0  0  0  0  0
    5.9980    6.6763   21.2812 C   0  0  0  0  0  0  0  0  0  0  0  0
    3.9753    7.7042   21.8731 H   0  0  0  0  0  0  0  0  0  0  0  0
 27 28  1  0  0  0
 28 26  1  0  0  0
 26 25  1  0  0  0
 25 23  1  0  0  0
 23  1  1  0  0  0
  1  2  2  0  0  0
  2  3  1  0  0  0
  3  4  2  0  0  0
  4  5  1  0  0  0
  5  6  2  0  0  0
  6  7  1  0  0  0
  7 29  1  0  0  0
 29 30  1  0  0  0
 30 31  1  0  0  0
 31 32  1  0  0  0
 32 33  1  0  0  0
 33 34  1  0  0  0
 34 35  1  0  0  0
  7  8  1  0  0  0
  8  9  2  0  0  0
  5 10  1  0  0  0
 10 11  2  0  0  0
 11 12  1  0  0  0
 12 13  2  0  0  0
 13 14  1  0  0  0
 14 15  2  0  0  0
 13 16  1  0  0  0
 16 17  1  0  0  0
 17 18  1  0  0  0
 18 19  1  0  0  0
 19 20  1  0  0  0
 20 21  1  0  0  0
  9  1  1  0  0  0
 15 10  1  0  0  0
 21 16  1  0  0  0
  8  4  1  0  0  0
 35 30  1  0  0  0
 23 24  1  0  0  0
 33 36  1  0  0  0
 19 22  1  0  0  0
M  END
> <minimizedAffinity>
-7.73030

> <CNNscore>
0.3322165608

> <CNNaffinity>
6.6586952209

> <CNN_VS>
2.2121288776

> <CNNaffinity_variance>
0.5426266193

$$$$
[H]c1nc(N2C([H])([H])C([H])([H])N([H])C([H])([H])C2([H])[H])c([H])c([H])c1-c1nn(C([H])([H])C2([H])C([H])([H])C([H])([H])N([H])C([H])([H])C2([H])[H])c2nc(N([H])C([H])([H])C([H])([H])C([H])([H])C([H])([H])[H])nc([H])c12


 36 40  0  0  0  0  0  0  0  0999 V2000
    4.9101    1.9004   20.1461 C   0  0  0  0  0  0  0  0  0  0  0  0
    4.2007    1.2519   19.2088 N   0  0  0  0  0  0  0  0  0  0  0  0
    3.8861    1.7573   18.0063 C   0  0  0  0  0  0  0  0  0  0  0  0
    4.3256    3.0423   17.7115 C   0  0  0  0  0  0  0  0  0  0  0  0
    4.2211    3.8784   16.6457 C   0  0  0  0  0  0  0  0  0  0  0  0
    4.8618    5.0147   16.9443 N   0  0  0  0  0  0  0  0  0  0  0  0
    5.3797    4.9605   18.1545 N   0  0  0  0  0  0  0  0  0  0  0  0
    5.0643    3.7374   18.6681 C   0  0  0  0  0  0  0  0  0  0  0  0
    5.3259    3.1404   19.8432 N   0  0  0  0  0  0  0  0  0  0  0  0
    3.5330    3.5704   15.3943 C   0  0  0  0  0  0  0  0  0  0  0  0
    3.3801    2.2704   14.9912 C   0  0  0  0  0  0  0  0  0  0  0  0
    2.7277    2.0211   13.8028 C   0  0  0  0  0  0  0  0  0  0  0  0
    2.2298    3.0364   13.0174 C   0  0  0  0  0  0  0  0  0  0  0  0
    2.4132    4.2899   13.4692 N   0  0  0  0  0  0  0  0  0  0  0  0
    3.0389    4.5857   14.6143 C   0  0  0  0  0  0  0  0  0  0  0  0
    1.5438    2.7858   11.7976 N   0  0  0  0  0  0  0  0  0  0  0  0
    0.4450    3.6473   11.4415 C   0  0  0  0  0  0  0  0  0  0  0  0
    0.0234    3.3116   10.0154 C   0  0  0  0  0  0  0  0  0  0  0  0
   -0.3420    1.9282    9.9763 N   0  0  0  0  0  0  0  0  0  0  0  0
    0.7830    1.0676   10.1911 C   0  0  0  0  0  0  0  0  0  0  0  0
    1.9240    1.7039   10.9489 C   0  0  0  0  0  0  0  0  0  0  0  0
   -1.0528    1.7316   10.7186 H   0  0  0  0  0  0  0  0  0  0  0  0
    5.2101    1.2977   21.4171 N   0  0  0  0  0  0  0  0  0  0  0  0
    4.7311    0.4221   21.6404 H   0  0  0  0  0  0  0  0  0  0  0  0
    6.1649    1.9011   22.2828 C   0  0  0  0  0  0  0  0  0  0  0  0
    5.7257    2.4323   23.5825 C   0  0  0  0  0  0  0  0  0  0  0  0
    4.0904    4.3007   23.3011 C   0  0  0  0  0  0  0  0  0  0  0  0
    4.3153    2.8760   23.6156 C   0  0  0  0  0  0  0  0  0  0  0  0
    6.1393    5.9423   18.8758 C   0  0  0  0  0  0  0  0  0  0  0  0
    5.2866    6.6101   19.9669 C   0  0  0  0  0  0  0  0  0  0  0  0
    4.6316    7.8336   19.4616 C   0  0  0  0  0  0  0  0  0  0  0  0
    4.6058    9.0071   20.3629 C   0  0  0  0  0  0  0  0  0  0  0  0
    4.5860    8.5082   21.7460 N   0  0  0  0  0  0  0  0  0  0  0  0
    5.9542    8.0019   21.9528 C   0  0  0  0  0  0  0  0  0  0  0  0
    6.0635    6.7167   21.2193 C   0  0  0  0  0  0  0  0  0  0  0  0
    3.9705    7.6483   21.7189 H   0  0  0  0  0  0  0  0  0  0  0  0
 27 28  1  0  0  0
 28 26  1  0  0  0
 26 25  1  0  0  0
 25 23  1  0  0  0
 23  1  1  0  0  0
  1  2  2  0  0  0
  2  3  1  0  0  0
  3  4  2  0  0  0
  4  5  1  0  0  0
  5  6  2  0  0  0
  6  7  1  0  0  0
  7 29  1  0  0  0
 29 30  1  0  0  0
 30 31  1  0  0  0
 31 32  1  0  0  0
 32 33  1  0  0  0
 33 34  1  0  0  0
 34 35  1  0  0  0
  7  8  1  0  0  0
  8  9  2  0  0  0
  5 10  1  0  0  0
 10 11  2  0  0  0
 11 12  1  0  0  0
 12 13  2  0  0  0
 13 14  1  0  0  0
 14 15  2  0  0  0
 13 16  1  0  0  0
 16 17  1  0  0  0
 17 18  1  0  0  0
 18 19  1  0  0  0
 19 20  1  0  0  0
 20 21  1  0  0  0
  9  1  1  0  0  0
 15 10  1  0  0  0
 21 16  1  0  0  0
  8  4  1  0  0  0
 35 30  1  0  0  0
 23 24  1  0  0  0
 33 36  1  0  0  0
 19 22  1  0  0  0
M  END
> <minimizedAffinity>
-8.68715

> <CNNscore>
0.2774375379

> <CNNaffinity>
6.8837981224

> <CNN_VS>
1.9098240137

> <CNNaffinity_variance>
0.5479713678

$$$$
[H]c1nc(N2C([H])([H])C([H])([H])N([H])C([H])([H])C2([H])[H])c([H])c([H])c1-c1nn(C([H])([H])C2([H])C([H])([H])C([H])([H])N([H])C([H])([H])C2([H])[H])c2nc(N([H])C([H])([H])C([H])([H])C([H])([H])C([H])([H])[H])nc([H])c12


 36 40  0  0  0  0  0  0  0  0999 V2000
    4.6733    1.9691   19.4703 C   0  0  0  0  0  0  0  0  0  0  0  0
    3.7286    1.5313   18.6228 N   0  0  0  0  0  0  0  0  0  0  0  0
    3.4155    2.1229   17.4599 C   0  0  0  0  0  0  0  0  0  0  0  0
    4.1185    3.2692   17.1093 C   0  0  0  0  0  0  0  0  0  0  0  0
    4.1032    4.1279   16.0565 C   0  0  0  0  0  0  0  0  0  0  0  0
    5.0297    5.0687   16.2739 N   0  0  0  0  0  0  0  0  0  0  0  0
    5.6493    4.8655   17.4187 N   0  0  0  0  0  0  0  0  0  0  0  0
    5.1049    3.7446   17.9724 C   0  0  0  0  0  0  0  0  0  0  0  0
    5.3417    3.0775   19.1146 N   0  0  0  0  0  0  0  0  0  0  0  0
    3.2272    4.0219   14.8923 C   0  0  0  0  0  0  0  0  0  0  0  0
    3.4914    3.1055   13.9092 C   0  0  0  0  0  0  0  0  0  0  0  0
    2.6428    3.0384   12.8251 C   0  0  0  0  0  0  0  0  0  0  0  0
    1.5456    3.8616   12.7059 C   0  0  0  0  0  0  0  0  0  0  0  0
    1.3423    4.7393   13.7046 N   0  0  0  0  0  0  0  0  0  0  0  0
    2.1350    4.8449   14.7774 C   0  0  0  0  0  0  0  0  0  0  0  0
    0.6584    3.7884   11.5973 N   0  0  0  0  0  0  0  0  0  0  0  0
   -0.6323    4.4186   11.7116 C   0  0  0  0  0  0  0  0  0  0  0  0
   -1.2979    4.3860   10.3405 C   0  0  0  0  0  0  0  0  0  0  0  0
   -1.4006    3.0182    9.9311 N   0  0  0  0  0  0  0  0  0  0  0  0
   -0.1171    2.4331    9.6806 C   0  0  0  0  0  0  0  0  0  0  0  0
    1.0287    3.1010   10.4034 C   0  0  0  0  0  0  0  0  0  0  0  0
   -1.8749    2.4622   10.6800 H   0  0  0  0  0  0  0  0  0  0  0  0
    4.9564    1.2851   20.7035 N   0  0  0  0  0  0  0  0  0  0  0  0
    5.9407    1.1247   20.9301 H   0  0  0  0  0  0  0  0  0  0  0  0
    3.8904    0.8979   21.5631 C   0  0  0  0  0  0  0  0  0  0  0  0
    3.8085    1.4731   22.9147 C   0  0  0  0  0  0  0  0  0  0  0  0
    3.7641    3.9165   23.4371 C   0  0  0  0  0  0  0  0  0  0  0  0
    4.5698    2.7288   23.0909 C   0  0  0  0  0  0  0  0  0  0  0  0
    6.6994    5.6189   18.0438 C   0  0  0  0  0  0  0  0  0  0  0  0
    6.1268    6.7423   18.9233 C   0  0  0  0  0  0  0  0  0  0  0  0
    5.9477    6.2922   20.3185 C   0  0  0  0  0  0  0  0  0  0  0  0
    4.7081    6.7119   21.0096 C   0  0  0  0  0  0  0  0  0  0  0  0
    4.2981    8.0065   20.4455 N   0  0  0  0  0  0  0  0  0  0  0  0
    3.7912    7.6576   19.1067 C   0  0  0  0  0  0  0  0  0  0  0  0
    4.9688    7.3680   18.2517 C   0  0  0  0  0  0  0  0  0  0  0  0
    5.2014    8.5301   20.2750 H   0  0  0  0  0  0  0  0  0  0  0  0
 27 28  1  0  0  0
 28 26  1  0  0  0
 26 25  1  0  0  0
 25 23  1  0  0  0
 23  1  1  0  0  0
  1  2  2  0  0  0
  2  3  1  0  0  0
  3  4  2  0  0  0
  4  5  1  0  0  0
  5  6  2  0  0  0
  6  7  1  0  0  0
  7 29  1  0  0  0
 29 30  1  0  0  0
 30 31  1  0  0  0
 31 32  1  0  0  0
 32 33  1  0  0  0
 33 34  1  0  0  0
 34 35  1  0  0  0
  7  8  1  0  0  0
  8  9  2  0  0  0
  5 10  1  0  0  0
 10 11  2  0  0  0
 11 12  1  0  0  0
 12 13  2  0  0  0
 13 14  1  0  0  0
 14 15  2  0  0  0
 13 16  1  0  0  0
 16 17  1  0  0  0
 17 18  1  0  0  0
 18 19  1  0  0  0
 19 20  1  0  0  0
 20 21  1  0  0  0
  9  1  1  0  0  0
 15 10  1  0  0  0
 21 16  1  0  0  0
  8  4  1  0  0  0
 35 30  1  0  0  0
 23 24  1  0  0  0
 33 36  1  0  0  0
 19 22  1  0  0  0
M  END
> <minimizedAffinity>
-7.66351

> <CNNscore>
0.2722398043

> <CNNaffinity>
6.7956914902

> <CNN_VS>
1.8500577211

> <CNNaffinity_variance>
0.6327428818

$$$$
[H]c1nc(N2C([H])([H])C([H])([H])N([H])C([H])([H])C2([H])[H])c([H])c([H])c1-c1nn(C([H])([H])C2([H])C([H])([H])C([H])([H])N([H])C([H])([H])C2([H])[H])c2nc(N([H])C([H])([H])C([H])([H])C([H])([H])C([H])([H])[H])nc([H])c12


 36 40  0  0  0  0  0  0  0  0999 V2000
    4.6421    1.9639   19.6481 C   0  0  0  0  0  0  0  0  0  0  0  0
    4.6869    1.2676   18.5012 N   0  0  0  0  0  0  0  0  0  0  0  0
    4.2826    1.7351   17.3102 C   0  0  0  0  0  0  0  0  0  0  0  0
    3.7822    3.0307   17.2616 C   0  0  0  0  0  0  0  0  0  0  0  0
    3.2909    3.8408   16.2879 C   0  0  0  0  0  0  0  0  0  0  0  0
    2.9562    5.0089   16.8485 N   0  0  0  0  0  0  0  0  0  0  0  0
    3.2054    5.0002   18.1421 N   0  0  0  0  0  0  0  0  0  0  0  0
    3.7250    3.7750   18.4391 C   0  0  0  0  0  0  0  0  0  0  0  0
    4.1558    3.2134   19.5814 N   0  0  0  0  0  0  0  0  0  0  0  0
    3.1658    3.4855   14.8764 C   0  0  0  0  0  0  0  0  0  0  0  0
    2.4179    2.4016   14.4999 C   0  0  0  0  0  0  0  0  0  0  0  0
    2.3268    2.0973   13.1586 C   0  0  0  0  0  0  0  0  0  0  0  0
    2.9625    2.8484   12.1956 C   0  0  0  0  0  0  0  0  0  0  0  0
    3.6810    3.8988   12.6310 N   0  0  0  0  0  0  0  0  0  0  0  0
    3.8017    4.2368   13.9200 C   0  0  0  0  0  0  0  0  0  0  0  0
    2.8616    2.5485   10.8096 N   0  0  0  0  0  0  0  0  0  0  0  0
    2.7393    3.6428    9.8802 C   0  0  0  0  0  0  0  0  0  0  0  0
    2.8627    3.0807    8.4685 C   0  0  0  0  0  0  0  0  0  0  0  0
    1.8316    2.1042    8.2895 N   0  0  0  0  0  0  0  0  0  0  0  0
    2.0332    0.9506    9.1147 C   0  0  0  0  0  0  0  0  0  0  0  0
    2.8709    1.1991   10.3467 C   0  0  0  0  0  0  0  0  0  0  0  0
    0.9044    2.5241    8.5321 H   0  0  0  0  0  0  0  0  0  0  0  0
    5.0917    1.3989   20.8920 N   0  0  0  0  0  0  0  0  0  0  0  0
    6.1015    1.2949   21.0166 H   0  0  0  0  0  0  0  0  0  0  0  0
    4.1469    1.0477   21.8965 C   0  0  0  0  0  0  0  0  0  0  0  0
    3.6579    2.0829   22.8204 C   0  0  0  0  0  0  0  0  0  0  0  0
    5.6286    2.0172   24.3556 C   0  0  0  0  0  0  0  0  0  0  0  0
    4.7253    2.8315   23.5186 C   0  0  0  0  0  0  0  0  0  0  0  0
    3.0034    6.0263   19.1257 C   0  0  0  0  0  0  0  0  0  0  0  0
    4.2260    6.9538   19.2174 C   0  0  0  0  0  0  0  0  0  0  0  0
    5.0232    6.6717   20.4283 C   0  0  0  0  0  0  0  0  0  0  0  0
    5.5477    7.8350   21.1777 C   0  0  0  0  0  0  0  0  0  0  0  0
    5.7696    8.9241   20.2148 N   0  0  0  0  0  0  0  0  0  0  0  0
    4.4073    9.3738   19.8785 C   0  0  0  0  0  0  0  0  0  0  0  0
    3.8164    8.3533   18.9781 C   0  0  0  0  0  0  0  0  0  0  0  0
    6.1310    8.4489   19.3415 H   0  0  0  0  0  0  0  0  0  0  0  0
 27 28  1  0  0  0
 28 26  1  0  0  0
 26 25  1  0  0  0
 25 23  1  0  0  0
 23  1  1  0  0  0
  1  2  2  0  0  0
  2  3  1  0  0  0
  3  4  2  0  0  0
  4  5  1  0  0  0
  5  6  2  0  0  0
  6  7  1  0  0  0
  7 29  1  0  0  0
 29 30  1  0  0  0
 30 31  1  0  0  0
 31 32  1  0  0  0
 32 33  1  0  0  0
 33 34  1  0  0  0
 34 35  1  0  0  0
  7  8  1  0  0  0
  8  9  2  0  0  0
  5 10  1  0  0  0
 10 11  2  0  0  0
 11 12  1  0  0  0
 12 13  2  0  0  0
 13 14  1  0  0  0
 14 15  2  0  0  0
 13 16  1  0  0  0
 16 17  1  0  0  0
 17 18  1  0  0  0
 18 19  1  0  0  0
 19 20  1  0  0  0
 20 21  1  0  0  0
  9  1  1  0  0  0
 15 10  1  0  0  0
 21 16  1  0  0  0
  8  4  1  0  0  0
 35 30  1  0  0  0
 23 24  1  0  0  0
 33 36  1  0  0  0
 19 22  1  0  0  0
M  END
> <minimizedAffinity>
-7.51573

> <CNNscore>
0.1916303337

> <CNNaffinity>
6.7839951515

> <CNN_VS>
1.3000192642

> <CNNaffinity_variance>
0.5052509308

$$$$
[H]c1nc(N2C([H])([H])C([H])([H])N([H])C([H])([H])C2([H])[H])c([H])c([H])c1-c1nn(C([H])([H])C2([H])C([H])([H])C([H])([H])N([H])C([H])([H])C2([H])[H])c2nc(N([H])C([H])([H])C([H])([H])C([H])([H])C([H])([H])[H])nc([H])c12


 36 40  0  0  0  0  0  0  0  0999 V2000
    1.2685    1.9621   12.2438 C   0  0  0  0  0  0  0  0  0  0  0  0
    1.2187    1.4404   13.4798 N   0  0  0  0  0  0  0  0  0  0  0  0
    1.9563    1.8667   14.5166 C   0  0  0  0  0  0  0  0  0  0  0  0
    2.8330    2.9217   14.2942 C   0  0  0  0  0  0  0  0  0  0  0  0
    3.7184    3.6185   15.0534 C   0  0  0  0  0  0  0  0  0  0  0  0
    4.2909    4.5467   14.2778 N   0  0  0  0  0  0  0  0  0  0  0  0
    3.8215    4.4891   13.0481 N   0  0  0  0  0  0  0  0  0  0  0  0
    2.9037    3.4812   13.0191 C   0  0  0  0  0  0  0  0  0  0  0  0
    2.1211    2.9804   12.0483 N   0  0  0  0  0  0  0  0  0  0  0  0
    3.9806    3.3876   16.4718 C   0  0  0  0  0  0  0  0  0  0  0  0
    3.8756    4.4158   17.3707 C   0  0  0  0  0  0  0  0  0  0  0  0
    4.1340    4.1583   18.7000 C   0  0  0  0  0  0  0  0  0  0  0  0
    4.4916    2.9050   19.1439 C   0  0  0  0  0  0  0  0  0  0  0  0
    4.5774    1.9396   18.2112 N   0  0  0  0  0  0  0  0  0  0  0  0
    4.3374    2.1369   16.9097 C   0  0  0  0  0  0  0  0  0  0  0  0
    4.7460    2.6293   20.5152 N   0  0  0  0  0  0  0  0  0  0  0  0
    4.2547    3.5573   21.5020 C   0  0  0  0  0  0  0  0  0  0  0  0
    4.4645    2.9385   22.8793 C   0  0  0  0  0  0  0  0  0  0  0  0
    5.8623    2.6741   23.0372 N   0  0  0  0  0  0  0  0  0  0  0  0
    6.3200    1.6472   22.1492 C   0  0  0  0  0  0  0  0  0  0  0  0
    5.4771    1.4691   20.9086 C   0  0  0  0  0  0  0  0  0  0  0  0
    6.4086    3.5449   22.8421 H   0  0  0  0  0  0  0  0  0  0  0  0
    0.4489    1.4540   11.1766 N   0  0  0  0  0  0  0  0  0  0  0  0
   -0.5295    1.7515   11.1606 H   0  0  0  0  0  0  0  0  0  0  0  0
    1.0179    0.6080   10.1838 C   0  0  0  0  0  0  0  0  0  0  0  0
    0.1311   -0.1719    9.3064 C   0  0  0  0  0  0  0  0  0  0  0  0
   -0.7987   -2.4442    8.8409 C   0  0  0  0  0  0  0  0  0  0  0  0
    0.2925   -1.6374    9.4222 C   0  0  0  0  0  0  0  0  0  0  0  0
    4.1497    5.2849   11.8991 C   0  0  0  0  0  0  0  0  0  0  0  0
    2.9239    6.0656   11.3978 C   0  0  0  0  0  0  0  0  0  0  0  0
    3.1574    6.6226   10.0500 C   0  0  0  0  0  0  0  0  0  0  0  0
    2.6790    7.9998    9.7963 C   0  0  0  0  0  0  0  0  0  0  0  0
    1.5030    8.2289   10.6489 N   0  0  0  0  0  0  0  0  0  0  0  0
    2.0735    8.3545   12.0017 C   0  0  0  0  0  0  0  0  0  0  0  0
    2.4512    6.9910   12.4485 C   0  0  0  0  0  0  0  0  0  0  0  0
    0.9811    7.3088   10.6497 H   0  0  0  0  0  0  0  0  0  0  0  0
 27 28  1  0  0  0
 28 26  1  0  0  0
 26 25  1  0  0  0
 25 23  1  0  0  0
 23  1  1  0  0  0
  1  2  2  0  0  0
  2  3  1  0  0  0
  3  4  2  0  0  0
  4  5  1  0  0  0
  5  6  2  0  0  0
  6  7  1  0  0  0
  7 29  1  0  0  0
 29 30  1  0  0  0
 30 31  1  0  0  0
 31 32  1  0  0  0
 32 33  1  0  0  0
 33 34  1  0  0  0
 34 35  1  0  0  0
  7  8  1  0  0  0
  8  9  2  0  0  0
  5 10  1  0  0  0
 10 11  2  0  0  0
 11 12  1  0  0  0
 12 13  2  0  0  0
 13 14  1  0  0  0
 14 15  2  0  0  0
 13 16  1  0  0  0
 16 17  1  0  0  0
 17 18  1  0  0  0
 18 19  1  0  0  0
 19 20  1  0  0  0
 20 21  1  0  0  0
  9  1  1  0  0  0
 15 10  1  0  0  0
 21 16  1  0  0  0
  8  4  1  0  0  0
 35 30  1  0  0  0
 23 24  1  0  0  0
 33 36  1  0  0  0
 19 22  1  0  0  0
M  END
> <minimizedAffinity>
-6.69849

> <CNNscore>
0.1895890832

> <CNNaffinity>
6.4708967209

> <CNN_VS>
1.2268114090

> <CNNaffinity_variance>
0.3203279376

$$$$
[H]c1nc(N2C([H])([H])C([H])([H])N([H])C([H])([H])C2([H])[H])c([H])c([H])c1-c1nn(C([H])([H])C2([H])C([H])([H])C([H])([H])N([H])C([H])([H])C2([H])[H])c2nc(N([H])C([H])([H])C([H])([H])C([H])([H])C([H])([H])[H])nc([H])c12


 36 40  0  0  0  0  0  0  0  0999 V2000
    3.1049    6.9020   10.3313 C   0  0  0  0  0  0  0  0  0  0  0  0
    3.8082    7.4184   11.3516 N   0  0  0  0  0  0  0  0  0  0  0  0
    3.6548    7.0666   12.6374 C   0  0  0  0  0  0  0  0  0  0  0  0
    2.7007    6.1003   12.9325 C   0  0  0  0  0  0  0  0  0  0  0  0
    2.2588    5.4930   14.0647 C   0  0  0  0  0  0  0  0  0  0  0  0
    1.3012    4.6228   13.7231 N   0  0  0  0  0  0  0  0  0  0  0  0
    1.0966    4.6331   12.4216 N   0  0  0  0  0  0  0  0  0  0  0  0
    1.9568    5.5482   11.8907 C   0  0  0  0  0  0  0  0  0  0  0  0
    2.1880    5.9700   10.6359 N   0  0  0  0  0  0  0  0  0  0  0  0
    2.7601    5.7503   15.4125 C   0  0  0  0  0  0  0  0  0  0  0  0
    2.3333    4.9867   16.4664 C   0  0  0  0  0  0  0  0  0  0  0  0
    2.8274    5.2627   17.7233 C   0  0  0  0  0  0  0  0  0  0  0  0
    3.7314    6.2773   17.9448 C   0  0  0  0  0  0  0  0  0  0  0  0
    4.1098    6.9898   16.8685 N   0  0  0  0  0  0  0  0  0  0  0  0
    3.6607    6.7630   15.6287 C   0  0  0  0  0  0  0  0  0  0  0  0
    4.2556    6.5585   19.2361 N   0  0  0  0  0  0  0  0  0  0  0  0
    3.9372    5.6576   20.3146 C   0  0  0  0  0  0  0  0  0  0  0  0
    4.7783    6.0509   21.5237 C   0  0  0  0  0  0  0  0  0  0  0  0
    4.4743    7.4109   21.8504 N   0  0  0  0  0  0  0  0  0  0  0  0
    4.9202    8.3208   20.8376 C   0  0  0  0  0  0  0  0  0  0  0  0
    5.0689    7.7080   19.4651 C   0  0  0  0  0  0  0  0  0  0  0  0
    3.4398    7.5228   21.9605 H   0  0  0  0  0  0  0  0  0  0  0  0
    3.3206    7.3274    8.9744 N   0  0  0  0  0  0  0  0  0  0  0  0
    4.0182    8.0598    8.8227 H   0  0  0  0  0  0  0  0  0  0  0  0
    2.6048    6.7073    7.9122 C   0  0  0  0  0  0  0  0  0  0  0  0
    2.0465    7.5403    6.8358 C   0  0  0  0  0  0  0  0  0  0  0  0
    1.3752    9.8375    6.1168 C   0  0  0  0  0  0  0  0  0  0  0  0
    2.0377    8.9901    7.1280 C   0  0  0  0  0  0  0  0  0  0  0  0
    0.1741    3.8707   11.6286 C   0  0  0  0  0  0  0  0  0  0  0  0
   -0.9205    4.7715   11.0336 C   0  0  0  0  0  0  0  0  0  0  0  0
   -1.8177    5.2911   12.0854 C   0  0  0  0  0  0  0  0  0  0  0  0
   -3.2664    5.3180   11.7847 C   0  0  0  0  0  0  0  0  0  0  0  0
   -3.4185    5.4990   10.3333 N   0  0  0  0  0  0  0  0  0  0  0  0
   -3.0212    4.1938    9.7766 C   0  0  0  0  0  0  0  0  0  0  0  0
   -1.5429    4.1071    9.8697 C   0  0  0  0  0  0  0  0  0  0  0  0
   -2.6464    6.1675   10.0576 H   0  0  0  0  0  0  0  0  0  0  0  0
 27 28  1  0  0  0
 28 26  1  0  0  0
 26 25  1  0  0  0
 25 23  1  0  0  0
 23  1  1  0  0  0
  1  2  2  0  0  0
  2  3  1  0  0  0
  3  4  2  0  0  0
  4  5  1  0  0  0
  5  6  2  0  0  0
  6  7  1  0  0  0
  7 29  1  0  0  0
 29 30  1  0  0  0
 30 31  1  0  0  0
 31 32  1  0  0  0
 32 33  1  0  0  0
 33 34  1  0  0  0
 34 35  1  0  0  0
  7  8  1  0  0  0
  8  9  2  0  0  0
  5 10  1  0  0  0
 10 11  2  0  0  0
 11 12  1  0  0  0
 12 13  2  0  0  0
 13 14  1  0  0  0
 14 15  2  0  0  0
 13 16  1  0  0  0
 16 17  1  0  0  0
 17 18  1  0  0  0
 18 19  1  0  0  0
 19 20  1  0  0  0
 20 21  1  0  0  0
  9  1  1  0  0  0
 15 10  1  0  0  0
 21 16  1  0  0  0
  8  4  1  0  0  0
 35 30  1  0  0  0
 23 24  1  0  0  0
 33 36  1  0  0  0
 19 22  1  0  0  0
M  END
> <minimizedAffinity>
-6.52709

> <CNNscore>
0.1392704397

> <CNNaffinity>
5.7982931137

> <CNN_VS>
0.8075308204

> <CNNaffinity_variance>
0.7361577749

$$$$
[H]c1nc(N2C([H])([H])C([H])([H])N([H])C([H])([H])C2([H])[H])c([H])c([H])c1-c1nn(C([H])([H])C2([H])C([H])([H])C([H])([H])N([H])C([H])([H])C2([H])[H])c2nc(N([H])C([H])([H])C([H])([H])C([H])([H])C([H])([H])[H])nc([H])c12


 36 40  0  0  0  0  0  0  0  0999 V2000
   -0.0182    5.7630   11.7328 C   0  0  0  0  0  0  0  0  0  0  0  0
   -0.0396    5.6792   13.0725 N   0  0  0  0  0  0  0  0  0  0  0  0
    0.9416    6.1130   13.8785 C   0  0  0  0  0  0  0  0  0  0  0  0
    2.0578    6.6888   13.2838 C   0  0  0  0  0  0  0  0  0  0  0  0
    3.2197    7.2315   13.7325 C   0  0  0  0  0  0  0  0  0  0  0  0
    3.9274    7.6351   12.6708 N   0  0  0  0  0  0  0  0  0  0  0  0
    3.2829    7.3816   11.5500 N   0  0  0  0  0  0  0  0  0  0  0  0
    2.1047    6.7877   11.8939 C   0  0  0  0  0  0  0  0  0  0  0  0
    1.0681    6.3222   11.1766 N   0  0  0  0  0  0  0  0  0  0  0  0
    3.6089    7.3542   15.1352 C   0  0  0  0  0  0  0  0  0  0  0  0
    3.8859    6.2361   15.8762 C   0  0  0  0  0  0  0  0  0  0  0  0
    4.2468    6.3933   17.1972 C   0  0  0  0  0  0  0  0  0  0  0  0
    4.3353    7.6347   17.7861 C   0  0  0  0  0  0  0  0  0  0  0  0
    4.0502    8.6916   17.0046 N   0  0  0  0  0  0  0  0  0  0  0  0
    3.6953    8.5936   15.7182 C   0  0  0  0  0  0  0  0  0  0  0  0
    4.7202    7.8050   19.1441 N   0  0  0  0  0  0  0  0  0  0  0  0
    4.5079    6.7110   20.0575 C   0  0  0  0  0  0  0  0  0  0  0  0
    5.1882    7.0575   21.3771 C   0  0  0  0  0  0  0  0  0  0  0  0
    4.6209    8.2799   21.8595 N   0  0  0  0  0  0  0  0  0  0  0  0
    4.9527    9.3947   21.0232 C   0  0  0  0  0  0  0  0  0  0  0  0
    5.2937    9.0300   19.5977 C   0  0  0  0  0  0  0  0  0  0  0  0
    3.5787    8.1937   21.8943 H   0  0  0  0  0  0  0  0  0  0  0  0
   -1.1064    5.2752   10.9287 N   0  0  0  0  0  0  0  0  0  0  0  0
   -0.9384    5.1883    9.9235 H   0  0  0  0  0  0  0  0  0  0  0  0
   -2.3347    4.9037   11.5438 C   0  0  0  0  0  0  0  0  0  0  0  0
   -3.5703    5.6104   11.1720 C   0  0  0  0  0  0  0  0  0  0  0  0
   -4.0243    6.4726    8.8708 C   0  0  0  0  0  0  0  0  0  0  0  0
   -4.0470    5.3265    9.8010 C   0  0  0  0  0  0  0  0  0  0  0  0
    3.6638    7.6404   10.1902 C   0  0  0  0  0  0  0  0  0  0  0  0
    5.0483    7.0481    9.8807 C   0  0  0  0  0  0  0  0  0  0  0  0
    5.0522    5.5803   10.0439 C   0  0  0  0  0  0  0  0  0  0  0  0
    6.2331    4.9771   10.7009 C   0  0  0  0  0  0  0  0  0  0  0  0
    7.3937    5.8303   10.4054 N   0  0  0  0  0  0  0  0  0  0  0  0
    7.1669    7.0259   11.2363 C   0  0  0  0  0  0  0  0  0  0  0  0
    6.0949    7.8181   10.5845 C   0  0  0  0  0  0  0  0  0  0  0  0
    7.2512    6.1518    9.4078 H   0  0  0  0  0  0  0  0  0  0  0  0
 27 28  1  0  0  0
 28 26  1  0  0  0
 26 25  1  0  0  0
 25 23  1  0  0  0
 23  1  1  0  0  0
  1  2  2  0  0  0
  2  3  1  0  0  0
  3  4  2  0  0  0
  4  5  1  0  0  0
  5  6  2  0  0  0
  6  7  1  0  0  0
  7 29  1  0  0  0
 29 30  1  0  0  0
 30 31  1  0  0  0
 31 32  1  0  0  0
 32 33  1  0  0  0
 33 34  1  0  0  0
 34 35  1  0  0  0
  7  8  1  0  0  0
  8  9  2  0  0  0
  5 10  1  0  0  0
 10 11  2  0  0  0
 11 12  1  0  0  0
 12 13  2  0  0  0
 13 14  1  0  0  0
 14 15  2  0  0  0
 13 16  1  0  0  0
 16 17  1  0  0  0
 17 18  1  0  0  0
 18 19  1  0  0  0
 19 20  1  0  0  0
 20 21  1  0  0  0
  9  1  1  0  0  0
 15 10  1  0  0  0
 21 16  1  0  0  0
  8  4  1  0  0  0
 35 30  1  0  0  0
 23 24  1  0  0  0
 33 36  1  0  0  0
 19 22  1  0  0  0
M  END
> <minimizedAffinity>
-6.71770

> <CNNscore>
0.1192774251

> <CNNaffinity>
5.6723690033

> <CNN_VS>
0.6765855551

> <CNNaffinity_variance>
0.6131662130

$$$$
[H]O[C@]1([H])C([H])([H])C([H])([H])[C@@]([H])(n2c([H])c(-c3c([H])c([H])c(N([H])C4([H])C([H])([H])C([H])([H])N([H])C([H])([H])C4([H])[H])c([H])c3[H])c3c([H])nc(N([H])[C@@]([H])(C([H])([H])[H])C([H])([H])C([H])([H])C([H])([H])[H])nc32)C([H])([H])C1([H])[H]


 39 43  0  0  0  0  0  0  0  0999 V2000
    3.6996    1.2942   18.6772 C   0  0  0  0  0  0  0  0  0  0  0  0
    3.1111    0.6384   17.6625 N   0  0  0  0  0  0  0  0  0  0  0  0
    2.8263    1.2235   16.4840 C   0  0  0  0  0  0  0  0  0  0  0  0
    3.1513    2.5363   16.3210 C   0  0  0  0  0  0  0  0  0  0  0  0
    3.0073    3.4222   15.2748 C   0  0  0  0  0  0  0  0  0  0  0  0
    3.5347    4.6166   15.7226 C   0  0  0  0  0  0  0  0  0  0  0  0
    3.9899    4.4997   16.9835 N   0  0  0  0  0  0  0  0  0  0  0  0
    3.7571    3.2335   17.3486 C   0  0  0  0  0  0  0  0  0  0  0  0
    4.0244    2.6125   18.5089 N   0  0  0  0  0  0  0  0  0  0  0  0
    4.6088    5.5375   17.7826 C   0  0  0  0  0  0  0  0  0  0  0  0
    5.3362    6.5224   16.9303 C   0  0  0  0  0  0  0  0  0  0  0  0
    5.6346    7.7533   17.7193 C   0  0  0  0  0  0  0  0  0  0  0  0
    5.6672    7.5451   19.2019 C   0  0  0  0  0  0  0  0  0  0  0  0
    6.8071    6.8284   19.6115 O   0  0  0  0  0  0  0  0  0  0  0  0
    4.4075    6.9472   19.7495 C   0  0  0  0  0  0  0  0  0  0  0  0
    3.6118    6.2729   18.6362 C   0  0  0  0  0  0  0  0  0  0  0  0
    7.5357    6.8872   18.9516 H   0  0  0  0  0  0  0  0  0  0  0  0
    2.4153    3.1632   13.9405 C   0  0  0  0  0  0  0  0  0  0  0  0
    3.0402    2.2573   13.1075 C   0  0  0  0  0  0  0  0  0  0  0  0
    2.5340    1.9679   11.8419 C   0  0  0  0  0  0  0  0  0  0  0  0
    1.3919    2.5895   11.4026 C   0  0  0  0  0  0  0  0  0  0  0  0
    0.7846    3.4924   12.2551 C   0  0  0  0  0  0  0  0  0  0  0  0
    1.2869    3.7794   13.5108 C   0  0  0  0  0  0  0  0  0  0  0  0
    0.8386    2.3429   10.1258 N   0  0  0  0  0  0  0  0  0  0  0  0
    0.2684    3.1115    9.6605 H   0  0  0  0  0  0  0  0  0  0  0  0
    1.0209    1.0754    9.4260 C   0  0  0  0  0  0  0  0  0  0  0  0
    0.0939    0.0237    9.9949 C   0  0  0  0  0  0  0  0  0  0  0  0
   -0.8226   -0.4808    8.9227 C   0  0  0  0  0  0  0  0  0  0  0  0
   -1.5911    0.5353    8.2737 N   0  0  0  0  0  0  0  0  0  0  0  0
   -0.8463    1.7338    7.9995 C   0  0  0  0  0  0  0  0  0  0  0  0
    0.6339    1.3285    7.9704 C   0  0  0  0  0  0  0  0  0  0  0  0
   -1.9416    0.1606    7.3582 H   0  0  0  0  0  0  0  0  0  0  0  0
    3.9722    0.6225   19.8924 N   0  0  0  0  0  0  0  0  0  0  0  0
    3.8645   -0.4139   19.9063 H   0  0  0  0  0  0  0  0  0  0  0  0
    4.3835    1.3295   21.0718 C   0  0  0  0  0  0  0  0  0  0  0  0
    3.5100    0.8461   22.2332 C   0  0  0  0  0  0  0  0  0  0  0  0
    5.8332    1.2315   21.4076 C   0  0  0  0  0  0  0  0  0  0  0  0
    5.7086    3.7040   21.4134 C   0  0  0  0  0  0  0  0  0  0  0  0
    6.2622    2.4906   22.1302 C   0  0  0  0  0  0  0  0  0  0  0  0
 38 39  1  0  0  0
 39 37  1  0  0  0
 37 35  1  0  0  0
 35 36  1  0  0  0
 35 33  1  0  0  0
 33  1  1  0  0  0
  1  2  2  0  0  0
  2  3  1  0  0  0
  3  4  2  0  0  0
  4  5  1  0  0  0
  5  6  2  0  0  0
  6  7  1  0  0  0
  7 10  1  0  0  0
 10 11  1  0  0  0
 11 12  1  0  0  0
 12 13  1  0  0  0
 13 14  1  0  0  0
 13 15  1  0  0  0
 15 16  1  0  0  0
  7  8  1  0  0  0
  8  9  2  0  0  0
  5 18  1  0  0  0
 18 19  2  0  0  0
 19 20  1  0  0  0
 20 21  2  0  0  0
 21 24  1  0  0  0
 24 26  1  0  0  0
 26 27  1  0  0  0
 27 28  1  0  0  0
 28 29  1  0  0  0
 29 30  1  0  0  0
 30 31  1  0  0  0
 21 22  1  0  0  0
 22 23  2  0  0  0
  9  1  1  0  0  0
 23 18  1  0  0  0
  8  4  1  0  0  0
 31 26  1  0  0  0
 16 10  1  0  0  0
 33 34  1  0  0  0
 14 17  1  0  0  0
 24 25  1  0  0  0
 29 32  1  0  0  0
M  END
> <minimizedAffinity>
-7.52441

> <CNNscore>
0.7549090385

> <CNNaffinity>
7.3017663956

> <CNN_VS>
5.5121693611

> <CNNaffinity_variance>
0.3951440752

$$$$
[H]O[C@]1([H])C([H])([H])C([H])([H])[C@@]([H])(n2c([H])c(-c3c([H])c([H])c(N([H])C4([H])C([H])([H])C([H])([H])N([H])C([H])([H])C4([H])[H])c([H])c3[H])c3c([H])nc(N([H])[C@@]([H])(C([H])([H])[H])C([H])([H])C([H])([H])C([H])([H])[H])nc32)C([H])([H])C1([H])[H]


 39 43  0  0  0  0  0  0  0  0999 V2000
    4.0923    1.9823   18.6144 C   0  0  0  0  0  0  0  0  0  0  0  0
    3.6115    1.6398   17.4070 N   0  0  0  0  0  0  0  0  0  0  0  0
    3.2661    2.5482   16.4754 C   0  0  0  0  0  0  0  0  0  0  0  0
    3.4129    3.8685   16.7769 C   0  0  0  0  0  0  0  0  0  0  0  0
    3.1646    5.0303   16.0779 C   0  0  0  0  0  0  0  0  0  0  0  0
    3.5196    6.0591   16.9269 C   0  0  0  0  0  0  0  0  0  0  0  0
    3.9694    5.5810   18.1016 N   0  0  0  0  0  0  0  0  0  0  0  0
    3.9050    4.2474   18.0112 C   0  0  0  0  0  0  0  0  0  0  0  0
    4.2381    3.3096   18.9127 N   0  0  0  0  0  0  0  0  0  0  0  0
    4.4315    6.3565   19.2345 C   0  0  0  0  0  0  0  0  0  0  0  0
    3.9609    5.7730   20.5243 C   0  0  0  0  0  0  0  0  0  0  0  0
    4.7409    6.3511   21.6574 C   0  0  0  0  0  0  0  0  0  0  0  0
    5.3611    7.6826   21.3658 C   0  0  0  0  0  0  0  0  0  0  0  0
    4.4031    8.7120   21.3069 O   0  0  0  0  0  0  0  0  0  0  0  0
    6.2475    7.6777   20.1582 C   0  0  0  0  0  0  0  0  0  0  0  0
    5.9306    6.4774   19.2714 C   0  0  0  0  0  0  0  0  0  0  0  0
    3.5789    8.4758   21.7912 H   0  0  0  0  0  0  0  0  0  0  0  0
    2.6311    5.1655   14.7013 C   0  0  0  0  0  0  0  0  0  0  0  0
    1.3748    5.7118   14.5328 C   0  0  0  0  0  0  0  0  0  0  0  0
    0.8167    5.8679   13.2656 C   0  0  0  0  0  0  0  0  0  0  0  0
    1.5197    5.4745   12.1544 C   0  0  0  0  0  0  0  0  0  0  0  0
    2.7755    4.9305   12.3493 C   0  0  0  0  0  0  0  0  0  0  0  0
    3.3292    4.7757   13.6066 C   0  0  0  0  0  0  0  0  0  0  0  0
    1.0004    5.5994   10.8461 N   0  0  0  0  0  0  0  0  0  0  0  0
    0.5697    4.7426   10.3849 H   0  0  0  0  0  0  0  0  0  0  0  0
    1.0346    6.8578   10.1079 C   0  0  0  0  0  0  0  0  0  0  0  0
    2.1944    7.7093   10.5755 C   0  0  0  0  0  0  0  0  0  0  0  0
    3.1192    7.9836    9.4294 C   0  0  0  0  0  0  0  0  0  0  0  0
    3.6166    6.8130    8.7762 N   0  0  0  0  0  0  0  0  0  0  0  0
    2.6246    5.7881    8.5972 C   0  0  0  0  0  0  0  0  0  0  0  0
    1.2607    6.4907    8.6427 C   0  0  0  0  0  0  0  0  0  0  0  0
    3.9729    7.0820    7.8264 H   0  0  0  0  0  0  0  0  0  0  0  0
    4.4367    0.9793   19.5511 N   0  0  0  0  0  0  0  0  0  0  0  0
    5.0842    0.2260   19.2363 H   0  0  0  0  0  0  0  0  0  0  0  0
    3.9210    0.9860   20.8905 C   0  0  0  0  0  0  0  0  0  0  0  0
    3.2159   -0.3533   21.1249 C   0  0  0  0  0  0  0  0  0  0  0  0
    4.9189    1.2672   21.9625 C   0  0  0  0  0  0  0  0  0  0  0  0
    7.0919    0.2416   21.3669 C   0  0  0  0  0  0  0  0  0  0  0  0
    6.2718    1.5139   21.3298 C   0  0  0  0  0  0  0  0  0  0  0  0
 38 39  1  0  0  0
 39 37  1  0  0  0
 37 35  1  0  0  0
 35 36  1  0  0  0
 35 33  1  0  0  0
 33  1  1  0  0  0
  1  2  2  0  0  0
  2  3  1  0  0  0
  3  4  2  0  0  0
  4  5  1  0  0  0
  5  6  2  0  0  0
  6  7  1  0  0  0
  7 10  1  0  0  0
 10 11  1  0  0  0
 11 12  1  0  0  0
 12 13  1  0  0  0
 13 14  1  0  0  0
 13 15  1  0  0  0
 15 16  1  0  0  0
  7  8  1  0  0  0
  8  9  2  0  0  0
  5 18  1  0  0  0
 18 19  2  0  0  0
 19 20  1  0  0  0
 20 21  2  0  0  0
 21 24  1  0  0  0
 24 26  1  0  0  0
 26 27  1  0  0  0
 27 28  1  0  0  0
 28 29  1  0  0  0
 29 30  1  0  0  0
 30 31  1  0  0  0
 21 22  1  0  0  0
 22 23  2  0  0  0
  9  1  1  0  0  0
 23 18  1  0  0  0
  8  4  1  0  0  0
 31 26  1  0  0  0
 16 10  1  0  0  0
 33 34  1  0  0  0
 14 17  1  0  0  0
 24 25  1  0  0  0
 29 32  1  0  0  0
M  END
> <minimizedAffinity>
-8.07940

> <CNNscore>
0.3479671776

> <CNNaffinity>
6.8509840965

> <CNN_VS>
2.3839175701

> <CNNaffinity_variance>
0.6085990667

$$$$
[H]O[C@]1([H])C([H])([H])C([H])([H])[C@@]([H])(n2c([H])c(-c3c([H])c([H])c(N([H])C4([H])C([H])([H])C([H])([H])N([H])C([H])([H])C4([H])[H])c([H])c3[H])c3c([H])nc(N([H])[C@@]([H])(C([H])([H])[H])C([H])([H])C([H])([H])C([H])([H])[H])nc32)C([H])([H])C1([H])[H]


 39 43  0  0  0  0  0  0  0  0999 V2000
    4.3438    2.7255   19.5880 C   0  0  0  0  0  0  0  0  0  0  0  0
    3.9897    2.0446   18.4848 N   0  0  0  0  0  0  0  0  0  0  0  0
    3.6607    2.6503   17.3284 C   0  0  0  0  0  0  0  0  0  0  0  0
    3.6903    4.0114   17.2826 C   0  0  0  0  0  0  0  0  0  0  0  0
    3.4210    4.9292   16.2900 C   0  0  0  0  0  0  0  0  0  0  0  0
    3.6323    6.1681   16.8607 C   0  0  0  0  0  0  0  0  0  0  0  0
    4.0151    6.0480   18.1452 N   0  0  0  0  0  0  0  0  0  0  0  0
    4.0508    4.7354   18.4029 C   0  0  0  0  0  0  0  0  0  0  0  0
    4.3722    4.0925   19.5373 N   0  0  0  0  0  0  0  0  0  0  0  0
    4.3268    7.1251   19.0623 C   0  0  0  0  0  0  0  0  0  0  0  0
    5.7572    7.0865   19.4844 C   0  0  0  0  0  0  0  0  0  0  0  0
    6.1371    8.3871   20.1093 C   0  0  0  0  0  0  0  0  0  0  0  0
    4.9850    9.1680   20.6618 C   0  0  0  0  0  0  0  0  0  0  0  0
    4.4655    8.5882   21.8343 O   0  0  0  0  0  0  0  0  0  0  0  0
    3.9112    9.4432   19.6541 C   0  0  0  0  0  0  0  0  0  0  0  0
    4.0266    8.4786   18.4779 C   0  0  0  0  0  0  0  0  0  0  0  0
    5.1227    8.0052   22.2790 H   0  0  0  0  0  0  0  0  0  0  0  0
    2.9955    4.6602   14.8956 C   0  0  0  0  0  0  0  0  0  0  0  0
    3.8849    4.0358   14.0446 C   0  0  0  0  0  0  0  0  0  0  0  0
    3.5461    3.7530   12.7229 C   0  0  0  0  0  0  0  0  0  0  0  0
    2.3063    4.0971   12.2450 C   0  0  0  0  0  0  0  0  0  0  0  0
    1.4336    4.7211   13.1166 C   0  0  0  0  0  0  0  0  0  0  0  0
    1.7697    5.0017   14.4279 C   0  0  0  0  0  0  0  0  0  0  0  0
    1.9115    3.8443   10.9119 N   0  0  0  0  0  0  0  0  0  0  0  0
    2.6662    3.6941   10.1768 H   0  0  0  0  0  0  0  0  0  0  0  0
    0.5101    3.7828   10.5095 C   0  0  0  0  0  0  0  0  0  0  0  0
    0.1958    4.8930    9.5309 C   0  0  0  0  0  0  0  0  0  0  0  0
   -0.2792    4.3102    8.2352 C   0  0  0  0  0  0  0  0  0  0  0  0
    0.6290    3.3839    7.6339 N   0  0  0  0  0  0  0  0  0  0  0  0
    1.2482    2.4911    8.5752 C   0  0  0  0  0  0  0  0  0  0  0  0
    0.3248    2.4428    9.8004 C   0  0  0  0  0  0  0  0  0  0  0  0
    0.1041    2.8000    6.9376 H   0  0  0  0  0  0  0  0  0  0  0  0
    4.6779    2.0300   20.7740 N   0  0  0  0  0  0  0  0  0  0  0  0
    5.6048    1.5553   20.8110 H   0  0  0  0  0  0  0  0  0  0  0  0
    3.7827    1.9715   21.8944 C   0  0  0  0  0  0  0  0  0  0  0  0
    3.3870    0.5061   22.0987 C   0  0  0  0  0  0  0  0  0  0  0  0
    4.2943    2.5752   23.1585 C   0  0  0  0  0  0  0  0  0  0  0  0
    4.5946    5.0195   22.9050 C   0  0  0  0  0  0  0  0  0  0  0  0
    3.6477    3.9291   23.3600 C   0  0  0  0  0  0  0  0  0  0  0  0
 38 39  1  0  0  0
 39 37  1  0  0  0
 37 35  1  0  0  0
 35 36  1  0  0  0
 35 33  1  0  0  0
 33  1  1  0  0  0
  1  2  2  0  0  0
  2  3  1  0  0  0
  3  4  2  0  0  0
  4  5  1  0  0  0
  5  6  2  0  0  0
  6  7  1  0  0  0
  7 10  1  0  0  0
 10 11  1  0  0  0
 11 12  1  0  0  0
 12 13  1  0  0  0
 13 14  1  0  0  0
 13 15  1  0  0  0
 15 16  1  0  0  0
  7  8  1  0  0  0
  8  9  2  0  0  0
  5 18  1  0  0  0
 18 19  2  0  0  0
 19 20  1  0  0  0
 20 21  2  0  0  0
 21 24  1  0  0  0
 24 26  1  0  0  0
 26 27  1  0  0  0
 27 28  1  0  0  0
 28 29  1  0  0  0
 29 30  1  0  0  0
 30 31  1  0  0  0
 21 22  1  0  0  0
 22 23  2  0  0  0
  9  1  1  0  0  0
 23 18  1  0  0  0
  8  4  1  0  0  0
 31 26  1  0  0  0
 16 10  1  0  0  0
 33 34  1  0  0  0
 14 17  1  0  0  0
 24 25  1  0  0  0
 29 32  1  0  0  0
M  END
> <minimizedAffinity>
-8.25147

> <CNNscore>
0.2458831668

> <CNNaffinity>
6.6810851097

> <CNN_VS>
1.6427663565

> <CNNaffinity_variance>
0.7918244600

$$$$
[H]O[C@]1([H])C([H])([H])C([H])([H])[C@@]([H])(n2c([H])c(-c3c([H])c([H])c(N([H])C4([H])C([H])([H])C([H])([H])N([H])C([H])([H])C4([H])[H])c([H])c3[H])c3c([H])nc(N([H])[C@@]([H])(C([H])([H])[H])C([H])([H])C([H])([H])C([H])([H])[H])nc32)C([H])([H])C1([H])[H]


 39 43  0  0  0  0  0  0  0  0999 V2000
    4.4928    2.1481   19.5912 C   0  0  0  0  0  0  0  0  0  0  0  0
    4.2505    1.3423   18.5433 N   0  0  0  0  0  0  0  0  0  0  0  0
    3.9986    1.8106   17.3065 C   0  0  0  0  0  0  0  0  0  0  0  0
    3.9906    3.1596   17.1173 C   0  0  0  0  0  0  0  0  0  0  0  0
    3.7754    3.9574   16.0140 C   0  0  0  0  0  0  0  0  0  0  0  0
    3.9019    5.2564   16.4632 C   0  0  0  0  0  0  0  0  0  0  0  0
    4.1823    5.2862   17.7789 N   0  0  0  0  0  0  0  0  0  0  0  0
    4.2366    4.0101   18.1781 C   0  0  0  0  0  0  0  0  0  0  0  0
    4.4838    3.5023   19.3964 N   0  0  0  0  0  0  0  0  0  0  0  0
    4.3856    6.4646   18.5966 C   0  0  0  0  0  0  0  0  0  0  0  0
    5.8152    6.6121   18.9965 C   0  0  0  0  0  0  0  0  0  0  0  0
    6.0605    7.9940   19.5030 C   0  0  0  0  0  0  0  0  0  0  0  0
    4.8366    8.6946   20.0069 C   0  0  0  0  0  0  0  0  0  0  0  0
    4.3903    8.1662   21.2326 O   0  0  0  0  0  0  0  0  0  0  0  0
    3.7320    8.7686   18.9977 C   0  0  0  0  0  0  0  0  0  0  0  0
    3.9395    7.7242   17.9053 C   0  0  0  0  0  0  0  0  0  0  0  0
    5.1089    7.6953   21.7139 H   0  0  0  0  0  0  0  0  0  0  0  0
    3.4732    3.5277   14.6277 C   0  0  0  0  0  0  0  0  0  0  0  0
    3.9630    4.2843   13.5823 C   0  0  0  0  0  0  0  0  0  0  0  0
    3.7161    3.9339   12.2564 C   0  0  0  0  0  0  0  0  0  0  0  0
    2.9723    2.8164   11.9705 C   0  0  0  0  0  0  0  0  0  0  0  0
    2.4932    2.0754   13.0345 C   0  0  0  0  0  0  0  0  0  0  0  0
    2.7381    2.4230   14.3499 C   0  0  0  0  0  0  0  0  0  0  0  0
    2.6819    2.4184   10.6460 N   0  0  0  0  0  0  0  0  0  0  0  0
    1.6908    2.5474   10.2809 H   0  0  0  0  0  0  0  0  0  0  0  0
    3.6902    1.8381    9.7649 C   0  0  0  0  0  0  0  0  0  0  0  0
    3.6313    0.3275    9.8230 C   0  0  0  0  0  0  0  0  0  0  0  0
    3.3372   -0.2233    8.4613 C   0  0  0  0  0  0  0  0  0  0  0  0
    2.1396    0.2806    7.8644 N   0  0  0  0  0  0  0  0  0  0  0  0
    1.9451    1.6906    8.0656 C   0  0  0  0  0  0  0  0  0  0  0  0
    3.3319    2.2845    8.3489 C   0  0  0  0  0  0  0  0  0  0  0  0
    2.1796    0.1081    6.8299 H   0  0  0  0  0  0  0  0  0  0  0  0
    4.7501    1.5938   20.8673 N   0  0  0  0  0  0  0  0  0  0  0  0
    5.6777    1.1447   21.0210 H   0  0  0  0  0  0  0  0  0  0  0  0
    3.7783    1.6410   21.9225 C   0  0  0  0  0  0  0  0  0  0  0  0
    2.8426    0.4411   21.7482 C   0  0  0  0  0  0  0  0  0  0  0  0
    4.3331    1.6983   23.3057 C   0  0  0  0  0  0  0  0  0  0  0  0
    3.5411    4.0435   23.3439 C   0  0  0  0  0  0  0  0  0  0  0  0
    4.7121    3.1274   23.6303 C   0  0  0  0  0  0  0  0  0  0  0  0
 38 39  1  0  0  0
 39 37  1  0  0  0
 37 35  1  0  0  0
 35 36  1  0  0  0
 35 33  1  0  0  0
 33  1  1  0  0  0
  1  2  2  0  0  0
  2  3  1  0  0  0
  3  4  2  0  0  0
  4  5  1  0  0  0
  5  6  2  0  0  0
  6  7  1  0  0  0
  7 10  1  0  0  0
 10 11  1  0  0  0
 11 12  1  0  0  0
 12 13  1  0  0  0
 13 14  1  0  0  0
 13 15  1  0  0  0
 15 16  1  0  0  0
  7  8  1  0  0  0
  8  9  2  0  0  0
  5 18  1  0  0  0
 18 19  2  0  0  0
 19 20  1  0  0  0
 20 21  2  0  0  0
 21 24  1  0  0  0
 24 26  1  0  0  0
 26 27  1  0  0  0
 27 28  1  0  0  0
 28 29  1  0  0  0
 29 30  1  0  0  0
 30 31  1  0  0  0
 21 22  1  0  0  0
 22 23  2  0  0  0
  9  1  1  0  0  0
 23 18  1  0  0  0
  8  4  1  0  0  0
 31 26  1  0  0  0
 16 10  1  0  0  0
 33 34  1  0  0  0
 14 17  1  0  0  0
 24 25  1  0  0  0
 29 32  1  0  0  0
M  END
> <minimizedAffinity>
-8.74646

> <CNNscore>
0.2393654138

> <CNNaffinity>
6.7957291603

> <CNN_VS>
1.6266624928

> <CNNaffinity_variance>
0.5412029028

$$$$
[H]O[C@]1([H])C([H])([H])C([H])([H])[C@@]([H])(n2c([H])c(-c3c([H])c([H])c(N([H])C4([H])C([H])([H])C([H])([H])N([H])C([H])([H])C4([H])[H])c([H])c3[H])c3c([H])nc(N([H])[C@@]([H])(C([H])([H])[H])C([H])([H])C([H])([H])C([H])([H])[H])nc32)C([H])([H])C1([H])[H]


 39 43  0  0  0  0  0  0  0  0999 V2000
    4.4458    7.8994   20.2983 C   0  0  0  0  0  0  0  0  0  0  0  0
    4.0477    8.2171   19.0547 N   0  0  0  0  0  0  0  0  0  0  0  0
    3.7851    7.2903   18.1142 C   0  0  0  0  0  0  0  0  0  0  0  0
    3.9315    5.9770   18.4449 C   0  0  0  0  0  0  0  0  0  0  0  0
    3.7523    4.8016   17.7474 C   0  0  0  0  0  0  0  0  0  0  0  0
    4.0623    3.7907   18.6347 C   0  0  0  0  0  0  0  0  0  0  0  0
    4.4190    4.2925   19.8313 N   0  0  0  0  0  0  0  0  0  0  0  0
    4.3396    5.6234   19.7168 C   0  0  0  0  0  0  0  0  0  0  0  0
    4.5914    6.5790   20.6260 N   0  0  0  0  0  0  0  0  0  0  0  0
    4.8090    3.5405   21.0064 C   0  0  0  0  0  0  0  0  0  0  0  0
    3.7317    3.5422   22.0384 C   0  0  0  0  0  0  0  0  0  0  0  0
    3.9964    2.4778   23.0500 C   0  0  0  0  0  0  0  0  0  0  0  0
    5.4314    2.0610   23.1486 C   0  0  0  0  0  0  0  0  0  0  0  0
    6.2286    3.0464   23.7604 O   0  0  0  0  0  0  0  0  0  0  0  0
    6.0125    1.6054   21.8452 C   0  0  0  0  0  0  0  0  0  0  0  0
    5.1706    2.1170   20.6804 C   0  0  0  0  0  0  0  0  0  0  0  0
    5.6945    3.6589   24.3166 H   0  0  0  0  0  0  0  0  0  0  0  0
    3.3159    4.6383   16.3400 C   0  0  0  0  0  0  0  0  0  0  0  0
    4.0994    3.8829   15.4912 C   0  0  0  0  0  0  0  0  0  0  0  0
    3.7444    3.6894   14.1576 C   0  0  0  0  0  0  0  0  0  0  0  0
    2.5952    4.2560   13.6657 C   0  0  0  0  0  0  0  0  0  0  0  0
    1.8276    5.0077   14.5354 C   0  0  0  0  0  0  0  0  0  0  0  0
    2.1798    5.1997   15.8585 C   0  0  0  0  0  0  0  0  0  0  0  0
    2.1906    4.1021   12.3205 N   0  0  0  0  0  0  0  0  0  0  0  0
    2.6332    3.3272   11.7408 H   0  0  0  0  0  0  0  0  0  0  0  0
    1.1910    4.9660   11.7007 C   0  0  0  0  0  0  0  0  0  0  0  0
    1.7370    5.5694   10.4253 C   0  0  0  0  0  0  0  0  0  0  0  0
    0.8830    5.1632    9.2636 C   0  0  0  0  0  0  0  0  0  0  0  0
    0.7368    3.7502    9.1011 N   0  0  0  0  0  0  0  0  0  0  0  0
    0.5509    3.0444   10.3396 C   0  0  0  0  0  0  0  0  0  0  0  0
    0.0075    4.0682   11.3459 C   0  0  0  0  0  0  0  0  0  0  0  0
   -0.1024    3.5646    8.4987 H   0  0  0  0  0  0  0  0  0  0  0  0
    4.7072    8.9208   21.2419 N   0  0  0  0  0  0  0  0  0  0  0  0
    3.9012    9.2917   21.7883 H   0  0  0  0  0  0  0  0  0  0  0  0
    6.0299    9.4377   21.4503 C   0  0  0  0  0  0  0  0  0  0  0  0
    6.8001    8.4194   22.2962 C   0  0  0  0  0  0  0  0  0  0  0  0
    6.7833    9.7942   20.2136 C   0  0  0  0  0  0  0  0  0  0  0  0
    8.1770    8.4957   18.6323 C   0  0  0  0  0  0  0  0  0  0  0  0
    7.9849    8.8828   20.0835 C   0  0  0  0  0  0  0  0  0  0  0  0
 38 39  1  0  0  0
 39 37  1  0  0  0
 37 35  1  0  0  0
 35 36  1  0  0  0
 35 33  1  0  0  0
 33  1  1  0  0  0
  1  2  2  0  0  0
  2  3  1  0  0  0
  3  4  2  0  0  0
  4  5  1  0  0  0
  5  6  2  0  0  0
  6  7  1  0  0  0
  7 10  1  0  0  0
 10 11  1  0  0  0
 11 12  1  0  0  0
 12 13  1  0  0  0
 13 14  1  0  0  0
 13 15  1  0  0  0
 15 16  1  0  0  0
  7  8  1  0  0  0
  8  9  2  0  0  0
  5 18  1  0  0  0
 18 19  2  0  0  0
 19 20  1  0  0  0
 20 21  2  0  0  0
 21 24  1  0  0  0
 24 26  1  0  0  0
 26 27  1  0  0  0
 27 28  1  0  0  0
 28 29  1  0  0  0
 29 30  1  0  0  0
 30 31  1  0  0  0
 21 22  1  0  0  0
 22 23  2  0  0  0
  9  1  1  0  0  0
 23 18  1  0  0  0
  8  4  1  0  0  0
 31 26  1  0  0  0
 16 10  1  0  0  0
 33 34  1  0  0  0
 14 17  1  0  0  0
 24 25  1  0  0  0
 29 32  1  0  0  0
M  END
> <minimizedAffinity>
-7.55736

> <CNNscore>
0.2147737592

> <CNNaffinity>
6.4267439842

> <CNN_VS>
1.3802959919

> <CNNaffinity_variance>
0.3010671437

$$$$
[H]O[C@]1([H])C([H])([H])C([H])([H])[C@@]([H])(n2c([H])c(-c3c([H])c([H])c(N([H])C4([H])C([H])([H])C([H])([H])N([H])C([H])([H])C4([H])[H])c([H])c3[H])c3c([H])nc(N([H])[C@@]([H])(C([H])([H])[H])C([H])([H])C([H])([H])C([H])([H])[H])nc32)C([H])([H])C1([H])[H]


 39 43  0  0  0  0  0  0  0  0999 V2000
    3.8286    4.2045   14.0126 C   0  0  0  0  0  0  0  0  0  0  0  0
    3.2431    2.9971   14.0863 N   0  0  0  0  0  0  0  0  0  0  0  0
    2.8340    2.3176   12.9984 C   0  0  0  0  0  0  0  0  0  0  0  0
    3.0252    2.8847   11.7747 C   0  0  0  0  0  0  0  0  0  0  0  0
    2.7362    2.4781   10.4897 C   0  0  0  0  0  0  0  0  0  0  0  0
    3.1766    3.4966    9.6687 C   0  0  0  0  0  0  0  0  0  0  0  0
    3.7164    4.4968   10.3890 N   0  0  0  0  0  0  0  0  0  0  0  0
    3.6249    4.1252   11.6712 C   0  0  0  0  0  0  0  0  0  0  0  0
    4.0187    4.7701   12.7813 N   0  0  0  0  0  0  0  0  0  0  0  0
    4.2836    5.7274    9.8765 C   0  0  0  0  0  0  0  0  0  0  0  0
    5.5289    5.4715    9.0961 C   0  0  0  0  0  0  0  0  0  0  0  0
    5.8746    6.6742    8.2833 C   0  0  0  0  0  0  0  0  0  0  0  0
    5.3040    7.9573    8.8035 C   0  0  0  0  0  0  0  0  0  0  0  0
    5.9477    8.3852    9.9797 O   0  0  0  0  0  0  0  0  0  0  0  0
    3.8148    7.9281    8.9634 C   0  0  0  0  0  0  0  0  0  0  0  0
    3.3140    6.4879    9.0134 C   0  0  0  0  0  0  0  0  0  0  0  0
    6.8476    7.9954   10.0695 H   0  0  0  0  0  0  0  0  0  0  0  0
    2.0909    1.2142   10.0605 C   0  0  0  0  0  0  0  0  0  0  0  0
    0.7385    1.0559   10.2859 C   0  0  0  0  0  0  0  0  0  0  0  0
    0.0718   -0.1069    9.9052 C   0  0  0  0  0  0  0  0  0  0  0  0
    0.7621   -1.1230    9.2930 C   0  0  0  0  0  0  0  0  0  0  0  0
    2.1154   -0.9404    9.0782 C   0  0  0  0  0  0  0  0  0  0  0  0
    2.7769    0.2133    9.4560 C   0  0  0  0  0  0  0  0  0  0  0  0
    0.1409   -2.3280    8.8943 N   0  0  0  0  0  0  0  0  0  0  0  0
   -0.6738   -2.2796    8.2115 H   0  0  0  0  0  0  0  0  0  0  0  0
    0.5757   -3.6318    9.3852 C   0  0  0  0  0  0  0  0  0  0  0  0
   -0.5503   -4.3143   10.1303 C   0  0  0  0  0  0  0  0  0  0  0  0
   -0.8860   -5.6143    9.4659 C   0  0  0  0  0  0  0  0  0  0  0  0
   -1.2260   -5.5018    8.0817 N   0  0  0  0  0  0  0  0  0  0  0  0
   -0.3918   -4.5826    7.3567 C   0  0  0  0  0  0  0  0  0  0  0  0
    0.9165   -4.4640    8.1507 C   0  0  0  0  0  0  0  0  0  0  0  0
   -1.1277   -6.4450    7.6321 H   0  0  0  0  0  0  0  0  0  0  0  0
    4.2357    4.8685   15.1938 N   0  0  0  0  0  0  0  0  0  0  0  0
    4.7119    5.7896   15.0908 H   0  0  0  0  0  0  0  0  0  0  0  0
    4.0077    4.3062   16.4945 C   0  0  0  0  0  0  0  0  0  0  0  0
    5.3689    4.1453   17.1778 C   0  0  0  0  0  0  0  0  0  0  0  0
    3.0525    5.0556   17.3607 C   0  0  0  0  0  0  0  0  0  0  0  0
    3.6130    6.9375   18.8684 C   0  0  0  0  0  0  0  0  0  0  0  0
    3.7490    5.4459   18.6468 C   0  0  0  0  0  0  0  0  0  0  0  0
 38 39  1  0  0  0
 39 37  1  0  0  0
 37 35  1  0  0  0
 35 36  1  0  0  0
 35 33  1  0  0  0
 33  1  1  0  0  0
  1  2  2  0  0  0
  2  3  1  0  0  0
  3  4  2  0  0  0
  4  5  1  0  0  0
  5  6  2  0  0  0
  6  7  1  0  0  0
  7 10  1  0  0  0
 10 11  1  0  0  0
 11 12  1  0  0  0
 12 13  1  0  0  0
 13 14  1  0  0  0
 13 15  1  0  0  0
 15 16  1  0  0  0
  7  8  1  0  0  0
  8  9  2  0  0  0
  5 18  1  0  0  0
 18 19  2  0  0  0
 19 20  1  0  0  0
 20 21  2  0  0  0
 21 24  1  0  0  0
 24 26  1  0  0  0
 26 27  1  0  0  0
 27 28  1  0  0  0
 28 29  1  0  0  0
 29 30  1  0  0  0
 30 31  1  0  0  0
 21 22  1  0  0  0
 22 23  2  0  0  0
  9  1  1  0  0  0
 23 18  1  0  0  0
  8  4  1  0  0  0
 31 26  1  0  0  0
 16 10  1  0  0  0
 33 34  1  0  0  0
 14 17  1  0  0  0
 24 25  1  0  0  0
 29 32  1  0  0  0
M  END
> <minimizedAffinity>
-6.11827

> <CNNscore>
0.2112362832

> <CNNaffinity>
5.9812383652

> <CNN_VS>
1.2634545565

> <CNNaffinity_variance>
0.2186717093

$$$$
[H]O[C@]1([H])C([H])([H])C([H])([H])[C@@]([H])(n2c([H])c(-c3c([H])c([H])c(N([H])C4([H])C([H])([H])C([H])([H])N([H])C([H])([H])C4([H])[H])c([H])c3[H])c3c([H])nc(N([H])[C@@]([H])(C([H])([H])[H])C([H])([H])C([H])([H])C([H])([H])[H])nc32)C([H])([H])C1([H])[H]


 39 43  0  0  0  0  0  0  0  0999 V2000
    3.3192    3.0841   16.3146 C   0  0  0  0  0  0  0  0  0  0  0  0
    3.1973    1.8633   15.7661 N   0  0  0  0  0  0  0  0  0  0  0  0
    2.9100    1.6742   14.4645 C   0  0  0  0  0  0  0  0  0  0  0  0
    2.7368    2.7719   13.6767 C   0  0  0  0  0  0  0  0  0  0  0  0
    2.4425    2.9386   12.3404 C   0  0  0  0  0  0  0  0  0  0  0  0
    2.3981    4.3029   12.1359 C   0  0  0  0  0  0  0  0  0  0  0  0
    2.6501    4.9697   13.2773 N   0  0  0  0  0  0  0  0  0  0  0  0
    2.8566    4.0384   14.2159 C   0  0  0  0  0  0  0  0  0  0  0  0
    3.1445    4.1837   15.5195 N   0  0  0  0  0  0  0  0  0  0  0  0
    2.6906    6.4071   13.4519 C   0  0  0  0  0  0  0  0  0  0  0  0
    4.0936    6.9112   13.5091 C   0  0  0  0  0  0  0  0  0  0  0  0
    4.1098    8.3902   13.3127 C   0  0  0  0  0  0  0  0  0  0  0  0
    2.8208    9.0734   13.6504 C   0  0  0  0  0  0  0  0  0  0  0  0
    2.5892    9.1123   15.0381 O   0  0  0  0  0  0  0  0  0  0  0  0
    1.6416    8.5277   12.9047 C   0  0  0  0  0  0  0  0  0  0  0  0
    1.9538    7.1366   12.3618 C   0  0  0  0  0  0  0  0  0  0  0  0
    3.4229    9.0156   15.5532 H   0  0  0  0  0  0  0  0  0  0  0  0
    2.2199    1.8851   11.3213 C   0  0  0  0  0  0  0  0  0  0  0  0
    0.9293    1.4534   11.0916 C   0  0  0  0  0  0  0  0  0  0  0  0
    0.6524    0.4677   10.1464 C   0  0  0  0  0  0  0  0  0  0  0  0
    1.6746   -0.0934    9.4225 C   0  0  0  0  0  0  0  0  0  0  0  0
    2.9580    0.3559    9.6706 C   0  0  0  0  0  0  0  0  0  0  0  0
    3.2327    1.3338   10.6084 C   0  0  0  0  0  0  0  0  0  0  0  0
    1.4547   -1.1030    8.4585 N   0  0  0  0  0  0  0  0  0  0  0  0
    1.0741   -0.8229    7.5050 H   0  0  0  0  0  0  0  0  0  0  0  0
    1.7296   -2.5114    8.7243 C   0  0  0  0  0  0  0  0  0  0  0  0
    0.5011   -3.1881    9.2914 C   0  0  0  0  0  0  0  0  0  0  0  0
    0.0766   -4.3088    8.3926 C   0  0  0  0  0  0  0  0  0  0  0  0
   -0.1714   -3.9212    7.0389 N   0  0  0  0  0  0  0  0  0  0  0  0
    0.7895   -2.9849    6.5227 C   0  0  0  0  0  0  0  0  0  0  0  0
    2.0559   -3.1478    7.3747 C   0  0  0  0  0  0  0  0  0  0  0  0
   -0.1417   -4.7768    6.4318 H   0  0  0  0  0  0  0  0  0  0  0  0
    3.6219    3.2163   17.6905 N   0  0  0  0  0  0  0  0  0  0  0  0
    2.8245    3.2372   18.3609 H   0  0  0  0  0  0  0  0  0  0  0  0
    4.9740    3.3187   18.1611 C   0  0  0  0  0  0  0  0  0  0  0  0
    5.3696    4.7978   18.1239 C   0  0  0  0  0  0  0  0  0  0  0  0
    5.2348    2.7223   19.5029 C   0  0  0  0  0  0  0  0  0  0  0  0
    4.0439    0.7961   20.5030 C   0  0  0  0  0  0  0  0  0  0  0  0
    3.9261    2.2509   20.1001 C   0  0  0  0  0  0  0  0  0  0  0  0
 38 39  1  0  0  0
 39 37  1  0  0  0
 37 35  1  0  0  0
 35 36  1  0  0  0
 35 33  1  0  0  0
 33  1  1  0  0  0
  1  2  2  0  0  0
  2  3  1  0  0  0
  3  4  2  0  0  0
  4  5  1  0  0  0
  5  6  2  0  0  0
  6  7  1  0  0  0
  7 10  1  0  0  0
 10 11  1  0  0  0
 11 12  1  0  0  0
 12 13  1  0  0  0
 13 14  1  0  0  0
 13 15  1  0  0  0
 15 16  1  0  0  0
  7  8  1  0  0  0
  8  9  2  0  0  0
  5 18  1  0  0  0
 18 19  2  0  0  0
 19 20  1  0  0  0
 20 21  2  0  0  0
 21 24  1  0  0  0
 24 26  1  0  0  0
 26 27  1  0  0  0
 27 28  1  0  0  0
 28 29  1  0  0  0
 29 30  1  0  0  0
 30 31  1  0  0  0
 21 22  1  0  0  0
 22 23  2  0  0  0
  9  1  1  0  0  0
 23 18  1  0  0  0
  8  4  1  0  0  0
 31 26  1  0  0  0
 16 10  1  0  0  0
 33 34  1  0  0  0
 14 17  1  0  0  0
 24 25  1  0  0  0
 29 32  1  0  0  0
M  END
> <minimizedAffinity>
-6.68261

> <CNNscore>
0.2049834877

> <CNNaffinity>
6.5368957520

> <CNN_VS>
1.3399556875

> <CNNaffinity_variance>
0.2135063857

$$$$
[H]O[C@]1([H])C([H])([H])C([H])([H])[C@@]([H])(n2c([H])c(-c3c([H])c([H])c(N([H])C4([H])C([H])([H])C([H])([H])N([H])C([H])([H])C4([H])[H])c([H])c3[H])c3c([H])nc(N([H])[C@@]([H])(C([H])([H])[H])C([H])([H])C([H])([H])C([H])([H])[H])nc32)C([H])([H])C1([H])[H]


 39 43  0  0  0  0  0  0  0  0999 V2000
   -0.8405    5.0472   11.5003 C   0  0  0  0  0  0  0  0  0  0  0  0
   -0.5992    5.1667   12.8169 N   0  0  0  0  0  0  0  0  0  0  0  0
    0.3887    5.9369   13.3101 C   0  0  0  0  0  0  0  0  0  0  0  0
    1.1726    6.6210   12.4308 C   0  0  0  0  0  0  0  0  0  0  0  0
    2.2418    7.4769   12.5866 C   0  0  0  0  0  0  0  0  0  0  0  0
    2.6109    7.8484   11.3095 C   0  0  0  0  0  0  0  0  0  0  0  0
    1.8217    7.2629   10.3903 N   0  0  0  0  0  0  0  0  0  0  0  0
    0.9456    6.5156   11.0720 C   0  0  0  0  0  0  0  0  0  0  0  0
   -0.0507    5.7363   10.6209 N   0  0  0  0  0  0  0  0  0  0  0  0
    1.9049    7.4141    8.9520 C   0  0  0  0  0  0  0  0  0  0  0  0
    2.4603    8.7461    8.5739 C   0  0  0  0  0  0  0  0  0  0  0  0
    2.8797    8.7331    7.1420 C   0  0  0  0  0  0  0  0  0  0  0  0
    2.1944    7.6968    6.3060 C   0  0  0  0  0  0  0  0  0  0  0  0
    0.8466    8.0198    6.0611 O   0  0  0  0  0  0  0  0  0  0  0  0
    2.3452    6.3043    6.8375 C   0  0  0  0  0  0  0  0  0  0  0  0
    2.7382    6.3378    8.3112 C   0  0  0  0  0  0  0  0  0  0  0  0
    0.6748    8.9841    6.1631 H   0  0  0  0  0  0  0  0  0  0  0  0
    2.8741    7.9191   13.8526 C   0  0  0  0  0  0  0  0  0  0  0  0
    2.8998    9.2690   14.1393 C   0  0  0  0  0  0  0  0  0  0  0  0
    3.4774    9.7495   15.3128 C   0  0  0  0  0  0  0  0  0  0  0  0
    4.0356    8.8736   16.2100 C   0  0  0  0  0  0  0  0  0  0  0  0
    3.9972    7.5270   15.9002 C   0  0  0  0  0  0  0  0  0  0  0  0
    3.4242    7.0503   14.7359 C   0  0  0  0  0  0  0  0  0  0  0  0
    4.6436    9.3042   17.4107 N   0  0  0  0  0  0  0  0  0  0  0  0
    5.6556    9.6319   17.3804 H   0  0  0  0  0  0  0  0  0  0  0  0
    3.9348    9.3147   18.6864 C   0  0  0  0  0  0  0  0  0  0  0  0
    4.3340    8.1158   19.5184 C   0  0  0  0  0  0  0  0  0  0  0  0
    4.9402    8.5717   20.8101 C   0  0  0  0  0  0  0  0  0  0  0  0
    6.0609    9.4472   20.6623 N   0  0  0  0  0  0  0  0  0  0  0  0
    5.8918   10.4291   19.6261 C   0  0  0  0  0  0  0  0  0  0  0  0
    4.3791   10.5815   19.4146 C   0  0  0  0  0  0  0  0  0  0  0  0
    6.2111    9.9591   21.5660 H   0  0  0  0  0  0  0  0  0  0  0  0
   -1.8944    4.2203   11.0447 N   0  0  0  0  0  0  0  0  0  0  0  0
   -1.7302    3.1914   11.0316 H   0  0  0  0  0  0  0  0  0  0  0  0
   -3.1504    4.7646   10.6130 C   0  0  0  0  0  0  0  0  0  0  0  0
   -3.6505    5.7093   11.7097 C   0  0  0  0  0  0  0  0  0  0  0  0
   -3.1359    5.4390    9.2829 C   0  0  0  0  0  0  0  0  0  0  0  0
   -4.9867    4.0669    8.3770 C   0  0  0  0  0  0  0  0  0  0  0  0
   -4.5435    5.4718    8.7269 C   0  0  0  0  0  0  0  0  0  0  0  0
 38 39  1  0  0  0
 39 37  1  0  0  0
 37 35  1  0  0  0
 35 36  1  0  0  0
 35 33  1  0  0  0
 33  1  1  0  0  0
  1  2  2  0  0  0
  2  3  1  0  0  0
  3  4  2  0  0  0
  4  5  1  0  0  0
  5  6  2  0  0  0
  6  7  1  0  0  0
  7 10  1  0  0  0
 10 11  1  0  0  0
 11 12  1  0  0  0
 12 13  1  0  0  0
 13 14  1  0  0  0
 13 15  1  0  0  0
 15 16  1  0  0  0
  7  8  1  0  0  0
  8  9  2  0  0  0
  5 18  1  0  0  0
 18 19  2  0  0  0
 19 20  1  0  0  0
 20 21  2  0  0  0
 21 24  1  0  0  0
 24 26  1  0  0  0
 26 27  1  0  0  0
 27 28  1  0  0  0
 28 29  1  0  0  0
 29 30  1  0  0  0
 30 31  1  0  0  0
 21 22  1  0  0  0
 22 23  2  0  0  0
  9  1  1  0  0  0
 23 18  1  0  0  0
  8  4  1  0  0  0
 31 26  1  0  0  0
 16 10  1  0  0  0
 33 34  1  0  0  0
 14 17  1  0  0  0
 24 25  1  0  0  0
 29 32  1  0  0  0
M  END
> <minimizedAffinity>
-6.26068

> <CNNscore>
0.1925537139

> <CNNaffinity>
5.8946580887

> <CNN_VS>
1.1350382566

> <CNNaffinity_variance>
0.4368799329

$$$$
[H]O[C@]1([H])C([H])([H])C([H])([H])[C@@]([H])(n2c([H])c(-c3c([H])c([H])c(N([H])C4([H])C([H])([H])C([H])([H])N([H])C([H])([H])C4([H])[H])c([H])c3[H])c3c([H])nc(N([H])[C@@]([H])(C([H])([H])[H])C([H])([H])C([H])([H])C([H])([H])[H])nc32)C([H])([H])C1([H])[H]


 39 43  0  0  0  0  0  0  0  0999 V2000
    4.3615    2.4859   19.4678 C   0  0  0  0  0  0  0  0  0  0  0  0
    4.0345    1.8240   18.3449 N   0  0  0  0  0  0  0  0  0  0  0  0
    3.7328    2.4495   17.1915 C   0  0  0  0  0  0  0  0  0  0  0  0
    3.7626    3.8112   17.1699 C   0  0  0  0  0  0  0  0  0  0  0  0
    3.5165    4.7459   16.1871 C   0  0  0  0  0  0  0  0  0  0  0  0
    3.7132    5.9748   16.7839 C   0  0  0  0  0  0  0  0  0  0  0  0
    4.0652    5.8327   18.0749 N   0  0  0  0  0  0  0  0  0  0  0  0
    4.0957    4.5158   18.3108 C   0  0  0  0  0  0  0  0  0  0  0  0
    4.3902    3.8536   19.4413 N   0  0  0  0  0  0  0  0  0  0  0  0
    4.3541    6.8939   19.0177 C   0  0  0  0  0  0  0  0  0  0  0  0
    5.7831    6.8705   19.4455 C   0  0  0  0  0  0  0  0  0  0  0  0
    6.1377    8.1630   20.1014 C   0  0  0  0  0  0  0  0  0  0  0  0
    4.9697    8.9110   20.6661 C   0  0  0  0  0  0  0  0  0  0  0  0
    4.4553    8.2958   21.8228 O   0  0  0  0  0  0  0  0  0  0  0  0
    3.8955    9.1904   19.6600 C   0  0  0  0  0  0  0  0  0  0  0  0
    4.0328    8.2549   18.4628 C   0  0  0  0  0  0  0  0  0  0  0  0
    5.1208    7.7143   22.2572 H   0  0  0  0  0  0  0  0  0  0  0  0
    3.1247    4.5008   14.7784 C   0  0  0  0  0  0  0  0  0  0  0  0
    1.8081    4.7027   14.4166 C   0  0  0  0  0  0  0  0  0  0  0  0
    1.3757    4.4919   13.1088 C   0  0  0  0  0  0  0  0  0  0  0  0
    2.2667    4.0750   12.1516 C   0  0  0  0  0  0  0  0  0  0  0  0
    3.5793    3.8800   12.5388 C   0  0  0  0  0  0  0  0  0  0  0  0
    4.0083    4.0891   13.8362 C   0  0  0  0  0  0  0  0  0  0  0  0
    1.8831    3.8358   10.8127 N   0  0  0  0  0  0  0  0  0  0  0  0
    1.4176    4.6224   10.2678 H   0  0  0  0  0  0  0  0  0  0  0  0
    2.1019    2.5522   10.1538 C   0  0  0  0  0  0  0  0  0  0  0  0
    1.5494    1.4267   11.0006 C   0  0  0  0  0  0  0  0  0  0  0  0
    0.4945    0.6861   10.2372 C   0  0  0  0  0  0  0  0  0  0  0  0
   -0.5799    1.5035    9.7661 N   0  0  0  0  0  0  0  0  0  0  0  0
   -0.1517    2.7726    9.2442 C   0  0  0  0  0  0  0  0  0  0  0  0
    1.3202    2.6032    8.8428 C   0  0  0  0  0  0  0  0  0  0  0  0
   -1.0795    0.9939    8.9966 H   0  0  0  0  0  0  0  0  0  0  0  0
    4.6676    1.7701   20.6493 N   0  0  0  0  0  0  0  0  0  0  0  0
    5.6600    1.4916   20.8021 H   0  0  0  0  0  0  0  0  0  0  0  0
    3.6582    1.4326   21.6122 C   0  0  0  0  0  0  0  0  0  0  0  0
    3.2285   -0.0138   21.3494 C   0  0  0  0  0  0  0  0  0  0  0  0
    4.0389    1.6331   23.0401 C   0  0  0  0  0  0  0  0  0  0  0  0
    3.5940    4.0357   23.4380 C   0  0  0  0  0  0  0  0  0  0  0  0
    4.6715    2.9991   23.1987 C   0  0  0  0  0  0  0  0  0  0  0  0
 38 39  1  0  0  0
 39 37  1  0  0  0
 37 35  1  0  0  0
 35 36  1  0  0  0
 35 33  1  0  0  0
 33  1  1  0  0  0
  1  2  2  0  0  0
  2  3  1  0  0  0
  3  4  2  0  0  0
  4  5  1  0  0  0
  5  6  2  0  0  0
  6  7  1  0  0  0
  7 10  1  0  0  0
 10 11  1  0  0  0
 11 12  1  0  0  0
 12 13  1  0  0  0
 13 14  1  0  0  0
 13 15  1  0  0  0
 15 16  1  0  0  0
  7  8  1  0  0  0
  8  9  2  0  0  0
  5 18  1  0  0  0
 18 19  2  0  0  0
 19 20  1  0  0  0
 20 21  2  0  0  0
 21 24  1  0  0  0
 24 26  1  0  0  0
 26 27  1  0  0  0
 27 28  1  0  0  0
 28 29  1  0  0  0
 29 30  1  0  0  0
 30 31  1  0  0  0
 21 22  1  0  0  0
 22 23  2  0  0  0
  9  1  1  0  0  0
 23 18  1  0  0  0
  8  4  1  0  0  0
 31 26  1  0  0  0
 16 10  1  0  0  0
 33 34  1  0  0  0
 14 17  1  0  0  0
 24 25  1  0  0  0
 29 32  1  0  0  0
M  END
> <minimizedAffinity>
-8.73969

> <CNNscore>
0.1890872568

> <CNNaffinity>
6.8024930954

> <CNN_VS>
1.2862647772

> <CNNaffinity_variance>
0.7242497206

$$$$
[H]OC([H])([H])C([H])([H])N1[C@@]([H])(C([H])([H])[H])C([H])([H])N(C([H])([H])c2c([H])c([H])c(-c3c([H])c([H])c(C([H])([H])O[C@@]4([H])C([H])([H])C([H])([H])C([H])([H])[C@]4([H])N([H])C(=O)c4c(N([H])[H])nc([H])c(-c5c([H])nn(C([H])([H])[H])c5[H])c4[H])c(F)c3[H])c([H])c2[H])C([H])([H])[C@@]1([H])C([H])([H])[H]


 52 57  0  0  0  0  0  0  0  0999 V2000
    3.6437    2.3808   15.8543 C   0  0  0  0  0  0  0  0  0  0  0  0
    4.4619    3.1531   16.6459 C   0  0  0  0  0  0  0  0  0  0  0  0
    4.7207    2.7875   17.9580 C   0  0  0  0  0  0  0  0  0  0  0  0
    4.1877    1.6561   18.5355 C   0  0  0  0  0  0  0  0  0  0  0  0
    3.3666    0.8882   17.7282 C   0  0  0  0  0  0  0  0  0  0  0  0
    2.8298   -0.2271   18.2693 F   0  0  0  0  0  0  0  0  0  0  0  0
    3.0999    1.2361   16.4268 C   0  0  0  0  0  0  0  0  0  0  0  0
    2.7549    3.3949   11.8311 C   0  0  0  0  0  0  0  0  0  0  0  0
    3.5687    4.2080   12.5784 C   0  0  0  0  0  0  0  0  0  0  0  0
    3.8487    3.8625   13.8810 C   0  0  0  0  0  0  0  0  0  0  0  0
    3.3342    2.7164   14.4651 C   0  0  0  0  0  0  0  0  0  0  0  0
    2.5166    1.9145   13.6874 C   0  0  0  0  0  0  0  0  0  0  0  0
    2.2366    2.2567   12.3907 C   0  0  0  0  0  0  0  0  0  0  0  0
    2.4393    3.7607   10.4238 C   0  0  0  0  0  0  0  0  0  0  0  0
    5.3571    1.3050    7.7811 C   0  0  0  0  0  0  0  0  0  0  0  0
    4.0458    1.8275    8.3800 C   0  0  0  0  0  0  0  0  0  0  0  0
    4.4311    2.6755    9.5630 C   0  0  0  0  0  0  0  0  0  0  0  0
    3.6067    3.8186    9.6327 N   0  0  0  0  0  0  0  0  0  0  0  0
    3.5836    4.6024    8.4570 C   0  0  0  0  0  0  0  0  0  0  0  0
    3.3221    3.8232    7.1973 C   0  0  0  0  0  0  0  0  0  0  0  0
    4.3407    4.1157    6.1178 C   0  0  0  0  0  0  0  0  0  0  0  0
    3.2585    2.4122    7.3924 N   0  0  0  0  0  0  0  0  0  0  0  0
    2.0956    1.7762    6.9224 C   0  0  0  0  0  0  0  0  0  0  0  0
    0.8639    2.6421    6.9043 C   0  0  0  0  0  0  0  0  0  0  0  0
    0.1218    2.5380    8.0623 O   0  0  0  0  0  0  0  0  0  0  0  0
    0.1292    3.3666    8.6105 H   0  0  0  0  0  0  0  0  0  0  0  0
    4.4645    1.2651   19.9413 C   0  0  0  0  0  0  0  0  0  0  0  0
    3.4480    1.6180   20.7995 O   0  0  0  0  0  0  0  0  0  0  0  0
    3.8667    2.3083   21.9058 C   0  0  0  0  0  0  0  0  0  0  0  0
    4.0574    1.4514   23.1425 C   0  0  0  0  0  0  0  0  0  0  0  0
    4.8688    2.3722   24.0367 C   0  0  0  0  0  0  0  0  0  0  0  0
    5.8604    2.9635   23.0617 C   0  0  0  0  0  0  0  0  0  0  0  0
    5.1171    3.1065   21.7457 C   0  0  0  0  0  0  0  0  0  0  0  0
    4.8752    4.5228   21.5671 N   0  0  0  0  0  0  0  0  0  0  0  0
    5.8931    5.4834   21.3977 C   0  0  0  0  0  0  0  0  0  0  0  0
    7.0868    5.1063   21.3994 O   0  0  0  0  0  0  0  0  0  0  0  0
    3.8851    4.8331   21.5668 H   0  0  0  0  0  0  0  0  0  0  0  0
    5.5995    6.8889   21.2223 C   0  0  0  0  0  0  0  0  0  0  0  0
    5.0081    7.4243   20.1055 C   0  0  0  0  0  0  0  0  0  0  0  0
    4.7319    8.7761   19.9397 C   0  0  0  0  0  0  0  0  0  0  0  0
    5.0877    9.6110   20.9857 C   0  0  0  0  0  0  0  0  0  0  0  0
    5.6695    9.1081   22.0921 N   0  0  0  0  0  0  0  0  0  0  0  0
    5.9264    7.7892   22.2259 C   0  0  0  0  0  0  0  0  0  0  0  0
    6.5443    7.3928   23.4474 N   0  0  0  0  0  0  0  0  0  0  0  0
    7.5444    7.6516   23.6686 H   0  0  0  0  0  0  0  0  0  0  0  0
    6.0374    6.8347   24.1684 H   0  0  0  0  0  0  0  0  0  0  0  0
    4.1074    9.2943   18.7380 C   0  0  0  0  0  0  0  0  0  0  0  0
    3.1354   10.2582   18.6461 C   0  0  0  0  0  0  0  0  0  0  0  0
    2.8551   10.4153   17.3258 N   0  0  0  0  0  0  0  0  0  0  0  0
    3.5944    9.6064   16.5881 N   0  0  0  0  0  0  0  0  0  0  0  0
    3.5582    9.5041   15.1286 C   0  0  0  0  0  0  0  0  0  0  0  0
    4.3761    8.9049   17.4480 C   0  0  0  0  0  0  0  0  0  0  0  0
 15 16  1  0  0  0
 16 17  1  0  0  0
 17 18  1  0  0  0
 18 14  1  0  0  0
 14  8  1  0  0  0
  8  9  2  0  0  0
  9 10  1  0  0  0
 10 11  2  0  0  0
 11 12  1  0  0  0
 12 13  2  0  0  0
 11  1  1  0  0  0
  1  2  2  0  0  0
  2  3  1  0  0  0
  3  4  2  0  0  0
  4 27  1  0  0  0
 27 28  1  0  0  0
 28 29  1  0  0  0
 29 30  1  0  0  0
 30 31  1  0  0  0
 31 32  1  0  0  0
 32 33  1  0  0  0
 33 34  1  0  0  0
 34 35  1  0  0  0
 35 36  2  0  0  0
 35 38  1  0  0  0
 38 39  2  0  0  0
 39 40  1  0  0  0
 40 41  2  0  0  0
 41 42  1  0  0  0
 42 43  2  0  0  0
 43 44  1  0  0  0
 40 47  1  0  0  0
 47 48  1  0  0  0
 48 49  2  0  0  0
 49 50  1  0  0  0
 50 51  1  0  0  0
 50 52  1  0  0  0
  4  5  1  0  0  0
  5  6  1  0  0  0
  5  7  2  0  0  0
 18 19  1  0  0  0
 19 20  1  0  0  0
 20 21  1  0  0  0
 20 22  1  0  0  0
 22 23  1  0  0  0
 23 24  1  0  0  0
 24 25  1  0  0  0
 22 16  1  0  0  0
 13  8  1  0  0  0
  7  1  1  0  0  0
 33 29  1  0  0  0
 43 38  1  0  0  0
 52 47  2  0  0  0
 34 37  1  0  0  0
 44 45  1  0  0  0
 44 46  1  0  0  0
 25 26  1  0  0  0
M  END
> <minimizedAffinity>
-9.94027

> <CNNscore>
0.3254114389

> <CNNaffinity>
7.0808458328

> <CNN_VS>
2.3041882515

> <CNNaffinity_variance>
0.3997502029

$$$$
[H]OC([H])([H])C([H])([H])N1[C@@]([H])(C([H])([H])[H])C([H])([H])N(C([H])([H])c2c([H])c([H])c(-c3c([H])c([H])c(C([H])([H])O[C@@]4([H])C([H])([H])C([H])([H])C([H])([H])[C@]4([H])N([H])C(=O)c4c(N([H])[H])nc([H])c(-c5c([H])nn(C([H])([H])[H])c5[H])c4[H])c(F)c3[H])c([H])c2[H])C([H])([H])[C@@]1([H])C([H])([H])[H]


 52 57  0  0  0  0  0  0  0  0999 V2000
    3.2800    2.8387   15.2357 C   0  0  0  0  0  0  0  0  0  0  0  0
    3.4033    1.6526   15.9218 C   0  0  0  0  0  0  0  0  0  0  0  0
    3.9702    1.6272   17.1869 C   0  0  0  0  0  0  0  0  0  0  0  0
    4.4333    2.7602   17.8191 C   0  0  0  0  0  0  0  0  0  0  0  0
    4.3030    3.9463   17.1178 C   0  0  0  0  0  0  0  0  0  0  0  0
    4.7496    5.0732   17.7142 F   0  0  0  0  0  0  0  0  0  0  0  0
    3.7441    3.9890   15.8642 C   0  0  0  0  0  0  0  0  0  0  0  0
    1.6101    3.1094   11.3443 C   0  0  0  0  0  0  0  0  0  0  0  0
    2.9710    3.0395   11.5021 C   0  0  0  0  0  0  0  0  0  0  0  0
    3.4955    2.9494   12.7715 C   0  0  0  0  0  0  0  0  0  0  0  0
    2.6920    2.9268   13.8998 C   0  0  0  0  0  0  0  0  0  0  0  0
    1.3224    2.9982   13.7107 C   0  0  0  0  0  0  0  0  0  0  0  0
    0.7984    3.0879   12.4480 C   0  0  0  0  0  0  0  0  0  0  0  0
    1.0308    3.2136    9.9778 C   0  0  0  0  0  0  0  0  0  0  0  0
   -0.4563    0.3730    6.6242 C   0  0  0  0  0  0  0  0  0  0  0  0
    0.4906    1.2229    7.4798 C   0  0  0  0  0  0  0  0  0  0  0  0
   -0.3841    2.0284    8.4032 C   0  0  0  0  0  0  0  0  0  0  0  0
    0.2029    2.1090    9.6839 N   0  0  0  0  0  0  0  0  0  0  0  0
    0.5135    0.8614   10.2705 C   0  0  0  0  0  0  0  0  0  0  0  0
    1.2895   -0.0676    9.3776 C   0  0  0  0  0  0  0  0  0  0  0  0
    0.6652   -1.4432    9.2969 C   0  0  0  0  0  0  0  0  0  0  0  0
    1.4769    0.4253    8.0528 N   0  0  0  0  0  0  0  0  0  0  0  0
    2.8058    0.4765    7.5958 C   0  0  0  0  0  0  0  0  0  0  0  0
    3.5112    1.7832    7.8458 C   0  0  0  0  0  0  0  0  0  0  0  0
    4.8833    1.6486    7.8896 O   0  0  0  0  0  0  0  0  0  0  0  0
    5.3459    2.0799    7.1234 H   0  0  0  0  0  0  0  0  0  0  0  0
    5.0412    2.7325   19.1739 C   0  0  0  0  0  0  0  0  0  0  0  0
    4.2534    2.0805   20.0950 O   0  0  0  0  0  0  0  0  0  0  0  0
    4.1700    2.7151   21.3058 C   0  0  0  0  0  0  0  0  0  0  0  0
    3.9706    1.7848   22.4869 C   0  0  0  0  0  0  0  0  0  0  0  0
    4.3073    2.6919   23.6574 C   0  0  0  0  0  0  0  0  0  0  0  0
    5.5289    3.4214   23.1484 C   0  0  0  0  0  0  0  0  0  0  0  0
    5.3122    3.6085   21.6575 C   0  0  0  0  0  0  0  0  0  0  0  0
    5.0232    5.0137   21.4618 N   0  0  0  0  0  0  0  0  0  0  0  0
    6.0067    6.0002   21.2453 C   0  0  0  0  0  0  0  0  0  0  0  0
    7.2106    5.6582   21.2175 O   0  0  0  0  0  0  0  0  0  0  0  0
    4.0248    5.2950   21.4860 H   0  0  0  0  0  0  0  0  0  0  0  0
    5.6666    7.3932   21.0546 C   0  0  0  0  0  0  0  0  0  0  0  0
    5.0328    7.8919   19.9439 C   0  0  0  0  0  0  0  0  0  0  0  0
    4.7118    9.2318   19.7632 C   0  0  0  0  0  0  0  0  0  0  0  0
    5.0670   10.0945   20.7868 C   0  0  0  0  0  0  0  0  0  0  0  0
    5.6900    9.6278   21.8866 N   0  0  0  0  0  0  0  0  0  0  0  0
    5.9898    8.3196   22.0353 C   0  0  0  0  0  0  0  0  0  0  0  0
    6.6485    7.9624   23.2476 N   0  0  0  0  0  0  0  0  0  0  0  0
    7.6453    8.2548   23.4402 H   0  0  0  0  0  0  0  0  0  0  0  0
    6.1761    7.4016   23.9896 H   0  0  0  0  0  0  0  0  0  0  0  0
    4.0434    9.7109   18.5690 C   0  0  0  0  0  0  0  0  0  0  0  0
    2.9969   10.5946   18.4902 C   0  0  0  0  0  0  0  0  0  0  0  0
    2.7001   10.7425   17.1725 N   0  0  0  0  0  0  0  0  0  0  0  0
    3.4992   10.0034   16.4241 N   0  0  0  0  0  0  0  0  0  0  0  0
    3.4661    9.9139   14.9635 C   0  0  0  0  0  0  0  0  0  0  0  0
    4.3377    9.3579   17.2741 C   0  0  0  0  0  0  0  0  0  0  0  0
 15 16  1  0  0  0
 16 17  1  0  0  0
 17 18  1  0  0  0
 18 14  1  0  0  0
 14  8  1  0  0  0
  8  9  2  0  0  0
  9 10  1  0  0  0
 10 11  2  0  0  0
 11 12  1  0  0  0
 12 13  2  0  0  0
 11  1  1  0  0  0
  1  2  2  0  0  0
  2  3  1  0  0  0
  3  4  2  0  0  0
  4 27  1  0  0  0
 27 28  1  0  0  0
 28 29  1  0  0  0
 29 30  1  0  0  0
 30 31  1  0  0  0
 31 32  1  0  0  0
 32 33  1  0  0  0
 33 34  1  0  0  0
 34 35  1  0  0  0
 35 36  2  0  0  0
 35 38  1  0  0  0
 38 39  2  0  0  0
 39 40  1  0  0  0
 40 41  2  0  0  0
 41 42  1  0  0  0
 42 43  2  0  0  0
 43 44  1  0  0  0
 40 47  1  0  0  0
 47 48  1  0  0  0
 48 49  2  0  0  0
 49 50  1  0  0  0
 50 51  1  0  0  0
 50 52  1  0  0  0
  4  5  1  0  0  0
  5  6  1  0  0  0
  5  7  2  0  0  0
 18 19  1  0  0  0
 19 20  1  0  0  0
 20 21  1  0  0  0
 20 22  1  0  0  0
 22 23  1  0  0  0
 23 24  1  0  0  0
 24 25  1  0  0  0
 22 16  1  0  0  0
 13  8  1  0  0  0
  7  1  1  0  0  0
 33 29  1  0  0  0
 43 38  1  0  0  0
 52 47  2  0  0  0
 34 37  1  0  0  0
 44 45  1  0  0  0
 44 46  1  0  0  0
 25 26  1  0  0  0
M  END
> <minimizedAffinity>
-8.90708

> <CNNscore>
0.2435633987

> <CNNaffinity>
6.8267936707

> <CNN_VS>
1.6627570391

> <CNNaffinity_variance>
0.3731754124

$$$$
[H]OC([H])([H])C([H])([H])N1[C@@]([H])(C([H])([H])[H])C([H])([H])N(C([H])([H])c2c([H])c([H])c(-c3c([H])c([H])c(C([H])([H])O[C@@]4([H])C([H])([H])C([H])([H])C([H])([H])[C@]4([H])N([H])C(=O)c4c(N([H])[H])nc([H])c(-c5c([H])nn(C([H])([H])[H])c5[H])c4[H])c(F)c3[H])c([H])c2[H])C([H])([H])[C@@]1([H])C([H])([H])[H]


 52 57  0  0  0  0  0  0  0  0999 V2000
    3.5953    2.4998   15.7231 C   0  0  0  0  0  0  0  0  0  0  0  0
    3.2470    1.3016   16.3024 C   0  0  0  0  0  0  0  0  0  0  0  0
    3.6316    1.0104   17.6022 C   0  0  0  0  0  0  0  0  0  0  0  0
    4.3680    1.8815   18.3746 C   0  0  0  0  0  0  0  0  0  0  0  0
    4.7115    3.0830   17.7797 C   0  0  0  0  0  0  0  0  0  0  0  0
    5.4343    3.9563   18.5146 F   0  0  0  0  0  0  0  0  0  0  0  0
    4.3388    3.3871   16.4935 C   0  0  0  0  0  0  0  0  0  0  0  0
    2.4860    3.5115   11.7543 C   0  0  0  0  0  0  0  0  0  0  0  0
    1.8069    2.5261   12.4250 C   0  0  0  0  0  0  0  0  0  0  0  0
    2.1784    2.2125   13.7127 C   0  0  0  0  0  0  0  0  0  0  0  0
    3.2192    2.8614   14.3570 C   0  0  0  0  0  0  0  0  0  0  0  0
    3.8862    3.8518   13.6565 C   0  0  0  0  0  0  0  0  0  0  0  0
    3.5180    4.1653   12.3746 C   0  0  0  0  0  0  0  0  0  0  0  0
    2.0985    3.8553   10.3596 C   0  0  0  0  0  0  0  0  0  0  0  0
   -2.1122    5.6463    9.5911 C   0  0  0  0  0  0  0  0  0  0  0  0
   -0.5950    5.4413    9.5079 C   0  0  0  0  0  0  0  0  0  0  0  0
   -0.2448    4.4442   10.5802 C   0  0  0  0  0  0  0  0  0  0  0  0
    0.7426    3.5513   10.1121 N   0  0  0  0  0  0  0  0  0  0  0  0
    0.4121    2.8819    8.9122 C   0  0  0  0  0  0  0  0  0  0  0  0
   -0.0659    3.7860    7.8092 C   0  0  0  0  0  0  0  0  0  0  0  0
   -1.3687    3.3140    7.2021 C   0  0  0  0  0  0  0  0  0  0  0  0
   -0.2142    5.1488    8.2014 N   0  0  0  0  0  0  0  0  0  0  0  0
    0.4709    6.0945    7.4179 C   0  0  0  0  0  0  0  0  0  0  0  0
    1.3246    7.0612    8.1951 C   0  0  0  0  0  0  0  0  0  0  0  0
    1.0315    8.3788    7.9113 O   0  0  0  0  0  0  0  0  0  0  0  0
    0.6113    8.8613    8.6713 H   0  0  0  0  0  0  0  0  0  0  0  0
    4.7805    1.5689   19.7667 C   0  0  0  0  0  0  0  0  0  0  0  0
    3.7320    1.6285   20.6562 O   0  0  0  0  0  0  0  0  0  0  0  0
    4.0151    2.3157   21.8065 C   0  0  0  0  0  0  0  0  0  0  0  0
    4.1063    1.4479   23.0470 C   0  0  0  0  0  0  0  0  0  0  0  0
    4.7942    2.3801   24.0287 C   0  0  0  0  0  0  0  0  0  0  0  0
    5.8604    3.0141   23.1657 C   0  0  0  0  0  0  0  0  0  0  0  0
    5.2499    3.1529   21.7826 C   0  0  0  0  0  0  0  0  0  0  0  0
    4.9833    4.5637   21.5956 N   0  0  0  0  0  0  0  0  0  0  0  0
    5.9851    5.5447   21.4481 C   0  0  0  0  0  0  0  0  0  0  0  0
    7.1859    5.1921   21.4785 O   0  0  0  0  0  0  0  0  0  0  0  0
    3.9874    4.8537   21.5715 H   0  0  0  0  0  0  0  0  0  0  0  0
    5.6671    6.9436   21.2631 C   0  0  0  0  0  0  0  0  0  0  0  0
    5.0671    7.4611   20.1423 C   0  0  0  0  0  0  0  0  0  0  0  0
    4.7674    8.8066   19.9672 C   0  0  0  0  0  0  0  0  0  0  0  0
    5.1079    9.6547   21.0077 C   0  0  0  0  0  0  0  0  0  0  0  0
    5.6978    9.1695   22.1178 N   0  0  0  0  0  0  0  0  0  0  0  0
    5.9776    7.8562   22.2607 C   0  0  0  0  0  0  0  0  0  0  0  0
    6.6017    7.4790   23.4851 N   0  0  0  0  0  0  0  0  0  0  0  0
    7.5970    7.7568   23.7050 H   0  0  0  0  0  0  0  0  0  0  0  0
    6.1042    6.9170   24.2097 H   0  0  0  0  0  0  0  0  0  0  0  0
    4.1346    9.3057   18.7618 C   0  0  0  0  0  0  0  0  0  0  0  0
    3.1493   10.2553   18.6626 C   0  0  0  0  0  0  0  0  0  0  0  0
    2.8655   10.3969   17.3413 N   0  0  0  0  0  0  0  0  0  0  0  0
    3.6153    9.5920   16.6099 N   0  0  0  0  0  0  0  0  0  0  0  0
    3.5791    9.4765   15.1513 C   0  0  0  0  0  0  0  0  0  0  0  0
    4.4074    8.9088   17.4750 C   0  0  0  0  0  0  0  0  0  0  0  0
 15 16  1  0  0  0
 16 17  1  0  0  0
 17 18  1  0  0  0
 18 14  1  0  0  0
 14  8  1  0  0  0
  8  9  2  0  0  0
  9 10  1  0  0  0
 10 11  2  0  0  0
 11 12  1  0  0  0
 12 13  2  0  0  0
 11  1  1  0  0  0
  1  2  2  0  0  0
  2  3  1  0  0  0
  3  4  2  0  0  0
  4 27  1  0  0  0
 27 28  1  0  0  0
 28 29  1  0  0  0
 29 30  1  0  0  0
 30 31  1  0  0  0
 31 32  1  0  0  0
 32 33  1  0  0  0
 33 34  1  0  0  0
 34 35  1  0  0  0
 35 36  2  0  0  0
 35 38  1  0  0  0
 38 39  2  0  0  0
 39 40  1  0  0  0
 40 41  2  0  0  0
 41 42  1  0  0  0
 42 43  2  0  0  0
 43 44  1  0  0  0
 40 47  1  0  0  0
 47 48  1  0  0  0
 48 49  2  0  0  0
 49 50  1  0  0  0
 50 51  1  0  0  0
 50 52  1  0  0  0
  4  5  1  0  0  0
  5  6  1  0  0  0
  5  7  2  0  0  0
 18 19  1  0  0  0
 19 20  1  0  0  0
 20 21  1  0  0  0
 20 22  1  0  0  0
 22 23  1  0  0  0
 23 24  1  0  0  0
 24 25  1  0  0  0
 22 16  1  0  0  0
 13  8  1  0  0  0
  7  1  1  0  0  0
 33 29  1  0  0  0
 43 38  1  0  0  0
 52 47  2  0  0  0
 34 37  1  0  0  0
 44 45  1  0  0  0
 44 46  1  0  0  0
 25 26  1  0  0  0
M  END
> <minimizedAffinity>
-10.10879

> <CNNscore>
0.1946529597

> <CNNaffinity>
6.8327775002

> <CNN_VS>
1.3300203085

> <CNNaffinity_variance>
0.3990468085

$$$$
[H]OC([H])([H])C([H])([H])N1[C@@]([H])(C([H])([H])[H])C([H])([H])N(C([H])([H])c2c([H])c([H])c(-c3c([H])c([H])c(C([H])([H])O[C@@]4([H])C([H])([H])C([H])([H])C([H])([H])[C@]4([H])N([H])C(=O)c4c(N([H])[H])nc([H])c(-c5c([H])nn(C([H])([H])[H])c5[H])c4[H])c(F)c3[H])c([H])c2[H])C([H])([H])[C@@]1([H])C([H])([H])[H]


 52 57  0  0  0  0  0  0  0  0999 V2000
    3.2049    1.9937   15.9399 C   0  0  0  0  0  0  0  0  0  0  0  0
    4.0929    2.7566   16.6625 C   0  0  0  0  0  0  0  0  0  0  0  0
    4.4543    2.3864   17.9488 C   0  0  0  0  0  0  0  0  0  0  0  0
    3.9588    1.2596   18.5672 C   0  0  0  0  0  0  0  0  0  0  0  0
    3.0667    0.5013   17.8292 C   0  0  0  0  0  0  0  0  0  0  0  0
    2.5646   -0.6094   18.4117 F   0  0  0  0  0  0  0  0  0  0  0  0
    2.6981    0.8537   16.5542 C   0  0  0  0  0  0  0  0  0  0  0  0
    2.0046    3.0215   12.0020 C   0  0  0  0  0  0  0  0  0  0  0  0
    2.9766    3.7542   12.6347 C   0  0  0  0  0  0  0  0  0  0  0  0
    3.3557    3.4052   13.9111 C   0  0  0  0  0  0  0  0  0  0  0  0
    2.7863    2.3344   14.5809 C   0  0  0  0  0  0  0  0  0  0  0  0
    1.8084    1.6127   13.9180 C   0  0  0  0  0  0  0  0  0  0  0  0
    1.4297    1.9585   12.6477 C   0  0  0  0  0  0  0  0  0  0  0  0
    1.5812    3.3925   10.6247 C   0  0  0  0  0  0  0  0  0  0  0  0
   -0.8160    6.3635    7.9875 C   0  0  0  0  0  0  0  0  0  0  0  0
   -0.3080    5.0404    8.5727 C   0  0  0  0  0  0  0  0  0  0  0  0
    0.8674    5.3896    9.4464 C   0  0  0  0  0  0  0  0  0  0  0  0
    0.8551    4.6028   10.6177 N   0  0  0  0  0  0  0  0  0  0  0  0
   -0.3440    4.6715   11.3624 C   0  0  0  0  0  0  0  0  0  0  0  0
   -1.5913    4.4525   10.5508 C   0  0  0  0  0  0  0  0  0  0  0  0
   -2.6208    5.5383   10.7734 C   0  0  0  0  0  0  0  0  0  0  0  0
   -1.3560    4.3292    9.1499 N   0  0  0  0  0  0  0  0  0  0  0  0
   -1.8700    3.1724    8.5373 C   0  0  0  0  0  0  0  0  0  0  0  0
   -1.2881    1.8779    9.0405 C   0  0  0  0  0  0  0  0  0  0  0  0
   -2.2551    0.9694    9.4172 O   0  0  0  0  0  0  0  0  0  0  0  0
   -2.3038    0.1762    8.8209 H   0  0  0  0  0  0  0  0  0  0  0  0
    4.3456    0.8638   19.9455 C   0  0  0  0  0  0  0  0  0  0  0  0
    3.4550    1.3107   20.8948 O   0  0  0  0  0  0  0  0  0  0  0  0
    4.0111    2.1344   21.8371 C   0  0  0  0  0  0  0  0  0  0  0  0
    4.0471    1.5497   23.2360 C   0  0  0  0  0  0  0  0  0  0  0  0
    5.0306    2.4728   23.9336 C   0  0  0  0  0  0  0  0  0  0  0  0
    6.1065    2.6359   22.8851 C   0  0  0  0  0  0  0  0  0  0  0  0
    5.3900    2.6252   21.5467 C   0  0  0  0  0  0  0  0  0  0  0  0
    5.4232    3.9872   21.0567 N   0  0  0  0  0  0  0  0  0  0  0  0
    4.4138    4.9403   21.3020 C   0  0  0  0  0  0  0  0  0  0  0  0
    3.4189    4.6056   21.9841 O   0  0  0  0  0  0  0  0  0  0  0  0
    6.2484    4.2621   20.4910 H   0  0  0  0  0  0  0  0  0  0  0  0
    4.4936    6.2908   20.7899 C   0  0  0  0  0  0  0  0  0  0  0  0
    5.1535    7.3195   21.4146 C   0  0  0  0  0  0  0  0  0  0  0  0
    5.2239    8.6166   20.9208 C   0  0  0  0  0  0  0  0  0  0  0  0
    4.5770    8.8552   19.7198 C   0  0  0  0  0  0  0  0  0  0  0  0
    3.9226    7.8608   19.0884 N   0  0  0  0  0  0  0  0  0  0  0  0
    3.8706    6.6090   19.5920 C   0  0  0  0  0  0  0  0  0  0  0  0
    3.1456    5.6542   18.8215 N   0  0  0  0  0  0  0  0  0  0  0  0
    2.0944    5.7044   18.7288 H   0  0  0  0  0  0  0  0  0  0  0  0
    3.6204    4.8718   18.3205 H   0  0  0  0  0  0  0  0  0  0  0  0
    5.9320    9.6710   21.6202 C   0  0  0  0  0  0  0  0  0  0  0  0
    6.3692    9.6689   22.9207 C   0  0  0  0  0  0  0  0  0  0  0  0
    6.9738   10.8661   23.1386 N   0  0  0  0  0  0  0  0  0  0  0  0
    6.9398   11.6155   22.0513 N   0  0  0  0  0  0  0  0  0  0  0  0
    7.4929   12.9644   21.9219 C   0  0  0  0  0  0  0  0  0  0  0  0
    6.2976   10.8895   21.1010 C   0  0  0  0  0  0  0  0  0  0  0  0
 15 16  1  0  0  0
 16 17  1  0  0  0
 17 18  1  0  0  0
 18 14  1  0  0  0
 14  8  1  0  0  0
  8  9  2  0  0  0
  9 10  1  0  0  0
 10 11  2  0  0  0
 11 12  1  0  0  0
 12 13  2  0  0  0
 11  1  1  0  0  0
  1  2  2  0  0  0
  2  3  1  0  0  0
  3  4  2  0  0  0
  4 27  1  0  0  0
 27 28  1  0  0  0
 28 29  1  0  0  0
 29 30  1  0  0  0
 30 31  1  0  0  0
 31 32  1  0  0  0
 32 33  1  0  0  0
 33 34  1  0  0  0
 34 35  1  0  0  0
 35 36  2  0  0  0
 35 38  1  0  0  0
 38 39  2  0  0  0
 39 40  1  0  0  0
 40 41  2  0  0  0
 41 42  1  0  0  0
 42 43  2  0  0  0
 43 44  1  0  0  0
 40 47  1  0  0  0
 47 48  1  0  0  0
 48 49  2  0  0  0
 49 50  1  0  0  0
 50 51  1  0  0  0
 50 52  1  0  0  0
  4  5  1  0  0  0
  5  6  1  0  0  0
  5  7  2  0  0  0
 18 19  1  0  0  0
 19 20  1  0  0  0
 20 21  1  0  0  0
 20 22  1  0  0  0
 22 23  1  0  0  0
 23 24  1  0  0  0
 24 25  1  0  0  0
 22 16  1  0  0  0
 13  8  1  0  0  0
  7  1  1  0  0  0
 33 29  1  0  0  0
 43 38  1  0  0  0
 52 47  2  0  0  0
 34 37  1  0  0  0
 44 45  1  0  0  0
 44 46  1  0  0  0
 25 26  1  0  0  0
M  END
> <minimizedAffinity>
-10.60093

> <CNNscore>
0.1621384025

> <CNNaffinity>
6.7218947411

> <CNN_VS>
1.0898772478

> <CNNaffinity_variance>
0.2995910943

$$$$
[H]OC([H])([H])C([H])([H])N1[C@@]([H])(C([H])([H])[H])C([H])([H])N(C([H])([H])c2c([H])c([H])c(-c3c([H])c([H])c(C([H])([H])O[C@@]4([H])C([H])([H])C([H])([H])C([H])([H])[C@]4([H])N([H])C(=O)c4c(N([H])[H])nc([H])c(-c5c([H])nn(C([H])([H])[H])c5[H])c4[H])c(F)c3[H])c([H])c2[H])C([H])([H])[C@@]1([H])C([H])([H])[H]


 52 57  0  0  0  0  0  0  0  0999 V2000
    3.6105    2.4391   15.7432 C   0  0  0  0  0  0  0  0  0  0  0  0
    3.2079    1.2627   16.3317 C   0  0  0  0  0  0  0  0  0  0  0  0
    3.5748    0.9666   17.6356 C   0  0  0  0  0  0  0  0  0  0  0  0
    4.3461    1.8114   18.4030 C   0  0  0  0  0  0  0  0  0  0  0  0
    4.7442    2.9913   17.7988 C   0  0  0  0  0  0  0  0  0  0  0  0
    5.5021    3.8386   18.5287 F   0  0  0  0  0  0  0  0  0  0  0  0
    4.3896    3.2999   16.5085 C   0  0  0  0  0  0  0  0  0  0  0  0
    2.5849    3.5401   11.7757 C   0  0  0  0  0  0  0  0  0  0  0  0
    3.3103    4.4011   12.5594 C   0  0  0  0  0  0  0  0  0  0  0  0
    3.6365    4.0268   13.8431 C   0  0  0  0  0  0  0  0  0  0  0  0
    3.2554    2.8046   14.3726 C   0  0  0  0  0  0  0  0  0  0  0  0
    2.5247    1.9555   13.5590 C   0  0  0  0  0  0  0  0  0  0  0  0
    2.1990    2.3264   12.2810 C   0  0  0  0  0  0  0  0  0  0  0  0
    2.2202    3.9356   10.3885 C   0  0  0  0  0  0  0  0  0  0  0  0
   -0.8077    6.3173    7.8026 C   0  0  0  0  0  0  0  0  0  0  0  0
   -0.0425    5.1316    8.4024 C   0  0  0  0  0  0  0  0  0  0  0  0
    1.1007    5.7204    9.1854 C   0  0  0  0  0  0  0  0  0  0  0  0
    1.2934    5.0000   10.3834 N   0  0  0  0  0  0  0  0  0  0  0  0
    0.1450    4.8951   11.2003 C   0  0  0  0  0  0  0  0  0  0  0  0
   -1.0882    4.4249   10.4790 C   0  0  0  0  0  0  0  0  0  0  0  0
   -2.2784    5.3251   10.7270 C   0  0  0  0  0  0  0  0  0  0  0  0
   -0.9147    4.2777    9.0714 N   0  0  0  0  0  0  0  0  0  0  0  0
   -1.2511    3.0216    8.5362 C   0  0  0  0  0  0  0  0  0  0  0  0
   -0.4356    1.8703    9.0626 C   0  0  0  0  0  0  0  0  0  0  0  0
   -1.1956    0.9514    9.7556 O   0  0  0  0  0  0  0  0  0  0  0  0
   -1.2752    0.0763    9.2918 H   0  0  0  0  0  0  0  0  0  0  0  0
    4.7397    1.4936   19.7994 C   0  0  0  0  0  0  0  0  0  0  0  0
    3.6858    1.5814   20.6801 O   0  0  0  0  0  0  0  0  0  0  0  0
    3.9700    2.2829   21.8215 C   0  0  0  0  0  0  0  0  0  0  0  0
    4.0454    1.4331   23.0754 C   0  0  0  0  0  0  0  0  0  0  0  0
    4.7378    2.3728   24.0467 C   0  0  0  0  0  0  0  0  0  0  0  0
    5.8152    2.9825   23.1802 C   0  0  0  0  0  0  0  0  0  0  0  0
    5.2136    3.1068   21.7918 C   0  0  0  0  0  0  0  0  0  0  0  0
    4.9629    4.5173   21.5820 N   0  0  0  0  0  0  0  0  0  0  0  0
    5.9687    5.5050   21.5662 C   0  0  0  0  0  0  0  0  0  0  0  0
    7.1588    5.1592   21.7430 O   0  0  0  0  0  0  0  0  0  0  0  0
    3.9758    4.8016   21.4365 H   0  0  0  0  0  0  0  0  0  0  0  0
    5.6668    6.9034   21.3519 C   0  0  0  0  0  0  0  0  0  0  0  0
    5.0704    7.4038   20.2216 C   0  0  0  0  0  0  0  0  0  0  0  0
    4.7861    8.7489   20.0185 C   0  0  0  0  0  0  0  0  0  0  0  0
    5.1391    9.6149   21.0399 C   0  0  0  0  0  0  0  0  0  0  0  0
    5.7258    9.1465   22.1589 N   0  0  0  0  0  0  0  0  0  0  0  0
    5.9904    7.8333   22.3292 C   0  0  0  0  0  0  0  0  0  0  0  0
    6.6128    7.4749   23.5601 N   0  0  0  0  0  0  0  0  0  0  0  0
    7.6118    7.7455   23.7719 H   0  0  0  0  0  0  0  0  0  0  0  0
    6.1104    6.9344   24.2975 H   0  0  0  0  0  0  0  0  0  0  0  0
    4.1565    9.2295   18.8040 C   0  0  0  0  0  0  0  0  0  0  0  0
    3.2039   10.2096   18.6837 C   0  0  0  0  0  0  0  0  0  0  0  0
    2.9091   10.3171   17.3616 N   0  0  0  0  0  0  0  0  0  0  0  0
    3.6212    9.4622   16.6495 N   0  0  0  0  0  0  0  0  0  0  0  0
    3.5631    9.2995   15.1961 C   0  0  0  0  0  0  0  0  0  0  0  0
    4.3994    8.7806   17.5283 C   0  0  0  0  0  0  0  0  0  0  0  0
 15 16  1  0  0  0
 16 17  1  0  0  0
 17 18  1  0  0  0
 18 14  1  0  0  0
 14  8  1  0  0  0
  8  9  2  0  0  0
  9 10  1  0  0  0
 10 11  2  0  0  0
 11 12  1  0  0  0
 12 13  2  0  0  0
 11  1  1  0  0  0
  1  2  2  0  0  0
  2  3  1  0  0  0
  3  4  2  0  0  0
  4 27  1  0  0  0
 27 28  1  0  0  0
 28 29  1  0  0  0
 29 30  1  0  0  0
 30 31  1  0  0  0
 31 32  1  0  0  0
 32 33  1  0  0  0
 33 34  1  0  0  0
 34 35  1  0  0  0
 35 36  2  0  0  0
 35 38  1  0  0  0
 38 39  2  0  0  0
 39 40  1  0  0  0
 40 41  2  0  0  0
 41 42  1  0  0  0
 42 43  2  0  0  0
 43 44  1  0  0  0
 40 47  1  0  0  0
 47 48  1  0  0  0
 48 49  2  0  0  0
 49 50  1  0  0  0
 50 51  1  0  0  0
 50 52  1  0  0  0
  4  5  1  0  0  0
  5  6  1  0  0  0
  5  7  2  0  0  0
 18 19  1  0  0  0
 19 20  1  0  0  0
 20 21  1  0  0  0
 20 22  1  0  0  0
 22 23  1  0  0  0
 23 24  1  0  0  0
 24 25  1  0  0  0
 22 16  1  0  0  0
 13  8  1  0  0  0
  7  1  1  0  0  0
 33 29  1  0  0  0
 43 38  1  0  0  0
 52 47  2  0  0  0
 34 37  1  0  0  0
 44 45  1  0  0  0
 44 46  1  0  0  0
 25 26  1  0  0  0
M  END
> <minimizedAffinity>
-10.42647

> <CNNscore>
0.1567942798

> <CNNaffinity>
6.8270034790

> <CNN_VS>
1.0704350471

> <CNNaffinity_variance>
0.4404210150

$$$$
[H]OC([H])([H])C([H])([H])N1[C@@]([H])(C([H])([H])[H])C([H])([H])N(C([H])([H])c2c([H])c([H])c(-c3c([H])c([H])c(C([H])([H])O[C@@]4([H])C([H])([H])C([H])([H])C([H])([H])[C@]4([H])N([H])C(=O)c4c(N([H])[H])nc([H])c(-c5c([H])nn(C([H])([H])[H])c5[H])c4[H])c(F)c3[H])c([H])c2[H])C([H])([H])[C@@]1([H])C([H])([H])[H]


 52 57  0  0  0  0  0  0  0  0999 V2000
    3.6278    2.3426   15.7407 C   0  0  0  0  0  0  0  0  0  0  0  0
    3.2170    1.1777   16.3466 C   0  0  0  0  0  0  0  0  0  0  0  0
    3.5672    0.9066   17.6604 C   0  0  0  0  0  0  0  0  0  0  0  0
    4.3291    1.7658   18.4213 C   0  0  0  0  0  0  0  0  0  0  0  0
    4.7355    2.9337   17.7997 C   0  0  0  0  0  0  0  0  0  0  0  0
    5.4845    3.7946   18.5228 F   0  0  0  0  0  0  0  0  0  0  0  0
    4.3976    3.2176   16.4993 C   0  0  0  0  0  0  0  0  0  0  0  0
    2.6601    3.3665   11.7382 C   0  0  0  0  0  0  0  0  0  0  0  0
    3.5334    4.1468   12.4526 C   0  0  0  0  0  0  0  0  0  0  0  0
    3.8382    3.7985   13.7489 C   0  0  0  0  0  0  0  0  0  0  0  0
    3.2904    2.6817   14.3589 C   0  0  0  0  0  0  0  0  0  0  0  0
    2.4129    1.9125   13.6141 C   0  0  0  0  0  0  0  0  0  0  0  0
    2.1082    2.2575   12.3238 C   0  0  0  0  0  0  0  0  0  0  0  0
    2.3174    3.7359   10.3383 C   0  0  0  0  0  0  0  0  0  0  0  0
   -0.9730    6.5326   12.0351 C   0  0  0  0  0  0  0  0  0  0  0  0
    0.3920    6.0551   11.5253 C   0  0  0  0  0  0  0  0  0  0  0  0
    0.2907    4.5593   11.3874 C   0  0  0  0  0  0  0  0  0  0  0  0
    0.9668    4.1298   10.2256 N   0  0  0  0  0  0  0  0  0  0  0  0
    0.5477    4.7596    9.0320 C   0  0  0  0  0  0  0  0  0  0  0  0
    0.5010    6.2611    9.1065 C   0  0  0  0  0  0  0  0  0  0  0  0
   -0.8216    6.8201    8.6301 C   0  0  0  0  0  0  0  0  0  0  0  0
    0.7753    6.7850   10.4039 N   0  0  0  0  0  0  0  0  0  0  0  0
    1.8047    7.7401   10.4787 C   0  0  0  0  0  0  0  0  0  0  0  0
    2.6455    7.6683   11.7259 C   0  0  0  0  0  0  0  0  0  0  0  0
    3.8544    8.3187   11.5922 O   0  0  0  0  0  0  0  0  0  0  0  0
    3.9254    9.1368   12.1515 H   0  0  0  0  0  0  0  0  0  0  0  0
    4.7046    1.4747   19.8284 C   0  0  0  0  0  0  0  0  0  0  0  0
    3.6481    1.6162   20.6990 O   0  0  0  0  0  0  0  0  0  0  0  0
    3.9527    2.3159   21.8363 C   0  0  0  0  0  0  0  0  0  0  0  0
    4.0517    1.4639   23.0870 C   0  0  0  0  0  0  0  0  0  0  0  0
    4.7611    2.4024   24.0472 C   0  0  0  0  0  0  0  0  0  0  0  0
    5.8221    3.0144   23.1621 C   0  0  0  0  0  0  0  0  0  0  0  0
    5.1950    3.1407   21.7853 C   0  0  0  0  0  0  0  0  0  0  0  0
    4.9395    4.5514   21.5827 N   0  0  0  0  0  0  0  0  0  0  0  0
    5.9482    5.5318   21.4888 C   0  0  0  0  0  0  0  0  0  0  0  0
    7.1455    5.1789   21.5844 O   0  0  0  0  0  0  0  0  0  0  0  0
    3.9465    4.8417   21.5044 H   0  0  0  0  0  0  0  0  0  0  0  0
    5.6412    6.9307   21.2854 C   0  0  0  0  0  0  0  0  0  0  0  0
    5.0432    7.4378   20.1589 C   0  0  0  0  0  0  0  0  0  0  0  0
    4.7541    8.7834   19.9662 C   0  0  0  0  0  0  0  0  0  0  0  0
    5.1037    9.6426   20.9945 C   0  0  0  0  0  0  0  0  0  0  0  0
    5.6918    9.1677   22.1099 N   0  0  0  0  0  0  0  0  0  0  0  0
    5.9612    7.8542   22.2699 C   0  0  0  0  0  0  0  0  0  0  0  0
    6.5847    7.4885   23.4982 N   0  0  0  0  0  0  0  0  0  0  0  0
    7.5826    7.7610   23.7124 H   0  0  0  0  0  0  0  0  0  0  0  0
    6.0841    6.9404   24.2312 H   0  0  0  0  0  0  0  0  0  0  0  0
    4.1230    9.2712   18.7553 C   0  0  0  0  0  0  0  0  0  0  0  0
    3.1949   10.2749   18.6384 C   0  0  0  0  0  0  0  0  0  0  0  0
    2.8875   10.3802   17.3190 N   0  0  0  0  0  0  0  0  0  0  0  0
    3.5686    9.5016   16.6054 N   0  0  0  0  0  0  0  0  0  0  0  0
    3.4893    9.3296   15.1541 C   0  0  0  0  0  0  0  0  0  0  0  0
    4.3392    8.8065   17.4805 C   0  0  0  0  0  0  0  0  0  0  0  0
 15 16  1  0  0  0
 16 17  1  0  0  0
 17 18  1  0  0  0
 18 14  1  0  0  0
 14  8  1  0  0  0
  8  9  2  0  0  0
  9 10  1  0  0  0
 10 11  2  0  0  0
 11 12  1  0  0  0
 12 13  2  0  0  0
 11  1  1  0  0  0
  1  2  2  0  0  0
  2  3  1  0  0  0
  3  4  2  0  0  0
  4 27  1  0  0  0
 27 28  1  0  0  0
 28 29  1  0  0  0
 29 30  1  0  0  0
 30 31  1  0  0  0
 31 32  1  0  0  0
 32 33  1  0  0  0
 33 34  1  0  0  0
 34 35  1  0  0  0
 35 36  2  0  0  0
 35 38  1  0  0  0
 38 39  2  0  0  0
 39 40  1  0  0  0
 40 41  2  0  0  0
 41 42  1  0  0  0
 42 43  2  0  0  0
 43 44  1  0  0  0
 40 47  1  0  0  0
 47 48  1  0  0  0
 48 49  2  0  0  0
 49 50  1  0  0  0
 50 51  1  0  0  0
 50 52  1  0  0  0
  4  5  1  0  0  0
  5  6  1  0  0  0
  5  7  2  0  0  0
 18 19  1  0  0  0
 19 20  1  0  0  0
 20 21  1  0  0  0
 20 22  1  0  0  0
 22 23  1  0  0  0
 23 24  1  0  0  0
 24 25  1  0  0  0
 22 16  1  0  0  0
 13  8  1  0  0  0
  7  1  1  0  0  0
 33 29  1  0  0  0
 43 38  1  0  0  0
 52 47  2  0  0  0
 34 37  1  0  0  0
 44 45  1  0  0  0
 44 46  1  0  0  0
 25 26  1  0  0  0
M  END
> <minimizedAffinity>
-10.73913

> <CNNscore>
0.1566641927

> <CNNaffinity>
6.9029493332

> <CNN_VS>
1.0814449787

> <CNNaffinity_variance>
0.6156553030

$$$$
[H]OC([H])([H])C([H])([H])N1[C@@]([H])(C([H])([H])[H])C([H])([H])N(C([H])([H])c2c([H])c([H])c(-c3c([H])c([H])c(C([H])([H])O[C@@]4([H])C([H])([H])C([H])([H])C([H])([H])[C@]4([H])N([H])C(=O)c4c(N([H])[H])nc([H])c(-c5c([H])nn(C([H])([H])[H])c5[H])c4[H])c(F)c3[H])c([H])c2[H])C([H])([H])[C@@]1([H])C([H])([H])[H]


 52 57  0  0  0  0  0  0  0  0999 V2000
    3.7557    2.7940   15.6515 C   0  0  0  0  0  0  0  0  0  0  0  0
    3.2971    1.6027   16.1644 C   0  0  0  0  0  0  0  0  0  0  0  0
    3.6285    1.2180   17.4546 C   0  0  0  0  0  0  0  0  0  0  0  0
    4.4179    1.9861   18.2819 C   0  0  0  0  0  0  0  0  0  0  0  0
    4.8724    3.1819   17.7535 C   0  0  0  0  0  0  0  0  0  0  0  0
    5.6492    3.9551   18.5433 F   0  0  0  0  0  0  0  0  0  0  0  0
    4.5536    3.5778   16.4778 C   0  0  0  0  0  0  0  0  0  0  0  0
    2.8395    4.1605   11.7402 C   0  0  0  0  0  0  0  0  0  0  0  0
    3.4188    5.0133   12.6453 C   0  0  0  0  0  0  0  0  0  0  0  0
    3.7116    4.5526   13.9089 C   0  0  0  0  0  0  0  0  0  0  0  0
    3.4401    3.2512   14.2989 C   0  0  0  0  0  0  0  0  0  0  0  0
    2.8559    2.4127   13.3649 C   0  0  0  0  0  0  0  0  0  0  0  0
    2.5636    2.8694   12.1068 C   0  0  0  0  0  0  0  0  0  0  0  0
    2.5120    4.6481   10.3732 C   0  0  0  0  0  0  0  0  0  0  0  0
    4.4438    5.2330    6.1955 C   0  0  0  0  0  0  0  0  0  0  0  0
    3.9488    5.5470    7.6123 C   0  0  0  0  0  0  0  0  0  0  0  0
    3.1255    4.3624    8.0434 C   0  0  0  0  0  0  0  0  0  0  0  0
    3.3621    4.0734    9.4042 N   0  0  0  0  0  0  0  0  0  0  0  0
    4.7205    3.8710    9.7371 C   0  0  0  0  0  0  0  0  0  0  0  0
    5.6470    4.9485    9.2442 C   0  0  0  0  0  0  0  0  0  0  0  0
    6.8336    4.3874    8.4919 C   0  0  0  0  0  0  0  0  0  0  0  0
    5.0117    5.9283    8.4260 N   0  0  0  0  0  0  0  0  0  0  0  0
    5.1720    7.2662    8.8284 C   0  0  0  0  0  0  0  0  0  0  0  0
    5.7606    7.4477   10.2025 C   0  0  0  0  0  0  0  0  0  0  0  0
    6.2363    8.7249   10.4143 O   0  0  0  0  0  0  0  0  0  0  0  0
    5.7073    9.2366   11.0816 H   0  0  0  0  0  0  0  0  0  0  0  0
    4.7734    1.5733   19.6636 C   0  0  0  0  0  0  0  0  0  0  0  0
    3.6882    1.5655   20.5101 O   0  0  0  0  0  0  0  0  0  0  0  0
    3.8910    2.2431   21.6829 C   0  0  0  0  0  0  0  0  0  0  0  0
    3.8729    1.3684   22.9216 C   0  0  0  0  0  0  0  0  0  0  0  0
    4.4959    2.2857   23.9591 C   0  0  0  0  0  0  0  0  0  0  0  0
    5.6351    2.9075   23.1852 C   0  0  0  0  0  0  0  0  0  0  0  0
    5.1361    3.0618   21.7597 C   0  0  0  0  0  0  0  0  0  0  0  0
    4.9055    4.4773   21.5606 N   0  0  0  0  0  0  0  0  0  0  0  0
    5.9282    5.4469   21.5217 C   0  0  0  0  0  0  0  0  0  0  0  0
    7.1160    5.0793   21.6666 O   0  0  0  0  0  0  0  0  0  0  0  0
    3.9202    4.7798   21.4414 H   0  0  0  0  0  0  0  0  0  0  0  0
    5.6460    6.8512   21.3194 C   0  0  0  0  0  0  0  0  0  0  0  0
    5.0478    7.3685   20.1976 C   0  0  0  0  0  0  0  0  0  0  0  0
    4.7826    8.7190   20.0059 C   0  0  0  0  0  0  0  0  0  0  0  0
    5.1576    9.5725   21.0300 C   0  0  0  0  0  0  0  0  0  0  0  0
    5.7465    9.0876   22.1407 N   0  0  0  0  0  0  0  0  0  0  0  0
    5.9922    7.7694   22.2999 C   0  0  0  0  0  0  0  0  0  0  0  0
    6.6195    7.3931   23.5230 N   0  0  0  0  0  0  0  0  0  0  0  0
    7.6243    7.6469   23.7281 H   0  0  0  0  0  0  0  0  0  0  0  0
    6.1151    6.8554   24.2611 H   0  0  0  0  0  0  0  0  0  0  0  0
    4.1502    9.2176   18.8001 C   0  0  0  0  0  0  0  0  0  0  0  0
    3.1950   10.1970   18.6968 C   0  0  0  0  0  0  0  0  0  0  0  0
    2.8982   10.3250   17.3770 N   0  0  0  0  0  0  0  0  0  0  0  0
    3.6114    9.4834   16.6503 N   0  0  0  0  0  0  0  0  0  0  0  0
    3.5518    9.3440   15.1946 C   0  0  0  0  0  0  0  0  0  0  0  0
    4.3925    8.7898   17.5170 C   0  0  0  0  0  0  0  0  0  0  0  0
 15 16  1  0  0  0
 16 17  1  0  0  0
 17 18  1  0  0  0
 18 14  1  0  0  0
 14  8  1  0  0  0
  8  9  2  0  0  0
  9 10  1  0  0  0
 10 11  2  0  0  0
 11 12  1  0  0  0
 12 13  2  0  0  0
 11  1  1  0  0  0
  1  2  2  0  0  0
  2  3  1  0  0  0
  3  4  2  0  0  0
  4 27  1  0  0  0
 27 28  1  0  0  0
 28 29  1  0  0  0
 29 30  1  0  0  0
 30 31  1  0  0  0
 31 32  1  0  0  0
 32 33  1  0  0  0
 33 34  1  0  0  0
 34 35  1  0  0  0
 35 36  2  0  0  0
 35 38  1  0  0  0
 38 39  2  0  0  0
 39 40  1  0  0  0
 40 41  2  0  0  0
 41 42  1  0  0  0
 42 43  2  0  0  0
 43 44  1  0  0  0
 40 47  1  0  0  0
 47 48  1  0  0  0
 48 49  2  0  0  0
 49 50  1  0  0  0
 50 51  1  0  0  0
 50 52  1  0  0  0
  4  5  1  0  0  0
  5  6  1  0  0  0
  5  7  2  0  0  0
 18 19  1  0  0  0
 19 20  1  0  0  0
 20 21  1  0  0  0
 20 22  1  0  0  0
 22 23  1  0  0  0
 23 24  1  0  0  0
 24 25  1  0  0  0
 22 16  1  0  0  0
 13  8  1  0  0  0
  7  1  1  0  0  0
 33 29  1  0  0  0
 43 38  1  0  0  0
 52 47  2  0  0  0
 34 37  1  0  0  0
 44 45  1  0  0  0
 44 46  1  0  0  0
 25 26  1  0  0  0
M  END
> <minimizedAffinity>
-10.33177

> <CNNscore>
0.1393075734

> <CNNaffinity>
6.7750067711

> <CNN_VS>
0.9438097477

> <CNNaffinity_variance>
0.6035099626

$$$$
[H]OC([H])([H])C([H])([H])N1[C@@]([H])(C([H])([H])[H])C([H])([H])N(C([H])([H])c2c([H])c([H])c(-c3c([H])c([H])c(C([H])([H])O[C@@]4([H])C([H])([H])C([H])([H])C([H])([H])[C@]4([H])N([H])C(=O)c4c(N([H])[H])nc([H])c(-c5c([H])nn(C([H])([H])[H])c5[H])c4[H])c(F)c3[H])c([H])c2[H])C([H])([H])[C@@]1([H])C([H])([H])[H]


 52 57  0  0  0  0  0  0  0  0999 V2000
    3.1746    7.2926   14.5735 C   0  0  0  0  0  0  0  0  0  0  0  0
    3.8581    6.5900   15.5388 C   0  0  0  0  0  0  0  0  0  0  0  0
    4.7405    7.2388   16.3891 C   0  0  0  0  0  0  0  0  0  0  0  0
    4.9810    8.5934   16.3213 C   0  0  0  0  0  0  0  0  0  0  0  0
    4.2869    9.2881   15.3460 C   0  0  0  0  0  0  0  0  0  0  0  0
    4.5041   10.6185   15.2568 F   0  0  0  0  0  0  0  0  0  0  0  0
    3.4096    8.6610   14.4958 C   0  0  0  0  0  0  0  0  0  0  0  0
    0.4353    5.5024   11.8724 C   0  0  0  0  0  0  0  0  0  0  0  0
    1.0279    6.6981   11.5545 C   0  0  0  0  0  0  0  0  0  0  0  0
    1.9161    7.2633   12.4412 C   0  0  0  0  0  0  0  0  0  0  0  0
    2.2331    6.6628   13.6488 C   0  0  0  0  0  0  0  0  0  0  0  0
    1.6205    5.4567   13.9431 C   0  0  0  0  0  0  0  0  0  0  0  0
    0.7361    4.8925   13.0619 C   0  0  0  0  0  0  0  0  0  0  0  0
   -0.5316    4.8843   10.9254 C   0  0  0  0  0  0  0  0  0  0  0  0
   -4.2848    5.8416    8.3711 C   0  0  0  0  0  0  0  0  0  0  0  0
   -3.1582    5.0414    9.0356 C   0  0  0  0  0  0  0  0  0  0  0  0
   -2.2132    6.0542    9.6256 C   0  0  0  0  0  0  0  0  0  0  0  0
   -1.7418    5.6091   10.8789 N   0  0  0  0  0  0  0  0  0  0  0  0
   -2.7547    5.2861   11.8099 C   0  0  0  0  0  0  0  0  0  0  0  0
   -3.8185    4.3672   11.2749 C   0  0  0  0  0  0  0  0  0  0  0  0
   -5.2140    4.8955   11.5240 C   0  0  0  0  0  0  0  0  0  0  0  0
   -3.6846    4.0735    9.8860 N   0  0  0  0  0  0  0  0  0  0  0  0
   -3.6433    2.7099    9.5448 C   0  0  0  0  0  0  0  0  0  0  0  0
   -2.3449    2.2485    8.9376 C   0  0  0  0  0  0  0  0  0  0  0  0
   -2.4785    1.8687    7.6183 O   0  0  0  0  0  0  0  0  0  0  0  0
   -2.0198    2.4805    6.9840 H   0  0  0  0  0  0  0  0  0  0  0  0
    5.9268    9.2879   17.2317 C   0  0  0  0  0  0  0  0  0  0  0  0
    5.3002    9.8421   18.3246 O   0  0  0  0  0  0  0  0  0  0  0  0
    5.6790    9.2948   19.5215 C   0  0  0  0  0  0  0  0  0  0  0  0
    6.5113   10.2144   20.3942 C   0  0  0  0  0  0  0  0  0  0  0  0
    6.4345    9.5181   21.7415 C   0  0  0  0  0  0  0  0  0  0  0  0
    4.9788    9.1179   21.8060 C   0  0  0  0  0  0  0  0  0  0  0  0
    4.5768    8.7753   20.3827 C   0  0  0  0  0  0  0  0  0  0  0  0
    4.4406    7.3347   20.3341 N   0  0  0  0  0  0  0  0  0  0  0  0
    5.4948    6.4511   20.0251 C   0  0  0  0  0  0  0  0  0  0  0  0
    6.6265    6.9240   19.7742 O   0  0  0  0  0  0  0  0  0  0  0  0
    3.5017    6.9450   20.5417 H   0  0  0  0  0  0  0  0  0  0  0  0
    5.3080    5.0171   19.9898 C   0  0  0  0  0  0  0  0  0  0  0  0
    4.7759    4.3302   18.9273 C   0  0  0  0  0  0  0  0  0  0  0  0
    4.5944    2.9527   18.8995 C   0  0  0  0  0  0  0  0  0  0  0  0
    4.9850    2.2563   20.0311 C   0  0  0  0  0  0  0  0  0  0  0  0
    5.5098    2.9093   21.0864 N   0  0  0  0  0  0  0  0  0  0  0  0
    5.6746    4.2496   21.0856 C   0  0  0  0  0  0  0  0  0  0  0  0
    6.2417    4.8110   22.2664 N   0  0  0  0  0  0  0  0  0  0  0  0
    5.7064    4.8364   23.1768 H   0  0  0  0  0  0  0  0  0  0  0  0
    7.2027    5.2169   22.2798 H   0  0  0  0  0  0  0  0  0  0  0  0
    4.0245    2.2725   17.7528 C   0  0  0  0  0  0  0  0  0  0  0  0
    3.5271    0.9951   17.6965 C   0  0  0  0  0  0  0  0  0  0  0  0
    3.1059    0.7885   16.4212 N   0  0  0  0  0  0  0  0  0  0  0  0
    3.3110    1.8613   15.6781 N   0  0  0  0  0  0  0  0  0  0  0  0
    2.9816    1.9968   14.2585 C   0  0  0  0  0  0  0  0  0  0  0  0
    3.8795    2.7902   16.4883 C   0  0  0  0  0  0  0  0  0  0  0  0
 15 16  1  0  0  0
 16 17  1  0  0  0
 17 18  1  0  0  0
 18 14  1  0  0  0
 14  8  1  0  0  0
  8  9  2  0  0  0
  9 10  1  0  0  0
 10 11  2  0  0  0
 11 12  1  0  0  0
 12 13  2  0  0  0
 11  1  1  0  0  0
  1  2  2  0  0  0
  2  3  1  0  0  0
  3  4  2  0  0  0
  4 27  1  0  0  0
 27 28  1  0  0  0
 28 29  1  0  0  0
 29 30  1  0  0  0
 30 31  1  0  0  0
 31 32  1  0  0  0
 32 33  1  0  0  0
 33 34  1  0  0  0
 34 35  1  0  0  0
 35 36  2  0  0  0
 35 38  1  0  0  0
 38 39  2  0  0  0
 39 40  1  0  0  0
 40 41  2  0  0  0
 41 42  1  0  0  0
 42 43  2  0  0  0
 43 44  1  0  0  0
 40 47  1  0  0  0
 47 48  1  0  0  0
 48 49  2  0  0  0
 49 50  1  0  0  0
 50 51  1  0  0  0
 50 52  1  0  0  0
  4  5  1  0  0  0
  5  6  1  0  0  0
  5  7  2  0  0  0
 18 19  1  0  0  0
 19 20  1  0  0  0
 20 21  1  0  0  0
 20 22  1  0  0  0
 22 23  1  0  0  0
 23 24  1  0  0  0
 24 25  1  0  0  0
 22 16  1  0  0  0
 13  8  1  0  0  0
  7  1  1  0  0  0
 33 29  1  0  0  0
 43 38  1  0  0  0
 52 47  2  0  0  0
 34 37  1  0  0  0
 44 45  1  0  0  0
 44 46  1  0  0  0
 25 26  1  0  0  0
M  END
> <minimizedAffinity>
-9.09468

> <CNNscore>
0.1261974126

> <CNNaffinity>
6.7050094604

> <CNN_VS>
0.8461548686

> <CNNaffinity_variance>
0.6171960235

$$$$
[H]OC([H])([H])C([H])([H])N1[C@@]([H])(C([H])([H])[H])C([H])([H])N(C([H])([H])c2c([H])c([H])c(-c3c([H])c([H])c(C([H])([H])O[C@@]4([H])C([H])([H])C([H])([H])C([H])([H])[C@]4([H])N([H])C(=O)c4c(N([H])[H])nc([H])c(-c5c([H])nn(C([H])([H])[H])c5[H])c4[H])c(F)c3[H])c([H])c2[H])C([H])([H])[C@@]1([H])C([H])([H])[H]


 52 57  0  0  0  0  0  0  0  0999 V2000
    3.5912    2.4191   15.8452 C   0  0  0  0  0  0  0  0  0  0  0  0
    4.2539    3.2084   16.7566 C   0  0  0  0  0  0  0  0  0  0  0  0
    4.4488    2.7694   18.0572 C   0  0  0  0  0  0  0  0  0  0  0  0
    4.0018    1.5461   18.5059 C   0  0  0  0  0  0  0  0  0  0  0  0
    3.3370    0.7623   17.5790 C   0  0  0  0  0  0  0  0  0  0  0  0
    2.8873   -0.4427   17.9924 F   0  0  0  0  0  0  0  0  0  0  0  0
    3.1355    1.1819   16.2871 C   0  0  0  0  0  0  0  0  0  0  0  0
    2.8951    3.5696   11.8207 C   0  0  0  0  0  0  0  0  0  0  0  0
    2.2679    2.4632   12.3348 C   0  0  0  0  0  0  0  0  0  0  0  0
    2.5031    2.1058   13.6431 C   0  0  0  0  0  0  0  0  0  0  0  0
    3.3555    2.8291   14.4616 C   0  0  0  0  0  0  0  0  0  0  0  0
    3.9742    3.9411   13.9164 C   0  0  0  0  0  0  0  0  0  0  0  0
    3.7414    4.2983   12.6145 C   0  0  0  0  0  0  0  0  0  0  0  0
    2.6543    3.9626   10.4061 C   0  0  0  0  0  0  0  0  0  0  0  0
    3.8673    3.2296    5.9880 C   0  0  0  0  0  0  0  0  0  0  0  0
    3.6675    3.9458    7.3290 C   0  0  0  0  0  0  0  0  0  0  0  0
    2.8115    3.0360    8.1694 C   0  0  0  0  0  0  0  0  0  0  0  0
    3.2530    3.0516    9.5096 N   0  0  0  0  0  0  0  0  0  0  0  0
    4.6192    2.7359    9.6847 C   0  0  0  0  0  0  0  0  0  0  0  0
    5.5538    3.5128    8.7985 C   0  0  0  0  0  0  0  0  0  0  0  0
    6.5214    2.6171    8.0569 C   0  0  0  0  0  0  0  0  0  0  0  0
    4.8923    4.3497    7.8525 N   0  0  0  0  0  0  0  0  0  0  0  0
    5.2635    5.7060    7.8627 C   0  0  0  0  0  0  0  0  0  0  0  0
    5.4368    6.3045    9.2336 C   0  0  0  0  0  0  0  0  0  0  0  0
    6.2629    7.4090    9.2327 O   0  0  0  0  0  0  0  0  0  0  0  0
    5.7862    8.2576    9.4319 H   0  0  0  0  0  0  0  0  0  0  0  0
    4.2100    1.0765   19.8995 C   0  0  0  0  0  0  0  0  0  0  0  0
    3.3719    1.6961   20.7983 O   0  0  0  0  0  0  0  0  0  0  0  0
    4.0118    2.2091   21.8951 C   0  0  0  0  0  0  0  0  0  0  0  0
    3.8157    1.4055   23.1662 C   0  0  0  0  0  0  0  0  0  0  0  0
    4.9121    1.9614   24.0577 C   0  0  0  0  0  0  0  0  0  0  0  0
    6.0771    2.0582   23.1001 C   0  0  0  0  0  0  0  0  0  0  0  0
    5.4809    2.4281   21.7537 C   0  0  0  0  0  0  0  0  0  0  0  0
    5.8351    3.8121   21.5186 N   0  0  0  0  0  0  0  0  0  0  0  0
    5.0266    4.9079   21.8835 C   0  0  0  0  0  0  0  0  0  0  0  0
    3.9302    4.6894   22.4469 O   0  0  0  0  0  0  0  0  0  0  0  0
    6.7439    3.9908   21.0509 H   0  0  0  0  0  0  0  0  0  0  0  0
    5.4256    6.2744   21.6267 C   0  0  0  0  0  0  0  0  0  0  0  0
    6.4544    6.9159   22.2700 C   0  0  0  0  0  0  0  0  0  0  0  0
    6.8315    8.2304   22.0230 C   0  0  0  0  0  0  0  0  0  0  0  0
    6.1036    8.9102   21.0607 C   0  0  0  0  0  0  0  0  0  0  0  0
    5.0892    8.3010   20.4161 N   0  0  0  0  0  0  0  0  0  0  0  0
    4.7446    7.0217   20.6769 C   0  0  0  0  0  0  0  0  0  0  0  0
    3.6535    6.5013   19.9222 N   0  0  0  0  0  0  0  0  0  0  0  0
    2.6652    6.8417   20.0754 H   0  0  0  0  0  0  0  0  0  0  0  0
    3.7855    5.7679   19.1921 H   0  0  0  0  0  0  0  0  0  0  0  0
    7.9253    8.8656   22.7319 C   0  0  0  0  0  0  0  0  0  0  0  0
    8.1775    8.8421   24.0803 C   0  0  0  0  0  0  0  0  0  0  0  0
    9.3023    9.5758   24.2871 N   0  0  0  0  0  0  0  0  0  0  0  0
    9.7672   10.0560   23.1476 N   0  0  0  0  0  0  0  0  0  0  0  0
   10.9598   10.8899   22.9915 C   0  0  0  0  0  0  0  0  0  0  0  0
    8.9253    9.6249   22.1740 C   0  0  0  0  0  0  0  0  0  0  0  0
 15 16  1  0  0  0
 16 17  1  0  0  0
 17 18  1  0  0  0
 18 14  1  0  0  0
 14  8  1  0  0  0
  8  9  2  0  0  0
  9 10  1  0  0  0
 10 11  2  0  0  0
 11 12  1  0  0  0
 12 13  2  0  0  0
 11  1  1  0  0  0
  1  2  2  0  0  0
  2  3  1  0  0  0
  3  4  2  0  0  0
  4 27  1  0  0  0
 27 28  1  0  0  0
 28 29  1  0  0  0
 29 30  1  0  0  0
 30 31  1  0  0  0
 31 32  1  0  0  0
 32 33  1  0  0  0
 33 34  1  0  0  0
 34 35  1  0  0  0
 35 36  2  0  0  0
 35 38  1  0  0  0
 38 39  2  0  0  0
 39 40  1  0  0  0
 40 41  2  0  0  0
 41 42  1  0  0  0
 42 43  2  0  0  0
 43 44  1  0  0  0
 40 47  1  0  0  0
 47 48  1  0  0  0
 48 49  2  0  0  0
 49 50  1  0  0  0
 50 51  1  0  0  0
 50 52  1  0  0  0
  4  5  1  0  0  0
  5  6  1  0  0  0
  5  7  2  0  0  0
 18 19  1  0  0  0
 19 20  1  0  0  0
 20 21  1  0  0  0
 20 22  1  0  0  0
 22 23  1  0  0  0
 23 24  1  0  0  0
 24 25  1  0  0  0
 22 16  1  0  0  0
 13  8  1  0  0  0
  7  1  1  0  0  0
 33 29  1  0  0  0
 43 38  1  0  0  0
 52 47  2  0  0  0
 34 37  1  0  0  0
 44 45  1  0  0  0
 44 46  1  0  0  0
 25 26  1  0  0  0
M  END
> <minimizedAffinity>
-9.59889

> <CNNscore>
0.1196252257

> <CNNaffinity>
6.5059714317

> <CNN_VS>
0.7782782912

> <CNNaffinity_variance>
0.5065915585

$$$$
[H]OC1([H])C([H])([H])C([H])([H])C([H])([H])n2c([H])c(-c3c([H])c([H])c(C([H])([H])N4C([H])([H])C([H])([H])N(C([H])([H])[H])C([H])([H])C4([H])[H])c([H])c3[H])c3c([H])nc(nc32)N([H])C([H])([H])C([H])([H])C([H])([H])C([H])([H])C([H])([H])C1([H])[H]


 37 41  0  0  0  0  0  0  0  0999 V2000
    3.3572    3.0022   14.9476 C   0  0  0  0  0  0  0  0  0  0  0  0
    4.0088    4.1807   15.3290 C   0  0  0  0  0  0  0  0  0  0  0  0
    4.3769    4.0775   16.6400 N   0  0  0  0  0  0  0  0  0  0  0  0
    5.0685    5.0621   17.4226 C   0  0  0  0  0  0  0  0  0  0  0  0
    4.7532    4.9819   18.8784 C   0  0  0  0  0  0  0  0  0  0  0  0
    5.0646    6.3060   19.5848 C   0  0  0  0  0  0  0  0  0  0  0  0
    4.6431    6.2125   21.0425 C   0  0  0  0  0  0  0  0  0  0  0  0
    3.3520    5.6495   21.1255 O   0  0  0  0  0  0  0  0  0  0  0  0
    5.5555    5.3338   21.8325 C   0  0  0  0  0  0  0  0  0  0  0  0
    4.8143    4.4262   22.7892 C   0  0  0  0  0  0  0  0  0  0  0  0
    5.6102    3.2144   23.1887 C   0  0  0  0  0  0  0  0  0  0  0  0
    5.8508    2.2352   22.0891 C   0  0  0  0  0  0  0  0  0  0  0  0
    4.8216    1.1279   22.0152 C   0  0  0  0  0  0  0  0  0  0  0  0
    3.7693    1.4496   21.0027 C   0  0  0  0  0  0  0  0  0  0  0  0
    3.8074    0.5931   19.8315 N   0  0  0  0  0  0  0  0  0  0  0  0
    3.6368    1.1336   18.5063 C   0  0  0  0  0  0  0  0  0  0  0  0
    3.0155    0.4321   17.5419 N   0  0  0  0  0  0  0  0  0  0  0  0
    2.8482    0.9271   16.3023 C   0  0  0  0  0  0  0  0  0  0  0  0
    3.3395    2.1867   16.0544 C   0  0  0  0  0  0  0  0  0  0  0  0
    3.9665    2.8818   17.0463 C   0  0  0  0  0  0  0  0  0  0  0  0
    4.1118    2.3629   18.2504 N   0  0  0  0  0  0  0  0  0  0  0  0
    2.7103    6.2244   20.6106 H   0  0  0  0  0  0  0  0  0  0  0  0
    3.9583   -0.4406   19.9064 H   0  0  0  0  0  0  0  0  0  0  0  0
    1.7291    2.0734   11.0770 C   0  0  0  0  0  0  0  0  0  0  0  0
    2.8965    2.7905   11.2256 C   0  0  0  0  0  0  0  0  0  0  0  0
    3.4284    3.0958   12.4694 C   0  0  0  0  0  0  0  0  0  0  0  0
    2.8072    2.6916   13.6317 C   0  0  0  0  0  0  0  0  0  0  0  0
    1.6378    1.9733   13.4887 C   0  0  0  0  0  0  0  0  0  0  0  0
    1.1055    1.6676   12.2545 C   0  0  0  0  0  0  0  0  0  0  0  0
    1.1357    1.7285    9.7554 C   0  0  0  0  0  0  0  0  0  0  0  0
    0.1869   -1.7791    6.2085 C   0  0  0  0  0  0  0  0  0  0  0  0
    0.3629   -1.4119    7.5911 N   0  0  0  0  0  0  0  0  0  0  0  0
   -0.6927   -0.5205    7.9763 C   0  0  0  0  0  0  0  0  0  0  0  0
   -0.5199    0.0008    9.3796 C   0  0  0  0  0  0  0  0  0  0  0  0
    0.8067    0.3417    9.7400 N   0  0  0  0  0  0  0  0  0  0  0  0
    1.8590   -0.4373    9.1933 C   0  0  0  0  0  0  0  0  0  0  0  0
    1.6737   -0.8050    7.7554 C   0  0  0  0  0  0  0  0  0  0  0  0
 31 32  1  0  0  0
 32 33  1  0  0  0
 33 34  1  0  0  0
 34 35  1  0  0  0
 35 30  1  0  0  0
 30 24  1  0  0  0
 24 25  2  0  0  0
 25 26  1  0  0  0
 26 27  2  0  0  0
 27 28  1  0  0  0
 28 29  2  0  0  0
 27  1  1  0  0  0
  1  2  2  0  0  0
  2  3  1  0  0  0
  3  4  1  0  0  0
  4  5  1  0  0  0
  5  6  1  0  0  0
  6  7  1  0  0  0
  7  8  1  0  0  0
  7  9  1  0  0  0
  9 10  1  0  0  0
 10 11  1  0  0  0
 11 12  1  0  0  0
 12 13  1  0  0  0
 13 14  1  0  0  0
 14 15  1  0  0  0
 15 16  1  0  0  0
 16 17  2  0  0  0
 17 18  1  0  0  0
 18 19  2  0  0  0
 19 20  1  0  0  0
 20 21  2  0  0  0
 35 36  1  0  0  0
 36 37  1  0  0  0
 37 32  1  0  0  0
 29 24  1  0  0  0
 19  1  1  0  0  0
 20  3  1  0  0  0
 21 16  1  0  0  0
  8 22  1  0  0  0
 15 23  1  0  0  0
M  END
> <minimizedAffinity>
-9.81541

> <CNNscore>
0.8337364197

> <CNNaffinity>
7.1887855530

> <CNN_VS>
5.9935522079

> <CNNaffinity_variance>
0.2393968552

$$$$
[H]OC1([H])C([H])([H])C([H])([H])C([H])([H])n2c([H])c(-c3c([H])c([H])c(C([H])([H])N4C([H])([H])C([H])([H])N(C([H])([H])[H])C([H])([H])C4([H])[H])c([H])c3[H])c3c([H])nc(nc32)N([H])C([H])([H])C([H])([H])C([H])([H])C([H])([H])C([H])([H])C1([H])[H]


 37 41  0  0  0  0  0  0  0  0999 V2000
    3.5557    3.1409   15.2047 C   0  0  0  0  0  0  0  0  0  0  0  0
    4.2185    4.2765   15.6842 C   0  0  0  0  0  0  0  0  0  0  0  0
    4.4983    4.0983   17.0089 N   0  0  0  0  0  0  0  0  0  0  0  0
    5.1692    5.0198   17.8811 C   0  0  0  0  0  0  0  0  0  0  0  0
    4.7588    4.8816   19.3086 C   0  0  0  0  0  0  0  0  0  0  0  0
    5.0661    6.1588   20.0980 C   0  0  0  0  0  0  0  0  0  0  0  0
    4.5491    6.0109   21.5200 C   0  0  0  0  0  0  0  0  0  0  0  0
    3.2382    5.4899   21.4940 O   0  0  0  0  0  0  0  0  0  0  0  0
    5.3806    5.0643   22.3210 C   0  0  0  0  0  0  0  0  0  0  0  0
    4.5511    4.1386   23.1831 C   0  0  0  0  0  0  0  0  0  0  0  0
    5.2809    2.8823   23.5709 C   0  0  0  0  0  0  0  0  0  0  0  0
    5.5603    1.9487   22.4412 C   0  0  0  0  0  0  0  0  0  0  0  0
    4.5033    0.8827   22.2483 C   0  0  0  0  0  0  0  0  0  0  0  0
    3.5289    1.2886   21.1891 C   0  0  0  0  0  0  0  0  0  0  0  0
    3.6149    0.4879   19.9815 N   0  0  0  0  0  0  0  0  0  0  0  0
    3.5469    1.0966   18.6767 C   0  0  0  0  0  0  0  0  0  0  0  0
    2.9668    0.4637   17.6417 N   0  0  0  0  0  0  0  0  0  0  0  0
    2.8952    1.0227   16.4202 C   0  0  0  0  0  0  0  0  0  0  0  0
    3.4411    2.2748   16.2664 C   0  0  0  0  0  0  0  0  0  0  0  0
    4.0249    2.8996   17.3289 C   0  0  0  0  0  0  0  0  0  0  0  0
    4.0761    2.3193   18.5124 N   0  0  0  0  0  0  0  0  0  0  0  0
    2.6495    6.1106   20.9693 H   0  0  0  0  0  0  0  0  0  0  0  0
    3.7277   -0.5527   20.0142 H   0  0  0  0  0  0  0  0  0  0  0  0
    2.1532    2.4530   11.1979 C   0  0  0  0  0  0  0  0  0  0  0  0
    3.2087    3.2969   11.4677 C   0  0  0  0  0  0  0  0  0  0  0  0
    3.6671    3.5259   12.7563 C   0  0  0  0  0  0  0  0  0  0  0  0
    3.0816    2.9125   13.8432 C   0  0  0  0  0  0  0  0  0  0  0  0
    2.0242    2.0665   13.5787 C   0  0  0  0  0  0  0  0  0  0  0  0
    1.5653    1.8361   12.2996 C   0  0  0  0  0  0  0  0  0  0  0  0
    1.6410    2.1858    9.8254 C   0  0  0  0  0  0  0  0  0  0  0  0
   -2.1420    2.0638    6.4403 C   0  0  0  0  0  0  0  0  0  0  0  0
   -1.6780    1.9906    7.8029 N   0  0  0  0  0  0  0  0  0  0  0  0
   -1.1343    3.2630    8.1809 C   0  0  0  0  0  0  0  0  0  0  0  0
   -0.5237    3.2396    9.5583 C   0  0  0  0  0  0  0  0  0  0  0  0
    0.2206    2.0758    9.8713 N   0  0  0  0  0  0  0  0  0  0  0  0
   -0.2244    0.8431    9.3278 C   0  0  0  0  0  0  0  0  0  0  0  0
   -0.6942    0.9257    7.9102 C   0  0  0  0  0  0  0  0  0  0  0  0
 31 32  1  0  0  0
 32 33  1  0  0  0
 33 34  1  0  0  0
 34 35  1  0  0  0
 35 30  1  0  0  0
 30 24  1  0  0  0
 24 25  2  0  0  0
 25 26  1  0  0  0
 26 27  2  0  0  0
 27 28  1  0  0  0
 28 29  2  0  0  0
 27  1  1  0  0  0
  1  2  2  0  0  0
  2  3  1  0  0  0
  3  4  1  0  0  0
  4  5  1  0  0  0
  5  6  1  0  0  0
  6  7  1  0  0  0
  7  8  1  0  0  0
  7  9  1  0  0  0
  9 10  1  0  0  0
 10 11  1  0  0  0
 11 12  1  0  0  0
 12 13  1  0  0  0
 13 14  1  0  0  0
 14 15  1  0  0  0
 15 16  1  0  0  0
 16 17  2  0  0  0
 17 18  1  0  0  0
 18 19  2  0  0  0
 19 20  1  0  0  0
 20 21  2  0  0  0
 35 36  1  0  0  0
 36 37  1  0  0  0
 37 32  1  0  0  0
 29 24  1  0  0  0
 19  1  1  0  0  0
 20  3  1  0  0  0
 21 16  1  0  0  0
  8 22  1  0  0  0
 15 23  1  0  0  0
M  END
> <minimizedAffinity>
-9.85783

> <CNNscore>
0.8250226974

> <CNNaffinity>
7.1638984680

> <CNN_VS>
5.9103789330

> <CNNaffinity_variance>
0.3442781866

$$$$
[H]OC1([H])C([H])([H])C([H])([H])C([H])([H])n2c([H])c(-c3c([H])c([H])c(C([H])([H])N4C([H])([H])C([H])([H])N(C([H])([H])[H])C([H])([H])C4([H])[H])c([H])c3[H])c3c([H])nc(nc32)N([H])C([H])([H])C([H])([H])C([H])([H])C([H])([H])C([H])([H])C1([H])[H]


 37 41  0  0  0  0  0  0  0  0999 V2000
    3.1076    3.2320   14.7760 C   0  0  0  0  0  0  0  0  0  0  0  0
    3.8232    4.3806   15.1330 C   0  0  0  0  0  0  0  0  0  0  0  0
    4.2825    4.2358   16.4108 N   0  0  0  0  0  0  0  0  0  0  0  0
    5.0609    5.1801   17.1607 C   0  0  0  0  0  0  0  0  0  0  0  0
    4.8503    5.0759   18.6338 C   0  0  0  0  0  0  0  0  0  0  0  0
    5.2552    6.3730   19.3429 C   0  0  0  0  0  0  0  0  0  0  0  0
    4.9384    6.2587   20.8254 C   0  0  0  0  0  0  0  0  0  0  0  0
    3.6392    5.7340   20.9915 O   0  0  0  0  0  0  0  0  0  0  0  0
    5.8770    5.3342   21.5275 C   0  0  0  0  0  0  0  0  0  0  0  0
    5.1786    4.4279   22.5170 C   0  0  0  0  0  0  0  0  0  0  0  0
    5.9618    3.1832   22.8313 C   0  0  0  0  0  0  0  0  0  0  0  0
    6.0895    2.2229   21.6968 C   0  0  0  0  0  0  0  0  0  0  0  0
    5.0224    1.1498   21.6759 C   0  0  0  0  0  0  0  0  0  0  0  0
    3.9100    1.5272   20.7506 C   0  0  0  0  0  0  0  0  0  0  0  0
    3.8347    0.6973   19.5621 N   0  0  0  0  0  0  0  0  0  0  0  0
    3.5854    1.2736   18.2646 C   0  0  0  0  0  0  0  0  0  0  0  0
    2.8730    0.6140   17.3342 N   0  0  0  0  0  0  0  0  0  0  0  0
    2.6318    1.1426   16.1209 C   0  0  0  0  0  0  0  0  0  0  0  0
    3.1443    2.3919   15.8639 C   0  0  0  0  0  0  0  0  0  0  0  0
    3.8643    3.0441   16.8212 C   0  0  0  0  0  0  0  0  0  0  0  0
    4.0801    2.4932   18.0002 N   0  0  0  0  0  0  0  0  0  0  0  0
    2.9807    6.3402   20.5374 H   0  0  0  0  0  0  0  0  0  0  0  0
    3.9570   -0.3419   19.6040 H   0  0  0  0  0  0  0  0  0  0  0  0
    1.1944    2.4531   11.0041 C   0  0  0  0  0  0  0  0  0  0  0  0
    0.6753    3.3465   11.9159 C   0  0  0  0  0  0  0  0  0  0  0  0
    1.2843    3.6033   13.1350 C   0  0  0  0  0  0  0  0  0  0  0  0
    2.4533    2.9691   13.4981 C   0  0  0  0  0  0  0  0  0  0  0  0
    2.9774    2.0733   12.5888 C   0  0  0  0  0  0  0  0  0  0  0  0
    2.3753    1.8151   11.3760 C   0  0  0  0  0  0  0  0  0  0  0  0
    0.5645    2.1591    9.6871 C   0  0  0  0  0  0  0  0  0  0  0  0
    0.2349    3.7884    4.8891 C   0  0  0  0  0  0  0  0  0  0  0  0
    1.0277    3.4290    6.0379 N   0  0  0  0  0  0  0  0  0  0  0  0
    0.8611    2.0289    6.3016 C   0  0  0  0  0  0  0  0  0  0  0  0
    1.5708    1.5934    7.5576 C   0  0  0  0  0  0  0  0  0  0  0  0
    1.4805    2.4935    8.6475 N   0  0  0  0  0  0  0  0  0  0  0  0
    1.4527    3.8816    8.3551 C   0  0  0  0  0  0  0  0  0  0  0  0
    0.6194    4.2471    7.1681 C   0  0  0  0  0  0  0  0  0  0  0  0
 31 32  1  0  0  0
 32 33  1  0  0  0
 33 34  1  0  0  0
 34 35  1  0  0  0
 35 30  1  0  0  0
 30 24  1  0  0  0
 24 25  2  0  0  0
 25 26  1  0  0  0
 26 27  2  0  0  0
 27 28  1  0  0  0
 28 29  2  0  0  0
 27  1  1  0  0  0
  1  2  2  0  0  0
  2  3  1  0  0  0
  3  4  1  0  0  0
  4  5  1  0  0  0
  5  6  1  0  0  0
  6  7  1  0  0  0
  7  8  1  0  0  0
  7  9  1  0  0  0
  9 10  1  0  0  0
 10 11  1  0  0  0
 11 12  1  0  0  0
 12 13  1  0  0  0
 13 14  1  0  0  0
 14 15  1  0  0  0
 15 16  1  0  0  0
 16 17  2  0  0  0
 17 18  1  0  0  0
 18 19  2  0  0  0
 19 20  1  0  0  0
 20 21  2  0  0  0
 35 36  1  0  0  0
 36 37  1  0  0  0
 37 32  1  0  0  0
 29 24  1  0  0  0
 19  1  1  0  0  0
 20  3  1  0  0  0
 21 16  1  0  0  0
  8 22  1  0  0  0
 15 23  1  0  0  0
M  END
> <minimizedAffinity>
-9.00612

> <CNNscore>
0.8202570081

> <CNNaffinity>
7.0856080055

> <CNN_VS>
5.8120198250

> <CNNaffinity_variance>
0.4332637787

$$$$
[H]OC1([H])C([H])([H])C([H])([H])C([H])([H])n2c([H])c(-c3c([H])c([H])c(C([H])([H])N4C([H])([H])C([H])([H])N(C([H])([H])[H])C([H])([H])C4([H])[H])c([H])c3[H])c3c([H])nc(nc32)N([H])C([H])([H])C([H])([H])C([H])([H])C([H])([H])C([H])([H])C1([H])[H]


 37 41  0  0  0  0  0  0  0  0999 V2000
    3.8664    4.3382   15.0818 C   0  0  0  0  0  0  0  0  0  0  0  0
    4.4721    5.3972   15.7677 C   0  0  0  0  0  0  0  0  0  0  0  0
    4.7324    5.0024   17.0488 N   0  0  0  0  0  0  0  0  0  0  0  0
    5.3471    5.7829   18.0847 C   0  0  0  0  0  0  0  0  0  0  0  0
    4.9142    5.3839   19.4553 C   0  0  0  0  0  0  0  0  0  0  0  0
    5.1528    6.5154   20.4613 C   0  0  0  0  0  0  0  0  0  0  0  0
    4.6140    6.1039   21.8220 C   0  0  0  0  0  0  0  0  0  0  0  0
    3.3264    5.5469   21.6713 O   0  0  0  0  0  0  0  0  0  0  0  0
    5.4675    5.0642   22.4696 C   0  0  0  0  0  0  0  0  0  0  0  0
    4.6599    3.9729   23.1365 C   0  0  0  0  0  0  0  0  0  0  0  0
    5.4329    2.6962   23.3211 C   0  0  0  0  0  0  0  0  0  0  0  0
    5.7731    1.9839   22.0552 C   0  0  0  0  0  0  0  0  0  0  0  0
    4.7651    0.9290   21.6528 C   0  0  0  0  0  0  0  0  0  0  0  0
    3.7962    1.4760   20.6539 C   0  0  0  0  0  0  0  0  0  0  0  0
    3.9392    0.9008   19.3289 N   0  0  0  0  0  0  0  0  0  0  0  0
    3.8723    1.7236   18.1474 C   0  0  0  0  0  0  0  0  0  0  0  0
    3.3397    1.2588   17.0035 N   0  0  0  0  0  0  0  0  0  0  0  0
    3.2696    2.0182   15.8953 C   0  0  0  0  0  0  0  0  0  0  0  0
    3.7664    3.2974   15.9746 C   0  0  0  0  0  0  0  0  0  0  0  0
    4.3026    3.7497   17.1443 C   0  0  0  0  0  0  0  0  0  0  0  0
    4.3539    2.9751   18.2109 N   0  0  0  0  0  0  0  0  0  0  0  0
    2.7232    6.2270   21.2459 H   0  0  0  0  0  0  0  0  0  0  0  0
    4.0943   -0.1248   19.1846 H   0  0  0  0  0  0  0  0  0  0  0  0
    2.5716    4.3350   10.9808 C   0  0  0  0  0  0  0  0  0  0  0  0
    2.8259    3.1676   11.6676 C   0  0  0  0  0  0  0  0  0  0  0  0
    3.2448    3.1587   12.9895 C   0  0  0  0  0  0  0  0  0  0  0  0
    3.4295    4.3321   13.6891 C   0  0  0  0  0  0  0  0  0  0  0  0
    3.1764    5.5040   13.0061 C   0  0  0  0  0  0  0  0  0  0  0  0
    2.7599    5.5175   11.6923 C   0  0  0  0  0  0  0  0  0  0  0  0
    2.1185    4.3756    9.5628 C   0  0  0  0  0  0  0  0  0  0  0  0
   -1.7327    6.1689   12.3444 C   0  0  0  0  0  0  0  0  0  0  0  0
   -1.2480    5.4396   11.1996 N   0  0  0  0  0  0  0  0  0  0  0  0
   -0.5639    4.2621   11.6505 C   0  0  0  0  0  0  0  0  0  0  0  0
    0.0721    3.4989   10.5175 C   0  0  0  0  0  0  0  0  0  0  0  0
    0.6958    4.2950    9.5258 N   0  0  0  0  0  0  0  0  0  0  0  0
    0.1104    5.5520    9.2255 C   0  0  0  0  0  0  0  0  0  0  0  0
   -0.3803    6.3069   10.4198 C   0  0  0  0  0  0  0  0  0  0  0  0
 31 32  1  0  0  0
 32 33  1  0  0  0
 33 34  1  0  0  0
 34 35  1  0  0  0
 35 30  1  0  0  0
 30 24  1  0  0  0
 24 25  2  0  0  0
 25 26  1  0  0  0
 26 27  2  0  0  0
 27 28  1  0  0  0
 28 29  2  0  0  0
 27  1  1  0  0  0
  1  2  2  0  0  0
  2  3  1  0  0  0
  3  4  1  0  0  0
  4  5  1  0  0  0
  5  6  1  0  0  0
  6  7  1  0  0  0
  7  8  1  0  0  0
  7  9  1  0  0  0
  9 10  1  0  0  0
 10 11  1  0  0  0
 11 12  1  0  0  0
 12 13  1  0  0  0
 13 14  1  0  0  0
 14 15  1  0  0  0
 15 16  1  0  0  0
 16 17  2  0  0  0
 17 18  1  0  0  0
 18 19  2  0  0  0
 19 20  1  0  0  0
 20 21  2  0  0  0
 35 36  1  0  0  0
 36 37  1  0  0  0
 37 32  1  0  0  0
 29 24  1  0  0  0
 19  1  1  0  0  0
 20  3  1  0  0  0
 21 16  1  0  0  0
  8 22  1  0  0  0
 15 23  1  0  0  0
M  END
> <minimizedAffinity>
-9.57182

> <CNNscore>
0.4043399692

> <CNNaffinity>
6.8433732986

> <CNN_VS>
2.7670493126

> <CNNaffinity_variance>
0.4391474724

$$$$
[H]OC1([H])C([H])([H])C([H])([H])C([H])([H])n2c([H])c(-c3c([H])c([H])c(C([H])([H])N4C([H])([H])C([H])([H])N(C([H])([H])[H])C([H])([H])C4([H])[H])c([H])c3[H])c3c([H])nc(nc32)N([H])C([H])([H])C([H])([H])C([H])([H])C([H])([H])C([H])([H])C1([H])[H]


 37 41  0  0  0  0  0  0  0  0999 V2000
    3.6158    5.0353   15.1047 C   0  0  0  0  0  0  0  0  0  0  0  0
    4.1637    6.0603   15.8845 C   0  0  0  0  0  0  0  0  0  0  0  0
    4.5275    5.5470   17.0965 N   0  0  0  0  0  0  0  0  0  0  0  0
    5.1279    6.2571   18.1898 C   0  0  0  0  0  0  0  0  0  0  0  0
    4.8076    5.6649   19.5208 C   0  0  0  0  0  0  0  0  0  0  0  0
    5.0016    6.6907   20.6431 C   0  0  0  0  0  0  0  0  0  0  0  0
    4.5764    6.0773   21.9675 C   0  0  0  0  0  0  0  0  0  0  0  0
    3.3359    5.4240   21.8088 O   0  0  0  0  0  0  0  0  0  0  0  0
    5.5517    5.0541   22.4479 C   0  0  0  0  0  0  0  0  0  0  0  0
    4.8801    3.8231   23.0150 C   0  0  0  0  0  0  0  0  0  0  0  0
    5.7704    2.6112   23.0115 C   0  0  0  0  0  0  0  0  0  0  0  0
    6.1013    2.0836   21.6558 C   0  0  0  0  0  0  0  0  0  0  0  0
    5.1684    0.9927   21.1756 C   0  0  0  0  0  0  0  0  0  0  0  0
    4.1020    1.5583   20.2931 C   0  0  0  0  0  0  0  0  0  0  0  0
    4.2215    1.1548   18.9039 N   0  0  0  0  0  0  0  0  0  0  0  0
    4.0183    2.0980   17.8332 C   0  0  0  0  0  0  0  0  0  0  0  0
    3.4660    1.7201   16.6668 N   0  0  0  0  0  0  0  0  0  0  0  0
    3.2691    2.5919   15.6613 C   0  0  0  0  0  0  0  0  0  0  0  0
    3.6562    3.8941   15.8705 C   0  0  0  0  0  0  0  0  0  0  0  0
    4.2144    4.2570   17.0608 C   0  0  0  0  0  0  0  0  0  0  0  0
    4.3917    3.3733   18.0240 N   0  0  0  0  0  0  0  0  0  0  0  0
    2.6533    6.0894   21.4948 H   0  0  0  0  0  0  0  0  0  0  0  0
    4.4572    0.1714   18.6315 H   0  0  0  0  0  0  0  0  0  0  0  0
    2.1269    5.3708   11.0841 C   0  0  0  0  0  0  0  0  0  0  0  0
    1.3602    5.7102   12.1777 C   0  0  0  0  0  0  0  0  0  0  0  0
    1.8312    5.6043   13.4778 C   0  0  0  0  0  0  0  0  0  0  0  0
    3.1051    5.1485   13.7420 C   0  0  0  0  0  0  0  0  0  0  0  0
    3.8771    4.8072   12.6505 C   0  0  0  0  0  0  0  0  0  0  0  0
    3.4130    4.9109   11.3567 C   0  0  0  0  0  0  0  0  0  0  0  0
    1.6494    5.4764    9.6775 C   0  0  0  0  0  0  0  0  0  0  0  0
    0.7945    8.5732    5.7452 C   0  0  0  0  0  0  0  0  0  0  0  0
    0.6589    8.2608    7.1457 N   0  0  0  0  0  0  0  0  0  0  0  0
    1.9582    8.2638    7.7535 C   0  0  0  0  0  0  0  0  0  0  0  0
    1.9168    7.8356    9.1977 C   0  0  0  0  0  0  0  0  0  0  0  0
    1.0481    6.7542    9.4842 N   0  0  0  0  0  0  0  0  0  0  0  0
   -0.1525    6.6569    8.7345 C   0  0  0  0  0  0  0  0  0  0  0  0
   -0.0010    6.9724    7.2804 C   0  0  0  0  0  0  0  0  0  0  0  0
 31 32  1  0  0  0
 32 33  1  0  0  0
 33 34  1  0  0  0
 34 35  1  0  0  0
 35 30  1  0  0  0
 30 24  1  0  0  0
 24 25  2  0  0  0
 25 26  1  0  0  0
 26 27  2  0  0  0
 27 28  1  0  0  0
 28 29  2  0  0  0
 27  1  1  0  0  0
  1  2  2  0  0  0
  2  3  1  0  0  0
  3  4  1  0  0  0
  4  5  1  0  0  0
  5  6  1  0  0  0
  6  7  1  0  0  0
  7  8  1  0  0  0
  7  9  1  0  0  0
  9 10  1  0  0  0
 10 11  1  0  0  0
 11 12  1  0  0  0
 12 13  1  0  0  0
 13 14  1  0  0  0
 14 15  1  0  0  0
 15 16  1  0  0  0
 16 17  2  0  0  0
 17 18  1  0  0  0
 18 19  2  0  0  0
 19 20  1  0  0  0
 20 21  2  0  0  0
 35 36  1  0  0  0
 36 37  1  0  0  0
 37 32  1  0  0  0
 29 24  1  0  0  0
 19  1  1  0  0  0
 20  3  1  0  0  0
 21 16  1  0  0  0
  8 22  1  0  0  0
 15 23  1  0  0  0
M  END
> <minimizedAffinity>
-9.29443

> <CNNscore>
0.3023046851

> <CNNaffinity>
6.4144811630

> <CNN_VS>
1.9391276836

> <CNNaffinity_variance>
0.4830847383

$$$$
[H]OC1([H])C([H])([H])C([H])([H])C([H])([H])n2c([H])c(-c3c([H])c([H])c(C([H])([H])N4C([H])([H])C([H])([H])N(C([H])([H])[H])C([H])([H])C4([H])[H])c([H])c3[H])c3c([H])nc(nc32)N([H])C([H])([H])C([H])([H])C([H])([H])C([H])([H])C([H])([H])C1([H])[H]


 37 41  0  0  0  0  0  0  0  0999 V2000
    3.1759    3.7387   15.3773 C   0  0  0  0  0  0  0  0  0  0  0  0
    3.1615    2.4366   15.8901 C   0  0  0  0  0  0  0  0  0  0  0  0
    3.3106    2.4941   17.2464 N   0  0  0  0  0  0  0  0  0  0  0  0
    3.3492    1.3866   18.1584 C   0  0  0  0  0  0  0  0  0  0  0  0
    4.1489    1.6652   19.3864 C   0  0  0  0  0  0  0  0  0  0  0  0
    4.6004    0.3640   20.0588 C   0  0  0  0  0  0  0  0  0  0  0  0
    5.4877    0.6914   21.2490 C   0  0  0  0  0  0  0  0  0  0  0  0
    6.4381    1.6652   20.8757 O   0  0  0  0  0  0  0  0  0  0  0  0
    4.7068    1.2564   22.3891 C   0  0  0  0  0  0  0  0  0  0  0  0
    5.4011    2.4232   23.0558 C   0  0  0  0  0  0  0  0  0  0  0  0
    4.4582    3.3144   23.8160 C   0  0  0  0  0  0  0  0  0  0  0  0
    3.4991    4.0782   22.9660 C   0  0  0  0  0  0  0  0  0  0  0  0
    3.9797    5.4627   22.5878 C   0  0  0  0  0  0  0  0  0  0  0  0
    4.6068    5.4532   21.2304 C   0  0  0  0  0  0  0  0  0  0  0  0
    3.8361    6.1662   20.2282 N   0  0  0  0  0  0  0  0  0  0  0  0
    3.6602    5.6301   18.9018 C   0  0  0  0  0  0  0  0  0  0  0  0
    3.5879    6.4364   17.8281 N   0  0  0  0  0  0  0  0  0  0  0  0
    3.4263    5.9475   16.5852 C   0  0  0  0  0  0  0  0  0  0  0  0
    3.3369    4.5824   16.4510 C   0  0  0  0  0  0  0  0  0  0  0  0
    3.4127    3.7822   17.5528 C   0  0  0  0  0  0  0  0  0  0  0  0
    3.5714    4.2986   18.7562 N   0  0  0  0  0  0  0  0  0  0  0  0
    6.9882    1.3109   20.1147 H   0  0  0  0  0  0  0  0  0  0  0  0
    3.3841    7.0889   20.4307 H   0  0  0  0  0  0  0  0  0  0  0  0
    2.7924    4.9024   11.2551 C   0  0  0  0  0  0  0  0  0  0  0  0
    1.6952    4.6188   12.0392 C   0  0  0  0  0  0  0  0  0  0  0  0
    1.8090    4.2417   13.3688 C   0  0  0  0  0  0  0  0  0  0  0  0
    3.0408    4.1309   13.9779 C   0  0  0  0  0  0  0  0  0  0  0  0
    4.1428    4.4136   13.1972 C   0  0  0  0  0  0  0  0  0  0  0  0
    4.0343    4.7888   11.8753 C   0  0  0  0  0  0  0  0  0  0  0  0
    2.7010    5.3121    9.8262 C   0  0  0  0  0  0  0  0  0  0  0  0
    1.9990    9.2472    6.6947 C   0  0  0  0  0  0  0  0  0  0  0  0
    1.5729    8.4469    7.8151 N   0  0  0  0  0  0  0  0  0  0  0  0
    2.5346    8.5722    8.8720 C   0  0  0  0  0  0  0  0  0  0  0  0
    2.2207    7.6765   10.0424 C   0  0  0  0  0  0  0  0  0  0  0  0
    1.7632    6.3788    9.7064 N   0  0  0  0  0  0  0  0  0  0  0  0
    0.9654    6.2426    8.5410 C   0  0  0  0  0  0  0  0  0  0  0  0
    1.4205    7.0683    7.3799 C   0  0  0  0  0  0  0  0  0  0  0  0
 31 32  1  0  0  0
 32 33  1  0  0  0
 33 34  1  0  0  0
 34 35  1  0  0  0
 35 30  1  0  0  0
 30 24  1  0  0  0
 24 25  2  0  0  0
 25 26  1  0  0  0
 26 27  2  0  0  0
 27 28  1  0  0  0
 28 29  2  0  0  0
 27  1  1  0  0  0
  1  2  2  0  0  0
  2  3  1  0  0  0
  3  4  1  0  0  0
  4  5  1  0  0  0
  5  6  1  0  0  0
  6  7  1  0  0  0
  7  8  1  0  0  0
  7  9  1  0  0  0
  9 10  1  0  0  0
 10 11  1  0  0  0
 11 12  1  0  0  0
 12 13  1  0  0  0
 13 14  1  0  0  0
 14 15  1  0  0  0
 15 16  1  0  0  0
 16 17  2  0  0  0
 17 18  1  0  0  0
 18 19  2  0  0  0
 19 20  1  0  0  0
 20 21  2  0  0  0
 35 36  1  0  0  0
 36 37  1  0  0  0
 37 32  1  0  0  0
 29 24  1  0  0  0
 19  1  1  0  0  0
 20  3  1  0  0  0
 21 16  1  0  0  0
  8 22  1  0  0  0
 15 23  1  0  0  0
M  END
> <minimizedAffinity>
-8.89935

> <CNNscore>
0.2454992235

> <CNNaffinity>
6.2666563988

> <CNN_VS>
1.5384593010

> <CNNaffinity_variance>
0.2233283222

$$$$
[H]OC1([H])C([H])([H])C([H])([H])C([H])([H])n2c([H])c(-c3c([H])c([H])c(C([H])([H])N4C([H])([H])C([H])([H])N(C([H])([H])[H])C([H])([H])C4([H])[H])c([H])c3[H])c3c([H])nc(nc32)N([H])C([H])([H])C([H])([H])C([H])([H])C([H])([H])C([H])([H])C1([H])[H]


 37 41  0  0  0  0  0  0  0  0999 V2000
    1.4668    7.1895   11.9995 C   0  0  0  0  0  0  0  0  0  0  0  0
    0.2013    6.5918   11.9967 C   0  0  0  0  0  0  0  0  0  0  0  0
   -0.2198    6.4550   10.7048 N   0  0  0  0  0  0  0  0  0  0  0  0
   -1.4606    5.8899   10.2565 C   0  0  0  0  0  0  0  0  0  0  0  0
   -1.9243    6.4506    8.9544 C   0  0  0  0  0  0  0  0  0  0  0  0
   -3.4311    6.2409    8.7678 C   0  0  0  0  0  0  0  0  0  0  0  0
   -3.8780    6.9070    7.4763 C   0  0  0  0  0  0  0  0  0  0  0  0
   -3.3260    8.2031    7.3979 O   0  0  0  0  0  0  0  0  0  0  0  0
   -3.4115    6.1588    6.2715 C   0  0  0  0  0  0  0  0  0  0  0  0
   -2.9004    7.0686    5.1765 C   0  0  0  0  0  0  0  0  0  0  0  0
   -1.9721    6.3745    4.2184 C   0  0  0  0  0  0  0  0  0  0  0  0
   -0.6616    5.9671    4.8035 C   0  0  0  0  0  0  0  0  0  0  0  0
    0.4399    6.9881    4.6162 C   0  0  0  0  0  0  0  0  0  0  0  0
    0.5793    7.8460    5.8330 C   0  0  0  0  0  0  0  0  0  0  0  0
    1.8137    7.6236    6.5635 N   0  0  0  0  0  0  0  0  0  0  0  0
    1.8265    7.5556    8.0032 C   0  0  0  0  0  0  0  0  0  0  0  0
    2.8716    8.0154    8.7135 N   0  0  0  0  0  0  0  0  0  0  0  0
    2.8937    7.9595   10.0574 C   0  0  0  0  0  0  0  0  0  0  0  0
    1.8003    7.4106   10.6841 C   0  0  0  0  0  0  0  0  0  0  0  0
    0.7504    6.9501    9.9453 C   0  0  0  0  0  0  0  0  0  0  0  0
    0.7650    7.0220    8.6282 N   0  0  0  0  0  0  0  0  0  0  0  0
   -3.6298    8.7369    8.1916 H   0  0  0  0  0  0  0  0  0  0  0  0
    2.7325    7.5062    6.0749 H   0  0  0  0  0  0  0  0  0  0  0  0
    3.8618    8.1248   15.4468 C   0  0  0  0  0  0  0  0  0  0  0  0
    3.2610    9.1049   14.6869 C   0  0  0  0  0  0  0  0  0  0  0  0
    2.4881    8.8131   13.5731 C   0  0  0  0  0  0  0  0  0  0  0  0
    2.2809    7.5120   13.1673 C   0  0  0  0  0  0  0  0  0  0  0  0
    2.8803    6.5266   13.9247 C   0  0  0  0  0  0  0  0  0  0  0  0
    3.6493    6.8121   15.0324 C   0  0  0  0  0  0  0  0  0  0  0  0
    4.6945    8.4075   16.6486 C   0  0  0  0  0  0  0  0  0  0  0  0
    5.3162    9.2149   21.6232 C   0  0  0  0  0  0  0  0  0  0  0  0
    4.4594    8.9486   20.4952 N   0  0  0  0  0  0  0  0  0  0  0  0
    4.7743    7.6539   19.9641 C   0  0  0  0  0  0  0  0  0  0  0  0
    3.9979    7.3438   18.7103 C   0  0  0  0  0  0  0  0  0  0  0  0
    3.8578    8.4219   17.8025 N   0  0  0  0  0  0  0  0  0  0  0  0
    3.7391    9.7280   18.3437 C   0  0  0  0  0  0  0  0  0  0  0  0
    4.6391    9.9996   19.5070 C   0  0  0  0  0  0  0  0  0  0  0  0
 31 32  1  0  0  0
 32 33  1  0  0  0
 33 34  1  0  0  0
 34 35  1  0  0  0
 35 30  1  0  0  0
 30 24  1  0  0  0
 24 25  2  0  0  0
 25 26  1  0  0  0
 26 27  2  0  0  0
 27 28  1  0  0  0
 28 29  2  0  0  0
 27  1  1  0  0  0
  1  2  2  0  0  0
  2  3  1  0  0  0
  3  4  1  0  0  0
  4  5  1  0  0  0
  5  6  1  0  0  0
  6  7  1  0  0  0
  7  8  1  0  0  0
  7  9  1  0  0  0
  9 10  1  0  0  0
 10 11  1  0  0  0
 11 12  1  0  0  0
 12 13  1  0  0  0
 13 14  1  0  0  0
 14 15  1  0  0  0
 15 16  1  0  0  0
 16 17  2  0  0  0
 17 18  1  0  0  0
 18 19  2  0  0  0
 19 20  1  0  0  0
 20 21  2  0  0  0
 35 36  1  0  0  0
 36 37  1  0  0  0
 37 32  1  0  0  0
 29 24  1  0  0  0
 19  1  1  0  0  0
 20  3  1  0  0  0
 21 16  1  0  0  0
  8 22  1  0  0  0
 15 23  1  0  0  0
M  END
> <minimizedAffinity>
-7.13658

> <CNNscore>
0.2069174945

> <CNNaffinity>
5.4738101959

> <CNN_VS>
1.1326271296

> <CNNaffinity_variance>
0.6932362318

$$$$
[H]OC1([H])C([H])([H])C([H])([H])C([H])([H])n2c([H])c(-c3c([H])c([H])c(C([H])([H])N4C([H])([H])C([H])([H])N(C([H])([H])[H])C([H])([H])C4([H])[H])c([H])c3[H])c3c([H])nc(nc32)N([H])C([H])([H])C([H])([H])C([H])([H])C([H])([H])C([H])([H])C1([H])[H]


 37 41  0  0  0  0  0  0  0  0999 V2000
    3.3515    5.8340   14.2018 C   0  0  0  0  0  0  0  0  0  0  0  0
    2.9173    4.5571   14.5757 C   0  0  0  0  0  0  0  0  0  0  0  0
    3.0782    4.4129   15.9241 N   0  0  0  0  0  0  0  0  0  0  0  0
    2.7575    3.2577   16.7132 C   0  0  0  0  0  0  0  0  0  0  0  0
    3.6054    3.1266   17.9334 C   0  0  0  0  0  0  0  0  0  0  0  0
    3.6126    1.6832   18.4488 C   0  0  0  0  0  0  0  0  0  0  0  0
    4.5591    1.5742   19.6334 C   0  0  0  0  0  0  0  0  0  0  0  0
    5.7730    2.2261   19.3295 O   0  0  0  0  0  0  0  0  0  0  0  0
    4.0038    2.2298   20.8543 C   0  0  0  0  0  0  0  0  0  0  0  0
    5.0387    3.0303   21.6135 C   0  0  0  0  0  0  0  0  0  0  0  0
    4.4352    4.0870   22.4970 C   0  0  0  0  0  0  0  0  0  0  0  0
    3.7738    5.2076   21.7673 C   0  0  0  0  0  0  0  0  0  0  0  0
    4.6758    6.3973   21.5188 C   0  0  0  0  0  0  0  0  0  0  0  0
    5.2650    6.3375   20.1457 C   0  0  0  0  0  0  0  0  0  0  0  0
    4.7653    7.3668   19.2527 N   0  0  0  0  0  0  0  0  0  0  0  0
    4.4244    7.0663   17.8848 C   0  0  0  0  0  0  0  0  0  0  0  0
    4.6156    7.9669   16.9048 N   0  0  0  0  0  0  0  0  0  0  0  0
    4.3036    7.6969   15.6244 C   0  0  0  0  0  0  0  0  0  0  0  0
    3.7775    6.4567   15.3513 C   0  0  0  0  0  0  0  0  0  0  0  0
    3.5915    5.5575   16.3597 C   0  0  0  0  0  0  0  0  0  0  0  0
    3.9098    5.8587   17.6040 N   0  0  0  0  0  0  0  0  0  0  0  0
    6.1784    1.8006   18.5159 H   0  0  0  0  0  0  0  0  0  0  0  0
    4.6361    8.3574   19.5671 H   0  0  0  0  0  0  0  0  0  0  0  0
    3.3607    7.5015   10.2378 C   0  0  0  0  0  0  0  0  0  0  0  0
    2.5065    7.9554   11.2193 C   0  0  0  0  0  0  0  0  0  0  0  0
    2.4954    7.4232   12.4998 C   0  0  0  0  0  0  0  0  0  0  0  0
    3.3491    6.4015   12.8571 C   0  0  0  0  0  0  0  0  0  0  0  0
    4.2066    5.9432   11.8780 C   0  0  0  0  0  0  0  0  0  0  0  0
    4.2210    6.4692   10.6040 C   0  0  0  0  0  0  0  0  0  0  0  0
    3.3972    8.0550    8.8557 C   0  0  0  0  0  0  0  0  0  0  0  0
    0.8468    9.0794    4.5860 C   0  0  0  0  0  0  0  0  0  0  0  0
    0.9019    9.0041    6.0243 N   0  0  0  0  0  0  0  0  0  0  0  0
    1.8494    9.9668    6.5070 C   0  0  0  0  0  0  0  0  0  0  0  0
    2.0502    9.8763    7.9978 C   0  0  0  0  0  0  0  0  0  0  0  0
    2.1073    8.5620    8.5226 N   0  0  0  0  0  0  0  0  0  0  0  0
    1.3011    7.5706    7.9060 C   0  0  0  0  0  0  0  0  0  0  0  0
    1.2578    7.6493    6.4130 C   0  0  0  0  0  0  0  0  0  0  0  0
 31 32  1  0  0  0
 32 33  1  0  0  0
 33 34  1  0  0  0
 34 35  1  0  0  0
 35 30  1  0  0  0
 30 24  1  0  0  0
 24 25  2  0  0  0
 25 26  1  0  0  0
 26 27  2  0  0  0
 27 28  1  0  0  0
 28 29  2  0  0  0
 27  1  1  0  0  0
  1  2  2  0  0  0
  2  3  1  0  0  0
  3  4  1  0  0  0
  4  5  1  0  0  0
  5  6  1  0  0  0
  6  7  1  0  0  0
  7  8  1  0  0  0
  7  9  1  0  0  0
  9 10  1  0  0  0
 10 11  1  0  0  0
 11 12  1  0  0  0
 12 13  1  0  0  0
 13 14  1  0  0  0
 14 15  1  0  0  0
 15 16  1  0  0  0
 16 17  2  0  0  0
 17 18  1  0  0  0
 18 19  2  0  0  0
 19 20  1  0  0  0
 20 21  2  0  0  0
 35 36  1  0  0  0
 36 37  1  0  0  0
 37 32  1  0  0  0
 29 24  1  0  0  0
 19  1  1  0  0  0
 20  3  1  0  0  0
 21 16  1  0  0  0
  8 22  1  0  0  0
 15 23  1  0  0  0
M  END
> <minimizedAffinity>
-7.89405

> <CNNscore>
0.1891002059

> <CNNaffinity>
5.8237948418

> <CNN_VS>
1.1012808084

> <CNNaffinity_variance>
0.5412808657

$$$$
[H]OC1([H])C([H])([H])C([H])([H])C([H])([H])n2c([H])c(-c3c([H])c([H])c(C([H])([H])N4C([H])([H])C([H])([H])N(C([H])([H])[H])C([H])([H])C4([H])[H])c([H])c3[H])c3c([H])nc(nc32)N([H])C([H])([H])C([H])([H])C([H])([H])C([H])([H])C([H])([H])C1([H])[H]


 37 41  0  0  0  0  0  0  0  0999 V2000
    3.3416    2.9246   15.1736 C   0  0  0  0  0  0  0  0  0  0  0  0
    3.1951    1.7412   15.9063 C   0  0  0  0  0  0  0  0  0  0  0  0
    3.3268    2.0253   17.2355 N   0  0  0  0  0  0  0  0  0  0  0  0
    3.2449    1.0988   18.3286 C   0  0  0  0  0  0  0  0  0  0  0  0
    4.0473    1.5176   19.5143 C   0  0  0  0  0  0  0  0  0  0  0  0
    4.3620    0.3212   20.4191 C   0  0  0  0  0  0  0  0  0  0  0  0
    5.2568    0.7733   21.5619 C   0  0  0  0  0  0  0  0  0  0  0  0
    6.3015    1.5749   21.0550 O   0  0  0  0  0  0  0  0  0  0  0  0
    4.5146    1.6005   22.5588 C   0  0  0  0  0  0  0  0  0  0  0  0
    5.3058    2.7995   23.0328 C   0  0  0  0  0  0  0  0  0  0  0  0
    4.4396    3.8935   23.5933 C   0  0  0  0  0  0  0  0  0  0  0  0
    3.5715    4.5776   22.5913 C   0  0  0  0  0  0  0  0  0  0  0  0
    4.1877    5.8234   21.9920 C   0  0  0  0  0  0  0  0  0  0  0  0
    4.8332    5.5158   20.6787 C   0  0  0  0  0  0  0  0  0  0  0  0
    4.1503    6.1061   19.5421 N   0  0  0  0  0  0  0  0  0  0  0  0
    3.9459    5.3609   18.3254 C   0  0  0  0  0  0  0  0  0  0  0  0
    3.9681    5.9665   17.1249 N   0  0  0  0  0  0  0  0  0  0  0  0
    3.7812    5.2810   15.9826 C   0  0  0  0  0  0  0  0  0  0  0  0
    3.5646    3.9277   16.0872 C   0  0  0  0  0  0  0  0  0  0  0  0
    3.5459    3.3326   17.3142 C   0  0  0  0  0  0  0  0  0  0  0  0
    3.7333    4.0383   18.4129 N   0  0  0  0  0  0  0  0  0  0  0  0
    6.8278    1.0425   20.3866 H   0  0  0  0  0  0  0  0  0  0  0  0
    3.7848    7.0873   19.5644 H   0  0  0  0  0  0  0  0  0  0  0  0
    3.1273    3.3756   10.9022 C   0  0  0  0  0  0  0  0  0  0  0  0
    2.3785    2.4352   11.5760 C   0  0  0  0  0  0  0  0  0  0  0  0
    2.4418    2.2816   12.9527 C   0  0  0  0  0  0  0  0  0  0  0  0
    3.2673    3.0722   13.7234 C   0  0  0  0  0  0  0  0  0  0  0  0
    4.0194    4.0155   13.0537 C   0  0  0  0  0  0  0  0  0  0  0  0
    3.9596    4.1716   11.6855 C   0  0  0  0  0  0  0  0  0  0  0  0
    3.0783    3.5653    9.4259 C   0  0  0  0  0  0  0  0  0  0  0  0
    1.4913    7.4035    6.5046 C   0  0  0  0  0  0  0  0  0  0  0  0
    1.2049    6.2828    7.3645 N   0  0  0  0  0  0  0  0  0  0  0  0
    1.6777    6.5751    8.6868 C   0  0  0  0  0  0  0  0  0  0  0  0
    1.5170    5.4066    9.6248 C   0  0  0  0  0  0  0  0  0  0  0  0
    1.8226    4.1391    9.0713 N   0  0  0  0  0  0  0  0  0  0  0  0
    1.5222    3.9288    7.7007 C   0  0  0  0  0  0  0  0  0  0  0  0
    1.8322    5.0926    6.8138 C   0  0  0  0  0  0  0  0  0  0  0  0
 31 32  1  0  0  0
 32 33  1  0  0  0
 33 34  1  0  0  0
 34 35  1  0  0  0
 35 30  1  0  0  0
 30 24  1  0  0  0
 24 25  2  0  0  0
 25 26  1  0  0  0
 26 27  2  0  0  0
 27 28  1  0  0  0
 28 29  2  0  0  0
 27  1  1  0  0  0
  1  2  2  0  0  0
  2  3  1  0  0  0
  3  4  1  0  0  0
  4  5  1  0  0  0
  5  6  1  0  0  0
  6  7  1  0  0  0
  7  8  1  0  0  0
  7  9  1  0  0  0
  9 10  1  0  0  0
 10 11  1  0  0  0
 11 12  1  0  0  0
 12 13  1  0  0  0
 13 14  1  0  0  0
 14 15  1  0  0  0
 15 16  1  0  0  0
 16 17  2  0  0  0
 17 18  1  0  0  0
 18 19  2  0  0  0
 19 20  1  0  0  0
 20 21  2  0  0  0
 35 36  1  0  0  0
 36 37  1  0  0  0
 37 32  1  0  0  0
 29 24  1  0  0  0
 19  1  1  0  0  0
 20  3  1  0  0  0
 21 16  1  0  0  0
  8 22  1  0  0  0
 15 23  1  0  0  0
M  END
> <minimizedAffinity>
-8.99266

> <CNNscore>
0.1790993363

> <CNNaffinity>
6.2922334671

> <CNN_VS>
1.1269348860

> <CNNaffinity_variance>
0.1432008445

$$$$
[H]O[C@]1([H])C([H])([H])C([H])([H])[C@]([H])(C([H])([H])n2nc(-c3c([H])nc(N4C([H])([H])C([H])([H])N([H])C([H])([H])C4([H])[H])c([H])c3[H])c3c([H])nc(N([H])C([H])([H])C([H])([H])C([H])([H])C([H])([H])[H])nc32)C([H])([H])C1([H])[H]


 37 41  0  0  0  0  0  0  0  0999 V2000
    3.0456    0.1628   19.0768 C   0  0  0  0  0  0  0  0  0  0  0  0
    2.2897   -0.1202   18.0041 N   0  0  0  0  0  0  0  0  0  0  0  0
    2.2853    0.6643   16.9034 C   0  0  0  0  0  0  0  0  0  0  0  0
    3.0665    1.7991   16.8391 C   0  0  0  0  0  0  0  0  0  0  0  0
    3.3105    2.7976   15.9261 C   0  0  0  0  0  0  0  0  0  0  0  0
    4.1961    3.6255   16.4942 N   0  0  0  0  0  0  0  0  0  0  0  0
    4.5445    3.2393   17.7058 N   0  0  0  0  0  0  0  0  0  0  0  0
    3.8518    2.0977   17.9470 C   0  0  0  0  0  0  0  0  0  0  0  0
    3.8054    1.2680   19.0124 N   0  0  0  0  0  0  0  0  0  0  0  0
    2.6854    2.8812   14.6114 C   0  0  0  0  0  0  0  0  0  0  0  0
    2.9017    1.9181   13.6358 C   0  0  0  0  0  0  0  0  0  0  0  0
    2.3011    1.9942   12.3835 C   0  0  0  0  0  0  0  0  0  0  0  0
    1.4711    3.0602   12.1178 C   0  0  0  0  0  0  0  0  0  0  0  0
    1.2568    3.9959   13.0563 N   0  0  0  0  0  0  0  0  0  0  0  0
    1.8418    3.9131   14.2630 C   0  0  0  0  0  0  0  0  0  0  0  0
    0.8531    3.1639   10.8635 N   0  0  0  0  0  0  0  0  0  0  0  0
   -0.0846    4.2229   10.6040 C   0  0  0  0  0  0  0  0  0  0  0  0
   -0.9267    3.8785    9.3996 C   0  0  0  0  0  0  0  0  0  0  0  0
   -1.2449    2.4662    9.4980 N   0  0  0  0  0  0  0  0  0  0  0  0
   -0.0711    1.6558    9.1959 C   0  0  0  0  0  0  0  0  0  0  0  0
    1.1716    2.1986    9.8367 C   0  0  0  0  0  0  0  0  0  0  0  0
   -1.5852    2.2722   10.4798 H   0  0  0  0  0  0  0  0  0  0  0  0
    3.0379   -0.6698   20.2243 N   0  0  0  0  0  0  0  0  0  0  0  0
    2.5058   -1.5543   20.2347 H   0  0  0  0  0  0  0  0  0  0  0  0
    3.7787   -0.2830   21.3953 C   0  0  0  0  0  0  0  0  0  0  0  0
    3.1192    0.8543   22.1245 C   0  0  0  0  0  0  0  0  0  0  0  0
    5.3953    1.7187   22.0386 C   0  0  0  0  0  0  0  0  0  0  0  0
    4.1329    1.6719   22.8794 C   0  0  0  0  0  0  0  0  0  0  0  0
    5.4632    3.8861   18.5885 C   0  0  0  0  0  0  0  0  0  0  0  0
    4.9730    5.1832   19.1738 C   0  0  0  0  0  0  0  0  0  0  0  0
    6.0842    5.9914   19.8167 C   0  0  0  0  0  0  0  0  0  0  0  0
    6.3858    5.4552   21.2204 C   0  0  0  0  0  0  0  0  0  0  0  0
    5.2730    5.9079   22.1074 C   0  0  0  0  0  0  0  0  0  0  0  0
    5.2807    5.0745   23.2482 O   0  0  0  0  0  0  0  0  0  0  0  0
    3.9739    5.8244   21.3796 C   0  0  0  0  0  0  0  0  0  0  0  0
    3.9578    4.8236   20.2461 C   0  0  0  0  0  0  0  0  0  0  0  0
    4.7527    4.2516   23.0913 H   0  0  0  0  0  0  0  0  0  0  0  0
 27 28  1  0  0  0
 28 26  1  0  0  0
 26 25  1  0  0  0
 25 23  1  0  0  0
 23  1  1  0  0  0
  1  2  2  0  0  0
  2  3  1  0  0  0
  3  4  2  0  0  0
  4  5  1  0  0  0
  5  6  2  0  0  0
  6  7  1  0  0  0
  7 29  1  0  0  0
 29 30  1  0  0  0
 30 31  1  0  0  0
 31 32  1  0  0  0
 32 33  1  0  0  0
 33 34  1  0  0  0
 33 35  1  0  0  0
 35 36  1  0  0  0
  7  8  1  0  0  0
  8  9  2  0  0  0
  5 10  1  0  0  0
 10 11  2  0  0  0
 11 12  1  0  0  0
 12 13  2  0  0  0
 13 14  1  0  0  0
 14 15  2  0  0  0
 13 16  1  0  0  0
 16 17  1  0  0  0
 17 18  1  0  0  0
 18 19  1  0  0  0
 19 20  1  0  0  0
 20 21  1  0  0  0
  9  1  1  0  0  0
 15 10  1  0  0  0
 21 16  1  0  0  0
  8  4  1  0  0  0
 36 30  1  0  0  0
 23 24  1  0  0  0
 34 37  1  0  0  0
 19 22  1  0  0  0
M  END
> <minimizedAffinity>
-8.32174

> <CNNscore>
0.9425713420

> <CNNaffinity>
7.6021018028

> <CNN_VS>
7.1655235291

> <CNNaffinity_variance>
0.0254067592

$$$$
[H]O[C@]1([H])C([H])([H])C([H])([H])[C@]([H])(C([H])([H])n2nc(-c3c([H])nc(N4C([H])([H])C([H])([H])N([H])C([H])([H])C4([H])[H])c([H])c3[H])c3c([H])nc(N([H])C([H])([H])C([H])([H])C([H])([H])C([H])([H])[H])nc32)C([H])([H])C1([H])[H]


 37 41  0  0  0  0  0  0  0  0999 V2000
    3.6987    1.3574   18.6235 C   0  0  0  0  0  0  0  0  0  0  0  0
    3.1644    0.6593   17.6089 N   0  0  0  0  0  0  0  0  0  0  0  0
    2.8695    1.2330   16.4211 C   0  0  0  0  0  0  0  0  0  0  0  0
    3.1091    2.5736   16.2030 C   0  0  0  0  0  0  0  0  0  0  0  0
    2.9446    3.4661   15.1703 C   0  0  0  0  0  0  0  0  0  0  0  0
    3.3863    4.6492   15.6150 N   0  0  0  0  0  0  0  0  0  0  0  0
    3.8243    4.5911   16.8573 N   0  0  0  0  0  0  0  0  0  0  0  0
    3.6623    3.3023   17.2500 C   0  0  0  0  0  0  0  0  0  0  0  0
    3.9310    2.6625   18.4093 N   0  0  0  0  0  0  0  0  0  0  0  0
    2.3845    3.1240   13.8683 C   0  0  0  0  0  0  0  0  0  0  0  0
    3.0001    2.2105   13.0240 C   0  0  0  0  0  0  0  0  0  0  0  0
    2.4632    1.8793   11.7844 C   0  0  0  0  0  0  0  0  0  0  0  0
    1.2876    2.4821   11.3966 C   0  0  0  0  0  0  0  0  0  0  0  0
    0.6859    3.3667   12.2076 N   0  0  0  0  0  0  0  0  0  0  0  0
    1.2128    3.6797   13.4032 C   0  0  0  0  0  0  0  0  0  0  0  0
    0.7238    2.1687   10.1516 N   0  0  0  0  0  0  0  0  0  0  0  0
    0.3272    0.8184    9.8559 C   0  0  0  0  0  0  0  0  0  0  0  0
    0.1803    0.6421    8.3641 C   0  0  0  0  0  0  0  0  0  0  0  0
    1.2783    1.3607    7.7448 N   0  0  0  0  0  0  0  0  0  0  0  0
    1.0585    2.7997    7.8280 C   0  0  0  0  0  0  0  0  0  0  0  0
    0.5436    3.2168    9.1735 C   0  0  0  0  0  0  0  0  0  0  0  0
    2.1709    1.0937    8.2442 H   0  0  0  0  0  0  0  0  0  0  0  0
    4.0010    0.7409   19.8638 N   0  0  0  0  0  0  0  0  0  0  0  0
    3.8887   -0.2773   19.9917 H   0  0  0  0  0  0  0  0  0  0  0  0
    4.4706    1.5387   20.9651 C   0  0  0  0  0  0  0  0  0  0  0  0
    3.8285    1.1344   22.2628 C   0  0  0  0  0  0  0  0  0  0  0  0
    5.7524    2.4250   23.0166 C   0  0  0  0  0  0  0  0  0  0  0  0
    4.3652    1.9506   23.4082 C   0  0  0  0  0  0  0  0  0  0  0  0
    4.3613    5.6622   17.6356 C   0  0  0  0  0  0  0  0  0  0  0  0
    5.7545    5.4305   18.1562 C   0  0  0  0  0  0  0  0  0  0  0  0
    5.7908    5.2295   19.6593 C   0  0  0  0  0  0  0  0  0  0  0  0
    5.7322    6.5825   20.3768 C   0  0  0  0  0  0  0  0  0  0  0  0
    7.0781    7.2123   20.2285 C   0  0  0  0  0  0  0  0  0  0  0  0
    6.9213    8.5966   20.4630 O   0  0  0  0  0  0  0  0  0  0  0  0
    7.6178    6.9479   18.8635 C   0  0  0  0  0  0  0  0  0  0  0  0
    6.5606    6.6737   17.8177 C   0  0  0  0  0  0  0  0  0  0  0  0
    6.6642    9.0713   19.6329 H   0  0  0  0  0  0  0  0  0  0  0  0
 27 28  1  0  0  0
 28 26  1  0  0  0
 26 25  1  0  0  0
 25 23  1  0  0  0
 23  1  1  0  0  0
  1  2  2  0  0  0
  2  3  1  0  0  0
  3  4  2  0  0  0
  4  5  1  0  0  0
  5  6  2  0  0  0
  6  7  1  0  0  0
  7 29  1  0  0  0
 29 30  1  0  0  0
 30 31  1  0  0  0
 31 32  1  0  0  0
 32 33  1  0  0  0
 33 34  1  0  0  0
 33 35  1  0  0  0
 35 36  1  0  0  0
  7  8  1  0  0  0
  8  9  2  0  0  0
  5 10  1  0  0  0
 10 11  2  0  0  0
 11 12  1  0  0  0
 12 13  2  0  0  0
 13 14  1  0  0  0
 14 15  2  0  0  0
 13 16  1  0  0  0
 16 17  1  0  0  0
 17 18  1  0  0  0
 18 19  1  0  0  0
 19 20  1  0  0  0
 20 21  1  0  0  0
  9  1  1  0  0  0
 15 10  1  0  0  0
 21 16  1  0  0  0
  8  4  1  0  0  0
 36 30  1  0  0  0
 23 24  1  0  0  0
 34 37  1  0  0  0
 19 22  1  0  0  0
M  END
> <minimizedAffinity>
-6.99908

> <CNNscore>
0.6173616648

> <CNNaffinity>
7.1553168297

> <CNN_VS>
4.4174184799

> <CNNaffinity_variance>
0.3670011461

$$$$
[H]O[C@]1([H])C([H])([H])C([H])([H])[C@]([H])(C([H])([H])n2nc(-c3c([H])nc(N4C([H])([H])C([H])([H])N([H])C([H])([H])C4([H])[H])c([H])c3[H])c3c([H])nc(N([H])C([H])([H])C([H])([H])C([H])([H])C([H])([H])[H])nc32)C([H])([H])C1([H])[H]


 37 41  0  0  0  0  0  0  0  0999 V2000
    1.0686    2.3678   11.5130 C   0  0  0  0  0  0  0  0  0  0  0  0
    0.9194    1.5972   12.6021 N   0  0  0  0  0  0  0  0  0  0  0  0
    1.6613    1.7806   13.7169 C   0  0  0  0  0  0  0  0  0  0  0  0
    2.6114    2.7783   13.7794 C   0  0  0  0  0  0  0  0  0  0  0  0
    3.5169    3.2437   14.7033 C   0  0  0  0  0  0  0  0  0  0  0  0
    4.1609    4.2651   14.1250 N   0  0  0  0  0  0  0  0  0  0  0  0
    3.7416    4.4969   12.8966 N   0  0  0  0  0  0  0  0  0  0  0  0
    2.7710    3.5800   12.6545 C   0  0  0  0  0  0  0  0  0  0  0  0
    1.9943    3.3386   11.5756 N   0  0  0  0  0  0  0  0  0  0  0  0
    3.6939    2.6820   16.0372 C   0  0  0  0  0  0  0  0  0  0  0  0
    4.4812    3.3055   16.9952 C   0  0  0  0  0  0  0  0  0  0  0  0
    4.6457    2.7731   18.2697 C   0  0  0  0  0  0  0  0  0  0  0  0
    4.0038    1.5942   18.5760 C   0  0  0  0  0  0  0  0  0  0  0  0
    3.2404    0.9850   17.6549 N   0  0  0  0  0  0  0  0  0  0  0  0
    3.0879    1.5076   16.4265 C   0  0  0  0  0  0  0  0  0  0  0  0
    4.1525    1.0334   19.8525 N   0  0  0  0  0  0  0  0  0  0  0  0
    3.2126    0.0536   20.3265 C   0  0  0  0  0  0  0  0  0  0  0  0
    3.3048   -0.0607   21.8287 C   0  0  0  0  0  0  0  0  0  0  0  0
    3.4617    1.2862   22.3449 N   0  0  0  0  0  0  0  0  0  0  0  0
    4.8040    1.7853   22.0705 C   0  0  0  0  0  0  0  0  0  0  0  0
    5.2603    1.4483   20.6821 C   0  0  0  0  0  0  0  0  0  0  0  0
    2.7369    1.9026   21.8843 H   0  0  0  0  0  0  0  0  0  0  0  0
    0.2833    2.1616   10.3509 N   0  0  0  0  0  0  0  0  0  0  0  0
   -0.2464    2.9379    9.9235 H   0  0  0  0  0  0  0  0  0  0  0  0
    0.2172    0.8547    9.7531 C   0  0  0  0  0  0  0  0  0  0  0  0
    1.4089    0.5780    8.8795 C   0  0  0  0  0  0  0  0  0  0  0  0
    1.0916   -1.8315    9.0495 C   0  0  0  0  0  0  0  0  0  0  0  0
    2.0843   -0.7069    9.2783 C   0  0  0  0  0  0  0  0  0  0  0  0
    4.2091    5.5058   11.9995 C   0  0  0  0  0  0  0  0  0  0  0  0
    3.3293    6.7232   11.9012 C   0  0  0  0  0  0  0  0  0  0  0  0
    4.1025    8.0180   12.0649 C   0  0  0  0  0  0  0  0  0  0  0  0
    4.3535    8.3015   13.5500 C   0  0  0  0  0  0  0  0  0  0  0  0
    3.0588    8.7694   14.1285 C   0  0  0  0  0  0  0  0  0  0  0  0
    3.1387    8.5976   15.5285 O   0  0  0  0  0  0  0  0  0  0  0  0
    1.9283    7.9897   13.5468 C   0  0  0  0  0  0  0  0  0  0  0  0
    2.3155    6.6227   13.0290 C   0  0  0  0  0  0  0  0  0  0  0  0
    2.8665    7.6824   15.7908 H   0  0  0  0  0  0  0  0  0  0  0  0
 27 28  1  0  0  0
 28 26  1  0  0  0
 26 25  1  0  0  0
 25 23  1  0  0  0
 23  1  1  0  0  0
  1  2  2  0  0  0
  2  3  1  0  0  0
  3  4  2  0  0  0
  4  5  1  0  0  0
  5  6  2  0  0  0
  6  7  1  0  0  0
  7 29  1  0  0  0
 29 30  1  0  0  0
 30 31  1  0  0  0
 31 32  1  0  0  0
 32 33  1  0  0  0
 33 34  1  0  0  0
 33 35  1  0  0  0
 35 36  1  0  0  0
  7  8  1  0  0  0
  8  9  2  0  0  0
  5 10  1  0  0  0
 10 11  2  0  0  0
 11 12  1  0  0  0
 12 13  2  0  0  0
 13 14  1  0  0  0
 14 15  2  0  0  0
 13 16  1  0  0  0
 16 17  1  0  0  0
 17 18  1  0  0  0
 18 19  1  0  0  0
 19 20  1  0  0  0
 20 21  1  0  0  0
  9  1  1  0  0  0
 15 10  1  0  0  0
 21 16  1  0  0  0
  8  4  1  0  0  0
 36 30  1  0  0  0
 23 24  1  0  0  0
 34 37  1  0  0  0
 19 22  1  0  0  0
M  END
> <minimizedAffinity>
-7.29178

> <CNNscore>
0.2337176055

> <CNNaffinity>
6.7135787010

> <CNN_VS>
1.5690815449

> <CNNaffinity_variance>
0.2481745929

$$$$
[H]O[C@]1([H])C([H])([H])C([H])([H])[C@]([H])(C([H])([H])n2nc(-c3c([H])nc(N4C([H])([H])C([H])([H])N([H])C([H])([H])C4([H])[H])c([H])c3[H])c3c([H])nc(N([H])C([H])([H])C([H])([H])C([H])([H])C([H])([H])[H])nc32)C([H])([H])C1([H])[H]


 37 41  0  0  0  0  0  0  0  0999 V2000
    4.3787    1.6714   20.0823 C   0  0  0  0  0  0  0  0  0  0  0  0
    3.7175    1.0480   19.0941 N   0  0  0  0  0  0  0  0  0  0  0  0
    3.6132    1.5788   17.8554 C   0  0  0  0  0  0  0  0  0  0  0  0
    4.1890    2.7956   17.5553 C   0  0  0  0  0  0  0  0  0  0  0  0
    4.2863    3.6142   16.4551 C   0  0  0  0  0  0  0  0  0  0  0  0
    4.9975    4.6825   16.8365 N   0  0  0  0  0  0  0  0  0  0  0  0
    5.3683    4.6183   18.1002 N   0  0  0  0  0  0  0  0  0  0  0  0
    4.8752    3.4464   18.5745 C   0  0  0  0  0  0  0  0  0  0  0  0
    4.9384    2.8560   19.7882 N   0  0  0  0  0  0  0  0  0  0  0  0
    3.6986    3.3175   15.1541 C   0  0  0  0  0  0  0  0  0  0  0  0
    2.9837    2.1506   14.9230 C   0  0  0  0  0  0  0  0  0  0  0  0
    2.4178    1.8697   13.6838 C   0  0  0  0  0  0  0  0  0  0  0  0
    2.5791    2.7838   12.6668 C   0  0  0  0  0  0  0  0  0  0  0  0
    3.2692    3.9149   12.8823 N   0  0  0  0  0  0  0  0  0  0  0  0
    3.8119    4.1768   14.0832 C   0  0  0  0  0  0  0  0  0  0  0  0
    2.0210    2.5267   11.4065 N   0  0  0  0  0  0  0  0  0  0  0  0
    0.9449    3.3422   10.9114 C   0  0  0  0  0  0  0  0  0  0  0  0
    0.2330    2.6261    9.7896 C   0  0  0  0  0  0  0  0  0  0  0  0
    0.1340    1.2310   10.1761 N   0  0  0  0  0  0  0  0  0  0  0  0
    1.4344    0.5795   10.0747 C   0  0  0  0  0  0  0  0  0  0  0  0
    2.5409    1.4375   10.6121 C   0  0  0  0  0  0  0  0  0  0  0  0
   -0.2242    1.1885   11.1696 H   0  0  0  0  0  0  0  0  0  0  0  0
    4.4778    1.1018   21.3767 N   0  0  0  0  0  0  0  0  0  0  0  0
    5.1176    0.3131   21.5619 H   0  0  0  0  0  0  0  0  0  0  0  0
    3.6779    1.6238   22.4526 C   0  0  0  0  0  0  0  0  0  0  0  0
    4.4199    2.6601   23.2498 C   0  0  0  0  0  0  0  0  0  0  0  0
    4.2802    5.0180   22.6533 C   0  0  0  0  0  0  0  0  0  0  0  0
    3.5912    3.9051   23.4211 C   0  0  0  0  0  0  0  0  0  0  0  0
    6.1332    5.5819   18.8267 C   0  0  0  0  0  0  0  0  0  0  0  0
    5.7438    7.0150   18.5816 C   0  0  0  0  0  0  0  0  0  0  0  0
    6.6786    7.9988   19.2595 C   0  0  0  0  0  0  0  0  0  0  0  0
    6.3163    8.1388   20.7421 C   0  0  0  0  0  0  0  0  0  0  0  0
    5.0749    8.9659   20.8104 C   0  0  0  0  0  0  0  0  0  0  0  0
    4.4825    8.7296   22.0711 O   0  0  0  0  0  0  0  0  0  0  0  0
    4.1537    8.5968   19.6971 C   0  0  0  0  0  0  0  0  0  0  0  0
    4.3514    7.1959   19.1631 C   0  0  0  0  0  0  0  0  0  0  0  0
    3.8911    7.9358   22.0432 H   0  0  0  0  0  0  0  0  0  0  0  0
 27 28  1  0  0  0
 28 26  1  0  0  0
 26 25  1  0  0  0
 25 23  1  0  0  0
 23  1  1  0  0  0
  1  2  2  0  0  0
  2  3  1  0  0  0
  3  4  2  0  0  0
  4  5  1  0  0  0
  5  6  2  0  0  0
  6  7  1  0  0  0
  7 29  1  0  0  0
 29 30  1  0  0  0
 30 31  1  0  0  0
 31 32  1  0  0  0
 32 33  1  0  0  0
 33 34  1  0  0  0
 33 35  1  0  0  0
 35 36  1  0  0  0
  7  8  1  0  0  0
  8  9  2  0  0  0
  5 10  1  0  0  0
 10 11  2  0  0  0
 11 12  1  0  0  0
 12 13  2  0  0  0
 13 14  1  0  0  0
 14 15  2  0  0  0
 13 16  1  0  0  0
 16 17  1  0  0  0
 17 18  1  0  0  0
 18 19  1  0  0  0
 19 20  1  0  0  0
 20 21  1  0  0  0
  9  1  1  0  0  0
 15 10  1  0  0  0
 21 16  1  0  0  0
  8  4  1  0  0  0
 36 30  1  0  0  0
 23 24  1  0  0  0
 34 37  1  0  0  0
 19 22  1  0  0  0
M  END
> <minimizedAffinity>
-8.96786

> <CNNscore>
0.2271072417

> <CNNaffinity>
6.8698244095

> <CNN_VS>
1.5601868629

> <CNNaffinity_variance>
0.5743153095

$$$$
[H]O[C@]1([H])C([H])([H])C([H])([H])[C@]([H])(C([H])([H])n2nc(-c3c([H])nc(N4C([H])([H])C([H])([H])N([H])C([H])([H])C4([H])[H])c([H])c3[H])c3c([H])nc(N([H])C([H])([H])C([H])([H])C([H])([H])C([H])([H])[H])nc32)C([H])([H])C1([H])[H]


 37 41  0  0  0  0  0  0  0  0999 V2000
    3.2002    2.8243   16.4616 C   0  0  0  0  0  0  0  0  0  0  0  0
    3.3057    1.6731   15.7791 N   0  0  0  0  0  0  0  0  0  0  0  0
    2.9637    1.5792   14.4749 C   0  0  0  0  0  0  0  0  0  0  0  0
    2.4875    2.6754   13.7866 C   0  0  0  0  0  0  0  0  0  0  0  0
    2.0571    2.9478   12.5097 C   0  0  0  0  0  0  0  0  0  0  0  0
    1.7163    4.2424   12.4903 N   0  0  0  0  0  0  0  0  0  0  0  0
    1.8933    4.8295   13.6575 N   0  0  0  0  0  0  0  0  0  0  0  0
    2.3757    3.8709   14.4879 C   0  0  0  0  0  0  0  0  0  0  0  0
    2.7362    3.8905   15.7899 N   0  0  0  0  0  0  0  0  0  0  0  0
    2.0022    1.9662   11.4329 C   0  0  0  0  0  0  0  0  0  0  0  0
    0.8205    1.3264   11.0854 C   0  0  0  0  0  0  0  0  0  0  0  0
    0.7664    0.3942   10.0545 C   0  0  0  0  0  0  0  0  0  0  0  0
    1.9248    0.1076    9.3678 C   0  0  0  0  0  0  0  0  0  0  0  0
    3.0719    0.7222    9.6978 N   0  0  0  0  0  0  0  0  0  0  0  0
    3.1135    1.6213   10.6954 C   0  0  0  0  0  0  0  0  0  0  0  0
    1.9006   -0.8291    8.3247 N   0  0  0  0  0  0  0  0  0  0  0  0
    0.6732   -1.4923    7.9758 C   0  0  0  0  0  0  0  0  0  0  0  0
    0.9720   -2.7334    7.1705 C   0  0  0  0  0  0  0  0  0  0  0  0
    2.1339   -3.3581    7.7747 N   0  0  0  0  0  0  0  0  0  0  0  0
    3.3389   -2.5944    7.4736 C   0  0  0  0  0  0  0  0  0  0  0  0
    3.1197   -1.1164    7.6045 C   0  0  0  0  0  0  0  0  0  0  0  0
    1.9776   -3.4054    8.8190 H   0  0  0  0  0  0  0  0  0  0  0  0
    3.5619    2.9059   17.8299 N   0  0  0  0  0  0  0  0  0  0  0  0
    3.3492    3.7493   18.3858 H   0  0  0  0  0  0  0  0  0  0  0  0
    4.2365    1.8023   18.4599 C   0  0  0  0  0  0  0  0  0  0  0  0
    4.3881    2.0108   19.9410 C   0  0  0  0  0  0  0  0  0  0  0  0
    3.0890    0.6498   21.4886 C   0  0  0  0  0  0  0  0  0  0  0  0
    4.3697    0.6972   20.6760 C   0  0  0  0  0  0  0  0  0  0  0  0
    1.6329    6.1953   13.9864 C   0  0  0  0  0  0  0  0  0  0  0  0
    2.7259    7.1580   13.6064 C   0  0  0  0  0  0  0  0  0  0  0  0
    3.9082    7.1041   14.5552 C   0  0  0  0  0  0  0  0  0  0  0  0
    3.6111    7.9180   15.8193 C   0  0  0  0  0  0  0  0  0  0  0  0
    3.7230    9.3593   15.4451 C   0  0  0  0  0  0  0  0  0  0  0  0
    3.0280   10.1022   16.4254 O   0  0  0  0  0  0  0  0  0  0  0  0
    3.1501    9.5797   14.0858 C   0  0  0  0  0  0  0  0  0  0  0  0
    2.1228    8.5516   13.6683 C   0  0  0  0  0  0  0  0  0  0  0  0
    2.0656   10.1719   16.2032 H   0  0  0  0  0  0  0  0  0  0  0  0
 27 28  1  0  0  0
 28 26  1  0  0  0
 26 25  1  0  0  0
 25 23  1  0  0  0
 23  1  1  0  0  0
  1  2  2  0  0  0
  2  3  1  0  0  0
  3  4  2  0  0  0
  4  5  1  0  0  0
  5  6  2  0  0  0
  6  7  1  0  0  0
  7 29  1  0  0  0
 29 30  1  0  0  0
 30 31  1  0  0  0
 31 32  1  0  0  0
 32 33  1  0  0  0
 33 34  1  0  0  0
 33 35  1  0  0  0
 35 36  1  0  0  0
  7  8  1  0  0  0
  8  9  2  0  0  0
  5 10  1  0  0  0
 10 11  2  0  0  0
 11 12  1  0  0  0
 12 13  2  0  0  0
 13 14  1  0  0  0
 14 15  2  0  0  0
 13 16  1  0  0  0
 16 17  1  0  0  0
 17 18  1  0  0  0
 18 19  1  0  0  0
 19 20  1  0  0  0
 20 21  1  0  0  0
  9  1  1  0  0  0
 15 10  1  0  0  0
 21 16  1  0  0  0
  8  4  1  0  0  0
 36 30  1  0  0  0
 23 24  1  0  0  0
 34 37  1  0  0  0
 19 22  1  0  0  0
M  END
> <minimizedAffinity>
-6.58638

> <CNNscore>
0.2226610184

> <CNNaffinity>
6.5604872704

> <CNN_VS>
1.4607647657

> <CNNaffinity_variance>
0.2816931307

$$$$
[H]O[C@]1([H])C([H])([H])C([H])([H])[C@]([H])(C([H])([H])n2nc(-c3c([H])nc(N4C([H])([H])C([H])([H])N([H])C([H])([H])C4([H])[H])c([H])c3[H])c3c([H])nc(N([H])C([H])([H])C([H])([H])C([H])([H])C([H])([H])[H])nc32)C([H])([H])C1([H])[H]


 37 41  0  0  0  0  0  0  0  0999 V2000
    3.5747    4.1169   10.8615 C   0  0  0  0  0  0  0  0  0  0  0  0
    4.5388    4.4611   11.7300 N   0  0  0  0  0  0  0  0  0  0  0  0
    4.2567    4.9025   12.9760 C   0  0  0  0  0  0  0  0  0  0  0  0
    2.9521    5.0176   13.4084 C   0  0  0  0  0  0  0  0  0  0  0  0
    2.3079    5.4138   14.5565 C   0  0  0  0  0  0  0  0  0  0  0  0
    0.9961    5.2883   14.3203 N   0  0  0  0  0  0  0  0  0  0  0  0
    0.7413    4.8408   13.1064 N   0  0  0  0  0  0  0  0  0  0  0  0
    1.9488    4.6628   12.5135 C   0  0  0  0  0  0  0  0  0  0  0  0
    2.3051    4.2298   11.2842 N   0  0  0  0  0  0  0  0  0  0  0  0
    2.9851    5.8767   15.7620 C   0  0  0  0  0  0  0  0  0  0  0  0
    3.7667    7.0235   15.7677 C   0  0  0  0  0  0  0  0  0  0  0  0
    4.4082    7.4687   16.9188 C   0  0  0  0  0  0  0  0  0  0  0  0
    4.2548    6.7418   18.0780 C   0  0  0  0  0  0  0  0  0  0  0  0
    3.5003    5.6314   18.0808 N   0  0  0  0  0  0  0  0  0  0  0  0
    2.8847    5.2098   16.9634 C   0  0  0  0  0  0  0  0  0  0  0  0
    4.8909    7.1659   19.2535 N   0  0  0  0  0  0  0  0  0  0  0  0
    5.1490    6.2304   20.3147 C   0  0  0  0  0  0  0  0  0  0  0  0
    5.4125    6.9743   21.6013 C   0  0  0  0  0  0  0  0  0  0  0  0
    4.4709    8.0773   21.6506 N   0  0  0  0  0  0  0  0  0  0  0  0
    4.8525    9.1173   20.7026 C   0  0  0  0  0  0  0  0  0  0  0  0
    5.2857    8.5497   19.3837 C   0  0  0  0  0  0  0  0  0  0  0  0
    3.5102    7.7015   21.4202 H   0  0  0  0  0  0  0  0  0  0  0  0
    3.8873    3.6569    9.5575 N   0  0  0  0  0  0  0  0  0  0  0  0
    3.5317    2.7502    9.2151 H   0  0  0  0  0  0  0  0  0  0  0  0
    4.7121    4.4585    8.6933 C   0  0  0  0  0  0  0  0  0  0  0  0
    3.9560    5.6260    8.1229 C   0  0  0  0  0  0  0  0  0  0  0  0
    5.6777    7.1009    9.0148 C   0  0  0  0  0  0  0  0  0  0  0  0
    4.1799    6.8676    8.9440 C   0  0  0  0  0  0  0  0  0  0  0  0
   -0.5414    4.5918   12.5285 C   0  0  0  0  0  0  0  0  0  0  0  0
   -1.0959    5.7236   11.7054 C   0  0  0  0  0  0  0  0  0  0  0  0
   -2.4733    6.1613   12.1663 C   0  0  0  0  0  0  0  0  0  0  0  0
   -3.5435    5.2147   11.6120 C   0  0  0  0  0  0  0  0  0  0  0  0
   -3.7059    5.5418   10.1640 C   0  0  0  0  0  0  0  0  0  0  0  0
   -4.3162    4.4264    9.5481 O   0  0  0  0  0  0  0  0  0  0  0  0
   -2.3772    5.8414    9.5563 C   0  0  0  0  0  0  0  0  0  0  0  0
   -1.2060    5.2137   10.2780 C   0  0  0  0  0  0  0  0  0  0  0  0
   -3.6395    3.7595    9.2691 H   0  0  0  0  0  0  0  0  0  0  0  0
 27 28  1  0  0  0
 28 26  1  0  0  0
 26 25  1  0  0  0
 25 23  1  0  0  0
 23  1  1  0  0  0
  1  2  2  0  0  0
  2  3  1  0  0  0
  3  4  2  0  0  0
  4  5  1  0  0  0
  5  6  2  0  0  0
  6  7  1  0  0  0
  7 29  1  0  0  0
 29 30  1  0  0  0
 30 31  1  0  0  0
 31 32  1  0  0  0
 32 33  1  0  0  0
 33 34  1  0  0  0
 33 35  1  0  0  0
 35 36  1  0  0  0
  7  8  1  0  0  0
  8  9  2  0  0  0
  5 10  1  0  0  0
 10 11  2  0  0  0
 11 12  1  0  0  0
 12 13  2  0  0  0
 13 14  1  0  0  0
 14 15  2  0  0  0
 13 16  1  0  0  0
 16 17  1  0  0  0
 17 18  1  0  0  0
 18 19  1  0  0  0
 19 20  1  0  0  0
 20 21  1  0  0  0
  9  1  1  0  0  0
 15 10  1  0  0  0
 21 16  1  0  0  0
  8  4  1  0  0  0
 36 30  1  0  0  0
 23 24  1  0  0  0
 34 37  1  0  0  0
 19 22  1  0  0  0
M  END
> <minimizedAffinity>
-6.26073

> <CNNscore>
0.2040744424

> <CNNaffinity>
6.0495223999

> <CNN_VS>
1.2345528603

> <CNNaffinity_variance>
0.8261198997

$$$$
[H]O[C@]1([H])C([H])([H])C([H])([H])[C@]([H])(C([H])([H])n2nc(-c3c([H])nc(N4C([H])([H])C([H])([H])N([H])C([H])([H])C4([H])[H])c([H])c3[H])c3c([H])nc(N([H])C([H])([H])C([H])([H])C([H])([H])C([H])([H])[H])nc32)C([H])([H])C1([H])[H]


 37 41  0  0  0  0  0  0  0  0999 V2000
    4.1317    1.9281   18.8656 C   0  0  0  0  0  0  0  0  0  0  0  0
    3.5395    1.4917   17.7426 N   0  0  0  0  0  0  0  0  0  0  0  0
    3.3815    2.2860   16.6605 C   0  0  0  0  0  0  0  0  0  0  0  0
    3.8280    3.5909   16.6683 C   0  0  0  0  0  0  0  0  0  0  0  0
    3.8406    4.6512   15.7933 C   0  0  0  0  0  0  0  0  0  0  0  0
    4.4367    5.6656   16.4321 N   0  0  0  0  0  0  0  0  0  0  0  0
    4.8112    5.3432   17.6545 N   0  0  0  0  0  0  0  0  0  0  0  0
    4.4422    4.0490   17.8286 C   0  0  0  0  0  0  0  0  0  0  0  0
    4.5656    3.1988   18.8714 N   0  0  0  0  0  0  0  0  0  0  0  0
    3.2877    4.6117   14.4446 C   0  0  0  0  0  0  0  0  0  0  0  0
    3.9803    4.0405   13.3863 C   0  0  0  0  0  0  0  0  0  0  0  0
    3.4510    3.9973   12.1007 C   0  0  0  0  0  0  0  0  0  0  0  0
    2.2040    4.5401   11.8863 C   0  0  0  0  0  0  0  0  0  0  0  0
    1.5275    5.0945   12.9049 N   0  0  0  0  0  0  0  0  0  0  0  0
    2.0478    5.1311   14.1431 C   0  0  0  0  0  0  0  0  0  0  0  0
    1.6457    4.5122   10.6004 N   0  0  0  0  0  0  0  0  0  0  0  0
    2.4732    4.7422    9.4469 C   0  0  0  0  0  0  0  0  0  0  0  0
    1.6117    5.1035    8.2615 C   0  0  0  0  0  0  0  0  0  0  0  0
    0.5708    5.9880    8.7511 N   0  0  0  0  0  0  0  0  0  0  0  0
   -0.4108    5.2407    9.5282 C   0  0  0  0  0  0  0  0  0  0  0  0
    0.2336    4.2471   10.4485 C   0  0  0  0  0  0  0  0  0  0  0  0
    1.0247    6.7332    9.3477 H   0  0  0  0  0  0  0  0  0  0  0  0
    4.2885    1.0825   19.9927 N   0  0  0  0  0  0  0  0  0  0  0  0
    4.6024    0.1051   19.8834 H   0  0  0  0  0  0  0  0  0  0  0  0
    4.0073    1.5857   21.3108 C   0  0  0  0  0  0  0  0  0  0  0  0
    5.1777    1.4112   22.2380 C   0  0  0  0  0  0  0  0  0  0  0  0
    7.1505    0.2724   21.3740 C   0  0  0  0  0  0  0  0  0  0  0  0
    6.4787    1.6261   21.5118 C   0  0  0  0  0  0  0  0  0  0  0  0
    5.4715    6.1806   18.6055 C   0  0  0  0  0  0  0  0  0  0  0  0
    4.5622    6.8416   19.6065 C   0  0  0  0  0  0  0  0  0  0  0  0
    3.9331    8.1148   19.0731 C   0  0  0  0  0  0  0  0  0  0  0  0
    4.9224    9.2803   19.1804 C   0  0  0  0  0  0  0  0  0  0  0  0
    4.9764    9.6740   20.6199 C   0  0  0  0  0  0  0  0  0  0  0  0
    6.1735   10.3995   20.8115 O   0  0  0  0  0  0  0  0  0  0  0  0
    4.9309    8.4589   21.4835 C   0  0  0  0  0  0  0  0  0  0  0  0
    5.4202    7.1967   20.8096 C   0  0  0  0  0  0  0  0  0  0  0  0
    6.9315    9.7916   21.0020 H   0  0  0  0  0  0  0  0  0  0  0  0
 27 28  1  0  0  0
 28 26  1  0  0  0
 26 25  1  0  0  0
 25 23  1  0  0  0
 23  1  1  0  0  0
  1  2  2  0  0  0
  2  3  1  0  0  0
  3  4  2  0  0  0
  4  5  1  0  0  0
  5  6  2  0  0  0
  6  7  1  0  0  0
  7 29  1  0  0  0
 29 30  1  0  0  0
 30 31  1  0  0  0
 31 32  1  0  0  0
 32 33  1  0  0  0
 33 34  1  0  0  0
 33 35  1  0  0  0
 35 36  1  0  0  0
  7  8  1  0  0  0
  8  9  2  0  0  0
  5 10  1  0  0  0
 10 11  2  0  0  0
 11 12  1  0  0  0
 12 13  2  0  0  0
 13 14  1  0  0  0
 14 15  2  0  0  0
 13 16  1  0  0  0
 16 17  1  0  0  0
 17 18  1  0  0  0
 18 19  1  0  0  0
 19 20  1  0  0  0
 20 21  1  0  0  0
  9  1  1  0  0  0
 15 10  1  0  0  0
 21 16  1  0  0  0
  8  4  1  0  0  0
 36 30  1  0  0  0
 23 24  1  0  0  0
 34 37  1  0  0  0
 19 22  1  0  0  0
M  END
> <minimizedAffinity>
-7.46494

> <CNNscore>
0.1807004958

> <CNNaffinity>
6.4762139320

> <CNN_VS>
1.1702550650

> <CNNaffinity_variance>
0.5511636734

$$$$
[H]O[C@]1([H])C([H])([H])C([H])([H])[C@]([H])(C([H])([H])n2nc(-c3c([H])nc(N4C([H])([H])C([H])([H])N([H])C([H])([H])C4([H])[H])c([H])c3[H])c3c([H])nc(N([H])C([H])([H])C([H])([H])C([H])([H])C([H])([H])[H])nc32)C([H])([H])C1([H])[H]


 37 41  0  0  0  0  0  0  0  0999 V2000
    4.4643    1.8125   19.6318 C   0  0  0  0  0  0  0  0  0  0  0  0
    4.2284    1.3568   18.3913 N   0  0  0  0  0  0  0  0  0  0  0  0
    3.8747    2.1811   17.3802 C   0  0  0  0  0  0  0  0  0  0  0  0
    3.7410    3.5383   17.5863 C   0  0  0  0  0  0  0  0  0  0  0  0
    3.4100    4.6388   16.8319 C   0  0  0  0  0  0  0  0  0  0  0  0
    3.4635    5.6944   17.6537 N   0  0  0  0  0  0  0  0  0  0  0  0
    3.8040    5.3615   18.8832 N   0  0  0  0  0  0  0  0  0  0  0  0
    3.9839    4.0166   18.8692 C   0  0  0  0  0  0  0  0  0  0  0  0
    4.3334    3.1340   19.8307 N   0  0  0  0  0  0  0  0  0  0  0  0
    3.0707    4.5931   15.4146 C   0  0  0  0  0  0  0  0  0  0  0  0
    3.8958    3.9771   14.4841 C   0  0  0  0  0  0  0  0  0  0  0  0
    3.5698    3.9281   13.1328 C   0  0  0  0  0  0  0  0  0  0  0  0
    2.3925    4.5109   12.7205 C   0  0  0  0  0  0  0  0  0  0  0  0
    1.5888    5.1087   13.6144 N   0  0  0  0  0  0  0  0  0  0  0  0
    1.9129    5.1505   14.9177 C   0  0  0  0  0  0  0  0  0  0  0  0
    2.0386    4.4782   11.3641 N   0  0  0  0  0  0  0  0  0  0  0  0
    2.3275    5.6011   10.5134 C   0  0  0  0  0  0  0  0  0  0  0  0
    1.4833    5.5288    9.2644 C   0  0  0  0  0  0  0  0  0  0  0  0
    0.1622    5.0900    9.6736 N   0  0  0  0  0  0  0  0  0  0  0  0
    0.1790    3.6740   10.0208 C   0  0  0  0  0  0  0  0  0  0  0  0
    1.3849    3.3045   10.8324 C   0  0  0  0  0  0  0  0  0  0  0  0
   -0.1356    5.6708   10.5050 H   0  0  0  0  0  0  0  0  0  0  0  0
    4.8332    0.9344   20.6819 N   0  0  0  0  0  0  0  0  0  0  0  0
    5.8254    0.7226   20.8727 H   0  0  0  0  0  0  0  0  0  0  0  0
    3.8165    0.3248   21.4970 C   0  0  0  0  0  0  0  0  0  0  0  0
    3.3873    1.2245   22.6223 C   0  0  0  0  0  0  0  0  0  0  0  0
    4.2300    3.3300   23.5123 C   0  0  0  0  0  0  0  0  0  0  0  0
    4.5768    1.8709   23.2806 C   0  0  0  0  0  0  0  0  0  0  0  0
    3.9548    6.2338   20.0047 C   0  0  0  0  0  0  0  0  0  0  0  0
    5.2232    7.0442   20.0107 C   0  0  0  0  0  0  0  0  0  0  0  0
    6.4386    6.2247   20.4012 C   0  0  0  0  0  0  0  0  0  0  0  0
    6.5099    6.0749   21.9248 C   0  0  0  0  0  0  0  0  0  0  0  0
    6.9719    7.3862   22.4697 C   0  0  0  0  0  0  0  0  0  0  0  0
    6.6136    7.4222   23.8358 O   0  0  0  0  0  0  0  0  0  0  0  0
    6.3417    8.5049   21.7108 C   0  0  0  0  0  0  0  0  0  0  0  0
    5.0344    8.1451   21.0414 C   0  0  0  0  0  0  0  0  0  0  0  0
    5.6891    7.7573   23.9526 H   0  0  0  0  0  0  0  0  0  0  0  0
 27 28  1  0  0  0
 28 26  1  0  0  0
 26 25  1  0  0  0
 25 23  1  0  0  0
 23  1  1  0  0  0
  1  2  2  0  0  0
  2  3  1  0  0  0
  3  4  2  0  0  0
  4  5  1  0  0  0
  5  6  2  0  0  0
  6  7  1  0  0  0
  7 29  1  0  0  0
 29 30  1  0  0  0
 30 31  1  0  0  0
 31 32  1  0  0  0
 32 33  1  0  0  0
 33 34  1  0  0  0
 33 35  1  0  0  0
 35 36  1  0  0  0
  7  8  1  0  0  0
  8  9  2  0  0  0
  5 10  1  0  0  0
 10 11  2  0  0  0
 11 12  1  0  0  0
 12 13  2  0  0  0
 13 14  1  0  0  0
 14 15  2  0  0  0
 13 16  1  0  0  0
 16 17  1  0  0  0
 17 18  1  0  0  0
 18 19  1  0  0  0
 19 20  1  0  0  0
 20 21  1  0  0  0
  9  1  1  0  0  0
 15 10  1  0  0  0
 21 16  1  0  0  0
  8  4  1  0  0  0
 36 30  1  0  0  0
 23 24  1  0  0  0
 34 37  1  0  0  0
 19 22  1  0  0  0
M  END
> <minimizedAffinity>
-8.15122

> <CNNscore>
0.1759378016

> <CNNaffinity>
6.8327279091

> <CNN_VS>
1.2021350861

> <CNNaffinity_variance>
0.4345746934

$$$$
[H]O[C@]1([H])C([H])([H])C([H])([H])[C@]([H])(C([H])([H])n2nc(-c3c([H])nc(N4C([H])([H])C([H])([H])N([H])C([H])([H])C4([H])[H])c([H])c3[H])c3c([H])nc(N([H])C([H])([H])C([H])([H])C([H])([H])C([H])([H])[H])nc32)C([H])([H])C1([H])[H]


 37 41  0  0  0  0  0  0  0  0999 V2000
    1.4920    2.0313   12.8036 C   0  0  0  0  0  0  0  0  0  0  0  0
    1.4450    1.3898   13.9820 N   0  0  0  0  0  0  0  0  0  0  0  0
    2.1127    1.8373   15.0687 C   0  0  0  0  0  0  0  0  0  0  0  0
    2.8769    2.9838   15.0082 C   0  0  0  0  0  0  0  0  0  0  0  0
    3.6631    3.7110   15.8703 C   0  0  0  0  0  0  0  0  0  0  0  0
    4.1401    4.7471   15.1692 N   0  0  0  0  0  0  0  0  0  0  0  0
    3.7227    4.7465   13.9185 N   0  0  0  0  0  0  0  0  0  0  0  0
    2.9297    3.6529   13.7904 C   0  0  0  0  0  0  0  0  0  0  0  0
    2.2367    3.1472   12.7466 N   0  0  0  0  0  0  0  0  0  0  0  0
    3.8949    3.3608   17.2666 C   0  0  0  0  0  0  0  0  0  0  0  0
    4.3389    2.1002   17.6408 C   0  0  0  0  0  0  0  0  0  0  0  0
    4.5657    1.7674   18.9722 C   0  0  0  0  0  0  0  0  0  0  0  0
    4.3395    2.7249   19.9354 C   0  0  0  0  0  0  0  0  0  0  0  0
    3.9100    3.9466   19.5815 N   0  0  0  0  0  0  0  0  0  0  0  0
    3.6940    4.2581   18.2925 C   0  0  0  0  0  0  0  0  0  0  0  0
    4.5583    2.4173   21.2858 N   0  0  0  0  0  0  0  0  0  0  0  0
    3.8218    3.1034   22.3129 C   0  0  0  0  0  0  0  0  0  0  0  0
    4.5218    2.9423   23.6404 C   0  0  0  0  0  0  0  0  0  0  0  0
    5.9444    3.0699   23.3848 N   0  0  0  0  0  0  0  0  0  0  0  0
    6.4514    1.8795   22.7127 C   0  0  0  0  0  0  0  0  0  0  0  0
    5.5275    1.4031   21.6316 C   0  0  0  0  0  0  0  0  0  0  0  0
    6.0962    3.9264   22.7841 H   0  0  0  0  0  0  0  0  0  0  0  0
    0.7868    1.5480   11.6727 N   0  0  0  0  0  0  0  0  0  0  0  0
   -0.1120    1.0516   11.7799 H   0  0  0  0  0  0  0  0  0  0  0  0
    1.3251    1.7471   10.3535 C   0  0  0  0  0  0  0  0  0  0  0  0
    0.2995    2.3103    9.4096 C   0  0  0  0  0  0  0  0  0  0  0  0
    1.6914    4.3081    9.4900 C   0  0  0  0  0  0  0  0  0  0  0  0
    0.8874    3.4108    8.5674 C   0  0  0  0  0  0  0  0  0  0  0  0
    4.0371    5.6999   12.9018 C   0  0  0  0  0  0  0  0  0  0  0  0
    3.3439    7.0285   13.0431 C   0  0  0  0  0  0  0  0  0  0  0  0
    1.9901    6.9126   13.7176 C   0  0  0  0  0  0  0  0  0  0  0  0
    0.9327    6.4519   12.7085 C   0  0  0  0  0  0  0  0  0  0  0  0
    0.6209    7.6251   11.8388 C   0  0  0  0  0  0  0  0  0  0  0  0
    0.0252    7.1259   10.6590 O   0  0  0  0  0  0  0  0  0  0  0  0
    1.8689    8.3852   11.5403 C   0  0  0  0  0  0  0  0  0  0  0  0
    3.1359    7.5655   11.6366 C   0  0  0  0  0  0  0  0  0  0  0  0
    0.7126    6.8779    9.9908 H   0  0  0  0  0  0  0  0  0  0  0  0
 27 28  1  0  0  0
 28 26  1  0  0  0
 26 25  1  0  0  0
 25 23  1  0  0  0
 23  1  1  0  0  0
  1  2  2  0  0  0
  2  3  1  0  0  0
  3  4  2  0  0  0
  4  5  1  0  0  0
  5  6  2  0  0  0
  6  7  1  0  0  0
  7 29  1  0  0  0
 29 30  1  0  0  0
 30 31  1  0  0  0
 31 32  1  0  0  0
 32 33  1  0  0  0
 33 34  1  0  0  0
 33 35  1  0  0  0
 35 36  1  0  0  0
  7  8  1  0  0  0
  8  9  2  0  0  0
  5 10  1  0  0  0
 10 11  2  0  0  0
 11 12  1  0  0  0
 12 13  2  0  0  0
 13 14  1  0  0  0
 14 15  2  0  0  0
 13 16  1  0  0  0
 16 17  1  0  0  0
 17 18  1  0  0  0
 18 19  1  0  0  0
 19 20  1  0  0  0
 20 21  1  0  0  0
  9  1  1  0  0  0
 15 10  1  0  0  0
 21 16  1  0  0  0
  8  4  1  0  0  0
 36 30  1  0  0  0
 23 24  1  0  0  0
 34 37  1  0  0  0
 19 22  1  0  0  0
M  END
> <minimizedAffinity>
-6.89124

> <CNNscore>
0.1405036002

> <CNNaffinity>
6.4214797020

> <CNN_VS>
0.9022409916

> <CNNaffinity_variance>
0.1627621800

$$$$
[H]c1oc([H])c(-c2nn(C3([H])C([H])([H])C([H])([H])C([H])([H])C([H])([H])C3([H])[H])c3nc(N([H])C([H])([H])C([H])([H])C([H])([H])[H])nc([H])c23)c1[H]


 25 28  0  0  0  0  0  0  0  0999 V2000
    3.0774    0.5303   18.6536 C   0  0  0  0  0  0  0  0  0  0  0  0
    2.5765   -0.1584   17.5998 N   0  0  0  0  0  0  0  0  0  0  0  0
    2.4768    0.4218   16.3727 C   0  0  0  0  0  0  0  0  0  0  0  0
    2.8821    1.7234   16.1692 C   0  0  0  0  0  0  0  0  0  0  0  0
    2.9321    2.6071   15.1131 C   0  0  0  0  0  0  0  0  0  0  0  0
    3.4455    3.7747   15.5345 N   0  0  0  0  0  0  0  0  0  0  0  0
    3.7247    3.6534   16.8418 N   0  0  0  0  0  0  0  0  0  0  0  0
    3.3881    2.4112   17.2453 C   0  0  0  0  0  0  0  0  0  0  0  0
    3.4704    1.7984   18.4487 N   0  0  0  0  0  0  0  0  0  0  0  0
    4.2951    4.6881   17.6710 C   0  0  0  0  0  0  0  0  0  0  0  0
    5.0670    5.7264   16.9061 C   0  0  0  0  0  0  0  0  0  0  0  0
    6.2060    6.2990   17.7323 C   0  0  0  0  0  0  0  0  0  0  0  0
    5.8502    6.3536   19.2003 C   0  0  0  0  0  0  0  0  0  0  0  0
    5.5370    4.9808   19.7526 C   0  0  0  0  0  0  0  0  0  0  0  0
    5.2639    4.0292   18.6302 C   0  0  0  0  0  0  0  0  0  0  0  0
    2.4884    2.2995   13.7467 C   0  0  0  0  0  0  0  0  0  0  0  0
    3.1873    2.3062   12.5721 C   0  0  0  0  0  0  0  0  0  0  0  0
    2.3116    1.9408   11.5556 C   0  0  0  0  0  0  0  0  0  0  0  0
    1.1484    1.7295   12.1148 O   0  0  0  0  0  0  0  0  0  0  0  0
    1.2013    1.9289   13.4121 C   0  0  0  0  0  0  0  0  0  0  0  0
    3.1587   -0.1464   19.9021 N   0  0  0  0  0  0  0  0  0  0  0  0
    2.8186   -1.1450   19.9510 H   0  0  0  0  0  0  0  0  0  0  0  0
    3.6739    0.4349   21.1107 C   0  0  0  0  0  0  0  0  0  0  0  0
    5.6370    1.7704   21.6281 C   0  0  0  0  0  0  0  0  0  0  0  0
    5.1862    0.4082   21.1363 C   0  0  0  0  0  0  0  0  0  0  0  0
 24 25  1  0  0  0
 25 23  1  0  0  0
 23 21  1  0  0  0
 21  1  1  0  0  0
  1  2  2  0  0  0
  2  3  1  0  0  0
  3  4  2  0  0  0
  4  5  1  0  0  0
  5  6  2  0  0  0
  6  7  1  0  0  0
  7 10  1  0  0  0
 10 11  1  0  0  0
 11 12  1  0  0  0
 12 13  1  0  0  0
 13 14  1  0  0  0
 14 15  1  0  0  0
  7  8  1  0  0  0
  8  9  2  0  0  0
  5 16  1  0  0  0
 16 17  1  0  0  0
 17 18  2  0  0  0
 18 19  1  0  0  0
 19 20  1  0  0  0
  9  1  1  0  0  0
 20 16  2  0  0  0
  8  4  1  0  0  0
 15 10  1  0  0  0
 21 22  1  0  0  0
M  END
> <minimizedAffinity>
-6.61003

> <CNNscore>
0.8873811960

> <CNNaffinity>
6.8113050461

> <CNN_VS>
6.0442237854

> <CNNaffinity_variance>
0.1624216437

$$$$
[H]c1oc([H])c(-c2nn(C3([H])C([H])([H])C([H])([H])C([H])([H])C([H])([H])C3([H])[H])c3nc(N([H])C([H])([H])C([H])([H])C([H])([H])[H])nc([H])c23)c1[H]


 25 28  0  0  0  0  0  0  0  0999 V2000
    3.5634    1.9446   17.3079 C   0  0  0  0  0  0  0  0  0  0  0  0
    3.6605    1.0667   18.3353 N   0  0  0  0  0  0  0  0  0  0  0  0
    4.0247    1.4864   19.5778 C   0  0  0  0  0  0  0  0  0  0  0  0
    4.3039    2.8136   19.8239 C   0  0  0  0  0  0  0  0  0  0  0  0
    4.6860    3.5764   20.9059 C   0  0  0  0  0  0  0  0  0  0  0  0
    4.8084    4.8586   20.5248 N   0  0  0  0  0  0  0  0  0  0  0  0
    4.5114    4.9294   19.2177 N   0  0  0  0  0  0  0  0  0  0  0  0
    4.2020    3.6938   18.7741 C   0  0  0  0  0  0  0  0  0  0  0  0
    3.8370    3.2365   17.5543 N   0  0  0  0  0  0  0  0  0  0  0  0
    4.5212    6.1361   18.4256 C   0  0  0  0  0  0  0  0  0  0  0  0
    5.8044    6.3638   17.6770 C   0  0  0  0  0  0  0  0  0  0  0  0
    6.0963    7.8445   17.5033 C   0  0  0  0  0  0  0  0  0  0  0  0
    4.8225    8.6446   17.3544 C   0  0  0  0  0  0  0  0  0  0  0  0
    3.9251    8.4997   18.5632 C   0  0  0  0  0  0  0  0  0  0  0  0
    4.3406    7.3079   19.3674 C   0  0  0  0  0  0  0  0  0  0  0  0
    4.9175    3.0493   22.2577 C   0  0  0  0  0  0  0  0  0  0  0  0
    6.0047    2.4030   22.7758 C   0  0  0  0  0  0  0  0  0  0  0  0
    5.7284    2.1083   24.1064 C   0  0  0  0  0  0  0  0  0  0  0  0
    4.5280    2.5643   24.3545 O   0  0  0  0  0  0  0  0  0  0  0  0
    4.0054    3.1308   23.2907 C   0  0  0  0  0  0  0  0  0  0  0  0
    3.1684    1.4324   16.0410 N   0  0  0  0  0  0  0  0  0  0  0  0
    3.5541    0.4968   15.7393 H   0  0  0  0  0  0  0  0  0  0  0  0
    2.2758    2.1011   15.1353 C   0  0  0  0  0  0  0  0  0  0  0  0
    2.4831    2.1234   12.7143 C   0  0  0  0  0  0  0  0  0  0  0  0
    3.0275    2.7400   13.9887 C   0  0  0  0  0  0  0  0  0  0  0  0
 24 25  1  0  0  0
 25 23  1  0  0  0
 23 21  1  0  0  0
 21  1  1  0  0  0
  1  2  2  0  0  0
  2  3  1  0  0  0
  3  4  2  0  0  0
  4  5  1  0  0  0
  5  6  2  0  0  0
  6  7  1  0  0  0
  7 10  1  0  0  0
 10 11  1  0  0  0
 11 12  1  0  0  0
 12 13  1  0  0  0
 13 14  1  0  0  0
 14 15  1  0  0  0
  7  8  1  0  0  0
  8  9  2  0  0  0
  5 16  1  0  0  0
 16 17  1  0  0  0
 17 18  2  0  0  0
 18 19  1  0  0  0
 19 20  1  0  0  0
  9  1  1  0  0  0
 20 16  2  0  0  0
  8  4  1  0  0  0
 15 10  1  0  0  0
 21 22  1  0  0  0
M  END
> <minimizedAffinity>
-7.34198

> <CNNscore>
0.4364467263

> <CNNaffinity>
6.3820028305

> <CNN_VS>
2.7854042053

> <CNNaffinity_variance>
0.4872776866

$$$$
[H]c1oc([H])c(-c2nn(C3([H])C([H])([H])C([H])([H])C([H])([H])C([H])([H])C3([H])[H])c3nc(N([H])C([H])([H])C([H])([H])C([H])([H])[H])nc([H])c23)c1[H]


 25 28  0  0  0  0  0  0  0  0999 V2000
    1.5184    3.9462   11.7898 C   0  0  0  0  0  0  0  0  0  0  0  0
    0.9659    2.7101   11.8387 N   0  0  0  0  0  0  0  0  0  0  0  0
    1.5493    1.6607   11.1975 C   0  0  0  0  0  0  0  0  0  0  0  0
    2.7159    1.8271   10.4825 C   0  0  0  0  0  0  0  0  0  0  0  0
    3.5601    1.0327    9.7375 C   0  0  0  0  0  0  0  0  0  0  0  0
    4.5735    1.7789    9.2680 N   0  0  0  0  0  0  0  0  0  0  0  0
    4.3924    3.0369    9.6996 N   0  0  0  0  0  0  0  0  0  0  0  0
    3.2663    3.0850   10.4404 C   0  0  0  0  0  0  0  0  0  0  0  0
    2.6553    4.1016   11.0912 N   0  0  0  0  0  0  0  0  0  0  0  0
    5.2673    4.1491    9.4148 C   0  0  0  0  0  0  0  0  0  0  0  0
    6.1786    3.9232    8.2412 C   0  0  0  0  0  0  0  0  0  0  0  0
    7.4962    4.6615    8.4050 C   0  0  0  0  0  0  0  0  0  0  0  0
    7.3113    5.9614    9.1537 C   0  0  0  0  0  0  0  0  0  0  0  0
    6.7449    5.7354   10.5378 C   0  0  0  0  0  0  0  0  0  0  0  0
    6.1477    4.3661   10.6275 C   0  0  0  0  0  0  0  0  0  0  0  0
    3.3639   -0.4049    9.5057 C   0  0  0  0  0  0  0  0  0  0  0  0
    2.2859   -1.0754    8.9992 C   0  0  0  0  0  0  0  0  0  0  0  0
    2.5991   -2.4302    8.9822 C   0  0  0  0  0  0  0  0  0  0  0  0
    3.8112   -2.5453    9.4597 O   0  0  0  0  0  0  0  0  0  0  0  0
    4.3076   -1.3732    9.7843 C   0  0  0  0  0  0  0  0  0  0  0  0
    0.8557    4.9904   12.4925 N   0  0  0  0  0  0  0  0  0  0  0  0
    0.7923    4.9215   13.5443 H   0  0  0  0  0  0  0  0  0  0  0  0
    0.2620    6.1410   11.8698 C   0  0  0  0  0  0  0  0  0  0  0  0
   -0.4893    6.7155   14.1083 C   0  0  0  0  0  0  0  0  0  0  0  0
   -0.9271    6.6445   12.6578 C   0  0  0  0  0  0  0  0  0  0  0  0
 24 25  1  0  0  0
 25 23  1  0  0  0
 23 21  1  0  0  0
 21  1  1  0  0  0
  1  2  2  0  0  0
  2  3  1  0  0  0
  3  4  2  0  0  0
  4  5  1  0  0  0
  5  6  2  0  0  0
  6  7  1  0  0  0
  7 10  1  0  0  0
 10 11  1  0  0  0
 11 12  1  0  0  0
 12 13  1  0  0  0
 13 14  1  0  0  0
 14 15  1  0  0  0
  7  8  1  0  0  0
  8  9  2  0  0  0
  5 16  1  0  0  0
 16 17  1  0  0  0
 17 18  2  0  0  0
 18 19  1  0  0  0
 19 20  1  0  0  0
  9  1  1  0  0  0
 20 16  2  0  0  0
  8  4  1  0  0  0
 15 10  1  0  0  0
 21 22  1  0  0  0
M  END
> <minimizedAffinity>
-4.43071

> <CNNscore>
0.3358658850

> <CNNaffinity>
5.2210721970

> <CNN_VS>
1.7535800934

> <CNNaffinity_variance>
0.3638395071

$$$$
[H]c1oc([H])c(-c2nn(C3([H])C([H])([H])C([H])([H])C([H])([H])C([H])([H])C3([H])[H])c3nc(N([H])C([H])([H])C([H])([H])C([H])([H])[H])nc([H])c23)c1[H]


 25 28  0  0  0  0  0  0  0  0999 V2000
    4.4492    1.9891   20.4979 C   0  0  0  0  0  0  0  0  0  0  0  0
    4.2828    1.1693   19.4322 N   0  0  0  0  0  0  0  0  0  0  0  0
    4.0449    1.6784   18.1925 C   0  0  0  0  0  0  0  0  0  0  0  0
    3.9672    3.0394   17.9883 C   0  0  0  0  0  0  0  0  0  0  0  0
    3.7515    3.8850   16.9219 C   0  0  0  0  0  0  0  0  0  0  0  0
    3.7905    5.1579   17.3491 N   0  0  0  0  0  0  0  0  0  0  0  0
    4.0273    5.1414   18.6702 N   0  0  0  0  0  0  0  0  0  0  0  0
    4.1375    3.8601   19.0766 C   0  0  0  0  0  0  0  0  0  0  0  0
    4.3721    3.3144   20.2922 N   0  0  0  0  0  0  0  0  0  0  0  0
    4.1461    6.3096   19.5096 C   0  0  0  0  0  0  0  0  0  0  0  0
    3.6305    7.5711   18.8757 C   0  0  0  0  0  0  0  0  0  0  0  0
    4.3896    8.7935   19.3629 C   0  0  0  0  0  0  0  0  0  0  0  0
    4.8311    8.6330   20.7995 C   0  0  0  0  0  0  0  0  0  0  0  0
    5.7395    7.4367   20.9764 C   0  0  0  0  0  0  0  0  0  0  0  0
    5.6173    6.5241   19.7966 C   0  0  0  0  0  0  0  0  0  0  0  0
    3.5179    3.4423   15.5405 C   0  0  0  0  0  0  0  0  0  0  0  0
    2.9073    2.3137   15.0696 C   0  0  0  0  0  0  0  0  0  0  0  0
    2.9406    2.3620   13.6803 C   0  0  0  0  0  0  0  0  0  0  0  0
    3.5464    3.4742   13.3538 O   0  0  0  0  0  0  0  0  0  0  0  0
    3.9078    4.1497   14.4210 C   0  0  0  0  0  0  0  0  0  0  0  0
    4.7033    1.3833   21.7596 N   0  0  0  0  0  0  0  0  0  0  0  0
    5.4890    0.6809   21.8261 H   0  0  0  0  0  0  0  0  0  0  0  0
    3.9626    1.6601   22.9591 C   0  0  0  0  0  0  0  0  0  0  0  0
    3.7734    3.9759   23.6708 C   0  0  0  0  0  0  0  0  0  0  0  0
    4.6338    2.7322   23.7887 C   0  0  0  0  0  0  0  0  0  0  0  0
 24 25  1  0  0  0
 25 23  1  0  0  0
 23 21  1  0  0  0
 21  1  1  0  0  0
  1  2  2  0  0  0
  2  3  1  0  0  0
  3  4  2  0  0  0
  4  5  1  0  0  0
  5  6  2  0  0  0
  6  7  1  0  0  0
  7 10  1  0  0  0
 10 11  1  0  0  0
 11 12  1  0  0  0
 12 13  1  0  0  0
 13 14  1  0  0  0
 14 15  1  0  0  0
  7  8  1  0  0  0
  8  9  2  0  0  0
  5 16  1  0  0  0
 16 17  1  0  0  0
 17 18  2  0  0  0
 18 19  1  0  0  0
 19 20  1  0  0  0
  9  1  1  0  0  0
 20 16  2  0  0  0
  8  4  1  0  0  0
 15 10  1  0  0  0
 21 22  1  0  0  0
M  END
> <minimizedAffinity>
-7.61204

> <CNNscore>
0.2580810785

> <CNNaffinity>
6.1944785118

> <CNN_VS>
1.5986777544

> <CNNaffinity_variance>
0.9447328448

$$$$
[H]c1oc([H])c(-c2nn(C3([H])C([H])([H])C([H])([H])C([H])([H])C([H])([H])C3([H])[H])c3nc(N([H])C([H])([H])C([H])([H])C([H])([H])[H])nc([H])c23)c1[H]


 25 28  0  0  0  0  0  0  0  0999 V2000
    3.9335    7.0354   19.3981 C   0  0  0  0  0  0  0  0  0  0  0  0
    3.6384    6.9460   18.0788 N   0  0  0  0  0  0  0  0  0  0  0  0
    3.5380    5.7337   17.4682 C   0  0  0  0  0  0  0  0  0  0  0  0
    3.7334    4.5662   18.1745 C   0  0  0  0  0  0  0  0  0  0  0  0
    3.7135    3.2146   17.9073 C   0  0  0  0  0  0  0  0  0  0  0  0
    3.9877    2.5350   19.0330 N   0  0  0  0  0  0  0  0  0  0  0  0
    4.1828    3.4282   20.0157 N   0  0  0  0  0  0  0  0  0  0  0  0
    4.0321    4.6700   19.5113 C   0  0  0  0  0  0  0  0  0  0  0  0
    4.1229    5.8939   20.0806 N   0  0  0  0  0  0  0  0  0  0  0  0
    4.4986    3.1030   21.3861 C   0  0  0  0  0  0  0  0  0  0  0  0
    5.9719    2.9939   21.6630 C   0  0  0  0  0  0  0  0  0  0  0  0
    6.2618    1.9878   22.7638 C   0  0  0  0  0  0  0  0  0  0  0  0
    5.1562    1.9626   23.7940 C   0  0  0  0  0  0  0  0  0  0  0  0
    3.8257    1.5890   23.1794 C   0  0  0  0  0  0  0  0  0  0  0  0
    3.8862    1.7526   21.6930 C   0  0  0  0  0  0  0  0  0  0  0  0
    3.4331    2.6291   16.5892 C   0  0  0  0  0  0  0  0  0  0  0  0
    3.7517    3.0820   15.3395 C   0  0  0  0  0  0  0  0  0  0  0  0
    3.2604    2.1638   14.4179 C   0  0  0  0  0  0  0  0  0  0  0  0
    2.6785    1.2135   15.1026 O   0  0  0  0  0  0  0  0  0  0  0  0
    2.7541    1.4432   16.3938 C   0  0  0  0  0  0  0  0  0  0  0  0
    4.0123    8.3367   19.9671 N   0  0  0  0  0  0  0  0  0  0  0  0
    3.1116    8.8212   20.2301 H   0  0  0  0  0  0  0  0  0  0  0  0
    5.2381    9.0448   20.2119 C   0  0  0  0  0  0  0  0  0  0  0  0
    5.8870    9.4624   22.5162 C   0  0  0  0  0  0  0  0  0  0  0  0
    5.9916    8.4575   21.3848 C   0  0  0  0  0  0  0  0  0  0  0  0
 24 25  1  0  0  0
 25 23  1  0  0  0
 23 21  1  0  0  0
 21  1  1  0  0  0
  1  2  2  0  0  0
  2  3  1  0  0  0
  3  4  2  0  0  0
  4  5  1  0  0  0
  5  6  2  0  0  0
  6  7  1  0  0  0
  7 10  1  0  0  0
 10 11  1  0  0  0
 11 12  1  0  0  0
 12 13  1  0  0  0
 13 14  1  0  0  0
 14 15  1  0  0  0
  7  8  1  0  0  0
  8  9  2  0  0  0
  5 16  1  0  0  0
 16 17  1  0  0  0
 17 18  2  0  0  0
 18 19  1  0  0  0
 19 20  1  0  0  0
  9  1  1  0  0  0
 20 16  2  0  0  0
  8  4  1  0  0  0
 15 10  1  0  0  0
 21 22  1  0  0  0
M  END
> <minimizedAffinity>
-7.75597

> <CNNscore>
0.2326690853

> <CNNaffinity>
6.1391611099

> <CNN_VS>
1.4283930063

> <CNNaffinity_variance>
0.5827354193

$$$$
[H]c1oc([H])c(-c2nn(C3([H])C([H])([H])C([H])([H])C([H])([H])C([H])([H])C3([H])[H])c3nc(N([H])C([H])([H])C([H])([H])C([H])([H])[H])nc([H])c23)c1[H]


 25 28  0  0  0  0  0  0  0  0999 V2000
    4.7614    2.0498   19.7337 C   0  0  0  0  0  0  0  0  0  0  0  0
    4.3548    1.1891   18.7696 N   0  0  0  0  0  0  0  0  0  0  0  0
    4.0618    1.6343   17.5171 C   0  0  0  0  0  0  0  0  0  0  0  0
    4.1707    2.9704   17.1965 C   0  0  0  0  0  0  0  0  0  0  0  0
    3.9701    3.7562   16.0825 C   0  0  0  0  0  0  0  0  0  0  0  0
    4.2501    5.0348   16.3843 N   0  0  0  0  0  0  0  0  0  0  0  0
    4.6262    5.0807   17.6719 N   0  0  0  0  0  0  0  0  0  0  0  0
    4.5838    3.8330   18.1825 C   0  0  0  0  0  0  0  0  0  0  0  0
    4.8653    3.3506   19.4147 N   0  0  0  0  0  0  0  0  0  0  0  0
    5.0142    6.2748   18.3841 C   0  0  0  0  0  0  0  0  0  0  0  0
    3.8737    6.9738   19.0695 C   0  0  0  0  0  0  0  0  0  0  0  0
    4.0964    8.4750   19.1372 C   0  0  0  0  0  0  0  0  0  0  0  0
    5.5634    8.8096   19.2807 C   0  0  0  0  0  0  0  0  0  0  0  0
    6.3745    8.2845   18.1171 C   0  0  0  0  0  0  0  0  0  0  0  0
    5.5914    7.2463   17.3763 C   0  0  0  0  0  0  0  0  0  0  0  0
    3.5202    3.2534   14.7773 C   0  0  0  0  0  0  0  0  0  0  0  0
    2.8042    2.1316   14.4658 C   0  0  0  0  0  0  0  0  0  0  0  0
    2.6360    2.1057   13.0856 C   0  0  0  0  0  0  0  0  0  0  0  0
    3.2303    3.1697   12.6111 O   0  0  0  0  0  0  0  0  0  0  0  0
    3.7695    3.8823   13.5739 C   0  0  0  0  0  0  0  0  0  0  0  0
    5.0580    1.5086   21.0153 N   0  0  0  0  0  0  0  0  0  0  0  0
    4.4704    0.7037   21.3646 H   0  0  0  0  0  0  0  0  0  0  0  0
    6.1072    1.9814   21.8752 C   0  0  0  0  0  0  0  0  0  0  0  0
    5.4908    2.1161   24.2219 C   0  0  0  0  0  0  0  0  0  0  0  0
    5.5728    2.9175   22.9367 C   0  0  0  0  0  0  0  0  0  0  0  0
 24 25  1  0  0  0
 25 23  1  0  0  0
 23 21  1  0  0  0
 21  1  1  0  0  0
  1  2  2  0  0  0
  2  3  1  0  0  0
  3  4  2  0  0  0
  4  5  1  0  0  0
  5  6  2  0  0  0
  6  7  1  0  0  0
  7 10  1  0  0  0
 10 11  1  0  0  0
 11 12  1  0  0  0
 12 13  1  0  0  0
 13 14  1  0  0  0
 14 15  1  0  0  0
  7  8  1  0  0  0
  8  9  2  0  0  0
  5 16  1  0  0  0
 16 17  1  0  0  0
 17 18  2  0  0  0
 18 19  1  0  0  0
 19 20  1  0  0  0
  9  1  1  0  0  0
 20 16  2  0  0  0
  8  4  1  0  0  0
 15 10  1  0  0  0
 21 22  1  0  0  0
M  END
> <minimizedAffinity>
-6.95627

> <CNNscore>
0.2244198024

> <CNNaffinity>
6.1350803375

> <CNN_VS>
1.3768335581

> <CNNaffinity_variance>
0.7198357582

$$$$
[H]c1oc([H])c(-c2nn(C3([H])C([H])([H])C([H])([H])C([H])([H])C([H])([H])C3([H])[H])c3nc(N([H])C([H])([H])C([H])([H])C([H])([H])[H])nc([H])c23)c1[H]


 25 28  0  0  0  0  0  0  0  0999 V2000
    2.5941    3.5867   12.1445 C   0  0  0  0  0  0  0  0  0  0  0  0
    2.8516    4.7391   12.8087 N   0  0  0  0  0  0  0  0  0  0  0  0
    3.9321    5.5018   12.4869 C   0  0  0  0  0  0  0  0  0  0  0  0
    4.7919    5.1229   11.4783 C   0  0  0  0  0  0  0  0  0  0  0  0
    5.9381    5.6183   10.8957 C   0  0  0  0  0  0  0  0  0  0  0  0
    6.3385    4.7836    9.9224 N   0  0  0  0  0  0  0  0  0  0  0  0
    5.4684    3.7628    9.8723 N   0  0  0  0  0  0  0  0  0  0  0  0
    4.5202    3.9525   10.8125 C   0  0  0  0  0  0  0  0  0  0  0  0
    3.4360    3.2230   11.1628 N   0  0  0  0  0  0  0  0  0  0  0  0
    5.5422    2.6499    8.9559 C   0  0  0  0  0  0  0  0  0  0  0  0
    6.9369    2.3304    8.4957 C   0  0  0  0  0  0  0  0  0  0  0  0
    6.9449    1.7577    7.0887 C   0  0  0  0  0  0  0  0  0  0  0  0
    5.7063    0.9339    6.8207 C   0  0  0  0  0  0  0  0  0  0  0  0
    4.4445    1.7549    6.9673 C   0  0  0  0  0  0  0  0  0  0  0  0
    4.7385    3.0117    7.7247 C   0  0  0  0  0  0  0  0  0  0  0  0
    6.6023    6.8675   11.2923 C   0  0  0  0  0  0  0  0  0  0  0  0
    6.0704    8.0375   11.7575 C   0  0  0  0  0  0  0  0  0  0  0  0
    7.1213    8.9182   11.9895 C   0  0  0  0  0  0  0  0  0  0  0  0
    8.2220    8.2873   11.6721 O   0  0  0  0  0  0  0  0  0  0  0  0
    7.9675    7.0684   11.2534 C   0  0  0  0  0  0  0  0  0  0  0  0
    1.4414    2.8486   12.5316 N   0  0  0  0  0  0  0  0  0  0  0  0
    0.5740    2.9297   11.9348 H   0  0  0  0  0  0  0  0  0  0  0  0
    1.3714    1.9943   13.6845 C   0  0  0  0  0  0  0  0  0  0  0  0
    2.6099    1.7990   15.7661 C   0  0  0  0  0  0  0  0  0  0  0  0
    2.7453    1.7244   14.2572 C   0  0  0  0  0  0  0  0  0  0  0  0
 24 25  1  0  0  0
 25 23  1  0  0  0
 23 21  1  0  0  0
 21  1  1  0  0  0
  1  2  2  0  0  0
  2  3  1  0  0  0
  3  4  2  0  0  0
  4  5  1  0  0  0
  5  6  2  0  0  0
  6  7  1  0  0  0
  7 10  1  0  0  0
 10 11  1  0  0  0
 11 12  1  0  0  0
 12 13  1  0  0  0
 13 14  1  0  0  0
 14 15  1  0  0  0
  7  8  1  0  0  0
  8  9  2  0  0  0
  5 16  1  0  0  0
 16 17  1  0  0  0
 17 18  2  0  0  0
 18 19  1  0  0  0
 19 20  1  0  0  0
  9  1  1  0  0  0
 20 16  2  0  0  0
  8  4  1  0  0  0
 15 10  1  0  0  0
 21 22  1  0  0  0
M  END
> <minimizedAffinity>
-4.60142

> <CNNscore>
0.2169375867

> <CNNaffinity>
5.2396330833

> <CNN_VS>
1.1366733313

> <CNNaffinity_variance>
0.4543112814

$$$$
[H]c1oc([H])c(-c2nn(C3([H])C([H])([H])C([H])([H])C([H])([H])C([H])([H])C3([H])[H])c3nc(N([H])C([H])([H])C([H])([H])C([H])([H])[H])nc([H])c23)c1[H]


 25 28  0  0  0  0  0  0  0  0999 V2000
    1.7859    5.7063   14.8318 C   0  0  0  0  0  0  0  0  0  0  0  0
    1.9050    5.5269   16.1694 N   0  0  0  0  0  0  0  0  0  0  0  0
    2.2508    4.3140   16.6812 C   0  0  0  0  0  0  0  0  0  0  0  0
    2.4889    3.2376   15.8539 C   0  0  0  0  0  0  0  0  0  0  0  0
    2.8454    1.9149   16.0030 C   0  0  0  0  0  0  0  0  0  0  0  0
    2.9323    1.3389   14.7926 N   0  0  0  0  0  0  0  0  0  0  0  0
    2.6376    2.2700   13.8718 N   0  0  0  0  0  0  0  0  0  0  0  0
    2.3649    3.4321   14.4997 C   0  0  0  0  0  0  0  0  0  0  0  0
    2.0191    4.6532   14.0310 N   0  0  0  0  0  0  0  0  0  0  0  0
    2.6211    2.0540   12.4447 C   0  0  0  0  0  0  0  0  0  0  0  0
    3.2094    3.1858   11.6498 C   0  0  0  0  0  0  0  0  0  0  0  0
    2.5500    3.3153   10.2873 C   0  0  0  0  0  0  0  0  0  0  0  0
    2.1320    1.9675    9.7458 C   0  0  0  0  0  0  0  0  0  0  0  0
    1.1458    1.2769   10.6613 C   0  0  0  0  0  0  0  0  0  0  0  0
    1.1757    1.9122   12.0160 C   0  0  0  0  0  0  0  0  0  0  0  0
    3.0884    1.2571   17.2941 C   0  0  0  0  0  0  0  0  0  0  0  0
    2.4935    0.1579   17.8473 C   0  0  0  0  0  0  0  0  0  0  0  0
    3.0799   -0.0618   19.0889 C   0  0  0  0  0  0  0  0  0  0  0  0
    3.9808    0.8720   19.2534 O   0  0  0  0  0  0  0  0  0  0  0  0
    4.0243    1.6784   18.2173 C   0  0  0  0  0  0  0  0  0  0  0  0
    1.4299    7.0045   14.3720 N   0  0  0  0  0  0  0  0  0  0  0  0
    1.9778    7.8302   14.7370 H   0  0  0  0  0  0  0  0  0  0  0  0
    0.3709    7.2756   13.4399 C   0  0  0  0  0  0  0  0  0  0  0  0
    0.4845    6.3991   11.1763 C   0  0  0  0  0  0  0  0  0  0  0  0
    0.9114    7.5589   12.0557 C   0  0  0  0  0  0  0  0  0  0  0  0
 24 25  1  0  0  0
 25 23  1  0  0  0
 23 21  1  0  0  0
 21  1  1  0  0  0
  1  2  2  0  0  0
  2  3  1  0  0  0
  3  4  2  0  0  0
  4  5  1  0  0  0
  5  6  2  0  0  0
  6  7  1  0  0  0
  7 10  1  0  0  0
 10 11  1  0  0  0
 11 12  1  0  0  0
 12 13  1  0  0  0
 13 14  1  0  0  0
 14 15  1  0  0  0
  7  8  1  0  0  0
  8  9  2  0  0  0
  5 16  1  0  0  0
 16 17  1  0  0  0
 17 18  2  0  0  0
 18 19  1  0  0  0
 19 20  1  0  0  0
  9  1  1  0  0  0
 20 16  2  0  0  0
  8  4  1  0  0  0
 15 10  1  0  0  0
 21 22  1  0  0  0
M  END
> <minimizedAffinity>
-5.96766

> <CNNscore>
0.2037598342

> <CNNaffinity>
5.5941934586

> <CNN_VS>
1.1398719549

> <CNNaffinity_variance>
0.0742335320

$$$$
[H]c1oc([H])c(-c2nn(C3([H])C([H])([H])C([H])([H])C([H])([H])C([H])([H])C3([H])[H])c3nc(N([H])C([H])([H])C([H])([H])C([H])([H])[H])nc([H])c23)c1[H]


 25 28  0  0  0  0  0  0  0  0999 V2000
    3.3605    3.9255   11.7161 C   0  0  0  0  0  0  0  0  0  0  0  0
    4.4501    4.5570   11.2166 N   0  0  0  0  0  0  0  0  0  0  0  0
    5.1376    4.0331   10.1652 C   0  0  0  0  0  0  0  0  0  0  0  0
    4.7445    2.8479    9.5814 C   0  0  0  0  0  0  0  0  0  0  0  0
    5.1734    2.0471    8.5453 C   0  0  0  0  0  0  0  0  0  0  0  0
    4.3617    0.9819    8.4415 N   0  0  0  0  0  0  0  0  0  0  0  0
    3.4211    1.0872    9.3932 N   0  0  0  0  0  0  0  0  0  0  0  0
    3.6385    2.2171   10.0969 C   0  0  0  0  0  0  0  0  0  0  0  0
    2.9828    2.7708   11.1428 N   0  0  0  0  0  0  0  0  0  0  0  0
    2.3533    0.1420    9.6170 C   0  0  0  0  0  0  0  0  0  0  0  0
    2.6245   -1.2275    9.0603 C   0  0  0  0  0  0  0  0  0  0  0  0
    1.3432   -1.9209    8.6298 C   0  0  0  0  0  0  0  0  0  0  0  0
    0.1808   -1.5314    9.5139 C   0  0  0  0  0  0  0  0  0  0  0  0
   -0.0772   -0.0416    9.4765 C   0  0  0  0  0  0  0  0  0  0  0  0
    1.1165    0.6694    8.9204 C   0  0  0  0  0  0  0  0  0  0  0  0
    6.3393    2.3328    7.6981 C   0  0  0  0  0  0  0  0  0  0  0  0
    6.4084    2.6161    6.3627 C   0  0  0  0  0  0  0  0  0  0  0  0
    7.7469    2.8092    6.0389 C   0  0  0  0  0  0  0  0  0  0  0  0
    8.4313    2.6451    7.1413 O   0  0  0  0  0  0  0  0  0  0  0  0
    7.6425    2.3612    8.1527 C   0  0  0  0  0  0  0  0  0  0  0  0
    2.6891    4.5392   12.8097 N   0  0  0  0  0  0  0  0  0  0  0  0
    2.4737    5.5710   12.7468 H   0  0  0  0  0  0  0  0  0  0  0  0
    2.2797    3.8514   14.0028 C   0  0  0  0  0  0  0  0  0  0  0  0
    2.9789    1.7412   14.9843 C   0  0  0  0  0  0  0  0  0  0  0  0
    3.4449    3.1486   14.6636 C   0  0  0  0  0  0  0  0  0  0  0  0
 24 25  1  0  0  0
 25 23  1  0  0  0
 23 21  1  0  0  0
 21  1  1  0  0  0
  1  2  2  0  0  0
  2  3  1  0  0  0
  3  4  2  0  0  0
  4  5  1  0  0  0
  5  6  2  0  0  0
  6  7  1  0  0  0
  7 10  1  0  0  0
 10 11  1  0  0  0
 11 12  1  0  0  0
 12 13  1  0  0  0
 13 14  1  0  0  0
 14 15  1  0  0  0
  7  8  1  0  0  0
  8  9  2  0  0  0
  5 16  1  0  0  0
 16 17  1  0  0  0
 17 18  2  0  0  0
 18 19  1  0  0  0
 19 20  1  0  0  0
  9  1  1  0  0  0
 20 16  2  0  0  0
  8  4  1  0  0  0
 15 10  1  0  0  0
 21 22  1  0  0  0
M  END
> <minimizedAffinity>
-4.28007

> <CNNscore>
0.1875821501

> <CNNaffinity>
5.0982918739

> <CNN_VS>
0.9563485384

> <CNNaffinity_variance>
0.1631033123

$$$$
[H]OC1([H])C([H])([H])C([H])([H])C([H])(n2c([H])c(-c3c([H])c([H])c(S(=O)(=O)C4([H])C([H])([H])C([H])([H])C([H])([H])C4([H])[H])c([H])c3[H])c3c([H])nc(N([H])C([H])([H])C([H])([H])C([H])([H])C([H])([H])[H])nc32)C([H])([H])C1([H])[H]


 37 41  0  0  0  0  0  0  0  0999 V2000
    4.0198    1.2883   19.3602 C   0  0  0  0  0  0  0  0  0  0  0  0
    3.7075    0.6557   18.2172 N   0  0  0  0  0  0  0  0  0  0  0  0
    3.5852    1.3002   17.0309 C   0  0  0  0  0  0  0  0  0  0  0  0
    3.7861    2.6683   16.9692 C   0  0  0  0  0  0  0  0  0  0  0  0
    3.7302    3.5703   15.9276 C   0  0  0  0  0  0  0  0  0  0  0  0
    4.0259    4.7954   16.4941 C   0  0  0  0  0  0  0  0  0  0  0  0
    4.2456    4.6196   17.8099 N   0  0  0  0  0  0  0  0  0  0  0  0
    4.1061    3.3100   18.1457 C   0  0  0  0  0  0  0  0  0  0  0  0
    4.2146    2.6173   19.2990 N   0  0  0  0  0  0  0  0  0  0  0  0
    4.5863    5.6275   18.7941 C   0  0  0  0  0  0  0  0  0  0  0  0
    4.6207    5.1094   20.1901 C   0  0  0  0  0  0  0  0  0  0  0  0
    4.5609    6.1867   21.2360 C   0  0  0  0  0  0  0  0  0  0  0  0
    4.9246    7.5438   20.7363 C   0  0  0  0  0  0  0  0  0  0  0  0
    4.5230    8.4774   21.7206 O   0  0  0  0  0  0  0  0  0  0  0  0
    4.2602    7.9398   19.4612 C   0  0  0  0  0  0  0  0  0  0  0  0
    3.6076    6.7755   18.7355 C   0  0  0  0  0  0  0  0  0  0  0  0
    3.5315    8.6044   21.5790 H   0  0  0  0  0  0  0  0  0  0  0  0
    3.4250    3.3089   14.5038 C   0  0  0  0  0  0  0  0  0  0  0  0
    2.6373    2.2412   14.1639 C   0  0  0  0  0  0  0  0  0  0  0  0
    2.3529    1.9993   12.8493 C   0  0  0  0  0  0  0  0  0  0  0  0
    2.8309    2.7960   11.8203 C   0  0  0  0  0  0  0  0  0  0  0  0
    3.6165    3.8581   12.1815 C   0  0  0  0  0  0  0  0  0  0  0  0
    3.9148    4.1189   13.5013 C   0  0  0  0  0  0  0  0  0  0  0  0
    2.4211    2.4134   10.1635 S   0  0  0  0  0  0  0  0  0  0  0  0
    2.7755    3.5593    9.2930 O   0  0  0  0  0  0  0  0  0  0  0  0
    3.1986    1.2090    9.6809 O   0  0  0  0  0  0  0  0  0  0  0  0
    0.7051    1.9976   10.0604 C   0  0  0  0  0  0  0  0  0  0  0  0
    0.1368    2.4920    8.7683 C   0  0  0  0  0  0  0  0  0  0  0  0
    0.3459    1.3339    7.8067 C   0  0  0  0  0  0  0  0  0  0  0  0
   -0.0501    0.1570    8.7052 C   0  0  0  0  0  0  0  0  0  0  0  0
    0.5497    0.4863   10.0494 C   0  0  0  0  0  0  0  0  0  0  0  0
    4.1393    0.5598   20.6038 N   0  0  0  0  0  0  0  0  0  0  0  0
    4.9875   -0.0054   20.7420 H   0  0  0  0  0  0  0  0  0  0  0  0
    3.1325    0.6131   21.6132 C   0  0  0  0  0  0  0  0  0  0  0  0
    3.4915    1.6835   22.6189 C   0  0  0  0  0  0  0  0  0  0  0  0
    5.2833    2.3803   24.1032 C   0  0  0  0  0  0  0  0  0  0  0  0
    4.9782    1.7541   22.7389 C   0  0  0  0  0  0  0  0  0  0  0  0
 36 37  1  0  0  0
 37 35  1  0  0  0
 35 34  1  0  0  0
 34 32  1  0  0  0
 32  1  1  0  0  0
  1  2  2  0  0  0
  2  3  1  0  0  0
  3  4  2  0  0  0
  4  5  1  0  0  0
  5  6  2  0  0  0
  6  7  1  0  0  0
  7 10  1  0  0  0
 10 11  1  0  0  0
 11 12  1  0  0  0
 12 13  1  0  0  0
 13 14  1  0  0  0
 13 15  1  0  0  0
 15 16  1  0  0  0
  7  8  1  0  0  0
  8  9  2  0  0  0
  5 18  1  0  0  0
 18 19  2  0  0  0
 19 20  1  0  0  0
 20 21  2  0  0  0
 21 22  1  0  0  0
 22 23  2  0  0  0
 21 24  1  0  0  0
 24 25  2  0  0  0
 24 26  2  0  0  0
 24 27  1  0  0  0
 27 28  1  0  0  0
 28 29  1  0  0  0
 29 30  1  0  0  0
 30 31  1  0  0  0
  9  1  1  0  0  0
 23 18  1  0  0  0
 31 27  1  0  0  0
  8  4  1  0  0  0
 16 10  1  0  0  0
 32 33  1  0  0  0
 14 17  1  0  0  0
M  END
> <minimizedAffinity>
-8.75515

> <CNNscore>
0.4950378239

> <CNNaffinity>
7.2586441040

> <CNN_VS>
3.5933034420

> <CNNaffinity_variance>
0.4155235291

$$$$
[H]OC1([H])C([H])([H])C([H])([H])C([H])(n2c([H])c(-c3c([H])c([H])c(S(=O)(=O)C4([H])C([H])([H])C([H])([H])C([H])([H])C4([H])[H])c([H])c3[H])c3c([H])nc(N([H])C([H])([H])C([H])([H])C([H])([H])C([H])([H])[H])nc32)C([H])([H])C1([H])[H]


 37 41  0  0  0  0  0  0  0  0999 V2000
    1.1465    2.2019   11.6157 C   0  0  0  0  0  0  0  0  0  0  0  0
    1.0234    1.4851   12.7449 N   0  0  0  0  0  0  0  0  0  0  0  0
    1.7525    1.7390   13.8592 C   0  0  0  0  0  0  0  0  0  0  0  0
    2.6693    2.7760   13.8579 C   0  0  0  0  0  0  0  0  0  0  0  0
    3.5313    3.2563   14.8213 C   0  0  0  0  0  0  0  0  0  0  0  0
    4.1930    4.3104   14.2212 C   0  0  0  0  0  0  0  0  0  0  0  0
    3.7391    4.4425   12.9614 N   0  0  0  0  0  0  0  0  0  0  0  0
    2.7898    3.5066   12.6961 C   0  0  0  0  0  0  0  0  0  0  0  0
    2.0375    3.2089   11.6157 N   0  0  0  0  0  0  0  0  0  0  0  0
    4.1502    5.4150   11.9685 C   0  0  0  0  0  0  0  0  0  0  0  0
    5.3995    5.0404   11.2492 C   0  0  0  0  0  0  0  0  0  0  0  0
    6.0541    6.1899   10.5364 C   0  0  0  0  0  0  0  0  0  0  0  0
    5.1512    7.3515   10.2932 C   0  0  0  0  0  0  0  0  0  0  0  0
    5.9644    8.4464    9.9167 O   0  0  0  0  0  0  0  0  0  0  0  0
    4.3561    7.7846   11.4782 C   0  0  0  0  0  0  0  0  0  0  0  0
    4.3549    6.7677   12.6069 C   0  0  0  0  0  0  0  0  0  0  0  0
    6.3343    8.8137   10.7814 H   0  0  0  0  0  0  0  0  0  0  0  0
    3.7232    2.7688   16.2049 C   0  0  0  0  0  0  0  0  0  0  0  0
    4.1729    3.6293   17.1710 C   0  0  0  0  0  0  0  0  0  0  0  0
    4.3490    3.1810   18.4499 C   0  0  0  0  0  0  0  0  0  0  0  0
    4.0904    1.8724   18.8276 C   0  0  0  0  0  0  0  0  0  0  0  0
    3.6418    1.0284   17.8468 C   0  0  0  0  0  0  0  0  0  0  0  0
    3.4577    1.4610   16.5514 C   0  0  0  0  0  0  0  0  0  0  0  0
    4.3460    1.3806   20.4866 S   0  0  0  0  0  0  0  0  0  0  0  0
    3.1993    0.5564   20.9364 O   0  0  0  0  0  0  0  0  0  0  0  0
    5.5968    0.5395   20.6123 O   0  0  0  0  0  0  0  0  0  0  0  0
    4.5808    2.8126   21.4977 C   0  0  0  0  0  0  0  0  0  0  0  0
    3.7368    2.7126   22.7284 C   0  0  0  0  0  0  0  0  0  0  0  0
    4.6338    2.0103   23.7341 C   0  0  0  0  0  0  0  0  0  0  0  0
    5.9599    2.7317   23.4689 C   0  0  0  0  0  0  0  0  0  0  0  0
    6.0242    2.8695   21.9683 C   0  0  0  0  0  0  0  0  0  0  0  0
    0.3477    1.8948   10.4499 N   0  0  0  0  0  0  0  0  0  0  0  0
   -0.2544    2.6413   10.0783 H   0  0  0  0  0  0  0  0  0  0  0  0
    0.3824    0.6136    9.8234 C   0  0  0  0  0  0  0  0  0  0  0  0
    1.5352    0.5679    8.8461 C   0  0  0  0  0  0  0  0  0  0  0  0
    3.7199    0.1499    9.8216 C   0  0  0  0  0  0  0  0  0  0  0  0
    2.4687   -0.5249    9.2512 C   0  0  0  0  0  0  0  0  0  0  0  0
 36 37  1  0  0  0
 37 35  1  0  0  0
 35 34  1  0  0  0
 34 32  1  0  0  0
 32  1  1  0  0  0
  1  2  2  0  0  0
  2  3  1  0  0  0
  3  4  2  0  0  0
  4  5  1  0  0  0
  5  6  2  0  0  0
  6  7  1  0  0  0
  7 10  1  0  0  0
 10 11  1  0  0  0
 11 12  1  0  0  0
 12 13  1  0  0  0
 13 14  1  0  0  0
 13 15  1  0  0  0
 15 16  1  0  0  0
  7  8  1  0  0  0
  8  9  2  0  0  0
  5 18  1  0  0  0
 18 19  2  0  0  0
 19 20  1  0  0  0
 20 21  2  0  0  0
 21 22  1  0  0  0
 22 23  2  0  0  0
 21 24  1  0  0  0
 24 25  2  0  0  0
 24 26  2  0  0  0
 24 27  1  0  0  0
 27 28  1  0  0  0
 28 29  1  0  0  0
 29 30  1  0  0  0
 30 31  1  0  0  0
  9  1  1  0  0  0
 23 18  1  0  0  0
 31 27  1  0  0  0
  8  4  1  0  0  0
 16 10  1  0  0  0
 32 33  1  0  0  0
 14 17  1  0  0  0
M  END
> <minimizedAffinity>
-8.04733

> <CNNscore>
0.3037351966

> <CNNaffinity>
6.6844787598

> <CNN_VS>
2.0303115845

> <CNNaffinity_variance>
0.0608155057

$$$$
[H]OC1([H])C([H])([H])C([H])([H])C([H])(n2c([H])c(-c3c([H])c([H])c(S(=O)(=O)C4([H])C([H])([H])C([H])([H])C([H])([H])C4([H])[H])c([H])c3[H])c3c([H])nc(N([H])C([H])([H])C([H])([H])C([H])([H])C([H])([H])[H])nc32)C([H])([H])C1([H])[H]


 37 41  0  0  0  0  0  0  0  0999 V2000
    1.0985    2.3223   11.5871 C   0  0  0  0  0  0  0  0  0  0  0  0
    0.9640    1.6040   12.7141 N   0  0  0  0  0  0  0  0  0  0  0  0
    1.7079    1.8328   13.8240 C   0  0  0  0  0  0  0  0  0  0  0  0
    2.6528    2.8441   13.8204 C   0  0  0  0  0  0  0  0  0  0  0  0
    3.5347    3.2962   14.7795 C   0  0  0  0  0  0  0  0  0  0  0  0
    4.2208    4.3344   14.1790 C   0  0  0  0  0  0  0  0  0  0  0  0
    3.7616    4.4846   12.9232 N   0  0  0  0  0  0  0  0  0  0  0  0
    2.7849    3.5764   12.6609 C   0  0  0  0  0  0  0  0  0  0  0  0
    2.0168    3.3045   11.5849 N   0  0  0  0  0  0  0  0  0  0  0  0
    4.1920    5.4500   11.9316 C   0  0  0  0  0  0  0  0  0  0  0  0
    5.5085    5.1245   11.3154 C   0  0  0  0  0  0  0  0  0  0  0  0
    6.1517    6.2878   10.6147 C   0  0  0  0  0  0  0  0  0  0  0  0
    5.2088    7.3907   10.2707 C   0  0  0  0  0  0  0  0  0  0  0  0
    5.9883    8.5176    9.9183 O   0  0  0  0  0  0  0  0  0  0  0  0
    4.3077    7.8126   11.3815 C   0  0  0  0  0  0  0  0  0  0  0  0
    4.2779    6.8293   12.5393 C   0  0  0  0  0  0  0  0  0  0  0  0
    6.2743    8.9289   10.7949 H   0  0  0  0  0  0  0  0  0  0  0  0
    3.7233    2.7973   16.1594 C   0  0  0  0  0  0  0  0  0  0  0  0
    4.1657    3.6511   17.1348 C   0  0  0  0  0  0  0  0  0  0  0  0
    4.3386    3.1923   18.4105 C   0  0  0  0  0  0  0  0  0  0  0  0
    4.0840    1.8793   18.7756 C   0  0  0  0  0  0  0  0  0  0  0  0
    3.6426    1.0422   17.7857 C   0  0  0  0  0  0  0  0  0  0  0  0
    3.4618    1.4854   16.4934 C   0  0  0  0  0  0  0  0  0  0  0  0
    4.3350    1.3740   20.4312 S   0  0  0  0  0  0  0  0  0  0  0  0
    3.1906    0.5403   20.8689 O   0  0  0  0  0  0  0  0  0  0  0  0
    5.5894    0.5379   20.5547 O   0  0  0  0  0  0  0  0  0  0  0  0
    4.5587    2.7981   21.4560 C   0  0  0  0  0  0  0  0  0  0  0  0
    3.7188    2.6777   22.6877 C   0  0  0  0  0  0  0  0  0  0  0  0
    4.6251    1.9740   23.6842 C   0  0  0  0  0  0  0  0  0  0  0  0
    5.9435    2.7107   23.4230 C   0  0  0  0  0  0  0  0  0  0  0  0
    6.0027    2.8641   21.9237 C   0  0  0  0  0  0  0  0  0  0  0  0
    0.2831    2.0426   10.4259 N   0  0  0  0  0  0  0  0  0  0  0  0
   -0.0215    1.0704   10.2842 H   0  0  0  0  0  0  0  0  0  0  0  0
   -0.0974    3.0622    9.5035 C   0  0  0  0  0  0  0  0  0  0  0  0
   -1.6038    3.0813    9.3755 C   0  0  0  0  0  0  0  0  0  0  0  0
   -3.0103    4.3298   10.9124 C   0  0  0  0  0  0  0  0  0  0  0  0
   -2.0977    4.4553    9.6886 C   0  0  0  0  0  0  0  0  0  0  0  0
 36 37  1  0  0  0
 37 35  1  0  0  0
 35 34  1  0  0  0
 34 32  1  0  0  0
 32  1  1  0  0  0
  1  2  2  0  0  0
  2  3  1  0  0  0
  3  4  2  0  0  0
  4  5  1  0  0  0
  5  6  2  0  0  0
  6  7  1  0  0  0
  7 10  1  0  0  0
 10 11  1  0  0  0
 11 12  1  0  0  0
 12 13  1  0  0  0
 13 14  1  0  0  0
 13 15  1  0  0  0
 15 16  1  0  0  0
  7  8  1  0  0  0
  8  9  2  0  0  0
  5 18  1  0  0  0
 18 19  2  0  0  0
 19 20  1  0  0  0
 20 21  2  0  0  0
 21 22  1  0  0  0
 22 23  2  0  0  0
 21 24  1  0  0  0
 24 25  2  0  0  0
 24 26  2  0  0  0
 24 27  1  0  0  0
 27 28  1  0  0  0
 28 29  1  0  0  0
 29 30  1  0  0  0
 30 31  1  0  0  0
  9  1  1  0  0  0
 23 18  1  0  0  0
 31 27  1  0  0  0
  8  4  1  0  0  0
 16 10  1  0  0  0
 32 33  1  0  0  0
 14 17  1  0  0  0
M  END
> <minimizedAffinity>
-7.87267

> <CNNscore>
0.2799524665

> <CNNaffinity>
6.6912217140

> <CNN_VS>
1.8732240200

> <CNNaffinity_variance>
0.0361668132

$$$$
[H]OC1([H])C([H])([H])C([H])([H])C([H])(n2c([H])c(-c3c([H])c([H])c(S(=O)(=O)C4([H])C([H])([H])C([H])([H])C([H])([H])C4([H])[H])c([H])c3[H])c3c([H])nc(N([H])C([H])([H])C([H])([H])C([H])([H])C([H])([H])[H])nc32)C([H])([H])C1([H])[H]


 37 41  0  0  0  0  0  0  0  0999 V2000
    4.3031    1.8528   20.1073 C   0  0  0  0  0  0  0  0  0  0  0  0
    4.0225    1.0940   19.0351 N   0  0  0  0  0  0  0  0  0  0  0  0
    3.7755    1.6174   17.8093 C   0  0  0  0  0  0  0  0  0  0  0  0
    3.8081    2.9894   17.6297 C   0  0  0  0  0  0  0  0  0  0  0  0
    3.6019    3.7877   16.5241 C   0  0  0  0  0  0  0  0  0  0  0  0
    3.7714    5.0822   16.9764 C   0  0  0  0  0  0  0  0  0  0  0  0
    4.0641    5.0449   18.2891 N   0  0  0  0  0  0  0  0  0  0  0  0
    4.0965    3.7610   18.7340 C   0  0  0  0  0  0  0  0  0  0  0  0
    4.3344    3.1855   19.9315 N   0  0  0  0  0  0  0  0  0  0  0  0
    4.3214    6.1651   19.1721 C   0  0  0  0  0  0  0  0  0  0  0  0
    3.6183    7.4149   18.7695 C   0  0  0  0  0  0  0  0  0  0  0  0
    4.1803    8.6556   19.4041 C   0  0  0  0  0  0  0  0  0  0  0  0
    5.0031    8.3999   20.6212 C   0  0  0  0  0  0  0  0  0  0  0  0
    5.7082    9.5915   20.9118 O   0  0  0  0  0  0  0  0  0  0  0  0
    6.0174    7.3165   20.4743 C   0  0  0  0  0  0  0  0  0  0  0  0
    5.8018    6.4526   19.2434 C   0  0  0  0  0  0  0  0  0  0  0  0
    6.4976    9.5947   20.2823 H   0  0  0  0  0  0  0  0  0  0  0  0
    3.2724    3.3732   15.1427 C   0  0  0  0  0  0  0  0  0  0  0  0
    2.4034    2.3351   14.9350 C   0  0  0  0  0  0  0  0  0  0  0  0
    2.0966    1.9522   13.6595 C   0  0  0  0  0  0  0  0  0  0  0  0
    2.6311    2.5737   12.5415 C   0  0  0  0  0  0  0  0  0  0  0  0
    3.4975    3.6091   12.7710 C   0  0  0  0  0  0  0  0  0  0  0  0
    3.8197    4.0104   14.0493 C   0  0  0  0  0  0  0  0  0  0  0  0
    2.1871    2.0181   10.9434 S   0  0  0  0  0  0  0  0  0  0  0  0
    0.9090    1.2718   11.0207 O   0  0  0  0  0  0  0  0  0  0  0  0
    1.9839    3.1862   10.0044 O   0  0  0  0  0  0  0  0  0  0  0  0
    3.4977    1.0371   10.2739 C   0  0  0  0  0  0  0  0  0  0  0  0
    2.9319   -0.1123    9.5020 C   0  0  0  0  0  0  0  0  0  0  0  0
    2.7849    0.4291    8.0897 C   0  0  0  0  0  0  0  0  0  0  0  0
    4.1065    1.1927    7.9502 C   0  0  0  0  0  0  0  0  0  0  0  0
    4.2983    1.8677    9.2853 C   0  0  0  0  0  0  0  0  0  0  0  0
    4.5598    1.2508   21.3970 N   0  0  0  0  0  0  0  0  0  0  0  0
    5.3346    0.5772   21.4594 H   0  0  0  0  0  0  0  0  0  0  0  0
    3.7820    1.5684   22.5500 C   0  0  0  0  0  0  0  0  0  0  0  0
    4.5463    2.5474   23.4123 C   0  0  0  0  0  0  0  0  0  0  0  0
    4.4555    4.9150   22.8782 C   0  0  0  0  0  0  0  0  0  0  0  0
    3.7203    3.7779   23.5943 C   0  0  0  0  0  0  0  0  0  0  0  0
 36 37  1  0  0  0
 37 35  1  0  0  0
 35 34  1  0  0  0
 34 32  1  0  0  0
 32  1  1  0  0  0
  1  2  2  0  0  0
  2  3  1  0  0  0
  3  4  2  0  0  0
  4  5  1  0  0  0
  5  6  2  0  0  0
  6  7  1  0  0  0
  7 10  1  0  0  0
 10 11  1  0  0  0
 11 12  1  0  0  0
 12 13  1  0  0  0
 13 14  1  0  0  0
 13 15  1  0  0  0
 15 16  1  0  0  0
  7  8  1  0  0  0
  8  9  2  0  0  0
  5 18  1  0  0  0
 18 19  2  0  0  0
 19 20  1  0  0  0
 20 21  2  0  0  0
 21 22  1  0  0  0
 22 23  2  0  0  0
 21 24  1  0  0  0
 24 25  2  0  0  0
 24 26  2  0  0  0
 24 27  1  0  0  0
 27 28  1  0  0  0
 28 29  1  0  0  0
 29 30  1  0  0  0
 30 31  1  0  0  0
  9  1  1  0  0  0
 23 18  1  0  0  0
 31 27  1  0  0  0
  8  4  1  0  0  0
 16 10  1  0  0  0
 32 33  1  0  0  0
 14 17  1  0  0  0
M  END
> <minimizedAffinity>
-8.42552

> <CNNscore>
0.2087076902

> <CNNaffinity>
6.9288892746

> <CNN_VS>
1.4461125135

> <CNNaffinity_variance>
0.3794112504

$$$$
[H]OC1([H])C([H])([H])C([H])([H])C([H])(n2c([H])c(-c3c([H])c([H])c(S(=O)(=O)C4([H])C([H])([H])C([H])([H])C([H])([H])C4([H])[H])c([H])c3[H])c3c([H])nc(N([H])C([H])([H])C([H])([H])C([H])([H])C([H])([H])[H])nc32)C([H])([H])C1([H])[H]


 37 41  0  0  0  0  0  0  0  0999 V2000
    4.4381    2.0069   20.1621 C   0  0  0  0  0  0  0  0  0  0  0  0
    4.2128    1.2544   19.0725 N   0  0  0  0  0  0  0  0  0  0  0  0
    3.9849    1.7866   17.8468 C   0  0  0  0  0  0  0  0  0  0  0  0
    3.9793    3.1613   17.6856 C   0  0  0  0  0  0  0  0  0  0  0  0
    3.7801    3.9677   16.5848 C   0  0  0  0  0  0  0  0  0  0  0  0
    3.8954    5.2606   17.0583 C   0  0  0  0  0  0  0  0  0  0  0  0
    4.1510    5.2145   18.3785 N   0  0  0  0  0  0  0  0  0  0  0  0
    4.2111    3.9263   18.8078 C   0  0  0  0  0  0  0  0  0  0  0  0
    4.4323    3.3422   20.0043 N   0  0  0  0  0  0  0  0  0  0  0  0
    4.3471    6.3300   19.2829 C   0  0  0  0  0  0  0  0  0  0  0  0
    3.6730    7.5820   18.8396 C   0  0  0  0  0  0  0  0  0  0  0  0
    4.1901    8.8193   19.5177 C   0  0  0  0  0  0  0  0  0  0  0  0
    4.9276    8.5570   20.7869 C   0  0  0  0  0  0  0  0  0  0  0  0
    5.6110    9.7470   21.1314 O   0  0  0  0  0  0  0  0  0  0  0  0
    5.9498    7.4742   20.7042 C   0  0  0  0  0  0  0  0  0  0  0  0
    5.8191    6.6168   19.4569 C   0  0  0  0  0  0  0  0  0  0  0  0
    6.4417    9.7533   20.5574 H   0  0  0  0  0  0  0  0  0  0  0  0
    3.5040    3.5621   15.1891 C   0  0  0  0  0  0  0  0  0  0  0  0
    3.8845    4.3787   14.1575 C   0  0  0  0  0  0  0  0  0  0  0  0
    3.6319    4.0046   12.8676 C   0  0  0  0  0  0  0  0  0  0  0  0
    2.9968    2.8158   12.5428 C   0  0  0  0  0  0  0  0  0  0  0  0
    2.6246    2.0139   13.5888 C   0  0  0  0  0  0  0  0  0  0  0  0
    2.8703    2.3731   14.8963 C   0  0  0  0  0  0  0  0  0  0  0  0
    2.7093    2.4149   10.8647 S   0  0  0  0  0  0  0  0  0  0  0  0
    3.6268    3.2026   10.0078 O   0  0  0  0  0  0  0  0  0  0  0  0
    2.9806    0.9494   10.6070 O   0  0  0  0  0  0  0  0  0  0  0  0
    1.0094    2.7041   10.4712 C   0  0  0  0  0  0  0  0  0  0  0  0
    0.4562    3.7767   11.3547 C   0  0  0  0  0  0  0  0  0  0  0  0
    0.7219    5.0605   10.5862 C   0  0  0  0  0  0  0  0  0  0  0  0
    0.3410    4.6157    9.1698 C   0  0  0  0  0  0  0  0  0  0  0  0
    0.8997    3.2201    9.0464 C   0  0  0  0  0  0  0  0  0  0  0  0
    4.6763    1.3956   21.4509 N   0  0  0  0  0  0  0  0  0  0  0  0
    5.4942    0.7781   21.5383 H   0  0  0  0  0  0  0  0  0  0  0  0
    3.8235    1.6303   22.5703 C   0  0  0  0  0  0  0  0  0  0  0  0
    4.5130    2.5699   23.5335 C   0  0  0  0  0  0  0  0  0  0  0  0
    4.4642    4.9256   22.9438 C   0  0  0  0  0  0  0  0  0  0  0  0
    3.6960    3.8130   23.6637 C   0  0  0  0  0  0  0  0  0  0  0  0
 36 37  1  0  0  0
 37 35  1  0  0  0
 35 34  1  0  0  0
 34 32  1  0  0  0
 32  1  1  0  0  0
  1  2  2  0  0  0
  2  3  1  0  0  0
  3  4  2  0  0  0
  4  5  1  0  0  0
  5  6  2  0  0  0
  6  7  1  0  0  0
  7 10  1  0  0  0
 10 11  1  0  0  0
 11 12  1  0  0  0
 12 13  1  0  0  0
 13 14  1  0  0  0
 13 15  1  0  0  0
 15 16  1  0  0  0
  7  8  1  0  0  0
  8  9  2  0  0  0
  5 18  1  0  0  0
 18 19  2  0  0  0
 19 20  1  0  0  0
 20 21  2  0  0  0
 21 22  1  0  0  0
 22 23  2  0  0  0
 21 24  1  0  0  0
 24 25  2  0  0  0
 24 26  2  0  0  0
 24 27  1  0  0  0
 27 28  1  0  0  0
 28 29  1  0  0  0
 29 30  1  0  0  0
 30 31  1  0  0  0
  9  1  1  0  0  0
 23 18  1  0  0  0
 31 27  1  0  0  0
  8  4  1  0  0  0
 16 10  1  0  0  0
 32 33  1  0  0  0
 14 17  1  0  0  0
M  END
> <minimizedAffinity>
-8.38460

> <CNNscore>
0.1824726015

> <CNNaffinity>
6.9655976295

> <CNN_VS>
1.2710306644

> <CNNaffinity_variance>
0.4945323467

$$$$
[H]OC1([H])C([H])([H])C([H])([H])C([H])(n2c([H])c(-c3c([H])c([H])c(S(=O)(=O)C4([H])C([H])([H])C([H])([H])C([H])([H])C4([H])[H])c([H])c3[H])c3c([H])nc(N([H])C([H])([H])C([H])([H])C([H])([H])C([H])([H])[H])nc32)C([H])([H])C1([H])[H]


 37 41  0  0  0  0  0  0  0  0999 V2000
    3.6831    2.3235   17.7196 C   0  0  0  0  0  0  0  0  0  0  0  0
    3.1632    2.1126   16.4992 N   0  0  0  0  0  0  0  0  0  0  0  0
    3.0439    3.0943   15.5720 C   0  0  0  0  0  0  0  0  0  0  0  0
    3.4689    4.3769   15.8720 C   0  0  0  0  0  0  0  0  0  0  0  0
    3.4721    5.5492   15.1456 C   0  0  0  0  0  0  0  0  0  0  0  0
    4.0237    6.4951   15.9883 C   0  0  0  0  0  0  0  0  0  0  0  0
    4.3305    5.9037   17.1573 N   0  0  0  0  0  0  0  0  0  0  0  0
    4.0009    4.5854   17.1256 C   0  0  0  0  0  0  0  0  0  0  0  0
    4.0955    3.5700   18.0098 N   0  0  0  0  0  0  0  0  0  0  0  0
    4.9278    6.5128   18.3290 C   0  0  0  0  0  0  0  0  0  0  0  0
    5.6796    5.5512   19.1827 C   0  0  0  0  0  0  0  0  0  0  0  0
    5.9443    6.0565   20.5728 C   0  0  0  0  0  0  0  0  0  0  0  0
    5.8253    7.5358   20.7179 C   0  0  0  0  0  0  0  0  0  0  0  0
    5.7847    7.8221   22.1029 O   0  0  0  0  0  0  0  0  0  0  0  0
    4.5968    8.1268   20.1132 C   0  0  0  0  0  0  0  0  0  0  0  0
    3.8697    7.1768   19.1768 C   0  0  0  0  0  0  0  0  0  0  0  0
    4.8330    7.6383   22.3855 H   0  0  0  0  0  0  0  0  0  0  0  0
    2.9966    5.7720   13.7625 C   0  0  0  0  0  0  0  0  0  0  0  0
    1.6729    6.0406   13.5352 C   0  0  0  0  0  0  0  0  0  0  0  0
    1.2325    6.2484   12.2583 C   0  0  0  0  0  0  0  0  0  0  0  0
    2.0746    6.2003   11.1580 C   0  0  0  0  0  0  0  0  0  0  0  0
    3.3939    5.9304   11.4070 C   0  0  0  0  0  0  0  0  0  0  0  0
    3.8578    5.7179   12.6871 C   0  0  0  0  0  0  0  0  0  0  0  0
    1.4274    6.4754    9.5564 S   0  0  0  0  0  0  0  0  0  0  0  0
    0.1241    7.1723    9.6667 O   0  0  0  0  0  0  0  0  0  0  0  0
    2.3537    7.3536    8.7449 O   0  0  0  0  0  0  0  0  0  0  0  0
    1.2938    4.9333    8.7006 C   0  0  0  0  0  0  0  0  0  0  0  0
   -0.0566    4.8158    8.0683 C   0  0  0  0  0  0  0  0  0  0  0  0
    0.1291    5.4223    6.6874 C   0  0  0  0  0  0  0  0  0  0  0  0
    1.4851    4.8197    6.3037 C   0  0  0  0  0  0  0  0  0  0  0  0
    2.3051    4.8934    7.5675 C   0  0  0  0  0  0  0  0  0  0  0  0
    3.7906    1.2457   18.6778 N   0  0  0  0  0  0  0  0  0  0  0  0
    3.1915    0.4222   18.5335 H   0  0  0  0  0  0  0  0  0  0  0  0
    4.6890    1.3024   19.7846 C   0  0  0  0  0  0  0  0  0  0  0  0
    3.9152    1.6471   21.0371 C   0  0  0  0  0  0  0  0  0  0  0  0
    6.0529    2.5374   21.7698 C   0  0  0  0  0  0  0  0  0  0  0  0
    4.5518    2.8310   21.6874 C   0  0  0  0  0  0  0  0  0  0  0  0
 36 37  1  0  0  0
 37 35  1  0  0  0
 35 34  1  0  0  0
 34 32  1  0  0  0
 32  1  1  0  0  0
  1  2  2  0  0  0
  2  3  1  0  0  0
  3  4  2  0  0  0
  4  5  1  0  0  0
  5  6  2  0  0  0
  6  7  1  0  0  0
  7 10  1  0  0  0
 10 11  1  0  0  0
 11 12  1  0  0  0
 12 13  1  0  0  0
 13 14  1  0  0  0
 13 15  1  0  0  0
 15 16  1  0  0  0
  7  8  1  0  0  0
  8  9  2  0  0  0
  5 18  1  0  0  0
 18 19  2  0  0  0
 19 20  1  0  0  0
 20 21  2  0  0  0
 21 22  1  0  0  0
 22 23  2  0  0  0
 21 24  1  0  0  0
 24 25  2  0  0  0
 24 26  2  0  0  0
 24 27  1  0  0  0
 27 28  1  0  0  0
 28 29  1  0  0  0
 29 30  1  0  0  0
 30 31  1  0  0  0
  9  1  1  0  0  0
 23 18  1  0  0  0
 31 27  1  0  0  0
  8  4  1  0  0  0
 16 10  1  0  0  0
 32 33  1  0  0  0
 14 17  1  0  0  0
M  END
> <minimizedAffinity>
-6.59285

> <CNNscore>
0.1817236990

> <CNNaffinity>
6.5107970238

> <CNN_VS>
1.1831661463

> <CNNaffinity_variance>
0.3698861897

$$$$
[H]OC1([H])C([H])([H])C([H])([H])C([H])(n2c([H])c(-c3c([H])c([H])c(S(=O)(=O)C4([H])C([H])([H])C([H])([H])C([H])([H])C4([H])[H])c([H])c3[H])c3c([H])nc(N([H])C([H])([H])C([H])([H])C([H])([H])C([H])([H])[H])nc32)C([H])([H])C1([H])[H]


 37 41  0  0  0  0  0  0  0  0999 V2000
    3.4528    6.1621   12.5567 C   0  0  0  0  0  0  0  0  0  0  0  0
    3.7877    6.2077   13.8567 N   0  0  0  0  0  0  0  0  0  0  0  0
    3.7608    5.1166   14.6607 C   0  0  0  0  0  0  0  0  0  0  0  0
    3.3754    3.8921   14.1432 C   0  0  0  0  0  0  0  0  0  0  0  0
    3.2545    2.6401   14.7087 C   0  0  0  0  0  0  0  0  0  0  0  0
    2.8257    1.8200   13.6827 C   0  0  0  0  0  0  0  0  0  0  0  0
    2.7007    2.5583   12.5648 N   0  0  0  0  0  0  0  0  0  0  0  0
    3.0334    3.8534   12.8092 C   0  0  0  0  0  0  0  0  0  0  0  0
    3.0785    4.9720   12.0553 N   0  0  0  0  0  0  0  0  0  0  0  0
    2.2789    2.1138   11.2514 C   0  0  0  0  0  0  0  0  0  0  0  0
    0.9735    1.3966   11.2559 C   0  0  0  0  0  0  0  0  0  0  0  0
    0.7251    0.5863   10.0150 C   0  0  0  0  0  0  0  0  0  0  0  0
    1.5683    0.9797    8.8498 C   0  0  0  0  0  0  0  0  0  0  0  0
    1.4579   -0.0475    7.8831 O   0  0  0  0  0  0  0  0  0  0  0  0
    3.0196    1.1399    9.1535 C   0  0  0  0  0  0  0  0  0  0  0  0
    3.3197    1.2060   10.6413 C   0  0  0  0  0  0  0  0  0  0  0  0
    2.0862   -0.7744    8.1932 H   0  0  0  0  0  0  0  0  0  0  0  0
    3.5220    2.2357   16.1064 C   0  0  0  0  0  0  0  0  0  0  0  0
    4.3667    2.9867   16.8800 C   0  0  0  0  0  0  0  0  0  0  0  0
    4.6134    2.6155   18.1719 C   0  0  0  0  0  0  0  0  0  0  0  0
    4.0405    1.4942   18.7518 C   0  0  0  0  0  0  0  0  0  0  0  0
    3.1992    0.7572   17.9615 C   0  0  0  0  0  0  0  0  0  0  0  0
    2.9375    1.1147   16.6566 C   0  0  0  0  0  0  0  0  0  0  0  0
    4.4129    1.0888   20.4121 S   0  0  0  0  0  0  0  0  0  0  0  0
    3.5182   -0.0032   20.8633 O   0  0  0  0  0  0  0  0  0  0  0  0
    5.8387    0.6005   20.5403 O   0  0  0  0  0  0  0  0  0  0  0  0
    4.2679    2.5350   21.4200 C   0  0  0  0  0  0  0  0  0  0  0  0
    3.6027    2.1904   22.7145 C   0  0  0  0  0  0  0  0  0  0  0  0
    4.7547    1.8189   23.6333 C   0  0  0  0  0  0  0  0  0  0  0  0
    5.7601    2.9173   23.2698 C   0  0  0  0  0  0  0  0  0  0  0  0
    5.6539    3.0489   21.7711 C   0  0  0  0  0  0  0  0  0  0  0  0
    3.4958    7.3522   11.7362 N   0  0  0  0  0  0  0  0  0  0  0  0
    4.4183    7.7690   11.5544 H   0  0  0  0  0  0  0  0  0  0  0  0
    2.3160    7.9382   11.1885 C   0  0  0  0  0  0  0  0  0  0  0  0
    1.3375    8.2246   12.3051 C   0  0  0  0  0  0  0  0  0  0  0  0
   -0.1163    6.6973   13.5105 C   0  0  0  0  0  0  0  0  0  0  0  0
    0.1476    7.3370   12.1439 C   0  0  0  0  0  0  0  0  0  0  0  0
 36 37  1  0  0  0
 37 35  1  0  0  0
 35 34  1  0  0  0
 34 32  1  0  0  0
 32  1  1  0  0  0
  1  2  2  0  0  0
  2  3  1  0  0  0
  3  4  2  0  0  0
  4  5  1  0  0  0
  5  6  2  0  0  0
  6  7  1  0  0  0
  7 10  1  0  0  0
 10 11  1  0  0  0
 11 12  1  0  0  0
 12 13  1  0  0  0
 13 14  1  0  0  0
 13 15  1  0  0  0
 15 16  1  0  0  0
  7  8  1  0  0  0
  8  9  2  0  0  0
  5 18  1  0  0  0
 18 19  2  0  0  0
 19 20  1  0  0  0
 20 21  2  0  0  0
 21 22  1  0  0  0
 22 23  2  0  0  0
 21 24  1  0  0  0
 24 25  2  0  0  0
 24 26  2  0  0  0
 24 27  1  0  0  0
 27 28  1  0  0  0
 28 29  1  0  0  0
 29 30  1  0  0  0
 30 31  1  0  0  0
  9  1  1  0  0  0
 23 18  1  0  0  0
 31 27  1  0  0  0
  8  4  1  0  0  0
 16 10  1  0  0  0
 32 33  1  0  0  0
 14 17  1  0  0  0
M  END
> <minimizedAffinity>
-8.12880

> <CNNscore>
0.1759434193

> <CNNaffinity>
6.5454459190

> <CNN_VS>
1.1516281366

> <CNNaffinity_variance>
0.0876235068

$$$$
[H]OC1([H])C([H])([H])C([H])([H])C([H])(n2c([H])c(-c3c([H])c([H])c(S(=O)(=O)C4([H])C([H])([H])C([H])([H])C([H])([H])C4([H])[H])c([H])c3[H])c3c([H])nc(N([H])C([H])([H])C([H])([H])C([H])([H])C([H])([H])[H])nc32)C([H])([H])C1([H])[H]


 37 41  0  0  0  0  0  0  0  0999 V2000
    1.1266    2.2246   12.1298 C   0  0  0  0  0  0  0  0  0  0  0  0
    1.3931    1.4401   13.1871 N   0  0  0  0  0  0  0  0  0  0  0  0
    2.0540    1.8852   14.2837 C   0  0  0  0  0  0  0  0  0  0  0  0
    2.4825    3.2001   14.3402 C   0  0  0  0  0  0  0  0  0  0  0  0
    3.1627    3.9160   15.3028 C   0  0  0  0  0  0  0  0  0  0  0  0
    3.3004    5.1868   14.7783 C   0  0  0  0  0  0  0  0  0  0  0  0
    2.7262    5.2151   13.5617 N   0  0  0  0  0  0  0  0  0  0  0  0
    2.2054    3.9984   13.2520 C   0  0  0  0  0  0  0  0  0  0  0  0
    1.5434    3.5017   12.1858 N   0  0  0  0  0  0  0  0  0  0  0  0
    2.6336    6.3389   12.6512 C   0  0  0  0  0  0  0  0  0  0  0  0
    1.2425    6.6335   12.2079 C   0  0  0  0  0  0  0  0  0  0  0  0
    1.1696    7.4966   10.9800 C   0  0  0  0  0  0  0  0  0  0  0  0
    2.4200    8.2567   10.6928 C   0  0  0  0  0  0  0  0  0  0  0  0
    2.3162    8.7566    9.3733 O   0  0  0  0  0  0  0  0  0  0  0  0
    3.6719    7.4488   10.7569 C   0  0  0  0  0  0  0  0  0  0  0  0
    3.4834    6.0983   11.4267 C   0  0  0  0  0  0  0  0  0  0  0  0
    2.5565    7.9802    8.7742 H   0  0  0  0  0  0  0  0  0  0  0  0
    3.6483    3.4493   16.6200 C   0  0  0  0  0  0  0  0  0  0  0  0
    3.6715    4.3160   17.6804 C   0  0  0  0  0  0  0  0  0  0  0  0
    4.1180    3.8860   18.8983 C   0  0  0  0  0  0  0  0  0  0  0  0
    4.5581    2.5902   19.1203 C   0  0  0  0  0  0  0  0  0  0  0  0
    4.5268    1.7398   18.0473 C   0  0  0  0  0  0  0  0  0  0  0  0
    4.0801    2.1540   16.8112 C   0  0  0  0  0  0  0  0  0  0  0  0
    5.1167    2.1231   20.7107 S   0  0  0  0  0  0  0  0  0  0  0  0
    5.6147    0.7280   20.6659 O   0  0  0  0  0  0  0  0  0  0  0  0
    6.2585    3.0068   21.1613 O   0  0  0  0  0  0  0  0  0  0  0  0
    3.8074    2.3313   21.8814 C   0  0  0  0  0  0  0  0  0  0  0  0
    3.9814    1.3741   23.0174 C   0  0  0  0  0  0  0  0  0  0  0  0
    4.8292    2.1409   24.0187 C   0  0  0  0  0  0  0  0  0  0  0  0
    4.1607    3.5182   23.9455 C   0  0  0  0  0  0  0  0  0  0  0  0
    3.8786    3.7264   22.4786 C   0  0  0  0  0  0  0  0  0  0  0  0
    0.4185    1.7067   10.9801 N   0  0  0  0  0  0  0  0  0  0  0  0
   -0.5556    1.4074   11.1191 H   0  0  0  0  0  0  0  0  0  0  0  0
    1.0291    1.6099    9.6943 C   0  0  0  0  0  0  0  0  0  0  0  0
    0.5301    2.7379    8.8198 C   0  0  0  0  0  0  0  0  0  0  0  0
   -0.8257    4.7005    9.2770 C   0  0  0  0  0  0  0  0  0  0  0  0
   -0.8136    3.1691    9.3078 C   0  0  0  0  0  0  0  0  0  0  0  0
 36 37  1  0  0  0
 37 35  1  0  0  0
 35 34  1  0  0  0
 34 32  1  0  0  0
 32  1  1  0  0  0
  1  2  2  0  0  0
  2  3  1  0  0  0
  3  4  2  0  0  0
  4  5  1  0  0  0
  5  6  2  0  0  0
  6  7  1  0  0  0
  7 10  1  0  0  0
 10 11  1  0  0  0
 11 12  1  0  0  0
 12 13  1  0  0  0
 13 14  1  0  0  0
 13 15  1  0  0  0
 15 16  1  0  0  0
  7  8  1  0  0  0
  8  9  2  0  0  0
  5 18  1  0  0  0
 18 19  2  0  0  0
 19 20  1  0  0  0
 20 21  2  0  0  0
 21 22  1  0  0  0
 22 23  2  0  0  0
 21 24  1  0  0  0
 24 25  2  0  0  0
 24 26  2  0  0  0
 24 27  1  0  0  0
 27 28  1  0  0  0
 28 29  1  0  0  0
 29 30  1  0  0  0
 30 31  1  0  0  0
  9  1  1  0  0  0
 23 18  1  0  0  0
 31 27  1  0  0  0
  8  4  1  0  0  0
 16 10  1  0  0  0
 32 33  1  0  0  0
 14 17  1  0  0  0
M  END
> <minimizedAffinity>
-7.35757

> <CNNscore>
0.1655628383

> <CNNaffinity>
6.4919991493

> <CNN_VS>
1.0748337507

> <CNNaffinity_variance>
0.1044072360

$$$$
[H]OC1([H])C([H])([H])C([H])([H])C([H])(n2c([H])c(-c3c([H])c([H])c(S(=O)(=O)C4([H])C([H])([H])C([H])([H])C([H])([H])C4([H])[H])c([H])c3[H])c3c([H])nc(N([H])C([H])([H])C([H])([H])C([H])([H])C([H])([H])[H])nc32)C([H])([H])C1([H])[H]


 37 41  0  0  0  0  0  0  0  0999 V2000
    4.3652    2.1784   19.5794 C   0  0  0  0  0  0  0  0  0  0  0  0
    3.8860    1.8276   18.3747 N   0  0  0  0  0  0  0  0  0  0  0  0
    3.6006    2.7320   17.4060 C   0  0  0  0  0  0  0  0  0  0  0  0
    3.8034    4.0802   17.6446 C   0  0  0  0  0  0  0  0  0  0  0  0
    3.6069    5.2020   16.8669 C   0  0  0  0  0  0  0  0  0  0  0  0
    3.9925    6.2647   17.6614 C   0  0  0  0  0  0  0  0  0  0  0  0
    4.3973    5.7872   18.8525 N   0  0  0  0  0  0  0  0  0  0  0  0
    4.2951    4.4321   18.8825 C   0  0  0  0  0  0  0  0  0  0  0  0
    4.5617    3.4885   19.8100 N   0  0  0  0  0  0  0  0  0  0  0  0
    4.8854    6.5409   19.9901 C   0  0  0  0  0  0  0  0  0  0  0  0
    4.4611    7.9687   19.9852 C   0  0  0  0  0  0  0  0  0  0  0  0
    5.2724    8.8432   20.8991 C   0  0  0  0  0  0  0  0  0  0  0  0
    6.0236    8.0977   21.9496 C   0  0  0  0  0  0  0  0  0  0  0  0
    6.9642    8.9930   22.5112 O   0  0  0  0  0  0  0  0  0  0  0  0
    6.7868    6.9163   21.4536 C   0  0  0  0  0  0  0  0  0  0  0  0
    6.3932    6.4917   20.0490 C   0  0  0  0  0  0  0  0  0  0  0  0
    7.7361    9.0118   21.8607 H   0  0  0  0  0  0  0  0  0  0  0  0
    3.0979    5.2783   15.4799 C   0  0  0  0  0  0  0  0  0  0  0  0
    3.5163    6.2914   14.6586 C   0  0  0  0  0  0  0  0  0  0  0  0
    3.0485    6.3623   13.3765 C   0  0  0  0  0  0  0  0  0  0  0  0
    2.1531    5.4419   12.8536 C   0  0  0  0  0  0  0  0  0  0  0  0
    1.7474    4.4372   13.6911 C   0  0  0  0  0  0  0  0  0  0  0  0
    2.2075    4.3482   14.9870 C   0  0  0  0  0  0  0  0  0  0  0  0
    1.6020    5.6083   11.2019 S   0  0  0  0  0  0  0  0  0  0  0  0
    2.6751    6.2241   10.3860 O   0  0  0  0  0  0  0  0  0  0  0  0
    1.2833    4.2570   10.6019 O   0  0  0  0  0  0  0  0  0  0  0  0
    0.1080    6.5545   11.1703 C   0  0  0  0  0  0  0  0  0  0  0  0
   -1.0594    5.6567   10.9091 C   0  0  0  0  0  0  0  0  0  0  0  0
   -1.5101    5.2258   12.2950 C   0  0  0  0  0  0  0  0  0  0  0  0
   -1.4025    6.5583   13.0446 C   0  0  0  0  0  0  0  0  0  0  0  0
   -0.1255    7.1788   12.5356 C   0  0  0  0  0  0  0  0  0  0  0  0
    4.6553    1.1788   20.5835 N   0  0  0  0  0  0  0  0  0  0  0  0
    4.4171    0.2029   20.3628 H   0  0  0  0  0  0  0  0  0  0  0  0
    5.2514    1.5132   21.8358 C   0  0  0  0  0  0  0  0  0  0  0  0
    4.1625    1.7797   22.8504 C   0  0  0  0  0  0  0  0  0  0  0  0
    3.6317    4.0882   23.3873 C   0  0  0  0  0  0  0  0  0  0  0  0
    4.5760    2.9267   23.7124 C   0  0  0  0  0  0  0  0  0  0  0  0
 36 37  1  0  0  0
 37 35  1  0  0  0
 35 34  1  0  0  0
 34 32  1  0  0  0
 32  1  1  0  0  0
  1  2  2  0  0  0
  2  3  1  0  0  0
  3  4  2  0  0  0
  4  5  1  0  0  0
  5  6  2  0  0  0
  6  7  1  0  0  0
  7 10  1  0  0  0
 10 11  1  0  0  0
 11 12  1  0  0  0
 12 13  1  0  0  0
 13 14  1  0  0  0
 13 15  1  0  0  0
 15 16  1  0  0  0
  7  8  1  0  0  0
  8  9  2  0  0  0
  5 18  1  0  0  0
 18 19  2  0  0  0
 19 20  1  0  0  0
 20 21  2  0  0  0
 21 22  1  0  0  0
 22 23  2  0  0  0
 21 24  1  0  0  0
 24 25  2  0  0  0
 24 26  2  0  0  0
 24 27  1  0  0  0
 27 28  1  0  0  0
 28 29  1  0  0  0
 29 30  1  0  0  0
 30 31  1  0  0  0
  9  1  1  0  0  0
 23 18  1  0  0  0
 31 27  1  0  0  0
  8  4  1  0  0  0
 16 10  1  0  0  0
 32 33  1  0  0  0
 14 17  1  0  0  0
M  END
> <minimizedAffinity>
-8.08877

> <CNNscore>
0.1604959369

> <CNNaffinity>
6.7200593948

> <CNN_VS>
1.0785422325

> <CNNaffinity_variance>
0.2054985017

$$$$
[H]O[C@]1([H])C([H])([H])C([H])([H])[C@@]([H])(N([H])c2nc(N([H])C([H])([H])C([H])([H])C([H])([H])C([H])([H])[H])nc([H])c2C(=O)N([H])C([H])([H])c2c([H])c(OC([H])([H])[H])c([H])c(OC([H])([H])[H])c2[H])C([H])([H])C1([H])[H]


 37 39  0  0  0  0  0  0  0  0999 V2000
    2.9663    0.1064   18.8048 C   0  0  0  0  0  0  0  0  0  0  0  0
    2.3731   -0.2578   17.6646 N   0  0  0  0  0  0  0  0  0  0  0  0
    2.4751    0.3732   16.5040 C   0  0  0  0  0  0  0  0  0  0  0  0
    3.2596    1.5186   16.4281 C   0  0  0  0  0  0  0  0  0  0  0  0
    3.8845    1.9202   17.5849 C   0  0  0  0  0  0  0  0  0  0  0  0
    3.7264    1.2091   18.7472 N   0  0  0  0  0  0  0  0  0  0  0  0
    3.3321    2.1803   15.1510 C   0  0  0  0  0  0  0  0  0  0  0  0
    4.0866    3.1557   14.9520 O   0  0  0  0  0  0  0  0  0  0  0  0
    2.5656    1.7912   14.0184 N   0  0  0  0  0  0  0  0  0  0  0  0
    1.9189    0.9930   14.0927 H   0  0  0  0  0  0  0  0  0  0  0  0
    2.6493    2.4716   12.7384 C   0  0  0  0  0  0  0  0  0  0  0  0
    1.5125    3.3790   12.4813 C   0  0  0  0  0  0  0  0  0  0  0  0
    0.7262    3.2101   11.3507 C   0  0  0  0  0  0  0  0  0  0  0  0
   -0.3459    4.0071   11.0278 C   0  0  0  0  0  0  0  0  0  0  0  0
   -0.6490    5.0466   11.9025 C   0  0  0  0  0  0  0  0  0  0  0  0
    0.0898    5.2637   13.0343 C   0  0  0  0  0  0  0  0  0  0  0  0
    1.1693    4.4193   13.3092 C   0  0  0  0  0  0  0  0  0  0  0  0
   -1.1046    3.7862    9.8681 O   0  0  0  0  0  0  0  0  0  0  0  0
   -0.4100    3.3525    8.7152 C   0  0  0  0  0  0  0  0  0  0  0  0
   -0.2087    6.3055   13.9173 O   0  0  0  0  0  0  0  0  0  0  0  0
   -1.5176    6.8058   14.0358 C   0  0  0  0  0  0  0  0  0  0  0  0
    2.8052   -0.6224   20.0065 N   0  0  0  0  0  0  0  0  0  0  0  0
    2.1132   -1.3959   20.0597 H   0  0  0  0  0  0  0  0  0  0  0  0
    3.5772   -0.3280   21.1786 C   0  0  0  0  0  0  0  0  0  0  0  0
    2.9770    0.7455   22.0191 C   0  0  0  0  0  0  0  0  0  0  0  0
    4.5231    1.8999   23.6140 C   0  0  0  0  0  0  0  0  0  0  0  0
    3.9252    1.9056   22.2450 C   0  0  0  0  0  0  0  0  0  0  0  0
    4.7159    3.0500   17.6472 N   0  0  0  0  0  0  0  0  0  0  0  0
    5.4655    3.2043   16.9600 H   0  0  0  0  0  0  0  0  0  0  0  0
    4.5858    4.0608   18.6654 C   0  0  0  0  0  0  0  0  0  0  0  0
    5.8242    4.8621   18.9367 C   0  0  0  0  0  0  0  0  0  0  0  0
    5.6356    5.4472   20.3397 C   0  0  0  0  0  0  0  0  0  0  0  0
    4.3912    6.2846   20.4176 C   0  0  0  0  0  0  0  0  0  0  0  0
    4.0916    6.4288   21.7920 O   0  0  0  0  0  0  0  0  0  0  0  0
    3.1858    5.6924   19.7693 C   0  0  0  0  0  0  0  0  0  0  0  0
    3.4698    5.0494   18.4207 C   0  0  0  0  0  0  0  0  0  0  0  0
    3.6518    5.5910   22.0541 H   0  0  0  0  0  0  0  0  0  0  0  0
 26 27  1  0  0  0
 27 25  1  0  0  0
 25 24  1  0  0  0
 24 22  1  0  0  0
 22  1  1  0  0  0
  1  2  2  0  0  0
  2  3  1  0  0  0
  3  4  2  0  0  0
  4  7  1  0  0  0
  7  8  2  0  0  0
  7  9  1  0  0  0
  9 11  1  0  0  0
 11 12  1  0  0  0
 12 13  2  0  0  0
 13 14  1  0  0  0
 14 18  1  0  0  0
 18 19  1  0  0  0
 14 15  2  0  0  0
 15 16  1  0  0  0
 16 20  1  0  0  0
 20 21  1  0  0  0
 16 17  2  0  0  0
  4  5  1  0  0  0
  5 28  1  0  0  0
 28 30  1  0  0  0
 30 31  1  0  0  0
 31 32  1  0  0  0
 32 33  1  0  0  0
 33 34  1  0  0  0
 33 35  1  0  0  0
 35 36  1  0  0  0
  5  6  2  0  0  0
  6  1  1  0  0  0
 17 12  1  0  0  0
 36 30  1  0  0  0
 22 23  1  0  0  0
  9 10  1  0  0  0
 28 29  1  0  0  0
 34 37  1  0  0  0
M  END
> <minimizedAffinity>
-7.76147

> <CNNscore>
0.8989799023

> <CNNaffinity>
7.2071213722

> <CNN_VS>
6.4790573120

> <CNNaffinity_variance>
0.2062409818

$$$$
[H]O[C@]1([H])C([H])([H])C([H])([H])[C@@]([H])(N([H])c2nc(N([H])C([H])([H])C([H])([H])C([H])([H])C([H])([H])[H])nc([H])c2C(=O)N([H])C([H])([H])c2c([H])c(OC([H])([H])[H])c([H])c(OC([H])([H])[H])c2[H])C([H])([H])C1([H])[H]


 37 39  0  0  0  0  0  0  0  0999 V2000
    2.9338    0.1458   18.6589 C   0  0  0  0  0  0  0  0  0  0  0  0
    2.2002   -0.0315   17.5566 N   0  0  0  0  0  0  0  0  0  0  0  0
    2.2709    0.7007   16.4546 C   0  0  0  0  0  0  0  0  0  0  0  0
    3.1765    1.7546   16.4046 C   0  0  0  0  0  0  0  0  0  0  0  0
    3.9474    1.9636   17.5236 C   0  0  0  0  0  0  0  0  0  0  0  0
    3.8117    1.1582   18.6256 N   0  0  0  0  0  0  0  0  0  0  0  0
    3.2111    2.5324   15.1931 C   0  0  0  0  0  0  0  0  0  0  0  0
    4.1574    3.3033   14.9273 O   0  0  0  0  0  0  0  0  0  0  0  0
    2.1898    2.4952   14.2045 N   0  0  0  0  0  0  0  0  0  0  0  0
    1.3728    1.8830   14.3410 H   0  0  0  0  0  0  0  0  0  0  0  0
    2.2397    3.2885   12.9893 C   0  0  0  0  0  0  0  0  0  0  0  0
    1.3353    4.4562   13.0140 C   0  0  0  0  0  0  0  0  0  0  0  0
    0.0196    4.3293   12.5918 C   0  0  0  0  0  0  0  0  0  0  0  0
   -0.8901    5.3593   12.5748 C   0  0  0  0  0  0  0  0  0  0  0  0
   -0.4466    6.6039   13.0126 C   0  0  0  0  0  0  0  0  0  0  0  0
    0.8399    6.7916   13.4411 C   0  0  0  0  0  0  0  0  0  0  0  0
    1.7196    5.7053   13.4352 C   0  0  0  0  0  0  0  0  0  0  0  0
   -2.2094    5.1690   12.1358 O   0  0  0  0  0  0  0  0  0  0  0  0
   -2.3880    4.5463   10.8789 C   0  0  0  0  0  0  0  0  0  0  0  0
    1.2923    8.0386   13.8823 O   0  0  0  0  0  0  0  0  0  0  0  0
    2.6643    8.3458   13.9108 C   0  0  0  0  0  0  0  0  0  0  0  0
    2.7967   -0.6809   19.7987 N   0  0  0  0  0  0  0  0  0  0  0  0
    2.1470   -1.4919   19.7809 H   0  0  0  0  0  0  0  0  0  0  0  0
    3.5360   -0.4369   21.0030 C   0  0  0  0  0  0  0  0  0  0  0  0
    2.9306    0.6242   21.8554 C   0  0  0  0  0  0  0  0  0  0  0  0
    4.1773    2.7949   21.8397 C   0  0  0  0  0  0  0  0  0  0  0  0
    3.9728    1.4888   22.5354 C   0  0  0  0  0  0  0  0  0  0  0  0
    4.9100    2.9828   17.6042 N   0  0  0  0  0  0  0  0  0  0  0  0
    5.7862    2.9382   17.0675 H   0  0  0  0  0  0  0  0  0  0  0  0
    4.7465    4.1481   18.4354 C   0  0  0  0  0  0  0  0  0  0  0  0
    5.7794    5.2194   18.2495 C   0  0  0  0  0  0  0  0  0  0  0  0
    5.7432    6.0523   19.5345 C   0  0  0  0  0  0  0  0  0  0  0  0
    4.3744    6.6214   19.7759 C   0  0  0  0  0  0  0  0  0  0  0  0
    4.3350    7.0051   21.1364 O   0  0  0  0  0  0  0  0  0  0  0  0
    3.2448    5.6725   19.5586 C   0  0  0  0  0  0  0  0  0  0  0  0
    3.3966    4.8154   18.3115 C   0  0  0  0  0  0  0  0  0  0  0  0
    4.1767    6.1762   21.6384 H   0  0  0  0  0  0  0  0  0  0  0  0
 26 27  1  0  0  0
 27 25  1  0  0  0
 25 24  1  0  0  0
 24 22  1  0  0  0
 22  1  1  0  0  0
  1  2  2  0  0  0
  2  3  1  0  0  0
  3  4  2  0  0  0
  4  7  1  0  0  0
  7  8  2  0  0  0
  7  9  1  0  0  0
  9 11  1  0  0  0
 11 12  1  0  0  0
 12 13  2  0  0  0
 13 14  1  0  0  0
 14 18  1  0  0  0
 18 19  1  0  0  0
 14 15  2  0  0  0
 15 16  1  0  0  0
 16 20  1  0  0  0
 20 21  1  0  0  0
 16 17  2  0  0  0
  4  5  1  0  0  0
  5 28  1  0  0  0
 28 30  1  0  0  0
 30 31  1  0  0  0
 31 32  1  0  0  0
 32 33  1  0  0  0
 33 34  1  0  0  0
 33 35  1  0  0  0
 35 36  1  0  0  0
  5  6  2  0  0  0
  6  1  1  0  0  0
 17 12  1  0  0  0
 36 30  1  0  0  0
 22 23  1  0  0  0
  9 10  1  0  0  0
 28 29  1  0  0  0
 34 37  1  0  0  0
M  END
> <minimizedAffinity>
-7.83858

> <CNNscore>
0.8989122510

> <CNNaffinity>
7.0625367165

> <CNN_VS>
6.3486008644

> <CNNaffinity_variance>
0.1624305546

$$$$
[H]O[C@]1([H])C([H])([H])C([H])([H])[C@@]([H])(N([H])c2nc(N([H])C([H])([H])C([H])([H])C([H])([H])C([H])([H])[H])nc([H])c2C(=O)N([H])C([H])([H])c2c([H])c(OC([H])([H])[H])c([H])c(OC([H])([H])[H])c2[H])C([H])([H])C1([H])[H]


 37 39  0  0  0  0  0  0  0  0999 V2000
    2.9433    0.1558   18.3183 C   0  0  0  0  0  0  0  0  0  0  0  0
    2.2254   -0.0845   17.2176 N   0  0  0  0  0  0  0  0  0  0  0  0
    2.2283    0.6523   16.1163 C   0  0  0  0  0  0  0  0  0  0  0  0
    3.0371    1.7822   16.0654 C   0  0  0  0  0  0  0  0  0  0  0  0
    3.7894    2.0573   17.1828 C   0  0  0  0  0  0  0  0  0  0  0  0
    3.7283    1.2419   18.2841 N   0  0  0  0  0  0  0  0  0  0  0  0
    2.9996    2.5613   14.8548 C   0  0  0  0  0  0  0  0  0  0  0  0
    3.9581    3.2789   14.4987 O   0  0  0  0  0  0  0  0  0  0  0  0
    1.8883    2.5851   13.9682 N   0  0  0  0  0  0  0  0  0  0  0  0
    1.0550    2.0191   14.1831 H   0  0  0  0  0  0  0  0  0  0  0  0
    1.8665    3.3788   12.7525 C   0  0  0  0  0  0  0  0  0  0  0  0
    1.0140    4.5810   12.8525 C   0  0  0  0  0  0  0  0  0  0  0  0
    1.5464    5.7785   13.3081 C   0  0  0  0  0  0  0  0  0  0  0  0
    0.8295    6.9438   13.4389 C   0  0  0  0  0  0  0  0  0  0  0  0
   -0.5166    6.9027   13.0870 C   0  0  0  0  0  0  0  0  0  0  0  0
   -1.0989    5.7508   12.6310 C   0  0  0  0  0  0  0  0  0  0  0  0
   -0.3181    4.5967   12.5196 C   0  0  0  0  0  0  0  0  0  0  0  0
    1.4246    8.1257   13.9063 O   0  0  0  0  0  0  0  0  0  0  0  0
    2.6560    8.5030   13.3223 C   0  0  0  0  0  0  0  0  0  0  0  0
   -2.4501    5.7020   12.2757 O   0  0  0  0  0  0  0  0  0  0  0  0
   -2.9432    4.6937   11.4286 C   0  0  0  0  0  0  0  0  0  0  0  0
    2.8828   -0.6810   19.4573 N   0  0  0  0  0  0  0  0  0  0  0  0
    3.0696   -1.6994   19.3680 H   0  0  0  0  0  0  0  0  0  0  0  0
    2.5667   -0.1661   20.7578 C   0  0  0  0  0  0  0  0  0  0  0  0
    3.7658    0.0094   21.6240 C   0  0  0  0  0  0  0  0  0  0  0  0
    4.1703    2.4798   21.6272 C   0  0  0  0  0  0  0  0  0  0  0  0
    3.7232    1.2967   22.4222 C   0  0  0  0  0  0  0  0  0  0  0  0
    4.6583    3.1575   17.2623 N   0  0  0  0  0  0  0  0  0  0  0  0
    5.4279    3.2841   16.5918 H   0  0  0  0  0  0  0  0  0  0  0  0
    4.5412    4.1740   18.2764 C   0  0  0  0  0  0  0  0  0  0  0  0
    5.7510    5.0414   18.4587 C   0  0  0  0  0  0  0  0  0  0  0  0
    5.6225    5.6351   19.8649 C   0  0  0  0  0  0  0  0  0  0  0  0
    4.3437    6.4085   20.0145 C   0  0  0  0  0  0  0  0  0  0  0  0
    4.1257    6.5559   21.4039 O   0  0  0  0  0  0  0  0  0  0  0  0
    3.1318    5.7464   19.4517 C   0  0  0  0  0  0  0  0  0  0  0  0
    3.3618    5.1006   18.0943 C   0  0  0  0  0  0  0  0  0  0  0  0
    3.7479    5.7002   21.7025 H   0  0  0  0  0  0  0  0  0  0  0  0
 26 27  1  0  0  0
 27 25  1  0  0  0
 25 24  1  0  0  0
 24 22  1  0  0  0
 22  1  1  0  0  0
  1  2  2  0  0  0
  2  3  1  0  0  0
  3  4  2  0  0  0
  4  7  1  0  0  0
  7  8  2  0  0  0
  7  9  1  0  0  0
  9 11  1  0  0  0
 11 12  1  0  0  0
 12 13  2  0  0  0
 13 14  1  0  0  0
 14 18  1  0  0  0
 18 19  1  0  0  0
 14 15  2  0  0  0
 15 16  1  0  0  0
 16 20  1  0  0  0
 20 21  1  0  0  0
 16 17  2  0  0  0
  4  5  1  0  0  0
  5 28  1  0  0  0
 28 30  1  0  0  0
 30 31  1  0  0  0
 31 32  1  0  0  0
 32 33  1  0  0  0
 33 34  1  0  0  0
 33 35  1  0  0  0
 35 36  1  0  0  0
  5  6  2  0  0  0
  6  1  1  0  0  0
 17 12  1  0  0  0
 36 30  1  0  0  0
 22 23  1  0  0  0
  9 10  1  0  0  0
 28 29  1  0  0  0
 34 37  1  0  0  0
M  END
> <minimizedAffinity>
-7.86025

> <CNNscore>
0.8830921650

> <CNNaffinity>
7.0067834854

> <CNN_VS>
6.1876354218

> <CNNaffinity_variance>
0.1704306304

$$$$
[H]O[C@]1([H])C([H])([H])C([H])([H])[C@@]([H])(N([H])c2nc(N([H])C([H])([H])C([H])([H])C([H])([H])C([H])([H])[H])nc([H])c2C(=O)N([H])C([H])([H])c2c([H])c(OC([H])([H])[H])c([H])c(OC([H])([H])[H])c2[H])C([H])([H])C1([H])[H]


 37 39  0  0  0  0  0  0  0  0999 V2000
    2.9631    0.0999   18.8708 C   0  0  0  0  0  0  0  0  0  0  0  0
    2.3208   -0.1860   17.7349 N   0  0  0  0  0  0  0  0  0  0  0  0
    2.4270    0.4840   16.5968 C   0  0  0  0  0  0  0  0  0  0  0  0
    3.2716    1.5872   16.5424 C   0  0  0  0  0  0  0  0  0  0  0  0
    3.9481    1.9079   17.6954 C   0  0  0  0  0  0  0  0  0  0  0  0
    3.7814    1.1609   18.8337 N   0  0  0  0  0  0  0  0  0  0  0  0
    3.3470    2.2942   15.2899 C   0  0  0  0  0  0  0  0  0  0  0  0
    3.1447    1.7269   14.1956 O   0  0  0  0  0  0  0  0  0  0  0  0
    3.6526    3.6789   15.1850 N   0  0  0  0  0  0  0  0  0  0  0  0
    3.8305    4.2259   16.0394 H   0  0  0  0  0  0  0  0  0  0  0  0
    3.7270    4.3755   13.9132 C   0  0  0  0  0  0  0  0  0  0  0  0
    2.7055    5.4319   13.7628 C   0  0  0  0  0  0  0  0  0  0  0  0
    1.4042    5.1002   13.4137 C   0  0  0  0  0  0  0  0  0  0  0  0
    0.3913    6.0139   13.2465 C   0  0  0  0  0  0  0  0  0  0  0  0
    0.7083    7.3548   13.4442 C   0  0  0  0  0  0  0  0  0  0  0  0
    1.9743    7.7442   13.7898 C   0  0  0  0  0  0  0  0  0  0  0  0
    2.9630    6.7683   13.9452 C   0  0  0  0  0  0  0  0  0  0  0  0
   -0.9072    5.6168   12.8922 O   0  0  0  0  0  0  0  0  0  0  0  0
   -1.9494    6.5467   13.1131 C   0  0  0  0  0  0  0  0  0  0  0  0
    2.3000    9.0888   13.9901 O   0  0  0  0  0  0  0  0  0  0  0  0
    3.3479    9.4629   14.8499 C   0  0  0  0  0  0  0  0  0  0  0  0
    2.7936   -0.6663   20.0479 N   0  0  0  0  0  0  0  0  0  0  0  0
    2.0424   -1.3825   20.1016 H   0  0  0  0  0  0  0  0  0  0  0  0
    3.6369   -0.4881   21.1940 C   0  0  0  0  0  0  0  0  0  0  0  0
    3.1931    0.6251   22.0787 C   0  0  0  0  0  0  0  0  0  0  0  0
    4.0010    2.9818   22.3238 C   0  0  0  0  0  0  0  0  0  0  0  0
    4.3345    1.5346   22.4859 C   0  0  0  0  0  0  0  0  0  0  0  0
    4.8422    2.9876   17.7771 N   0  0  0  0  0  0  0  0  0  0  0  0
    5.6563    3.0597   17.1526 H   0  0  0  0  0  0  0  0  0  0  0  0
    4.6908    4.0572   18.7302 C   0  0  0  0  0  0  0  0  0  0  0  0
    5.8507    5.0035   18.8230 C   0  0  0  0  0  0  0  0  0  0  0  0
    5.7236    5.6757   20.1935 C   0  0  0  0  0  0  0  0  0  0  0  0
    4.4050    6.3810   20.3336 C   0  0  0  0  0  0  0  0  0  0  0  0
    4.2150    6.6024   21.7173 O   0  0  0  0  0  0  0  0  0  0  0  0
    3.2207    5.6154   19.8488 C   0  0  0  0  0  0  0  0  0  0  0  0
    3.4535    4.9001   18.5271 C   0  0  0  0  0  0  0  0  0  0  0  0
    3.8972    5.7465   22.0788 H   0  0  0  0  0  0  0  0  0  0  0  0
 26 27  1  0  0  0
 27 25  1  0  0  0
 25 24  1  0  0  0
 24 22  1  0  0  0
 22  1  1  0  0  0
  1  2  2  0  0  0
  2  3  1  0  0  0
  3  4  2  0  0  0
  4  7  1  0  0  0
  7  8  2  0  0  0
  7  9  1  0  0  0
  9 11  1  0  0  0
 11 12  1  0  0  0
 12 13  2  0  0  0
 13 14  1  0  0  0
 14 18  1  0  0  0
 18 19  1  0  0  0
 14 15  2  0  0  0
 15 16  1  0  0  0
 16 20  1  0  0  0
 20 21  1  0  0  0
 16 17  2  0  0  0
  4  5  1  0  0  0
  5 28  1  0  0  0
 28 30  1  0  0  0
 30 31  1  0  0  0
 31 32  1  0  0  0
 32 33  1  0  0  0
 33 34  1  0  0  0
 33 35  1  0  0  0
 35 36  1  0  0  0
  5  6  2  0  0  0
  6  1  1  0  0  0
 17 12  1  0  0  0
 36 30  1  0  0  0
 22 23  1  0  0  0
  9 10  1  0  0  0
 28 29  1  0  0  0
 34 37  1  0  0  0
M  END
> <minimizedAffinity>
-8.19678

> <CNNscore>
0.8055822849

> <CNNaffinity>
6.9840760231

> <CNN_VS>
5.6262478828

> <CNNaffinity_variance>
0.2266079932

$$$$
[H]O[C@]1([H])C([H])([H])C([H])([H])[C@@]([H])(N([H])c2nc(N([H])C([H])([H])C([H])([H])C([H])([H])C([H])([H])[H])nc([H])c2C(=O)N([H])C([H])([H])c2c([H])c(OC([H])([H])[H])c([H])c(OC([H])([H])[H])c2[H])C([H])([H])C1([H])[H]


 37 39  0  0  0  0  0  0  0  0999 V2000
    3.2761    0.7840   18.8615 C   0  0  0  0  0  0  0  0  0  0  0  0
    2.7839    0.4149   17.6757 N   0  0  0  0  0  0  0  0  0  0  0  0
    2.8039    1.1438   16.5694 C   0  0  0  0  0  0  0  0  0  0  0  0
    3.3795    2.4090   16.6081 C   0  0  0  0  0  0  0  0  0  0  0  0
    3.8959    2.8188   17.8145 C   0  0  0  0  0  0  0  0  0  0  0  0
    3.8345    2.0015   18.9144 N   0  0  0  0  0  0  0  0  0  0  0  0
    3.3680    3.1722   15.3869 C   0  0  0  0  0  0  0  0  0  0  0  0
    4.3531    3.8452   15.0168 O   0  0  0  0  0  0  0  0  0  0  0  0
    2.2543    3.2289   14.5047 N   0  0  0  0  0  0  0  0  0  0  0  0
    1.3997    2.7003   14.7309 H   0  0  0  0  0  0  0  0  0  0  0  0
    2.2591    4.0059   13.2781 C   0  0  0  0  0  0  0  0  0  0  0  0
    1.9244    3.2108   12.0790 C   0  0  0  0  0  0  0  0  0  0  0  0
    2.7957    2.2307   11.6257 C   0  0  0  0  0  0  0  0  0  0  0  0
    2.5708    1.4474   10.5190 C   0  0  0  0  0  0  0  0  0  0  0  0
    1.3874    1.6642    9.8190 C   0  0  0  0  0  0  0  0  0  0  0  0
    0.4882    2.6165   10.2172 C   0  0  0  0  0  0  0  0  0  0  0  0
    0.7727    3.3826   11.3514 C   0  0  0  0  0  0  0  0  0  0  0  0
    3.4913    0.4706   10.1091 O   0  0  0  0  0  0  0  0  0  0  0  0
    4.3154    0.7839    9.0035 C   0  0  0  0  0  0  0  0  0  0  0  0
   -0.7023    2.8398    9.5193 O   0  0  0  0  0  0  0  0  0  0  0  0
   -1.2393    1.8599    8.6655 C   0  0  0  0  0  0  0  0  0  0  0  0
    3.2139   -0.0543   19.9993 N   0  0  0  0  0  0  0  0  0  0  0  0
    3.2207   -1.0876   19.8880 H   0  0  0  0  0  0  0  0  0  0  0  0
    3.1402    0.4791   21.3284 C   0  0  0  0  0  0  0  0  0  0  0  0
    4.4692    0.5733   21.9947 C   0  0  0  0  0  0  0  0  0  0  0  0
    6.3191    2.2599   21.9857 C   0  0  0  0  0  0  0  0  0  0  0  0
    4.8767    2.0047   22.2794 C   0  0  0  0  0  0  0  0  0  0  0  0
    4.5168    4.0658   17.9915 N   0  0  0  0  0  0  0  0  0  0  0  0
    4.8488    4.6194   17.1908 H   0  0  0  0  0  0  0  0  0  0  0  0
    4.7355    4.6527   19.2889 C   0  0  0  0  0  0  0  0  0  0  0  0
    5.8439    5.6605   19.3592 C   0  0  0  0  0  0  0  0  0  0  0  0
    6.2429    5.7299   20.8364 C   0  0  0  0  0  0  0  0  0  0  0  0
    5.0741    6.1128   21.6986 C   0  0  0  0  0  0  0  0  0  0  0  0
    5.4202    5.7564   23.0226 O   0  0  0  0  0  0  0  0  0  0  0  0
    3.7950    5.4153   21.3804 C   0  0  0  0  0  0  0  0  0  0  0  0
    3.5124    5.3047   19.8903 C   0  0  0  0  0  0  0  0  0  0  0  0
    5.2629    4.7892   23.0836 H   0  0  0  0  0  0  0  0  0  0  0  0
 26 27  1  0  0  0
 27 25  1  0  0  0
 25 24  1  0  0  0
 24 22  1  0  0  0
 22  1  1  0  0  0
  1  2  2  0  0  0
  2  3  1  0  0  0
  3  4  2  0  0  0
  4  7  1  0  0  0
  7  8  2  0  0  0
  7  9  1  0  0  0
  9 11  1  0  0  0
 11 12  1  0  0  0
 12 13  2  0  0  0
 13 14  1  0  0  0
 14 18  1  0  0  0
 18 19  1  0  0  0
 14 15  2  0  0  0
 15 16  1  0  0  0
 16 20  1  0  0  0
 20 21  1  0  0  0
 16 17  2  0  0  0
  4  5  1  0  0  0
  5 28  1  0  0  0
 28 30  1  0  0  0
 30 31  1  0  0  0
 31 32  1  0  0  0
 32 33  1  0  0  0
 33 34  1  0  0  0
 33 35  1  0  0  0
 35 36  1  0  0  0
  5  6  2  0  0  0
  6  1  1  0  0  0
 17 12  1  0  0  0
 36 30  1  0  0  0
 22 23  1  0  0  0
  9 10  1  0  0  0
 28 29  1  0  0  0
 34 37  1  0  0  0
M  END
> <minimizedAffinity>
-6.65243

> <CNNscore>
0.7123847008

> <CNNaffinity>
6.8873429298

> <CNN_VS>
4.9064378738

> <CNNaffinity_variance>
0.3004644513

$$$$
[H]O[C@]1([H])C([H])([H])C([H])([H])[C@@]([H])(N([H])c2nc(N([H])C([H])([H])C([H])([H])C([H])([H])C([H])([H])[H])nc([H])c2C(=O)N([H])C([H])([H])c2c([H])c(OC([H])([H])[H])c([H])c(OC([H])([H])[H])c2[H])C([H])([H])C1([H])[H]


 37 39  0  0  0  0  0  0  0  0999 V2000
    3.4759    1.2036   17.9507 C   0  0  0  0  0  0  0  0  0  0  0  0
    2.9374    0.6691   16.8511 N   0  0  0  0  0  0  0  0  0  0  0  0
    2.9010    1.2358   15.6540 C   0  0  0  0  0  0  0  0  0  0  0  0
    3.4625    2.4972   15.4899 C   0  0  0  0  0  0  0  0  0  0  0  0
    4.0256    3.0750   16.6030 C   0  0  0  0  0  0  0  0  0  0  0  0
    4.0215    2.4196   17.8080 N   0  0  0  0  0  0  0  0  0  0  0  0
    3.3892    3.0816   14.1757 C   0  0  0  0  0  0  0  0  0  0  0  0
    4.1578    3.9974   13.8140 O   0  0  0  0  0  0  0  0  0  0  0  0
    2.4523    2.6771   13.1856 N   0  0  0  0  0  0  0  0  0  0  0  0
    1.7820    1.9245   13.3980 H   0  0  0  0  0  0  0  0  0  0  0  0
    2.3908    3.2793   11.8658 C   0  0  0  0  0  0  0  0  0  0  0  0
    3.0818    2.4878   10.8275 C   0  0  0  0  0  0  0  0  0  0  0  0
    4.1408    3.0380   10.1196 C   0  0  0  0  0  0  0  0  0  0  0  0
    4.8380    2.3801    9.1348 C   0  0  0  0  0  0  0  0  0  0  0  0
    4.4434    1.0780    8.8409 C   0  0  0  0  0  0  0  0  0  0  0  0
    3.4058    0.4809    9.5049 C   0  0  0  0  0  0  0  0  0  0  0  0
    2.7344    1.2011   10.4971 C   0  0  0  0  0  0  0  0  0  0  0  0
    5.9018    2.9904    8.4528 O   0  0  0  0  0  0  0  0  0  0  0  0
    7.1098    2.2616    8.3567 C   0  0  0  0  0  0  0  0  0  0  0  0
    3.0040   -0.8263    9.2152 O   0  0  0  0  0  0  0  0  0  0  0  0
    3.9162   -1.8954    9.2652 C   0  0  0  0  0  0  0  0  0  0  0  0
    3.4728    0.5326   19.1961 N   0  0  0  0  0  0  0  0  0  0  0  0
    3.1151   -0.4408   19.2644 H   0  0  0  0  0  0  0  0  0  0  0  0
    3.9549    1.1581   20.3931 C   0  0  0  0  0  0  0  0  0  0  0  0
    3.2179    0.7287   21.6143 C   0  0  0  0  0  0  0  0  0  0  0  0
    3.9027    2.8247   22.7994 C   0  0  0  0  0  0  0  0  0  0  0  0
    3.7857    1.3376   22.8804 C   0  0  0  0  0  0  0  0  0  0  0  0
    4.6386    4.3381   16.5763 N   0  0  0  0  0  0  0  0  0  0  0  0
    5.1154    4.6864   15.7341 H   0  0  0  0  0  0  0  0  0  0  0  0
    4.6489    5.2258   17.7108 C   0  0  0  0  0  0  0  0  0  0  0  0
    6.0075    5.5698   18.2447 C   0  0  0  0  0  0  0  0  0  0  0  0
    5.7771    6.0329   19.6865 C   0  0  0  0  0  0  0  0  0  0  0  0
    4.8357    7.2021   19.7388 C   0  0  0  0  0  0  0  0  0  0  0  0
    4.3764    7.2862   21.0736 O   0  0  0  0  0  0  0  0  0  0  0  0
    3.6293    7.0852   18.8701 C   0  0  0  0  0  0  0  0  0  0  0  0
    3.9241    6.5321   17.4845 C   0  0  0  0  0  0  0  0  0  0  0  0
    3.6752    6.6034   21.1534 H   0  0  0  0  0  0  0  0  0  0  0  0
 26 27  1  0  0  0
 27 25  1  0  0  0
 25 24  1  0  0  0
 24 22  1  0  0  0
 22  1  1  0  0  0
  1  2  2  0  0  0
  2  3  1  0  0  0
  3  4  2  0  0  0
  4  7  1  0  0  0
  7  8  2  0  0  0
  7  9  1  0  0  0
  9 11  1  0  0  0
 11 12  1  0  0  0
 12 13  2  0  0  0
 13 14  1  0  0  0
 14 18  1  0  0  0
 18 19  1  0  0  0
 14 15  2  0  0  0
 15 16  1  0  0  0
 16 20  1  0  0  0
 20 21  1  0  0  0
 16 17  2  0  0  0
  4  5  1  0  0  0
  5 28  1  0  0  0
 28 30  1  0  0  0
 30 31  1  0  0  0
 31 32  1  0  0  0
 32 33  1  0  0  0
 33 34  1  0  0  0
 33 35  1  0  0  0
 35 36  1  0  0  0
  5  6  2  0  0  0
  6  1  1  0  0  0
 17 12  1  0  0  0
 36 30  1  0  0  0
 22 23  1  0  0  0
  9 10  1  0  0  0
 28 29  1  0  0  0
 34 37  1  0  0  0
M  END
> <minimizedAffinity>
-6.99844

> <CNNscore>
0.6406102777

> <CNNaffinity>
6.7850966454

> <CNN_VS>
4.3466024399

> <CNNaffinity_variance>
0.3990782797

$$$$
[H]O[C@]1([H])C([H])([H])C([H])([H])[C@@]([H])(N([H])c2nc(N([H])C([H])([H])C([H])([H])C([H])([H])C([H])([H])[H])nc([H])c2C(=O)N([H])C([H])([H])c2c([H])c(OC([H])([H])[H])c([H])c(OC([H])([H])[H])c2[H])C([H])([H])C1([H])[H]


 37 39  0  0  0  0  0  0  0  0999 V2000
    3.7345    1.3810   18.1992 C   0  0  0  0  0  0  0  0  0  0  0  0
    3.1349    0.7651   17.1766 N   0  0  0  0  0  0  0  0  0  0  0  0
    3.0284    1.2386   15.9437 C   0  0  0  0  0  0  0  0  0  0  0  0
    3.5767    2.4824   15.6515 C   0  0  0  0  0  0  0  0  0  0  0  0
    4.2016    3.1426   16.6828 C   0  0  0  0  0  0  0  0  0  0  0  0
    4.2683    2.5814   17.9327 N   0  0  0  0  0  0  0  0  0  0  0  0
    3.4267    2.9647   14.3028 C   0  0  0  0  0  0  0  0  0  0  0  0
    4.0949    3.9245   13.8640 O   0  0  0  0  0  0  0  0  0  0  0  0
    2.5205    2.4026   13.3622 N   0  0  0  0  0  0  0  0  0  0  0  0
    1.9315    1.6042   13.6390 H   0  0  0  0  0  0  0  0  0  0  0  0
    2.3802    2.9032   12.0065 C   0  0  0  0  0  0  0  0  0  0  0  0
    2.1993    1.8347   11.0027 C   0  0  0  0  0  0  0  0  0  0  0  0
    0.9403    1.2987   10.7728 C   0  0  0  0  0  0  0  0  0  0  0  0
    0.6784    0.3009    9.8648 C   0  0  0  0  0  0  0  0  0  0  0  0
    1.7572   -0.1928    9.1368 C   0  0  0  0  0  0  0  0  0  0  0  0
    3.0230    0.2956    9.3190 C   0  0  0  0  0  0  0  0  0  0  0  0
    3.2270    1.3111   10.2578 C   0  0  0  0  0  0  0  0  0  0  0  0
   -0.6185   -0.2013    9.6765 O   0  0  0  0  0  0  0  0  0  0  0  0
   -1.0571   -0.3724    8.3431 C   0  0  0  0  0  0  0  0  0  0  0  0
    4.1111   -0.1952    8.5916 O   0  0  0  0  0  0  0  0  0  0  0  0
    5.2634   -0.6733    9.2405 C   0  0  0  0  0  0  0  0  0  0  0  0
    3.8046    0.8074   19.4905 N   0  0  0  0  0  0  0  0  0  0  0  0
    3.6647   -0.2147   19.6165 H   0  0  0  0  0  0  0  0  0  0  0  0
    4.0669    1.5997   20.6566 C   0  0  0  0  0  0  0  0  0  0  0  0
    3.3980    1.0771   21.8807 C   0  0  0  0  0  0  0  0  0  0  0  0
    5.0589    2.6448   22.9056 C   0  0  0  0  0  0  0  0  0  0  0  0
    4.0504    1.5715   23.1558 C   0  0  0  0  0  0  0  0  0  0  0  0
    4.8093    4.3985   16.5243 N   0  0  0  0  0  0  0  0  0  0  0  0
    5.2993    4.6528   15.6564 H   0  0  0  0  0  0  0  0  0  0  0  0
    4.7954    5.4086   17.5514 C   0  0  0  0  0  0  0  0  0  0  0  0
    6.1374    5.7688   18.1158 C   0  0  0  0  0  0  0  0  0  0  0  0
    5.8525    6.3994   19.4823 C   0  0  0  0  0  0  0  0  0  0  0  0
    4.9531    7.5954   19.3530 C   0  0  0  0  0  0  0  0  0  0  0  0
    4.4311    7.8446   20.6434 O   0  0  0  0  0  0  0  0  0  0  0  0
    3.7881    7.4180   18.4392 C   0  0  0  0  0  0  0  0  0  0  0  0
    4.1313    6.7024   17.1419 C   0  0  0  0  0  0  0  0  0  0  0  0
    3.7023    7.1972   20.7612 H   0  0  0  0  0  0  0  0  0  0  0  0
 26 27  1  0  0  0
 27 25  1  0  0  0
 25 24  1  0  0  0
 24 22  1  0  0  0
 22  1  1  0  0  0
  1  2  2  0  0  0
  2  3  1  0  0  0
  3  4  2  0  0  0
  4  7  1  0  0  0
  7  8  2  0  0  0
  7  9  1  0  0  0
  9 11  1  0  0  0
 11 12  1  0  0  0
 12 13  2  0  0  0
 13 14  1  0  0  0
 14 18  1  0  0  0
 18 19  1  0  0  0
 14 15  2  0  0  0
 15 16  1  0  0  0
 16 20  1  0  0  0
 20 21  1  0  0  0
 16 17  2  0  0  0
  4  5  1  0  0  0
  5 28  1  0  0  0
 28 30  1  0  0  0
 30 31  1  0  0  0
 31 32  1  0  0  0
 32 33  1  0  0  0
 33 34  1  0  0  0
 33 35  1  0  0  0
 35 36  1  0  0  0
  5  6  2  0  0  0
  6  1  1  0  0  0
 17 12  1  0  0  0
 36 30  1  0  0  0
 22 23  1  0  0  0
  9 10  1  0  0  0
 28 29  1  0  0  0
 34 37  1  0  0  0
M  END
> <minimizedAffinity>
-7.01485

> <CNNscore>
0.5866775513

> <CNNaffinity>
6.7241907120

> <CNN_VS>
3.9449317455

> <CNNaffinity_variance>
0.4762758315

$$$$
[H]O[C@]1([H])C([H])([H])C([H])([H])[C@@]([H])(N([H])c2nc(N([H])C([H])([H])C([H])([H])C([H])([H])C([H])([H])[H])nc([H])c2C(=O)N([H])C([H])([H])c2c([H])c(OC([H])([H])[H])c([H])c(OC([H])([H])[H])c2[H])C([H])([H])C1([H])[H]


 37 39  0  0  0  0  0  0  0  0999 V2000
    3.5020    1.9949   17.6921 C   0  0  0  0  0  0  0  0  0  0  0  0
    3.0904    1.7954   16.4369 N   0  0  0  0  0  0  0  0  0  0  0  0
    2.8213    2.7437   15.5514 C   0  0  0  0  0  0  0  0  0  0  0  0
    2.9690    4.0746   15.9258 C   0  0  0  0  0  0  0  0  0  0  0  0
    3.3919    4.3140   17.2118 C   0  0  0  0  0  0  0  0  0  0  0  0
    3.6493    3.2733   18.0675 N   0  0  0  0  0  0  0  0  0  0  0  0
    2.6532    5.0728   14.9369 C   0  0  0  0  0  0  0  0  0  0  0  0
    3.4175    5.3239   13.9813 O   0  0  0  0  0  0  0  0  0  0  0  0
    1.4631    5.8506   14.9558 N   0  0  0  0  0  0  0  0  0  0  0  0
    0.7741    5.7064   15.7077 H   0  0  0  0  0  0  0  0  0  0  0  0
    1.1618    6.8551   13.9516 C   0  0  0  0  0  0  0  0  0  0  0  0
    0.1685    6.4074   12.9542 C   0  0  0  0  0  0  0  0  0  0  0  0
    0.5857    5.8190   11.7688 C   0  0  0  0  0  0  0  0  0  0  0  0
   -0.2643    5.3777   10.7831 C   0  0  0  0  0  0  0  0  0  0  0  0
   -1.6291    5.5390   11.0041 C   0  0  0  0  0  0  0  0  0  0  0  0
   -2.1019    6.1123   12.1538 C   0  0  0  0  0  0  0  0  0  0  0  0
   -1.1879    6.5420   13.1203 C   0  0  0  0  0  0  0  0  0  0  0  0
    0.2182    4.7897    9.6038 O   0  0  0  0  0  0  0  0  0  0  0  0
   -0.3535    3.5555    9.2172 C   0  0  0  0  0  0  0  0  0  0  0  0
   -3.4710    6.2774   12.3828 O   0  0  0  0  0  0  0  0  0  0  0  0
   -4.4237    5.5412   11.6563 C   0  0  0  0  0  0  0  0  0  0  0  0
    3.7673    0.9252   18.5790 N   0  0  0  0  0  0  0  0  0  0  0  0
    3.5873   -0.0550   18.2842 H   0  0  0  0  0  0  0  0  0  0  0  0
    4.2862    1.1472   19.8973 C   0  0  0  0  0  0  0  0  0  0  0  0
    3.4010    0.6153   20.9709 C   0  0  0  0  0  0  0  0  0  0  0  0
    4.0337    2.6927   22.2162 C   0  0  0  0  0  0  0  0  0  0  0  0
    3.6810    1.2448   22.3205 C   0  0  0  0  0  0  0  0  0  0  0  0
    3.5955    5.6083   17.7168 N   0  0  0  0  0  0  0  0  0  0  0  0
    2.9820    6.3907   17.4532 H   0  0  0  0  0  0  0  0  0  0  0  0
    4.6653    5.9334   18.6252 C   0  0  0  0  0  0  0  0  0  0  0  0
    5.6267    6.9762   18.1380 C   0  0  0  0  0  0  0  0  0  0  0  0
    6.9049    6.7710   18.9568 C   0  0  0  0  0  0  0  0  0  0  0  0
    6.6340    6.8944   20.4289 C   0  0  0  0  0  0  0  0  0  0  0  0
    7.7346    6.3008   21.0892 O   0  0  0  0  0  0  0  0  0  0  0  0
    5.4086    6.1939   20.9099 C   0  0  0  0  0  0  0  0  0  0  0  0
    4.2052    6.3690   19.9968 C   0  0  0  0  0  0  0  0  0  0  0  0
    7.5736    5.3330   21.0497 H   0  0  0  0  0  0  0  0  0  0  0  0
 26 27  1  0  0  0
 27 25  1  0  0  0
 25 24  1  0  0  0
 24 22  1  0  0  0
 22  1  1  0  0  0
  1  2  2  0  0  0
  2  3  1  0  0  0
  3  4  2  0  0  0
  4  7  1  0  0  0
  7  8  2  0  0  0
  7  9  1  0  0  0
  9 11  1  0  0  0
 11 12  1  0  0  0
 12 13  2  0  0  0
 13 14  1  0  0  0
 14 18  1  0  0  0
 18 19  1  0  0  0
 14 15  2  0  0  0
 15 16  1  0  0  0
 16 20  1  0  0  0
 20 21  1  0  0  0
 16 17  2  0  0  0
  4  5  1  0  0  0
  5 28  1  0  0  0
 28 30  1  0  0  0
 30 31  1  0  0  0
 31 32  1  0  0  0
 32 33  1  0  0  0
 33 34  1  0  0  0
 33 35  1  0  0  0
 35 36  1  0  0  0
  5  6  2  0  0  0
  6  1  1  0  0  0
 17 12  1  0  0  0
 36 30  1  0  0  0
 22 23  1  0  0  0
  9 10  1  0  0  0
 28 29  1  0  0  0
 34 37  1  0  0  0
M  END
> <minimizedAffinity>
-6.48487

> <CNNscore>
0.3719764054

> <CNNaffinity>
6.3944339752

> <CNN_VS>
2.3785786629

> <CNNaffinity_variance>
0.5750601292

$$$$
[H]O[C@]1([H])C([H])([H])C([H])([H])[C@@]([H])(N([H])c2nc(N([H])C([H])([H])C([H])([H])C([H])([H])C([H])([H])[H])nc([H])c2C(=O)N([H])C([H])([H])c2c([H])c(OC([H])([H])[H])c([H])c(OC([H])([H])[H])c2[H])C([H])([H])C1([H])[H]


 37 39  0  0  0  0  0  0  0  0999 V2000
    4.1732    1.5779   18.4300 C   0  0  0  0  0  0  0  0  0  0  0  0
    3.4431    0.9886   17.4790 N   0  0  0  0  0  0  0  0  0  0  0  0
    3.1955    1.4847   16.2756 C   0  0  0  0  0  0  0  0  0  0  0  0
    3.7254    2.7249   15.9375 C   0  0  0  0  0  0  0  0  0  0  0  0
    4.4824    3.3578   16.8948 C   0  0  0  0  0  0  0  0  0  0  0  0
    4.6910    2.7744   18.1185 N   0  0  0  0  0  0  0  0  0  0  0  0
    3.4206    3.2323   14.6246 C   0  0  0  0  0  0  0  0  0  0  0  0
    3.4974    4.4484   14.3499 O   0  0  0  0  0  0  0  0  0  0  0  0
    3.0119    2.4106   13.5386 N   0  0  0  0  0  0  0  0  0  0  0  0
    2.9253    1.3935   13.6758 H   0  0  0  0  0  0  0  0  0  0  0  0
    2.7059    2.9396   12.2214 C   0  0  0  0  0  0  0  0  0  0  0  0
    2.3724    1.8940   11.2327 C   0  0  0  0  0  0  0  0  0  0  0  0
    3.3745    1.3030   10.4766 C   0  0  0  0  0  0  0  0  0  0  0  0
    3.1582    0.3285    9.5320 C   0  0  0  0  0  0  0  0  0  0  0  0
    1.8427   -0.0808    9.3333 C   0  0  0  0  0  0  0  0  0  0  0  0
    0.8110    0.4649   10.0487 C   0  0  0  0  0  0  0  0  0  0  0  0
    1.0937    1.4531   10.9961 C   0  0  0  0  0  0  0  0  0  0  0  0
    4.2144   -0.2322    8.7975 O   0  0  0  0  0  0  0  0  0  0  0  0
    4.1289   -0.1622    7.3877 C   0  0  0  0  0  0  0  0  0  0  0  0
   -0.5125    0.0589    9.8548 O   0  0  0  0  0  0  0  0  0  0  0  0
   -1.1150    0.1255    8.5859 C   0  0  0  0  0  0  0  0  0  0  0  0
    4.3901    0.9813   19.6943 N   0  0  0  0  0  0  0  0  0  0  0  0
    4.9987    0.1431   19.7791 H   0  0  0  0  0  0  0  0  0  0  0  0
    3.7891    1.5003   20.8883 C   0  0  0  0  0  0  0  0  0  0  0  0
    4.7288    2.3141   21.7092 C   0  0  0  0  0  0  0  0  0  0  0  0
    3.7197    4.0991   23.1452 C   0  0  0  0  0  0  0  0  0  0  0  0
    4.3044    3.7651   21.8117 C   0  0  0  0  0  0  0  0  0  0  0  0
    5.0876    4.6069   16.6822 N   0  0  0  0  0  0  0  0  0  0  0  0
    5.8560    4.7242   16.0086 H   0  0  0  0  0  0  0  0  0  0  0  0
    4.6863    5.7992   17.3842 C   0  0  0  0  0  0  0  0  0  0  0  0
    5.2731    5.9659   18.7543 C   0  0  0  0  0  0  0  0  0  0  0  0
    4.3403    6.9362   19.4854 C   0  0  0  0  0  0  0  0  0  0  0  0
    4.2320    8.2431   18.7531 C   0  0  0  0  0  0  0  0  0  0  0  0
    3.0778    8.8881   19.2548 O   0  0  0  0  0  0  0  0  0  0  0  0
    4.0604    8.1310   17.2761 C   0  0  0  0  0  0  0  0  0  0  0  0
    4.9555    7.0826   16.6338 C   0  0  0  0  0  0  0  0  0  0  0  0
    2.3202    8.4652   18.7951 H   0  0  0  0  0  0  0  0  0  0  0  0
 26 27  1  0  0  0
 27 25  1  0  0  0
 25 24  1  0  0  0
 24 22  1  0  0  0
 22  1  1  0  0  0
  1  2  2  0  0  0
  2  3  1  0  0  0
  3  4  2  0  0  0
  4  7  1  0  0  0
  7  8  2  0  0  0
  7  9  1  0  0  0
  9 11  1  0  0  0
 11 12  1  0  0  0
 12 13  2  0  0  0
 13 14  1  0  0  0
 14 18  1  0  0  0
 18 19  1  0  0  0
 14 15  2  0  0  0
 15 16  1  0  0  0
 16 20  1  0  0  0
 20 21  1  0  0  0
 16 17  2  0  0  0
  4  5  1  0  0  0
  5 28  1  0  0  0
 28 30  1  0  0  0
 30 31  1  0  0  0
 31 32  1  0  0  0
 32 33  1  0  0  0
 33 34  1  0  0  0
 33 35  1  0  0  0
 35 36  1  0  0  0
  5  6  2  0  0  0
  6  1  1  0  0  0
 17 12  1  0  0  0
 36 30  1  0  0  0
 22 23  1  0  0  0
  9 10  1  0  0  0
 28 29  1  0  0  0
 34 37  1  0  0  0
M  END
> <minimizedAffinity>
-6.90626

> <CNNscore>
0.3665847778

> <CNNaffinity>
6.4969382286

> <CNN_VS>
2.3816785812

> <CNNaffinity_variance>
0.7120126486

$$$$
[H]c1sc([H])c(-c2nn(C([H])([H])C3([H])C([H])([H])C([H])([H])C([H])(N([H])[H])C([H])([H])C3([H])[H])c3nc(N([H])C([H])([H])[H])nc([H])c23)c1[H]


 27 30  0  0  0  0  0  0  0  0999 V2000
    2.8850    0.1377   18.7028 C   0  0  0  0  0  0  0  0  0  0  0  0
    2.1414   -0.0757   17.5915 N   0  0  0  0  0  0  0  0  0  0  0  0
    2.2039    0.7509   16.5347 C   0  0  0  0  0  0  0  0  0  0  0  0
    3.0424    1.8309   16.5940 C   0  0  0  0  0  0  0  0  0  0  0  0
    3.3218    2.8366   15.6937 C   0  0  0  0  0  0  0  0  0  0  0  0
    4.2182    3.6212   16.2824 N   0  0  0  0  0  0  0  0  0  0  0  0
    4.5147    3.1641   17.4976 N   0  0  0  0  0  0  0  0  0  0  0  0
    3.7965    2.0472   17.7212 C   0  0  0  0  0  0  0  0  0  0  0  0
    3.7119    1.1934   18.7749 N   0  0  0  0  0  0  0  0  0  0  0  0
    2.7220    2.9885   14.3327 C   0  0  0  0  0  0  0  0  0  0  0  0
    2.9087    2.0347   13.3894 C   0  0  0  0  0  0  0  0  0  0  0  0
    2.3290    2.2475   12.1677 C   0  0  0  0  0  0  0  0  0  0  0  0
    1.5517    3.7460   12.3613 S   0  0  0  0  0  0  0  0  0  0  0  0
    1.9722    4.0750   13.9776 C   0  0  0  0  0  0  0  0  0  0  0  0
    3.2460   -0.2808   21.1350 C   0  0  0  0  0  0  0  0  0  0  0  0
    2.8160   -0.7392   19.8192 N   0  0  0  0  0  0  0  0  0  0  0  0
    2.4607   -1.7056   19.7030 H   0  0  0  0  0  0  0  0  0  0  0  0
    5.4324    3.7207   18.4514 C   0  0  0  0  0  0  0  0  0  0  0  0
    4.7366    4.7516   19.3544 C   0  0  0  0  0  0  0  0  0  0  0  0
    4.3407    4.1422   20.6278 C   0  0  0  0  0  0  0  0  0  0  0  0
    4.4553    4.9304   21.8632 C   0  0  0  0  0  0  0  0  0  0  0  0
    5.1893    6.2279   21.7590 C   0  0  0  0  0  0  0  0  0  0  0  0
    5.8160    6.5507   23.0369 N   0  0  0  0  0  0  0  0  0  0  0  0
    6.3330    6.0342   20.7598 C   0  0  0  0  0  0  0  0  0  0  0  0
    5.6331    5.9394   19.4216 C   0  0  0  0  0  0  0  0  0  0  0  0
    6.6821    5.9533   23.0983 H   0  0  0  0  0  0  0  0  0  0  0  0
    6.1258    7.5475   23.0619 H   0  0  0  0  0  0  0  0  0  0  0  0
 15 16  1  0  0  0
 16  1  1  0  0  0
  1  2  2  0  0  0
  2  3  1  0  0  0
  3  4  2  0  0  0
  4  5  1  0  0  0
  5  6  2  0  0  0
  6  7  1  0  0  0
  7 18  1  0  0  0
 18 19  1  0  0  0
 19 20  1  0  0  0
 20 21  1  0  0  0
 21 22  1  0  0  0
 22 23  1  0  0  0
 22 24  1  0  0  0
 24 25  1  0  0  0
  7  8  1  0  0  0
  8  9  2  0  0  0
  5 10  1  0  0  0
 10 11  1  0  0  0
 11 12  2  0  0  0
 12 13  1  0  0  0
 13 14  1  0  0  0
  9  1  1  0  0  0
 14 10  2  0  0  0
  8  4  1  0  0  0
 25 19  1  0  0  0
 16 17  1  0  0  0
 23 26  1  0  0  0
 23 27  1  0  0  0
M  END
> <minimizedAffinity>
-7.64499

> <CNNscore>
0.8964684010

> <CNNaffinity>
7.1892080307

> <CNN_VS>
6.4448976517

> <CNNaffinity_variance>
0.3298284411

$$$$
[H]c1sc([H])c(-c2nn(C([H])([H])C3([H])C([H])([H])C([H])([H])C([H])(N([H])[H])C([H])([H])C3([H])[H])c3nc(N([H])C([H])([H])[H])nc([H])c23)c1[H]


 27 30  0  0  0  0  0  0  0  0999 V2000
    2.6821    0.0314   18.3035 C   0  0  0  0  0  0  0  0  0  0  0  0
    2.2354   -0.0569   17.0284 N   0  0  0  0  0  0  0  0  0  0  0  0
    2.5495    0.8694   16.1079 C   0  0  0  0  0  0  0  0  0  0  0  0
    3.3402    1.9229   16.4793 C   0  0  0  0  0  0  0  0  0  0  0  0
    3.8249    3.0081   15.7811 C   0  0  0  0  0  0  0  0  0  0  0  0
    4.5439    3.7139   16.6474 N   0  0  0  0  0  0  0  0  0  0  0  0
    4.5364    3.1329   17.8456 N   0  0  0  0  0  0  0  0  0  0  0  0
    3.7932    2.0124   17.7728 C   0  0  0  0  0  0  0  0  0  0  0  0
    3.4587    1.0596   18.6820 N   0  0  0  0  0  0  0  0  0  0  0  0
    3.5763    3.3055   14.3371 C   0  0  0  0  0  0  0  0  0  0  0  0
    2.9388    2.4059   13.5505 C   0  0  0  0  0  0  0  0  0  0  0  0
    2.7506    2.7510   12.2392 C   0  0  0  0  0  0  0  0  0  0  0  0
    3.4548    4.2940   12.1376 S   0  0  0  0  0  0  0  0  0  0  0  0
    3.9726    4.4742   13.7492 C   0  0  0  0  0  0  0  0  0  0  0  0
    2.7730   -0.7829   20.6593 C   0  0  0  0  0  0  0  0  0  0  0  0
    2.3476   -0.9509   19.2747 N   0  0  0  0  0  0  0  0  0  0  0  0
    1.8012   -1.7885   19.0035 H   0  0  0  0  0  0  0  0  0  0  0  0
    5.1882    3.5751   19.0462 C   0  0  0  0  0  0  0  0  0  0  0  0
    4.7678    2.7207   20.2527 C   0  0  0  0  0  0  0  0  0  0  0  0
    5.8622    1.8387   20.6700 C   0  0  0  0  0  0  0  0  0  0  0  0
    6.0759    1.5945   22.1036 C   0  0  0  0  0  0  0  0  0  0  0  0
    5.2982    2.4528   23.0479 C   0  0  0  0  0  0  0  0  0  0  0  0
    6.0379    2.6199   24.2949 N   0  0  0  0  0  0  0  0  0  0  0  0
    5.1910    3.8474   22.4253 C   0  0  0  0  0  0  0  0  0  0  0  0
    4.2255    3.6579   21.2757 C   0  0  0  0  0  0  0  0  0  0  0  0
    6.7830    3.3395   24.1000 H   0  0  0  0  0  0  0  0  0  0  0  0
    5.4245    3.0061   25.0464 H   0  0  0  0  0  0  0  0  0  0  0  0
 15 16  1  0  0  0
 16  1  1  0  0  0
  1  2  2  0  0  0
  2  3  1  0  0  0
  3  4  2  0  0  0
  4  5  1  0  0  0
  5  6  2  0  0  0
  6  7  1  0  0  0
  7 18  1  0  0  0
 18 19  1  0  0  0
 19 20  1  0  0  0
 20 21  1  0  0  0
 21 22  1  0  0  0
 22 23  1  0  0  0
 22 24  1  0  0  0
 24 25  1  0  0  0
  7  8  1  0  0  0
  8  9  2  0  0  0
  5 10  1  0  0  0
 10 11  1  0  0  0
 11 12  2  0  0  0
 12 13  1  0  0  0
 13 14  1  0  0  0
  9  1  1  0  0  0
 14 10  2  0  0  0
  8  4  1  0  0  0
 25 19  1  0  0  0
 16 17  1  0  0  0
 23 26  1  0  0  0
 23 27  1  0  0  0
M  END
> <minimizedAffinity>
-7.72834

> <CNNscore>
0.7432256341

> <CNNaffinity>
7.0488877296

> <CNN_VS>
5.2389140129

> <CNNaffinity_variance>
0.0812806264

$$$$
[H]c1sc([H])c(-c2nn(C([H])([H])C3([H])C([H])([H])C([H])([H])C([H])(N([H])[H])C([H])([H])C3([H])[H])c3nc(N([H])C([H])([H])[H])nc([H])c23)c1[H]


 27 30  0  0  0  0  0  0  0  0999 V2000
    3.4826    1.5887   16.6564 C   0  0  0  0  0  0  0  0  0  0  0  0
    3.2285    0.9211   17.8066 N   0  0  0  0  0  0  0  0  0  0  0  0
    3.7205    1.3383   18.9847 C   0  0  0  0  0  0  0  0  0  0  0  0
    4.4956    2.4658   19.0108 C   0  0  0  0  0  0  0  0  0  0  0  0
    5.1295    3.1301   20.0389 C   0  0  0  0  0  0  0  0  0  0  0  0
    5.7426    4.1704   19.4845 N   0  0  0  0  0  0  0  0  0  0  0  0
    5.5285    4.1945   18.1703 N   0  0  0  0  0  0  0  0  0  0  0  0
    4.7534    3.1429   17.8441 C   0  0  0  0  0  0  0  0  0  0  0  0
    4.2416    2.6966   16.6671 N   0  0  0  0  0  0  0  0  0  0  0  0
    5.1122    2.7365   21.4812 C   0  0  0  0  0  0  0  0  0  0  0  0
    6.2608    2.3999   22.1152 C   0  0  0  0  0  0  0  0  0  0  0  0
    6.1620    2.0496   23.4348 C   0  0  0  0  0  0  0  0  0  0  0  0
    4.4993    2.1956   23.7531 S   0  0  0  0  0  0  0  0  0  0  0  0
    3.9611    2.6952   22.2174 C   0  0  0  0  0  0  0  0  0  0  0  0
    2.3338    2.0957   14.5014 C   0  0  0  0  0  0  0  0  0  0  0  0
    2.9603    1.1442   15.4116 N   0  0  0  0  0  0  0  0  0  0  0  0
    3.0223    0.1445   15.1464 H   0  0  0  0  0  0  0  0  0  0  0  0
    6.0127    5.1494   17.2136 C   0  0  0  0  0  0  0  0  0  0  0  0
    5.3503    6.5216   17.4154 C   0  0  0  0  0  0  0  0  0  0  0  0
    4.0456    6.3766   18.0683 C   0  0  0  0  0  0  0  0  0  0  0  0
    3.6288    7.3764   19.0619 C   0  0  0  0  0  0  0  0  0  0  0  0
    4.6730    8.3493   19.5052 C   0  0  0  0  0  0  0  0  0  0  0  0
    4.4024    8.7835   20.8721 N   0  0  0  0  0  0  0  0  0  0  0  0
    6.0102    7.6051   19.5507 C   0  0  0  0  0  0  0  0  0  0  0  0
    6.3543    7.3887   18.0931 C   0  0  0  0  0  0  0  0  0  0  0  0
    4.7267    8.0002   21.4984 H   0  0  0  0  0  0  0  0  0  0  0  0
    4.9660    9.6278   21.1163 H   0  0  0  0  0  0  0  0  0  0  0  0
 15 16  1  0  0  0
 16  1  1  0  0  0
  1  2  2  0  0  0
  2  3  1  0  0  0
  3  4  2  0  0  0
  4  5  1  0  0  0
  5  6  2  0  0  0
  6  7  1  0  0  0
  7 18  1  0  0  0
 18 19  1  0  0  0
 19 20  1  0  0  0
 20 21  1  0  0  0
 21 22  1  0  0  0
 22 23  1  0  0  0
 22 24  1  0  0  0
 24 25  1  0  0  0
  7  8  1  0  0  0
  8  9  2  0  0  0
  5 10  1  0  0  0
 10 11  1  0  0  0
 11 12  2  0  0  0
 12 13  1  0  0  0
 13 14  1  0  0  0
  9  1  1  0  0  0
 14 10  2  0  0  0
  8  4  1  0  0  0
 25 19  1  0  0  0
 16 17  1  0  0  0
 23 26  1  0  0  0
 23 27  1  0  0  0
M  END
> <minimizedAffinity>
-7.30276

> <CNNscore>
0.5505867600

> <CNNaffinity>
6.4932579994

> <CNN_VS>
3.5751018524

> <CNNaffinity_variance>
0.2378555238

$$$$
[H]c1sc([H])c(-c2nn(C([H])([H])C3([H])C([H])([H])C([H])([H])C([H])(N([H])[H])C([H])([H])C3([H])[H])c3nc(N([H])C([H])([H])[H])nc([H])c23)c1[H]


 27 30  0  0  0  0  0  0  0  0999 V2000
    2.9793    0.5790   18.3409 C   0  0  0  0  0  0  0  0  0  0  0  0
    2.4135    0.7287   17.1199 N   0  0  0  0  0  0  0  0  0  0  0  0
    2.7021    1.7803   16.3357 C   0  0  0  0  0  0  0  0  0  0  0  0
    3.5902    2.7162   16.7923 C   0  0  0  0  0  0  0  0  0  0  0  0
    4.0788    3.8783   16.2349 C   0  0  0  0  0  0  0  0  0  0  0  0
    4.9181    4.3921   17.1278 N   0  0  0  0  0  0  0  0  0  0  0  0
    4.9820    3.6187   18.2100 N   0  0  0  0  0  0  0  0  0  0  0  0
    4.1640    2.5643   18.0308 C   0  0  0  0  0  0  0  0  0  0  0  0
    3.8524    1.4895   18.8017 N   0  0  0  0  0  0  0  0  0  0  0  0
    3.7196    4.4264   14.8911 C   0  0  0  0  0  0  0  0  0  0  0  0
    3.0887    5.6200   14.7824 C   0  0  0  0  0  0  0  0  0  0  0  0
    2.7921    6.0527   13.5180 C   0  0  0  0  0  0  0  0  0  0  0  0
    3.3897    4.8064   12.5296 S   0  0  0  0  0  0  0  0  0  0  0  0
    4.0016    3.7646   13.7287 C   0  0  0  0  0  0  0  0  0  0  0  0
    2.8560   -0.4457   20.6115 C   0  0  0  0  0  0  0  0  0  0  0  0
    2.6714   -0.5352   19.1678 N   0  0  0  0  0  0  0  0  0  0  0  0
    2.3153   -1.4135   18.7492 H   0  0  0  0  0  0  0  0  0  0  0  0
    5.7677    3.8200   19.3948 C   0  0  0  0  0  0  0  0  0  0  0  0
    5.5519    5.2286   19.9709 C   0  0  0  0  0  0  0  0  0  0  0  0
    6.1572    6.2426   19.1020 C   0  0  0  0  0  0  0  0  0  0  0  0
    5.4664    7.5263   18.9133 C   0  0  0  0  0  0  0  0  0  0  0  0
    4.0722    7.6159   19.4439 C   0  0  0  0  0  0  0  0  0  0  0  0
    3.2974    8.5667   18.6528 N   0  0  0  0  0  0  0  0  0  0  0  0
    3.4099    6.2508   19.2390 C   0  0  0  0  0  0  0  0  0  0  0  0
    4.0949    5.3598   20.2522 C   0  0  0  0  0  0  0  0  0  0  0  0
    3.0321    8.0630   17.7659 H   0  0  0  0  0  0  0  0  0  0  0  0
    2.4101    8.8243   19.1391 H   0  0  0  0  0  0  0  0  0  0  0  0
 15 16  1  0  0  0
 16  1  1  0  0  0
  1  2  2  0  0  0
  2  3  1  0  0  0
  3  4  2  0  0  0
  4  5  1  0  0  0
  5  6  2  0  0  0
  6  7  1  0  0  0
  7 18  1  0  0  0
 18 19  1  0  0  0
 19 20  1  0  0  0
 20 21  1  0  0  0
 21 22  1  0  0  0
 22 23  1  0  0  0
 22 24  1  0  0  0
 24 25  1  0  0  0
  7  8  1  0  0  0
  8  9  2  0  0  0
  5 10  1  0  0  0
 10 11  1  0  0  0
 11 12  2  0  0  0
 12 13  1  0  0  0
 13 14  1  0  0  0
  9  1  1  0  0  0
 14 10  2  0  0  0
  8  4  1  0  0  0
 25 19  1  0  0  0
 16 17  1  0  0  0
 23 26  1  0  0  0
 23 27  1  0  0  0
M  END
> <minimizedAffinity>
-6.55554

> <CNNscore>
0.4588834345

> <CNNaffinity>
6.4551696777

> <CNN_VS>
2.9621703625

> <CNNaffinity_variance>
0.4724701047

$$$$
[H]c1sc([H])c(-c2nn(C([H])([H])C3([H])C([H])([H])C([H])([H])C([H])(N([H])[H])C([H])([H])C3([H])[H])c3nc(N([H])C([H])([H])[H])nc([H])c23)c1[H]


 27 30  0  0  0  0  0  0  0  0999 V2000
    3.6959    3.0621   15.3291 C   0  0  0  0  0  0  0  0  0  0  0  0
    3.1191    2.0556   16.0276 N   0  0  0  0  0  0  0  0  0  0  0  0
    3.3417    1.8951   17.3424 C   0  0  0  0  0  0  0  0  0  0  0  0
    4.1730    2.7755   17.9804 C   0  0  0  0  0  0  0  0  0  0  0  0
    4.5884    2.8727   19.2911 C   0  0  0  0  0  0  0  0  0  0  0  0
    5.3969    3.9258   19.3455 N   0  0  0  0  0  0  0  0  0  0  0  0
    5.5105    4.4917   18.1453 N   0  0  0  0  0  0  0  0  0  0  0  0
    4.7580    3.7962   17.2718 C   0  0  0  0  0  0  0  0  0  0  0  0
    4.5137    3.9333   15.9421 N   0  0  0  0  0  0  0  0  0  0  0  0
    4.1912    1.9617   20.4081 C   0  0  0  0  0  0  0  0  0  0  0  0
    4.0752    0.6286   20.1989 C   0  0  0  0  0  0  0  0  0  0  0  0
    3.7057   -0.1384   21.2709 C   0  0  0  0  0  0  0  0  0  0  0  0
    3.5322    0.9985   22.5217 S   0  0  0  0  0  0  0  0  0  0  0  0
    3.9287    2.4178   21.6697 C   0  0  0  0  0  0  0  0  0  0  0  0
    3.8137    4.4813   13.2815 C   0  0  0  0  0  0  0  0  0  0  0  0
    3.4579    3.2287   13.9379 N   0  0  0  0  0  0  0  0  0  0  0  0
    3.0317    2.4626   13.3856 H   0  0  0  0  0  0  0  0  0  0  0  0
    6.2852    5.6447   17.7818 C   0  0  0  0  0  0  0  0  0  0  0  0
    6.0095    6.8205   18.7325 C   0  0  0  0  0  0  0  0  0  0  0  0
    6.2275    8.1003   18.0512 C   0  0  0  0  0  0  0  0  0  0  0  0
    5.3289    9.2267   18.3419 C   0  0  0  0  0  0  0  0  0  0  0  0
    4.1085    8.9139   19.1456 C   0  0  0  0  0  0  0  0  0  0  0  0
    3.0321    9.8362   18.7980 N   0  0  0  0  0  0  0  0  0  0  0  0
    3.6264    7.5206   18.7329 C   0  0  0  0  0  0  0  0  0  0  0  0
    4.6620    6.5889   19.3240 C   0  0  0  0  0  0  0  0  0  0  0  0
    2.6366    9.4940   17.8829 H   0  0  0  0  0  0  0  0  0  0  0  0
    2.2617    9.7964   19.5017 H   0  0  0  0  0  0  0  0  0  0  0  0
 15 16  1  0  0  0
 16  1  1  0  0  0
  1  2  2  0  0  0
  2  3  1  0  0  0
  3  4  2  0  0  0
  4  5  1  0  0  0
  5  6  2  0  0  0
  6  7  1  0  0  0
  7 18  1  0  0  0
 18 19  1  0  0  0
 19 20  1  0  0  0
 20 21  1  0  0  0
 21 22  1  0  0  0
 22 23  1  0  0  0
 22 24  1  0  0  0
 24 25  1  0  0  0
  7  8  1  0  0  0
  8  9  2  0  0  0
  5 10  1  0  0  0
 10 11  1  0  0  0
 11 12  2  0  0  0
 12 13  1  0  0  0
 13 14  1  0  0  0
  9  1  1  0  0  0
 14 10  2  0  0  0
  8  4  1  0  0  0
 25 19  1  0  0  0
 16 17  1  0  0  0
 23 26  1  0  0  0
 23 27  1  0  0  0
M  END
> <minimizedAffinity>
-7.23781

> <CNNscore>
0.4375188053

> <CNNaffinity>
6.1464176178

> <CNN_VS>
2.6891732216

> <CNNaffinity_variance>
0.2227155864

$$$$
[H]c1sc([H])c(-c2nn(C([H])([H])C3([H])C([H])([H])C([H])([H])C([H])(N([H])[H])C([H])([H])C3([H])[H])c3nc(N([H])C([H])([H])[H])nc([H])c23)c1[H]


 27 30  0  0  0  0  0  0  0  0999 V2000
    3.2802    1.8803   16.6018 C   0  0  0  0  0  0  0  0  0  0  0  0
    3.6526    1.0133   17.5730 N   0  0  0  0  0  0  0  0  0  0  0  0
    4.0202    1.4397   18.7924 C   0  0  0  0  0  0  0  0  0  0  0  0
    4.0147    2.7842   19.0477 C   0  0  0  0  0  0  0  0  0  0  0  0
    4.3314    3.5143   20.1732 C   0  0  0  0  0  0  0  0  0  0  0  0
    4.1428    4.7897   19.8517 N   0  0  0  0  0  0  0  0  0  0  0  0
    3.7268    4.8986   18.5913 N   0  0  0  0  0  0  0  0  0  0  0  0
    3.6371    3.6635   18.0625 C   0  0  0  0  0  0  0  0  0  0  0  0
    3.2700    3.2022   16.8382 N   0  0  0  0  0  0  0  0  0  0  0  0
    4.7914    2.9557   21.4815 C   0  0  0  0  0  0  0  0  0  0  0  0
    6.0081    2.3705   21.5888 C   0  0  0  0  0  0  0  0  0  0  0  0
    6.3558    1.8818   22.8194 C   0  0  0  0  0  0  0  0  0  0  0  0
    5.0014    2.2442   23.7792 S   0  0  0  0  0  0  0  0  0  0  0  0
    4.0235    3.0043   22.6114 C   0  0  0  0  0  0  0  0  0  0  0  0
    2.8648    2.3537   14.1885 C   0  0  0  0  0  0  0  0  0  0  0  0
    2.8918    1.4253   15.3126 N   0  0  0  0  0  0  0  0  0  0  0  0
    2.6268    0.4343   15.1665 H   0  0  0  0  0  0  0  0  0  0  0  0
    3.4120    6.0966   17.8651 C   0  0  0  0  0  0  0  0  0  0  0  0
    4.4385    6.3558   16.7508 C   0  0  0  0  0  0  0  0  0  0  0  0
    3.7647    6.6997   15.4949 C   0  0  0  0  0  0  0  0  0  0  0  0
    4.3595    7.7215   14.6216 C   0  0  0  0  0  0  0  0  0  0  0  0
    5.4960    8.5057   15.1933 C   0  0  0  0  0  0  0  0  0  0  0  0
    5.5346    9.8365   14.5954 N   0  0  0  0  0  0  0  0  0  0  0  0
    5.2113    8.7152   16.6829 C   0  0  0  0  0  0  0  0  0  0  0  0
    5.4161    7.3433   17.2876 C   0  0  0  0  0  0  0  0  0  0  0  0
    4.7799   10.3953   15.0741 H   0  0  0  0  0  0  0  0  0  0  0  0
    6.4433   10.3110   14.7939 H   0  0  0  0  0  0  0  0  0  0  0  0
 15 16  1  0  0  0
 16  1  1  0  0  0
  1  2  2  0  0  0
  2  3  1  0  0  0
  3  4  2  0  0  0
  4  5  1  0  0  0
  5  6  2  0  0  0
  6  7  1  0  0  0
  7 18  1  0  0  0
 18 19  1  0  0  0
 19 20  1  0  0  0
 20 21  1  0  0  0
 21 22  1  0  0  0
 22 23  1  0  0  0
 22 24  1  0  0  0
 24 25  1  0  0  0
  7  8  1  0  0  0
  8  9  2  0  0  0
  5 10  1  0  0  0
 10 11  1  0  0  0
 11 12  2  0  0  0
 12 13  1  0  0  0
 13 14  1  0  0  0
  9  1  1  0  0  0
 14 10  2  0  0  0
  8  4  1  0  0  0
 25 19  1  0  0  0
 16 17  1  0  0  0
 23 26  1  0  0  0
 23 27  1  0  0  0
M  END
> <minimizedAffinity>
-6.78132

> <CNNscore>
0.4093588293

> <CNNaffinity>
6.2671527863

> <CNN_VS>
2.5655143261

> <CNNaffinity_variance>
0.3932952583

$$$$
[H]c1sc([H])c(-c2nn(C([H])([H])C3([H])C([H])([H])C([H])([H])C([H])(N([H])[H])C([H])([H])C3([H])[H])c3nc(N([H])C([H])([H])[H])nc([H])c23)c1[H]


 27 30  0  0  0  0  0  0  0  0999 V2000
    3.0398    2.8820   13.7815 C   0  0  0  0  0  0  0  0  0  0  0  0
    2.4097    1.8124   14.3223 N   0  0  0  0  0  0  0  0  0  0  0  0
    2.6100    1.4510   15.6003 C   0  0  0  0  0  0  0  0  0  0  0  0
    3.4735    2.1885   16.3641 C   0  0  0  0  0  0  0  0  0  0  0  0
    3.8783    2.0733   17.6767 C   0  0  0  0  0  0  0  0  0  0  0  0
    4.7335    3.0680   17.8885 N   0  0  0  0  0  0  0  0  0  0  0  0
    4.8863    3.7974   16.7848 N   0  0  0  0  0  0  0  0  0  0  0  0
    4.1126    3.2733   15.8154 C   0  0  0  0  0  0  0  0  0  0  0  0
    3.8897    3.6147   14.5192 N   0  0  0  0  0  0  0  0  0  0  0  0
    3.4273    1.0283   18.6463 C   0  0  0  0  0  0  0  0  0  0  0  0
    2.5729    0.0525   18.2562 C   0  0  0  0  0  0  0  0  0  0  0  0
    2.2056   -0.8660   19.2025 C   0  0  0  0  0  0  0  0  0  0  0  0
    3.0459   -0.3550   20.5880 S   0  0  0  0  0  0  0  0  0  0  0  0
    3.8436    1.0058   19.9481 C   0  0  0  0  0  0  0  0  0  0  0  0
    1.4690    3.4704   11.9356 C   0  0  0  0  0  0  0  0  0  0  0  0
    2.8253    3.2614   12.4287 N   0  0  0  0  0  0  0  0  0  0  0  0
    3.6298    3.3907   11.7888 H   0  0  0  0  0  0  0  0  0  0  0  0
    5.7171    4.9535   16.5978 C   0  0  0  0  0  0  0  0  0  0  0  0
    5.2687    6.1113   17.5038 C   0  0  0  0  0  0  0  0  0  0  0  0
    3.8814    5.9221   17.9387 C   0  0  0  0  0  0  0  0  0  0  0  0
    3.5039    6.3011   19.3078 C   0  0  0  0  0  0  0  0  0  0  0  0
    4.6239    6.6407   20.2370 C   0  0  0  0  0  0  0  0  0  0  0  0
    4.2452    6.3264   21.6110 N   0  0  0  0  0  0  0  0  0  0  0  0
    5.8014    5.7225   19.8984 C   0  0  0  0  0  0  0  0  0  0  0  0
    6.3002    6.2478   18.5698 C   0  0  0  0  0  0  0  0  0  0  0  0
    4.3476    5.2823   21.7121 H   0  0  0  0  0  0  0  0  0  0  0  0
    4.9017    6.7686   22.2919 H   0  0  0  0  0  0  0  0  0  0  0  0
 15 16  1  0  0  0
 16  1  1  0  0  0
  1  2  2  0  0  0
  2  3  1  0  0  0
  3  4  2  0  0  0
  4  5  1  0  0  0
  5  6  2  0  0  0
  6  7  1  0  0  0
  7 18  1  0  0  0
 18 19  1  0  0  0
 19 20  1  0  0  0
 20 21  1  0  0  0
 21 22  1  0  0  0
 22 23  1  0  0  0
 22 24  1  0  0  0
 24 25  1  0  0  0
  7  8  1  0  0  0
  8  9  2  0  0  0
  5 10  1  0  0  0
 10 11  1  0  0  0
 11 12  2  0  0  0
 12 13  1  0  0  0
 13 14  1  0  0  0
  9  1  1  0  0  0
 14 10  2  0  0  0
  8  4  1  0  0  0
 25 19  1  0  0  0
 16 17  1  0  0  0
 23 26  1  0  0  0
 23 27  1  0  0  0
M  END
> <minimizedAffinity>
-6.42716

> <CNNscore>
0.3438701332

> <CNNaffinity>
6.2766675949

> <CNN_VS>
2.1583585739

> <CNNaffinity_variance>
0.1147204489

$$$$
[H]c1sc([H])c(-c2nn(C([H])([H])C3([H])C([H])([H])C([H])([H])C([H])(N([H])[H])C([H])([H])C3([H])[H])c3nc(N([H])C([H])([H])[H])nc([H])c23)c1[H]


 27 30  0  0  0  0  0  0  0  0999 V2000
    3.6129    3.3982   15.1254 C   0  0  0  0  0  0  0  0  0  0  0  0
    2.9876    2.3546   15.7199 N   0  0  0  0  0  0  0  0  0  0  0  0
    3.2036    2.0481   17.0096 C   0  0  0  0  0  0  0  0  0  0  0  0
    4.0784    2.8155   17.7298 C   0  0  0  0  0  0  0  0  0  0  0  0
    4.4999    2.7559   19.0408 C   0  0  0  0  0  0  0  0  0  0  0  0
    5.3599    3.7564   19.1985 N   0  0  0  0  0  0  0  0  0  0  0  0
    5.5000    4.4372   18.0626 N   0  0  0  0  0  0  0  0  0  0  0  0
    4.7127    3.8739   17.1267 C   0  0  0  0  0  0  0  0  0  0  0  0
    4.4739    4.1598   15.8199 N   0  0  0  0  0  0  0  0  0  0  0  0
    4.0592    1.7549   20.0602 C   0  0  0  0  0  0  0  0  0  0  0  0
    4.0843    2.0613   21.3793 C   0  0  0  0  0  0  0  0  0  0  0  0
    3.6670    1.0910   22.2502 C   0  0  0  0  0  0  0  0  0  0  0  0
    3.2573   -0.2014   21.2261 S   0  0  0  0  0  0  0  0  0  0  0  0
    3.6197    0.5058   19.7208 C   0  0  0  0  0  0  0  0  0  0  0  0
    2.0210    3.9300   13.2804 C   0  0  0  0  0  0  0  0  0  0  0  0
    3.3818    3.7195   13.7604 N   0  0  0  0  0  0  0  0  0  0  0  0
    4.1774    3.8054   13.1022 H   0  0  0  0  0  0  0  0  0  0  0  0
    6.3308    5.5819   17.8152 C   0  0  0  0  0  0  0  0  0  0  0  0
    6.0707    6.6898   18.8484 C   0  0  0  0  0  0  0  0  0  0  0  0
    4.8272    6.4335   19.5816 C   0  0  0  0  0  0  0  0  0  0  0  0
    4.7651    6.7501   21.0157 C   0  0  0  0  0  0  0  0  0  0  0  0
    6.0592    7.0991   21.6766 C   0  0  0  0  0  0  0  0  0  0  0  0
    6.0169    6.7231   23.0862 N   0  0  0  0  0  0  0  0  0  0  0  0
    7.1525    6.2382   21.0381 C   0  0  0  0  0  0  0  0  0  0  0  0
    7.3160    6.8278   19.6541 C   0  0  0  0  0  0  0  0  0  0  0  0
    6.1697    5.6807   23.1166 H   0  0  0  0  0  0  0  0  0  0  0  0
    6.7999    7.1657   23.6164 H   0  0  0  0  0  0  0  0  0  0  0  0
 15 16  1  0  0  0
 16  1  1  0  0  0
  1  2  2  0  0  0
  2  3  1  0  0  0
  3  4  2  0  0  0
  4  5  1  0  0  0
  5  6  2  0  0  0
  6  7  1  0  0  0
  7 18  1  0  0  0
 18 19  1  0  0  0
 19 20  1  0  0  0
 20 21  1  0  0  0
 21 22  1  0  0  0
 22 23  1  0  0  0
 22 24  1  0  0  0
 24 25  1  0  0  0
  7  8  1  0  0  0
  8  9  2  0  0  0
  5 10  1  0  0  0
 10 11  1  0  0  0
 11 12  2  0  0  0
 12 13  1  0  0  0
 13 14  1  0  0  0
  9  1  1  0  0  0
 14 10  2  0  0  0
  8  4  1  0  0  0
 25 19  1  0  0  0
 16 17  1  0  0  0
 23 26  1  0  0  0
 23 27  1  0  0  0
M  END
> <minimizedAffinity>
-7.42144

> <CNNscore>
0.3019421399

> <CNNaffinity>
6.1444602013

> <CNN_VS>
1.8552714586

> <CNNaffinity_variance>
0.1262288690

$$$$
[H]c1sc([H])c(-c2nn(C([H])([H])C3([H])C([H])([H])C([H])([H])C([H])(N([H])[H])C([H])([H])C3([H])[H])c3nc(N([H])C([H])([H])[H])nc([H])c23)c1[H]


 27 30  0  0  0  0  0  0  0  0999 V2000
    5.7589    5.7309   10.7379 C   0  0  0  0  0  0  0  0  0  0  0  0
    6.0895    4.8366    9.7765 N   0  0  0  0  0  0  0  0  0  0  0  0
    5.3529    3.7349    9.5582 C   0  0  0  0  0  0  0  0  0  0  0  0
    4.2444    3.5217   10.3320 C   0  0  0  0  0  0  0  0  0  0  0  0
    3.3084    2.5100   10.3499 C   0  0  0  0  0  0  0  0  0  0  0  0
    2.4473    2.8201   11.3132 N   0  0  0  0  0  0  0  0  0  0  0  0
    2.7910    3.9663   11.8977 N   0  0  0  0  0  0  0  0  0  0  0  0
    3.9091    4.4289   11.3071 C   0  0  0  0  0  0  0  0  0  0  0  0
    4.6739    5.5345   11.5046 N   0  0  0  0  0  0  0  0  0  0  0  0
    3.2898    1.3148    9.4518 C   0  0  0  0  0  0  0  0  0  0  0  0
    3.8422    0.1453    9.8534 C   0  0  0  0  0  0  0  0  0  0  0  0
    3.7868   -0.9021    8.9736 C   0  0  0  0  0  0  0  0  0  0  0  0
    2.9800   -0.2415    7.6321 S   0  0  0  0  0  0  0  0  0  0  0  0
    2.7282    1.3413    8.2058 C   0  0  0  0  0  0  0  0  0  0  0  0
    7.9935    6.7954   11.0448 C   0  0  0  0  0  0  0  0  0  0  0  0
    6.5409    6.8955   10.9660 N   0  0  0  0  0  0  0  0  0  0  0  0
    6.0831    7.8184   11.0769 H   0  0  0  0  0  0  0  0  0  0  0  0
    2.1257    4.6428   12.9754 C   0  0  0  0  0  0  0  0  0  0  0  0
    0.9887    5.5352   12.4524 C   0  0  0  0  0  0  0  0  0  0  0  0
   -0.2561    4.7704   12.3295 C   0  0  0  0  0  0  0  0  0  0  0  0
   -1.5300    5.4193   12.6714 C   0  0  0  0  0  0  0  0  0  0  0  0
   -1.4390    6.7505   13.3442 C   0  0  0  0  0  0  0  0  0  0  0  0
   -2.5994    6.9546   14.2056 N   0  0  0  0  0  0  0  0  0  0  0  0
   -0.2203    6.7194   14.2703 C   0  0  0  0  0  0  0  0  0  0  0  0
    0.9574    6.7453   13.3206 C   0  0  0  0  0  0  0  0  0  0  0  0
   -2.4195    6.3917   15.0784 H   0  0  0  0  0  0  0  0  0  0  0  0
   -2.6813    7.9546   14.4944 H   0  0  0  0  0  0  0  0  0  0  0  0
 15 16  1  0  0  0
 16  1  1  0  0  0
  1  2  2  0  0  0
  2  3  1  0  0  0
  3  4  2  0  0  0
  4  5  1  0  0  0
  5  6  2  0  0  0
  6  7  1  0  0  0
  7 18  1  0  0  0
 18 19  1  0  0  0
 19 20  1  0  0  0
 20 21  1  0  0  0
 21 22  1  0  0  0
 22 23  1  0  0  0
 22 24  1  0  0  0
 24 25  1  0  0  0
  7  8  1  0  0  0
  8  9  2  0  0  0
  5 10  1  0  0  0
 10 11  1  0  0  0
 11 12  2  0  0  0
 12 13  1  0  0  0
 13 14  1  0  0  0
  9  1  1  0  0  0
 14 10  2  0  0  0
  8  4  1  0  0  0
 25 19  1  0  0  0
 16 17  1  0  0  0
 23 26  1  0  0  0
 23 27  1  0  0  0
M  END
> <minimizedAffinity>
-5.08603

> <CNNscore>
0.2743206024

> <CNNaffinity>
5.2218060493

> <CNN_VS>
1.4324489832

> <CNNaffinity_variance>
0.2595245540

$$$$
[H]O[C@]1([H])C([H])([H])C([H])([H])[C@@]([H])(N([H])c2nc(N([H])C([H])([H])C([H])([H])C([H])([H])C([H])([H])[H])nc([H])c2C(=O)N([H])C([H])([H])c2c([H])c([H])c(N3C([H])([H])C([H])([H])C([H])([H])C3([H])[H])c([H])c2[H])C([H])([H])C1([H])[H]


 38 41  0  0  0  0  0  0  0  0999 V2000
    2.5989    1.2745   16.0330 C   0  0  0  0  0  0  0  0  0  0  0  0
    2.2879    0.5142   17.0967 N   0  0  0  0  0  0  0  0  0  0  0  0
    2.9198    0.6287   18.2781 C   0  0  0  0  0  0  0  0  0  0  0  0
    3.9343    1.5571   18.4337 C   0  0  0  0  0  0  0  0  0  0  0  0
    4.2705    2.3461   17.3604 C   0  0  0  0  0  0  0  0  0  0  0  0
    3.5723    2.1587   16.1982 N   0  0  0  0  0  0  0  0  0  0  0  0
    4.6020    1.6717   19.7012 C   0  0  0  0  0  0  0  0  0  0  0  0
    5.7909    1.2982   19.8413 O   0  0  0  0  0  0  0  0  0  0  0  0
    3.9236    2.2132   20.8230 N   0  0  0  0  0  0  0  0  0  0  0  0
    2.9515    2.5390   20.7778 H   0  0  0  0  0  0  0  0  0  0  0  0
    4.6495    2.3062   22.0890 C   0  0  0  0  0  0  0  0  0  0  0  0
    5.2904    3.6378   22.2644 C   0  0  0  0  0  0  0  0  0  0  0  0
    4.5350    4.7562   22.6015 C   0  0  0  0  0  0  0  0  0  0  0  0
    5.0950    6.0033   22.7620 C   0  0  0  0  0  0  0  0  0  0  0  0
    6.4575    6.2162   22.5949 C   0  0  0  0  0  0  0  0  0  0  0  0
    7.2099    5.1147   22.2617 C   0  0  0  0  0  0  0  0  0  0  0  0
    6.6408    3.8454   22.0980 C   0  0  0  0  0  0  0  0  0  0  0  0
    7.0321    7.5042   22.7602 N   0  0  0  0  0  0  0  0  0  0  0  0
    7.4408    8.3887   21.6998 C   0  0  0  0  0  0  0  0  0  0  0  0
    7.0836    9.7542   22.1997 C   0  0  0  0  0  0  0  0  0  0  0  0
    7.2607    9.6716   23.6770 C   0  0  0  0  0  0  0  0  0  0  0  0
    7.3286    8.1978   23.9960 C   0  0  0  0  0  0  0  0  0  0  0  0
    1.9330    1.1505   14.7839 N   0  0  0  0  0  0  0  0  0  0  0  0
    1.4542    0.2899   14.4826 H   0  0  0  0  0  0  0  0  0  0  0  0
    1.9382    2.3016   13.9108 C   0  0  0  0  0  0  0  0  0  0  0  0
    2.5197    2.0482   12.5610 C   0  0  0  0  0  0  0  0  0  0  0  0
    3.7444    4.0166   13.3141 C   0  0  0  0  0  0  0  0  0  0  0  0
    3.1950    3.3158   12.0896 C   0  0  0  0  0  0  0  0  0  0  0  0
    5.2583    3.3220   17.3209 N   0  0  0  0  0  0  0  0  0  0  0  0
    6.2470    3.1522   17.1127 H   0  0  0  0  0  0  0  0  0  0  0  0
    4.9637    4.7361   17.5824 C   0  0  0  0  0  0  0  0  0  0  0  0
    3.5152    4.9953   17.7687 C   0  0  0  0  0  0  0  0  0  0  0  0
    3.2467    5.4082   19.2050 C   0  0  0  0  0  0  0  0  0  0  0  0
    3.9603    6.7130   19.5321 C   0  0  0  0  0  0  0  0  0  0  0  0
    3.1699    7.7534   19.0768 O   0  0  0  0  0  0  0  0  0  0  0  0
    5.3540    6.7224   18.9377 C   0  0  0  0  0  0  0  0  0  0  0  0
    5.7459    5.2746   18.7523 C   0  0  0  0  0  0  0  0  0  0  0  0
    2.2075    7.4641   18.9708 H   0  0  0  0  0  0  0  0  0  0  0  0
 27 28  1  0  0  0
 28 26  1  0  0  0
 26 25  1  0  0  0
 25 23  1  0  0  0
 23  1  1  0  0  0
  1  2  2  0  0  0
  2  3  1  0  0  0
  3  4  2  0  0  0
  4  7  1  0  0  0
  7  8  2  0  0  0
  7  9  1  0  0  0
  9 11  1  0  0  0
 11 12  1  0  0  0
 12 13  2  0  0  0
 13 14  1  0  0  0
 14 15  2  0  0  0
 15 16  1  0  0  0
 16 17  2  0  0  0
 15 18  1  0  0  0
 18 19  1  0  0  0
 19 20  1  0  0  0
 20 21  1  0  0  0
 21 22  1  0  0  0
  4  5  1  0  0  0
  5 29  1  0  0  0
 29 31  1  0  0  0
 31 32  1  0  0  0
 32 33  1  0  0  0
 33 34  1  0  0  0
 34 35  1  0  0  0
 34 36  1  0  0  0
 36 37  1  0  0  0
  5  6  2  0  0  0
  6  1  1  0  0  0
 17 12  1  0  0  0
 22 18  1  0  0  0
 37 31  1  0  0  0
 23 24  1  0  0  0
  9 10  1  0  0  0
 29 30  1  0  0  0
 35 38  1  0  0  0
M  END
> <minimizedAffinity>
-7.81811

> <CNNscore>
0.6255382299

> <CNNaffinity>
6.9159774780

> <CNN_VS>
4.3262081146

> <CNNaffinity_variance>
0.0401067324

$$$$
[H]O[C@]1([H])C([H])([H])C([H])([H])[C@@]([H])(N([H])c2nc(N([H])C([H])([H])C([H])([H])C([H])([H])C([H])([H])[H])nc([H])c2C(=O)N([H])C([H])([H])c2c([H])c([H])c(N3C([H])([H])C([H])([H])C([H])([H])C3([H])[H])c([H])c2[H])C([H])([H])C1([H])[H]


 38 41  0  0  0  0  0  0  0  0999 V2000
    4.3547    2.5810   17.9515 C   0  0  0  0  0  0  0  0  0  0  0  0
    3.3125    2.3375   17.1386 N   0  0  0  0  0  0  0  0  0  0  0  0
    2.9504    3.1784   16.1539 C   0  0  0  0  0  0  0  0  0  0  0  0
    3.6603    4.3481   15.9461 C   0  0  0  0  0  0  0  0  0  0  0  0
    4.7301    4.6192   16.7645 C   0  0  0  0  0  0  0  0  0  0  0  0
    5.0243    3.7050   17.7395 N   0  0  0  0  0  0  0  0  0  0  0  0
    3.2651    5.2390   14.8899 C   0  0  0  0  0  0  0  0  0  0  0  0
    3.6941    5.0863   13.7214 O   0  0  0  0  0  0  0  0  0  0  0  0
    2.3767    6.3131   15.1521 N   0  0  0  0  0  0  0  0  0  0  0  0
    1.9874    6.4945   16.0842 H   0  0  0  0  0  0  0  0  0  0  0  0
    2.0079    7.1899   14.0414 C   0  0  0  0  0  0  0  0  0  0  0  0
    0.7043    6.8017   13.4376 C   0  0  0  0  0  0  0  0  0  0  0  0
   -0.4663    6.8223   14.1889 C   0  0  0  0  0  0  0  0  0  0  0  0
   -1.6860    6.4606   13.6637 C   0  0  0  0  0  0  0  0  0  0  0  0
   -1.8172    6.0514   12.3427 C   0  0  0  0  0  0  0  0  0  0  0  0
   -0.6638    6.0289   11.5946 C   0  0  0  0  0  0  0  0  0  0  0  0
    0.5779    6.3966   12.1283 C   0  0  0  0  0  0  0  0  0  0  0  0
   -3.0768    5.6778   11.8041 N   0  0  0  0  0  0  0  0  0  0  0  0
   -3.2961    4.7032   10.7668 C   0  0  0  0  0  0  0  0  0  0  0  0
   -4.5627    4.0138   11.1698 C   0  0  0  0  0  0  0  0  0  0  0  0
   -5.3601    5.0664   11.8601 C   0  0  0  0  0  0  0  0  0  0  0  0
   -4.3864    6.1787   12.1655 C   0  0  0  0  0  0  0  0  0  0  0  0
    4.7346    1.6934   18.9940 N   0  0  0  0  0  0  0  0  0  0  0  0
    5.4372    0.9499   18.8743 H   0  0  0  0  0  0  0  0  0  0  0  0
    4.0928    1.8622   20.2774 C   0  0  0  0  0  0  0  0  0  0  0  0
    4.8436    1.2739   21.4238 C   0  0  0  0  0  0  0  0  0  0  0  0
    5.6071    2.2574   23.5193 C   0  0  0  0  0  0  0  0  0  0  0  0
    5.7288    2.3483   22.0129 C   0  0  0  0  0  0  0  0  0  0  0  0
    5.5538    5.7368   16.7159 N   0  0  0  0  0  0  0  0  0  0  0  0
    6.2895    5.8973   16.0214 H   0  0  0  0  0  0  0  0  0  0  0  0
    5.4392    6.8287   17.6904 C   0  0  0  0  0  0  0  0  0  0  0  0
    4.0862    6.9217   18.2911 C   0  0  0  0  0  0  0  0  0  0  0  0
    4.1518    6.5642   19.7653 C   0  0  0  0  0  0  0  0  0  0  0  0
    5.0248    7.5567   20.5214 C   0  0  0  0  0  0  0  0  0  0  0  0
    4.2491    8.6639   20.8162 O   0  0  0  0  0  0  0  0  0  0  0  0
    6.2639    7.8969   19.7185 C   0  0  0  0  0  0  0  0  0  0  0  0
    6.4860    6.7409   18.7707 C   0  0  0  0  0  0  0  0  0  0  0  0
    3.2644    8.4380   20.7962 H   0  0  0  0  0  0  0  0  0  0  0  0
 27 28  1  0  0  0
 28 26  1  0  0  0
 26 25  1  0  0  0
 25 23  1  0  0  0
 23  1  1  0  0  0
  1  2  2  0  0  0
  2  3  1  0  0  0
  3  4  2  0  0  0
  4  7  1  0  0  0
  7  8  2  0  0  0
  7  9  1  0  0  0
  9 11  1  0  0  0
 11 12  1  0  0  0
 12 13  2  0  0  0
 13 14  1  0  0  0
 14 15  2  0  0  0
 15 16  1  0  0  0
 16 17  2  0  0  0
 15 18  1  0  0  0
 18 19  1  0  0  0
 19 20  1  0  0  0
 20 21  1  0  0  0
 21 22  1  0  0  0
  4  5  1  0  0  0
  5 29  1  0  0  0
 29 31  1  0  0  0
 31 32  1  0  0  0
 32 33  1  0  0  0
 33 34  1  0  0  0
 34 35  1  0  0  0
 34 36  1  0  0  0
 36 37  1  0  0  0
  5  6  2  0  0  0
  6  1  1  0  0  0
 17 12  1  0  0  0
 22 18  1  0  0  0
 37 31  1  0  0  0
 23 24  1  0  0  0
  9 10  1  0  0  0
 29 30  1  0  0  0
 35 38  1  0  0  0
M  END
> <minimizedAffinity>
-8.24257

> <CNNscore>
0.3709689379

> <CNNaffinity>
6.4162912369

> <CNN_VS>
2.3802447319

> <CNNaffinity_variance>
0.2870118022

$$$$
[H]O[C@]1([H])C([H])([H])C([H])([H])[C@@]([H])(N([H])c2nc(N([H])C([H])([H])C([H])([H])C([H])([H])C([H])([H])[H])nc([H])c2C(=O)N([H])C([H])([H])c2c([H])c([H])c(N3C([H])([H])C([H])([H])C([H])([H])C3([H])[H])c([H])c2[H])C([H])([H])C1([H])[H]


 38 41  0  0  0  0  0  0  0  0999 V2000
    4.2106    2.5322   19.4903 C   0  0  0  0  0  0  0  0  0  0  0  0
    4.1397    2.1630   18.2000 N   0  0  0  0  0  0  0  0  0  0  0  0
    3.9010    3.0391   17.2083 C   0  0  0  0  0  0  0  0  0  0  0  0
    3.7169    4.3798   17.4981 C   0  0  0  0  0  0  0  0  0  0  0  0
    3.7847    4.7817   18.8101 C   0  0  0  0  0  0  0  0  0  0  0  0
    4.0322    3.8193   19.7512 N   0  0  0  0  0  0  0  0  0  0  0  0
    3.4636    5.3075   16.4300 C   0  0  0  0  0  0  0  0  0  0  0  0
    4.2427    6.2645   16.2070 O   0  0  0  0  0  0  0  0  0  0  0  0
    2.3207    5.1555   15.6038 N   0  0  0  0  0  0  0  0  0  0  0  0
    1.6436    4.3948   15.7300 H   0  0  0  0  0  0  0  0  0  0  0  0
    2.1103    6.1280   14.5322 C   0  0  0  0  0  0  0  0  0  0  0  0
    0.7927    5.9424   13.8656 C   0  0  0  0  0  0  0  0  0  0  0  0
    0.5860    4.9003   12.9677 C   0  0  0  0  0  0  0  0  0  0  0  0
   -0.6169    4.7062   12.3275 C   0  0  0  0  0  0  0  0  0  0  0  0
   -1.7009    5.5474   12.5445 C   0  0  0  0  0  0  0  0  0  0  0  0
   -1.5031    6.5796   13.4311 C   0  0  0  0  0  0  0  0  0  0  0  0
   -0.2793    6.7780   14.0829 C   0  0  0  0  0  0  0  0  0  0  0  0
   -2.9403    5.3452   11.8817 N   0  0  0  0  0  0  0  0  0  0  0  0
   -3.2034    4.3592   10.8656 C   0  0  0  0  0  0  0  0  0  0  0  0
   -4.6002    3.9004   11.1492 C   0  0  0  0  0  0  0  0  0  0  0  0
   -5.2853    5.1024   11.7025 C   0  0  0  0  0  0  0  0  0  0  0  0
   -4.1824    6.0644   12.0721 C   0  0  0  0  0  0  0  0  0  0  0  0
    4.4595    1.6051   20.5380 N   0  0  0  0  0  0  0  0  0  0  0  0
    5.2017    0.8923   20.4964 H   0  0  0  0  0  0  0  0  0  0  0  0
    3.6197    1.6864   21.7109 C   0  0  0  0  0  0  0  0  0  0  0  0
    4.3640    1.6788   23.0032 C   0  0  0  0  0  0  0  0  0  0  0  0
    3.5660    3.9467   23.4045 C   0  0  0  0  0  0  0  0  0  0  0  0
    4.8112    3.0917   23.3017 C   0  0  0  0  0  0  0  0  0  0  0  0
    3.6211    6.0730   19.2953 N   0  0  0  0  0  0  0  0  0  0  0  0
    2.7269    6.5681   19.3644 H   0  0  0  0  0  0  0  0  0  0  0  0
    4.7561    6.8733   19.7709 C   0  0  0  0  0  0  0  0  0  0  0  0
    4.8987    6.8459   21.2471 C   0  0  0  0  0  0  0  0  0  0  0  0
    6.1719    6.1116   21.6278 C   0  0  0  0  0  0  0  0  0  0  0  0
    7.3956    6.8436   21.0934 C   0  0  0  0  0  0  0  0  0  0  0  0
    7.7046    7.8572   21.9830 O   0  0  0  0  0  0  0  0  0  0  0  0
    7.1446    7.3453   19.6859 C   0  0  0  0  0  0  0  0  0  0  0  0
    6.0514    6.4730   19.1131 C   0  0  0  0  0  0  0  0  0  0  0  0
    7.3153    7.6744   22.8974 H   0  0  0  0  0  0  0  0  0  0  0  0
 27 28  1  0  0  0
 28 26  1  0  0  0
 26 25  1  0  0  0
 25 23  1  0  0  0
 23  1  1  0  0  0
  1  2  2  0  0  0
  2  3  1  0  0  0
  3  4  2  0  0  0
  4  7  1  0  0  0
  7  8  2  0  0  0
  7  9  1  0  0  0
  9 11  1  0  0  0
 11 12  1  0  0  0
 12 13  2  0  0  0
 13 14  1  0  0  0
 14 15  2  0  0  0
 15 16  1  0  0  0
 16 17  2  0  0  0
 15 18  1  0  0  0
 18 19  1  0  0  0
 19 20  1  0  0  0
 20 21  1  0  0  0
 21 22  1  0  0  0
  4  5  1  0  0  0
  5 29  1  0  0  0
 29 31  1  0  0  0
 31 32  1  0  0  0
 32 33  1  0  0  0
 33 34  1  0  0  0
 34 35  1  0  0  0
 34 36  1  0  0  0
 36 37  1  0  0  0
  5  6  2  0  0  0
  6  1  1  0  0  0
 17 12  1  0  0  0
 22 18  1  0  0  0
 37 31  1  0  0  0
 23 24  1  0  0  0
  9 10  1  0  0  0
 29 30  1  0  0  0
 35 38  1  0  0  0
M  END
> <minimizedAffinity>
-8.18915

> <CNNscore>
0.3244993687

> <CNNaffinity>
6.5395874977

> <CNN_VS>
2.1220920086

> <CNNaffinity_variance>
0.3570775986

$$$$
[H]O[C@]1([H])C([H])([H])C([H])([H])[C@@]([H])(N([H])c2nc(N([H])C([H])([H])C([H])([H])C([H])([H])C([H])([H])[H])nc([H])c2C(=O)N([H])C([H])([H])c2c([H])c([H])c(N3C([H])([H])C([H])([H])C([H])([H])C3([H])[H])c([H])c2[H])C([H])([H])C1([H])[H]


 38 41  0  0  0  0  0  0  0  0999 V2000
    3.8994    2.5549   18.1821 C   0  0  0  0  0  0  0  0  0  0  0  0
    4.0132    1.9016   17.0131 N   0  0  0  0  0  0  0  0  0  0  0  0
    3.8013    2.4981   15.8268 C   0  0  0  0  0  0  0  0  0  0  0  0
    3.4511    3.8361   15.7771 C   0  0  0  0  0  0  0  0  0  0  0  0
    3.3285    4.5254   16.9592 C   0  0  0  0  0  0  0  0  0  0  0  0
    3.5635    3.8354   18.1175 N   0  0  0  0  0  0  0  0  0  0  0  0
    3.2284    4.4636   14.5035 C   0  0  0  0  0  0  0  0  0  0  0  0
    2.1303    5.0058   14.2336 O   0  0  0  0  0  0  0  0  0  0  0  0
    4.2535    4.4812   13.5233 N   0  0  0  0  0  0  0  0  0  0  0  0
    5.1753    4.0578   13.6788 H   0  0  0  0  0  0  0  0  0  0  0  0
    3.9735    5.1323   12.2443 C   0  0  0  0  0  0  0  0  0  0  0  0
    4.7037    4.4847   11.1207 C   0  0  0  0  0  0  0  0  0  0  0  0
    5.9710    4.9194   10.7466 C   0  0  0  0  0  0  0  0  0  0  0  0
    6.6692    4.3487    9.7068 C   0  0  0  0  0  0  0  0  0  0  0  0
    6.1425    3.2976    8.9668 C   0  0  0  0  0  0  0  0  0  0  0  0
    4.8901    2.8631    9.3316 C   0  0  0  0  0  0  0  0  0  0  0  0
    4.1788    3.4435   10.3895 C   0  0  0  0  0  0  0  0  0  0  0  0
    6.8648    2.7115    7.8939 N   0  0  0  0  0  0  0  0  0  0  0  0
    6.3429    1.7655    6.9417 C   0  0  0  0  0  0  0  0  0  0  0  0
    6.9950    2.1453    5.6484 C   0  0  0  0  0  0  0  0  0  0  0  0
    8.3342    2.6669    6.0420 C   0  0  0  0  0  0  0  0  0  0  0  0
    8.2488    2.9262    7.5266 C   0  0  0  0  0  0  0  0  0  0  0  0
    4.1200    1.9229   19.4355 N   0  0  0  0  0  0  0  0  0  0  0  0
    3.9612    0.9182   19.5967 H   0  0  0  0  0  0  0  0  0  0  0  0
    4.5930    2.7492   20.5223 C   0  0  0  0  0  0  0  0  0  0  0  0
    5.7763    2.1993   21.2444 C   0  0  0  0  0  0  0  0  0  0  0  0
    7.2070    0.2258   21.2398 C   0  0  0  0  0  0  0  0  0  0  0  0
    5.7770    0.6966   21.0793 C   0  0  0  0  0  0  0  0  0  0  0  0
    2.9814    5.8618   17.1120 N   0  0  0  0  0  0  0  0  0  0  0  0
    2.0454    6.2491   16.9589 H   0  0  0  0  0  0  0  0  0  0  0  0
    3.9599    6.8760   17.5227 C   0  0  0  0  0  0  0  0  0  0  0  0
    3.8930    7.1838   18.9722 C   0  0  0  0  0  0  0  0  0  0  0  0
    5.1606    6.7070   19.6587 C   0  0  0  0  0  0  0  0  0  0  0  0
    6.3762    7.4487   19.1195 C   0  0  0  0  0  0  0  0  0  0  0  0
    6.4624    8.6594   19.7837 O   0  0  0  0  0  0  0  0  0  0  0  0
    6.2834    7.6025   17.6150 C   0  0  0  0  0  0  0  0  0  0  0  0
    5.3664    6.5025   17.1320 C   0  0  0  0  0  0  0  0  0  0  0  0
    5.9653    8.6319   20.6630 H   0  0  0  0  0  0  0  0  0  0  0  0
 27 28  1  0  0  0
 28 26  1  0  0  0
 26 25  1  0  0  0
 25 23  1  0  0  0
 23  1  1  0  0  0
  1  2  2  0  0  0
  2  3  1  0  0  0
  3  4  2  0  0  0
  4  7  1  0  0  0
  7  8  2  0  0  0
  7  9  1  0  0  0
  9 11  1  0  0  0
 11 12  1  0  0  0
 12 13  2  0  0  0
 13 14  1  0  0  0
 14 15  2  0  0  0
 15 16  1  0  0  0
 16 17  2  0  0  0
 15 18  1  0  0  0
 18 19  1  0  0  0
 19 20  1  0  0  0
 20 21  1  0  0  0
 21 22  1  0  0  0
  4  5  1  0  0  0
  5 29  1  0  0  0
 29 31  1  0  0  0
 31 32  1  0  0  0
 32 33  1  0  0  0
 33 34  1  0  0  0
 34 35  1  0  0  0
 34 36  1  0  0  0
 36 37  1  0  0  0
  5  6  2  0  0  0
  6  1  1  0  0  0
 17 12  1  0  0  0
 22 18  1  0  0  0
 37 31  1  0  0  0
 23 24  1  0  0  0
  9 10  1  0  0  0
 29 30  1  0  0  0
 35 38  1  0  0  0
M  END
> <minimizedAffinity>
-6.93118

> <CNNscore>
0.2797138989

> <CNNaffinity>
6.1858053207

> <CNN_VS>
1.7302557230

> <CNNaffinity_variance>
0.2581594586

$$$$
[H]O[C@]1([H])C([H])([H])C([H])([H])[C@@]([H])(N([H])c2nc(N([H])C([H])([H])C([H])([H])C([H])([H])C([H])([H])[H])nc([H])c2C(=O)N([H])C([H])([H])c2c([H])c([H])c(N3C([H])([H])C([H])([H])C([H])([H])C3([H])[H])c([H])c2[H])C([H])([H])C1([H])[H]


 38 41  0  0  0  0  0  0  0  0999 V2000
    4.4244    2.7369   19.5821 C   0  0  0  0  0  0  0  0  0  0  0  0
    4.2040    1.9599   18.5078 N   0  0  0  0  0  0  0  0  0  0  0  0
    3.6520    2.4298   17.3753 C   0  0  0  0  0  0  0  0  0  0  0  0
    3.2864    3.7615   17.2839 C   0  0  0  0  0  0  0  0  0  0  0  0
    3.5017    4.5759   18.3692 C   0  0  0  0  0  0  0  0  0  0  0  0
    4.0689    4.0095   19.4785 N   0  0  0  0  0  0  0  0  0  0  0  0
    2.6984    4.2532   16.0681 C   0  0  0  0  0  0  0  0  0  0  0  0
    1.7841    5.1111   16.0935 O   0  0  0  0  0  0  0  0  0  0  0  0
    3.1453    3.7741   14.8101 N   0  0  0  0  0  0  0  0  0  0  0  0
    3.8898    3.0739   14.7172 H   0  0  0  0  0  0  0  0  0  0  0  0
    2.5122    4.3073   13.6046 C   0  0  0  0  0  0  0  0  0  0  0  0
    3.3015    3.9991   12.3811 C   0  0  0  0  0  0  0  0  0  0  0  0
    4.4882    4.6713   12.1075 C   0  0  0  0  0  0  0  0  0  0  0  0
    5.2368    4.4170   10.9808 C   0  0  0  0  0  0  0  0  0  0  0  0
    4.8456    3.4665   10.0463 C   0  0  0  0  0  0  0  0  0  0  0  0
    3.6734    2.7984   10.3110 C   0  0  0  0  0  0  0  0  0  0  0  0
    2.9109    3.0567   11.4571 C   0  0  0  0  0  0  0  0  0  0  0  0
    5.6196    3.2071    8.8844 N   0  0  0  0  0  0  0  0  0  0  0  0
    6.9715    3.6472    8.6548 C   0  0  0  0  0  0  0  0  0  0  0  0
    7.6132    2.5055    7.9291 C   0  0  0  0  0  0  0  0  0  0  0  0
    6.5122    1.9061    7.1235 C   0  0  0  0  0  0  0  0  0  0  0  0
    5.2349    2.4641    7.7028 C   0  0  0  0  0  0  0  0  0  0  0  0
    5.0046    2.2387   20.7796 N   0  0  0  0  0  0  0  0  0  0  0  0
    6.0064    2.0185   20.8723 H   0  0  0  0  0  0  0  0  0  0  0  0
    4.1278    2.0414   21.9109 C   0  0  0  0  0  0  0  0  0  0  0  0
    4.5577    2.7450   23.1536 C   0  0  0  0  0  0  0  0  0  0  0  0
    4.4362    5.1547   22.8077 C   0  0  0  0  0  0  0  0  0  0  0  0
    3.6764    3.9587   23.3410 C   0  0  0  0  0  0  0  0  0  0  0  0
    3.1975    5.9276   18.4697 N   0  0  0  0  0  0  0  0  0  0  0  0
    2.2557    6.3128   18.5890 H   0  0  0  0  0  0  0  0  0  0  0  0
    4.2360    6.9635   18.4131 C   0  0  0  0  0  0  0  0  0  0  0  0
    4.6342    7.3014   17.0248 C   0  0  0  0  0  0  0  0  0  0  0  0
    4.2020    8.7193   16.6960 C   0  0  0  0  0  0  0  0  0  0  0  0
    4.9091    9.7206   17.5995 C   0  0  0  0  0  0  0  0  0  0  0  0
    6.1591    9.9680   17.0604 O   0  0  0  0  0  0  0  0  0  0  0  0
    4.9681    9.2055   19.0232 C   0  0  0  0  0  0  0  0  0  0  0  0
    3.8394    8.2099   19.1613 C   0  0  0  0  0  0  0  0  0  0  0  0
    6.1866    9.7388   16.0767 H   0  0  0  0  0  0  0  0  0  0  0  0
 27 28  1  0  0  0
 28 26  1  0  0  0
 26 25  1  0  0  0
 25 23  1  0  0  0
 23  1  1  0  0  0
  1  2  2  0  0  0
  2  3  1  0  0  0
  3  4  2  0  0  0
  4  7  1  0  0  0
  7  8  2  0  0  0
  7  9  1  0  0  0
  9 11  1  0  0  0
 11 12  1  0  0  0
 12 13  2  0  0  0
 13 14  1  0  0  0
 14 15  2  0  0  0
 15 16  1  0  0  0
 16 17  2  0  0  0
 15 18  1  0  0  0
 18 19  1  0  0  0
 19 20  1  0  0  0
 20 21  1  0  0  0
 21 22  1  0  0  0
  4  5  1  0  0  0
  5 29  1  0  0  0
 29 31  1  0  0  0
 31 32  1  0  0  0
 32 33  1  0  0  0
 33 34  1  0  0  0
 34 35  1  0  0  0
 34 36  1  0  0  0
 36 37  1  0  0  0
  5  6  2  0  0  0
  6  1  1  0  0  0
 17 12  1  0  0  0
 22 18  1  0  0  0
 37 31  1  0  0  0
 23 24  1  0  0  0
  9 10  1  0  0  0
 29 30  1  0  0  0
 35 38  1  0  0  0
M  END
> <minimizedAffinity>
-7.10630

> <CNNscore>
0.2625813782

> <CNNaffinity>
6.3468742371

> <CNN_VS>
1.6665710211

> <CNNaffinity_variance>
0.6508331895

$$$$
[H]O[C@]1([H])C([H])([H])C([H])([H])[C@@]([H])(N([H])c2nc(N([H])C([H])([H])C([H])([H])C([H])([H])C([H])([H])[H])nc([H])c2C(=O)N([H])C([H])([H])c2c([H])c([H])c(N3C([H])([H])C([H])([H])C([H])([H])C3([H])[H])c([H])c2[H])C([H])([H])C1([H])[H]


 38 41  0  0  0  0  0  0  0  0999 V2000
    4.0125    3.6360   19.6495 C   0  0  0  0  0  0  0  0  0  0  0  0
    3.9968    3.0856   18.4235 N   0  0  0  0  0  0  0  0  0  0  0  0
    3.7400    3.7989   17.3129 C   0  0  0  0  0  0  0  0  0  0  0  0
    3.4780    5.1546   17.4058 C   0  0  0  0  0  0  0  0  0  0  0  0
    3.4884    5.7402   18.6486 C   0  0  0  0  0  0  0  0  0  0  0  0
    3.7598    4.9350   19.7215 N   0  0  0  0  0  0  0  0  0  0  0  0
    3.2061    5.9074   16.2120 C   0  0  0  0  0  0  0  0  0  0  0  0
    3.9909    6.8038   15.8207 O   0  0  0  0  0  0  0  0  0  0  0  0
    2.0382    5.6473   15.4504 N   0  0  0  0  0  0  0  0  0  0  0  0
    1.3552    4.9277   15.7127 H   0  0  0  0  0  0  0  0  0  0  0  0
    1.8096    6.4430   14.2450 C   0  0  0  0  0  0  0  0  0  0  0  0
    0.4741    6.1723   13.6467 C   0  0  0  0  0  0  0  0  0  0  0  0
    0.2910    5.1239   12.7509 C   0  0  0  0  0  0  0  0  0  0  0  0
   -0.9283    4.8523   12.1729 C   0  0  0  0  0  0  0  0  0  0  0  0
   -2.0536    5.6166   12.4544 C   0  0  0  0  0  0  0  0  0  0  0  0
   -1.8793    6.6545   13.3393 C   0  0  0  0  0  0  0  0  0  0  0  0
   -0.6389    6.9317   13.9278 C   0  0  0  0  0  0  0  0  0  0  0  0
   -3.3099    5.3346   11.8556 N   0  0  0  0  0  0  0  0  0  0  0  0
   -4.5362    6.0531   12.0879 C   0  0  0  0  0  0  0  0  0  0  0  0
   -5.2068    6.0811   10.7494 C   0  0  0  0  0  0  0  0  0  0  0  0
   -4.8005    4.8036   10.0988 C   0  0  0  0  0  0  0  0  0  0  0  0
   -3.6317    4.2911   10.9049 C   0  0  0  0  0  0  0  0  0  0  0  0
    4.2806    2.8808   20.8229 N   0  0  0  0  0  0  0  0  0  0  0  0
    4.3043    1.8513   20.8384 H   0  0  0  0  0  0  0  0  0  0  0  0
    4.5318    3.6140   22.0422 C   0  0  0  0  0  0  0  0  0  0  0  0
    5.9401    3.5388   22.5272 C   0  0  0  0  0  0  0  0  0  0  0  0
    5.8800    5.9754   22.5025 C   0  0  0  0  0  0  0  0  0  0  0  0
    6.6741    4.7697   22.0465 C   0  0  0  0  0  0  0  0  0  0  0  0
    3.2440    7.0758   18.9422 N   0  0  0  0  0  0  0  0  0  0  0  0
    2.3442    7.4569   19.2496 H   0  0  0  0  0  0  0  0  0  0  0  0
    4.2918    8.0984   18.8356 C   0  0  0  0  0  0  0  0  0  0  0  0
    3.9820    9.3207   19.6167 C   0  0  0  0  0  0  0  0  0  0  0  0
    4.9591    9.4554   20.7711 C   0  0  0  0  0  0  0  0  0  0  0  0
    6.3814    9.6267   20.2549 C   0  0  0  0  0  0  0  0  0  0  0  0
    6.5589   10.9618   19.9383 O   0  0  0  0  0  0  0  0  0  0  0  0
    6.6394    8.6998   19.0844 C   0  0  0  0  0  0  0  0  0  0  0  0
    5.6492    7.5655   19.2152 C   0  0  0  0  0  0  0  0  0  0  0  0
    5.8920   11.5459   20.4232 H   0  0  0  0  0  0  0  0  0  0  0  0
 27 28  1  0  0  0
 28 26  1  0  0  0
 26 25  1  0  0  0
 25 23  1  0  0  0
 23  1  1  0  0  0
  1  2  2  0  0  0
  2  3  1  0  0  0
  3  4  2  0  0  0
  4  7  1  0  0  0
  7  8  2  0  0  0
  7  9  1  0  0  0
  9 11  1  0  0  0
 11 12  1  0  0  0
 12 13  2  0  0  0
 13 14  1  0  0  0
 14 15  2  0  0  0
 15 16  1  0  0  0
 16 17  2  0  0  0
 15 18  1  0  0  0
 18 19  1  0  0  0
 19 20  1  0  0  0
 20 21  1  0  0  0
 21 22  1  0  0  0
  4  5  1  0  0  0
  5 29  1  0  0  0
 29 31  1  0  0  0
 31 32  1  0  0  0
 32 33  1  0  0  0
 33 34  1  0  0  0
 34 35  1  0  0  0
 34 36  1  0  0  0
 36 37  1  0  0  0
  5  6  2  0  0  0
  6  1  1  0  0  0
 17 12  1  0  0  0
 22 18  1  0  0  0
 37 31  1  0  0  0
 23 24  1  0  0  0
  9 10  1  0  0  0
 29 30  1  0  0  0
 35 38  1  0  0  0
M  END
> <minimizedAffinity>
-7.89966

> <CNNscore>
0.1766132563

> <CNNaffinity>
6.0421981812

> <CNN_VS>
1.0671323538

> <CNNaffinity_variance>
0.2136445493

$$$$
[H]O[C@]1([H])C([H])([H])C([H])([H])[C@@]([H])(N([H])c2nc(N([H])C([H])([H])C([H])([H])C([H])([H])C([H])([H])[H])nc([H])c2C(=O)N([H])C([H])([H])c2c([H])c([H])c(N3C([H])([H])C([H])([H])C([H])([H])C3([H])[H])c([H])c2[H])C([H])([H])C1([H])[H]


 38 41  0  0  0  0  0  0  0  0999 V2000
    4.2691    6.8553   19.5706 C   0  0  0  0  0  0  0  0  0  0  0  0
    4.0531    8.0667   19.0300 N   0  0  0  0  0  0  0  0  0  0  0  0
    3.8662    8.2479   17.7108 C   0  0  0  0  0  0  0  0  0  0  0  0
    3.8923    7.1629   16.8521 C   0  0  0  0  0  0  0  0  0  0  0  0
    4.1115    5.9140   17.3812 C   0  0  0  0  0  0  0  0  0  0  0  0
    4.2910    5.8267   18.7351 N   0  0  0  0  0  0  0  0  0  0  0  0
    3.6901    7.3682   15.4441 C   0  0  0  0  0  0  0  0  0  0  0  0
    4.6232    7.7707   14.7093 O   0  0  0  0  0  0  0  0  0  0  0  0
    2.4236    7.1169   14.8571 N   0  0  0  0  0  0  0  0  0  0  0  0
    1.6181    6.7850   15.3995 H   0  0  0  0  0  0  0  0  0  0  0  0
    2.2724    7.3430   13.4203 C   0  0  0  0  0  0  0  0  0  0  0  0
    0.9343    6.9148   12.9293 C   0  0  0  0  0  0  0  0  0  0  0  0
   -0.1177    6.7022   13.8142 C   0  0  0  0  0  0  0  0  0  0  0  0
   -1.3643    6.2972   13.3939 C   0  0  0  0  0  0  0  0  0  0  0  0
   -1.6436    6.0766   12.0512 C   0  0  0  0  0  0  0  0  0  0  0  0
   -0.6079    6.2851   11.1712 C   0  0  0  0  0  0  0  0  0  0  0  0
    0.6610    6.6970   11.5980 C   0  0  0  0  0  0  0  0  0  0  0  0
   -2.9304    5.6577   11.6209 N   0  0  0  0  0  0  0  0  0  0  0  0
   -3.2022    4.6630   10.6156 C   0  0  0  0  0  0  0  0  0  0  0  0
   -4.4099    3.9410   11.1278 C   0  0  0  0  0  0  0  0  0  0  0  0
   -5.1814    4.9782   11.8691 C   0  0  0  0  0  0  0  0  0  0  0  0
   -4.2214    6.1235   12.0820 C   0  0  0  0  0  0  0  0  0  0  0  0
    4.4699    6.6651   20.9643 N   0  0  0  0  0  0  0  0  0  0  0  0
    4.4089    7.4287   21.6527 H   0  0  0  0  0  0  0  0  0  0  0  0
    4.7707    5.3261   21.4158 C   0  0  0  0  0  0  0  0  0  0  0  0
    4.0828    4.9328   22.6792 C   0  0  0  0  0  0  0  0  0  0  0  0
    4.1506    2.6339   21.8718 C   0  0  0  0  0  0  0  0  0  0  0  0
    4.5142    3.5291   23.0375 C   0  0  0  0  0  0  0  0  0  0  0  0
    4.1787    4.7142   16.6843 N   0  0  0  0  0  0  0  0  0  0  0  0
    4.6553    4.5790   15.7875 H   0  0  0  0  0  0  0  0  0  0  0  0
    3.5510    3.4870   17.1890 C   0  0  0  0  0  0  0  0  0  0  0  0
    2.4941    2.9699   16.2859 C   0  0  0  0  0  0  0  0  0  0  0  0
    2.9350    1.6492   15.6805 C   0  0  0  0  0  0  0  0  0  0  0  0
    3.1238    0.5967   16.7646 C   0  0  0  0  0  0  0  0  0  0  0  0
    1.8821    0.0589   17.0534 O   0  0  0  0  0  0  0  0  0  0  0  0
    3.8075    1.1960   17.9767 C   0  0  0  0  0  0  0  0  0  0  0  0
    4.5619    2.4085   17.4819 C   0  0  0  0  0  0  0  0  0  0  0  0
    1.2339    0.2019   16.2914 H   0  0  0  0  0  0  0  0  0  0  0  0
 27 28  1  0  0  0
 28 26  1  0  0  0
 26 25  1  0  0  0
 25 23  1  0  0  0
 23  1  1  0  0  0
  1  2  2  0  0  0
  2  3  1  0  0  0
  3  4  2  0  0  0
  4  7  1  0  0  0
  7  8  2  0  0  0
  7  9  1  0  0  0
  9 11  1  0  0  0
 11 12  1  0  0  0
 12 13  2  0  0  0
 13 14  1  0  0  0
 14 15  2  0  0  0
 15 16  1  0  0  0
 16 17  2  0  0  0
 15 18  1  0  0  0
 18 19  1  0  0  0
 19 20  1  0  0  0
 20 21  1  0  0  0
 21 22  1  0  0  0
  4  5  1  0  0  0
  5 29  1  0  0  0
 29 31  1  0  0  0
 31 32  1  0  0  0
 32 33  1  0  0  0
 33 34  1  0  0  0
 34 35  1  0  0  0
 34 36  1  0  0  0
 36 37  1  0  0  0
  5  6  2  0  0  0
  6  1  1  0  0  0
 17 12  1  0  0  0
 22 18  1  0  0  0
 37 31  1  0  0  0
 23 24  1  0  0  0
  9 10  1  0  0  0
 29 30  1  0  0  0
 35 38  1  0  0  0
M  END
> <minimizedAffinity>
-8.59562

> <CNNscore>
0.1614946872

> <CNNaffinity>
6.0197930336

> <CNN_VS>
0.9721645713

> <CNNaffinity_variance>
0.1605068147

$$$$
[H]O[C@]1([H])C([H])([H])C([H])([H])[C@@]([H])(N([H])c2nc(N([H])C([H])([H])C([H])([H])C([H])([H])C([H])([H])[H])nc([H])c2C(=O)N([H])C([H])([H])c2c([H])c([H])c(N3C([H])([H])C([H])([H])C([H])([H])C3([H])[H])c([H])c2[H])C([H])([H])C1([H])[H]


 38 41  0  0  0  0  0  0  0  0999 V2000
    5.1997    3.2169   20.2338 C   0  0  0  0  0  0  0  0  0  0  0  0
    4.6815    2.5129   19.2130 N   0  0  0  0  0  0  0  0  0  0  0  0
    4.0790    3.0973   18.1625 C   0  0  0  0  0  0  0  0  0  0  0  0
    3.9739    4.4760   18.1034 C   0  0  0  0  0  0  0  0  0  0  0  0
    4.4962    5.2176   19.1353 C   0  0  0  0  0  0  0  0  0  0  0  0
    5.0911    4.5359   20.1621 N   0  0  0  0  0  0  0  0  0  0  0  0
    3.3290    5.0900   16.9753 C   0  0  0  0  0  0  0  0  0  0  0  0
    2.0797    5.1821   16.9164 O   0  0  0  0  0  0  0  0  0  0  0  0
    4.0993    5.6064   15.9021 N   0  0  0  0  0  0  0  0  0  0  0  0
    5.1246    5.5653   15.8867 H   0  0  0  0  0  0  0  0  0  0  0  0
    3.3925    6.2201   14.7786 C   0  0  0  0  0  0  0  0  0  0  0  0
    3.0713    5.2279   13.7169 C   0  0  0  0  0  0  0  0  0  0  0  0
    1.8200    5.2106   13.1093 C   0  0  0  0  0  0  0  0  0  0  0  0
    1.4877    4.3008   12.1314 C   0  0  0  0  0  0  0  0  0  0  0  0
    2.3912    3.3410   11.6929 C   0  0  0  0  0  0  0  0  0  0  0  0
    3.6300    3.3528   12.2895 C   0  0  0  0  0  0  0  0  0  0  0  0
    3.9689    4.2781   13.2849 C   0  0  0  0  0  0  0  0  0  0  0  0
    2.0450    2.4031   10.6845 N   0  0  0  0  0  0  0  0  0  0  0  0
    2.9612    1.7631    9.7763 C   0  0  0  0  0  0  0  0  0  0  0  0
    2.4262    0.3721    9.6313 C   0  0  0  0  0  0  0  0  0  0  0  0
    0.9494    0.5223    9.7613 C   0  0  0  0  0  0  0  0  0  0  0  0
    0.7310    1.8943   10.3516 C   0  0  0  0  0  0  0  0  0  0  0  0
    5.8332    2.5983   21.3451 N   0  0  0  0  0  0  0  0  0  0  0  0
    6.6597    2.9935   21.8156 H   0  0  0  0  0  0  0  0  0  0  0  0
    5.2717    1.3559   21.8234 C   0  0  0  0  0  0  0  0  0  0  0  0
    3.9754    1.5035   22.5458 C   0  0  0  0  0  0  0  0  0  0  0  0
    3.6819   -0.4796   21.1592 C   0  0  0  0  0  0  0  0  0  0  0  0
    2.9428    0.6483   21.8476 C   0  0  0  0  0  0  0  0  0  0  0  0
    4.4816    6.6013   19.2573 N   0  0  0  0  0  0  0  0  0  0  0  0
    3.9544    7.2409   18.6552 H   0  0  0  0  0  0  0  0  0  0  0  0
    5.2474    7.2970   20.2987 C   0  0  0  0  0  0  0  0  0  0  0  0
    6.6718    7.4884   19.9321 C   0  0  0  0  0  0  0  0  0  0  0  0
    6.9578    8.9661   19.7319 C   0  0  0  0  0  0  0  0  0  0  0  0
    6.7424    9.7362   21.0278 C   0  0  0  0  0  0  0  0  0  0  0  0
    7.8894    9.6094   21.7912 O   0  0  0  0  0  0  0  0  0  0  0  0
    5.4983    9.2451   21.7397 C   0  0  0  0  0  0  0  0  0  0  0  0
    4.6241    8.6148   20.6802 C   0  0  0  0  0  0  0  0  0  0  0  0
    8.6866    9.3686   21.2188 H   0  0  0  0  0  0  0  0  0  0  0  0
 27 28  1  0  0  0
 28 26  1  0  0  0
 26 25  1  0  0  0
 25 23  1  0  0  0
 23  1  1  0  0  0
  1  2  2  0  0  0
  2  3  1  0  0  0
  3  4  2  0  0  0
  4  7  1  0  0  0
  7  8  2  0  0  0
  7  9  1  0  0  0
  9 11  1  0  0  0
 11 12  1  0  0  0
 12 13  2  0  0  0
 13 14  1  0  0  0
 14 15  2  0  0  0
 15 16  1  0  0  0
 16 17  2  0  0  0
 15 18  1  0  0  0
 18 19  1  0  0  0
 19 20  1  0  0  0
 20 21  1  0  0  0
 21 22  1  0  0  0
  4  5  1  0  0  0
  5 29  1  0  0  0
 29 31  1  0  0  0
 31 32  1  0  0  0
 32 33  1  0  0  0
 33 34  1  0  0  0
 34 35  1  0  0  0
 34 36  1  0  0  0
 36 37  1  0  0  0
  5  6  2  0  0  0
  6  1  1  0  0  0
 17 12  1  0  0  0
 22 18  1  0  0  0
 37 31  1  0  0  0
 23 24  1  0  0  0
  9 10  1  0  0  0
 29 30  1  0  0  0
 35 38  1  0  0  0
M  END
> <minimizedAffinity>
-7.11093

> <CNNscore>
0.1479921490

> <CNNaffinity>
6.4157361984

> <CNN_VS>
0.9494785666

> <CNNaffinity_variance>
0.2686387897

$$$$
[H]O[C@]1([H])C([H])([H])C([H])([H])[C@@]([H])(N([H])c2nc(N([H])C([H])([H])C([H])([H])C([H])([H])C([H])([H])[H])nc([H])c2C(=O)N([H])C([H])([H])c2c([H])c([H])c(N3C([H])([H])C([H])([H])C([H])([H])C3([H])[H])c([H])c2[H])C([H])([H])C1([H])[H]


 38 41  0  0  0  0  0  0  0  0999 V2000
    4.0708    3.9087   19.7720 C   0  0  0  0  0  0  0  0  0  0  0  0
    4.2594    3.7727   18.4483 N   0  0  0  0  0  0  0  0  0  0  0  0
    4.4059    4.8262   17.6257 C   0  0  0  0  0  0  0  0  0  0  0  0
    4.3650    6.1128   18.1343 C   0  0  0  0  0  0  0  0  0  0  0  0
    4.1732    6.2775   19.4847 C   0  0  0  0  0  0  0  0  0  0  0  0
    4.0342    5.1469   20.2433 N   0  0  0  0  0  0  0  0  0  0  0  0
    4.5239    7.2314   17.2460 C   0  0  0  0  0  0  0  0  0  0  0  0
    5.4880    8.0236   17.3709 O   0  0  0  0  0  0  0  0  0  0  0  0
    3.5875    7.4600   16.2056 N   0  0  0  0  0  0  0  0  0  0  0  0
    2.7772    6.8506   16.0464 H   0  0  0  0  0  0  0  0  0  0  0  0
    3.7962    8.6132   15.3310 C   0  0  0  0  0  0  0  0  0  0  0  0
    3.4287    8.3132   13.9204 C   0  0  0  0  0  0  0  0  0  0  0  0
    2.1400    8.5470   13.4519 C   0  0  0  0  0  0  0  0  0  0  0  0
    1.7651    8.2721   12.1564 C   0  0  0  0  0  0  0  0  0  0  0  0
    2.6608    7.7414   11.2366 C   0  0  0  0  0  0  0  0  0  0  0  0
    3.9365    7.5080   11.6934 C   0  0  0  0  0  0  0  0  0  0  0  0
    4.3187    7.7872   13.0117 C   0  0  0  0  0  0  0  0  0  0  0  0
    2.2707    7.4579    9.9010 N   0  0  0  0  0  0  0  0  0  0  0  0
    1.3879    6.3985    9.4860 C   0  0  0  0  0  0  0  0  0  0  0  0
    0.5945    6.9965    8.3658 C   0  0  0  0  0  0  0  0  0  0  0  0
    1.5314    7.9519    7.7102 C   0  0  0  0  0  0  0  0  0  0  0  0
    2.6620    8.1495    8.6907 C   0  0  0  0  0  0  0  0  0  0  0  0
    3.9127    2.7948   20.6399 N   0  0  0  0  0  0  0  0  0  0  0  0
    3.6179    2.8826   21.6228 H   0  0  0  0  0  0  0  0  0  0  0  0
    4.1815    1.4841   20.0949 C   0  0  0  0  0  0  0  0  0  0  0  0
    4.7625    0.5182   21.0714 C   0  0  0  0  0  0  0  0  0  0  0  0
    6.6786    1.6448   22.0717 C   0  0  0  0  0  0  0  0  0  0  0  0
    6.2685    0.6375   21.0184 C   0  0  0  0  0  0  0  0  0  0  0  0
    4.0970    7.4809   20.1745 N   0  0  0  0  0  0  0  0  0  0  0  0
    3.3532    8.1770   20.0656 H   0  0  0  0  0  0  0  0  0  0  0  0
    5.1117    7.8775   21.1583 C   0  0  0  0  0  0  0  0  0  0  0  0
    6.4777    7.4386   20.7822 C   0  0  0  0  0  0  0  0  0  0  0  0
    7.3376    8.6486   20.4632 C   0  0  0  0  0  0  0  0  0  0  0  0
    7.4960    9.5350   21.6912 C   0  0  0  0  0  0  0  0  0  0  0  0
    8.5131    9.0066   22.4663 O   0  0  0  0  0  0  0  0  0  0  0  0
    6.1822    9.6537   22.4365 C   0  0  0  0  0  0  0  0  0  0  0  0
    5.0948    9.3597   21.4289 C   0  0  0  0  0  0  0  0  0  0  0  0
    9.1239    8.4171   21.9182 H   0  0  0  0  0  0  0  0  0  0  0  0
 27 28  1  0  0  0
 28 26  1  0  0  0
 26 25  1  0  0  0
 25 23  1  0  0  0
 23  1  1  0  0  0
  1  2  2  0  0  0
  2  3  1  0  0  0
  3  4  2  0  0  0
  4  7  1  0  0  0
  7  8  2  0  0  0
  7  9  1  0  0  0
  9 11  1  0  0  0
 11 12  1  0  0  0
 12 13  2  0  0  0
 13 14  1  0  0  0
 14 15  2  0  0  0
 15 16  1  0  0  0
 16 17  2  0  0  0
 15 18  1  0  0  0
 18 19  1  0  0  0
 19 20  1  0  0  0
 20 21  1  0  0  0
 21 22  1  0  0  0
  4  5  1  0  0  0
  5 29  1  0  0  0
 29 31  1  0  0  0
 31 32  1  0  0  0
 32 33  1  0  0  0
 33 34  1  0  0  0
 34 35  1  0  0  0
 34 36  1  0  0  0
 36 37  1  0  0  0
  5  6  2  0  0  0
  6  1  1  0  0  0
 17 12  1  0  0  0
 22 18  1  0  0  0
 37 31  1  0  0  0
 23 24  1  0  0  0
  9 10  1  0  0  0
 29 30  1  0  0  0
 35 38  1  0  0  0
M  END
> <minimizedAffinity>
-7.44356

> <CNNscore>
0.1381809115

> <CNNaffinity>
5.7353549004

> <CNN_VS>
0.7925165892

> <CNNaffinity_variance>
0.1701188385

$$$$
[H]c1nc(N([H])[H])c(C(=O)N([H])[C@@]2([H])C([H])([H])C([H])([H])C([H])([H])[C@]2([H])OC([H])([H])c2c([H])c([H])c(-c3c([H])c([H])c(C(=O)N([H])[H])c([H])c3[H])c([H])c2[H])c([H])c1-c1c([H])nn(C([H])([H])[H])c1[H]


 43 47  0  0  0  0  0  0  0  0999 V2000
    4.6528    3.1643    8.0747 C   0  0  0  0  0  0  0  0  0  0  0  0
    6.1171    2.7162    7.9529 C   0  0  0  0  0  0  0  0  0  0  0  0
    5.9730    1.2429    8.2731 C   0  0  0  0  0  0  0  0  0  0  0  0
    4.9154    1.1896    9.3320 C   0  0  0  0  0  0  0  0  0  0  0  0
    4.2804    2.5863    9.4014 C   0  0  0  0  0  0  0  0  0  0  0  0
    4.4802    5.2620    6.7768 C   0  0  0  0  0  0  0  0  0  0  0  0
    4.4794    4.5702    5.7012 O   0  0  0  0  0  0  0  0  0  0  0  0
    4.5664    4.6098    8.0434 N   0  0  0  0  0  0  0  0  0  0  0  0
    4.5655    5.1647    8.9006 H   0  0  0  0  0  0  0  0  0  0  0  0
    3.1342    8.6838    6.1140 C   0  0  0  0  0  0  0  0  0  0  0  0
    4.2834    9.4002    6.3614 C   0  0  0  0  0  0  0  0  0  0  0  0
    5.4292    8.8024    6.7218 N   0  0  0  0  0  0  0  0  0  0  0  0
    5.5298    7.4698    6.8644 C   0  0  0  0  0  0  0  0  0  0  0  0
    6.7605    6.8566    7.2487 N   0  0  0  0  0  0  0  0  0  0  0  0
    4.3904    6.7084    6.6234 C   0  0  0  0  0  0  0  0  0  0  0  0
    3.1975    7.3069    6.2502 C   0  0  0  0  0  0  0  0  0  0  0  0
    7.0946    6.7947    8.2282 H   0  0  0  0  0  0  0  0  0  0  0  0
    7.3538    6.4502    6.5015 H   0  0  0  0  0  0  0  0  0  0  0  0
   -1.0504    9.7187    3.6511 C   0  0  0  0  0  0  0  0  0  0  0  0
    0.0107    9.7865    4.6250 N   0  0  0  0  0  0  0  0  0  0  0  0
    1.0774    8.9654    4.6639 C   0  0  0  0  0  0  0  0  0  0  0  0
    1.8799    9.3213    5.7223 C   0  0  0  0  0  0  0  0  0  0  0  0
    1.2726   10.3838    6.3293 C   0  0  0  0  0  0  0  0  0  0  0  0
    0.1607   10.6252    5.6392 N   0  0  0  0  0  0  0  0  0  0  0  0
    2.9293    2.5003    9.6179 O   0  0  0  0  0  0  0  0  0  0  0  0
    2.4820    3.5031   10.4660 C   0  0  0  0  0  0  0  0  0  0  0  0
    2.7893    3.2194   11.8802 C   0  0  0  0  0  0  0  0  0  0  0  0
    3.6118    4.0247   12.6434 C   0  0  0  0  0  0  0  0  0  0  0  0
    3.8872    3.7347   13.9588 C   0  0  0  0  0  0  0  0  0  0  0  0
    3.3481    2.6132   14.5822 C   0  0  0  0  0  0  0  0  0  0  0  0
    2.5287    1.8156   13.8133 C   0  0  0  0  0  0  0  0  0  0  0  0
    2.2511    2.1108   12.4822 C   0  0  0  0  0  0  0  0  0  0  0  0
    3.6343    2.2971   15.9758 C   0  0  0  0  0  0  0  0  0  0  0  0
    3.1329    1.1534   16.5542 C   0  0  0  0  0  0  0  0  0  0  0  0
    3.3980    0.8446   17.8858 C   0  0  0  0  0  0  0  0  0  0  0  0
    4.1707    1.6682   18.6770 C   0  0  0  0  0  0  0  0  0  0  0  0
    4.6717    2.8141   18.0934 C   0  0  0  0  0  0  0  0  0  0  0  0
    4.4113    3.1253   16.7710 C   0  0  0  0  0  0  0  0  0  0  0  0
    4.4336    1.3257   20.0651 C   0  0  0  0  0  0  0  0  0  0  0  0
    3.3913    0.8009   20.8685 N   0  0  0  0  0  0  0  0  0  0  0  0
    5.5676    1.4846   20.5719 O   0  0  0  0  0  0  0  0  0  0  0  0
    3.5857    0.0957   21.6277 H   0  0  0  0  0  0  0  0  0  0  0  0
    2.3857    1.0789   20.7562 H   0  0  0  0  0  0  0  0  0  0  0  0
 19 20  1  0  0  0
 20 21  1  0  0  0
 21 22  2  0  0  0
 22 23  1  0  0  0
 23 24  2  0  0  0
 22 10  1  0  0  0
 10 11  2  0  0  0
 11 12  1  0  0  0
 12 13  2  0  0  0
 13 14  1  0  0  0
 13 15  1  0  0  0
 15 16  2  0  0  0
 15  6  1  0  0  0
  6  7  2  0  0  0
  6  8  1  0  0  0
  8  1  1  0  0  0
  1  2  1  0  0  0
  2  3  1  0  0  0
  3  4  1  0  0  0
  4  5  1  0  0  0
  5 25  1  0  0  0
 25 26  1  0  0  0
 26 27  1  0  0  0
 27 28  2  0  0  0
 28 29  1  0  0  0
 29 30  2  0  0  0
 30 31  1  0  0  0
 31 32  2  0  0  0
 30 33  1  0  0  0
 33 34  2  0  0  0
 34 35  1  0  0  0
 35 36  2  0  0  0
 36 37  1  0  0  0
 37 38  2  0  0  0
 36 39  1  0  0  0
 39 40  1  0  0  0
 39 41  2  0  0  0
 24 20  1  0  0  0
 16 10  1  0  0  0
  5  1  1  0  0  0
 32 27  1  0  0  0
 38 33  1  0  0  0
 14 17  1  0  0  0
 14 18  1  0  0  0
  8  9  1  0  0  0
 40 42  1  0  0  0
 40 43  1  0  0  0
M  END
> <minimizedAffinity>
-8.11131

> <CNNscore>
0.2399118990

> <CNNaffinity>
5.6683015823

> <CNN_VS>
1.3598929644

> <CNNaffinity_variance>
0.2334840745

$$$$
[H]c1nc(N([H])[H])c(C(=O)N([H])[C@@]2([H])C([H])([H])C([H])([H])C([H])([H])[C@]2([H])OC([H])([H])c2c([H])c([H])c(-c3c([H])c([H])c(C(=O)N([H])[H])c([H])c3[H])c([H])c2[H])c([H])c1-c1c([H])nn(C([H])([H])[H])c1[H]


 43 47  0  0  0  0  0  0  0  0999 V2000
    4.5590    4.6150   22.4086 C   0  0  0  0  0  0  0  0  0  0  0  0
    3.6066    4.2396   23.5540 C   0  0  0  0  0  0  0  0  0  0  0  0
    3.8682    2.7504   23.6416 C   0  0  0  0  0  0  0  0  0  0  0  0
    4.0664    2.3190   22.2214 C   0  0  0  0  0  0  0  0  0  0  0  0
    4.1915    3.5967   21.3785 C   0  0  0  0  0  0  0  0  0  0  0  0
    5.4099    6.7549   21.5080 C   0  0  0  0  0  0  0  0  0  0  0  0
    6.5846    6.2502   21.4795 O   0  0  0  0  0  0  0  0  0  0  0  0
    4.3099    5.9741   21.9742 N   0  0  0  0  0  0  0  0  0  0  0  0
    3.3729    6.3794   21.9946 H   0  0  0  0  0  0  0  0  0  0  0  0
    4.5529    9.7333   19.4213 C   0  0  0  0  0  0  0  0  0  0  0  0
    5.0589   10.7086   20.2507 C   0  0  0  0  0  0  0  0  0  0  0  0
    5.6456   10.4121   21.4203 N   0  0  0  0  0  0  0  0  0  0  0  0
    5.7774    9.1480   21.8572 C   0  0  0  0  0  0  0  0  0  0  0  0
    6.4060    8.8574   23.1057 N   0  0  0  0  0  0  0  0  0  0  0  0
    5.2790    8.1316   21.0482 C   0  0  0  0  0  0  0  0  0  0  0  0
    4.6697    8.4172   19.8367 C   0  0  0  0  0  0  0  0  0  0  0  0
    5.9273    8.9223   24.0231 H   0  0  0  0  0  0  0  0  0  0  0  0
    7.4008    8.5647   23.0911 H   0  0  0  0  0  0  0  0  0  0  0  0
    3.4644    9.7280   14.5774 C   0  0  0  0  0  0  0  0  0  0  0  0
    3.4219   10.0421   15.9840 N   0  0  0  0  0  0  0  0  0  0  0  0
    4.2364    9.5157   16.9183 C   0  0  0  0  0  0  0  0  0  0  0  0
    3.9107   10.0417   18.1463 C   0  0  0  0  0  0  0  0  0  0  0  0
    2.8732   10.9050   17.9355 C   0  0  0  0  0  0  0  0  0  0  0  0
    2.6165   10.8718   16.6303 N   0  0  0  0  0  0  0  0  0  0  0  0
    5.1238    3.4398   20.3856 O   0  0  0  0  0  0  0  0  0  0  0  0
    5.0427    2.1840   19.8012 C   0  0  0  0  0  0  0  0  0  0  0  0
    4.4894    2.2363   18.4352 C   0  0  0  0  0  0  0  0  0  0  0  0
    3.7873    1.1890   17.8715 C   0  0  0  0  0  0  0  0  0  0  0  0
    3.2866    1.2609   16.5931 C   0  0  0  0  0  0  0  0  0  0  0  0
    3.4652    2.3955   15.8072 C   0  0  0  0  0  0  0  0  0  0  0  0
    4.1667    3.4354   16.3776 C   0  0  0  0  0  0  0  0  0  0  0  0
    4.6727    3.3608   17.6716 C   0  0  0  0  0  0  0  0  0  0  0  0
    2.9386    2.4811   14.4510 C   0  0  0  0  0  0  0  0  0  0  0  0
    1.8095    1.7818   14.0901 C   0  0  0  0  0  0  0  0  0  0  0  0
    1.3009    1.8546   12.7959 C   0  0  0  0  0  0  0  0  0  0  0  0
    1.9046    2.6271   11.8263 C   0  0  0  0  0  0  0  0  0  0  0  0
    3.0365    3.3268   12.1920 C   0  0  0  0  0  0  0  0  0  0  0  0
    3.5457    3.2579   13.4764 C   0  0  0  0  0  0  0  0  0  0  0  0
    1.3560    2.6872   10.4814 C   0  0  0  0  0  0  0  0  0  0  0  0
    0.0083    2.3131   10.2553 N   0  0  0  0  0  0  0  0  0  0  0  0
    2.0509    3.0645    9.5105 O   0  0  0  0  0  0  0  0  0  0  0  0
   -0.5744    2.7829    9.5129 H   0  0  0  0  0  0  0  0  0  0  0  0
   -0.4775    1.5615   10.8032 H   0  0  0  0  0  0  0  0  0  0  0  0
 19 20  1  0  0  0
 20 21  1  0  0  0
 21 22  2  0  0  0
 22 23  1  0  0  0
 23 24  2  0  0  0
 22 10  1  0  0  0
 10 11  2  0  0  0
 11 12  1  0  0  0
 12 13  2  0  0  0
 13 14  1  0  0  0
 13 15  1  0  0  0
 15 16  2  0  0  0
 15  6  1  0  0  0
  6  7  2  0  0  0
  6  8  1  0  0  0
  8  1  1  0  0  0
  1  2  1  0  0  0
  2  3  1  0  0  0
  3  4  1  0  0  0
  4  5  1  0  0  0
  5 25  1  0  0  0
 25 26  1  0  0  0
 26 27  1  0  0  0
 27 28  2  0  0  0
 28 29  1  0  0  0
 29 30  2  0  0  0
 30 31  1  0  0  0
 31 32  2  0  0  0
 30 33  1  0  0  0
 33 34  2  0  0  0
 34 35  1  0  0  0
 35 36  2  0  0  0
 36 37  1  0  0  0
 37 38  2  0  0  0
 36 39  1  0  0  0
 39 40  1  0  0  0
 39 41  2  0  0  0
 24 20  1  0  0  0
 16 10  1  0  0  0
  5  1  1  0  0  0
 32 27  1  0  0  0
 38 33  1  0  0  0
 14 17  1  0  0  0
 14 18  1  0  0  0
  8  9  1  0  0  0
 40 42  1  0  0  0
 40 43  1  0  0  0
M  END
> <minimizedAffinity>
-10.55925

> <CNNscore>
0.2373671979

> <CNNaffinity>
6.4246649742

> <CNN_VS>
1.5250047445

> <CNNaffinity_variance>
0.2187677920

$$$$
[H]c1nc(N([H])[H])c(C(=O)N([H])[C@@]2([H])C([H])([H])C([H])([H])C([H])([H])[C@]2([H])OC([H])([H])c2c([H])c([H])c(-c3c([H])c([H])c(C(=O)N([H])[H])c([H])c3[H])c([H])c2[H])c([H])c1-c1c([H])nn(C([H])([H])[H])c1[H]


 43 47  0  0  0  0  0  0  0  0999 V2000
    3.1550    2.8762    8.9234 C   0  0  0  0  0  0  0  0  0  0  0  0
    4.1077    2.0105    8.0851 C   0  0  0  0  0  0  0  0  0  0  0  0
    3.6969    0.6303    8.5543 C   0  0  0  0  0  0  0  0  0  0  0  0
    3.3993    0.8014   10.0119 C   0  0  0  0  0  0  0  0  0  0  0  0
    3.3741    2.3118   10.2895 C   0  0  0  0  0  0  0  0  0  0  0  0
    2.5493    5.2083    8.3670 C   0  0  0  0  0  0  0  0  0  0  0  0
    1.3748    4.8063    8.0596 O   0  0  0  0  0  0  0  0  0  0  0  0
    3.5262    4.2726    8.8223 N   0  0  0  0  0  0  0  0  0  0  0  0
    4.4628    4.5967    9.0683 H   0  0  0  0  0  0  0  0  0  0  0  0
    4.1182    8.4464    7.3610 C   0  0  0  0  0  0  0  0  0  0  0  0
    3.2379    9.2972    7.9905 C   0  0  0  0  0  0  0  0  0  0  0  0
    2.1955    8.8415    8.7017 N   0  0  0  0  0  0  0  0  0  0  0  0
    1.9433    7.5293    8.8456 C   0  0  0  0  0  0  0  0  0  0  0  0
    0.8274    7.0686    9.6078 N   0  0  0  0  0  0  0  0  0  0  0  0
    2.8096    6.6350    8.2247 C   0  0  0  0  0  0  0  0  0  0  0  0
    3.8920    7.0857    7.4859 C   0  0  0  0  0  0  0  0  0  0  0  0
   -0.1418    7.0199    9.2428 H   0  0  0  0  0  0  0  0  0  0  0  0
    0.9994    6.7656   10.5846 H   0  0  0  0  0  0  0  0  0  0  0  0
    8.1698    8.5085    4.4924 C   0  0  0  0  0  0  0  0  0  0  0  0
    7.0655    8.9601    5.3020 N   0  0  0  0  0  0  0  0  0  0  0  0
    6.1620    8.1560    5.8944 C   0  0  0  0  0  0  0  0  0  0  0  0
    5.2561    8.9284    6.5826 C   0  0  0  0  0  0  0  0  0  0  0  0
    5.6321   10.2281    6.3937 C   0  0  0  0  0  0  0  0  0  0  0  0
    6.7166   10.1970    5.6232 N   0  0  0  0  0  0  0  0  0  0  0  0
    2.3922    2.6280   11.1925 O   0  0  0  0  0  0  0  0  0  0  0  0
    2.7285    3.7444   11.9445 C   0  0  0  0  0  0  0  0  0  0  0  0
    3.0821    3.3986   13.3338 C   0  0  0  0  0  0  0  0  0  0  0  0
    2.7677    2.1810   13.9050 C   0  0  0  0  0  0  0  0  0  0  0  0
    3.1037    1.8854   15.2050 C   0  0  0  0  0  0  0  0  0  0  0  0
    3.7777    2.8023   16.0061 C   0  0  0  0  0  0  0  0  0  0  0  0
    4.0874    4.0143   15.4280 C   0  0  0  0  0  0  0  0  0  0  0  0
    3.7465    4.3116   14.1122 C   0  0  0  0  0  0  0  0  0  0  0  0
    4.1380    2.4985   17.3852 C   0  0  0  0  0  0  0  0  0  0  0  0
    3.8205    1.2808   17.9425 C   0  0  0  0  0  0  0  0  0  0  0  0
    4.1575    0.9827   19.2602 C   0  0  0  0  0  0  0  0  0  0  0  0
    4.8204    1.8910   20.0582 C   0  0  0  0  0  0  0  0  0  0  0  0
    5.1370    3.1109   19.4958 C   0  0  0  0  0  0  0  0  0  0  0  0
    4.8045    3.4119   18.1872 C   0  0  0  0  0  0  0  0  0  0  0  0
    5.1613    1.5579   21.4315 C   0  0  0  0  0  0  0  0  0  0  0  0
    4.1298    1.3325   22.3763 N   0  0  0  0  0  0  0  0  0  0  0  0
    6.3536    1.4647   21.8027 O   0  0  0  0  0  0  0  0  0  0  0  0
    4.2453    0.6358   23.1590 H   0  0  0  0  0  0  0  0  0  0  0  0
    3.2098    1.8365   22.3515 H   0  0  0  0  0  0  0  0  0  0  0  0
 19 20  1  0  0  0
 20 21  1  0  0  0
 21 22  2  0  0  0
 22 23  1  0  0  0
 23 24  2  0  0  0
 22 10  1  0  0  0
 10 11  2  0  0  0
 11 12  1  0  0  0
 12 13  2  0  0  0
 13 14  1  0  0  0
 13 15  1  0  0  0
 15 16  2  0  0  0
 15  6  1  0  0  0
  6  7  2  0  0  0
  6  8  1  0  0  0
  8  1  1  0  0  0
  1  2  1  0  0  0
  2  3  1  0  0  0
  3  4  1  0  0  0
  4  5  1  0  0  0
  5 25  1  0  0  0
 25 26  1  0  0  0
 26 27  1  0  0  0
 27 28  2  0  0  0
 28 29  1  0  0  0
 29 30  2  0  0  0
 30 31  1  0  0  0
 31 32  2  0  0  0
 30 33  1  0  0  0
 33 34  2  0  0  0
 34 35  1  0  0  0
 35 36  2  0  0  0
 36 37  1  0  0  0
 37 38  2  0  0  0
 36 39  1  0  0  0
 39 40  1  0  0  0
 39 41  2  0  0  0
 24 20  1  0  0  0
 16 10  1  0  0  0
  5  1  1  0  0  0
 32 27  1  0  0  0
 38 33  1  0  0  0
 14 17  1  0  0  0
 14 18  1  0  0  0
  8  9  1  0  0  0
 40 42  1  0  0  0
 40 43  1  0  0  0
M  END
> <minimizedAffinity>
-8.36210

> <CNNscore>
0.2110665590

> <CNNaffinity>
5.7861452103

> <CNN_VS>
1.2212617397

> <CNNaffinity_variance>
0.3241988122

$$$$
[H]c1nc(N([H])[H])c(C(=O)N([H])[C@@]2([H])C([H])([H])C([H])([H])C([H])([H])[C@]2([H])OC([H])([H])c2c([H])c([H])c(-c3c([H])c([H])c(C(=O)N([H])[H])c([H])c3[H])c([H])c2[H])c([H])c1-c1c([H])nn(C([H])([H])[H])c1[H]


 43 47  0  0  0  0  0  0  0  0999 V2000
    1.0031    5.8747   10.9445 C   0  0  0  0  0  0  0  0  0  0  0  0
   -0.1994    6.6045   11.5622 C   0  0  0  0  0  0  0  0  0  0  0  0
   -0.3416    5.8347   12.8588 C   0  0  0  0  0  0  0  0  0  0  0  0
   -0.0119    4.4201   12.4946 C   0  0  0  0  0  0  0  0  0  0  0  0
    0.5777    4.4483   11.0768 C   0  0  0  0  0  0  0  0  0  0  0  0
    1.7319    7.5773    9.3059 C   0  0  0  0  0  0  0  0  0  0  0  0
    2.0500    8.3447   10.2782 O   0  0  0  0  0  0  0  0  0  0  0  0
    1.1853    6.2850    9.5674 N   0  0  0  0  0  0  0  0  0  0  0  0
    0.9334    5.6739    8.7890 H   0  0  0  0  0  0  0  0  0  0  0  0
    3.4304    8.8950    6.2501 C   0  0  0  0  0  0  0  0  0  0  0  0
    2.3169    9.0497    5.4556 C   0  0  0  0  0  0  0  0  0  0  0  0
    1.0854    8.7435    5.8912 N   0  0  0  0  0  0  0  0  0  0  0  0
    0.8590    8.2674    7.1274 C   0  0  0  0  0  0  0  0  0  0  0  0
   -0.4610    7.9489    7.5685 N   0  0  0  0  0  0  0  0  0  0  0  0
    1.9583    8.0961    7.9630 C   0  0  0  0  0  0  0  0  0  0  0  0
    3.2382    8.4067    7.5318 C   0  0  0  0  0  0  0  0  0  0  0  0
   -0.9471    7.0609    7.3443 H   0  0  0  0  0  0  0  0  0  0  0  0
   -0.9612    8.6494    8.1469 H   0  0  0  0  0  0  0  0  0  0  0  0
    7.6211    8.9031    3.5882 C   0  0  0  0  0  0  0  0  0  0  0  0
    6.6495    9.2292    4.6024 N   0  0  0  0  0  0  0  0  0  0  0  0
    5.4273    8.6739    4.7087 C   0  0  0  0  0  0  0  0  0  0  0  0
    4.7767    9.2230    5.7885 C   0  0  0  0  0  0  0  0  0  0  0  0
    5.6368   10.1302    6.3393 C   0  0  0  0  0  0  0  0  0  0  0  0
    6.7411   10.0989    5.5975 N   0  0  0  0  0  0  0  0  0  0  0  0
    1.5999    3.5432   10.9528 O   0  0  0  0  0  0  0  0  0  0  0  0
    2.7968    4.0535   11.4345 C   0  0  0  0  0  0  0  0  0  0  0  0
    3.0671    3.6333   12.8220 C   0  0  0  0  0  0  0  0  0  0  0  0
    3.6194    4.4774   13.7654 C   0  0  0  0  0  0  0  0  0  0  0  0
    3.8670    4.0590   15.0515 C   0  0  0  0  0  0  0  0  0  0  0  0
    3.5714    2.7623   15.4616 C   0  0  0  0  0  0  0  0  0  0  0  0
    3.0206    1.9272   14.5139 C   0  0  0  0  0  0  0  0  0  0  0  0
    2.7708    2.3525   13.2129 C   0  0  0  0  0  0  0  0  0  0  0  0
    3.8304    2.3093   16.8223 C   0  0  0  0  0  0  0  0  0  0  0  0
    4.6214    3.0498   17.6710 C   0  0  0  0  0  0  0  0  0  0  0  0
    4.8774    2.6234   18.9715 C   0  0  0  0  0  0  0  0  0  0  0  0
    4.3513    1.4468   19.4614 C   0  0  0  0  0  0  0  0  0  0  0  0
    3.5586    0.7071   18.6075 C   0  0  0  0  0  0  0  0  0  0  0  0
    3.3012    1.1263   17.3146 C   0  0  0  0  0  0  0  0  0  0  0  0
    4.6327    1.0213   20.8227 C   0  0  0  0  0  0  0  0  0  0  0  0
    3.5874    0.9883   21.7785 N   0  0  0  0  0  0  0  0  0  0  0  0
    5.7854    0.6806   21.1737 O   0  0  0  0  0  0  0  0  0  0  0  0
    3.5680    0.2655   22.5456 H   0  0  0  0  0  0  0  0  0  0  0  0
    2.7884    1.6685   21.7775 H   0  0  0  0  0  0  0  0  0  0  0  0
 19 20  1  0  0  0
 20 21  1  0  0  0
 21 22  2  0  0  0
 22 23  1  0  0  0
 23 24  2  0  0  0
 22 10  1  0  0  0
 10 11  2  0  0  0
 11 12  1  0  0  0
 12 13  2  0  0  0
 13 14  1  0  0  0
 13 15  1  0  0  0
 15 16  2  0  0  0
 15  6  1  0  0  0
  6  7  2  0  0  0
  6  8  1  0  0  0
  8  1  1  0  0  0
  1  2  1  0  0  0
  2  3  1  0  0  0
  3  4  1  0  0  0
  4  5  1  0  0  0
  5 25  1  0  0  0
 25 26  1  0  0  0
 26 27  1  0  0  0
 27 28  2  0  0  0
 28 29  1  0  0  0
 29 30  2  0  0  0
 30 31  1  0  0  0
 31 32  2  0  0  0
 30 33  1  0  0  0
 33 34  2  0  0  0
 34 35  1  0  0  0
 35 36  2  0  0  0
 36 37  1  0  0  0
 37 38  2  0  0  0
 36 39  1  0  0  0
 39 40  1  0  0  0
 39 41  2  0  0  0
 24 20  1  0  0  0
 16 10  1  0  0  0
  5  1  1  0  0  0
 32 27  1  0  0  0
 38 33  1  0  0  0
 14 17  1  0  0  0
 14 18  1  0  0  0
  8  9  1  0  0  0
 40 42  1  0  0  0
 40 43  1  0  0  0
M  END
> <minimizedAffinity>
-8.84095

> <CNNscore>
0.1791440099

> <CNNaffinity>
5.3797349930

> <CNN_VS>
0.9637473226

> <CNNaffinity_variance>
0.1973356754

$$$$
[H]c1nc(N([H])[H])c(C(=O)N([H])[C@@]2([H])C([H])([H])C([H])([H])C([H])([H])[C@]2([H])OC([H])([H])c2c([H])c([H])c(-c3c([H])c([H])c(C(=O)N([H])[H])c([H])c3[H])c([H])c2[H])c([H])c1-c1c([H])nn(C([H])([H])[H])c1[H]


 43 47  0  0  0  0  0  0  0  0999 V2000
    5.2690    2.6573   21.8269 C   0  0  0  0  0  0  0  0  0  0  0  0
    4.5513    2.4456   23.1685 C   0  0  0  0  0  0  0  0  0  0  0  0
    3.7730    1.1837   22.8588 C   0  0  0  0  0  0  0  0  0  0  0  0
    3.3576    1.3393   21.4285 C   0  0  0  0  0  0  0  0  0  0  0  0
    4.1307    2.5412   20.8658 C   0  0  0  0  0  0  0  0  0  0  0  0
    5.1028    5.1151   22.0413 C   0  0  0  0  0  0  0  0  0  0  0  0
    3.8529    4.9873   22.2805 O   0  0  0  0  0  0  0  0  0  0  0  0
    5.9034    3.9590   21.7974 N   0  0  0  0  0  0  0  0  0  0  0  0
    6.9013    4.0641   21.6080 H   0  0  0  0  0  0  0  0  0  0  0  0
    7.1638    8.1246   22.8504 C   0  0  0  0  0  0  0  0  0  0  0  0
    6.5754    9.0090   21.9748 C   0  0  0  0  0  0  0  0  0  0  0  0
    5.5658    8.6455   21.1694 N   0  0  0  0  0  0  0  0  0  0  0  0
    5.0645    7.3985   21.1648 C   0  0  0  0  0  0  0  0  0  0  0  0
    3.9893    7.0355   20.2985 N   0  0  0  0  0  0  0  0  0  0  0  0
    5.6313    6.4732   22.0356 C   0  0  0  0  0  0  0  0  0  0  0  0
    6.6747    6.8290   22.8754 C   0  0  0  0  0  0  0  0  0  0  0  0
    4.1106    6.7854   19.2996 H   0  0  0  0  0  0  0  0  0  0  0  0
    3.0309    7.0226   20.6944 H   0  0  0  0  0  0  0  0  0  0  0  0
    9.8760    8.8652   26.9423 C   0  0  0  0  0  0  0  0  0  0  0  0
    9.4781    8.8385   25.5567 N   0  0  0  0  0  0  0  0  0  0  0  0
    8.2978    8.3776   25.1004 C   0  0  0  0  0  0  0  0  0  0  0  0
    8.2641    8.5062   23.7317 C   0  0  0  0  0  0  0  0  0  0  0  0
    9.4581    9.0591   23.3647 C   0  0  0  0  0  0  0  0  0  0  0  0
   10.1493    9.2395   24.4874 N   0  0  0  0  0  0  0  0  0  0  0  0
    4.5113    2.3154   19.5683 O   0  0  0  0  0  0  0  0  0  0  0  0
    5.0189    3.4631   18.9765 C   0  0  0  0  0  0  0  0  0  0  0  0
    4.2719    3.8456   17.7639 C   0  0  0  0  0  0  0  0  0  0  0  0
    4.5256    3.2938   16.5234 C   0  0  0  0  0  0  0  0  0  0  0  0
    3.8184    3.6722   15.4068 C   0  0  0  0  0  0  0  0  0  0  0  0
    2.8121    4.6311   15.4764 C   0  0  0  0  0  0  0  0  0  0  0  0
    2.5657    5.1762   16.7178 C   0  0  0  0  0  0  0  0  0  0  0  0
    3.2826    4.7919   17.8467 C   0  0  0  0  0  0  0  0  0  0  0  0
    2.0572    5.0391   14.2985 C   0  0  0  0  0  0  0  0  0  0  0  0
    0.9972    5.9099   14.4100 C   0  0  0  0  0  0  0  0  0  0  0  0
    0.2678    6.3028   13.2909 C   0  0  0  0  0  0  0  0  0  0  0  0
    0.5757    5.8380   12.0298 C   0  0  0  0  0  0  0  0  0  0  0  0
    1.6392    4.9650   11.9220 C   0  0  0  0  0  0  0  0  0  0  0  0
    2.3670    4.5717   13.0307 C   0  0  0  0  0  0  0  0  0  0  0  0
   -0.2005    6.2615   10.8759 C   0  0  0  0  0  0  0  0  0  0  0  0
    0.4352    6.9610    9.8204 N   0  0  0  0  0  0  0  0  0  0  0  0
   -1.4265    6.0213   10.7914 O   0  0  0  0  0  0  0  0  0  0  0  0
    0.1247    6.8446    8.8197 H   0  0  0  0  0  0  0  0  0  0  0  0
    1.2357    7.6224    9.9715 H   0  0  0  0  0  0  0  0  0  0  0  0
 19 20  1  0  0  0
 20 21  1  0  0  0
 21 22  2  0  0  0
 22 23  1  0  0  0
 23 24  2  0  0  0
 22 10  1  0  0  0
 10 11  2  0  0  0
 11 12  1  0  0  0
 12 13  2  0  0  0
 13 14  1  0  0  0
 13 15  1  0  0  0
 15 16  2  0  0  0
 15  6  1  0  0  0
  6  7  2  0  0  0
  6  8  1  0  0  0
  8  1  1  0  0  0
  1  2  1  0  0  0
  2  3  1  0  0  0
  3  4  1  0  0  0
  4  5  1  0  0  0
  5 25  1  0  0  0
 25 26  1  0  0  0
 26 27  1  0  0  0
 27 28  2  0  0  0
 28 29  1  0  0  0
 29 30  2  0  0  0
 30 31  1  0  0  0
 31 32  2  0  0  0
 30 33  1  0  0  0
 33 34  2  0  0  0
 34 35  1  0  0  0
 35 36  2  0  0  0
 36 37  1  0  0  0
 37 38  2  0  0  0
 36 39  1  0  0  0
 39 40  1  0  0  0
 39 41  2  0  0  0
 24 20  1  0  0  0
 16 10  1  0  0  0
  5  1  1  0  0  0
 32 27  1  0  0  0
 38 33  1  0  0  0
 14 17  1  0  0  0
 14 18  1  0  0  0
  8  9  1  0  0  0
 40 42  1  0  0  0
 40 43  1  0  0  0
M  END
> <minimizedAffinity>
-8.86424

> <CNNscore>
0.1702424735

> <CNNaffinity>
6.1012439728

> <CNN_VS>
1.0386909246

> <CNNaffinity_variance>
0.5776629448

$$$$
[H]c1nc(N([H])[H])c(C(=O)N([H])[C@@]2([H])C([H])([H])C([H])([H])C([H])([H])[C@]2([H])OC([H])([H])c2c([H])c([H])c(-c3c([H])c([H])c(C(=O)N([H])[H])c([H])c3[H])c([H])c2[H])c([H])c1-c1c([H])nn(C([H])([H])[H])c1[H]


 43 47  0  0  0  0  0  0  0  0999 V2000
    2.2283    3.0362    9.2969 C   0  0  0  0  0  0  0  0  0  0  0  0
    1.1120    2.7199    8.2900 C   0  0  0  0  0  0  0  0  0  0  0  0
    0.0523    2.1792    9.2274 C   0  0  0  0  0  0  0  0  0  0  0  0
    0.8192    1.4128   10.2603 C   0  0  0  0  0  0  0  0  0  0  0  0
    2.3033    1.7543   10.0612 C   0  0  0  0  0  0  0  0  0  0  0  0
    4.1960    4.5047    9.0028 C   0  0  0  0  0  0  0  0  0  0  0  0
    3.7674    5.2336    9.9622 O   0  0  0  0  0  0  0  0  0  0  0  0
    3.4581    3.3514    8.5996 N   0  0  0  0  0  0  0  0  0  0  0  0
    3.8034    2.7706    7.8340 H   0  0  0  0  0  0  0  0  0  0  0  0
    6.6306    6.0833    6.6491 C   0  0  0  0  0  0  0  0  0  0  0  0
    7.7931    5.6644    7.2560 C   0  0  0  0  0  0  0  0  0  0  0  0
    7.7831    4.9110    8.3661 N   0  0  0  0  0  0  0  0  0  0  0  0
    6.6417    4.5172    8.9562 C   0  0  0  0  0  0  0  0  0  0  0  0
    6.6567    3.7152   10.1373 N   0  0  0  0  0  0  0  0  0  0  0  0
    5.4436    4.9194    8.3742 C   0  0  0  0  0  0  0  0  0  0  0  0
    5.4327    5.6976    7.2275 C   0  0  0  0  0  0  0  0  0  0  0  0
    6.7954    4.0945   11.0922 H   0  0  0  0  0  0  0  0  0  0  0  0
    6.5209    2.6926   10.0307 H   0  0  0  0  0  0  0  0  0  0  0  0
    7.5370    9.7955    3.4795 C   0  0  0  0  0  0  0  0  0  0  0  0
    7.0290    8.5605    4.0234 N   0  0  0  0  0  0  0  0  0  0  0  0
    7.2674    8.1091    5.2696 C   0  0  0  0  0  0  0  0  0  0  0  0
    6.6266    6.9047    5.4414 C   0  0  0  0  0  0  0  0  0  0  0  0
    5.9896    6.6329    4.2640 C   0  0  0  0  0  0  0  0  0  0  0  0
    6.2587    7.6492    3.4483 N   0  0  0  0  0  0  0  0  0  0  0  0
    2.9491    1.8553   11.2663 O   0  0  0  0  0  0  0  0  0  0  0  0
    2.4174    2.8705   12.0485 C   0  0  0  0  0  0  0  0  0  0  0  0
    2.8700    2.7935   13.4499 C   0  0  0  0  0  0  0  0  0  0  0  0
    3.6222    3.7850   14.0490 C   0  0  0  0  0  0  0  0  0  0  0  0
    4.0366    3.6862   15.3562 C   0  0  0  0  0  0  0  0  0  0  0  0
    3.7160    2.5795   16.1368 C   0  0  0  0  0  0  0  0  0  0  0  0
    2.9653    1.5954   15.5311 C   0  0  0  0  0  0  0  0  0  0  0  0
    2.5467    1.6972   14.2080 C   0  0  0  0  0  0  0  0  0  0  0  0
    4.1508    2.4654   17.5230 C   0  0  0  0  0  0  0  0  0  0  0  0
    3.9214    1.3126   18.2389 C   0  0  0  0  0  0  0  0  0  0  0  0
    4.3300    1.1954   19.5648 C   0  0  0  0  0  0  0  0  0  0  0  0
    4.9789    2.2250   20.2131 C   0  0  0  0  0  0  0  0  0  0  0  0
    5.2071    3.3794   19.4920 C   0  0  0  0  0  0  0  0  0  0  0  0
    4.8032    3.5007   18.1745 C   0  0  0  0  0  0  0  0  0  0  0  0
    5.3957    2.0803   21.5982 C   0  0  0  0  0  0  0  0  0  0  0  0
    6.7089    1.6381   21.8938 N   0  0  0  0  0  0  0  0  0  0  0  0
    4.6165    2.3389   22.5437 O   0  0  0  0  0  0  0  0  0  0  0  0
    7.2247    1.9819   22.7466 H   0  0  0  0  0  0  0  0  0  0  0  0
    7.2329    0.9561   21.2926 H   0  0  0  0  0  0  0  0  0  0  0  0
 19 20  1  0  0  0
 20 21  1  0  0  0
 21 22  2  0  0  0
 22 23  1  0  0  0
 23 24  2  0  0  0
 22 10  1  0  0  0
 10 11  2  0  0  0
 11 12  1  0  0  0
 12 13  2  0  0  0
 13 14  1  0  0  0
 13 15  1  0  0  0
 15 16  2  0  0  0
 15  6  1  0  0  0
  6  7  2  0  0  0
  6  8  1  0  0  0
  8  1  1  0  0  0
  1  2  1  0  0  0
  2  3  1  0  0  0
  3  4  1  0  0  0
  4  5  1  0  0  0
  5 25  1  0  0  0
 25 26  1  0  0  0
 26 27  1  0  0  0
 27 28  2  0  0  0
 28 29  1  0  0  0
 29 30  2  0  0  0
 30 31  1  0  0  0
 31 32  2  0  0  0
 30 33  1  0  0  0
 33 34  2  0  0  0
 34 35  1  0  0  0
 35 36  2  0  0  0
 36 37  1  0  0  0
 37 38  2  0  0  0
 36 39  1  0  0  0
 39 40  1  0  0  0
 39 41  2  0  0  0
 24 20  1  0  0  0
 16 10  1  0  0  0
  5  1  1  0  0  0
 32 27  1  0  0  0
 38 33  1  0  0  0
 14 17  1  0  0  0
 14 18  1  0  0  0
  8  9  1  0  0  0
 40 42  1  0  0  0
 40 43  1  0  0  0
M  END
> <minimizedAffinity>
-7.72832

> <CNNscore>
0.1675845385

> <CNNaffinity>
5.6932029724

> <CNN_VS>
0.9540928006

> <CNNaffinity_variance>
0.6566176414

$$$$
[H]c1nc(N([H])[H])c(C(=O)N([H])[C@@]2([H])C([H])([H])C([H])([H])C([H])([H])[C@]2([H])OC([H])([H])c2c([H])c([H])c(-c3c([H])c([H])c(C(=O)N([H])[H])c([H])c3[H])c([H])c2[H])c([H])c1-c1c([H])nn(C([H])([H])[H])c1[H]


 43 47  0  0  0  0  0  0  0  0999 V2000
    5.5377    3.7630   19.6599 C   0  0  0  0  0  0  0  0  0  0  0  0
    5.6480    3.1268   21.0538 C   0  0  0  0  0  0  0  0  0  0  0  0
    5.0955    1.7471   20.7620 C   0  0  0  0  0  0  0  0  0  0  0  0
    3.9988    1.9829   19.7701 C   0  0  0  0  0  0  0  0  0  0  0  0
    4.1227    3.4409   19.3036 C   0  0  0  0  0  0  0  0  0  0  0  0
    4.7941    6.0282   20.3161 C   0  0  0  0  0  0  0  0  0  0  0  0
    3.7055    5.5198   20.7540 O   0  0  0  0  0  0  0  0  0  0  0  0
    5.7912    5.1870   19.7371 N   0  0  0  0  0  0  0  0  0  0  0  0
    6.6600    5.5957   19.3895 H   0  0  0  0  0  0  0  0  0  0  0  0
    5.8659    9.3923   21.5382 C   0  0  0  0  0  0  0  0  0  0  0  0
    5.1743   10.1625   20.6307 C   0  0  0  0  0  0  0  0  0  0  0  0
    4.4034    9.6168   19.6777 N   0  0  0  0  0  0  0  0  0  0  0  0
    4.2565    8.2873   19.5472 C   0  0  0  0  0  0  0  0  0  0  0  0
    3.4301    7.7301   18.5249 N   0  0  0  0  0  0  0  0  0  0  0  0
    4.9389    7.4726   20.4451 C   0  0  0  0  0  0  0  0  0  0  0  0
    5.7399    8.0168   21.4365 C   0  0  0  0  0  0  0  0  0  0  0  0
    3.7341    7.6006   17.5421 H   0  0  0  0  0  0  0  0  0  0  0  0
    2.4690    7.4389   18.7834 H   0  0  0  0  0  0  0  0  0  0  0  0
    8.5469    9.8941   25.6866 C   0  0  0  0  0  0  0  0  0  0  0  0
    7.9073   10.2005   24.4311 N   0  0  0  0  0  0  0  0  0  0  0  0
    7.1562    9.3410   23.7165 C   0  0  0  0  0  0  0  0  0  0  0  0
    6.7095    9.9727   22.5797 C   0  0  0  0  0  0  0  0  0  0  0  0
    7.2094   11.2433   22.6202 C   0  0  0  0  0  0  0  0  0  0  0  0
    7.9177   11.3325   23.7432 N   0  0  0  0  0  0  0  0  0  0  0  0
    3.8401    3.5537   17.9668 O   0  0  0  0  0  0  0  0  0  0  0  0
    3.7986    2.3135   17.3460 C   0  0  0  0  0  0  0  0  0  0  0  0
    3.4073    2.4099   15.9274 C   0  0  0  0  0  0  0  0  0  0  0  0
    2.5640    1.4999   15.3203 C   0  0  0  0  0  0  0  0  0  0  0  0
    2.2191    1.6091   13.9939 C   0  0  0  0  0  0  0  0  0  0  0  0
    2.7057    2.6442   13.2010 C   0  0  0  0  0  0  0  0  0  0  0  0
    3.5462    3.5473   13.8149 C   0  0  0  0  0  0  0  0  0  0  0  0
    3.8940    3.4352   15.1575 C   0  0  0  0  0  0  0  0  0  0  0  0
    2.3463    2.7682   11.7941 C   0  0  0  0  0  0  0  0  0  0  0  0
    3.3196    2.8327   10.8232 C   0  0  0  0  0  0  0  0  0  0  0  0
    2.9861    2.9547    9.4768 C   0  0  0  0  0  0  0  0  0  0  0  0
    1.6725    3.0156    9.0620 C   0  0  0  0  0  0  0  0  0  0  0  0
    0.6994    2.9507   10.0384 C   0  0  0  0  0  0  0  0  0  0  0  0
    1.0255    2.8294   11.3773 C   0  0  0  0  0  0  0  0  0  0  0  0
    1.3481    3.1437    7.6507 C   0  0  0  0  0  0  0  0  0  0  0  0
    1.0191    1.9893    6.8981 N   0  0  0  0  0  0  0  0  0  0  0  0
    1.3525    4.2581    7.0796 O   0  0  0  0  0  0  0  0  0  0  0  0
    0.3225    2.0295    6.1079 H   0  0  0  0  0  0  0  0  0  0  0  0
    1.4419    1.0464    7.0807 H   0  0  0  0  0  0  0  0  0  0  0  0
 19 20  1  0  0  0
 20 21  1  0  0  0
 21 22  2  0  0  0
 22 23  1  0  0  0
 23 24  2  0  0  0
 22 10  1  0  0  0
 10 11  2  0  0  0
 11 12  1  0  0  0
 12 13  2  0  0  0
 13 14  1  0  0  0
 13 15  1  0  0  0
 15 16  2  0  0  0
 15  6  1  0  0  0
  6  7  2  0  0  0
  6  8  1  0  0  0
  8  1  1  0  0  0
  1  2  1  0  0  0
  2  3  1  0  0  0
  3  4  1  0  0  0
  4  5  1  0  0  0
  5 25  1  0  0  0
 25 26  1  0  0  0
 26 27  1  0  0  0
 27 28  2  0  0  0
 28 29  1  0  0  0
 29 30  2  0  0  0
 30 31  1  0  0  0
 31 32  2  0  0  0
 30 33  1  0  0  0
 33 34  2  0  0  0
 34 35  1  0  0  0
 35 36  2  0  0  0
 36 37  1  0  0  0
 37 38  2  0  0  0
 36 39  1  0  0  0
 39 40  1  0  0  0
 39 41  2  0  0  0
 24 20  1  0  0  0
 16 10  1  0  0  0
  5  1  1  0  0  0
 32 27  1  0  0  0
 38 33  1  0  0  0
 14 17  1  0  0  0
 14 18  1  0  0  0
  8  9  1  0  0  0
 40 42  1  0  0  0
 40 43  1  0  0  0
M  END
> <minimizedAffinity>
-8.59878

> <CNNscore>
0.1658347994

> <CNNaffinity>
5.8397941589

> <CNN_VS>
0.9684410691

> <CNNaffinity_variance>
0.3236047626

$$$$
[H]c1nc(N([H])[H])c(C(=O)N([H])[C@@]2([H])C([H])([H])C([H])([H])C([H])([H])[C@]2([H])OC([H])([H])c2c([H])c([H])c(-c3c([H])c([H])c(C(=O)N([H])[H])c([H])c3[H])c([H])c2[H])c([H])c1-c1c([H])nn(C([H])([H])[H])c1[H]


 43 47  0  0  0  0  0  0  0  0999 V2000
    5.5470    2.7045   22.5643 C   0  0  0  0  0  0  0  0  0  0  0  0
    4.7132    2.6782   23.8543 C   0  0  0  0  0  0  0  0  0  0  0  0
    4.0368    1.3311   23.7076 C   0  0  0  0  0  0  0  0  0  0  0  0
    3.7561    1.2085   22.2418 C   0  0  0  0  0  0  0  0  0  0  0  0
    4.5161    2.3459   21.5436 C   0  0  0  0  0  0  0  0  0  0  0  0
    5.2343    5.1482   22.3514 C   0  0  0  0  0  0  0  0  0  0  0  0
    3.9784    4.9801   22.5252 O   0  0  0  0  0  0  0  0  0  0  0  0
    6.1116    4.0224   22.3587 N   0  0  0  0  0  0  0  0  0  0  0  0
    7.1140    4.1598   22.2209 H   0  0  0  0  0  0  0  0  0  0  0  0
    7.1412    8.3414   22.7067 C   0  0  0  0  0  0  0  0  0  0  0  0
    6.4938    9.0683   21.7333 C   0  0  0  0  0  0  0  0  0  0  0  0
    5.4940    8.5480   21.0054 N   0  0  0  0  0  0  0  0  0  0  0  0
    5.0606    7.2876   21.1782 C   0  0  0  0  0  0  0  0  0  0  0  0
    3.9944    6.7563   20.3913 N   0  0  0  0  0  0  0  0  0  0  0  0
    5.6887    6.5185   22.1528 C   0  0  0  0  0  0  0  0  0  0  0  0
    6.7231    7.0376   22.9151 C   0  0  0  0  0  0  0  0  0  0  0  0
    4.1150    6.3804   19.4325 H   0  0  0  0  0  0  0  0  0  0  0  0
    3.0438    6.7474   20.8056 H   0  0  0  0  0  0  0  0  0  0  0  0
    9.7435   10.0562   26.5714 C   0  0  0  0  0  0  0  0  0  0  0  0
    9.3968    9.6609   25.2288 N   0  0  0  0  0  0  0  0  0  0  0  0
    8.2053    9.1566   24.8551 C   0  0  0  0  0  0  0  0  0  0  0  0
    8.2317    8.8944   23.5055 C   0  0  0  0  0  0  0  0  0  0  0  0
    9.4740    9.2532   23.0650 C   0  0  0  0  0  0  0  0  0  0  0  0
   10.1336    9.7048   24.1288 N   0  0  0  0  0  0  0  0  0  0  0  0
    5.0336    1.9265   20.3453 O   0  0  0  0  0  0  0  0  0  0  0  0
    4.1404    1.1183   19.6568 C   0  0  0  0  0  0  0  0  0  0  0  0
    3.9505    1.5552   18.2611 C   0  0  0  0  0  0  0  0  0  0  0  0
    4.4686    2.7376   17.7700 C   0  0  0  0  0  0  0  0  0  0  0  0
    4.2722    3.1250   16.4656 C   0  0  0  0  0  0  0  0  0  0  0  0
    3.5403    2.3410   15.5788 C   0  0  0  0  0  0  0  0  0  0  0  0
    3.0272    1.1631   16.0772 C   0  0  0  0  0  0  0  0  0  0  0  0
    3.2272    0.7728   17.3977 C   0  0  0  0  0  0  0  0  0  0  0  0
    3.3262    2.7431   14.1945 C   0  0  0  0  0  0  0  0  0  0  0  0
    2.5998    1.9493   13.3363 C   0  0  0  0  0  0  0  0  0  0  0  0
    2.3929    2.3234   12.0112 C   0  0  0  0  0  0  0  0  0  0  0  0
    2.9049    3.4997   11.5056 C   0  0  0  0  0  0  0  0  0  0  0  0
    3.6326    4.2930   12.3691 C   0  0  0  0  0  0  0  0  0  0  0  0
    3.8409    3.9259   13.6865 C   0  0  0  0  0  0  0  0  0  0  0  0
    2.6766    3.8694   10.1184 C   0  0  0  0  0  0  0  0  0  0  0  0
    3.7233    3.7317    9.1735 N   0  0  0  0  0  0  0  0  0  0  0  0
    1.5689    4.3100    9.7352 O   0  0  0  0  0  0  0  0  0  0  0  0
    3.5260    3.4812    8.1687 H   0  0  0  0  0  0  0  0  0  0  0  0
    4.7352    3.8688    9.4152 H   0  0  0  0  0  0  0  0  0  0  0  0
 19 20  1  0  0  0
 20 21  1  0  0  0
 21 22  2  0  0  0
 22 23  1  0  0  0
 23 24  2  0  0  0
 22 10  1  0  0  0
 10 11  2  0  0  0
 11 12  1  0  0  0
 12 13  2  0  0  0
 13 14  1  0  0  0
 13 15  1  0  0  0
 15 16  2  0  0  0
 15  6  1  0  0  0
  6  7  2  0  0  0
  6  8  1  0  0  0
  8  1  1  0  0  0
  1  2  1  0  0  0
  2  3  1  0  0  0
  3  4  1  0  0  0
  4  5  1  0  0  0
  5 25  1  0  0  0
 25 26  1  0  0  0
 26 27  1  0  0  0
 27 28  2  0  0  0
 28 29  1  0  0  0
 29 30  2  0  0  0
 30 31  1  0  0  0
 31 32  2  0  0  0
 30 33  1  0  0  0
 33 34  2  0  0  0
 34 35  1  0  0  0
 35 36  2  0  0  0
 36 37  1  0  0  0
 37 38  2  0  0  0
 36 39  1  0  0  0
 39 40  1  0  0  0
 39 41  2  0  0  0
 24 20  1  0  0  0
 16 10  1  0  0  0
  5  1  1  0  0  0
 32 27  1  0  0  0
 38 33  1  0  0  0
 14 17  1  0  0  0
 14 18  1  0  0  0
  8  9  1  0  0  0
 40 42  1  0  0  0
 40 43  1  0  0  0
M  END
> <minimizedAffinity>
-9.74533

> <CNNscore>
0.1619320959

> <CNNaffinity>
6.1660208702

> <CNN_VS>
0.9984766841

> <CNNaffinity_variance>
0.3083569109

$$$$
[H]c1nc(N([H])[H])c(C(=O)N([H])[C@@]2([H])C([H])([H])C([H])([H])C([H])([H])[C@]2([H])OC([H])([H])c2c([H])c([H])c(-c3c([H])c([H])c(C(=O)N([H])[H])c([H])c3[H])c([H])c2[H])c([H])c1-c1c([H])nn(C([H])([H])[H])c1[H]


 43 47  0  0  0  0  0  0  0  0999 V2000
    1.2000    5.8595   10.6808 C   0  0  0  0  0  0  0  0  0  0  0  0
   -0.2097    6.4665   10.7449 C   0  0  0  0  0  0  0  0  0  0  0  0
   -0.7878    5.6774   11.9012 C   0  0  0  0  0  0  0  0  0  0  0  0
   -0.2135    4.3034   11.7436 C   0  0  0  0  0  0  0  0  0  0  0  0
    0.8884    4.3981   10.6779 C   0  0  0  0  0  0  0  0  0  0  0  0
    2.7182    7.4479    9.5464 C   0  0  0  0  0  0  0  0  0  0  0  0
    2.8574    8.0715   10.6542 O   0  0  0  0  0  0  0  0  0  0  0  0
    1.8794    6.2951    9.4781 N   0  0  0  0  0  0  0  0  0  0  0  0
    1.7712    5.7985    8.5924 H   0  0  0  0  0  0  0  0  0  0  0  0
    5.2439    7.8416    6.8215 C   0  0  0  0  0  0  0  0  0  0  0  0
    4.7604    9.0064    6.2698 C   0  0  0  0  0  0  0  0  0  0  0  0
    3.6758    9.6270    6.7584 N   0  0  0  0  0  0  0  0  0  0  0  0
    2.9928    9.1537    7.8147 C   0  0  0  0  0  0  0  0  0  0  0  0
    1.8413    9.8322    8.3168 N   0  0  0  0  0  0  0  0  0  0  0  0
    3.4488    7.9777    8.4022 C   0  0  0  0  0  0  0  0  0  0  0  0
    4.5671    7.3219    7.9124 C   0  0  0  0  0  0  0  0  0  0  0  0
    0.8933    9.7439    7.9064 H   0  0  0  0  0  0  0  0  0  0  0  0
    1.9635   10.4498    9.1409 H   0  0  0  0  0  0  0  0  0  0  0  0
    8.9894    4.6167    6.3529 C   0  0  0  0  0  0  0  0  0  0  0  0
    8.0961    5.7168    6.0867 N   0  0  0  0  0  0  0  0  0  0  0  0
    7.0457    6.0626    6.8553 C   0  0  0  0  0  0  0  0  0  0  0  0
    6.4223    7.1548    6.2992 C   0  0  0  0  0  0  0  0  0  0  0  0
    7.1222    7.4666    5.1683 C   0  0  0  0  0  0  0  0  0  0  0  0
    8.1118    6.5810    5.0830 N   0  0  0  0  0  0  0  0  0  0  0  0
    1.9523    3.5957   11.0002 O   0  0  0  0  0  0  0  0  0  0  0  0
    2.9282    4.2947   11.6961 C   0  0  0  0  0  0  0  0  0  0  0  0
    3.1521    3.7486   13.0476 C   0  0  0  0  0  0  0  0  0  0  0  0
    2.8182    2.4546   13.3967 C   0  0  0  0  0  0  0  0  0  0  0  0
    3.0321    1.9715   14.6660 C   0  0  0  0  0  0  0  0  0  0  0  0
    3.5962    2.7668   15.6590 C   0  0  0  0  0  0  0  0  0  0  0  0
    3.9262    4.0562   15.3019 C   0  0  0  0  0  0  0  0  0  0  0  0
    3.7090    4.5433   14.0167 C   0  0  0  0  0  0  0  0  0  0  0  0
    3.8266    2.2640   17.0073 C   0  0  0  0  0  0  0  0  0  0  0  0
    3.2902    1.0623   17.4104 C   0  0  0  0  0  0  0  0  0  0  0  0
    3.5019    0.5753   18.6976 C   0  0  0  0  0  0  0  0  0  0  0  0
    4.2545    1.2736   19.6181 C   0  0  0  0  0  0  0  0  0  0  0  0
    4.7907    2.4781   19.2102 C   0  0  0  0  0  0  0  0  0  0  0  0
    4.5834    2.9662   17.9325 C   0  0  0  0  0  0  0  0  0  0  0  0
    4.4615    0.7458   20.9567 C   0  0  0  0  0  0  0  0  0  0  0  0
    5.4606    1.3106   21.7875 N   0  0  0  0  0  0  0  0  0  0  0  0
    3.7731   -0.2031   21.3967 O   0  0  0  0  0  0  0  0  0  0  0  0
    5.3387    1.3642   22.8333 H   0  0  0  0  0  0  0  0  0  0  0  0
    6.3615    1.7001   21.4166 H   0  0  0  0  0  0  0  0  0  0  0  0
 19 20  1  0  0  0
 20 21  1  0  0  0
 21 22  2  0  0  0
 22 23  1  0  0  0
 23 24  2  0  0  0
 22 10  1  0  0  0
 10 11  2  0  0  0
 11 12  1  0  0  0
 12 13  2  0  0  0
 13 14  1  0  0  0
 13 15  1  0  0  0
 15 16  2  0  0  0
 15  6  1  0  0  0
  6  7  2  0  0  0
  6  8  1  0  0  0
  8  1  1  0  0  0
  1  2  1  0  0  0
  2  3  1  0  0  0
  3  4  1  0  0  0
  4  5  1  0  0  0
  5 25  1  0  0  0
 25 26  1  0  0  0
 26 27  1  0  0  0
 27 28  2  0  0  0
 28 29  1  0  0  0
 29 30  2  0  0  0
 30 31  1  0  0  0
 31 32  2  0  0  0
 30 33  1  0  0  0
 33 34  2  0  0  0
 34 35  1  0  0  0
 35 36  2  0  0  0
 36 37  1  0  0  0
 37 38  2  0  0  0
 36 39  1  0  0  0
 39 40  1  0  0  0
 39 41  2  0  0  0
 24 20  1  0  0  0
 16 10  1  0  0  0
  5  1  1  0  0  0
 32 27  1  0  0  0
 38 33  1  0  0  0
 14 17  1  0  0  0
 14 18  1  0  0  0
  8  9  1  0  0  0
 40 42  1  0  0  0
 40 43  1  0  0  0
M  END
> <minimizedAffinity>
-7.77701

> <CNNscore>
0.1344573647

> <CNNaffinity>
5.6640448570

> <CNN_VS>
0.7615725398

> <CNNaffinity_variance>
0.4831652045

$$$$
[H]O[C@]1([H])C([H])([H])C([H])([H])[C@@]([H])(N([H])c2nc(N([H])C([H])([H])C([H])([H])C([H])([H])C([H])([H])[H])nc([H])c2-c2nc([H])nc(N([H])C3([H])C([H])([H])C([H])([H])C([H])([H])C([H])([H])C([H])([H])C3([H])[H])c2[H])C([H])([H])C1([H])[H]


 37 40  0  0  0  0  0  0  0  0999 V2000
    3.0740    0.2463   18.8206 C   0  0  0  0  0  0  0  0  0  0  0  0
    2.3548   -0.1895   17.7494 N   0  0  0  0  0  0  0  0  0  0  0  0
    2.4312    0.4476   16.5973 C   0  0  0  0  0  0  0  0  0  0  0  0
    3.2610    1.5964   16.4484 C   0  0  0  0  0  0  0  0  0  0  0  0
    3.9801    2.0269   17.5139 C   0  0  0  0  0  0  0  0  0  0  0  0
    3.8552    1.3200   18.6894 N   0  0  0  0  0  0  0  0  0  0  0  0
    3.2783    2.2164   15.1428 C   0  0  0  0  0  0  0  0  0  0  0  0
    3.8393    3.4020   14.7836 C   0  0  0  0  0  0  0  0  0  0  0  0
    3.7255    3.9624   13.4969 C   0  0  0  0  0  0  0  0  0  0  0  0
    3.0167    3.2592   12.6089 N   0  0  0  0  0  0  0  0  0  0  0  0
    2.4417    2.0832   12.9177 C   0  0  0  0  0  0  0  0  0  0  0  0
    2.5724    1.5855   14.1445 N   0  0  0  0  0  0  0  0  0  0  0  0
    4.3417    5.2183   13.2264 N   0  0  0  0  0  0  0  0  0  0  0  0
    5.3426    5.2366   12.8774 H   0  0  0  0  0  0  0  0  0  0  0  0
    3.6416    6.4672   13.4140 C   0  0  0  0  0  0  0  0  0  0  0  0
    3.9609    7.0766   14.7616 C   0  0  0  0  0  0  0  0  0  0  0  0
    4.0561    8.5451   14.8050 C   0  0  0  0  0  0  0  0  0  0  0  0
    3.0022    9.3611   14.1965 C   0  0  0  0  0  0  0  0  0  0  0  0
    2.0141    8.6722   13.3086 C   0  0  0  0  0  0  0  0  0  0  0  0
    2.6231    8.1824   12.0164 C   0  0  0  0  0  0  0  0  0  0  0  0
    3.8952    7.4473   12.2934 C   0  0  0  0  0  0  0  0  0  0  0  0
    2.9464   -0.4774   20.0283 N   0  0  0  0  0  0  0  0  0  0  0  0
    2.2080   -1.1955   20.1295 H   0  0  0  0  0  0  0  0  0  0  0  0
    3.8390   -0.2225   21.1235 C   0  0  0  0  0  0  0  0  0  0  0  0
    3.2050    0.7197   22.1262 C   0  0  0  0  0  0  0  0  0  0  0  0
    5.4264    1.8418   21.8603 C   0  0  0  0  0  0  0  0  0  0  0  0
    3.9881    1.9860   22.2888 C   0  0  0  0  0  0  0  0  0  0  0  0
    4.9236    3.0692   17.4499 N   0  0  0  0  0  0  0  0  0  0  0  0
    5.5761    3.2709   16.6860 H   0  0  0  0  0  0  0  0  0  0  0  0
    5.0884    3.9838   18.6062 C   0  0  0  0  0  0  0  0  0  0  0  0
    5.8677    5.2024   18.2457 C   0  0  0  0  0  0  0  0  0  0  0  0
    5.2467    6.3931   18.9779 C   0  0  0  0  0  0  0  0  0  0  0  0
    3.8561    6.6221   18.4495 C   0  0  0  0  0  0  0  0  0  0  0  0
    3.2546    7.6542   19.1691 O   0  0  0  0  0  0  0  0  0  0  0  0
    3.0092    5.3780   18.5296 C   0  0  0  0  0  0  0  0  0  0  0  0
    3.7795    4.3074   19.2548 C   0  0  0  0  0  0  0  0  0  0  0  0
    3.9541    8.3143   19.4088 H   0  0  0  0  0  0  0  0  0  0  0  0
 26 27  1  0  0  0
 27 25  1  0  0  0
 25 24  1  0  0  0
 24 22  1  0  0  0
 22  1  1  0  0  0
  1  2  2  0  0  0
  2  3  1  0  0  0
  3  4  2  0  0  0
  4  5  1  0  0  0
  5 28  1  0  0  0
 28 30  1  0  0  0
 30 31  1  0  0  0
 31 32  1  0  0  0
 32 33  1  0  0  0
 33 34  1  0  0  0
 33 35  1  0  0  0
 35 36  1  0  0  0
  5  6  2  0  0  0
  4  7  1  0  0  0
  7  8  2  0  0  0
  8  9  1  0  0  0
  9 13  1  0  0  0
 13 15  1  0  0  0
 15 16  1  0  0  0
 16 17  1  0  0  0
 17 18  1  0  0  0
 18 19  1  0  0  0
 19 20  1  0  0  0
 20 21  1  0  0  0
  9 10  2  0  0  0
 10 11  1  0  0  0
 11 12  2  0  0  0
  6  1  1  0  0  0
 12  7  1  0  0  0
 36 30  1  0  0  0
 21 15  1  0  0  0
 22 23  1  0  0  0
 28 29  1  0  0  0
 34 37  1  0  0  0
 13 14  1  0  0  0
M  END
> <minimizedAffinity>
-8.71252

> <CNNscore>
0.8663064837

> <CNNaffinity>
7.4105477333

> <CNN_VS>
6.4198055267

> <CNNaffinity_variance>
0.1539866626

$$$$
[H]O[C@]1([H])C([H])([H])C([H])([H])[C@@]([H])(N([H])c2nc(N([H])C([H])([H])C([H])([H])C([H])([H])C([H])([H])[H])nc([H])c2-c2nc([H])nc(N([H])C3([H])C([H])([H])C([H])([H])C([H])([H])C([H])([H])C([H])([H])C3([H])[H])c2[H])C([H])([H])C1([H])[H]


 37 40  0  0  0  0  0  0  0  0999 V2000
    3.4639    0.7255   18.8960 C   0  0  0  0  0  0  0  0  0  0  0  0
    2.5819    0.2581   17.9695 N   0  0  0  0  0  0  0  0  0  0  0  0
    2.4482    0.8757   16.8121 C   0  0  0  0  0  0  0  0  0  0  0  0
    3.2171    2.0361   16.5071 C   0  0  0  0  0  0  0  0  0  0  0  0
    4.0981    2.4981   17.4280 C   0  0  0  0  0  0  0  0  0  0  0  0
    4.1895    1.8102   18.6178 N   0  0  0  0  0  0  0  0  0  0  0  0
    2.9993    2.6328   15.2087 C   0  0  0  0  0  0  0  0  0  0  0  0
    1.9093    2.5176   14.4037 C   0  0  0  0  0  0  0  0  0  0  0  0
    1.8301    3.0711   13.1115 C   0  0  0  0  0  0  0  0  0  0  0  0
    2.9085    3.7377   12.6892 N   0  0  0  0  0  0  0  0  0  0  0  0
    4.0102    3.8767   13.4481 C   0  0  0  0  0  0  0  0  0  0  0  0
    4.0468    3.3398   14.6648 N   0  0  0  0  0  0  0  0  0  0  0  0
    0.6450    2.8819   12.3434 N   0  0  0  0  0  0  0  0  0  0  0  0
    0.1528    1.9437   12.3783 H   0  0  0  0  0  0  0  0  0  0  0  0
    0.0951    3.9320   11.5187 C   0  0  0  0  0  0  0  0  0  0  0  0
   -0.4011    3.3869   10.1974 C   0  0  0  0  0  0  0  0  0  0  0  0
   -1.6169    4.0125    9.6515 C   0  0  0  0  0  0  0  0  0  0  0  0
   -1.7176    5.4727    9.5859 C   0  0  0  0  0  0  0  0  0  0  0  0
   -0.7003    6.2747   10.3351 C   0  0  0  0  0  0  0  0  0  0  0  0
   -0.8434    6.1573   11.8338 C   0  0  0  0  0  0  0  0  0  0  0  0
   -0.9802    4.7212   12.2267 C   0  0  0  0  0  0  0  0  0  0  0  0
    3.5585    0.0214   20.1181 N   0  0  0  0  0  0  0  0  0  0  0  0
    2.9342   -0.7825   20.3056 H   0  0  0  0  0  0  0  0  0  0  0  0
    4.5200    0.4154   21.1088 C   0  0  0  0  0  0  0  0  0  0  0  0
    3.8496    1.1674   22.2402 C   0  0  0  0  0  0  0  0  0  0  0  0
    4.1714    3.2526   23.5867 C   0  0  0  0  0  0  0  0  0  0  0  0
    4.8148    2.0189   23.0061 C   0  0  0  0  0  0  0  0  0  0  0  0
    4.9956    3.5555   17.1888 N   0  0  0  0  0  0  0  0  0  0  0  0
    5.9178    3.4998   16.7455 H   0  0  0  0  0  0  0  0  0  0  0  0
    4.6611    4.9234   17.6552 C   0  0  0  0  0  0  0  0  0  0  0  0
    3.2319    5.0389   18.0627 C   0  0  0  0  0  0  0  0  0  0  0  0
    3.1643    5.9425   19.2949 C   0  0  0  0  0  0  0  0  0  0  0  0
    3.8656    5.2626   20.4401 C   0  0  0  0  0  0  0  0  0  0  0  0
    3.8786    6.1155   21.5433 O   0  0  0  0  0  0  0  0  0  0  0  0
    5.2741    4.8627   20.0827 C   0  0  0  0  0  0  0  0  0  0  0  0
    5.6033    5.3993   18.7156 C   0  0  0  0  0  0  0  0  0  0  0  0
    3.0366    6.6385   21.5414 H   0  0  0  0  0  0  0  0  0  0  0  0
 26 27  1  0  0  0
 27 25  1  0  0  0
 25 24  1  0  0  0
 24 22  1  0  0  0
 22  1  1  0  0  0
  1  2  2  0  0  0
  2  3  1  0  0  0
  3  4  2  0  0  0
  4  5  1  0  0  0
  5 28  1  0  0  0
 28 30  1  0  0  0
 30 31  1  0  0  0
 31 32  1  0  0  0
 32 33  1  0  0  0
 33 34  1  0  0  0
 33 35  1  0  0  0
 35 36  1  0  0  0
  5  6  2  0  0  0
  4  7  1  0  0  0
  7  8  2  0  0  0
  8  9  1  0  0  0
  9 13  1  0  0  0
 13 15  1  0  0  0
 15 16  1  0  0  0
 16 17  1  0  0  0
 17 18  1  0  0  0
 18 19  1  0  0  0
 19 20  1  0  0  0
 20 21  1  0  0  0
  9 10  2  0  0  0
 10 11  1  0  0  0
 11 12  2  0  0  0
  6  1  1  0  0  0
 12  7  1  0  0  0
 36 30  1  0  0  0
 21 15  1  0  0  0
 22 23  1  0  0  0
 28 29  1  0  0  0
 34 37  1  0  0  0
 13 14  1  0  0  0
M  END
> <minimizedAffinity>
-7.84684

> <CNNscore>
0.8535469770

> <CNNaffinity>
7.4921989441

> <CNN_VS>
6.3949437141

> <CNNaffinity_variance>
0.2586560249

$$$$
[H]O[C@]1([H])C([H])([H])C([H])([H])[C@@]([H])(N([H])c2nc(N([H])C([H])([H])C([H])([H])C([H])([H])C([H])([H])[H])nc([H])c2-c2nc([H])nc(N([H])C3([H])C([H])([H])C([H])([H])C([H])([H])C([H])([H])C([H])([H])C3([H])[H])c2[H])C([H])([H])C1([H])[H]


 37 40  0  0  0  0  0  0  0  0999 V2000
    3.4769    0.7161   18.8271 C   0  0  0  0  0  0  0  0  0  0  0  0
    2.6503    0.1483   17.9056 N   0  0  0  0  0  0  0  0  0  0  0  0
    2.5188    0.6909   16.7109 C   0  0  0  0  0  0  0  0  0  0  0  0
    3.2325    1.8733   16.3600 C   0  0  0  0  0  0  0  0  0  0  0  0
    4.0586    2.4353   17.2762 C   0  0  0  0  0  0  0  0  0  0  0  0
    4.1507    1.8222   18.5061 N   0  0  0  0  0  0  0  0  0  0  0  0
    3.0225    2.3824   15.0236 C   0  0  0  0  0  0  0  0  0  0  0  0
    2.1451    1.9385   14.0842 C   0  0  0  0  0  0  0  0  0  0  0  0
    2.0779    2.4499   12.7740 C   0  0  0  0  0  0  0  0  0  0  0  0
    2.9434    3.4236   12.4767 N   0  0  0  0  0  0  0  0  0  0  0  0
    3.8308    3.8940   13.3712 C   0  0  0  0  0  0  0  0  0  0  0  0
    3.8632    3.3858   14.6002 N   0  0  0  0  0  0  0  0  0  0  0  0
    1.1289    1.9058   11.8610 N   0  0  0  0  0  0  0  0  0  0  0  0
    0.1192    2.2241   11.9167 H   0  0  0  0  0  0  0  0  0  0  0  0
    1.5033    0.9330   10.8616 C   0  0  0  0  0  0  0  0  0  0  0  0
    0.2836    0.3445   10.1868 C   0  0  0  0  0  0  0  0  0  0  0  0
    0.4159    0.0446    8.7516 C   0  0  0  0  0  0  0  0  0  0  0  0
    1.5825   -0.6980    8.2676 C   0  0  0  0  0  0  0  0  0  0  0  0
    2.7325   -0.8771    9.2081 C   0  0  0  0  0  0  0  0  0  0  0  0
    3.4584    0.4133    9.5052 C   0  0  0  0  0  0  0  0  0  0  0  0
    2.4775    1.4878    9.8498 C   0  0  0  0  0  0  0  0  0  0  0  0
    3.5721    0.0887   20.0903 N   0  0  0  0  0  0  0  0  0  0  0  0
    3.8872   -0.8946   20.1609 H   0  0  0  0  0  0  0  0  0  0  0  0
    3.2326    0.8095   21.2846 C   0  0  0  0  0  0  0  0  0  0  0  0
    4.4772    1.3452   21.9620 C   0  0  0  0  0  0  0  0  0  0  0  0
    4.4556    3.2190   23.6213 C   0  0  0  0  0  0  0  0  0  0  0  0
    4.2217    1.7489   23.3815 C   0  0  0  0  0  0  0  0  0  0  0  0
    4.9043    3.5259   17.0005 N   0  0  0  0  0  0  0  0  0  0  0  0
    5.7969    3.5087   16.4974 H   0  0  0  0  0  0  0  0  0  0  0  0
    4.5576    4.8735   17.5147 C   0  0  0  0  0  0  0  0  0  0  0  0
    3.1301    4.9586   17.9357 C   0  0  0  0  0  0  0  0  0  0  0  0
    3.0611    5.8196   19.1979 C   0  0  0  0  0  0  0  0  0  0  0  0
    3.7785    5.1101   20.3148 C   0  0  0  0  0  0  0  0  0  0  0  0
    3.7898    5.9258   21.4458 O   0  0  0  0  0  0  0  0  0  0  0  0
    5.1889    4.7389   19.9346 C   0  0  0  0  0  0  0  0  0  0  0  0
    5.5020    5.3247   18.5839 C   0  0  0  0  0  0  0  0  0  0  0  0
    2.9418    6.4386   21.4673 H   0  0  0  0  0  0  0  0  0  0  0  0
 26 27  1  0  0  0
 27 25  1  0  0  0
 25 24  1  0  0  0
 24 22  1  0  0  0
 22  1  1  0  0  0
  1  2  2  0  0  0
  2  3  1  0  0  0
  3  4  2  0  0  0
  4  5  1  0  0  0
  5 28  1  0  0  0
 28 30  1  0  0  0
 30 31  1  0  0  0
 31 32  1  0  0  0
 32 33  1  0  0  0
 33 34  1  0  0  0
 33 35  1  0  0  0
 35 36  1  0  0  0
  5  6  2  0  0  0
  4  7  1  0  0  0
  7  8  2  0  0  0
  8  9  1  0  0  0
  9 13  1  0  0  0
 13 15  1  0  0  0
 15 16  1  0  0  0
 16 17  1  0  0  0
 17 18  1  0  0  0
 18 19  1  0  0  0
 19 20  1  0  0  0
 20 21  1  0  0  0
  9 10  2  0  0  0
 10 11  1  0  0  0
 11 12  2  0  0  0
  6  1  1  0  0  0
 12  7  1  0  0  0
 36 30  1  0  0  0
 21 15  1  0  0  0
 22 23  1  0  0  0
 28 29  1  0  0  0
 34 37  1  0  0  0
 13 14  1  0  0  0
M  END
> <minimizedAffinity>
-7.95814

> <CNNscore>
0.8197646737

> <CNNaffinity>
7.4566254616

> <CNN_VS>
6.1126780510

> <CNNaffinity_variance>
0.1799517870

$$$$
[H]O[C@]1([H])C([H])([H])C([H])([H])[C@@]([H])(N([H])c2nc(N([H])C([H])([H])C([H])([H])C([H])([H])C([H])([H])[H])nc([H])c2-c2nc([H])nc(N([H])C3([H])C([H])([H])C([H])([H])C([H])([H])C([H])([H])C([H])([H])C3([H])[H])c2[H])C([H])([H])C1([H])[H]


 37 40  0  0  0  0  0  0  0  0999 V2000
    3.7306    1.0552   18.9678 C   0  0  0  0  0  0  0  0  0  0  0  0
    2.9554    0.4665   18.0153 N   0  0  0  0  0  0  0  0  0  0  0  0
    2.9084    0.9685   16.7968 C   0  0  0  0  0  0  0  0  0  0  0  0
    3.6613    2.1282   16.4520 C   0  0  0  0  0  0  0  0  0  0  0  0
    4.4363    2.7109   17.3994 C   0  0  0  0  0  0  0  0  0  0  0  0
    4.4405    2.1402   18.6530 N   0  0  0  0  0  0  0  0  0  0  0  0
    3.5446    2.5927   15.0883 C   0  0  0  0  0  0  0  0  0  0  0  0
    4.0409    3.7365   14.5453 C   0  0  0  0  0  0  0  0  0  0  0  0
    3.7969    4.1423   13.2193 C   0  0  0  0  0  0  0  0  0  0  0  0
    3.0280    3.3308   12.4872 N   0  0  0  0  0  0  0  0  0  0  0  0
    2.5129    2.1905   12.9804 C   0  0  0  0  0  0  0  0  0  0  0  0
    2.7668    1.8403   14.2385 N   0  0  0  0  0  0  0  0  0  0  0  0
    4.3546    5.3670   12.7511 N   0  0  0  0  0  0  0  0  0  0  0  0
    4.5714    6.1346   13.4494 H   0  0  0  0  0  0  0  0  0  0  0  0
    4.6331    5.5924   11.3522 C   0  0  0  0  0  0  0  0  0  0  0  0
    4.6802    7.0711   11.0351 C   0  0  0  0  0  0  0  0  0  0  0  0
    5.6720    7.4892   10.0306 C   0  0  0  0  0  0  0  0  0  0  0  0
    5.7690    6.7675    8.7592 C   0  0  0  0  0  0  0  0  0  0  0  0
    5.0513    5.4594    8.6450 C   0  0  0  0  0  0  0  0  0  0  0  0
    5.6568    4.3770    9.5064 C   0  0  0  0  0  0  0  0  0  0  0  0
    5.8884    4.8909   10.8913 C   0  0  0  0  0  0  0  0  0  0  0  0
    3.7356    0.4715   20.2553 N   0  0  0  0  0  0  0  0  0  0  0  0
    3.1548   -0.3626   20.4511 H   0  0  0  0  0  0  0  0  0  0  0  0
    4.5451    1.0302   21.3011 C   0  0  0  0  0  0  0  0  0  0  0  0
    3.6934    1.8072   22.2839 C   0  0  0  0  0  0  0  0  0  0  0  0
    3.7054    3.8938   23.6663 C   0  0  0  0  0  0  0  0  0  0  0  0
    4.5084    2.7353   23.1311 C   0  0  0  0  0  0  0  0  0  0  0  0
    5.3147    3.7798   17.1412 N   0  0  0  0  0  0  0  0  0  0  0  0
    6.2401    3.7321   16.7038 H   0  0  0  0  0  0  0  0  0  0  0  0
    4.9517    5.1510   17.5755 C   0  0  0  0  0  0  0  0  0  0  0  0
    3.5045    5.2628   17.9153 C   0  0  0  0  0  0  0  0  0  0  0  0
    3.3753    6.1800   19.1324 C   0  0  0  0  0  0  0  0  0  0  0  0
    4.0266    5.5175   20.3166 C   0  0  0  0  0  0  0  0  0  0  0  0
    3.9841    6.3831   21.4091 O   0  0  0  0  0  0  0  0  0  0  0  0
    5.4522    5.1219   20.0294 C   0  0  0  0  0  0  0  0  0  0  0  0
    5.8414    5.6446   18.6726 C   0  0  0  0  0  0  0  0  0  0  0  0
    3.1402    6.9011   21.3623 H   0  0  0  0  0  0  0  0  0  0  0  0
 26 27  1  0  0  0
 27 25  1  0  0  0
 25 24  1  0  0  0
 24 22  1  0  0  0
 22  1  1  0  0  0
  1  2  2  0  0  0
  2  3  1  0  0  0
  3  4  2  0  0  0
  4  5  1  0  0  0
  5 28  1  0  0  0
 28 30  1  0  0  0
 30 31  1  0  0  0
 31 32  1  0  0  0
 32 33  1  0  0  0
 33 34  1  0  0  0
 33 35  1  0  0  0
 35 36  1  0  0  0
  5  6  2  0  0  0
  4  7  1  0  0  0
  7  8  2  0  0  0
  8  9  1  0  0  0
  9 13  1  0  0  0
 13 15  1  0  0  0
 15 16  1  0  0  0
 16 17  1  0  0  0
 17 18  1  0  0  0
 18 19  1  0  0  0
 19 20  1  0  0  0
 20 21  1  0  0  0
  9 10  2  0  0  0
 10 11  1  0  0  0
 11 12  2  0  0  0
  6  1  1  0  0  0
 12  7  1  0  0  0
 36 30  1  0  0  0
 21 15  1  0  0  0
 22 23  1  0  0  0
 28 29  1  0  0  0
 34 37  1  0  0  0
 13 14  1  0  0  0
M  END
> <minimizedAffinity>
-8.13209

> <CNNscore>
0.6603633165

> <CNNaffinity>
7.1623854637

> <CNN_VS>
4.7297763824

> <CNNaffinity_variance>
0.2276739329

$$$$
[H]O[C@]1([H])C([H])([H])C([H])([H])[C@@]([H])(N([H])c2nc(N([H])C([H])([H])C([H])([H])C([H])([H])C([H])([H])[H])nc([H])c2-c2nc([H])nc(N([H])C3([H])C([H])([H])C([H])([H])C([H])([H])C([H])([H])C([H])([H])C3([H])[H])c2[H])C([H])([H])C1([H])[H]


 37 40  0  0  0  0  0  0  0  0999 V2000
    3.8002    1.4735   17.9922 C   0  0  0  0  0  0  0  0  0  0  0  0
    2.9808    0.7313   17.1969 N   0  0  0  0  0  0  0  0  0  0  0  0
    2.6665    1.1575   15.9892 C   0  0  0  0  0  0  0  0  0  0  0  0
    3.1730    2.3936   15.4931 C   0  0  0  0  0  0  0  0  0  0  0  0
    3.9923    3.1296   16.2835 C   0  0  0  0  0  0  0  0  0  0  0  0
    4.2807    2.6312   17.5347 N   0  0  0  0  0  0  0  0  0  0  0  0
    2.7732    2.7653   14.1548 C   0  0  0  0  0  0  0  0  0  0  0  0
    2.7753    1.9958   13.0335 C   0  0  0  0  0  0  0  0  0  0  0  0
    2.4472    2.4799   11.7527 C   0  0  0  0  0  0  0  0  0  0  0  0
    2.1231    3.7741   11.6775 N   0  0  0  0  0  0  0  0  0  0  0  0
    2.1087    4.5752   12.7578 C   0  0  0  0  0  0  0  0  0  0  0  0
    2.4242    4.0805   13.9518 N   0  0  0  0  0  0  0  0  0  0  0  0
    2.4925    1.5923   10.6390 N   0  0  0  0  0  0  0  0  0  0  0  0
    1.5882    1.1749   10.2757 H   0  0  0  0  0  0  0  0  0  0  0  0
    3.7352    1.2451    9.9908 C   0  0  0  0  0  0  0  0  0  0  0  0
    3.8701   -0.2536    9.8331 C   0  0  0  0  0  0  0  0  0  0  0  0
    4.5252   -0.7213    8.6004 C   0  0  0  0  0  0  0  0  0  0  0  0
    5.7943   -0.1228    8.1784 C   0  0  0  0  0  0  0  0  0  0  0  0
    6.2326    1.1337    8.8628 C   0  0  0  0  0  0  0  0  0  0  0  0
    5.3610    2.3214    8.5310 C   0  0  0  0  0  0  0  0  0  0  0  0
    3.9180    1.9555    8.6708 C   0  0  0  0  0  0  0  0  0  0  0  0
    4.0967    0.9640   19.2770 N   0  0  0  0  0  0  0  0  0  0  0  0
    4.3197   -0.0391   19.4007 H   0  0  0  0  0  0  0  0  0  0  0  0
    4.0907    1.8327   20.4201 C   0  0  0  0  0  0  0  0  0  0  0  0
    5.4810    2.3670   20.6971 C   0  0  0  0  0  0  0  0  0  0  0  0
    6.9582    0.4501   21.3360 C   0  0  0  0  0  0  0  0  0  0  0  0
    6.1580    1.6350   21.8147 C   0  0  0  0  0  0  0  0  0  0  0  0
    4.6486    4.2984   15.8546 N   0  0  0  0  0  0  0  0  0  0  0  0
    5.3697    4.3764   15.1308 H   0  0  0  0  0  0  0  0  0  0  0  0
    4.3562    5.5919   16.5196 C   0  0  0  0  0  0  0  0  0  0  0  0
    3.1537    5.5078   17.3967 C   0  0  0  0  0  0  0  0  0  0  0  0
    3.4245    6.3423   18.6495 C   0  0  0  0  0  0  0  0  0  0  0  0
    4.5468    5.7089   19.4271 C   0  0  0  0  0  0  0  0  0  0  0  0
    4.8532    6.5089   20.5274 O   0  0  0  0  0  0  0  0  0  0  0  0
    5.7770    5.5063   18.5803 C   0  0  0  0  0  0  0  0  0  0  0  0
    5.5529    6.1379   17.2325 C   0  0  0  0  0  0  0  0  0  0  0  0
    4.0133    6.9205   20.8555 H   0  0  0  0  0  0  0  0  0  0  0  0
 26 27  1  0  0  0
 27 25  1  0  0  0
 25 24  1  0  0  0
 24 22  1  0  0  0
 22  1  1  0  0  0
  1  2  2  0  0  0
  2  3  1  0  0  0
  3  4  2  0  0  0
  4  5  1  0  0  0
  5 28  1  0  0  0
 28 30  1  0  0  0
 30 31  1  0  0  0
 31 32  1  0  0  0
 32 33  1  0  0  0
 33 34  1  0  0  0
 33 35  1  0  0  0
 35 36  1  0  0  0
  5  6  2  0  0  0
  4  7  1  0  0  0
  7  8  2  0  0  0
  8  9  1  0  0  0
  9 13  1  0  0  0
 13 15  1  0  0  0
 15 16  1  0  0  0
 16 17  1  0  0  0
 17 18  1  0  0  0
 18 19  1  0  0  0
 19 20  1  0  0  0
 20 21  1  0  0  0
  9 10  2  0  0  0
 10 11  1  0  0  0
 11 12  2  0  0  0
  6  1  1  0  0  0
 12  7  1  0  0  0
 36 30  1  0  0  0
 21 15  1  0  0  0
 22 23  1  0  0  0
 28 29  1  0  0  0
 34 37  1  0  0  0
 13 14  1  0  0  0
M  END
> <minimizedAffinity>
-7.58317

> <CNNscore>
0.5018394589

> <CNNaffinity>
6.9229712486

> <CNN_VS>
3.4742200375

> <CNNaffinity_variance>
0.2003571689

$$$$
[H]O[C@]1([H])C([H])([H])C([H])([H])[C@@]([H])(N([H])c2nc(N([H])C([H])([H])C([H])([H])C([H])([H])C([H])([H])[H])nc([H])c2-c2nc([H])nc(N([H])C3([H])C([H])([H])C([H])([H])C([H])([H])C([H])([H])C([H])([H])C3([H])[H])c2[H])C([H])([H])C1([H])[H]


 37 40  0  0  0  0  0  0  0  0999 V2000
    3.8684    1.6621   18.2147 C   0  0  0  0  0  0  0  0  0  0  0  0
    2.9050    1.3905   17.2913 N   0  0  0  0  0  0  0  0  0  0  0  0
    2.7528    2.1757   16.2429 C   0  0  0  0  0  0  0  0  0  0  0  0
    3.5859    3.3162   16.0539 C   0  0  0  0  0  0  0  0  0  0  0  0
    4.5477    3.5833   16.9711 C   0  0  0  0  0  0  0  0  0  0  0  0
    4.6544    2.7268   18.0445 N   0  0  0  0  0  0  0  0  0  0  0  0
    3.3407    4.1065   14.8688 C   0  0  0  0  0  0  0  0  0  0  0  0
    2.3568    5.0215   14.6583 C   0  0  0  0  0  0  0  0  0  0  0  0
    2.1503    5.6786   13.4302 C   0  0  0  0  0  0  0  0  0  0  0  0
    2.9886    5.3552   12.4411 N   0  0  0  0  0  0  0  0  0  0  0  0
    3.9752    4.4552   12.6006 C   0  0  0  0  0  0  0  0  0  0  0  0
    4.1392    3.8557   13.7768 N   0  0  0  0  0  0  0  0  0  0  0  0
    1.0811    6.6126   13.3104 N   0  0  0  0  0  0  0  0  0  0  0  0
    1.2667    7.6368   13.5117 H   0  0  0  0  0  0  0  0  0  0  0  0
   -0.2484    6.2040   12.9222 C   0  0  0  0  0  0  0  0  0  0  0  0
   -1.2758    6.6443   13.9419 C   0  0  0  0  0  0  0  0  0  0  0  0
   -2.5837    7.0603   13.4092 C   0  0  0  0  0  0  0  0  0  0  0  0
   -3.2741    6.2145   12.4322 C   0  0  0  0  0  0  0  0  0  0  0  0
   -2.4962    5.1026   11.8016 C   0  0  0  0  0  0  0  0  0  0  0  0
   -1.4126    5.5939   10.8716 C   0  0  0  0  0  0  0  0  0  0  0  0
   -0.6159    6.6718   11.5342 C   0  0  0  0  0  0  0  0  0  0  0  0
    3.9789    0.7846   19.3176 N   0  0  0  0  0  0  0  0  0  0  0  0
    3.7848   -0.2253   19.2010 H   0  0  0  0  0  0  0  0  0  0  0  0
    4.3606    1.2865   20.6074 C   0  0  0  0  0  0  0  0  0  0  0  0
    5.7380    0.7874   20.9929 C   0  0  0  0  0  0  0  0  0  0  0  0
    5.6204    2.6998   22.6035 C   0  0  0  0  0  0  0  0  0  0  0  0
    6.5090    1.8013   21.7810 C   0  0  0  0  0  0  0  0  0  0  0  0
    5.5051    4.6044   16.8244 N   0  0  0  0  0  0  0  0  0  0  0  0
    6.3921    4.5561   16.3137 H   0  0  0  0  0  0  0  0  0  0  0  0
    5.3018    5.9063   17.5060 C   0  0  0  0  0  0  0  0  0  0  0  0
    3.8612    6.1706   17.7835 C   0  0  0  0  0  0  0  0  0  0  0  0
    3.7608    6.8469   19.1516 C   0  0  0  0  0  0  0  0  0  0  0  0
    4.2135    5.8785   20.2112 C   0  0  0  0  0  0  0  0  0  0  0  0
    4.2018    6.5152   21.4518 O   0  0  0  0  0  0  0  0  0  0  0  0
    5.5890    5.3321   19.9268 C   0  0  0  0  0  0  0  0  0  0  0  0
    6.1578    6.0391   18.7259 C   0  0  0  0  0  0  0  0  0  0  0  0
    3.4450    7.1553   21.4652 H   0  0  0  0  0  0  0  0  0  0  0  0
 26 27  1  0  0  0
 27 25  1  0  0  0
 25 24  1  0  0  0
 24 22  1  0  0  0
 22  1  1  0  0  0
  1  2  2  0  0  0
  2  3  1  0  0  0
  3  4  2  0  0  0
  4  5  1  0  0  0
  5 28  1  0  0  0
 28 30  1  0  0  0
 30 31  1  0  0  0
 31 32  1  0  0  0
 32 33  1  0  0  0
 33 34  1  0  0  0
 33 35  1  0  0  0
 35 36  1  0  0  0
  5  6  2  0  0  0
  4  7  1  0  0  0
  7  8  2  0  0  0
  8  9  1  0  0  0
  9 13  1  0  0  0
 13 15  1  0  0  0
 15 16  1  0  0  0
 16 17  1  0  0  0
 17 18  1  0  0  0
 18 19  1  0  0  0
 19 20  1  0  0  0
 20 21  1  0  0  0
  9 10  2  0  0  0
 10 11  1  0  0  0
 11 12  2  0  0  0
  6  1  1  0  0  0
 12  7  1  0  0  0
 36 30  1  0  0  0
 21 15  1  0  0  0
 22 23  1  0  0  0
 28 29  1  0  0  0
 34 37  1  0  0  0
 13 14  1  0  0  0
M  END
> <minimizedAffinity>
-8.21115

> <CNNscore>
0.3391458690

> <CNNaffinity>
6.7627363205

> <CNN_VS>
2.2935540676

> <CNNaffinity_variance>
0.4822665751

$$$$
[H]O[C@]1([H])C([H])([H])C([H])([H])[C@@]([H])(N([H])c2nc(N([H])C([H])([H])C([H])([H])C([H])([H])C([H])([H])[H])nc([H])c2-c2nc([H])nc(N([H])C3([H])C([H])([H])C([H])([H])C([H])([H])C([H])([H])C([H])([H])C3([H])[H])c2[H])C([H])([H])C1([H])[H]


 37 40  0  0  0  0  0  0  0  0999 V2000
    3.6844    2.2835   16.5083 C   0  0  0  0  0  0  0  0  0  0  0  0
    4.0550    1.2908   17.3638 N   0  0  0  0  0  0  0  0  0  0  0  0
    4.3625    1.5751   18.6143 C   0  0  0  0  0  0  0  0  0  0  0  0
    4.3142    2.9158   19.0945 C   0  0  0  0  0  0  0  0  0  0  0  0
    3.9408    3.9028   18.2436 C   0  0  0  0  0  0  0  0  0  0  0  0
    3.6344    3.5415   16.9502 N   0  0  0  0  0  0  0  0  0  0  0  0
    4.6635    3.1182   20.4824 C   0  0  0  0  0  0  0  0  0  0  0  0
    5.7217    3.8047   20.9905 C   0  0  0  0  0  0  0  0  0  0  0  0
    6.0239    3.8705   22.3642 C   0  0  0  0  0  0  0  0  0  0  0  0
    5.2010    3.2057   23.1806 N   0  0  0  0  0  0  0  0  0  0  0  0
    4.1430    2.5113   22.7252 C   0  0  0  0  0  0  0  0  0  0  0  0
    3.8896    2.4735   21.4197 N   0  0  0  0  0  0  0  0  0  0  0  0
    7.1653    4.6079   22.7926 N   0  0  0  0  0  0  0  0  0  0  0  0
    7.7441    4.2383   23.6002 H   0  0  0  0  0  0  0  0  0  0  0  0
    7.5564    5.8445   22.1578 C   0  0  0  0  0  0  0  0  0  0  0  0
    6.7421    7.0085   22.6788 C   0  0  0  0  0  0  0  0  0  0  0  0
    7.4538    8.2899   22.8164 C   0  0  0  0  0  0  0  0  0  0  0  0
    8.2712    8.7912   21.7086 C   0  0  0  0  0  0  0  0  0  0  0  0
    8.5785    7.8479   20.5883 C   0  0  0  0  0  0  0  0  0  0  0  0
    9.5064    6.7288   20.9969 C   0  0  0  0  0  0  0  0  0  0  0  0
    9.0377    6.1131   22.2762 C   0  0  0  0  0  0  0  0  0  0  0  0
    3.3704    1.9147   15.1802 N   0  0  0  0  0  0  0  0  0  0  0  0
    3.2433    0.9178   14.9327 H   0  0  0  0  0  0  0  0  0  0  0  0
    3.2258    2.9189   14.1643 C   0  0  0  0  0  0  0  0  0  0  0  0
    1.7809    3.0346   13.7239 C   0  0  0  0  0  0  0  0  0  0  0  0
    1.0427    2.6180   11.3688 C   0  0  0  0  0  0  0  0  0  0  0  0
    1.6523    3.5958   12.3413 C   0  0  0  0  0  0  0  0  0  0  0  0
    3.7375    5.2386   18.6376 N   0  0  0  0  0  0  0  0  0  0  0  0
    2.9880    5.6037   19.2333 H   0  0  0  0  0  0  0  0  0  0  0  0
    4.6366    6.3013   18.1247 C   0  0  0  0  0  0  0  0  0  0  0  0
    3.9280    7.2323   17.2010 C   0  0  0  0  0  0  0  0  0  0  0  0
    4.4473    8.6462   17.4666 C   0  0  0  0  0  0  0  0  0  0  0  0
    4.0478    9.0618   18.8569 C   0  0  0  0  0  0  0  0  0  0  0  0
    4.5876   10.3172   19.1350 O   0  0  0  0  0  0  0  0  0  0  0  0
    4.4983    8.0670   19.8955 C   0  0  0  0  0  0  0  0  0  0  0  0
    5.3464    7.0160   19.2311 C   0  0  0  0  0  0  0  0  0  0  0  0
    4.5925   10.8457   18.2964 H   0  0  0  0  0  0  0  0  0  0  0  0
 26 27  1  0  0  0
 27 25  1  0  0  0
 25 24  1  0  0  0
 24 22  1  0  0  0
 22  1  1  0  0  0
  1  2  2  0  0  0
  2  3  1  0  0  0
  3  4  2  0  0  0
  4  5  1  0  0  0
  5 28  1  0  0  0
 28 30  1  0  0  0
 30 31  1  0  0  0
 31 32  1  0  0  0
 32 33  1  0  0  0
 33 34  1  0  0  0
 33 35  1  0  0  0
 35 36  1  0  0  0
  5  6  2  0  0  0
  4  7  1  0  0  0
  7  8  2  0  0  0
  8  9  1  0  0  0
  9 13  1  0  0  0
 13 15  1  0  0  0
 15 16  1  0  0  0
 16 17  1  0  0  0
 17 18  1  0  0  0
 18 19  1  0  0  0
 19 20  1  0  0  0
 20 21  1  0  0  0
  9 10  2  0  0  0
 10 11  1  0  0  0
 11 12  2  0  0  0
  6  1  1  0  0  0
 12  7  1  0  0  0
 36 30  1  0  0  0
 21 15  1  0  0  0
 22 23  1  0  0  0
 28 29  1  0  0  0
 34 37  1  0  0  0
 13 14  1  0  0  0
M  END
> <minimizedAffinity>
-7.40205

> <CNNscore>
0.3191569746

> <CNNaffinity>
6.9424233437

> <CNN_VS>
2.2157227993

> <CNNaffinity_variance>
0.2007101327

$$$$
[H]O[C@]1([H])C([H])([H])C([H])([H])[C@@]([H])(N([H])c2nc(N([H])C([H])([H])C([H])([H])C([H])([H])C([H])([H])[H])nc([H])c2-c2nc([H])nc(N([H])C3([H])C([H])([H])C([H])([H])C([H])([H])C([H])([H])C([H])([H])C3([H])[H])c2[H])C([H])([H])C1([H])[H]


 37 40  0  0  0  0  0  0  0  0999 V2000
    4.3500    1.3145   20.2004 C   0  0  0  0  0  0  0  0  0  0  0  0
    3.5565    0.6760   19.2963 N   0  0  0  0  0  0  0  0  0  0  0  0
    3.3666    1.1952   18.0991 C   0  0  0  0  0  0  0  0  0  0  0  0
    3.9823    2.4253   17.7273 C   0  0  0  0  0  0  0  0  0  0  0  0
    4.7757    3.0580   18.6262 C   0  0  0  0  0  0  0  0  0  0  0  0
    4.9322    2.4659   19.8598 N   0  0  0  0  0  0  0  0  0  0  0  0
    3.7148    2.9037   16.3898 C   0  0  0  0  0  0  0  0  0  0  0  0
    3.2883    2.1912   15.3128 C   0  0  0  0  0  0  0  0  0  0  0  0
    3.1398    2.7373   14.0235 C   0  0  0  0  0  0  0  0  0  0  0  0
    3.4476    4.0311   13.8929 N   0  0  0  0  0  0  0  0  0  0  0  0
    3.8752    4.7761   14.9278 C   0  0  0  0  0  0  0  0  0  0  0  0
    4.0020    4.2242   16.1317 N   0  0  0  0  0  0  0  0  0  0  0  0
    2.6974    1.9005   12.9586 N   0  0  0  0  0  0  0  0  0  0  0  0
    2.5672    0.8638   13.1380 H   0  0  0  0  0  0  0  0  0  0  0  0
    2.4209    2.4243   11.6417 C   0  0  0  0  0  0  0  0  0  0  0  0
    2.7733    1.4186   10.5676 C   0  0  0  0  0  0  0  0  0  0  0  0
    1.8875    1.3855    9.3921 C   0  0  0  0  0  0  0  0  0  0  0  0
    1.5263    2.6350    8.7175 C   0  0  0  0  0  0  0  0  0  0  0  0
    1.8421    3.9197    9.4167 C   0  0  0  0  0  0  0  0  0  0  0  0
    1.0033    4.1404   10.6529 C   0  0  0  0  0  0  0  0  0  0  0  0
    0.9972    2.9067   11.4974 C   0  0  0  0  0  0  0  0  0  0  0  0
    4.5111    0.7088   21.4675 N   0  0  0  0  0  0  0  0  0  0  0  0
    5.0625   -0.1620   21.5620 H   0  0  0  0  0  0  0  0  0  0  0  0
    3.9115    1.2955   22.6326 C   0  0  0  0  0  0  0  0  0  0  0  0
    4.9497    2.0194   23.4653 C   0  0  0  0  0  0  0  0  0  0  0  0
    3.3919    3.9751   23.3486 C   0  0  0  0  0  0  0  0  0  0  0  0
    4.8255    3.5081   23.3582 C   0  0  0  0  0  0  0  0  0  0  0  0
    5.5311    4.2076   18.3284 N   0  0  0  0  0  0  0  0  0  0  0  0
    6.1298    4.3636   17.5116 H   0  0  0  0  0  0  0  0  0  0  0  0
    5.5573    5.3389   19.2876 C   0  0  0  0  0  0  0  0  0  0  0  0
    6.0987    6.5819   18.6680 C   0  0  0  0  0  0  0  0  0  0  0  0
    5.2930    7.7660   19.2047 C   0  0  0  0  0  0  0  0  0  0  0  0
    3.8719    7.6505   18.7225 C   0  0  0  0  0  0  0  0  0  0  0  0
    3.1133    8.6821   19.2747 O   0  0  0  0  0  0  0  0  0  0  0  0
    3.2620    6.3182   19.0754 C   0  0  0  0  0  0  0  0  0  0  0  0
    4.2272    5.5514   19.9390 C   0  0  0  0  0  0  0  0  0  0  0  0
    3.6896    9.4851   19.3504 H   0  0  0  0  0  0  0  0  0  0  0  0
 26 27  1  0  0  0
 27 25  1  0  0  0
 25 24  1  0  0  0
 24 22  1  0  0  0
 22  1  1  0  0  0
  1  2  2  0  0  0
  2  3  1  0  0  0
  3  4  2  0  0  0
  4  5  1  0  0  0
  5 28  1  0  0  0
 28 30  1  0  0  0
 30 31  1  0  0  0
 31 32  1  0  0  0
 32 33  1  0  0  0
 33 34  1  0  0  0
 33 35  1  0  0  0
 35 36  1  0  0  0
  5  6  2  0  0  0
  4  7  1  0  0  0
  7  8  2  0  0  0
  8  9  1  0  0  0
  9 13  1  0  0  0
 13 15  1  0  0  0
 15 16  1  0  0  0
 16 17  1  0  0  0
 17 18  1  0  0  0
 18 19  1  0  0  0
 19 20  1  0  0  0
 20 21  1  0  0  0
  9 10  2  0  0  0
 10 11  1  0  0  0
 11 12  2  0  0  0
  6  1  1  0  0  0
 12  7  1  0  0  0
 36 30  1  0  0  0
 21 15  1  0  0  0
 22 23  1  0  0  0
 28 29  1  0  0  0
 34 37  1  0  0  0
 13 14  1  0  0  0
M  END
> <minimizedAffinity>
-7.90870

> <CNNscore>
0.3040672839

> <CNNaffinity>
6.8721456528

> <CNN_VS>
2.0895946026

> <CNNaffinity_variance>
0.5642434955

$$$$
[H]O[C@]1([H])C([H])([H])C([H])([H])[C@@]([H])(N([H])c2nc(N([H])C([H])([H])C([H])([H])C([H])([H])C([H])([H])[H])nc([H])c2-c2nc([H])nc(N([H])C3([H])C([H])([H])C([H])([H])C([H])([H])C([H])([H])C([H])([H])C3([H])[H])c2[H])C([H])([H])C1([H])[H]


 37 40  0  0  0  0  0  0  0  0999 V2000
    3.9907    1.8362   17.5557 C   0  0  0  0  0  0  0  0  0  0  0  0
    3.2677    0.9256   16.8464 N   0  0  0  0  0  0  0  0  0  0  0  0
    2.8569    1.2120   15.6265 C   0  0  0  0  0  0  0  0  0  0  0  0
    3.1576    2.4696   15.0278 C   0  0  0  0  0  0  0  0  0  0  0  0
    3.8811    3.3737   15.7327 C   0  0  0  0  0  0  0  0  0  0  0  0
    4.2786    3.0155   17.0019 N   0  0  0  0  0  0  0  0  0  0  0  0
    2.6664    2.6800   13.6848 C   0  0  0  0  0  0  0  0  0  0  0  0
    3.3760    2.7019   12.5249 C   0  0  0  0  0  0  0  0  0  0  0  0
    2.8131    3.0029   11.2699 C   0  0  0  0  0  0  0  0  0  0  0  0
    1.5057    3.2788   11.2618 N   0  0  0  0  0  0  0  0  0  0  0  0
    0.7627    3.2717   12.3829 C   0  0  0  0  0  0  0  0  0  0  0  0
    1.3307    2.9814   13.5504 N   0  0  0  0  0  0  0  0  0  0  0  0
    3.6479    3.0111   10.1152 N   0  0  0  0  0  0  0  0  0  0  0  0
    4.1035    3.9202    9.8153 H   0  0  0  0  0  0  0  0  0  0  0  0
    3.8912    1.8163    9.3417 C   0  0  0  0  0  0  0  0  0  0  0  0
    5.3424    1.7208    8.9243 C   0  0  0  0  0  0  0  0  0  0  0  0
    5.9243    0.3687    8.9004 C   0  0  0  0  0  0  0  0  0  0  0  0
    5.2066   -0.7211    8.2341 C   0  0  0  0  0  0  0  0  0  0  0  0
    3.7804   -0.4820    7.8493 C   0  0  0  0  0  0  0  0  0  0  0  0
    2.8588   -0.3690    9.0403 C   0  0  0  0  0  0  0  0  0  0  0  0
    3.4404    0.5634   10.0541 C   0  0  0  0  0  0  0  0  0  0  0  0
    4.3988    1.4708   18.8588 N   0  0  0  0  0  0  0  0  0  0  0  0
    4.8744    0.5659   19.0210 H   0  0  0  0  0  0  0  0  0  0  0  0
    4.1568    2.3505   19.9673 C   0  0  0  0  0  0  0  0  0  0  0  0
    5.4620    2.8190   20.5772 C   0  0  0  0  0  0  0  0  0  0  0  0
    6.8571    0.9573   21.5007 C   0  0  0  0  0  0  0  0  0  0  0  0
    5.8366    2.0281   21.7927 C   0  0  0  0  0  0  0  0  0  0  0  0
    4.3420    4.5919   15.1995 N   0  0  0  0  0  0  0  0  0  0  0  0
    5.2250    4.7608   14.7079 H   0  0  0  0  0  0  0  0  0  0  0  0
    3.5381    5.8253   15.3820 C   0  0  0  0  0  0  0  0  0  0  0  0
    4.3160    6.9021   16.0583 C   0  0  0  0  0  0  0  0  0  0  0  0
    3.9349    8.2355   15.4134 C   0  0  0  0  0  0  0  0  0  0  0  0
    4.3928    8.2349   13.9795 C   0  0  0  0  0  0  0  0  0  0  0  0
    3.9767    9.4145   13.3631 O   0  0  0  0  0  0  0  0  0  0  0  0
    3.8675    7.0444   13.2191 C   0  0  0  0  0  0  0  0  0  0  0  0
    2.9150    6.2820   14.1006 C   0  0  0  0  0  0  0  0  0  0  0  0
    4.0081   10.1433   14.0341 H   0  0  0  0  0  0  0  0  0  0  0  0
 26 27  1  0  0  0
 27 25  1  0  0  0
 25 24  1  0  0  0
 24 22  1  0  0  0
 22  1  1  0  0  0
  1  2  2  0  0  0
  2  3  1  0  0  0
  3  4  2  0  0  0
  4  5  1  0  0  0
  5 28  1  0  0  0
 28 30  1  0  0  0
 30 31  1  0  0  0
 31 32  1  0  0  0
 32 33  1  0  0  0
 33 34  1  0  0  0
 33 35  1  0  0  0
 35 36  1  0  0  0
  5  6  2  0  0  0
  4  7  1  0  0  0
  7  8  2  0  0  0
  8  9  1  0  0  0
  9 13  1  0  0  0
 13 15  1  0  0  0
 15 16  1  0  0  0
 16 17  1  0  0  0
 17 18  1  0  0  0
 18 19  1  0  0  0
 19 20  1  0  0  0
 20 21  1  0  0  0
  9 10  2  0  0  0
 10 11  1  0  0  0
 11 12  2  0  0  0
  6  1  1  0  0  0
 12  7  1  0  0  0
 36 30  1  0  0  0
 21 15  1  0  0  0
 22 23  1  0  0  0
 28 29  1  0  0  0
 34 37  1  0  0  0
 13 14  1  0  0  0
M  END
> <minimizedAffinity>
-7.05818

> <CNNscore>
0.2915743589

> <CNNaffinity>
6.7508153915

> <CNN_VS>
1.9683647156

> <CNNaffinity_variance>
0.3861434460

$$$$
[H]c1nc2nc(c1C(=O)N([H])C1([H])C([H])([H])C([H])([H])N(C([H])([H])c3c([H])c([H])c([H])c([H])c3[H])C([H])([H])C1([H])[H])N([H])C([H])([H])C([H])([H])C([H])([H])C([H])([H])[C@]([H])(N([H])[H])C(=O)N([H])C([H])([H])c1c([H])c([H])c(c([H])c1[H])C([H])([H])N2[H]


 47 51  0  0  0  0  0  0  0  0999 V2000
    3.2014    1.6688   16.4975 N   0  0  0  0  0  0  0  0  0  0  0  0
    3.2860    3.1405   16.4652 C   0  0  0  0  0  0  0  0  0  0  0  0
    3.3609    3.6866   17.8729 C   0  0  0  0  0  0  0  0  0  0  0  0
    2.2658    4.6869   18.0636 C   0  0  0  0  0  0  0  0  0  0  0  0
    2.6565    5.9148   18.8268 C   0  0  0  0  0  0  0  0  0  0  0  0
    3.6918    6.6893   18.0203 C   0  0  0  0  0  0  0  0  0  0  0  0
    3.7992    8.0444   18.5610 N   0  0  0  0  0  0  0  0  0  0  0  0
    4.3294    9.1103   17.7707 C   0  0  0  0  0  0  0  0  0  0  0  0
    3.8124    9.4032   16.5621 N   0  0  0  0  0  0  0  0  0  0  0  0
    4.1876   10.3647   15.7525 C   0  0  0  0  0  0  0  0  0  0  0  0
    3.6276   10.6350   14.5041 N   0  0  0  0  0  0  0  0  0  0  0  0
    2.5585    9.9993   13.8076 C   0  0  0  0  0  0  0  0  0  0  0  0
    2.7711    8.5019   13.7394 C   0  0  0  0  0  0  0  0  0  0  0  0
    1.8890    7.6385   14.3244 C   0  0  0  0  0  0  0  0  0  0  0  0
    2.0908    6.2287   14.2261 C   0  0  0  0  0  0  0  0  0  0  0  0
    3.1475    5.6450   13.5632 C   0  0  0  0  0  0  0  0  0  0  0  0
    3.3376    4.1426   13.4818 C   0  0  0  0  0  0  0  0  0  0  0  0
    4.4478    3.6137   14.2368 N   0  0  0  0  0  0  0  0  0  0  0  0
    4.4664    3.5693   15.6586 C   0  0  0  0  0  0  0  0  0  0  0  0
    5.5093    3.9001   16.2996 O   0  0  0  0  0  0  0  0  0  0  0  0
    4.0218    6.5318   12.9848 C   0  0  0  0  0  0  0  0  0  0  0  0
    3.8331    7.9350   13.0732 C   0  0  0  0  0  0  0  0  0  0  0  0
    5.2263   11.1500   16.2038 N   0  0  0  0  0  0  0  0  0  0  0  0
    5.8062   10.9430   17.3813 C   0  0  0  0  0  0  0  0  0  0  0  0
    5.3853    9.9172   18.2136 C   0  0  0  0  0  0  0  0  0  0  0  0
    4.1335    1.2493   16.7214 H   0  0  0  0  0  0  0  0  0  0  0  0
    2.5114    1.4771   17.2857 H   0  0  0  0  0  0  0  0  0  0  0  0
    3.4551    8.1694   19.5399 H   0  0  0  0  0  0  0  0  0  0  0  0
    4.0676   11.4595   13.9674 H   0  0  0  0  0  0  0  0  0  0  0  0
    5.2817    3.2433   13.7350 H   0  0  0  0  0  0  0  0  0  0  0  0
    6.0504    9.6813   19.4861 C   0  0  0  0  0  0  0  0  0  0  0  0
    5.8672   10.5167   20.4105 O   0  0  0  0  0  0  0  0  0  0  0  0
    6.8872    8.5911   19.7748 N   0  0  0  0  0  0  0  0  0  0  0  0
    7.0712    7.8704   19.0380 H   0  0  0  0  0  0  0  0  0  0  0  0
    7.5110    8.4220   21.0752 C   0  0  0  0  0  0  0  0  0  0  0  0
    8.5522    7.3239   21.0711 C   0  0  0  0  0  0  0  0  0  0  0  0
    7.9030    5.9631   20.8932 C   0  0  0  0  0  0  0  0  0  0  0  0
    6.9133    5.7503   21.8947 N   0  0  0  0  0  0  0  0  0  0  0  0
    6.8110    6.8401   22.8350 C   0  0  0  0  0  0  0  0  0  0  0  0
    6.4761    8.1155   22.1013 C   0  0  0  0  0  0  0  0  0  0  0  0
    7.1294    4.5222   22.5899 C   0  0  0  0  0  0  0  0  0  0  0  0
    6.2589    3.4381   22.1060 C   0  0  0  0  0  0  0  0  0  0  0  0
    4.9171    3.5834   21.8498 C   0  0  0  0  0  0  0  0  0  0  0  0
    4.1460    2.5516   21.4025 C   0  0  0  0  0  0  0  0  0  0  0  0
    4.6957    1.3141   21.1915 C   0  0  0  0  0  0  0  0  0  0  0  0
    6.0254    1.1147   21.4307 C   0  0  0  0  0  0  0  0  0  0  0  0
    6.7829    2.1580   21.8780 C   0  0  0  0  0  0  0  0  0  0  0  0
  1  2  1  0  0  0
  2  3  1  0  0  0
  3  4  1  0  0  0
  4  5  1  0  0  0
  5  6  1  0  0  0
  6  7  1  0  0  0
  7  8  1  0  0  0
  8  9  2  0  0  0
  9 10  1  0  0  0
 10 11  1  0  0  0
 11 12  1  0  0  0
 12 13  1  0  0  0
 13 14  2  0  0  0
 14 15  1  0  0  0
 15 16  2  0  0  0
 16 17  1  0  0  0
 17 18  1  0  0  0
 18 19  1  0  0  0
 19 20  2  0  0  0
 16 21  1  0  0  0
 21 22  2  0  0  0
 10 23  2  0  0  0
 23 24  1  0  0  0
 24 25  2  0  0  0
 25 31  1  0  0  0
 31 32  2  0  0  0
 31 33  1  0  0  0
 33 35  1  0  0  0
 35 36  1  0  0  0
 36 37  1  0  0  0
 37 38  1  0  0  0
 38 41  1  0  0  0
 41 42  1  0  0  0
 42 43  2  0  0  0
 43 44  1  0  0  0
 44 45  2  0  0  0
 45 46  1  0  0  0
 46 47  2  0  0  0
 38 39  1  0  0  0
 39 40  1  0  0  0
 19  2  1  0  0  0
 40 35  1  0  0  0
 25  8  1  0  0  0
 47 42  1  0  0  0
 22 13  1  0  0  0
  1 26  1  0  0  0
  1 27  1  0  0  0
  7 28  1  0  0  0
 11 29  1  0  0  0
 18 30  1  0  0  0
 33 34  1  0  0  0
M  END
> <minimizedAffinity>
-8.18965

> <CNNscore>
0.3626571596

> <CNNaffinity>
6.4703245163

> <CNN_VS>
2.3465094566

> <CNNaffinity_variance>
0.9494174719

$$$$
[H]c1nc2nc(c1C(=O)N([H])C1([H])C([H])([H])C([H])([H])N(C([H])([H])c3c([H])c([H])c([H])c([H])c3[H])C([H])([H])C1([H])[H])N([H])C([H])([H])C([H])([H])C([H])([H])C([H])([H])[C@]([H])(N([H])[H])C(=O)N([H])C([H])([H])c1c([H])c([H])c(c([H])c1[H])C([H])([H])N2[H]


 47 51  0  0  0  0  0  0  0  0999 V2000
    3.0628    2.5629   14.0641 N   0  0  0  0  0  0  0  0  0  0  0  0
    3.4878    2.7371   15.4652 C   0  0  0  0  0  0  0  0  0  0  0  0
    4.2858    4.0130   15.6101 C   0  0  0  0  0  0  0  0  0  0  0  0
    5.6080    3.6899   16.2294 C   0  0  0  0  0  0  0  0  0  0  0  0
    6.0798    4.6684   17.2603 C   0  0  0  0  0  0  0  0  0  0  0  0
    5.1266    4.6320   18.4487 C   0  0  0  0  0  0  0  0  0  0  0  0
    5.7655    5.2856   19.5910 N   0  0  0  0  0  0  0  0  0  0  0  0
    5.3292    5.0222   20.9260 C   0  0  0  0  0  0  0  0  0  0  0  0
    5.2736    3.7641   21.4035 N   0  0  0  0  0  0  0  0  0  0  0  0
    4.9174    3.3902   22.6094 C   0  0  0  0  0  0  0  0  0  0  0  0
    4.8699    2.0734   23.0665 N   0  0  0  0  0  0  0  0  0  0  0  0
    5.1834    0.8488   22.4075 C   0  0  0  0  0  0  0  0  0  0  0  0
    4.4613    0.7475   21.0807 C   0  0  0  0  0  0  0  0  0  0  0  0
    5.1545    0.6715   19.9061 C   0  0  0  0  0  0  0  0  0  0  0  0
    4.4570    0.5484   18.6667 C   0  0  0  0  0  0  0  0  0  0  0  0
    3.0852    0.4999   18.5549 C   0  0  0  0  0  0  0  0  0  0  0  0
    2.3732    0.3749   17.2217 C   0  0  0  0  0  0  0  0  0  0  0  0
    1.6517    1.5472   16.7889 N   0  0  0  0  0  0  0  0  0  0  0  0
    2.2977    2.7420   16.3659 C   0  0  0  0  0  0  0  0  0  0  0  0
    1.8735    3.8738   16.7495 O   0  0  0  0  0  0  0  0  0  0  0  0
    2.4095    0.5797   19.7475 C   0  0  0  0  0  0  0  0  0  0  0  0
    3.0894    0.7008   20.9867 C   0  0  0  0  0  0  0  0  0  0  0  0
    4.5636    4.4091   23.4673 N   0  0  0  0  0  0  0  0  0  0  0  0
    4.5832    5.6840   23.0931 C   0  0  0  0  0  0  0  0  0  0  0  0
    4.9649    6.0455   21.8103 C   0  0  0  0  0  0  0  0  0  0  0  0
    2.2704    3.2067   13.8350 H   0  0  0  0  0  0  0  0  0  0  0  0
    3.9295    2.8312   13.5066 H   0  0  0  0  0  0  0  0  0  0  0  0
    6.5526    5.9328   19.3596 H   0  0  0  0  0  0  0  0  0  0  0  0
    4.5438    1.9481   24.0860 H   0  0  0  0  0  0  0  0  0  0  0  0
    0.6105    1.5363   16.7790 H   0  0  0  0  0  0  0  0  0  0  0  0
    4.9509    7.4426   21.4039 C   0  0  0  0  0  0  0  0  0  0  0  0
    5.5418    8.2764   22.1398 O   0  0  0  0  0  0  0  0  0  0  0  0
    4.3289    7.9460   20.2498 N   0  0  0  0  0  0  0  0  0  0  0  0
    3.8236    7.2921   19.6069 H   0  0  0  0  0  0  0  0  0  0  0  0
    4.3647    9.3571   19.9085 C   0  0  0  0  0  0  0  0  0  0  0  0
    3.2647    9.7395   18.9425 C   0  0  0  0  0  0  0  0  0  0  0  0
    3.5009    9.1158   17.5786 C   0  0  0  0  0  0  0  0  0  0  0  0
    4.7874    9.4745   17.0846 N   0  0  0  0  0  0  0  0  0  0  0  0
    5.5093   10.3600   17.9660 C   0  0  0  0  0  0  0  0  0  0  0  0
    5.6852    9.7045   19.3137 C   0  0  0  0  0  0  0  0  0  0  0  0
    4.7050   10.0440   15.7780 C   0  0  0  0  0  0  0  0  0  0  0  0
    4.0917    9.1298   14.8007 C   0  0  0  0  0  0  0  0  0  0  0  0
    4.5791    7.8805   14.5027 C   0  0  0  0  0  0  0  0  0  0  0  0
    3.9798    7.0647   13.5891 C   0  0  0  0  0  0  0  0  0  0  0  0
    2.8520    7.4736   12.9267 C   0  0  0  0  0  0  0  0  0  0  0  0
    2.3253    8.7069   13.1851 C   0  0  0  0  0  0  0  0  0  0  0  0
    2.9375    9.5109   14.1024 C   0  0  0  0  0  0  0  0  0  0  0  0
  1  2  1  0  0  0
  2  3  1  0  0  0
  3  4  1  0  0  0
  4  5  1  0  0  0
  5  6  1  0  0  0
  6  7  1  0  0  0
  7  8  1  0  0  0
  8  9  2  0  0  0
  9 10  1  0  0  0
 10 11  1  0  0  0
 11 12  1  0  0  0
 12 13  1  0  0  0
 13 14  2  0  0  0
 14 15  1  0  0  0
 15 16  2  0  0  0
 16 17  1  0  0  0
 17 18  1  0  0  0
 18 19  1  0  0  0
 19 20  2  0  0  0
 16 21  1  0  0  0
 21 22  2  0  0  0
 10 23  2  0  0  0
 23 24  1  0  0  0
 24 25  2  0  0  0
 25 31  1  0  0  0
 31 32  2  0  0  0
 31 33  1  0  0  0
 33 35  1  0  0  0
 35 36  1  0  0  0
 36 37  1  0  0  0
 37 38  1  0  0  0
 38 41  1  0  0  0
 41 42  1  0  0  0
 42 43  2  0  0  0
 43 44  1  0  0  0
 44 45  2  0  0  0
 45 46  1  0  0  0
 46 47  2  0  0  0
 38 39  1  0  0  0
 39 40  1  0  0  0
 19  2  1  0  0  0
 40 35  1  0  0  0
 25  8  1  0  0  0
 47 42  1  0  0  0
 22 13  1  0  0  0
  1 26  1  0  0  0
  1 27  1  0  0  0
  7 28  1  0  0  0
 11 29  1  0  0  0
 18 30  1  0  0  0
 33 34  1  0  0  0
M  END
> <minimizedAffinity>
-8.23856

> <CNNscore>
0.2766655385

> <CNNaffinity>
6.5130128860

> <CNN_VS>
1.8019262552

> <CNNaffinity_variance>
0.3297268450

$$$$
[H]c1nc2nc(c1C(=O)N([H])C1([H])C([H])([H])C([H])([H])N(C([H])([H])c3c([H])c([H])c([H])c([H])c3[H])C([H])([H])C1([H])[H])N([H])C([H])([H])C([H])([H])C([H])([H])C([H])([H])[C@]([H])(N([H])[H])C(=O)N([H])C([H])([H])c1c([H])c([H])c(c([H])c1[H])C([H])([H])N2[H]


 47 51  0  0  0  0  0  0  0  0999 V2000
    4.9465    4.0345   20.8515 N   0  0  0  0  0  0  0  0  0  0  0  0
    4.7728    4.7211   19.5582 C   0  0  0  0  0  0  0  0  0  0  0  0
    4.5162    3.7095   18.4645 C   0  0  0  0  0  0  0  0  0  0  0  0
    5.5197    3.9097   17.3740 C   0  0  0  0  0  0  0  0  0  0  0  0
    4.9743    3.7973   15.9838 C   0  0  0  0  0  0  0  0  0  0  0  0
    3.9823    4.9302   15.7492 C   0  0  0  0  0  0  0  0  0  0  0  0
    3.7333    5.0543   14.3130 N   0  0  0  0  0  0  0  0  0  0  0  0
    3.2225    6.2682   13.7587 C   0  0  0  0  0  0  0  0  0  0  0  0
    3.8439    7.4443   13.9700 N   0  0  0  0  0  0  0  0  0  0  0  0
    3.4955    8.6190   13.5014 C   0  0  0  0  0  0  0  0  0  0  0  0
    4.1651    9.8177   13.7458 N   0  0  0  0  0  0  0  0  0  0  0  0
    5.3395   10.0880   14.5074 C   0  0  0  0  0  0  0  0  0  0  0  0
    5.2304    9.4995   15.8980 C   0  0  0  0  0  0  0  0  0  0  0  0
    6.0991    8.5355   16.3244 C   0  0  0  0  0  0  0  0  0  0  0  0
    5.9984    8.0121   17.6487 C   0  0  0  0  0  0  0  0  0  0  0  0
    5.0561    8.4161   18.5683 C   0  0  0  0  0  0  0  0  0  0  0  0
    4.9711    7.8358   19.9669 C   0  0  0  0  0  0  0  0  0  0  0  0
    3.8236    7.0000   20.2254 N   0  0  0  0  0  0  0  0  0  0  0  0
    3.6588    5.7104   19.6477 C   0  0  0  0  0  0  0  0  0  0  0  0
    2.5355    5.3530   19.1803 O   0  0  0  0  0  0  0  0  0  0  0  0
    4.1930    9.3841   18.1174 C   0  0  0  0  0  0  0  0  0  0  0  0
    4.2822    9.9143   16.8046 C   0  0  0  0  0  0  0  0  0  0  0  0
    2.3676    8.6323   12.7096 N   0  0  0  0  0  0  0  0  0  0  0  0
    1.6817    7.5263   12.4417 C   0  0  0  0  0  0  0  0  0  0  0  0
    2.0770    6.2998   12.9530 C   0  0  0  0  0  0  0  0  0  0  0  0
    4.0244    3.7103   21.2251 H   0  0  0  0  0  0  0  0  0  0  0  0
    5.5607    3.1992   20.6085 H   0  0  0  0  0  0  0  0  0  0  0  0
    3.9641    4.2118   13.7394 H   0  0  0  0  0  0  0  0  0  0  0  0
    3.7326   10.6921   13.2875 H   0  0  0  0  0  0  0  0  0  0  0  0
    3.0720    7.3397   20.8611 H   0  0  0  0  0  0  0  0  0  0  0  0
    1.2984    5.1017   12.6782 C   0  0  0  0  0  0  0  0  0  0  0  0
    0.4659    4.7280   13.5461 O   0  0  0  0  0  0  0  0  0  0  0  0
    1.3965    4.3185   11.5167 N   0  0  0  0  0  0  0  0  0  0  0  0
    2.0755    4.5878   10.7666 H   0  0  0  0  0  0  0  0  0  0  0  0
    0.5777    3.1366   11.3129 C   0  0  0  0  0  0  0  0  0  0  0  0
    1.2075    1.8957   11.9071 C   0  0  0  0  0  0  0  0  0  0  0  0
    2.4589    1.5043   11.1417 C   0  0  0  0  0  0  0  0  0  0  0  0
    2.1634    1.3376    9.7587 N   0  0  0  0  0  0  0  0  0  0  0  0
    0.7681    1.5333    9.4468 C   0  0  0  0  0  0  0  0  0  0  0  0
    0.3449    2.9222    9.8577 C   0  0  0  0  0  0  0  0  0  0  0  0
    2.5979    0.0640    9.2817 C   0  0  0  0  0  0  0  0  0  0  0  0
    3.7037    0.1696    8.3157 C   0  0  0  0  0  0  0  0  0  0  0  0
    5.0318    0.2021    8.6652 C   0  0  0  0  0  0  0  0  0  0  0  0
    6.0261    0.3013    7.7373 C   0  0  0  0  0  0  0  0  0  0  0  0
    5.7256    0.3737    6.4022 C   0  0  0  0  0  0  0  0  0  0  0  0
    4.4209    0.3455    5.9997 C   0  0  0  0  0  0  0  0  0  0  0  0
    3.4381    0.2460    6.9414 C   0  0  0  0  0  0  0  0  0  0  0  0
  1  2  1  0  0  0
  2  3  1  0  0  0
  3  4  1  0  0  0
  4  5  1  0  0  0
  5  6  1  0  0  0
  6  7  1  0  0  0
  7  8  1  0  0  0
  8  9  2  0  0  0
  9 10  1  0  0  0
 10 11  1  0  0  0
 11 12  1  0  0  0
 12 13  1  0  0  0
 13 14  2  0  0  0
 14 15  1  0  0  0
 15 16  2  0  0  0
 16 17  1  0  0  0
 17 18  1  0  0  0
 18 19  1  0  0  0
 19 20  2  0  0  0
 16 21  1  0  0  0
 21 22  2  0  0  0
 10 23  2  0  0  0
 23 24  1  0  0  0
 24 25  2  0  0  0
 25 31  1  0  0  0
 31 32  2  0  0  0
 31 33  1  0  0  0
 33 35  1  0  0  0
 35 36  1  0  0  0
 36 37  1  0  0  0
 37 38  1  0  0  0
 38 41  1  0  0  0
 41 42  1  0  0  0
 42 43  2  0  0  0
 43 44  1  0  0  0
 44 45  2  0  0  0
 45 46  1  0  0  0
 46 47  2  0  0  0
 38 39  1  0  0  0
 39 40  1  0  0  0
 19  2  1  0  0  0
 40 35  1  0  0  0
 25  8  1  0  0  0
 47 42  1  0  0  0
 22 13  1  0  0  0
  1 26  1  0  0  0
  1 27  1  0  0  0
  7 28  1  0  0  0
 11 29  1  0  0  0
 18 30  1  0  0  0
 33 34  1  0  0  0
M  END
> <minimizedAffinity>
-8.15406

> <CNNscore>
0.2733774781

> <CNNaffinity>
5.9522018433

> <CNN_VS>
1.6271979809

> <CNNaffinity_variance>
0.9779671431

$$$$
[H]c1nc2nc(c1C(=O)N([H])C1([H])C([H])([H])C([H])([H])N(C([H])([H])c3c([H])c([H])c([H])c([H])c3[H])C([H])([H])C1([H])[H])N([H])C([H])([H])C([H])([H])C([H])([H])C([H])([H])[C@]([H])(N([H])[H])C(=O)N([H])C([H])([H])c1c([H])c([H])c(c([H])c1[H])C([H])([H])N2[H]


 47 51  0  0  0  0  0  0  0  0999 V2000
    3.8806    1.7098   19.8499 N   0  0  0  0  0  0  0  0  0  0  0  0
    3.7406    2.6461   18.7195 C   0  0  0  0  0  0  0  0  0  0  0  0
    4.0179    4.0593   19.1793 C   0  0  0  0  0  0  0  0  0  0  0  0
    2.8497    4.9226   18.8241 C   0  0  0  0  0  0  0  0  0  0  0  0
    3.2026    6.2798   18.2985 C   0  0  0  0  0  0  0  0  0  0  0  0
    3.9287    6.1210   16.9681 C   0  0  0  0  0  0  0  0  0  0  0  0
    3.9437    7.4107   16.2777 N   0  0  0  0  0  0  0  0  0  0  0  0
    4.1414    7.4845   14.8644 C   0  0  0  0  0  0  0  0  0  0  0  0
    3.3534    6.7971   14.0156 N   0  0  0  0  0  0  0  0  0  0  0  0
    3.4124    6.7970   12.7051 C   0  0  0  0  0  0  0  0  0  0  0  0
    2.5781    6.0674   11.8585 N   0  0  0  0  0  0  0  0  0  0  0  0
    1.4950    5.1883   12.1521 C   0  0  0  0  0  0  0  0  0  0  0  0
    1.9062    4.1423   13.1664 C   0  0  0  0  0  0  0  0  0  0  0  0
    1.2967    4.0672   14.3865 C   0  0  0  0  0  0  0  0  0  0  0  0
    1.6785    3.0566   15.3197 C   0  0  0  0  0  0  0  0  0  0  0  0
    2.6531    2.1135   15.0798 C   0  0  0  0  0  0  0  0  0  0  0  0
    3.0406    1.0556   16.0950 C   0  0  0  0  0  0  0  0  0  0  0  0
    4.3457    1.2124   16.6903 N   0  0  0  0  0  0  0  0  0  0  0  0
    4.6577    2.2520   17.6099 C   0  0  0  0  0  0  0  0  0  0  0  0
    5.7489    2.8908   17.5135 O   0  0  0  0  0  0  0  0  0  0  0  0
    3.2530    2.2093   13.8484 C   0  0  0  0  0  0  0  0  0  0  0  0
    2.8828    3.2074   12.9107 C   0  0  0  0  0  0  0  0  0  0  0  0
    4.3945    7.5915   12.1543 N   0  0  0  0  0  0  0  0  0  0  0  0
    5.2245    8.3081   12.9049 C   0  0  0  0  0  0  0  0  0  0  0  0
    5.1353    8.2859   14.2882 C   0  0  0  0  0  0  0  0  0  0  0  0
    4.8898    1.5490   20.0745 H   0  0  0  0  0  0  0  0  0  0  0  0
    3.3999    2.2172   20.6533 H   0  0  0  0  0  0  0  0  0  0  0  0
    3.7903    8.2491   16.8822 H   0  0  0  0  0  0  0  0  0  0  0  0
    2.7749    6.1790   10.8048 H   0  0  0  0  0  0  0  0  0  0  0  0
    5.1059    0.5434   16.4475 H   0  0  0  0  0  0  0  0  0  0  0  0
    6.0712    9.0501   15.0990 C   0  0  0  0  0  0  0  0  0  0  0  0
    7.2568    9.1561   14.6881 O   0  0  0  0  0  0  0  0  0  0  0  0
    5.7626    9.6861   16.3125 N   0  0  0  0  0  0  0  0  0  0  0  0
    4.7903    9.6255   16.6961 H   0  0  0  0  0  0  0  0  0  0  0  0
    6.7535   10.4377   17.0621 C   0  0  0  0  0  0  0  0  0  0  0  0
    7.8718    9.5566   17.5745 C   0  0  0  0  0  0  0  0  0  0  0  0
    7.3666    8.6106   18.6491 C   0  0  0  0  0  0  0  0  0  0  0  0
    6.7440    9.3411   19.7011 N   0  0  0  0  0  0  0  0  0  0  0  0
    6.7903   10.7703   19.5069 C   0  0  0  0  0  0  0  0  0  0  0  0
    6.1064   11.1302   18.2109 C   0  0  0  0  0  0  0  0  0  0  0  0
    7.2984    9.0012   20.9721 C   0  0  0  0  0  0  0  0  0  0  0  0
    6.8783    7.6679   21.4335 C   0  0  0  0  0  0  0  0  0  0  0  0
    7.7483    6.6568   21.7625 C   0  0  0  0  0  0  0  0  0  0  0  0
    7.3165    5.4346   22.1857 C   0  0  0  0  0  0  0  0  0  0  0  0
    5.9763    5.1716   22.2973 C   0  0  0  0  0  0  0  0  0  0  0  0
    5.0679    6.1417   21.9829 C   0  0  0  0  0  0  0  0  0  0  0  0
    5.5169    7.3594   21.5609 C   0  0  0  0  0  0  0  0  0  0  0  0
  1  2  1  0  0  0
  2  3  1  0  0  0
  3  4  1  0  0  0
  4  5  1  0  0  0
  5  6  1  0  0  0
  6  7  1  0  0  0
  7  8  1  0  0  0
  8  9  2  0  0  0
  9 10  1  0  0  0
 10 11  1  0  0  0
 11 12  1  0  0  0
 12 13  1  0  0  0
 13 14  2  0  0  0
 14 15  1  0  0  0
 15 16  2  0  0  0
 16 17  1  0  0  0
 17 18  1  0  0  0
 18 19  1  0  0  0
 19 20  2  0  0  0
 16 21  1  0  0  0
 21 22  2  0  0  0
 10 23  2  0  0  0
 23 24  1  0  0  0
 24 25  2  0  0  0
 25 31  1  0  0  0
 31 32  2  0  0  0
 31 33  1  0  0  0
 33 35  1  0  0  0
 35 36  1  0  0  0
 36 37  1  0  0  0
 37 38  1  0  0  0
 38 41  1  0  0  0
 41 42  1  0  0  0
 42 43  2  0  0  0
 43 44  1  0  0  0
 44 45  2  0  0  0
 45 46  1  0  0  0
 46 47  2  0  0  0
 38 39  1  0  0  0
 39 40  1  0  0  0
 19  2  1  0  0  0
 40 35  1  0  0  0
 25  8  1  0  0  0
 47 42  1  0  0  0
 22 13  1  0  0  0
  1 26  1  0  0  0
  1 27  1  0  0  0
  7 28  1  0  0  0
 11 29  1  0  0  0
 18 30  1  0  0  0
 33 34  1  0  0  0
M  END
> <minimizedAffinity>
-8.20396

> <CNNscore>
0.2703168392

> <CNNaffinity>
6.0310187340

> <CNN_VS>
1.6302859783

> <CNNaffinity_variance>
0.8393823504

$$$$
[H]c1nc2nc(c1C(=O)N([H])C1([H])C([H])([H])C([H])([H])N(C([H])([H])c3c([H])c([H])c([H])c([H])c3[H])C([H])([H])C1([H])[H])N([H])C([H])([H])C([H])([H])C([H])([H])C([H])([H])[C@]([H])(N([H])[H])C(=O)N([H])C([H])([H])c1c([H])c([H])c(c([H])c1[H])C([H])([H])N2[H]


 47 51  0  0  0  0  0  0  0  0999 V2000
    3.6543    1.5449   18.3940 N   0  0  0  0  0  0  0  0  0  0  0  0
    3.5629    2.8737   17.7615 C   0  0  0  0  0  0  0  0  0  0  0  0
    3.8720    3.9525   18.7746 C   0  0  0  0  0  0  0  0  0  0  0  0
    2.7360    4.9244   18.8093 C   0  0  0  0  0  0  0  0  0  0  0  0
    3.1378    6.3639   18.9052 C   0  0  0  0  0  0  0  0  0  0  0  0
    3.8842    6.7542   17.6353 C   0  0  0  0  0  0  0  0  0  0  0  0
    3.9495    8.2133   17.5514 N   0  0  0  0  0  0  0  0  0  0  0  0
    4.1760    8.8674   16.3014 C   0  0  0  0  0  0  0  0  0  0  0  0
    3.3849    8.6277   15.2381 N   0  0  0  0  0  0  0  0  0  0  0  0
    3.4688    9.1762   14.0494 C   0  0  0  0  0  0  0  0  0  0  0  0
    2.6301    8.8989   12.9702 N   0  0  0  0  0  0  0  0  0  0  0  0
    1.5167    8.0153   12.8612 C   0  0  0  0  0  0  0  0  0  0  0  0
    1.8783    6.6265   13.3435 C   0  0  0  0  0  0  0  0  0  0  0  0
    1.2438    6.0665   14.4157 C   0  0  0  0  0  0  0  0  0  0  0  0
    1.5785    4.7449   14.8392 C   0  0  0  0  0  0  0  0  0  0  0  0
    2.5300    3.9573   14.2299 C   0  0  0  0  0  0  0  0  0  0  0  0
    2.8675    2.5582   14.7079 C   0  0  0  0  0  0  0  0  0  0  0  0
    4.1650    2.4057   15.3206 N   0  0  0  0  0  0  0  0  0  0  0  0
    4.4892    2.9514   16.5938 C   0  0  0  0  0  0  0  0  0  0  0  0
    5.6000    3.5339   16.7807 O   0  0  0  0  0  0  0  0  0  0  0  0
    3.1557    4.5412   13.1562 C   0  0  0  0  0  0  0  0  0  0  0  0
    2.8323    5.8529   12.7234 C   0  0  0  0  0  0  0  0  0  0  0  0
    4.4836   10.0946   13.8890 N   0  0  0  0  0  0  0  0  0  0  0  0
    5.3195   10.4007   14.8757 C   0  0  0  0  0  0  0  0  0  0  0  0
    5.2034    9.8023   16.1208 C   0  0  0  0  0  0  0  0  0  0  0  0
    4.6541    1.2703   18.5352 H   0  0  0  0  0  0  0  0  0  0  0  0
    3.1732    1.6837   19.3338 H   0  0  0  0  0  0  0  0  0  0  0  0
    3.8087    8.7248   18.4518 H   0  0  0  0  0  0  0  0  0  0  0  0
    2.8500    9.4361   12.0621 H   0  0  0  0  0  0  0  0  0  0  0  0
    4.9101    1.8752   14.8230 H   0  0  0  0  0  0  0  0  0  0  0  0
    6.1453   10.1226   17.1827 C   0  0  0  0  0  0  0  0  0  0  0  0
    7.3565   10.2700   16.8713 O   0  0  0  0  0  0  0  0  0  0  0  0
    5.8161   10.2833   18.5384 N   0  0  0  0  0  0  0  0  0  0  0  0
    4.8222   10.1693   18.8469 H   0  0  0  0  0  0  0  0  0  0  0  0
    6.8153   10.6101   19.5403 C   0  0  0  0  0  0  0  0  0  0  0  0
    7.8726    9.5348   19.6648 C   0  0  0  0  0  0  0  0  0  0  0  0
    7.2869    8.2657   20.2575 C   0  0  0  0  0  0  0  0  0  0  0  0
    6.6641    8.5430   21.5078 N   0  0  0  0  0  0  0  0  0  0  0  0
    6.7845    9.9235   21.9102 C   0  0  0  0  0  0  0  0  0  0  0  0
    6.1629   10.8149   20.8633 C   0  0  0  0  0  0  0  0  0  0  0  0
    7.1581    7.6875   22.5384 C   0  0  0  0  0  0  0  0  0  0  0  0
    6.5882    6.3319   22.4692 C   0  0  0  0  0  0  0  0  0  0  0  0
    7.3338    5.1900   22.3042 C   0  0  0  0  0  0  0  0  0  0  0  0
    6.7650    3.9521   22.2446 C   0  0  0  0  0  0  0  0  0  0  0  0
    5.4065    3.8060   22.3486 C   0  0  0  0  0  0  0  0  0  0  0  0
    4.6180    4.9088   22.5138 C   0  0  0  0  0  0  0  0  0  0  0  0
    5.2033    6.1403   22.5714 C   0  0  0  0  0  0  0  0  0  0  0  0
  1  2  1  0  0  0
  2  3  1  0  0  0
  3  4  1  0  0  0
  4  5  1  0  0  0
  5  6  1  0  0  0
  6  7  1  0  0  0
  7  8  1  0  0  0
  8  9  2  0  0  0
  9 10  1  0  0  0
 10 11  1  0  0  0
 11 12  1  0  0  0
 12 13  1  0  0  0
 13 14  2  0  0  0
 14 15  1  0  0  0
 15 16  2  0  0  0
 16 17  1  0  0  0
 17 18  1  0  0  0
 18 19  1  0  0  0
 19 20  2  0  0  0
 16 21  1  0  0  0
 21 22  2  0  0  0
 10 23  2  0  0  0
 23 24  1  0  0  0
 24 25  2  0  0  0
 25 31  1  0  0  0
 31 32  2  0  0  0
 31 33  1  0  0  0
 33 35  1  0  0  0
 35 36  1  0  0  0
 36 37  1  0  0  0
 37 38  1  0  0  0
 38 41  1  0  0  0
 41 42  1  0  0  0
 42 43  2  0  0  0
 43 44  1  0  0  0
 44 45  2  0  0  0
 45 46  1  0  0  0
 46 47  2  0  0  0
 38 39  1  0  0  0
 39 40  1  0  0  0
 19  2  1  0  0  0
 40 35  1  0  0  0
 25  8  1  0  0  0
 47 42  1  0  0  0
 22 13  1  0  0  0
  1 26  1  0  0  0
  1 27  1  0  0  0
  7 28  1  0  0  0
 11 29  1  0  0  0
 18 30  1  0  0  0
 33 34  1  0  0  0
M  END
> <minimizedAffinity>
-8.68125

> <CNNscore>
0.2621730268

> <CNNaffinity>
6.1008968353

> <CNN_VS>
1.5994906425

> <CNNaffinity_variance>
0.9318851233

$$$$
[H]c1nc2nc(c1C(=O)N([H])C1([H])C([H])([H])C([H])([H])N(C([H])([H])c3c([H])c([H])c([H])c([H])c3[H])C([H])([H])C1([H])[H])N([H])C([H])([H])C([H])([H])C([H])([H])C([H])([H])[C@]([H])(N([H])[H])C(=O)N([H])C([H])([H])c1c([H])c([H])c(c([H])c1[H])C([H])([H])N2[H]


 47 51  0  0  0  0  0  0  0  0999 V2000
    4.0588    1.7537   18.8644 N   0  0  0  0  0  0  0  0  0  0  0  0
    3.8870    3.0568   18.1960 C   0  0  0  0  0  0  0  0  0  0  0  0
    4.1438    4.1796   19.1753 C   0  0  0  0  0  0  0  0  0  0  0  0
    2.9552    5.0868   19.1948 C   0  0  0  0  0  0  0  0  0  0  0  0
    3.2760    6.5488   19.2462 C   0  0  0  0  0  0  0  0  0  0  0  0
    3.9879    6.9440   17.9581 C   0  0  0  0  0  0  0  0  0  0  0  0
    3.9701    8.4014   17.8328 N   0  0  0  0  0  0  0  0  0  0  0  0
    4.1482    9.0314   16.5627 C   0  0  0  0  0  0  0  0  0  0  0  0
    3.3624    8.7174   15.5148 N   0  0  0  0  0  0  0  0  0  0  0  0
    3.4046    9.2357   14.3105 C   0  0  0  0  0  0  0  0  0  0  0  0
    2.5733    8.8812   13.2483 N   0  0  0  0  0  0  0  0  0  0  0  0
    1.5106    7.9338   13.1758 C   0  0  0  0  0  0  0  0  0  0  0  0
    1.9542    6.5818   13.6929 C   0  0  0  0  0  0  0  0  0  0  0  0
    1.3618    6.0178   14.7869 C   0  0  0  0  0  0  0  0  0  0  0  0
    1.7743    4.7297   15.2436 C   0  0  0  0  0  0  0  0  0  0  0  0
    2.7632    3.9797   14.6466 C   0  0  0  0  0  0  0  0  0  0  0  0
    3.1833    2.6159   15.1599 C   0  0  0  0  0  0  0  0  0  0  0  0
    4.4927    2.5539   15.7630 N   0  0  0  0  0  0  0  0  0  0  0  0
    4.7970    3.1530   17.0170 C   0  0  0  0  0  0  0  0  0  0  0  0
    5.8748    3.8020   17.1759 O   0  0  0  0  0  0  0  0  0  0  0  0
    3.3454    4.5669   13.5504 C   0  0  0  0  0  0  0  0  0  0  0  0
    2.9447    5.8456   13.0846 C   0  0  0  0  0  0  0  0  0  0  0  0
    4.3646   10.2047   14.1139 N   0  0  0  0  0  0  0  0  0  0  0  0
    5.1906   10.5851   15.0827 C   0  0  0  0  0  0  0  0  0  0  0  0
    5.1196   10.0169   16.3453 C   0  0  0  0  0  0  0  0  0  0  0  0
    5.0737    1.5397   19.0027 H   0  0  0  0  0  0  0  0  0  0  0  0
    3.5791    1.8920   19.8049 H   0  0  0  0  0  0  0  0  0  0  0  0
    3.8087    8.9297   18.7199 H   0  0  0  0  0  0  0  0  0  0  0  0
    2.7545    9.4038   12.3234 H   0  0  0  0  0  0  0  0  0  0  0  0
    5.2621    2.0521   15.2725 H   0  0  0  0  0  0  0  0  0  0  0  0
    6.0513   10.4197   17.3878 C   0  0  0  0  0  0  0  0  0  0  0  0
    7.0239   11.1491   17.0592 O   0  0  0  0  0  0  0  0  0  0  0  0
    5.9581   10.0613   18.7425 N   0  0  0  0  0  0  0  0  0  0  0  0
    5.1677    9.4549   19.0643 H   0  0  0  0  0  0  0  0  0  0  0  0
    6.9272   10.5100   19.7265 C   0  0  0  0  0  0  0  0  0  0  0  0
    7.9714    9.4557   20.0223 C   0  0  0  0  0  0  0  0  0  0  0  0
    7.3570    8.2752   20.7530 C   0  0  0  0  0  0  0  0  0  0  0  0
    6.6966    8.7128   21.9364 N   0  0  0  0  0  0  0  0  0  0  0  0
    6.8150   10.1331   22.1626 C   0  0  0  0  0  0  0  0  0  0  0  0
    6.2344   10.8852   20.9903 C   0  0  0  0  0  0  0  0  0  0  0  0
    7.1505    7.9946   23.0836 C   0  0  0  0  0  0  0  0  0  0  0  0
    8.4580    7.3534   22.8682 C   0  0  0  0  0  0  0  0  0  0  0  0
    8.6208    6.0416   22.4941 C   0  0  0  0  0  0  0  0  0  0  0  0
    9.8518    5.4863   22.3054 C   0  0  0  0  0  0  0  0  0  0  0  0
   10.9862    6.2333   22.4875 C   0  0  0  0  0  0  0  0  0  0  0  0
   10.8815    7.5431   22.8597 C   0  0  0  0  0  0  0  0  0  0  0  0
    9.6418    8.0832   23.0442 C   0  0  0  0  0  0  0  0  0  0  0  0
  1  2  1  0  0  0
  2  3  1  0  0  0
  3  4  1  0  0  0
  4  5  1  0  0  0
  5  6  1  0  0  0
  6  7  1  0  0  0
  7  8  1  0  0  0
  8  9  2  0  0  0
  9 10  1  0  0  0
 10 11  1  0  0  0
 11 12  1  0  0  0
 12 13  1  0  0  0
 13 14  2  0  0  0
 14 15  1  0  0  0
 15 16  2  0  0  0
 16 17  1  0  0  0
 17 18  1  0  0  0
 18 19  1  0  0  0
 19 20  2  0  0  0
 16 21  1  0  0  0
 21 22  2  0  0  0
 10 23  2  0  0  0
 23 24  1  0  0  0
 24 25  2  0  0  0
 25 31  1  0  0  0
 31 32  2  0  0  0
 31 33  1  0  0  0
 33 35  1  0  0  0
 35 36  1  0  0  0
 36 37  1  0  0  0
 37 38  1  0  0  0
 38 41  1  0  0  0
 41 42  1  0  0  0
 42 43  2  0  0  0
 43 44  1  0  0  0
 44 45  2  0  0  0
 45 46  1  0  0  0
 46 47  2  0  0  0
 38 39  1  0  0  0
 39 40  1  0  0  0
 19  2  1  0  0  0
 40 35  1  0  0  0
 25  8  1  0  0  0
 47 42  1  0  0  0
 22 13  1  0  0  0
  1 26  1  0  0  0
  1 27  1  0  0  0
  7 28  1  0  0  0
 11 29  1  0  0  0
 18 30  1  0  0  0
 33 34  1  0  0  0
M  END
> <minimizedAffinity>
-8.67943

> <CNNscore>
0.2486490309

> <CNNaffinity>
6.1451764107

> <CNN_VS>
1.5279921293

> <CNNaffinity_variance>
0.6225693226

$$$$
[H]c1nc2nc(c1C(=O)N([H])C1([H])C([H])([H])C([H])([H])N(C([H])([H])c3c([H])c([H])c([H])c([H])c3[H])C([H])([H])C1([H])[H])N([H])C([H])([H])C([H])([H])C([H])([H])C([H])([H])[C@]([H])(N([H])[H])C(=O)N([H])C([H])([H])c1c([H])c([H])c(c([H])c1[H])C([H])([H])N2[H]


 47 51  0  0  0  0  0  0  0  0999 V2000
   -0.3500    3.1733    4.9162 N   0  0  0  0  0  0  0  0  0  0  0  0
   -0.8147    3.5605    6.2610 C   0  0  0  0  0  0  0  0  0  0  0  0
    0.1715    3.0899    7.3057 C   0  0  0  0  0  0  0  0  0  0  0  0
   -0.5526    2.2587    8.3161 C   0  0  0  0  0  0  0  0  0  0  0  0
   -0.1470    2.4957    9.7381 C   0  0  0  0  0  0  0  0  0  0  0  0
   -0.5263    3.9188   10.1295 C   0  0  0  0  0  0  0  0  0  0  0  0
   -0.4825    4.0389   11.5869 N   0  0  0  0  0  0  0  0  0  0  0  0
   -1.1976    5.0769   12.2598 C   0  0  0  0  0  0  0  0  0  0  0  0
   -2.5207    5.2443   12.0714 N   0  0  0  0  0  0  0  0  0  0  0  0
   -3.2949    6.1361   12.6426 C   0  0  0  0  0  0  0  0  0  0  0  0
   -4.6639    6.2799   12.4187 N   0  0  0  0  0  0  0  0  0  0  0  0
   -5.5505    5.5460   11.5775 C   0  0  0  0  0  0  0  0  0  0  0  0
   -5.0087    5.4567   10.1666 C   0  0  0  0  0  0  0  0  0  0  0  0
   -4.7008    4.2498    9.6060 C   0  0  0  0  0  0  0  0  0  0  0  0
   -4.2173    4.1828    8.2645 C   0  0  0  0  0  0  0  0  0  0  0  0
   -4.0267    5.2824    7.4574 C   0  0  0  0  0  0  0  0  0  0  0  0
   -3.5051    5.1788    6.0371 C   0  0  0  0  0  0  0  0  0  0  0  0
   -2.1704    5.6846    5.8255 N   0  0  0  0  0  0  0  0  0  0  0  0
   -1.0081    5.0388    6.3314 C   0  0  0  0  0  0  0  0  0  0  0  0
   -0.0795    5.7136    6.8702 O   0  0  0  0  0  0  0  0  0  0  0  0
   -4.3409    6.4843    8.0422 C   0  0  0  0  0  0  0  0  0  0  0  0
   -4.8236    6.5658    9.3736 C   0  0  0  0  0  0  0  0  0  0  0  0
   -2.6690    6.9867   13.5279 N   0  0  0  0  0  0  0  0  0  0  0  0
   -1.3673    6.9054   13.7826 C   0  0  0  0  0  0  0  0  0  0  0  0
   -0.5768    5.9507   13.1616 C   0  0  0  0  0  0  0  0  0  0  0  0
    0.4343    3.7914    4.6035 H   0  0  0  0  0  0  0  0  0  0  0  0
   -0.0027    2.1758    5.0513 H   0  0  0  0  0  0  0  0  0  0  0  0
    0.0877    3.3173   12.0832 H   0  0  0  0  0  0  0  0  0  0  0  0
   -5.1424    7.0744   12.9676 H   0  0  0  0  0  0  0  0  0  0  0  0
   -2.0324    6.5609    5.2800 H   0  0  0  0  0  0  0  0  0  0  0  0
    0.8530    5.8936   13.4252 C   0  0  0  0  0  0  0  0  0  0  0  0
    1.2258    5.6177   14.5959 O   0  0  0  0  0  0  0  0  0  0  0  0
    1.8631    6.1219   12.4765 N   0  0  0  0  0  0  0  0  0  0  0  0
    1.6031    6.3560   11.4897 H   0  0  0  0  0  0  0  0  0  0  0  0
    3.2724    6.0399   12.8168 C   0  0  0  0  0  0  0  0  0  0  0  0
    4.1362    6.8480   11.8732 C   0  0  0  0  0  0  0  0  0  0  0  0
    4.1470    6.2306   10.4863 C   0  0  0  0  0  0  0  0  0  0  0  0
    4.5636    4.8704   10.5514 N   0  0  0  0  0  0  0  0  0  0  0  0
    4.9079    4.4436   11.8862 C   0  0  0  0  0  0  0  0  0  0  0  0
    3.7194    4.6193   12.7992 C   0  0  0  0  0  0  0  0  0  0  0  0
    5.6484    4.6133    9.6597 C   0  0  0  0  0  0  0  0  0  0  0  0
    5.6899    3.2124    9.2093 C   0  0  0  0  0  0  0  0  0  0  0  0
    6.8429    2.4751    9.0896 C   0  0  0  0  0  0  0  0  0  0  0  0
    6.8367    1.1785    8.6675 C   0  0  0  0  0  0  0  0  0  0  0  0
    5.6583    0.5592    8.3426 C   0  0  0  0  0  0  0  0  0  0  0  0
    4.4824    1.2465    8.4435 C   0  0  0  0  0  0  0  0  0  0  0  0
    4.5063    2.5434    8.8676 C   0  0  0  0  0  0  0  0  0  0  0  0
  1  2  1  0  0  0
  2  3  1  0  0  0
  3  4  1  0  0  0
  4  5  1  0  0  0
  5  6  1  0  0  0
  6  7  1  0  0  0
  7  8  1  0  0  0
  8  9  2  0  0  0
  9 10  1  0  0  0
 10 11  1  0  0  0
 11 12  1  0  0  0
 12 13  1  0  0  0
 13 14  2  0  0  0
 14 15  1  0  0  0
 15 16  2  0  0  0
 16 17  1  0  0  0
 17 18  1  0  0  0
 18 19  1  0  0  0
 19 20  2  0  0  0
 16 21  1  0  0  0
 21 22  2  0  0  0
 10 23  2  0  0  0
 23 24  1  0  0  0
 24 25  2  0  0  0
 25 31  1  0  0  0
 31 32  2  0  0  0
 31 33  1  0  0  0
 33 35  1  0  0  0
 35 36  1  0  0  0
 36 37  1  0  0  0
 37 38  1  0  0  0
 38 41  1  0  0  0
 41 42  1  0  0  0
 42 43  2  0  0  0
 43 44  1  0  0  0
 44 45  2  0  0  0
 45 46  1  0  0  0
 46 47  2  0  0  0
 38 39  1  0  0  0
 39 40  1  0  0  0
 19  2  1  0  0  0
 40 35  1  0  0  0
 25  8  1  0  0  0
 47 42  1  0  0  0
 22 13  1  0  0  0
  1 26  1  0  0  0
  1 27  1  0  0  0
  7 28  1  0  0  0
 11 29  1  0  0  0
 18 30  1  0  0  0
 33 34  1  0  0  0
M  END
> <minimizedAffinity>
-7.20237

> <CNNscore>
0.2476304471

> <CNNaffinity>
5.8214540482

> <CNN_VS>
1.4415693283

> <CNNaffinity_variance>
0.3640999198

$$$$
[H]c1nc2nc(c1C(=O)N([H])C1([H])C([H])([H])C([H])([H])N(C([H])([H])c3c([H])c([H])c([H])c([H])c3[H])C([H])([H])C1([H])[H])N([H])C([H])([H])C([H])([H])C([H])([H])C([H])([H])[C@]([H])(N([H])[H])C(=O)N([H])C([H])([H])c1c([H])c([H])c(c([H])c1[H])C([H])([H])N2[H]


 47 51  0  0  0  0  0  0  0  0999 V2000
    6.8690    0.4227    9.1331 N   0  0  0  0  0  0  0  0  0  0  0  0
    6.2658    1.6113    8.5026 C   0  0  0  0  0  0  0  0  0  0  0  0
    4.7776    1.6394    8.7669 C   0  0  0  0  0  0  0  0  0  0  0  0
    4.0553    1.7356    7.4610 C   0  0  0  0  0  0  0  0  0  0  0  0
    2.8796    2.6634    7.4552 C   0  0  0  0  0  0  0  0  0  0  0  0
    3.3730    4.0876    7.6799 C   0  0  0  0  0  0  0  0  0  0  0  0
    2.3108    5.0228    7.3094 N   0  0  0  0  0  0  0  0  0  0  0  0
    2.6092    6.3828    6.9881 C   0  0  0  0  0  0  0  0  0  0  0  0
    3.5072    6.6903    6.0326 N   0  0  0  0  0  0  0  0  0  0  0  0
    3.8519    7.8891    5.6266 C   0  0  0  0  0  0  0  0  0  0  0  0
    4.7907    8.1675    4.6335 N   0  0  0  0  0  0  0  0  0  0  0  0
    5.5767    7.2940    3.8264 C   0  0  0  0  0  0  0  0  0  0  0  0
    6.3125    6.2833    4.6803 C   0  0  0  0  0  0  0  0  0  0  0  0
    6.0721    4.9449    4.5509 C   0  0  0  0  0  0  0  0  0  0  0  0
    6.7955    4.0047    5.3450 C   0  0  0  0  0  0  0  0  0  0  0  0
    7.7543    4.3526    6.2704 C   0  0  0  0  0  0  0  0  0  0  0  0
    8.5016    3.3295    7.1039 C   0  0  0  0  0  0  0  0  0  0  0  0
    8.1749    3.3128    8.5092 N   0  0  0  0  0  0  0  0  0  0  0  0
    6.9252    2.8511    9.0084 C   0  0  0  0  0  0  0  0  0  0  0  0
    6.3188    3.4926    9.9188 O   0  0  0  0  0  0  0  0  0  0  0  0
    7.9778    5.7026    6.3846 C   0  0  0  0  0  0  0  0  0  0  0  0
    7.2675    6.6481    5.6010 C   0  0  0  0  0  0  0  0  0  0  0  0
    3.2166    8.9361    6.2587 N   0  0  0  0  0  0  0  0  0  0  0  0
    2.3157    8.7393    7.2155 C   0  0  0  0  0  0  0  0  0  0  0  0
    1.9739    7.4586    7.6214 C   0  0  0  0  0  0  0  0  0  0  0  0
    6.9505    0.5539   10.1681 H   0  0  0  0  0  0  0  0  0  0  0  0
    6.1748   -0.3542    8.9130 H   0  0  0  0  0  0  0  0  0  0  0  0
    1.3450    4.6245    7.2871 H   0  0  0  0  0  0  0  0  0  0  0  0
    4.9579    9.2132    4.4337 H   0  0  0  0  0  0  0  0  0  0  0  0
    8.8732    3.6502    9.2042 H   0  0  0  0  0  0  0  0  0  0  0  0
    1.0097    7.2581    8.6926 C   0  0  0  0  0  0  0  0  0  0  0  0
   -0.2125    7.3850    8.4167 O   0  0  0  0  0  0  0  0  0  0  0  0
    1.3282    6.9319   10.0209 N   0  0  0  0  0  0  0  0  0  0  0  0
    2.3308    6.8170   10.2996 H   0  0  0  0  0  0  0  0  0  0  0  0
    0.3053    6.7414   11.0339 C   0  0  0  0  0  0  0  0  0  0  0  0
    0.5637    7.5740   12.2707 C   0  0  0  0  0  0  0  0  0  0  0  0
    1.7896    7.0738   13.0136 C   0  0  0  0  0  0  0  0  0  0  0  0
    1.6514    5.6912   13.3256 N   0  0  0  0  0  0  0  0  0  0  0  0
    0.3869    5.1365   12.9065 C   0  0  0  0  0  0  0  0  0  0  0  0
    0.2269    5.3040   11.4155 C   0  0  0  0  0  0  0  0  0  0  0  0
    1.8563    5.4470   14.7172 C   0  0  0  0  0  0  0  0  0  0  0  0
    2.3061    4.0719   14.9894 C   0  0  0  0  0  0  0  0  0  0  0  0
    2.6900    3.1801   14.0176 C   0  0  0  0  0  0  0  0  0  0  0  0
    3.1001    1.9137   14.3133 C   0  0  0  0  0  0  0  0  0  0  0  0
    3.1420    1.4829   15.6135 C   0  0  0  0  0  0  0  0  0  0  0  0
    2.7709    2.3292   16.6191 C   0  0  0  0  0  0  0  0  0  0  0  0
    2.3630    3.5933   16.3057 C   0  0  0  0  0  0  0  0  0  0  0  0
  1  2  1  0  0  0
  2  3  1  0  0  0
  3  4  1  0  0  0
  4  5  1  0  0  0
  5  6  1  0  0  0
  6  7  1  0  0  0
  7  8  1  0  0  0
  8  9  2  0  0  0
  9 10  1  0  0  0
 10 11  1  0  0  0
 11 12  1  0  0  0
 12 13  1  0  0  0
 13 14  2  0  0  0
 14 15  1  0  0  0
 15 16  2  0  0  0
 16 17  1  0  0  0
 17 18  1  0  0  0
 18 19  1  0  0  0
 19 20  2  0  0  0
 16 21  1  0  0  0
 21 22  2  0  0  0
 10 23  2  0  0  0
 23 24  1  0  0  0
 24 25  2  0  0  0
 25 31  1  0  0  0
 31 32  2  0  0  0
 31 33  1  0  0  0
 33 35  1  0  0  0
 35 36  1  0  0  0
 36 37  1  0  0  0
 37 38  1  0  0  0
 38 41  1  0  0  0
 41 42  1  0  0  0
 42 43  2  0  0  0
 43 44  1  0  0  0
 44 45  2  0  0  0
 45 46  1  0  0  0
 46 47  2  0  0  0
 38 39  1  0  0  0
 39 40  1  0  0  0
 19  2  1  0  0  0
 40 35  1  0  0  0
 25  8  1  0  0  0
 47 42  1  0  0  0
 22 13  1  0  0  0
  1 26  1  0  0  0
  1 27  1  0  0  0
  7 28  1  0  0  0
 11 29  1  0  0  0
 18 30  1  0  0  0
 33 34  1  0  0  0
M  END
> <minimizedAffinity>
-7.18600

> <CNNscore>
0.2268222123

> <CNNaffinity>
5.8091201782

> <CNN_VS>
1.3176374435

> <CNNaffinity_variance>
0.4739730954

$$$$
[H]c1nc2nc(c1C(=O)N([H])C1([H])C([H])([H])C([H])([H])N(C([H])([H])c3c([H])c([H])c([H])c([H])c3[H])C([H])([H])C1([H])[H])N([H])C([H])([H])C([H])([H])C([H])([H])C([H])([H])[C@]([H])(N([H])[H])C(=O)N([H])C([H])([H])c1c([H])c([H])c(c([H])c1[H])C([H])([H])N2[H]


 47 51  0  0  0  0  0  0  0  0999 V2000
    6.6448    5.1415    6.4641 N   0  0  0  0  0  0  0  0  0  0  0  0
    5.5865    5.1990    7.4892 C   0  0  0  0  0  0  0  0  0  0  0  0
    6.1919    5.0613    8.8677 C   0  0  0  0  0  0  0  0  0  0  0  0
    5.5228    3.9295    9.5800 C   0  0  0  0  0  0  0  0  0  0  0  0
    5.2206    4.1817   11.0250 C   0  0  0  0  0  0  0  0  0  0  0  0
    4.1956    5.3047   11.1267 C   0  0  0  0  0  0  0  0  0  0  0  0
    3.6233    5.3056   12.4731 N   0  0  0  0  0  0  0  0  0  0  0  0
    2.3599    5.9204   12.7333 C   0  0  0  0  0  0  0  0  0  0  0  0
    1.2616    5.5745   12.0347 N   0  0  0  0  0  0  0  0  0  0  0  0
    0.0453    6.0409   12.1899 C   0  0  0  0  0  0  0  0  0  0  0  0
   -1.0685    5.6587   11.4426 N   0  0  0  0  0  0  0  0  0  0  0  0
   -1.1974    4.7131   10.3836 C   0  0  0  0  0  0  0  0  0  0  0  0
   -0.1659    4.9647    9.3044 C   0  0  0  0  0  0  0  0  0  0  0  0
    0.7801    4.0267    9.0027 C   0  0  0  0  0  0  0  0  0  0  0  0
    1.7276    4.2699    7.9630 C   0  0  0  0  0  0  0  0  0  0  0  0
    1.7675    5.4223    7.2097 C   0  0  0  0  0  0  0  0  0  0  0  0
    2.7914    5.6535    6.1152 C   0  0  0  0  0  0  0  0  0  0  0  0
    3.7900    6.6558    6.3985 N   0  0  0  0  0  0  0  0  0  0  0  0
    4.8189    6.4728    7.3639 C   0  0  0  0  0  0  0  0  0  0  0  0
    5.1228    7.4068    8.1660 O   0  0  0  0  0  0  0  0  0  0  0  0
    0.8089    6.3511    7.5316 C   0  0  0  0  0  0  0  0  0  0  0  0
   -0.1398    6.1223    8.5613 C   0  0  0  0  0  0  0  0  0  0  0  0
   -0.1061    6.9881   13.1794 N   0  0  0  0  0  0  0  0  0  0  0  0
    0.9150    7.3987   13.9240 C   0  0  0  0  0  0  0  0  0  0  0  0
    2.1887    6.8853   13.7341 C   0  0  0  0  0  0  0  0  0  0  0  0
    7.1787    6.0409    6.4326 H   0  0  0  0  0  0  0  0  0  0  0  0
    7.2735    4.3506    6.8005 H   0  0  0  0  0  0  0  0  0  0  0  0
    4.1908    4.8232   13.2061 H   0  0  0  0  0  0  0  0  0  0  0  0
   -1.9910    6.1531   11.6996 H   0  0  0  0  0  0  0  0  0  0  0  0
    3.7725    7.5602    5.8827 H   0  0  0  0  0  0  0  0  0  0  0  0
    3.3040    7.3673   14.5347 C   0  0  0  0  0  0  0  0  0  0  0  0
    4.2070    8.0240   13.9523 O   0  0  0  0  0  0  0  0  0  0  0  0
    3.4614    7.1612   15.9149 N   0  0  0  0  0  0  0  0  0  0  0  0
    2.7376    6.6200   16.4433 H   0  0  0  0  0  0  0  0  0  0  0  0
    4.6031    7.6813   16.6463 C   0  0  0  0  0  0  0  0  0  0  0  0
    5.3977    6.5843   17.3206 C   0  0  0  0  0  0  0  0  0  0  0  0
    4.6029    5.9573   18.4520 C   0  0  0  0  0  0  0  0  0  0  0  0
    4.1861    6.9552   19.3786 N   0  0  0  0  0  0  0  0  0  0  0  0
    4.6541    8.2776   19.0402 C   0  0  0  0  0  0  0  0  0  0  0  0
    4.1486    8.6615   17.6713 C   0  0  0  0  0  0  0  0  0  0  0  0
    4.5745    6.6244   20.7120 C   0  0  0  0  0  0  0  0  0  0  0  0
    5.5261    7.5932   21.2803 C   0  0  0  0  0  0  0  0  0  0  0  0
    5.1596    8.7813   21.8647 C   0  0  0  0  0  0  0  0  0  0  0  0
    6.0746    9.6517   22.3790 C   0  0  0  0  0  0  0  0  0  0  0  0
    7.4133    9.3634   22.3272 C   0  0  0  0  0  0  0  0  0  0  0  0
    7.8324    8.1954   21.7568 C   0  0  0  0  0  0  0  0  0  0  0  0
    6.9035    7.3354   21.2469 C   0  0  0  0  0  0  0  0  0  0  0  0
  1  2  1  0  0  0
  2  3  1  0  0  0
  3  4  1  0  0  0
  4  5  1  0  0  0
  5  6  1  0  0  0
  6  7  1  0  0  0
  7  8  1  0  0  0
  8  9  2  0  0  0
  9 10  1  0  0  0
 10 11  1  0  0  0
 11 12  1  0  0  0
 12 13  1  0  0  0
 13 14  2  0  0  0
 14 15  1  0  0  0
 15 16  2  0  0  0
 16 17  1  0  0  0
 17 18  1  0  0  0
 18 19  1  0  0  0
 19 20  2  0  0  0
 16 21  1  0  0  0
 21 22  2  0  0  0
 10 23  2  0  0  0
 23 24  1  0  0  0
 24 25  2  0  0  0
 25 31  1  0  0  0
 31 32  2  0  0  0
 31 33  1  0  0  0
 33 35  1  0  0  0
 35 36  1  0  0  0
 36 37  1  0  0  0
 37 38  1  0  0  0
 38 41  1  0  0  0
 41 42  1  0  0  0
 42 43  2  0  0  0
 43 44  1  0  0  0
 44 45  2  0  0  0
 45 46  1  0  0  0
 46 47  2  0  0  0
 38 39  1  0  0  0
 39 40  1  0  0  0
 19  2  1  0  0  0
 40 35  1  0  0  0
 25  8  1  0  0  0
 47 42  1  0  0  0
 22 13  1  0  0  0
  1 26  1  0  0  0
  1 27  1  0  0  0
  7 28  1  0  0  0
 11 29  1  0  0  0
 18 30  1  0  0  0
 33 34  1  0  0  0
M  END
> <minimizedAffinity>
-7.48485

> <CNNscore>
0.2210044861

> <CNNaffinity>
5.9472732544

> <CNN_VS>
1.3143740892

> <CNNaffinity_variance>
0.6278022528

$$$$
[H]O[C@]1([H])C([H])([H])C([H])([H])[C@@]([H])(n2c([H])c(-c3c([H])c([H])c(C([H])([H])N4C([H])([H])C([H])([H])N(C([H])([H])[H])C([H])([H])C([H])([H])C4([H])[H])c([H])c3[H])c3c([H])nc(N([H])[C@@]([H])(C([H])([H])[H])C([H])([H])C([H])([H])C([H])([H])[H])nc32)C([H])([H])C1([H])[H]


 39 43  0  0  0  0  0  0  0  0999 V2000
    4.1677    1.8313   20.2598 C   0  0  0  0  0  0  0  0  0  0  0  0
    3.8953    1.0408   19.2062 N   0  0  0  0  0  0  0  0  0  0  0  0
    3.6984    1.5103   17.9617 C   0  0  0  0  0  0  0  0  0  0  0  0
    3.7785    2.8711   17.7475 C   0  0  0  0  0  0  0  0  0  0  0  0
    3.6445    3.7064   16.6624 C   0  0  0  0  0  0  0  0  0  0  0  0
    3.8503    4.9850   17.1420 C   0  0  0  0  0  0  0  0  0  0  0  0
    4.1003    4.9423   18.4639 N   0  0  0  0  0  0  0  0  0  0  0  0
    4.0576    3.6659   18.8332 C   0  0  0  0  0  0  0  0  0  0  0  0
    4.2490    3.1589   20.0670 N   0  0  0  0  0  0  0  0  0  0  0  0
    4.3517    6.1546   19.2156 C   0  0  0  0  0  0  0  0  0  0  0  0
    5.7597    6.1332   19.6640 C   0  0  0  0  0  0  0  0  0  0  0  0
    6.4219    7.3920   19.9969 C   0  0  0  0  0  0  0  0  0  0  0  0
    5.7240    8.6619   19.6532 C   0  0  0  0  0  0  0  0  0  0  0  0
    5.9475    9.6502   20.6310 O   0  0  0  0  0  0  0  0  0  0  0  0
    4.2314    8.5304   19.5210 C   0  0  0  0  0  0  0  0  0  0  0  0
    3.9824    7.4009   18.5060 C   0  0  0  0  0  0  0  0  0  0  0  0
    6.5780    9.2628   21.2965 H   0  0  0  0  0  0  0  0  0  0  0  0
    3.3456    3.2896   15.2971 C   0  0  0  0  0  0  0  0  0  0  0  0
    2.6024    2.1732   15.0093 C   0  0  0  0  0  0  0  0  0  0  0  0
    2.3715    1.8574   13.6879 C   0  0  0  0  0  0  0  0  0  0  0  0
    2.8535    2.6125   12.6405 C   0  0  0  0  0  0  0  0  0  0  0  0
    3.5964    3.7275   12.9748 C   0  0  0  0  0  0  0  0  0  0  0  0
    3.8449    4.0703   14.2829 C   0  0  0  0  0  0  0  0  0  0  0  0
    2.6060    2.2711   11.2374 C   0  0  0  0  0  0  0  0  0  0  0  0
    1.2115    2.1164   11.0039 N   0  0  0  0  0  0  0  0  0  0  0  0
    0.8233    0.9802   10.2450 C   0  0  0  0  0  0  0  0  0  0  0  0
    0.7165    1.2317    8.7558 C   0  0  0  0  0  0  0  0  0  0  0  0
   -0.3966    2.1837    8.4795 C   0  0  0  0  0  0  0  0  0  0  0  0
    0.0485    3.5529    8.3357 N   0  0  0  0  0  0  0  0  0  0  0  0
    0.6879    3.7723    7.0542 C   0  0  0  0  0  0  0  0  0  0  0  0
    0.8821    3.9829    9.4299 C   0  0  0  0  0  0  0  0  0  0  0  0
    0.5168    3.3336   10.7363 C   0  0  0  0  0  0  0  0  0  0  0  0
    4.3632    1.2441   21.5465 N   0  0  0  0  0  0  0  0  0  0  0  0
    3.5982    0.6809   21.9434 H   0  0  0  0  0  0  0  0  0  0  0  0
    5.5840    1.4047   22.2911 C   0  0  0  0  0  0  0  0  0  0  0  0
    6.8379    1.1645   21.4822 C   0  0  0  0  0  0  0  0  0  0  0  0
    5.6622    2.6167   23.1474 C   0  0  0  0  0  0  0  0  0  0  0  0
    3.9834    4.4667   23.3089 C   0  0  0  0  0  0  0  0  0  0  0  0
    4.4003    3.0971   23.7553 C   0  0  0  0  0  0  0  0  0  0  0  0
 38 39  1  0  0  0
 39 37  1  0  0  0
 37 35  1  0  0  0
 35 36  1  0  0  0
 35 33  1  0  0  0
 33  1  1  0  0  0
  1  2  2  0  0  0
  2  3  1  0  0  0
  3  4  2  0  0  0
  4  5  1  0  0  0
  5  6  2  0  0  0
  6  7  1  0  0  0
  7 10  1  0  0  0
 10 11  1  0  0  0
 11 12  1  0  0  0
 12 13  1  0  0  0
 13 14  1  0  0  0
 13 15  1  0  0  0
 15 16  1  0  0  0
  7  8  1  0  0  0
  8  9  2  0  0  0
  5 18  1  0  0  0
 18 19  2  0  0  0
 19 20  1  0  0  0
 20 21  2  0  0  0
 21 24  1  0  0  0
 24 25  1  0  0  0
 25 26  1  0  0  0
 26 27  1  0  0  0
 27 28  1  0  0  0
 28 29  1  0  0  0
 29 30  1  0  0  0
 29 31  1  0  0  0
 31 32  1  0  0  0
 21 22  1  0  0  0
 22 23  2  0  0  0
  9  1  1  0  0  0
 23 18  1  0  0  0
  8  4  1  0  0  0
 32 25  1  0  0  0
 16 10  1  0  0  0
 33 34  1  0  0  0
 14 17  1  0  0  0
M  END
> <minimizedAffinity>
-8.59640

> <CNNscore>
0.3729247749

> <CNNaffinity>
6.9679565430

> <CNN_VS>
2.5985236168

> <CNNaffinity_variance>
0.3365270495

$$$$
[H]O[C@]1([H])C([H])([H])C([H])([H])[C@@]([H])(n2c([H])c(-c3c([H])c([H])c(C([H])([H])N4C([H])([H])C([H])([H])N(C([H])([H])[H])C([H])([H])C([H])([H])C4([H])[H])c([H])c3[H])c3c([H])nc(N([H])[C@@]([H])(C([H])([H])[H])C([H])([H])C([H])([H])C([H])([H])[H])nc32)C([H])([H])C1([H])[H]


 39 43  0  0  0  0  0  0  0  0999 V2000
    4.3389    2.0590   19.3624 C   0  0  0  0  0  0  0  0  0  0  0  0
    4.1907    1.3706   18.2163 N   0  0  0  0  0  0  0  0  0  0  0  0
    3.8597    1.9455   17.0468 C   0  0  0  0  0  0  0  0  0  0  0  0
    3.6605    3.3105   17.0133 C   0  0  0  0  0  0  0  0  0  0  0  0
    3.3244    4.2330   16.0494 C   0  0  0  0  0  0  0  0  0  0  0  0
    3.2898    5.4551   16.6917 C   0  0  0  0  0  0  0  0  0  0  0  0
    3.5909    5.2956   17.9938 N   0  0  0  0  0  0  0  0  0  0  0  0
    3.8156    4.0003   18.1917 C   0  0  0  0  0  0  0  0  0  0  0  0
    4.1483    3.3893   19.3458 N   0  0  0  0  0  0  0  0  0  0  0  0
    3.6241    6.4278   18.8965 C   0  0  0  0  0  0  0  0  0  0  0  0
    4.2639    5.9928   20.1556 C   0  0  0  0  0  0  0  0  0  0  0  0
    4.8698    6.9931   21.0310 C   0  0  0  0  0  0  0  0  0  0  0  0
    5.0186    8.3804   20.5102 C   0  0  0  0  0  0  0  0  0  0  0  0
    4.8124    9.3337   21.5258 O   0  0  0  0  0  0  0  0  0  0  0  0
    4.0623    8.7307   19.4033 C   0  0  0  0  0  0  0  0  0  0  0  0
    4.2334    7.6492   18.3220 C   0  0  0  0  0  0  0  0  0  0  0  0
    4.6707    8.8300   22.3724 H   0  0  0  0  0  0  0  0  0  0  0  0
    3.0648    3.9420   14.6441 C   0  0  0  0  0  0  0  0  0  0  0  0
    1.9613    3.2441   14.2238 C   0  0  0  0  0  0  0  0  0  0  0  0
    1.7997    3.0164   12.8742 C   0  0  0  0  0  0  0  0  0  0  0  0
    2.6971    3.4580   11.9259 C   0  0  0  0  0  0  0  0  0  0  0  0
    3.7935    4.1561   12.3923 C   0  0  0  0  0  0  0  0  0  0  0  0
    3.9841    4.4003   13.7318 C   0  0  0  0  0  0  0  0  0  0  0  0
    2.5209    3.2117   10.4924 C   0  0  0  0  0  0  0  0  0  0  0  0
    2.0438    4.3839    9.8435 N   0  0  0  0  0  0  0  0  0  0  0  0
    2.0347    5.5731   10.6202 C   0  0  0  0  0  0  0  0  0  0  0  0
    0.7314    5.8345   11.3452 C   0  0  0  0  0  0  0  0  0  0  0  0
   -0.3544    6.1003   10.3593 C   0  0  0  0  0  0  0  0  0  0  0  0
   -1.1488    4.9290   10.0584 N   0  0  0  0  0  0  0  0  0  0  0  0
   -2.0662    4.6178   11.1357 C   0  0  0  0  0  0  0  0  0  0  0  0
   -0.3428    3.7903    9.6964 C   0  0  0  0  0  0  0  0  0  0  0  0
    0.9252    4.1718    8.9835 C   0  0  0  0  0  0  0  0  0  0  0  0
    4.6934    1.3641   20.5583 N   0  0  0  0  0  0  0  0  0  0  0  0
    5.6907    1.1782   20.7331 H   0  0  0  0  0  0  0  0  0  0  0  0
    3.7134    0.9304   21.5185 C   0  0  0  0  0  0  0  0  0  0  0  0
    3.3940   -0.5454   21.4529 C   0  0  0  0  0  0  0  0  0  0  0  0
    3.9062    1.4271   22.9058 C   0  0  0  0  0  0  0  0  0  0  0  0
    3.6598    3.8900   23.2806 C   0  0  0  0  0  0  0  0  0  0  0  0
    4.5881    2.7315   23.0677 C   0  0  0  0  0  0  0  0  0  0  0  0
 38 39  1  0  0  0
 39 37  1  0  0  0
 37 35  1  0  0  0
 35 36  1  0  0  0
 35 33  1  0  0  0
 33  1  1  0  0  0
  1  2  2  0  0  0
  2  3  1  0  0  0
  3  4  2  0  0  0
  4  5  1  0  0  0
  5  6  2  0  0  0
  6  7  1  0  0  0
  7 10  1  0  0  0
 10 11  1  0  0  0
 11 12  1  0  0  0
 12 13  1  0  0  0
 13 14  1  0  0  0
 13 15  1  0  0  0
 15 16  1  0  0  0
  7  8  1  0  0  0
  8  9  2  0  0  0
  5 18  1  0  0  0
 18 19  2  0  0  0
 19 20  1  0  0  0
 20 21  2  0  0  0
 21 24  1  0  0  0
 24 25  1  0  0  0
 25 26  1  0  0  0
 26 27  1  0  0  0
 27 28  1  0  0  0
 28 29  1  0  0  0
 29 30  1  0  0  0
 29 31  1  0  0  0
 31 32  1  0  0  0
 21 22  1  0  0  0
 22 23  2  0  0  0
  9  1  1  0  0  0
 23 18  1  0  0  0
  8  4  1  0  0  0
 32 25  1  0  0  0
 16 10  1  0  0  0
 33 34  1  0  0  0
 14 17  1  0  0  0
M  END
> <minimizedAffinity>
-8.70741

> <CNNscore>
0.3674450815

> <CNNaffinity>
7.2043733597

> <CNN_VS>
2.6472115517

> <CNNaffinity_variance>
0.5754665136

$$$$
[H]O[C@]1([H])C([H])([H])C([H])([H])[C@@]([H])(n2c([H])c(-c3c([H])c([H])c(C([H])([H])N4C([H])([H])C([H])([H])N(C([H])([H])[H])C([H])([H])C([H])([H])C4([H])[H])c([H])c3[H])c3c([H])nc(N([H])[C@@]([H])(C([H])([H])[H])C([H])([H])C([H])([H])C([H])([H])[H])nc32)C([H])([H])C1([H])[H]


 39 43  0  0  0  0  0  0  0  0999 V2000
    3.9050    2.0804   18.1604 C   0  0  0  0  0  0  0  0  0  0  0  0
    3.8593    1.6713   16.8799 N   0  0  0  0  0  0  0  0  0  0  0  0
    3.7268    2.5129   15.8397 C   0  0  0  0  0  0  0  0  0  0  0  0
    3.6325    3.8663   16.0914 C   0  0  0  0  0  0  0  0  0  0  0  0
    3.4930    5.0022   15.3277 C   0  0  0  0  0  0  0  0  0  0  0  0
    3.4626    6.0560   16.2198 C   0  0  0  0  0  0  0  0  0  0  0  0
    3.5781    5.5927   17.4782 N   0  0  0  0  0  0  0  0  0  0  0  0
    3.6810    4.2693   17.4042 C   0  0  0  0  0  0  0  0  0  0  0  0
    3.8145    3.3957   18.4215 N   0  0  0  0  0  0  0  0  0  0  0  0
    3.5740    6.4967   18.6098 C   0  0  0  0  0  0  0  0  0  0  0  0
    3.9976    5.7381   19.8052 C   0  0  0  0  0  0  0  0  0  0  0  0
    4.5526    6.4588   20.9483 C   0  0  0  0  0  0  0  0  0  0  0  0
    4.8795    7.9013   20.7741 C   0  0  0  0  0  0  0  0  0  0  0  0
    4.6094    8.6330   21.9466 O   0  0  0  0  0  0  0  0  0  0  0  0
    4.1156    8.5789   19.6696 C   0  0  0  0  0  0  0  0  0  0  0  0
    4.3500    7.7405   18.4007 C   0  0  0  0  0  0  0  0  0  0  0  0
    4.3133    7.9786   22.6354 H   0  0  0  0  0  0  0  0  0  0  0  0
    3.3997    5.0457   13.8729 C   0  0  0  0  0  0  0  0  0  0  0  0
    4.2000    4.2880   13.0563 C   0  0  0  0  0  0  0  0  0  0  0  0
    4.0399    4.3958   11.6917 C   0  0  0  0  0  0  0  0  0  0  0  0
    3.1116    5.2311   11.1087 C   0  0  0  0  0  0  0  0  0  0  0  0
    2.3268    5.9756   11.9671 C   0  0  0  0  0  0  0  0  0  0  0  0
    2.4612    5.8913   13.3328 C   0  0  0  0  0  0  0  0  0  0  0  0
    2.9468    5.3427    9.6571 C   0  0  0  0  0  0  0  0  0  0  0  0
    4.1519    5.7997    9.0556 N   0  0  0  0  0  0  0  0  0  0  0  0
    4.4912    7.1603    9.2824 C   0  0  0  0  0  0  0  0  0  0  0  0
    3.9807    8.1151    8.2241 C   0  0  0  0  0  0  0  0  0  0  0  0
    4.6550    7.8404    6.9235 C   0  0  0  0  0  0  0  0  0  0  0  0
    3.8777    6.9900    6.0483 N   0  0  0  0  0  0  0  0  0  0  0  0
    2.7799    7.7142    5.4405 C   0  0  0  0  0  0  0  0  0  0  0  0
    3.4281    5.7860    6.7006 C   0  0  0  0  0  0  0  0  0  0  0  0
    4.3903    5.2899    7.7445 C   0  0  0  0  0  0  0  0  0  0  0  0
    4.0487    1.1142   19.2018 N   0  0  0  0  0  0  0  0  0  0  0  0
    3.9201    0.1213   18.9626 H   0  0  0  0  0  0  0  0  0  0  0  0
    4.3732    1.4802   20.5551 C   0  0  0  0  0  0  0  0  0  0  0  0
    3.4445    0.8945   21.5937 C   0  0  0  0  0  0  0  0  0  0  0  0
    5.8084    1.3734   20.9254 C   0  0  0  0  0  0  0  0  0  0  0  0
    6.3401    3.3529   22.3626 C   0  0  0  0  0  0  0  0  0  0  0  0
    6.1982    1.8630   22.2673 C   0  0  0  0  0  0  0  0  0  0  0  0
 38 39  1  0  0  0
 39 37  1  0  0  0
 37 35  1  0  0  0
 35 36  1  0  0  0
 35 33  1  0  0  0
 33  1  1  0  0  0
  1  2  2  0  0  0
  2  3  1  0  0  0
  3  4  2  0  0  0
  4  5  1  0  0  0
  5  6  2  0  0  0
  6  7  1  0  0  0
  7 10  1  0  0  0
 10 11  1  0  0  0
 11 12  1  0  0  0
 12 13  1  0  0  0
 13 14  1  0  0  0
 13 15  1  0  0  0
 15 16  1  0  0  0
  7  8  1  0  0  0
  8  9  2  0  0  0
  5 18  1  0  0  0
 18 19  2  0  0  0
 19 20  1  0  0  0
 20 21  2  0  0  0
 21 24  1  0  0  0
 24 25  1  0  0  0
 25 26  1  0  0  0
 26 27  1  0  0  0
 27 28  1  0  0  0
 28 29  1  0  0  0
 29 30  1  0  0  0
 29 31  1  0  0  0
 31 32  1  0  0  0
 21 22  1  0  0  0
 22 23  2  0  0  0
  9  1  1  0  0  0
 23 18  1  0  0  0
  8  4  1  0  0  0
 32 25  1  0  0  0
 16 10  1  0  0  0
 33 34  1  0  0  0
 14 17  1  0  0  0
M  END
> <minimizedAffinity>
-8.34533

> <CNNscore>
0.3254488707

> <CNNaffinity>
6.7399749756

> <CNN_VS>
2.1935172081

> <CNNaffinity_variance>
0.5781512260

$$$$
[H]O[C@]1([H])C([H])([H])C([H])([H])[C@@]([H])(n2c([H])c(-c3c([H])c([H])c(C([H])([H])N4C([H])([H])C([H])([H])N(C([H])([H])[H])C([H])([H])C([H])([H])C4([H])[H])c([H])c3[H])c3c([H])nc(N([H])[C@@]([H])(C([H])([H])[H])C([H])([H])C([H])([H])C([H])([H])[H])nc32)C([H])([H])C1([H])[H]


 39 43  0  0  0  0  0  0  0  0999 V2000
    4.3918    2.1558   19.3833 C   0  0  0  0  0  0  0  0  0  0  0  0
    3.8717    1.6708   18.2417 N   0  0  0  0  0  0  0  0  0  0  0  0
    3.5921    2.4373   17.1729 C   0  0  0  0  0  0  0  0  0  0  0  0
    3.8495    3.7911   17.2442 C   0  0  0  0  0  0  0  0  0  0  0  0
    3.7072    4.8661   16.3973 C   0  0  0  0  0  0  0  0  0  0  0  0
    4.1632    5.9639   17.1001 C   0  0  0  0  0  0  0  0  0  0  0  0
    4.5691    5.5849   18.3262 N   0  0  0  0  0  0  0  0  0  0  0  0
    4.3808    4.2720   18.4166 C   0  0  0  0  0  0  0  0  0  0  0  0
    4.6480    3.4724   19.4679 N   0  0  0  0  0  0  0  0  0  0  0  0
    5.0943    6.5499   19.2701 C   0  0  0  0  0  0  0  0  0  0  0  0
    4.9600    7.8955   18.6739 C   0  0  0  0  0  0  0  0  0  0  0  0
    4.9378    9.0649   19.5491 C   0  0  0  0  0  0  0  0  0  0  0  0
    4.8219    8.8384   21.0165 C   0  0  0  0  0  0  0  0  0  0  0  0
    5.5786    9.7792   21.7414 O   0  0  0  0  0  0  0  0  0  0  0  0
    5.2885    7.4826   21.4711 C   0  0  0  0  0  0  0  0  0  0  0  0
    4.5156    6.4518   20.6297 C   0  0  0  0  0  0  0  0  0  0  0  0
    5.9670   10.4120   21.0787 H   0  0  0  0  0  0  0  0  0  0  0  0
    3.1781    4.8175   15.0390 C   0  0  0  0  0  0  0  0  0  0  0  0
    3.8195    4.1652   14.0171 C   0  0  0  0  0  0  0  0  0  0  0  0
    3.2434    4.1734   12.7652 C   0  0  0  0  0  0  0  0  0  0  0  0
    2.0508    4.8079   12.4921 C   0  0  0  0  0  0  0  0  0  0  0  0
    1.4388    5.4521   13.5491 C   0  0  0  0  0  0  0  0  0  0  0  0
    1.9870    5.4627   14.8100 C   0  0  0  0  0  0  0  0  0  0  0  0
    1.4436    4.8145   11.1587 C   0  0  0  0  0  0  0  0  0  0  0  0
    1.2263    6.1499   10.7201 N   0  0  0  0  0  0  0  0  0  0  0  0
   -0.0328    6.4174   10.1195 C   0  0  0  0  0  0  0  0  0  0  0  0
   -0.0509    6.2625    8.6134 C   0  0  0  0  0  0  0  0  0  0  0  0
    0.8180    7.2980    7.9854 C   0  0  0  0  0  0  0  0  0  0  0  0
    2.1474    6.8158    7.6797 N   0  0  0  0  0  0  0  0  0  0  0  0
    2.1473    5.9623    6.5090 C   0  0  0  0  0  0  0  0  0  0  0  0
    2.7786    6.1772    8.8071 C   0  0  0  0  0  0  0  0  0  0  0  0
    2.3647    6.7711   10.1253 C   0  0  0  0  0  0  0  0  0  0  0  0
    4.6574    1.2659   20.4679 N   0  0  0  0  0  0  0  0  0  0  0  0
    5.6359    1.0037   20.6510 H   0  0  0  0  0  0  0  0  0  0  0  0
    3.6144    0.7394   21.3078 C   0  0  0  0  0  0  0  0  0  0  0  0
    3.4632   -0.7628   21.2380 C   0  0  0  0  0  0  0  0  0  0  0  0
    3.5757    1.2684   22.6960 C   0  0  0  0  0  0  0  0  0  0  0  0
    4.1591    3.5877   23.4358 C   0  0  0  0  0  0  0  0  0  0  0  0
    4.6465    2.2125   23.0893 C   0  0  0  0  0  0  0  0  0  0  0  0
 38 39  1  0  0  0
 39 37  1  0  0  0
 37 35  1  0  0  0
 35 36  1  0  0  0
 35 33  1  0  0  0
 33  1  1  0  0  0
  1  2  2  0  0  0
  2  3  1  0  0  0
  3  4  2  0  0  0
  4  5  1  0  0  0
  5  6  2  0  0  0
  6  7  1  0  0  0
  7 10  1  0  0  0
 10 11  1  0  0  0
 11 12  1  0  0  0
 12 13  1  0  0  0
 13 14  1  0  0  0
 13 15  1  0  0  0
 15 16  1  0  0  0
  7  8  1  0  0  0
  8  9  2  0  0  0
  5 18  1  0  0  0
 18 19  2  0  0  0
 19 20  1  0  0  0
 20 21  2  0  0  0
 21 24  1  0  0  0
 24 25  1  0  0  0
 25 26  1  0  0  0
 26 27  1  0  0  0
 27 28  1  0  0  0
 28 29  1  0  0  0
 29 30  1  0  0  0
 29 31  1  0  0  0
 31 32  1  0  0  0
 21 22  1  0  0  0
 22 23  2  0  0  0
  9  1  1  0  0  0
 23 18  1  0  0  0
  8  4  1  0  0  0
 32 25  1  0  0  0
 16 10  1  0  0  0
 33 34  1  0  0  0
 14 17  1  0  0  0
M  END
> <minimizedAffinity>
-8.11491

> <CNNscore>
0.2897226810

> <CNNaffinity>
6.9390501976

> <CNN_VS>
2.0104002953

> <CNNaffinity_variance>
0.6437509060

$$$$
[H]O[C@]1([H])C([H])([H])C([H])([H])[C@@]([H])(n2c([H])c(-c3c([H])c([H])c(C([H])([H])N4C([H])([H])C([H])([H])N(C([H])([H])[H])C([H])([H])C([H])([H])C4([H])[H])c([H])c3[H])c3c([H])nc(N([H])[C@@]([H])(C([H])([H])[H])C([H])([H])C([H])([H])C([H])([H])[H])nc32)C([H])([H])C1([H])[H]


 39 43  0  0  0  0  0  0  0  0999 V2000
    4.0395    2.1517   18.5234 C   0  0  0  0  0  0  0  0  0  0  0  0
    3.4953    1.8750   17.3248 N   0  0  0  0  0  0  0  0  0  0  0  0
    3.2005    2.8173   16.4121 C   0  0  0  0  0  0  0  0  0  0  0  0
    3.4673    4.1371   16.7137 C   0  0  0  0  0  0  0  0  0  0  0  0
    3.3156    5.3439   16.0705 C   0  0  0  0  0  0  0  0  0  0  0  0
    3.7913    6.3008   16.9453 C   0  0  0  0  0  0  0  0  0  0  0  0
    4.2177    5.7123   18.0783 N   0  0  0  0  0  0  0  0  0  0  0  0
    4.0233    4.4043   17.9416 C   0  0  0  0  0  0  0  0  0  0  0  0
    4.3052    3.4326   18.8317 N   0  0  0  0  0  0  0  0  0  0  0  0
    4.7662    6.4961   19.1658 C   0  0  0  0  0  0  0  0  0  0  0  0
    6.2401    6.4401   19.0744 C   0  0  0  0  0  0  0  0  0  0  0  0
    7.0346    7.4940   19.7007 C   0  0  0  0  0  0  0  0  0  0  0  0
    6.3221    8.6994   20.2079 C   0  0  0  0  0  0  0  0  0  0  0  0
    6.9105    9.1816   21.3929 O   0  0  0  0  0  0  0  0  0  0  0  0
    4.8688    8.4716   20.5219 C   0  0  0  0  0  0  0  0  0  0  0  0
    4.2372    7.8767   19.2510 C   0  0  0  0  0  0  0  0  0  0  0  0
    7.7104    8.6167   21.5705 H   0  0  0  0  0  0  0  0  0  0  0  0
    2.7611    5.5349   14.7352 C   0  0  0  0  0  0  0  0  0  0  0  0
    3.5130    5.4056   13.5953 C   0  0  0  0  0  0  0  0  0  0  0  0
    2.9022    5.6054   12.3762 C   0  0  0  0  0  0  0  0  0  0  0  0
    1.5687    5.9296   12.2491 C   0  0  0  0  0  0  0  0  0  0  0  0
    0.8488    6.0497   13.4214 C   0  0  0  0  0  0  0  0  0  0  0  0
    1.4280    5.8569   14.6534 C   0  0  0  0  0  0  0  0  0  0  0  0
    0.9249    6.1422   10.9503 C   0  0  0  0  0  0  0  0  0  0  0  0
   -0.1897    5.2713   10.8016 N   0  0  0  0  0  0  0  0  0  0  0  0
    0.1024    3.9376   10.4098 C   0  0  0  0  0  0  0  0  0  0  0  0
    0.0722    3.7061    8.9139 C   0  0  0  0  0  0  0  0  0  0  0  0
   -1.3157    3.8829    8.3999 C   0  0  0  0  0  0  0  0  0  0  0  0
   -1.5581    5.2028    7.8590 N   0  0  0  0  0  0  0  0  0  0  0  0
   -0.9476    5.3633    6.5550 C   0  0  0  0  0  0  0  0  0  0  0  0
   -1.1683    6.2536    8.7651 C   0  0  0  0  0  0  0  0  0  0  0  0
   -1.3392    5.8755   10.2106 C   0  0  0  0  0  0  0  0  0  0  0  0
    4.3200    1.0852   19.4304 N   0  0  0  0  0  0  0  0  0  0  0  0
    4.5588    0.1645   19.0368 H   0  0  0  0  0  0  0  0  0  0  0  0
    4.2895    1.2583   20.8586 C   0  0  0  0  0  0  0  0  0  0  0  0
    3.0963    0.6217   21.5333 C   0  0  0  0  0  0  0  0  0  0  0  0
    5.5701    1.0000   21.5669 C   0  0  0  0  0  0  0  0  0  0  0  0
    5.7658    3.4187   22.1819 C   0  0  0  0  0  0  0  0  0  0  0  0
    6.4695    2.1568   21.7801 C   0  0  0  0  0  0  0  0  0  0  0  0
 38 39  1  0  0  0
 39 37  1  0  0  0
 37 35  1  0  0  0
 35 36  1  0  0  0
 35 33  1  0  0  0
 33  1  1  0  0  0
  1  2  2  0  0  0
  2  3  1  0  0  0
  3  4  2  0  0  0
  4  5  1  0  0  0
  5  6  2  0  0  0
  6  7  1  0  0  0
  7 10  1  0  0  0
 10 11  1  0  0  0
 11 12  1  0  0  0
 12 13  1  0  0  0
 13 14  1  0  0  0
 13 15  1  0  0  0
 15 16  1  0  0  0
  7  8  1  0  0  0
  8  9  2  0  0  0
  5 18  1  0  0  0
 18 19  2  0  0  0
 19 20  1  0  0  0
 20 21  2  0  0  0
 21 24  1  0  0  0
 24 25  1  0  0  0
 25 26  1  0  0  0
 26 27  1  0  0  0
 27 28  1  0  0  0
 28 29  1  0  0  0
 29 30  1  0  0  0
 29 31  1  0  0  0
 31 32  1  0  0  0
 21 22  1  0  0  0
 22 23  2  0  0  0
  9  1  1  0  0  0
 23 18  1  0  0  0
  8  4  1  0  0  0
 32 25  1  0  0  0
 16 10  1  0  0  0
 33 34  1  0  0  0
 14 17  1  0  0  0
M  END
> <minimizedAffinity>
-7.42058

> <CNNscore>
0.2349227965

> <CNNaffinity>
6.6789350510

> <CNN_VS>
1.5690340996

> <CNNaffinity_variance>
0.4293754101

$$$$
[H]O[C@]1([H])C([H])([H])C([H])([H])[C@@]([H])(n2c([H])c(-c3c([H])c([H])c(C([H])([H])N4C([H])([H])C([H])([H])N(C([H])([H])[H])C([H])([H])C([H])([H])C4([H])[H])c([H])c3[H])c3c([H])nc(N([H])[C@@]([H])(C([H])([H])[H])C([H])([H])C([H])([H])C([H])([H])[H])nc32)C([H])([H])C1([H])[H]


 39 43  0  0  0  0  0  0  0  0999 V2000
    4.6549    2.3981   19.3179 C   0  0  0  0  0  0  0  0  0  0  0  0
    4.3516    1.5267   18.3392 N   0  0  0  0  0  0  0  0  0  0  0  0
    4.0602    1.9008   17.0810 C   0  0  0  0  0  0  0  0  0  0  0  0
    4.0711    3.2454   16.7712 C   0  0  0  0  0  0  0  0  0  0  0  0
    3.8372    3.9976   15.6431 C   0  0  0  0  0  0  0  0  0  0  0  0
    4.0191    5.3132   16.0217 C   0  0  0  0  0  0  0  0  0  0  0  0
    4.3506    5.3719   17.3249 N   0  0  0  0  0  0  0  0  0  0  0  0
    4.3829    4.1236   17.7811 C   0  0  0  0  0  0  0  0  0  0  0  0
    4.6697    3.7111   19.0315 N   0  0  0  0  0  0  0  0  0  0  0  0
    4.5973    6.6420   17.9759 C   0  0  0  0  0  0  0  0  0  0  0  0
    4.4535    7.7113   16.9661 C   0  0  0  0  0  0  0  0  0  0  0  0
    4.1589    9.0730   17.4055 C   0  0  0  0  0  0  0  0  0  0  0  0
    3.7908    9.2832   18.8332 C   0  0  0  0  0  0  0  0  0  0  0  0
    4.3073   10.4987   19.3217 O   0  0  0  0  0  0  0  0  0  0  0  0
    4.2871    8.2105   19.7635 C   0  0  0  0  0  0  0  0  0  0  0  0
    3.7850    6.8728   19.1925 C   0  0  0  0  0  0  0  0  0  0  0  0
    4.7530   10.9532   18.5567 H   0  0  0  0  0  0  0  0  0  0  0  0
    3.4730    3.4761   14.3307 C   0  0  0  0  0  0  0  0  0  0  0  0
    2.6523    2.3893   14.1671 C   0  0  0  0  0  0  0  0  0  0  0  0
    2.3637    1.9677   12.8871 C   0  0  0  0  0  0  0  0  0  0  0  0
    2.8625    2.5883   11.7622 C   0  0  0  0  0  0  0  0  0  0  0  0
    3.6842    3.6781   11.9722 C   0  0  0  0  0  0  0  0  0  0  0  0
    3.9917    4.1241   13.2359 C   0  0  0  0  0  0  0  0  0  0  0  0
    2.5533    2.1347   10.4038 C   0  0  0  0  0  0  0  0  0  0  0  0
    3.7104    1.5780    9.7922 N   0  0  0  0  0  0  0  0  0  0  0  0
    4.1370    2.1875    8.5821 C   0  0  0  0  0  0  0  0  0  0  0  0
    3.5665    1.5549    7.3304 C   0  0  0  0  0  0  0  0  0  0  0  0
    4.0886    0.1670    7.1789 C   0  0  0  0  0  0  0  0  0  0  0  0
    3.1847   -0.8398    7.6914 N   0  0  0  0  0  0  0  0  0  0  0  0
    2.0663   -1.0556    6.7959 C   0  0  0  0  0  0  0  0  0  0  0  0
    2.7472   -0.5597    9.0357 C   0  0  0  0  0  0  0  0  0  0  0  0
    3.7870    0.1546    9.8544 C   0  0  0  0  0  0  0  0  0  0  0  0
    4.9523    1.9094   20.6261 N   0  0  0  0  0  0  0  0  0  0  0  0
    5.8802    1.4944   20.7890 H   0  0  0  0  0  0  0  0  0  0  0  0
    4.0112    1.9875   21.7118 C   0  0  0  0  0  0  0  0  0  0  0  0
    3.3304    0.6775   22.0355 C   0  0  0  0  0  0  0  0  0  0  0  0
    4.4778    2.7193   22.9182 C   0  0  0  0  0  0  0  0  0  0  0  0
    4.0482    5.1379   22.4361 C   0  0  0  0  0  0  0  0  0  0  0  0
    3.7381    3.9463   23.2922 C   0  0  0  0  0  0  0  0  0  0  0  0
 38 39  1  0  0  0
 39 37  1  0  0  0
 37 35  1  0  0  0
 35 36  1  0  0  0
 35 33  1  0  0  0
 33  1  1  0  0  0
  1  2  2  0  0  0
  2  3  1  0  0  0
  3  4  2  0  0  0
  4  5  1  0  0  0
  5  6  2  0  0  0
  6  7  1  0  0  0
  7 10  1  0  0  0
 10 11  1  0  0  0
 11 12  1  0  0  0
 12 13  1  0  0  0
 13 14  1  0  0  0
 13 15  1  0  0  0
 15 16  1  0  0  0
  7  8  1  0  0  0
  8  9  2  0  0  0
  5 18  1  0  0  0
 18 19  2  0  0  0
 19 20  1  0  0  0
 20 21  2  0  0  0
 21 24  1  0  0  0
 24 25  1  0  0  0
 25 26  1  0  0  0
 26 27  1  0  0  0
 27 28  1  0  0  0
 28 29  1  0  0  0
 29 30  1  0  0  0
 29 31  1  0  0  0
 31 32  1  0  0  0
 21 22  1  0  0  0
 22 23  2  0  0  0
  9  1  1  0  0  0
 23 18  1  0  0  0
  8  4  1  0  0  0
 32 25  1  0  0  0
 16 10  1  0  0  0
 33 34  1  0  0  0
 14 17  1  0  0  0
M  END
> <minimizedAffinity>
-8.61815

> <CNNscore>
0.2075569183

> <CNNaffinity>
6.8105888367

> <CNN_VS>
1.4135848284

> <CNNaffinity_variance>
0.4251150489

$$$$
[H]O[C@]1([H])C([H])([H])C([H])([H])[C@@]([H])(n2c([H])c(-c3c([H])c([H])c(C([H])([H])N4C([H])([H])C([H])([H])N(C([H])([H])[H])C([H])([H])C([H])([H])C4([H])[H])c([H])c3[H])c3c([H])nc(N([H])[C@@]([H])(C([H])([H])[H])C([H])([H])C([H])([H])C([H])([H])[H])nc32)C([H])([H])C1([H])[H]


 39 43  0  0  0  0  0  0  0  0999 V2000
   -0.0041    4.1326   11.9130 C   0  0  0  0  0  0  0  0  0  0  0  0
    0.5649    4.5573   10.7706 N   0  0  0  0  0  0  0  0  0  0  0  0
    1.8945    4.6698   10.6048 C   0  0  0  0  0  0  0  0  0  0  0  0
    2.7232    4.3340   11.6558 C   0  0  0  0  0  0  0  0  0  0  0  0
    4.0820    4.3141   11.8704 C   0  0  0  0  0  0  0  0  0  0  0  0
    4.2536    3.8658   13.1654 C   0  0  0  0  0  0  0  0  0  0  0  0
    3.0550    3.6196   13.7261 N   0  0  0  0  0  0  0  0  0  0  0  0
    2.1276    3.9016   12.8163 C   0  0  0  0  0  0  0  0  0  0  0  0
    0.7900    3.8017   12.9457 N   0  0  0  0  0  0  0  0  0  0  0  0
    2.9529    3.1373   15.0880 C   0  0  0  0  0  0  0  0  0  0  0  0
    2.7308    1.6769   15.0426 C   0  0  0  0  0  0  0  0  0  0  0  0
    3.0755    0.8660   16.2078 C   0  0  0  0  0  0  0  0  0  0  0  0
    3.8468    1.5117   17.3060 C   0  0  0  0  0  0  0  0  0  0  0  0
    3.4417    1.0327   18.5668 O   0  0  0  0  0  0  0  0  0  0  0  0
    3.7096    3.0086   17.3603 C   0  0  0  0  0  0  0  0  0  0  0  0
    4.0823    3.5306   15.9615 C   0  0  0  0  0  0  0  0  0  0  0  0
    2.7633    0.3231   18.4035 H   0  0  0  0  0  0  0  0  0  0  0  0
    5.1040    4.6960   10.9026 C   0  0  0  0  0  0  0  0  0  0  0  0
    5.5781    5.9784   10.7930 C   0  0  0  0  0  0  0  0  0  0  0  0
    6.5449    6.2455    9.8478 C   0  0  0  0  0  0  0  0  0  0  0  0
    7.0580    5.2823    9.0062 C   0  0  0  0  0  0  0  0  0  0  0  0
    6.5531    4.0051    9.1503 C   0  0  0  0  0  0  0  0  0  0  0  0
    5.5886    3.7054   10.0831 C   0  0  0  0  0  0  0  0  0  0  0  0
    8.0849    5.5724    8.0022 C   0  0  0  0  0  0  0  0  0  0  0  0
    7.6332    5.1931    6.7080 N   0  0  0  0  0  0  0  0  0  0  0  0
    8.6333    4.7715    5.7916 C   0  0  0  0  0  0  0  0  0  0  0  0
    9.1872    5.8787    4.9201 C   0  0  0  0  0  0  0  0  0  0  0  0
    8.1246    6.3867    4.0067 C   0  0  0  0  0  0  0  0  0  0  0  0
    7.4637    7.5726    4.5069 N   0  0  0  0  0  0  0  0  0  0  0  0
    8.2960    8.7488    4.3556 C   0  0  0  0  0  0  0  0  0  0  0  0
    6.9976    7.4179    5.8619 C   0  0  0  0  0  0  0  0  0  0  0  0
    6.5859    6.0077    6.1834 C   0  0  0  0  0  0  0  0  0  0  0  0
   -1.4266    4.0436   11.9984 N   0  0  0  0  0  0  0  0  0  0  0  0
   -1.8365    3.1730   12.3641 H   0  0  0  0  0  0  0  0  0  0  0  0
   -2.2927    5.1229   11.6040 C   0  0  0  0  0  0  0  0  0  0  0  0
   -3.6030    4.6747   10.9987 C   0  0  0  0  0  0  0  0  0  0  0  0
   -2.4495    6.2190   12.5952 C   0  0  0  0  0  0  0  0  0  0  0  0
   -0.7323    6.8118   14.3176 C   0  0  0  0  0  0  0  0  0  0  0  0
   -1.2426    7.0123   12.9218 C   0  0  0  0  0  0  0  0  0  0  0  0
 38 39  1  0  0  0
 39 37  1  0  0  0
 37 35  1  0  0  0
 35 36  1  0  0  0
 35 33  1  0  0  0
 33  1  1  0  0  0
  1  2  2  0  0  0
  2  3  1  0  0  0
  3  4  2  0  0  0
  4  5  1  0  0  0
  5  6  2  0  0  0
  6  7  1  0  0  0
  7 10  1  0  0  0
 10 11  1  0  0  0
 11 12  1  0  0  0
 12 13  1  0  0  0
 13 14  1  0  0  0
 13 15  1  0  0  0
 15 16  1  0  0  0
  7  8  1  0  0  0
  8  9  2  0  0  0
  5 18  1  0  0  0
 18 19  2  0  0  0
 19 20  1  0  0  0
 20 21  2  0  0  0
 21 24  1  0  0  0
 24 25  1  0  0  0
 25 26  1  0  0  0
 26 27  1  0  0  0
 27 28  1  0  0  0
 28 29  1  0  0  0
 29 30  1  0  0  0
 29 31  1  0  0  0
 31 32  1  0  0  0
 21 22  1  0  0  0
 22 23  2  0  0  0
  9  1  1  0  0  0
 23 18  1  0  0  0
  8  4  1  0  0  0
 32 25  1  0  0  0
 16 10  1  0  0  0
 33 34  1  0  0  0
 14 17  1  0  0  0
M  END
> <minimizedAffinity>
-6.76299

> <CNNscore>
0.1996564865

> <CNNaffinity>
5.8898549080

> <CNN_VS>
1.1759477854

> <CNNaffinity_variance>
0.1228724346

$$$$
[H]O[C@]1([H])C([H])([H])C([H])([H])[C@@]([H])(n2c([H])c(-c3c([H])c([H])c(C([H])([H])N4C([H])([H])C([H])([H])N(C([H])([H])[H])C([H])([H])C([H])([H])C4([H])[H])c([H])c3[H])c3c([H])nc(N([H])[C@@]([H])(C([H])([H])[H])C([H])([H])C([H])([H])C([H])([H])[H])nc32)C([H])([H])C1([H])[H]


 39 43  0  0  0  0  0  0  0  0999 V2000
   -0.9949    4.5316   11.5879 C   0  0  0  0  0  0  0  0  0  0  0  0
   -0.5882    4.9748   10.3849 N   0  0  0  0  0  0  0  0  0  0  0  0
    0.7060    5.1150   10.0480 C   0  0  0  0  0  0  0  0  0  0  0  0
    1.6711    4.7894   10.9790 C   0  0  0  0  0  0  0  0  0  0  0  0
    3.0465    4.7955   11.0144 C   0  0  0  0  0  0  0  0  0  0  0  0
    3.3942    4.3427   12.2719 C   0  0  0  0  0  0  0  0  0  0  0  0
    2.2840    4.0691   12.9820 N   0  0  0  0  0  0  0  0  0  0  0  0
    1.2405    4.3380   12.2034 C   0  0  0  0  0  0  0  0  0  0  0  0
   -0.0666    4.2104   12.5053 N   0  0  0  0  0  0  0  0  0  0  0  0
    2.3699    3.5763   14.3413 C   0  0  0  0  0  0  0  0  0  0  0  0
    2.3084    2.1004   14.2995 C   0  0  0  0  0  0  0  0  0  0  0  0
    2.8535    1.3315   15.4156 C   0  0  0  0  0  0  0  0  0  0  0  0
    3.6518    2.0579   16.4419 C   0  0  0  0  0  0  0  0  0  0  0  0
    3.4277    1.5347   17.7299 O   0  0  0  0  0  0  0  0  0  0  0  0
    3.3546    3.5299   16.5277 C   0  0  0  0  0  0  0  0  0  0  0  0
    3.5283    4.0924   15.1060 C   0  0  0  0  0  0  0  0  0  0  0  0
    2.8199    0.7537   17.6244 H   0  0  0  0  0  0  0  0  0  0  0  0
    3.9258    5.2039    9.9249 C   0  0  0  0  0  0  0  0  0  0  0  0
    4.1362    4.4292    8.8127 C   0  0  0  0  0  0  0  0  0  0  0  0
    4.9855    4.8978    7.8337 C   0  0  0  0  0  0  0  0  0  0  0  0
    5.6344    6.1106    7.9207 C   0  0  0  0  0  0  0  0  0  0  0  0
    5.3943    6.8584    9.0565 C   0  0  0  0  0  0  0  0  0  0  0  0
    4.5528    6.4198   10.0515 C   0  0  0  0  0  0  0  0  0  0  0  0
    6.5374    6.6031    6.8773 C   0  0  0  0  0  0  0  0  0  0  0  0
    5.8029    6.9494    5.7096 N   0  0  0  0  0  0  0  0  0  0  0  0
    6.1916    6.3013    4.5070 C   0  0  0  0  0  0  0  0  0  0  0  0
    7.2190    7.0600    3.6937 C   0  0  0  0  0  0  0  0  0  0  0  0
    6.6274    8.3295    3.1840 C   0  0  0  0  0  0  0  0  0  0  0  0
    6.9361    9.4742    4.0134 N   0  0  0  0  0  0  0  0  0  0  0  0
    8.3023    9.9167    3.8216 C   0  0  0  0  0  0  0  0  0  0  0  0
    6.6378    9.2473    5.4051 C   0  0  0  0  0  0  0  0  0  0  0  0
    5.4628    8.3316    5.6116 C   0  0  0  0  0  0  0  0  0  0  0  0
   -2.3921    4.4135   11.8574 N   0  0  0  0  0  0  0  0  0  0  0  0
   -2.6884    4.2943   12.8360 H   0  0  0  0  0  0  0  0  0  0  0  0
   -3.3859    4.4655   10.8180 C   0  0  0  0  0  0  0  0  0  0  0  0
   -4.5642    3.5461   11.0426 C   0  0  0  0  0  0  0  0  0  0  0  0
   -3.7813    5.8267   10.3716 C   0  0  0  0  0  0  0  0  0  0  0  0
   -5.5437    7.1026    9.1337 C   0  0  0  0  0  0  0  0  0  0  0  0
   -5.2279    6.0838   10.1878 C   0  0  0  0  0  0  0  0  0  0  0  0
 38 39  1  0  0  0
 39 37  1  0  0  0
 37 35  1  0  0  0
 35 36  1  0  0  0
 35 33  1  0  0  0
 33  1  1  0  0  0
  1  2  2  0  0  0
  2  3  1  0  0  0
  3  4  2  0  0  0
  4  5  1  0  0  0
  5  6  2  0  0  0
  6  7  1  0  0  0
  7 10  1  0  0  0
 10 11  1  0  0  0
 11 12  1  0  0  0
 12 13  1  0  0  0
 13 14  1  0  0  0
 13 15  1  0  0  0
 15 16  1  0  0  0
  7  8  1  0  0  0
  8  9  2  0  0  0
  5 18  1  0  0  0
 18 19  2  0  0  0
 19 20  1  0  0  0
 20 21  2  0  0  0
 21 24  1  0  0  0
 24 25  1  0  0  0
 25 26  1  0  0  0
 26 27  1  0  0  0
 27 28  1  0  0  0
 28 29  1  0  0  0
 29 30  1  0  0  0
 29 31  1  0  0  0
 31 32  1  0  0  0
 21 22  1  0  0  0
 22 23  2  0  0  0
  9  1  1  0  0  0
 23 18  1  0  0  0
  8  4  1  0  0  0
 32 25  1  0  0  0
 16 10  1  0  0  0
 33 34  1  0  0  0
 14 17  1  0  0  0
M  END
> <minimizedAffinity>
-6.74275

> <CNNscore>
0.1786470711

> <CNNaffinity>
5.8926510811

> <CNN_VS>
1.0527048111

> <CNNaffinity_variance>
0.0537150279

$$$$
[H]O[C@]1([H])C([H])([H])C([H])([H])[C@@]([H])(n2c([H])c(-c3c([H])c([H])c(C([H])([H])N4C([H])([H])C([H])([H])N(C([H])([H])[H])C([H])([H])C([H])([H])C4([H])[H])c([H])c3[H])c3c([H])nc(N([H])[C@@]([H])(C([H])([H])[H])C([H])([H])C([H])([H])C([H])([H])[H])nc32)C([H])([H])C1([H])[H]


 39 43  0  0  0  0  0  0  0  0999 V2000
    4.4512    2.4782   19.4641 C   0  0  0  0  0  0  0  0  0  0  0  0
    3.9306    1.8913   18.3715 N   0  0  0  0  0  0  0  0  0  0  0  0
    3.6310    2.5614   17.2449 C   0  0  0  0  0  0  0  0  0  0  0  0
    3.8671    3.9202   17.2005 C   0  0  0  0  0  0  0  0  0  0  0  0
    3.7013    4.9182   16.2680 C   0  0  0  0  0  0  0  0  0  0  0  0
    4.1448    6.0779   16.8727 C   0  0  0  0  0  0  0  0  0  0  0  0
    4.5657    5.8091   18.1226 N   0  0  0  0  0  0  0  0  0  0  0  0
    4.3992    4.5057   18.3241 C   0  0  0  0  0  0  0  0  0  0  0  0
    4.6869    3.8011   19.4362 N   0  0  0  0  0  0  0  0  0  0  0  0
    5.0822    6.8577   18.9779 C   0  0  0  0  0  0  0  0  0  0  0  0
    4.7497    8.1589   18.3613 C   0  0  0  0  0  0  0  0  0  0  0  0
    4.6965    9.3535   19.2004 C   0  0  0  0  0  0  0  0  0  0  0  0
    4.7552    9.1740   20.6777 C   0  0  0  0  0  0  0  0  0  0  0  0
    5.4808   10.2130   21.2916 O   0  0  0  0  0  0  0  0  0  0  0  0
    5.4030    7.8902   21.1188 C   0  0  0  0  0  0  0  0  0  0  0  0
    4.6587    6.7555   20.3933 C   0  0  0  0  0  0  0  0  0  0  0  0
    5.7321   10.8550   20.5739 H   0  0  0  0  0  0  0  0  0  0  0  0
    3.1632    4.7480   14.9232 C   0  0  0  0  0  0  0  0  0  0  0  0
    1.9210    5.2020   14.5595 C   0  0  0  0  0  0  0  0  0  0  0  0
    1.4964    4.9950   13.2648 C   0  0  0  0  0  0  0  0  0  0  0  0
    2.2632    4.3519   12.3172 C   0  0  0  0  0  0  0  0  0  0  0  0
    3.5065    3.9112   12.7255 C   0  0  0  0  0  0  0  0  0  0  0  0
    3.9600    4.1018   14.0094 C   0  0  0  0  0  0  0  0  0  0  0  0
    1.8058    4.1335   10.9425 C   0  0  0  0  0  0  0  0  0  0  0  0
    0.8583    3.0737   10.8983 N   0  0  0  0  0  0  0  0  0  0  0  0
    1.3459    1.7803   11.2251 C   0  0  0  0  0  0  0  0  0  0  0  0
    1.8206    0.9736   10.0350 C   0  0  0  0  0  0  0  0  0  0  0  0
    0.6684    0.6544    9.1450 C   0  0  0  0  0  0  0  0  0  0  0  0
    0.5331    1.5754    8.0373 N   0  0  0  0  0  0  0  0  0  0  0  0
    1.5246    1.3227    7.0116 C   0  0  0  0  0  0  0  0  0  0  0  0
    0.5384    2.9538    8.4584 C   0  0  0  0  0  0  0  0  0  0  0  0
   -0.0710    3.1542    9.8186 C   0  0  0  0  0  0  0  0  0  0  0  0
    4.7391    1.6864   20.6169 N   0  0  0  0  0  0  0  0  0  0  0  0
    5.6143    1.1445   20.6263 H   0  0  0  0  0  0  0  0  0  0  0  0
    3.8600    1.6313   21.7548 C   0  0  0  0  0  0  0  0  0  0  0  0
    2.9497    0.4249   21.7753 C   0  0  0  0  0  0  0  0  0  0  0  0
    4.4906    1.9120   23.0709 C   0  0  0  0  0  0  0  0  0  0  0  0
    3.9829    4.3258   23.4978 C   0  0  0  0  0  0  0  0  0  0  0  0
    5.0305    3.2742   23.2845 C   0  0  0  0  0  0  0  0  0  0  0  0
 38 39  1  0  0  0
 39 37  1  0  0  0
 37 35  1  0  0  0
 35 36  1  0  0  0
 35 33  1  0  0  0
 33  1  1  0  0  0
  1  2  2  0  0  0
  2  3  1  0  0  0
  3  4  2  0  0  0
  4  5  1  0  0  0
  5  6  2  0  0  0
  6  7  1  0  0  0
  7 10  1  0  0  0
 10 11  1  0  0  0
 11 12  1  0  0  0
 12 13  1  0  0  0
 13 14  1  0  0  0
 13 15  1  0  0  0
 15 16  1  0  0  0
  7  8  1  0  0  0
  8  9  2  0  0  0
  5 18  1  0  0  0
 18 19  2  0  0  0
 19 20  1  0  0  0
 20 21  2  0  0  0
 21 24  1  0  0  0
 24 25  1  0  0  0
 25 26  1  0  0  0
 26 27  1  0  0  0
 27 28  1  0  0  0
 28 29  1  0  0  0
 29 30  1  0  0  0
 29 31  1  0  0  0
 31 32  1  0  0  0
 21 22  1  0  0  0
 22 23  2  0  0  0
  9  1  1  0  0  0
 23 18  1  0  0  0
  8  4  1  0  0  0
 32 25  1  0  0  0
 16 10  1  0  0  0
 33 34  1  0  0  0
 14 17  1  0  0  0
M  END
> <minimizedAffinity>
-7.86759

> <CNNscore>
0.1760153919

> <CNNaffinity>
6.7980246544

> <CNN_VS>
1.1965569258

> <CNNaffinity_variance>
0.7067642212

$$$$
[H]O[C@]1([H])C([H])([H])C([H])([H])[C@@]([H])(N([H])c2nc(N([H])C([H])([H])C([H])([H])C([H])([H])C([H])([H])[H])nc([H])c2-c2nc([H])nc(N([H])c3c([H])c([H])c([H])c(OC([H])([H])[H])c3[H])c2[H])C([H])([H])C1([H])[H]


 38 41  0  0  0  0  0  0  0  0999 V2000
    3.0119    0.1481   18.7577 C   0  0  0  0  0  0  0  0  0  0  0  0
    2.4152   -0.2492   17.6300 N   0  0  0  0  0  0  0  0  0  0  0  0
    2.4714    0.4445   16.4991 C   0  0  0  0  0  0  0  0  0  0  0  0
    3.1909    1.6508   16.4901 C   0  0  0  0  0  0  0  0  0  0  0  0
    3.8100    2.0874   17.6187 C   0  0  0  0  0  0  0  0  0  0  0  0
    3.6973    1.3035   18.7380 N   0  0  0  0  0  0  0  0  0  0  0  0
    3.1862    2.3723   15.2020 C   0  0  0  0  0  0  0  0  0  0  0  0
    2.3389    1.9600   14.1828 C   0  0  0  0  0  0  0  0  0  0  0  0
    2.2967    2.6440   12.9709 C   0  0  0  0  0  0  0  0  0  0  0  0
    3.0926    3.6938   12.8380 N   0  0  0  0  0  0  0  0  0  0  0  0
    3.9220    4.1258   13.7905 C   0  0  0  0  0  0  0  0  0  0  0  0
    3.9305    3.4426   14.9324 N   0  0  0  0  0  0  0  0  0  0  0  0
    1.4009    2.1899   11.9787 N   0  0  0  0  0  0  0  0  0  0  0  0
    0.3883    2.5354   12.0556 H   0  0  0  0  0  0  0  0  0  0  0  0
    1.6737    1.3277   10.8888 C   0  0  0  0  0  0  0  0  0  0  0  0
    0.6348    0.5177   10.3841 C   0  0  0  0  0  0  0  0  0  0  0  0
    0.7974   -0.3594    9.3522 C   0  0  0  0  0  0  0  0  0  0  0  0
    2.0234   -0.4752    8.7619 C   0  0  0  0  0  0  0  0  0  0  0  0
    3.0594    0.2841    9.2122 C   0  0  0  0  0  0  0  0  0  0  0  0
    2.8798    1.1779   10.2694 C   0  0  0  0  0  0  0  0  0  0  0  0
    4.3032    0.1993    8.6496 O   0  0  0  0  0  0  0  0  0  0  0  0
    5.3517   -0.5544    9.2150 C   0  0  0  0  0  0  0  0  0  0  0  0
    2.9066   -0.6484   19.9252 N   0  0  0  0  0  0  0  0  0  0  0  0
    3.0540   -1.7007   19.8853 H   0  0  0  0  0  0  0  0  0  0  0  0
    2.5978   -0.0491   21.1899 C   0  0  0  0  0  0  0  0  0  0  0  0
    3.8304    0.4511   21.8523 C   0  0  0  0  0  0  0  0  0  0  0  0
    4.7492    2.0193   23.4862 C   0  0  0  0  0  0  0  0  0  0  0  0
    3.6027    1.7999   22.5197 C   0  0  0  0  0  0  0  0  0  0  0  0
    4.5123    3.2913   17.7024 N   0  0  0  0  0  0  0  0  0  0  0  0
    5.2132    3.5695   17.0130 H   0  0  0  0  0  0  0  0  0  0  0  0
    4.2898    4.2613   18.7675 C   0  0  0  0  0  0  0  0  0  0  0  0
    5.1556    4.0964   19.9548 C   0  0  0  0  0  0  0  0  0  0  0  0
    5.7579    5.3729   20.4702 C   0  0  0  0  0  0  0  0  0  0  0  0
    4.8130    6.5274   20.5053 C   0  0  0  0  0  0  0  0  0  0  0  0
    4.1293    6.6303   21.7331 O   0  0  0  0  0  0  0  0  0  0  0  0
    3.7845    6.5323   19.4060 C   0  0  0  0  0  0  0  0  0  0  0  0
    4.3873    5.6975   18.2649 C   0  0  0  0  0  0  0  0  0  0  0  0
    3.4531    5.9131   21.8379 H   0  0  0  0  0  0  0  0  0  0  0  0
 27 28  1  0  0  0
 28 26  1  0  0  0
 26 25  1  0  0  0
 25 23  1  0  0  0
 23  1  1  0  0  0
  1  2  2  0  0  0
  2  3  1  0  0  0
  3  4  2  0  0  0
  4  5  1  0  0  0
  5 29  1  0  0  0
 29 31  1  0  0  0
 31 32  1  0  0  0
 32 33  1  0  0  0
 33 34  1  0  0  0
 34 35  1  0  0  0
 34 36  1  0  0  0
 36 37  1  0  0  0
  5  6  2  0  0  0
  4  7  1  0  0  0
  7  8  2  0  0  0
  8  9  1  0  0  0
  9 13  1  0  0  0
 13 15  1  0  0  0
 15 16  2  0  0  0
 16 17  1  0  0  0
 17 18  2  0  0  0
 18 19  1  0  0  0
 19 21  1  0  0  0
 21 22  1  0  0  0
 19 20  2  0  0  0
  9 10  2  0  0  0
 10 11  1  0  0  0
 11 12  2  0  0  0
  6  1  1  0  0  0
 12  7  1  0  0  0
 37 31  1  0  0  0
 20 15  1  0  0  0
 23 24  1  0  0  0
 29 30  1  0  0  0
 35 38  1  0  0  0
 13 14  1  0  0  0
M  END
> <minimizedAffinity>
-8.29257

> <CNNscore>
0.9046755433

> <CNNaffinity>
7.5821828842

> <CNN_VS>
6.8594155312

> <CNNaffinity_variance>
0.0855986848

$$$$
[H]O[C@]1([H])C([H])([H])C([H])([H])[C@@]([H])(N([H])c2nc(N([H])C([H])([H])C([H])([H])C([H])([H])C([H])([H])[H])nc([H])c2-c2nc([H])nc(N([H])c3c([H])c([H])c([H])c(OC([H])([H])[H])c3[H])c2[H])C([H])([H])C1([H])[H]


 38 41  0  0  0  0  0  0  0  0999 V2000
    3.1932    3.1658   13.6152 C   0  0  0  0  0  0  0  0  0  0  0  0
    2.5123    2.0384   13.8401 N   0  0  0  0  0  0  0  0  0  0  0  0
    2.5000    1.4235   15.0170 C   0  0  0  0  0  0  0  0  0  0  0  0
    3.2376    1.9852   16.0721 C   0  0  0  0  0  0  0  0  0  0  0  0
    3.9436    3.1309   15.8804 C   0  0  0  0  0  0  0  0  0  0  0  0
    3.8955    3.6945   14.6314 N   0  0  0  0  0  0  0  0  0  0  0  0
    3.1905    1.2299   17.3399 C   0  0  0  0  0  0  0  0  0  0  0  0
    4.0427    1.5735   18.3802 C   0  0  0  0  0  0  0  0  0  0  0  0
    3.9945    0.8941   19.5945 C   0  0  0  0  0  0  0  0  0  0  0  0
    3.1082   -0.0828   19.7091 N   0  0  0  0  0  0  0  0  0  0  0  0
    2.2695   -0.4464   18.7363 C   0  0  0  0  0  0  0  0  0  0  0  0
    2.3498    0.2291   17.5927 N   0  0  0  0  0  0  0  0  0  0  0  0
    4.8724    1.3010   20.6226 N   0  0  0  0  0  0  0  0  0  0  0  0
    5.6700    0.6257   20.8642 H   0  0  0  0  0  0  0  0  0  0  0  0
    4.8296    2.4963   21.3811 C   0  0  0  0  0  0  0  0  0  0  0  0
    3.8251    2.6463   22.3602 C   0  0  0  0  0  0  0  0  0  0  0  0
    3.6845    3.7638   23.1296 C   0  0  0  0  0  0  0  0  0  0  0  0
    4.5520    4.8047   22.9591 C   0  0  0  0  0  0  0  0  0  0  0  0
    5.5390    4.7098   22.0268 C   0  0  0  0  0  0  0  0  0  0  0  0
    5.6719    3.5606   21.2454 C   0  0  0  0  0  0  0  0  0  0  0  0
    6.4287    5.7286   21.8237 O   0  0  0  0  0  0  0  0  0  0  0  0
    7.7749    5.6662   22.2375 C   0  0  0  0  0  0  0  0  0  0  0  0
    3.1562    3.7634   12.3306 N   0  0  0  0  0  0  0  0  0  0  0  0
    3.5367    3.2537   11.4785 H   0  0  0  0  0  0  0  0  0  0  0  0
    2.6024    5.0731   12.1528 C   0  0  0  0  0  0  0  0  0  0  0  0
    1.1932    5.1189   12.6224 C   0  0  0  0  0  0  0  0  0  0  0  0
    1.8647    7.3698   13.2973 C   0  0  0  0  0  0  0  0  0  0  0  0
    0.9870    6.1947   13.6791 C   0  0  0  0  0  0  0  0  0  0  0  0
    4.7303    3.7317   16.8651 N   0  0  0  0  0  0  0  0  0  0  0  0
    5.5819    3.3005   17.2293 H   0  0  0  0  0  0  0  0  0  0  0  0
    4.4147    5.0332   17.4407 C   0  0  0  0  0  0  0  0  0  0  0  0
    3.1449    5.0920   18.1960 C   0  0  0  0  0  0  0  0  0  0  0  0
    3.2373    5.7998   19.5183 C   0  0  0  0  0  0  0  0  0  0  0  0
    4.0378    7.0589   19.4862 C   0  0  0  0  0  0  0  0  0  0  0  0
    3.2520    8.1930   19.2005 O   0  0  0  0  0  0  0  0  0  0  0  0
    5.1923    7.0459   18.5201 C   0  0  0  0  0  0  0  0  0  0  0  0
    5.5475    5.5651   18.3119 C   0  0  0  0  0  0  0  0  0  0  0  0
    2.9594    8.2077   18.2535 H   0  0  0  0  0  0  0  0  0  0  0  0
 27 28  1  0  0  0
 28 26  1  0  0  0
 26 25  1  0  0  0
 25 23  1  0  0  0
 23  1  1  0  0  0
  1  2  2  0  0  0
  2  3  1  0  0  0
  3  4  2  0  0  0
  4  5  1  0  0  0
  5 29  1  0  0  0
 29 31  1  0  0  0
 31 32  1  0  0  0
 32 33  1  0  0  0
 33 34  1  0  0  0
 34 35  1  0  0  0
 34 36  1  0  0  0
 36 37  1  0  0  0
  5  6  2  0  0  0
  4  7  1  0  0  0
  7  8  2  0  0  0
  8  9  1  0  0  0
  9 13  1  0  0  0
 13 15  1  0  0  0
 15 16  2  0  0  0
 16 17  1  0  0  0
 17 18  2  0  0  0
 18 19  1  0  0  0
 19 21  1  0  0  0
 21 22  1  0  0  0
 19 20  2  0  0  0
  9 10  2  0  0  0
 10 11  1  0  0  0
 11 12  2  0  0  0
  6  1  1  0  0  0
 12  7  1  0  0  0
 37 31  1  0  0  0
 20 15  1  0  0  0
 23 24  1  0  0  0
 29 30  1  0  0  0
 35 38  1  0  0  0
 13 14  1  0  0  0
M  END
> <minimizedAffinity>
-8.25312

> <CNNscore>
0.6053191423

> <CNNaffinity>
7.2579946518

> <CNN_VS>
4.3934030533

> <CNNaffinity_variance>
0.3362479210

$$$$
[H]O[C@]1([H])C([H])([H])C([H])([H])[C@@]([H])(N([H])c2nc(N([H])C([H])([H])C([H])([H])C([H])([H])C([H])([H])[H])nc([H])c2-c2nc([H])nc(N([H])c3c([H])c([H])c([H])c(OC([H])([H])[H])c3[H])c2[H])C([H])([H])C1([H])[H]


 38 41  0  0  0  0  0  0  0  0999 V2000
    3.0773    0.2116   19.0506 C   0  0  0  0  0  0  0  0  0  0  0  0
    2.1584   -0.0706   18.1225 N   0  0  0  0  0  0  0  0  0  0  0  0
    2.0707    0.5825   16.9696 C   0  0  0  0  0  0  0  0  0  0  0  0
    2.9862    1.6172   16.7165 C   0  0  0  0  0  0  0  0  0  0  0  0
    3.9343    1.9335   17.6378 C   0  0  0  0  0  0  0  0  0  0  0  0
    3.9480    1.2033   18.7982 N   0  0  0  0  0  0  0  0  0  0  0  0
    2.8077    2.3080   15.4239 C   0  0  0  0  0  0  0  0  0  0  0  0
    2.3624    3.6225   15.3992 C   0  0  0  0  0  0  0  0  0  0  0  0
    2.2157    4.3025   14.1933 C   0  0  0  0  0  0  0  0  0  0  0  0
    2.5176    3.6447   13.0845 N   0  0  0  0  0  0  0  0  0  0  0  0
    2.9493    2.3818   13.0610 C   0  0  0  0  0  0  0  0  0  0  0  0
    3.0748    1.7698   14.2359 N   0  0  0  0  0  0  0  0  0  0  0  0
    1.7778    5.6441   14.2322 N   0  0  0  0  0  0  0  0  0  0  0  0
    0.7212    5.8041   14.1385 H   0  0  0  0  0  0  0  0  0  0  0  0
    2.5647    6.8125   14.3779 C   0  0  0  0  0  0  0  0  0  0  0  0
    2.1219    8.0112   13.7802 C   0  0  0  0  0  0  0  0  0  0  0  0
    2.8139    9.1849   13.8442 C   0  0  0  0  0  0  0  0  0  0  0  0
    4.0011    9.2236   14.5181 C   0  0  0  0  0  0  0  0  0  0  0  0
    4.4726    8.0935   15.1122 C   0  0  0  0  0  0  0  0  0  0  0  0
    3.7548    6.8984   15.0390 C   0  0  0  0  0  0  0  0  0  0  0  0
    5.6567    8.0883   15.7967 O   0  0  0  0  0  0  0  0  0  0  0  0
    5.7529    7.7495   17.1617 C   0  0  0  0  0  0  0  0  0  0  0  0
    3.1074   -0.5318   20.2568 N   0  0  0  0  0  0  0  0  0  0  0  0
    2.5196   -1.4102   20.3735 H   0  0  0  0  0  0  0  0  0  0  0  0
    3.9347   -0.1130   21.3496 C   0  0  0  0  0  0  0  0  0  0  0  0
    3.2229    0.8740   22.2027 C   0  0  0  0  0  0  0  0  0  0  0  0
    3.8272    3.1223   22.9463 C   0  0  0  0  0  0  0  0  0  0  0  0
    4.1877    1.6566   23.0820 C   0  0  0  0  0  0  0  0  0  0  0  0
    4.8556    2.9706   17.4787 N   0  0  0  0  0  0  0  0  0  0  0  0
    5.6042    2.9409   16.7841 H   0  0  0  0  0  0  0  0  0  0  0  0
    4.8141    4.1908   18.2750 C   0  0  0  0  0  0  0  0  0  0  0  0
    3.4780    4.8121   18.3986 C   0  0  0  0  0  0  0  0  0  0  0  0
    3.1178    5.2457   19.7915 C   0  0  0  0  0  0  0  0  0  0  0  0
    4.2243    5.9225   20.5295 C   0  0  0  0  0  0  0  0  0  0  0  0
    4.2218    7.3196   20.3468 O   0  0  0  0  0  0  0  0  0  0  0  0
    5.6033    5.4190   20.1957 C   0  0  0  0  0  0  0  0  0  0  0  0
    5.4100    3.9900   19.6640 C   0  0  0  0  0  0  0  0  0  0  0  0
    4.5105    7.5708   19.4324 H   0  0  0  0  0  0  0  0  0  0  0  0
 27 28  1  0  0  0
 28 26  1  0  0  0
 26 25  1  0  0  0
 25 23  1  0  0  0
 23  1  1  0  0  0
  1  2  2  0  0  0
  2  3  1  0  0  0
  3  4  2  0  0  0
  4  5  1  0  0  0
  5 29  1  0  0  0
 29 31  1  0  0  0
 31 32  1  0  0  0
 32 33  1  0  0  0
 33 34  1  0  0  0
 34 35  1  0  0  0
 34 36  1  0  0  0
 36 37  1  0  0  0
  5  6  2  0  0  0
  4  7  1  0  0  0
  7  8  2  0  0  0
  8  9  1  0  0  0
  9 13  1  0  0  0
 13 15  1  0  0  0
 15 16  2  0  0  0
 16 17  1  0  0  0
 17 18  2  0  0  0
 18 19  1  0  0  0
 19 21  1  0  0  0
 21 22  1  0  0  0
 19 20  2  0  0  0
  9 10  2  0  0  0
 10 11  1  0  0  0
 11 12  2  0  0  0
  6  1  1  0  0  0
 12  7  1  0  0  0
 37 31  1  0  0  0
 20 15  1  0  0  0
 23 24  1  0  0  0
 29 30  1  0  0  0
 35 38  1  0  0  0
 13 14  1  0  0  0
M  END
> <minimizedAffinity>
-7.82340

> <CNNscore>
0.5657723546

> <CNNaffinity>
7.1247572899

> <CNN_VS>
4.0309906006

> <CNNaffinity_variance>
0.1129523963

$$$$
[H]O[C@]1([H])C([H])([H])C([H])([H])[C@@]([H])(N([H])c2nc(N([H])C([H])([H])C([H])([H])C([H])([H])C([H])([H])[H])nc([H])c2-c2nc([H])nc(N([H])c3c([H])c([H])c([H])c(OC([H])([H])[H])c3[H])c2[H])C([H])([H])C1([H])[H]


 38 41  0  0  0  0  0  0  0  0999 V2000
    3.0763    1.5459   16.5018 C   0  0  0  0  0  0  0  0  0  0  0  0
    2.8982    0.8195   17.6091 N   0  0  0  0  0  0  0  0  0  0  0  0
    3.5355    1.0679   18.7472 C   0  0  0  0  0  0  0  0  0  0  0  0
    4.4381    2.1434   18.7867 C   0  0  0  0  0  0  0  0  0  0  0  0
    4.6461    2.9040   17.6794 C   0  0  0  0  0  0  0  0  0  0  0  0
    3.9420    2.5723   16.5506 N   0  0  0  0  0  0  0  0  0  0  0  0
    5.1219    2.3390   20.0805 C   0  0  0  0  0  0  0  0  0  0  0  0
    5.0459    3.5671   20.7229 C   0  0  0  0  0  0  0  0  0  0  0  0
    5.6580    3.7643   21.9577 C   0  0  0  0  0  0  0  0  0  0  0  0
    6.3078    2.7378   22.4842 N   0  0  0  0  0  0  0  0  0  0  0  0
    6.4061    1.5402   21.9029 C   0  0  0  0  0  0  0  0  0  0  0  0
    5.8066    1.3958   20.7238 N   0  0  0  0  0  0  0  0  0  0  0  0
    5.5300    5.0290   22.5720 N   0  0  0  0  0  0  0  0  0  0  0  0
    5.0867    5.0424   23.5488 H   0  0  0  0  0  0  0  0  0  0  0  0
    5.9141    6.2904   22.0553 C   0  0  0  0  0  0  0  0  0  0  0  0
    4.9610    7.3298   22.0167 C   0  0  0  0  0  0  0  0  0  0  0  0
    5.2228    8.5735   21.5215 C   0  0  0  0  0  0  0  0  0  0  0  0
    6.4677    8.8481   21.0319 C   0  0  0  0  0  0  0  0  0  0  0  0
    7.4232    7.8790   21.0460 C   0  0  0  0  0  0  0  0  0  0  0  0
    7.1423    6.6100   21.5554 C   0  0  0  0  0  0  0  0  0  0  0  0
    8.6824    8.1118   20.5656 O   0  0  0  0  0  0  0  0  0  0  0  0
    9.5353    7.0829   20.1168 C   0  0  0  0  0  0  0  0  0  0  0  0
    2.3579    1.2184   15.3248 N   0  0  0  0  0  0  0  0  0  0  0  0
    1.5617    0.5140   15.3475 H   0  0  0  0  0  0  0  0  0  0  0  0
    2.6913    1.8329   14.0738 C   0  0  0  0  0  0  0  0  0  0  0  0
    1.6692    2.8419   13.6921 C   0  0  0  0  0  0  0  0  0  0  0  0
    3.7805    4.0147   13.3181 C   0  0  0  0  0  0  0  0  0  0  0  0
    2.2873    4.2165   13.4805 C   0  0  0  0  0  0  0  0  0  0  0  0
    5.5519    3.9652   17.6257 N   0  0  0  0  0  0  0  0  0  0  0  0
    6.5592    3.8361   17.7376 H   0  0  0  0  0  0  0  0  0  0  0  0
    5.1393    5.3423   17.3845 C   0  0  0  0  0  0  0  0  0  0  0  0
    3.7662    5.6702   17.8242 C   0  0  0  0  0  0  0  0  0  0  0  0
    3.6441    6.9657   18.5757 C   0  0  0  0  0  0  0  0  0  0  0  0
    4.4295    8.0915   17.9902 C   0  0  0  0  0  0  0  0  0  0  0  0
    3.6890    8.8378   17.0520 O   0  0  0  0  0  0  0  0  0  0  0  0
    5.7214    7.6831   17.3342 C   0  0  0  0  0  0  0  0  0  0  0  0
    6.1169    6.3474   17.9837 C   0  0  0  0  0  0  0  0  0  0  0  0
    3.5486    8.3335   16.2103 H   0  0  0  0  0  0  0  0  0  0  0  0
 27 28  1  0  0  0
 28 26  1  0  0  0
 26 25  1  0  0  0
 25 23  1  0  0  0
 23  1  1  0  0  0
  1  2  2  0  0  0
  2  3  1  0  0  0
  3  4  2  0  0  0
  4  5  1  0  0  0
  5 29  1  0  0  0
 29 31  1  0  0  0
 31 32  1  0  0  0
 32 33  1  0  0  0
 33 34  1  0  0  0
 34 35  1  0  0  0
 34 36  1  0  0  0
 36 37  1  0  0  0
  5  6  2  0  0  0
  4  7  1  0  0  0
  7  8  2  0  0  0
  8  9  1  0  0  0
  9 13  1  0  0  0
 13 15  1  0  0  0
 15 16  2  0  0  0
 16 17  1  0  0  0
 17 18  2  0  0  0
 18 19  1  0  0  0
 19 21  1  0  0  0
 21 22  1  0  0  0
 19 20  2  0  0  0
  9 10  2  0  0  0
 10 11  1  0  0  0
 11 12  2  0  0  0
  6  1  1  0  0  0
 12  7  1  0  0  0
 37 31  1  0  0  0
 20 15  1  0  0  0
 23 24  1  0  0  0
 29 30  1  0  0  0
 35 38  1  0  0  0
 13 14  1  0  0  0
M  END
> <minimizedAffinity>
-7.85803

> <CNNscore>
0.5083808899

> <CNNaffinity>
7.2082147598

> <CNN_VS>
3.6645185947

> <CNNaffinity_variance>
0.1723515093

$$$$
[H]O[C@]1([H])C([H])([H])C([H])([H])[C@@]([H])(N([H])c2nc(N([H])C([H])([H])C([H])([H])C([H])([H])C([H])([H])[H])nc([H])c2-c2nc([H])nc(N([H])c3c([H])c([H])c([H])c(OC([H])([H])[H])c3[H])c2[H])C([H])([H])C1([H])[H]


 38 41  0  0  0  0  0  0  0  0999 V2000
    3.7477    1.3984   17.8756 C   0  0  0  0  0  0  0  0  0  0  0  0
    2.9635    0.8448   16.9461 N   0  0  0  0  0  0  0  0  0  0  0  0
    2.7369    1.4053   15.7638 C   0  0  0  0  0  0  0  0  0  0  0  0
    3.3502    2.6365   15.4795 C   0  0  0  0  0  0  0  0  0  0  0  0
    4.1537    3.2304   16.4011 C   0  0  0  0  0  0  0  0  0  0  0  0
    4.3292    2.5762   17.5933 N   0  0  0  0  0  0  0  0  0  0  0  0
    3.0302    3.2036   14.1544 C   0  0  0  0  0  0  0  0  0  0  0  0
    1.7132    3.2359   13.7171 C   0  0  0  0  0  0  0  0  0  0  0  0
    1.3854    3.7931   12.4841 C   0  0  0  0  0  0  0  0  0  0  0  0
    2.3768    4.2852   11.7572 N   0  0  0  0  0  0  0  0  0  0  0  0
    3.6562    4.2760   12.1379 C   0  0  0  0  0  0  0  0  0  0  0  0
    3.9246    3.7337   13.3230 N   0  0  0  0  0  0  0  0  0  0  0  0
    0.0267    3.8153   12.1013 N   0  0  0  0  0  0  0  0  0  0  0  0
   -0.3205    2.9797   11.5251 H   0  0  0  0  0  0  0  0  0  0  0  0
   -0.9406    4.8105   12.3830 C   0  0  0  0  0  0  0  0  0  0  0  0
   -0.6530    5.7817   13.3650 C   0  0  0  0  0  0  0  0  0  0  0  0
   -1.5223    6.7694   13.7246 C   0  0  0  0  0  0  0  0  0  0  0  0
   -2.7417    6.8399   13.1138 C   0  0  0  0  0  0  0  0  0  0  0  0
   -3.0680    5.9260   12.1595 C   0  0  0  0  0  0  0  0  0  0  0  0
   -2.1694    4.9197   11.8008 C   0  0  0  0  0  0  0  0  0  0  0  0
   -4.2782    5.9604   11.5232 O   0  0  0  0  0  0  0  0  0  0  0  0
   -4.4420    5.6157   10.1661 C   0  0  0  0  0  0  0  0  0  0  0  0
    3.9412    0.7376   19.1144 N   0  0  0  0  0  0  0  0  0  0  0  0
    3.8899   -0.3222   19.1835 H   0  0  0  0  0  0  0  0  0  0  0  0
    4.2114    1.4879   20.3051 C   0  0  0  0  0  0  0  0  0  0  0  0
    5.5351    1.1204   20.8719 C   0  0  0  0  0  0  0  0  0  0  0  0
    5.5626    3.5453   21.1756 C   0  0  0  0  0  0  0  0  0  0  0  0
    6.1153    2.2433   21.7198 C   0  0  0  0  0  0  0  0  0  0  0  0
    4.7694    4.4691   16.2108 N   0  0  0  0  0  0  0  0  0  0  0  0
    5.3977    4.6576   15.4276 H   0  0  0  0  0  0  0  0  0  0  0  0
    4.5510    5.6029   17.1005 C   0  0  0  0  0  0  0  0  0  0  0  0
    3.2590    5.5942   17.8196 C   0  0  0  0  0  0  0  0  0  0  0  0
    3.3567    5.9230   19.2826 C   0  0  0  0  0  0  0  0  0  0  0  0
    4.2722    7.0588   19.5969 C   0  0  0  0  0  0  0  0  0  0  0  0
    3.6098    8.3025   19.6024 O   0  0  0  0  0  0  0  0  0  0  0  0
    5.4634    7.1778   18.6841 C   0  0  0  0  0  0  0  0  0  0  0  0
    5.6875    5.7728   18.1027 C   0  0  0  0  0  0  0  0  0  0  0  0
    3.3636    8.5913   18.6867 H   0  0  0  0  0  0  0  0  0  0  0  0
 27 28  1  0  0  0
 28 26  1  0  0  0
 26 25  1  0  0  0
 25 23  1  0  0  0
 23  1  1  0  0  0
  1  2  2  0  0  0
  2  3  1  0  0  0
  3  4  2  0  0  0
  4  5  1  0  0  0
  5 29  1  0  0  0
 29 31  1  0  0  0
 31 32  1  0  0  0
 32 33  1  0  0  0
 33 34  1  0  0  0
 34 35  1  0  0  0
 34 36  1  0  0  0
 36 37  1  0  0  0
  5  6  2  0  0  0
  4  7  1  0  0  0
  7  8  2  0  0  0
  8  9  1  0  0  0
  9 13  1  0  0  0
 13 15  1  0  0  0
 15 16  2  0  0  0
 16 17  1  0  0  0
 17 18  2  0  0  0
 18 19  1  0  0  0
 19 21  1  0  0  0
 21 22  1  0  0  0
 19 20  2  0  0  0
  9 10  2  0  0  0
 10 11  1  0  0  0
 11 12  2  0  0  0
  6  1  1  0  0  0
 12  7  1  0  0  0
 37 31  1  0  0  0
 20 15  1  0  0  0
 23 24  1  0  0  0
 29 30  1  0  0  0
 35 38  1  0  0  0
 13 14  1  0  0  0
M  END
> <minimizedAffinity>
-8.19699

> <CNNscore>
0.4651536644

> <CNNaffinity>
6.9465346336

> <CNN_VS>
3.2312059402

> <CNNaffinity_variance>
0.2670074105

$$$$
[H]O[C@]1([H])C([H])([H])C([H])([H])[C@@]([H])(N([H])c2nc(N([H])C([H])([H])C([H])([H])C([H])([H])C([H])([H])[H])nc([H])c2-c2nc([H])nc(N([H])c3c([H])c([H])c([H])c(OC([H])([H])[H])c3[H])c2[H])C([H])([H])C1([H])[H]


 38 41  0  0  0  0  0  0  0  0999 V2000
    3.9670    6.5625   19.4622 C   0  0  0  0  0  0  0  0  0  0  0  0
    3.0817    6.4168   18.4721 N   0  0  0  0  0  0  0  0  0  0  0  0
    2.8743    5.2611   17.8517 C   0  0  0  0  0  0  0  0  0  0  0  0
    3.6210    4.1423   18.2561 C   0  0  0  0  0  0  0  0  0  0  0  0
    4.5317    4.2527   19.2591 C   0  0  0  0  0  0  0  0  0  0  0  0
    4.6760    5.4859   19.8409 N   0  0  0  0  0  0  0  0  0  0  0  0
    3.3478    2.9024   17.5025 C   0  0  0  0  0  0  0  0  0  0  0  0
    2.5714    2.9500   16.3528 C   0  0  0  0  0  0  0  0  0  0  0  0
    2.3261    1.7980   15.6106 C   0  0  0  0  0  0  0  0  0  0  0  0
    2.8621    0.6687   16.0471 N   0  0  0  0  0  0  0  0  0  0  0  0
    3.6148    0.5765   17.1457 C   0  0  0  0  0  0  0  0  0  0  0  0
    3.8235    1.7015   17.8249 N   0  0  0  0  0  0  0  0  0  0  0  0
    1.5456    1.9117   14.4397 N   0  0  0  0  0  0  0  0  0  0  0  0
    0.7194    1.2335   14.3492 H   0  0  0  0  0  0  0  0  0  0  0  0
    1.7199    2.8136   13.3618 C   0  0  0  0  0  0  0  0  0  0  0  0
    2.9636    2.8484   12.6968 C   0  0  0  0  0  0  0  0  0  0  0  0
    3.2406    3.6923   11.6616 C   0  0  0  0  0  0  0  0  0  0  0  0
    2.2764    4.5578   11.2301 C   0  0  0  0  0  0  0  0  0  0  0  0
    1.0590    4.5640   11.8388 C   0  0  0  0  0  0  0  0  0  0  0  0
    0.7884    3.6953   12.8976 C   0  0  0  0  0  0  0  0  0  0  0  0
    0.0656    5.4144   11.4382 O   0  0  0  0  0  0  0  0  0  0  0  0
    0.3060    6.5599   10.6526 C   0  0  0  0  0  0  0  0  0  0  0  0
    4.1308    7.8294   20.0760 N   0  0  0  0  0  0  0  0  0  0  0  0
    3.4349    8.1819   20.7986 H   0  0  0  0  0  0  0  0  0  0  0  0
    5.2432    8.6657   19.7337 C   0  0  0  0  0  0  0  0  0  0  0  0
    5.1593    9.9710   20.4392 C   0  0  0  0  0  0  0  0  0  0  0  0
    6.1328    9.4800   22.6265 C   0  0  0  0  0  0  0  0  0  0  0  0
    6.3754   10.2123   21.3220 C   0  0  0  0  0  0  0  0  0  0  0  0
    5.3387    3.1995   19.6941 N   0  0  0  0  0  0  0  0  0  0  0  0
    6.0228    2.7428   19.0881 H   0  0  0  0  0  0  0  0  0  0  0  0
    5.2883    2.6777   21.0543 C   0  0  0  0  0  0  0  0  0  0  0  0
    5.8060    3.5919   22.0947 C   0  0  0  0  0  0  0  0  0  0  0  0
    4.9410    3.6981   23.3189 C   0  0  0  0  0  0  0  0  0  0  0  0
    4.4008    2.3943   23.8040 C   0  0  0  0  0  0  0  0  0  0  0  0
    5.2475    1.7736   24.7439 O   0  0  0  0  0  0  0  0  0  0  0  0
    4.1072    1.3923   22.7196 C   0  0  0  0  0  0  0  0  0  0  0  0
    3.8878    2.2134   21.4390 C   0  0  0  0  0  0  0  0  0  0  0  0
    6.0690    1.4172   24.3189 H   0  0  0  0  0  0  0  0  0  0  0  0
 27 28  1  0  0  0
 28 26  1  0  0  0
 26 25  1  0  0  0
 25 23  1  0  0  0
 23  1  1  0  0  0
  1  2  2  0  0  0
  2  3  1  0  0  0
  3  4  2  0  0  0
  4  5  1  0  0  0
  5 29  1  0  0  0
 29 31  1  0  0  0
 31 32  1  0  0  0
 32 33  1  0  0  0
 33 34  1  0  0  0
 34 35  1  0  0  0
 34 36  1  0  0  0
 36 37  1  0  0  0
  5  6  2  0  0  0
  4  7  1  0  0  0
  7  8  2  0  0  0
  8  9  1  0  0  0
  9 13  1  0  0  0
 13 15  1  0  0  0
 15 16  2  0  0  0
 16 17  1  0  0  0
 17 18  2  0  0  0
 18 19  1  0  0  0
 19 21  1  0  0  0
 21 22  1  0  0  0
 19 20  2  0  0  0
  9 10  2  0  0  0
 10 11  1  0  0  0
 11 12  2  0  0  0
  6  1  1  0  0  0
 12  7  1  0  0  0
 37 31  1  0  0  0
 20 15  1  0  0  0
 23 24  1  0  0  0
 29 30  1  0  0  0
 35 38  1  0  0  0
 13 14  1  0  0  0
M  END
> <minimizedAffinity>
-7.91300

> <CNNscore>
0.4045216441

> <CNNaffinity>
7.1915650368

> <CNN_VS>
2.9091436863

> <CNNaffinity_variance>
0.4893054962

$$$$
[H]O[C@]1([H])C([H])([H])C([H])([H])[C@@]([H])(N([H])c2nc(N([H])C([H])([H])C([H])([H])C([H])([H])C([H])([H])[H])nc([H])c2-c2nc([H])nc(N([H])c3c([H])c([H])c([H])c(OC([H])([H])[H])c3[H])c2[H])C([H])([H])C1([H])[H]


 38 41  0  0  0  0  0  0  0  0999 V2000
    3.8331    1.4454   18.2937 C   0  0  0  0  0  0  0  0  0  0  0  0
    3.1308    0.8289   17.3387 N   0  0  0  0  0  0  0  0  0  0  0  0
    3.0206    1.3017   16.1027 C   0  0  0  0  0  0  0  0  0  0  0  0
    3.6724    2.5052   15.7872 C   0  0  0  0  0  0  0  0  0  0  0  0
    4.3952    3.1612   16.7332 C   0  0  0  0  0  0  0  0  0  0  0  0
    4.4526    2.5959   17.9811 N   0  0  0  0  0  0  0  0  0  0  0  0
    3.4823    2.9746   14.4003 C   0  0  0  0  0  0  0  0  0  0  0  0
    2.8265    2.1665   13.4818 C   0  0  0  0  0  0  0  0  0  0  0  0
    2.6100    2.6015   12.1771 C   0  0  0  0  0  0  0  0  0  0  0  0
    3.0532    3.8077   11.8576 N   0  0  0  0  0  0  0  0  0  0  0  0
    3.6877    4.6181   12.7076 C   0  0  0  0  0  0  0  0  0  0  0  0
    3.8735    4.1624   13.9439 N   0  0  0  0  0  0  0  0  0  0  0  0
    1.9200    1.7438   11.2931 N   0  0  0  0  0  0  0  0  0  0  0  0
    0.9378    1.4365   11.5957 H   0  0  0  0  0  0  0  0  0  0  0  0
    2.3666    1.2335   10.0498 C   0  0  0  0  0  0  0  0  0  0  0  0
    1.5897    1.4721    8.8966 C   0  0  0  0  0  0  0  0  0  0  0  0
    1.9201    1.0088    7.6570 C   0  0  0  0  0  0  0  0  0  0  0  0
    3.0598    0.2725    7.5018 C   0  0  0  0  0  0  0  0  0  0  0  0
    3.8442    0.0140    8.5836 C   0  0  0  0  0  0  0  0  0  0  0  0
    3.4946    0.4938    9.8472 C   0  0  0  0  0  0  0  0  0  0  0  0
    4.9936   -0.7190    8.4725 O   0  0  0  0  0  0  0  0  0  0  0  0
    6.2324   -0.2872    8.9885 C   0  0  0  0  0  0  0  0  0  0  0  0
    3.9040    0.8769   19.5901 N   0  0  0  0  0  0  0  0  0  0  0  0
    3.8000   -0.1714   19.7347 H   0  0  0  0  0  0  0  0  0  0  0  0
    4.1186    1.7072   20.7383 C   0  0  0  0  0  0  0  0  0  0  0  0
    4.9983    1.0275   21.7245 C   0  0  0  0  0  0  0  0  0  0  0  0
    7.1908    0.1089   21.1570 C   0  0  0  0  0  0  0  0  0  0  0  0
    6.4620    1.3885   21.5153 C   0  0  0  0  0  0  0  0  0  0  0  0
    5.0409    4.3791   16.5106 N   0  0  0  0  0  0  0  0  0  0  0  0
    5.7420    4.5052   15.7783 H   0  0  0  0  0  0  0  0  0  0  0  0
    4.7540    5.5773   17.2895 C   0  0  0  0  0  0  0  0  0  0  0  0
    3.3826    5.6541   17.8371 C   0  0  0  0  0  0  0  0  0  0  0  0
    3.3081    6.0805   19.2761 C   0  0  0  0  0  0  0  0  0  0  0  0
    4.2175    7.2096   19.6298 C   0  0  0  0  0  0  0  0  0  0  0  0
    3.6051    8.4685   19.4698 O   0  0  0  0  0  0  0  0  0  0  0  0
    5.5172    7.2322   18.8705 C   0  0  0  0  0  0  0  0  0  0  0  0
    5.7614    5.7846   18.4152 C   0  0  0  0  0  0  0  0  0  0  0  0
    3.4861    8.6999   18.5133 H   0  0  0  0  0  0  0  0  0  0  0  0
 27 28  1  0  0  0
 28 26  1  0  0  0
 26 25  1  0  0  0
 25 23  1  0  0  0
 23  1  1  0  0  0
  1  2  2  0  0  0
  2  3  1  0  0  0
  3  4  2  0  0  0
  4  5  1  0  0  0
  5 29  1  0  0  0
 29 31  1  0  0  0
 31 32  1  0  0  0
 32 33  1  0  0  0
 33 34  1  0  0  0
 34 35  1  0  0  0
 34 36  1  0  0  0
 36 37  1  0  0  0
  5  6  2  0  0  0
  4  7  1  0  0  0
  7  8  2  0  0  0
  8  9  1  0  0  0
  9 13  1  0  0  0
 13 15  1  0  0  0
 15 16  2  0  0  0
 16 17  1  0  0  0
 17 18  2  0  0  0
 18 19  1  0  0  0
 19 21  1  0  0  0
 21 22  1  0  0  0
 19 20  2  0  0  0
  9 10  2  0  0  0
 10 11  1  0  0  0
 11 12  2  0  0  0
  6  1  1  0  0  0
 12  7  1  0  0  0
 37 31  1  0  0  0
 20 15  1  0  0  0
 23 24  1  0  0  0
 29 30  1  0  0  0
 35 38  1  0  0  0
 13 14  1  0  0  0
M  END
> <minimizedAffinity>
-7.59040

> <CNNscore>
0.3992522061

> <CNNaffinity>
6.8818449974

> <CNN_VS>
2.7475917339

> <CNNaffinity_variance>
0.1923526973

$$$$
[H]O[C@]1([H])C([H])([H])C([H])([H])[C@@]([H])(N([H])c2nc(N([H])C([H])([H])C([H])([H])C([H])([H])C([H])([H])[H])nc([H])c2-c2nc([H])nc(N([H])c3c([H])c([H])c([H])c(OC([H])([H])[H])c3[H])c2[H])C([H])([H])C1([H])[H]


 38 41  0  0  0  0  0  0  0  0999 V2000
    3.9540    1.3261   18.1415 C   0  0  0  0  0  0  0  0  0  0  0  0
    3.1752    0.7743   17.2065 N   0  0  0  0  0  0  0  0  0  0  0  0
    2.9658    1.3308   16.0191 C   0  0  0  0  0  0  0  0  0  0  0  0
    3.5921    2.5556   15.7354 C   0  0  0  0  0  0  0  0  0  0  0  0
    4.3906    3.1475   16.6627 C   0  0  0  0  0  0  0  0  0  0  0  0
    4.5482    2.4977   17.8597 N   0  0  0  0  0  0  0  0  0  0  0  0
    3.2907    3.1187   14.4043 C   0  0  0  0  0  0  0  0  0  0  0  0
    2.0827    2.8241   13.7874 C   0  0  0  0  0  0  0  0  0  0  0  0
    1.7654    3.3682   12.5458 C   0  0  0  0  0  0  0  0  0  0  0  0
    2.6591    4.1705   11.9881 N   0  0  0  0  0  0  0  0  0  0  0  0
    3.8318    4.4816   12.5447 C   0  0  0  0  0  0  0  0  0  0  0  0
    4.0942    3.9394   13.7311 N   0  0  0  0  0  0  0  0  0  0  0  0
    0.5138    3.0480   11.9765 N   0  0  0  0  0  0  0  0  0  0  0  0
    0.2826    2.0042   11.8885 H   0  0  0  0  0  0  0  0  0  0  0  0
   -0.4798    3.9386   11.5020 C   0  0  0  0  0  0  0  0  0  0  0  0
   -0.7084    4.0269   10.1127 C   0  0  0  0  0  0  0  0  0  0  0  0
   -1.6266    4.8657    9.5524 C   0  0  0  0  0  0  0  0  0  0  0  0
   -2.3751    5.6718   10.3618 C   0  0  0  0  0  0  0  0  0  0  0  0
   -2.1925    5.6249   11.7097 C   0  0  0  0  0  0  0  0  0  0  0  0
   -1.2492    4.7621   12.2705 C   0  0  0  0  0  0  0  0  0  0  0  0
   -2.9207    6.4149   12.5560 O   0  0  0  0  0  0  0  0  0  0  0  0
   -2.3624    7.0509   13.6835 C   0  0  0  0  0  0  0  0  0  0  0  0
    4.1290    0.6698   19.3855 N   0  0  0  0  0  0  0  0  0  0  0  0
    3.7334   -0.3031   19.5517 H   0  0  0  0  0  0  0  0  0  0  0  0
    4.8462    1.3071   20.4501 C   0  0  0  0  0  0  0  0  0  0  0  0
    3.9169    2.0419   21.3472 C   0  0  0  0  0  0  0  0  0  0  0  0
    5.8669    3.5142   21.3984 C   0  0  0  0  0  0  0  0  0  0  0  0
    4.3602    3.4825   21.5582 C   0  0  0  0  0  0  0  0  0  0  0  0
    5.0184    4.3802   16.4729 N   0  0  0  0  0  0  0  0  0  0  0  0
    5.7254    4.5332   15.7514 H   0  0  0  0  0  0  0  0  0  0  0  0
    4.7030    5.5569   17.2733 C   0  0  0  0  0  0  0  0  0  0  0  0
    3.3307    5.5903   17.8228 C   0  0  0  0  0  0  0  0  0  0  0  0
    3.2470    5.9889   19.2692 C   0  0  0  0  0  0  0  0  0  0  0  0
    4.1289    7.1334   19.6428 C   0  0  0  0  0  0  0  0  0  0  0  0
    3.4858    8.3796   19.5057 O   0  0  0  0  0  0  0  0  0  0  0  0
    5.4269    7.2014   18.8833 C   0  0  0  0  0  0  0  0  0  0  0  0
    5.7060    5.7686   18.4020 C   0  0  0  0  0  0  0  0  0  0  0  0
    3.3602    8.6251   18.5535 H   0  0  0  0  0  0  0  0  0  0  0  0
 27 28  1  0  0  0
 28 26  1  0  0  0
 26 25  1  0  0  0
 25 23  1  0  0  0
 23  1  1  0  0  0
  1  2  2  0  0  0
  2  3  1  0  0  0
  3  4  2  0  0  0
  4  5  1  0  0  0
  5 29  1  0  0  0
 29 31  1  0  0  0
 31 32  1  0  0  0
 32 33  1  0  0  0
 33 34  1  0  0  0
 34 35  1  0  0  0
 34 36  1  0  0  0
 36 37  1  0  0  0
  5  6  2  0  0  0
  4  7  1  0  0  0
  7  8  2  0  0  0
  8  9  1  0  0  0
  9 13  1  0  0  0
 13 15  1  0  0  0
 15 16  2  0  0  0
 16 17  1  0  0  0
 17 18  2  0  0  0
 18 19  1  0  0  0
 19 21  1  0  0  0
 21 22  1  0  0  0
 19 20  2  0  0  0
  9 10  2  0  0  0
 10 11  1  0  0  0
 11 12  2  0  0  0
  6  1  1  0  0  0
 12  7  1  0  0  0
 37 31  1  0  0  0
 20 15  1  0  0  0
 23 24  1  0  0  0
 29 30  1  0  0  0
 35 38  1  0  0  0
 13 14  1  0  0  0
M  END
> <minimizedAffinity>
-7.50412

> <CNNscore>
0.3445260525

> <CNNaffinity>
6.9180107117

> <CNN_VS>
2.3834350109

> <CNNaffinity_variance>
0.3896034062

$$$$
[H]O[C@]1([H])C([H])([H])C([H])([H])[C@@]([H])(N([H])c2nc(N([H])C([H])([H])C([H])([H])C([H])([H])C([H])([H])[H])nc([H])c2-c2nc([H])nc(N([H])c3c([H])c([H])c([H])c(OC([H])([H])[H])c3[H])c2[H])C([H])([H])C1([H])[H]


 38 41  0  0  0  0  0  0  0  0999 V2000
    4.2245    1.5892   17.9046 C   0  0  0  0  0  0  0  0  0  0  0  0
    3.3525    1.0024   17.0796 N   0  0  0  0  0  0  0  0  0  0  0  0
    2.9335    1.5642   15.9517 C   0  0  0  0  0  0  0  0  0  0  0  0
    3.4305    2.8334   15.6126 C   0  0  0  0  0  0  0  0  0  0  0  0
    4.3182    3.4617   16.4281 C   0  0  0  0  0  0  0  0  0  0  0  0
    4.6934    2.8031   17.5707 N   0  0  0  0  0  0  0  0  0  0  0  0
    2.8990    3.3982   14.3562 C   0  0  0  0  0  0  0  0  0  0  0  0
    3.1921    2.7857   13.1456 C   0  0  0  0  0  0  0  0  0  0  0  0
    2.6769    3.2839   11.9520 C   0  0  0  0  0  0  0  0  0  0  0  0
    1.9033    4.3560   12.0250 N   0  0  0  0  0  0  0  0  0  0  0  0
    1.5948    4.9764   13.1660 C   0  0  0  0  0  0  0  0  0  0  0  0
    2.1088    4.4670   14.2827 N   0  0  0  0  0  0  0  0  0  0  0  0
    2.9937    2.6073   10.7540 N   0  0  0  0  0  0  0  0  0  0  0  0
    3.7814    3.0301   10.1611 H   0  0  0  0  0  0  0  0  0  0  0  0
    2.3958    1.4340   10.2330 C   0  0  0  0  0  0  0  0  0  0  0  0
    3.2255    0.4264    9.6977 C   0  0  0  0  0  0  0  0  0  0  0  0
    2.7501   -0.7309    9.1546 C   0  0  0  0  0  0  0  0  0  0  0  0
    1.4019   -0.9456    9.1169 C   0  0  0  0  0  0  0  0  0  0  0  0
    0.5581   -0.0038    9.6203 C   0  0  0  0  0  0  0  0  0  0  0  0
    1.0575    1.1767   10.1732 C   0  0  0  0  0  0  0  0  0  0  0  0
   -0.7983   -0.1788    9.6025 O   0  0  0  0  0  0  0  0  0  0  0  0
   -1.6727    0.6704    8.8943 C   0  0  0  0  0  0  0  0  0  0  0  0
    4.6243    0.9245   19.0908 N   0  0  0  0  0  0  0  0  0  0  0  0
    4.9936   -0.0722   19.0621 H   0  0  0  0  0  0  0  0  0  0  0  0
    4.5389    1.5854   20.3596 C   0  0  0  0  0  0  0  0  0  0  0  0
    5.7673    1.3492   21.1618 C   0  0  0  0  0  0  0  0  0  0  0  0
    5.5508    3.7835   21.1823 C   0  0  0  0  0  0  0  0  0  0  0  0
    6.2294    2.6153   21.8690 C   0  0  0  0  0  0  0  0  0  0  0  0
    4.8301    4.7372   16.1819 N   0  0  0  0  0  0  0  0  0  0  0  0
    5.4064    4.9517   15.3661 H   0  0  0  0  0  0  0  0  0  0  0  0
    4.5679    5.8740   17.0560 C   0  0  0  0  0  0  0  0  0  0  0  0
    3.2866    5.8152   17.7915 C   0  0  0  0  0  0  0  0  0  0  0  0
    3.3858    6.1728   19.2477 C   0  0  0  0  0  0  0  0  0  0  0  0
    4.2491    7.3564   19.5318 C   0  0  0  0  0  0  0  0  0  0  0  0
    3.5276    8.5667   19.5257 O   0  0  0  0  0  0  0  0  0  0  0  0
    5.4221    7.5173   18.6020 C   0  0  0  0  0  0  0  0  0  0  0  0
    5.7068    6.1151   18.0406 C   0  0  0  0  0  0  0  0  0  0  0  0
    3.2567    8.8280   18.6086 H   0  0  0  0  0  0  0  0  0  0  0  0
 27 28  1  0  0  0
 28 26  1  0  0  0
 26 25  1  0  0  0
 25 23  1  0  0  0
 23  1  1  0  0  0
  1  2  2  0  0  0
  2  3  1  0  0  0
  3  4  2  0  0  0
  4  5  1  0  0  0
  5 29  1  0  0  0
 29 31  1  0  0  0
 31 32  1  0  0  0
 32 33  1  0  0  0
 33 34  1  0  0  0
 34 35  1  0  0  0
 34 36  1  0  0  0
 36 37  1  0  0  0
  5  6  2  0  0  0
  4  7  1  0  0  0
  7  8  2  0  0  0
  8  9  1  0  0  0
  9 13  1  0  0  0
 13 15  1  0  0  0
 15 16  2  0  0  0
 16 17  1  0  0  0
 17 18  2  0  0  0
 18 19  1  0  0  0
 19 21  1  0  0  0
 21 22  1  0  0  0
 19 20  2  0  0  0
  9 10  2  0  0  0
 10 11  1  0  0  0
 11 12  2  0  0  0
  6  1  1  0  0  0
 12  7  1  0  0  0
 37 31  1  0  0  0
 20 15  1  0  0  0
 23 24  1  0  0  0
 29 30  1  0  0  0
 35 38  1  0  0  0
 13 14  1  0  0  0
M  END
> <minimizedAffinity>
-7.27939

> <CNNscore>
0.3270417154

> <CNNaffinity>
6.7266616821

> <CNN_VS>
2.1998989582

> <CNNaffinity_variance>
0.4215850830

$$$$
[H]c1nc(N([H])[H])c(C(=O)N([H])[C@@]2([H])C([H])([H])C([H])([H])C([H])([H])[C@]2([H])OC([H])([H])c2c([H])c(C([H])([H])[H])c([H])c([H])c2C([H])([H])[H])c([H])c1-c1c([H])nn(C([H])([H])[H])c1[H]


 34 37  0  0  0  0  0  0  0  0999 V2000
    4.0001    3.1584   20.4309 N   0  0  0  0  0  0  0  0  0  0  0  0
    4.3436    1.9708   19.7655 C   0  0  0  0  0  0  0  0  0  0  0  0
    5.2105    1.2173   20.1640 O   0  0  0  0  0  0  0  0  0  0  0  0
    3.2648    3.7750   19.9508 H   0  0  0  0  0  0  0  0  0  0  0  0
    3.6520    1.5806   18.5183 C   0  0  0  0  0  0  0  0  0  0  0  0
    3.7046    2.3195   17.3203 C   0  0  0  0  0  0  0  0  0  0  0  0
    3.1067    1.8307   16.1811 C   0  0  0  0  0  0  0  0  0  0  0  0
    2.4436    0.5879   16.2505 C   0  0  0  0  0  0  0  0  0  0  0  0
    2.4015   -0.1010   17.3946 N   0  0  0  0  0  0  0  0  0  0  0  0
    2.9879    0.3575   18.5262 C   0  0  0  0  0  0  0  0  0  0  0  0
    2.8502   -0.5161   19.6156 N   0  0  0  0  0  0  0  0  0  0  0  0
    1.8872   -0.6517   20.0695 H   0  0  0  0  0  0  0  0  0  0  0  0
    3.6384   -1.0702   20.0314 H   0  0  0  0  0  0  0  0  0  0  0  0
    3.2620    2.3924   14.8442 C   0  0  0  0  0  0  0  0  0  0  0  0
    3.9315    3.5417   14.4861 C   0  0  0  0  0  0  0  0  0  0  0  0
    3.6757    3.7717   13.1547 N   0  0  0  0  0  0  0  0  0  0  0  0
    2.8825    2.8237   12.6688 N   0  0  0  0  0  0  0  0  0  0  0  0
    2.3559    2.7491   11.2944 C   0  0  0  0  0  0  0  0  0  0  0  0
    2.6176    1.9692   13.6963 C   0  0  0  0  0  0  0  0  0  0  0  0
    5.9713    3.4796   21.9556 C   0  0  0  0  0  0  0  0  0  0  0  0
    5.9330    2.8200   23.4588 C   0  0  0  0  0  0  0  0  0  0  0  0
    4.7854    1.8966   23.3325 C   0  0  0  0  0  0  0  0  0  0  0  0
    3.7386    2.9231   22.7958 C   0  0  0  0  0  0  0  0  0  0  0  0
    4.5310    3.6221   21.6606 C   0  0  0  0  0  0  0  0  0  0  0  0
    6.6455    4.5422   22.1304 O   0  0  0  0  0  0  0  0  0  0  0  0
    7.1506    5.6824   22.1159 C   0  0  0  0  0  0  0  0  0  0  0  0
    3.9082    8.0898   19.0139 C   0  0  0  0  0  0  0  0  0  0  0  0
    4.8301    8.0398   20.1894 C   0  0  0  0  0  0  0  0  0  0  0  0
    4.9020    9.1219   21.0602 C   0  0  0  0  0  0  0  0  0  0  0  0
    5.6802    9.0950   22.1894 C   0  0  0  0  0  0  0  0  0  0  0  0
    6.4125    7.9844   22.4659 C   0  0  0  0  0  0  0  0  0  0  0  0
    7.3288    7.8670   23.6426 C   0  0  0  0  0  0  0  0  0  0  0  0
    6.3530    6.8661   21.5900 C   0  0  0  0  0  0  0  0  0  0  0  0
    5.5931    6.9028   20.5078 C   0  0  0  0  0  0  0  0  0  0  0  0
 27 28  1  0  0  0
 28 29  2  0  0  0
 29 30  1  0  0  0
 30 31  2  0  0  0
 31 32  1  0  0  0
 31 33  1  0  0  0
 33 26  1  0  0  0
 26 25  1  0  0  0
 25 20  1  0  0  0
 20 21  1  0  0  0
 21 22  1  0  0  0
 22 23  1  0  0  0
 23 24  1  0  0  0
 24  1  1  0  0  0
  1  2  1  0  0  0
  2  3  2  0  0  0
  2  5  1  0  0  0
  5  6  2  0  0  0
  6  7  1  0  0  0
  7  8  2  0  0  0
  8  9  1  0  0  0
  9 10  2  0  0  0
 10 11  1  0  0  0
  7 14  1  0  0  0
 14 15  1  0  0  0
 15 16  2  0  0  0
 16 17  1  0  0  0
 17 18  1  0  0  0
 17 19  1  0  0  0
 33 34  2  0  0  0
 34 28  1  0  0  0
 24 20  1  0  0  0
 10  5  1  0  0  0
 19 14  2  0  0  0
  1  4  1  0  0  0
 11 12  1  0  0  0
 11 13  1  0  0  0
M  END
> <minimizedAffinity>
-9.32728

> <CNNscore>
0.7225659490

> <CNNaffinity>
7.1286673546

> <CNN_VS>
5.1509323120

> <CNNaffinity_variance>
0.2274540216

$$$$
[H]c1nc(N([H])[H])c(C(=O)N([H])[C@@]2([H])C([H])([H])C([H])([H])C([H])([H])[C@]2([H])OC([H])([H])c2c([H])c(C([H])([H])[H])c([H])c([H])c2C([H])([H])[H])c([H])c1-c1c([H])nn(C([H])([H])[H])c1[H]


 34 37  0  0  0  0  0  0  0  0999 V2000
    3.9051    3.1161   19.2927 N   0  0  0  0  0  0  0  0  0  0  0  0
    4.2686    2.1968   18.2957 C   0  0  0  0  0  0  0  0  0  0  0  0
    5.0684    1.3007   18.4834 O   0  0  0  0  0  0  0  0  0  0  0  0
    3.2390    3.9021   18.9925 H   0  0  0  0  0  0  0  0  0  0  0  0
    3.6833    2.2863   16.9409 C   0  0  0  0  0  0  0  0  0  0  0  0
    3.8202    3.4021   16.0923 C   0  0  0  0  0  0  0  0  0  0  0  0
    3.3212    3.3596   14.8103 C   0  0  0  0  0  0  0  0  0  0  0  0
    2.6720    2.1835   14.3806 C   0  0  0  0  0  0  0  0  0  0  0  0
    2.5492    1.1335   15.1976 N   0  0  0  0  0  0  0  0  0  0  0  0
    3.0378    1.1505   16.4607 C   0  0  0  0  0  0  0  0  0  0  0  0
    2.8265   -0.0512   17.1536 N   0  0  0  0  0  0  0  0  0  0  0  0
    1.8326   -0.3248   17.4520 H   0  0  0  0  0  0  0  0  0  0  0  0
    3.5870   -0.7288   17.4058 H   0  0  0  0  0  0  0  0  0  0  0  0
    3.5738    4.3577   13.7775 C   0  0  0  0  0  0  0  0  0  0  0  0
    4.1041    4.1551   12.5224 C   0  0  0  0  0  0  0  0  0  0  0  0
    4.3184    5.3913   11.9594 N   0  0  0  0  0  0  0  0  0  0  0  0
    3.9476    6.3497   12.8006 N   0  0  0  0  0  0  0  0  0  0  0  0
    4.0619    7.8011   12.5718 C   0  0  0  0  0  0  0  0  0  0  0  0
    3.4896    5.7300   13.9241 C   0  0  0  0  0  0  0  0  0  0  0  0
    5.7708    3.2134   20.9728 C   0  0  0  0  0  0  0  0  0  0  0  0
    5.9496    1.9775   22.0390 C   0  0  0  0  0  0  0  0  0  0  0  0
    5.0767    0.9513   21.4303 C   0  0  0  0  0  0  0  0  0  0  0  0
    3.7844    1.8171   21.2963 C   0  0  0  0  0  0  0  0  0  0  0  0
    4.3346    3.1118   20.6435 C   0  0  0  0  0  0  0  0  0  0  0  0
    6.1521    4.2228   21.6438 O   0  0  0  0  0  0  0  0  0  0  0  0
    6.4497    5.3482   22.0912 C   0  0  0  0  0  0  0  0  0  0  0  0
   11.4735    5.3622   22.9232 C   0  0  0  0  0  0  0  0  0  0  0  0
   10.2296    5.9141   22.3048 C   0  0  0  0  0  0  0  0  0  0  0  0
   10.3176    6.9310   21.3602 C   0  0  0  0  0  0  0  0  0  0  0  0
    9.2107    7.4208   20.7149 C   0  0  0  0  0  0  0  0  0  0  0  0
    7.9878    6.9078   21.0102 C   0  0  0  0  0  0  0  0  0  0  0  0
    6.7130    7.4002   20.4015 C   0  0  0  0  0  0  0  0  0  0  0  0
    7.8747    5.8668   21.9719 C   0  0  0  0  0  0  0  0  0  0  0  0
    8.9512    5.3989   22.5819 C   0  0  0  0  0  0  0  0  0  0  0  0
 27 28  1  0  0  0
 28 29  2  0  0  0
 29 30  1  0  0  0
 30 31  2  0  0  0
 31 32  1  0  0  0
 31 33  1  0  0  0
 33 26  1  0  0  0
 26 25  1  0  0  0
 25 20  1  0  0  0
 20 21  1  0  0  0
 21 22  1  0  0  0
 22 23  1  0  0  0
 23 24  1  0  0  0
 24  1  1  0  0  0
  1  2  1  0  0  0
  2  3  2  0  0  0
  2  5  1  0  0  0
  5  6  2  0  0  0
  6  7  1  0  0  0
  7  8  2  0  0  0
  8  9  1  0  0  0
  9 10  2  0  0  0
 10 11  1  0  0  0
  7 14  1  0  0  0
 14 15  1  0  0  0
 15 16  2  0  0  0
 16 17  1  0  0  0
 17 18  1  0  0  0
 17 19  1  0  0  0
 33 34  2  0  0  0
 34 28  1  0  0  0
 24 20  1  0  0  0
 10  5  1  0  0  0
 19 14  2  0  0  0
  1  4  1  0  0  0
 11 12  1  0  0  0
 11 13  1  0  0  0
M  END
> <minimizedAffinity>
-8.27538

> <CNNscore>
0.5030110478

> <CNNaffinity>
6.7313828468

> <CNN_VS>
3.3859598637

> <CNNaffinity_variance>
0.1399879307

$$$$
[H]c1nc(N([H])[H])c(C(=O)N([H])[C@@]2([H])C([H])([H])C([H])([H])C([H])([H])[C@]2([H])OC([H])([H])c2c([H])c(C([H])([H])[H])c([H])c([H])c2C([H])([H])[H])c([H])c1-c1c([H])nn(C([H])([H])[H])c1[H]


 34 37  0  0  0  0  0  0  0  0999 V2000
    5.1053    6.5911   19.0065 N   0  0  0  0  0  0  0  0  0  0  0  0
    5.7209    5.7822   18.0381 C   0  0  0  0  0  0  0  0  0  0  0  0
    6.8587    5.9652   17.6509 O   0  0  0  0  0  0  0  0  0  0  0  0
    4.0770    6.3730   19.2220 H   0  0  0  0  0  0  0  0  0  0  0  0
    4.9906    4.6497   17.4298 C   0  0  0  0  0  0  0  0  0  0  0  0
    4.7872    3.4081   18.0630 C   0  0  0  0  0  0  0  0  0  0  0  0
    4.0134    2.4436   17.4587 C   0  0  0  0  0  0  0  0  0  0  0  0
    3.4436    2.7301   16.2006 C   0  0  0  0  0  0  0  0  0  0  0  0
    3.6464    3.9124   15.6122 N   0  0  0  0  0  0  0  0  0  0  0  0
    4.3990    4.8784   16.1909 C   0  0  0  0  0  0  0  0  0  0  0  0
    4.4778    6.0527   15.4268 N   0  0  0  0  0  0  0  0  0  0  0  0
    5.0332    6.0528   14.5085 H   0  0  0  0  0  0  0  0  0  0  0  0
    4.0165    6.9586   15.6871 H   0  0  0  0  0  0  0  0  0  0  0  0
    3.5627    1.2099   18.0924 C   0  0  0  0  0  0  0  0  0  0  0  0
    2.7505    0.2354   17.5556 C   0  0  0  0  0  0  0  0  0  0  0  0
    2.4536   -0.6553   18.5604 N   0  0  0  0  0  0  0  0  0  0  0  0
    3.0406   -0.2834   19.6922 N   0  0  0  0  0  0  0  0  0  0  0  0
    2.9252   -0.9607   20.9960 C   0  0  0  0  0  0  0  0  0  0  0  0
    3.7246    0.8632   19.4211 C   0  0  0  0  0  0  0  0  0  0  0  0
    5.1501    8.1021   21.0135 C   0  0  0  0  0  0  0  0  0  0  0  0
    5.0465    9.7259   20.7922 C   0  0  0  0  0  0  0  0  0  0  0  0
    4.6066    9.7909   19.3823 C   0  0  0  0  0  0  0  0  0  0  0  0
    5.7213    8.8887   18.7651 C   0  0  0  0  0  0  0  0  0  0  0  0
    5.7022    7.6635   19.7157 C   0  0  0  0  0  0  0  0  0  0  0  0
    5.8978    8.0035   22.0361 O   0  0  0  0  0  0  0  0  0  0  0  0
    6.7990    7.7946   22.8724 C   0  0  0  0  0  0  0  0  0  0  0  0
   11.5058    9.5728   22.0879 C   0  0  0  0  0  0  0  0  0  0  0  0
   10.4747    8.4910   22.0611 C   0  0  0  0  0  0  0  0  0  0  0  0
   10.8474    7.1856   21.7589 C   0  0  0  0  0  0  0  0  0  0  0  0
    9.9505    6.1484   21.7902 C   0  0  0  0  0  0  0  0  0  0  0  0
    8.6555    6.3989   22.1160 C   0  0  0  0  0  0  0  0  0  0  0  0
    7.5875    5.3515   22.1344 C   0  0  0  0  0  0  0  0  0  0  0  0
    8.2527    7.7258   22.4298 C   0  0  0  0  0  0  0  0  0  0  0  0
    9.1295    8.7159   22.4024 C   0  0  0  0  0  0  0  0  0  0  0  0
 27 28  1  0  0  0
 28 29  2  0  0  0
 29 30  1  0  0  0
 30 31  2  0  0  0
 31 32  1  0  0  0
 31 33  1  0  0  0
 33 26  1  0  0  0
 26 25  1  0  0  0
 25 20  1  0  0  0
 20 21  1  0  0  0
 21 22  1  0  0  0
 22 23  1  0  0  0
 23 24  1  0  0  0
 24  1  1  0  0  0
  1  2  1  0  0  0
  2  3  2  0  0  0
  2  5  1  0  0  0
  5  6  2  0  0  0
  6  7  1  0  0  0
  7  8  2  0  0  0
  8  9  1  0  0  0
  9 10  2  0  0  0
 10 11  1  0  0  0
  7 14  1  0  0  0
 14 15  1  0  0  0
 15 16  2  0  0  0
 16 17  1  0  0  0
 17 18  1  0  0  0
 17 19  1  0  0  0
 33 34  2  0  0  0
 34 28  1  0  0  0
 24 20  1  0  0  0
 10  5  1  0  0  0
 19 14  2  0  0  0
  1  4  1  0  0  0
 11 12  1  0  0  0
 11 13  1  0  0  0
M  END
> <minimizedAffinity>
-7.83493

> <CNNscore>
0.5027617812

> <CNNaffinity>
6.5537018776

> <CNN_VS>
3.2949507236

> <CNNaffinity_variance>
0.2157347947

$$$$
[H]c1nc(N([H])[H])c(C(=O)N([H])[C@@]2([H])C([H])([H])C([H])([H])C([H])([H])[C@]2([H])OC([H])([H])c2c([H])c(C([H])([H])[H])c([H])c([H])c2C([H])([H])[H])c([H])c1-c1c([H])nn(C([H])([H])[H])c1[H]


 34 37  0  0  0  0  0  0  0  0999 V2000
    4.1928    6.8454   17.6646 N   0  0  0  0  0  0  0  0  0  0  0  0
    5.0777    5.8614   17.1959 C   0  0  0  0  0  0  0  0  0  0  0  0
    6.2814    6.0252   17.1458 O   0  0  0  0  0  0  0  0  0  0  0  0
    3.1474    6.6113   17.6020 H   0  0  0  0  0  0  0  0  0  0  0  0
    4.5692    4.5547   16.7267 C   0  0  0  0  0  0  0  0  0  0  0  0
    4.4013    3.4277   17.5546 C   0  0  0  0  0  0  0  0  0  0  0  0
    3.8320    2.2802   17.0513 C   0  0  0  0  0  0  0  0  0  0  0  0
    3.4333    2.2654   15.6984 C   0  0  0  0  0  0  0  0  0  0  0  0
    3.6000    3.3423   14.9253 N   0  0  0  0  0  0  0  0  0  0  0  0
    4.1521    4.4841   15.4006 C   0  0  0  0  0  0  0  0  0  0  0  0
    4.2244    5.5063   14.4421 N   0  0  0  0  0  0  0  0  0  0  0  0
    4.9099    5.4174   13.6212 H   0  0  0  0  0  0  0  0  0  0  0  0
    3.6379    6.3763   14.4614 H   0  0  0  0  0  0  0  0  0  0  0  0
    3.4201    1.1289   17.8460 C   0  0  0  0  0  0  0  0  0  0  0  0
    2.5854    0.1002   17.4685 C   0  0  0  0  0  0  0  0  0  0  0  0
    2.3448   -0.6677   18.5836 N   0  0  0  0  0  0  0  0  0  0  0  0
    2.9880   -0.1684   19.6328 N   0  0  0  0  0  0  0  0  0  0  0  0
    2.9434   -0.6900   21.0104 C   0  0  0  0  0  0  0  0  0  0  0  0
    3.6521    0.9380   19.1957 C   0  0  0  0  0  0  0  0  0  0  0  0
    3.7616    8.6943   19.3104 C   0  0  0  0  0  0  0  0  0  0  0  0
    3.4836   10.2125   18.7500 C   0  0  0  0  0  0  0  0  0  0  0  0
    3.2415    9.9442   17.3165 C   0  0  0  0  0  0  0  0  0  0  0  0
    4.5380    9.1237   17.0272 C   0  0  0  0  0  0  0  0  0  0  0  0
    4.5422    8.1101   18.2009 C   0  0  0  0  0  0  0  0  0  0  0  0
    4.3645    8.9047   20.4089 O   0  0  0  0  0  0  0  0  0  0  0  0
    5.0638    8.8768   21.4412 C   0  0  0  0  0  0  0  0  0  0  0  0
    5.9868    3.8829   21.8156 C   0  0  0  0  0  0  0  0  0  0  0  0
    6.3773    5.3186   21.9585 C   0  0  0  0  0  0  0  0  0  0  0  0
    7.6879    5.6512   22.2838 C   0  0  0  0  0  0  0  0  0  0  0  0
    8.1097    6.9543   22.3575 C   0  0  0  0  0  0  0  0  0  0  0  0
    7.2227    7.9548   22.1160 C   0  0  0  0  0  0  0  0  0  0  0  0
    7.5645    9.4079   22.2153 C   0  0  0  0  0  0  0  0  0  0  0  0
    5.8780    7.6376   21.7805 C   0  0  0  0  0  0  0  0  0  0  0  0
    5.4862    6.3763   21.7063 C   0  0  0  0  0  0  0  0  0  0  0  0
 27 28  1  0  0  0
 28 29  2  0  0  0
 29 30  1  0  0  0
 30 31  2  0  0  0
 31 32  1  0  0  0
 31 33  1  0  0  0
 33 26  1  0  0  0
 26 25  1  0  0  0
 25 20  1  0  0  0
 20 21  1  0  0  0
 21 22  1  0  0  0
 22 23  1  0  0  0
 23 24  1  0  0  0
 24  1  1  0  0  0
  1  2  1  0  0  0
  2  3  2  0  0  0
  2  5  1  0  0  0
  5  6  2  0  0  0
  6  7  1  0  0  0
  7  8  2  0  0  0
  8  9  1  0  0  0
  9 10  2  0  0  0
 10 11  1  0  0  0
  7 14  1  0  0  0
 14 15  1  0  0  0
 15 16  2  0  0  0
 16 17  1  0  0  0
 17 18  1  0  0  0
 17 19  1  0  0  0
 33 34  2  0  0  0
 34 28  1  0  0  0
 24 20  1  0  0  0
 10  5  1  0  0  0
 19 14  2  0  0  0
  1  4  1  0  0  0
 11 12  1  0  0  0
 11 13  1  0  0  0
M  END
> <minimizedAffinity>
-8.62135

> <CNNscore>
0.4889585376

> <CNNaffinity>
6.5678200722

> <CNN_VS>
3.2113916874

> <CNNaffinity_variance>
0.4891838431

$$$$
[H]c1nc(N([H])[H])c(C(=O)N([H])[C@@]2([H])C([H])([H])C([H])([H])C([H])([H])[C@]2([H])OC([H])([H])c2c([H])c(C([H])([H])[H])c([H])c([H])c2C([H])([H])[H])c([H])c1-c1c([H])nn(C([H])([H])[H])c1[H]


 34 37  0  0  0  0  0  0  0  0999 V2000
    4.3706    5.1688   16.2410 N   0  0  0  0  0  0  0  0  0  0  0  0
    4.1526    3.7943   16.0554 C   0  0  0  0  0  0  0  0  0  0  0  0
    4.5494    2.9512   16.8362 O   0  0  0  0  0  0  0  0  0  0  0  0
    4.0302    5.8132   15.4535 H   0  0  0  0  0  0  0  0  0  0  0  0
    3.4184    3.3028   14.8699 C   0  0  0  0  0  0  0  0  0  0  0  0
    3.7276    3.6610   13.5433 C   0  0  0  0  0  0  0  0  0  0  0  0
    3.0499    3.0802   12.4956 C   0  0  0  0  0  0  0  0  0  0  0  0
    2.0460    2.1333   12.7872 C   0  0  0  0  0  0  0  0  0  0  0  0
    1.7635    1.8044   14.0510 N   0  0  0  0  0  0  0  0  0  0  0  0
    2.4215    2.3584   15.0972 C   0  0  0  0  0  0  0  0  0  0  0  0
    1.9947    1.8711   16.3420 N   0  0  0  0  0  0  0  0  0  0  0  0
    1.0202    2.1314   16.7087 H   0  0  0  0  0  0  0  0  0  0  0  0
    2.5688    1.2470   16.9601 H   0  0  0  0  0  0  0  0  0  0  0  0
    3.4092    3.2100   11.0882 C   0  0  0  0  0  0  0  0  0  0  0  0
    3.1137    2.3422   10.0602 C   0  0  0  0  0  0  0  0  0  0  0  0
    3.7909    2.7764    8.9448 N   0  0  0  0  0  0  0  0  0  0  0  0
    4.4903    3.8692    9.2284 N   0  0  0  0  0  0  0  0  0  0  0  0
    5.3737    4.6017    8.3038 C   0  0  0  0  0  0  0  0  0  0  0  0
    4.2676    4.1472   10.5434 C   0  0  0  0  0  0  0  0  0  0  0  0
    4.3785    5.7151   18.6935 C   0  0  0  0  0  0  0  0  0  0  0  0
    4.4385    7.2882   19.1602 C   0  0  0  0  0  0  0  0  0  0  0  0
    4.1275    7.9723   17.8871 C   0  0  0  0  0  0  0  0  0  0  0  0
    5.2062    7.2772   16.9979 C   0  0  0  0  0  0  0  0  0  0  0  0
    4.9978    5.7823   17.3543 C   0  0  0  0  0  0  0  0  0  0  0  0
    5.0248    5.1228   19.6131 O   0  0  0  0  0  0  0  0  0  0  0  0
    5.5038    4.3388   20.4566 C   0  0  0  0  0  0  0  0  0  0  0  0
    3.3190   -0.2609   20.4387 C   0  0  0  0  0  0  0  0  0  0  0  0
    3.6321    1.0567   21.0713 C   0  0  0  0  0  0  0  0  0  0  0  0
    3.2805    1.2902   22.3964 C   0  0  0  0  0  0  0  0  0  0  0  0
    3.6083    2.4562   23.0403 C   0  0  0  0  0  0  0  0  0  0  0  0
    4.2886    3.4195   22.3657 C   0  0  0  0  0  0  0  0  0  0  0  0
    4.6544    4.7444   22.9564 C   0  0  0  0  0  0  0  0  0  0  0  0
    4.6593    3.2014   21.0106 C   0  0  0  0  0  0  0  0  0  0  0  0
    4.3426    2.0695   20.4036 C   0  0  0  0  0  0  0  0  0  0  0  0
 27 28  1  0  0  0
 28 29  2  0  0  0
 29 30  1  0  0  0
 30 31  2  0  0  0
 31 32  1  0  0  0
 31 33  1  0  0  0
 33 26  1  0  0  0
 26 25  1  0  0  0
 25 20  1  0  0  0
 20 21  1  0  0  0
 21 22  1  0  0  0
 22 23  1  0  0  0
 23 24  1  0  0  0
 24  1  1  0  0  0
  1  2  1  0  0  0
  2  3  2  0  0  0
  2  5  1  0  0  0
  5  6  2  0  0  0
  6  7  1  0  0  0
  7  8  2  0  0  0
  8  9  1  0  0  0
  9 10  2  0  0  0
 10 11  1  0  0  0
  7 14  1  0  0  0
 14 15  1  0  0  0
 15 16  2  0  0  0
 16 17  1  0  0  0
 17 18  1  0  0  0
 17 19  1  0  0  0
 33 34  2  0  0  0
 34 28  1  0  0  0
 24 20  1  0  0  0
 10  5  1  0  0  0
 19 14  2  0  0  0
  1  4  1  0  0  0
 11 12  1  0  0  0
 11 13  1  0  0  0
M  END
> <minimizedAffinity>
-7.86399

> <CNNscore>
0.4725678265

> <CNNaffinity>
6.6262626648

> <CNN_VS>
3.1313586235

> <CNNaffinity_variance>
0.2571360767

$$$$
[H]c1nc(N([H])[H])c(C(=O)N([H])[C@@]2([H])C([H])([H])C([H])([H])C([H])([H])[C@]2([H])OC([H])([H])c2c([H])c(C([H])([H])[H])c([H])c([H])c2C([H])([H])[H])c([H])c1-c1c([H])nn(C([H])([H])[H])c1[H]


 34 37  0  0  0  0  0  0  0  0999 V2000
    3.8117    4.0153   13.4793 N   0  0  0  0  0  0  0  0  0  0  0  0
    2.9243    3.9412   14.5647 C   0  0  0  0  0  0  0  0  0  0  0  0
    1.9232    4.6261   14.6475 O   0  0  0  0  0  0  0  0  0  0  0  0
    4.6944    3.4090   13.5465 H   0  0  0  0  0  0  0  0  0  0  0  0
    3.1800    3.0079   15.6826 C   0  0  0  0  0  0  0  0  0  0  0  0
    3.9533    3.3248   16.8163 C   0  0  0  0  0  0  0  0  0  0  0  0
    4.0595    2.4255   17.8527 C   0  0  0  0  0  0  0  0  0  0  0  0
    3.3848    1.1917   17.7436 C   0  0  0  0  0  0  0  0  0  0  0  0
    2.6556    0.9052   16.6613 N   0  0  0  0  0  0  0  0  0  0  0  0
    2.5319    1.7771   15.6323 C   0  0  0  0  0  0  0  0  0  0  0  0
    1.7113    1.3020   14.5979 N   0  0  0  0  0  0  0  0  0  0  0  0
    2.0497    0.4918   13.9809 H   0  0  0  0  0  0  0  0  0  0  0  0
    0.7595    1.6842   14.3766 H   0  0  0  0  0  0  0  0  0  0  0  0
    4.6535    2.7100   19.1538 C   0  0  0  0  0  0  0  0  0  0  0  0
    5.1319    3.9164   19.6155 C   0  0  0  0  0  0  0  0  0  0  0  0
    5.7506    3.6821   20.8211 N   0  0  0  0  0  0  0  0  0  0  0  0
    5.6797    2.3926   21.1308 N   0  0  0  0  0  0  0  0  0  0  0  0
    6.2618    1.7503   22.3227 C   0  0  0  0  0  0  0  0  0  0  0  0
    5.0098    1.7812   20.1142 C   0  0  0  0  0  0  0  0  0  0  0  0
    2.6448    4.4683   11.3006 C   0  0  0  0  0  0  0  0  0  0  0  0
    3.5304    4.5318    9.9194 C   0  0  0  0  0  0  0  0  0  0  0  0
    4.8075    3.9434   10.3758 C   0  0  0  0  0  0  0  0  0  0  0  0
    5.0415    4.8657   11.6135 C   0  0  0  0  0  0  0  0  0  0  0  0
    3.6603    4.8120   12.3166 C   0  0  0  0  0  0  0  0  0  0  0  0
    1.7200    5.3117   11.0823 O   0  0  0  0  0  0  0  0  0  0  0  0
    0.8146    6.0383   10.6263 C   0  0  0  0  0  0  0  0  0  0  0  0
   -2.9694    7.1806   13.8369 C   0  0  0  0  0  0  0  0  0  0  0  0
   -2.4059    6.4665   12.6508 C   0  0  0  0  0  0  0  0  0  0  0  0
   -3.2476    5.7417   11.8139 C   0  0  0  0  0  0  0  0  0  0  0  0
   -2.7885    5.1283   10.6762 C   0  0  0  0  0  0  0  0  0  0  0  0
   -1.4710    5.2199   10.3571 C   0  0  0  0  0  0  0  0  0  0  0  0
   -0.8575    4.5513    9.1677 C   0  0  0  0  0  0  0  0  0  0  0  0
   -0.5927    5.9569   11.1977 C   0  0  0  0  0  0  0  0  0  0  0  0
   -1.0500    6.5493   12.2886 C   0  0  0  0  0  0  0  0  0  0  0  0
 27 28  1  0  0  0
 28 29  2  0  0  0
 29 30  1  0  0  0
 30 31  2  0  0  0
 31 32  1  0  0  0
 31 33  1  0  0  0
 33 26  1  0  0  0
 26 25  1  0  0  0
 25 20  1  0  0  0
 20 21  1  0  0  0
 21 22  1  0  0  0
 22 23  1  0  0  0
 23 24  1  0  0  0
 24  1  1  0  0  0
  1  2  1  0  0  0
  2  3  2  0  0  0
  2  5  1  0  0  0
  5  6  2  0  0  0
  6  7  1  0  0  0
  7  8  2  0  0  0
  8  9  1  0  0  0
  9 10  2  0  0  0
 10 11  1  0  0  0
  7 14  1  0  0  0
 14 15  1  0  0  0
 15 16  2  0  0  0
 16 17  1  0  0  0
 17 18  1  0  0  0
 17 19  1  0  0  0
 33 34  2  0  0  0
 34 28  1  0  0  0
 24 20  1  0  0  0
 10  5  1  0  0  0
 19 14  2  0  0  0
  1  4  1  0  0  0
 11 12  1  0  0  0
 11 13  1  0  0  0
M  END
> <minimizedAffinity>
-7.58372

> <CNNscore>
0.4397356212

> <CNNaffinity>
6.2877230644

> <CNN_VS>
2.7649357319

> <CNNaffinity_variance>
0.5441795588

$$$$
[H]c1nc(N([H])[H])c(C(=O)N([H])[C@@]2([H])C([H])([H])C([H])([H])C([H])([H])[C@]2([H])OC([H])([H])c2c([H])c(C([H])([H])[H])c([H])c([H])c2C([H])([H])[H])c([H])c1-c1c([H])nn(C([H])([H])[H])c1[H]


 34 37  0  0  0  0  0  0  0  0999 V2000
    3.3023    4.0375   14.5846 N   0  0  0  0  0  0  0  0  0  0  0  0
    2.7611    4.0636   15.8797 C   0  0  0  0  0  0  0  0  0  0  0  0
    1.7674    4.7020   16.1677 O   0  0  0  0  0  0  0  0  0  0  0  0
    4.2178    3.4908   14.4644 H   0  0  0  0  0  0  0  0  0  0  0  0
    3.3965    3.3012   16.9757 C   0  0  0  0  0  0  0  0  0  0  0  0
    4.2091    3.8766   17.9718 C   0  0  0  0  0  0  0  0  0  0  0  0
    4.6817    3.1043   19.0084 C   0  0  0  0  0  0  0  0  0  0  0  0
    4.3374    1.7369   19.0387 C   0  0  0  0  0  0  0  0  0  0  0  0
    3.5662    1.2053   18.0859 N   0  0  0  0  0  0  0  0  0  0  0  0
    3.0850    1.9473   17.0601 C   0  0  0  0  0  0  0  0  0  0  0  0
    2.2812    1.2139   16.1741 N   0  0  0  0  0  0  0  0  0  0  0  0
    2.7291    0.4737   15.5390 H   0  0  0  0  0  0  0  0  0  0  0  0
    1.2422    1.3310   16.0846 H   0  0  0  0  0  0  0  0  0  0  0  0
    5.3537    3.6152   20.1976 C   0  0  0  0  0  0  0  0  0  0  0  0
    5.6967    2.9190   21.3356 C   0  0  0  0  0  0  0  0  0  0  0  0
    6.1552    3.8316   22.2564 N   0  0  0  0  0  0  0  0  0  0  0  0
    6.1147    5.0577   21.7476 N   0  0  0  0  0  0  0  0  0  0  0  0
    6.4858    6.3021   22.4443 C   0  0  0  0  0  0  0  0  0  0  0  0
    5.6219    4.9413   20.4828 C   0  0  0  0  0  0  0  0  0  0  0  0
    1.5347    4.1451   12.8021 C   0  0  0  0  0  0  0  0  0  0  0  0
    1.9853    4.0594   11.2254 C   0  0  0  0  0  0  0  0  0  0  0  0
    3.3814    3.5911   11.3561 C   0  0  0  0  0  0  0  0  0  0  0  0
    3.8831    4.6801   12.3560 C   0  0  0  0  0  0  0  0  0  0  0  0
    2.7660    4.6639   13.4316 C   0  0  0  0  0  0  0  0  0  0  0  0
    0.5227    4.9124   12.7654 O   0  0  0  0  0  0  0  0  0  0  0  0
   -0.4615    5.6447   12.9903 C   0  0  0  0  0  0  0  0  0  0  0  0
   -3.5181    3.5151    9.5186 C   0  0  0  0  0  0  0  0  0  0  0  0
   -3.2310    4.4930   10.6120 C   0  0  0  0  0  0  0  0  0  0  0  0
   -4.2622    5.2592   11.1448 C   0  0  0  0  0  0  0  0  0  0  0  0
   -4.0609    6.1184   12.1949 C   0  0  0  0  0  0  0  0  0  0  0  0
   -2.8170    6.2358   12.7287 C   0  0  0  0  0  0  0  0  0  0  0  0
   -2.4778    7.1756   13.8421 C   0  0  0  0  0  0  0  0  0  0  0  0
   -1.7483    5.4611   12.2004 C   0  0  0  0  0  0  0  0  0  0  0  0
   -1.9578    4.6313   11.1917 C   0  0  0  0  0  0  0  0  0  0  0  0
 27 28  1  0  0  0
 28 29  2  0  0  0
 29 30  1  0  0  0
 30 31  2  0  0  0
 31 32  1  0  0  0
 31 33  1  0  0  0
 33 26  1  0  0  0
 26 25  1  0  0  0
 25 20  1  0  0  0
 20 21  1  0  0  0
 21 22  1  0  0  0
 22 23  1  0  0  0
 23 24  1  0  0  0
 24  1  1  0  0  0
  1  2  1  0  0  0
  2  3  2  0  0  0
  2  5  1  0  0  0
  5  6  2  0  0  0
  6  7  1  0  0  0
  7  8  2  0  0  0
  8  9  1  0  0  0
  9 10  2  0  0  0
 10 11  1  0  0  0
  7 14  1  0  0  0
 14 15  1  0  0  0
 15 16  2  0  0  0
 16 17  1  0  0  0
 17 18  1  0  0  0
 17 19  1  0  0  0
 33 34  2  0  0  0
 34 28  1  0  0  0
 24 20  1  0  0  0
 10  5  1  0  0  0
 19 14  2  0  0  0
  1  4  1  0  0  0
 11 12  1  0  0  0
 11 13  1  0  0  0
M  END
> <minimizedAffinity>
-7.90854

> <CNNscore>
0.3885366917

> <CNNaffinity>
6.1650247574

> <CNN_VS>
2.3953382969

> <CNNaffinity_variance>
0.7770079970

$$$$
[H]c1nc(N([H])[H])c(C(=O)N([H])[C@@]2([H])C([H])([H])C([H])([H])C([H])([H])[C@]2([H])OC([H])([H])c2c([H])c(C([H])([H])[H])c([H])c([H])c2C([H])([H])[H])c([H])c1-c1c([H])nn(C([H])([H])[H])c1[H]


 34 37  0  0  0  0  0  0  0  0999 V2000
    4.3684    5.2484   17.8386 N   0  0  0  0  0  0  0  0  0  0  0  0
    4.8007    4.0410   17.2675 C   0  0  0  0  0  0  0  0  0  0  0  0
    5.8790    3.5394   17.5201 O   0  0  0  0  0  0  0  0  0  0  0  0
    3.4260    5.6263   17.4915 H   0  0  0  0  0  0  0  0  0  0  0  0
    3.9434    3.3142   16.3067 C   0  0  0  0  0  0  0  0  0  0  0  0
    3.5755    3.8118   15.0415 C   0  0  0  0  0  0  0  0  0  0  0  0
    2.8517    3.0253   14.1743 C   0  0  0  0  0  0  0  0  0  0  0  0
    2.4894    1.7265   14.5881 C   0  0  0  0  0  0  0  0  0  0  0  0
    2.8452    1.2690   15.7919 N   0  0  0  0  0  0  0  0  0  0  0  0
    3.5624    2.0227   16.6590 C   0  0  0  0  0  0  0  0  0  0  0  0
    3.8527    1.3603   17.8615 N   0  0  0  0  0  0  0  0  0  0  0  0
    3.0636    1.1572   18.5600 H   0  0  0  0  0  0  0  0  0  0  0  0
    4.8099    1.0314   18.1382 H   0  0  0  0  0  0  0  0  0  0  0  0
    2.5869    3.3418   12.7756 C   0  0  0  0  0  0  0  0  0  0  0  0
    2.7498    2.5215   11.6811 C   0  0  0  0  0  0  0  0  0  0  0  0
    2.5420    3.2857   10.5568 N   0  0  0  0  0  0  0  0  0  0  0  0
    2.2581    4.5374   10.8981 N   0  0  0  0  0  0  0  0  0  0  0  0
    2.0140    5.6580    9.9727 C   0  0  0  0  0  0  0  0  0  0  0  0
    2.2840    4.5883   12.2593 C   0  0  0  0  0  0  0  0  0  0  0  0
    4.4151    6.3160   20.1127 C   0  0  0  0  0  0  0  0  0  0  0  0
    4.6612    7.9353   20.2290 C   0  0  0  0  0  0  0  0  0  0  0  0
    4.4505    8.3541   18.8269 C   0  0  0  0  0  0  0  0  0  0  0  0
    5.4464    7.3596   18.1512 C   0  0  0  0  0  0  0  0  0  0  0  0
    5.0531    6.0144   18.8152 C   0  0  0  0  0  0  0  0  0  0  0  0
    4.9738    5.8692   21.1627 O   0  0  0  0  0  0  0  0  0  0  0  0
    5.5652    5.2179   22.0467 C   0  0  0  0  0  0  0  0  0  0  0  0
    7.0440    0.4330   21.1252 C   0  0  0  0  0  0  0  0  0  0  0  0
    6.1058    1.4441   21.7011 C   0  0  0  0  0  0  0  0  0  0  0  0
    5.0634    1.0322   22.5246 C   0  0  0  0  0  0  0  0  0  0  0  0
    4.2200    1.9276   23.1316 C   0  0  0  0  0  0  0  0  0  0  0  0
    4.3972    3.2576   22.9181 C   0  0  0  0  0  0  0  0  0  0  0  0
    3.5081    4.3152   23.4917 C   0  0  0  0  0  0  0  0  0  0  0  0
    5.4573    3.7011   22.0809 C   0  0  0  0  0  0  0  0  0  0  0  0
    6.2676    2.8270   21.5070 C   0  0  0  0  0  0  0  0  0  0  0  0
 27 28  1  0  0  0
 28 29  2  0  0  0
 29 30  1  0  0  0
 30 31  2  0  0  0
 31 32  1  0  0  0
 31 33  1  0  0  0
 33 26  1  0  0  0
 26 25  1  0  0  0
 25 20  1  0  0  0
 20 21  1  0  0  0
 21 22  1  0  0  0
 22 23  1  0  0  0
 23 24  1  0  0  0
 24  1  1  0  0  0
  1  2  1  0  0  0
  2  3  2  0  0  0
  2  5  1  0  0  0
  5  6  2  0  0  0
  6  7  1  0  0  0
  7  8  2  0  0  0
  8  9  1  0  0  0
  9 10  2  0  0  0
 10 11  1  0  0  0
  7 14  1  0  0  0
 14 15  1  0  0  0
 15 16  2  0  0  0
 16 17  1  0  0  0
 17 18  1  0  0  0
 17 19  1  0  0  0
 33 34  2  0  0  0
 34 28  1  0  0  0
 24 20  1  0  0  0
 10  5  1  0  0  0
 19 14  2  0  0  0
  1  4  1  0  0  0
 11 12  1  0  0  0
 11 13  1  0  0  0
M  END
> <minimizedAffinity>
-7.89517

> <CNNscore>
0.3838442862

> <CNNaffinity>
6.4813346863

> <CNN_VS>
2.4878232479

> <CNNaffinity_variance>
0.3676579893

$$$$
[H]c1nc(N([H])[H])c(C(=O)N([H])[C@@]2([H])C([H])([H])C([H])([H])C([H])([H])[C@]2([H])OC([H])([H])c2c([H])c(C([H])([H])[H])c([H])c([H])c2C([H])([H])[H])c([H])c1-c1c([H])nn(C([H])([H])[H])c1[H]


 34 37  0  0  0  0  0  0  0  0999 V2000
    2.5702    3.8005   14.8162 N   0  0  0  0  0  0  0  0  0  0  0  0
    3.1062    2.5477   15.1544 C   0  0  0  0  0  0  0  0  0  0  0  0
    3.2287    1.6430   14.3514 O   0  0  0  0  0  0  0  0  0  0  0  0
    2.4518    4.4986   15.6225 H   0  0  0  0  0  0  0  0  0  0  0  0
    3.5496    2.2679   16.5368 C   0  0  0  0  0  0  0  0  0  0  0  0
    4.3306    3.1483   17.3105 C   0  0  0  0  0  0  0  0  0  0  0  0
    4.6170    2.8459   18.6222 C   0  0  0  0  0  0  0  0  0  0  0  0
    4.1167    1.6412   19.1587 C   0  0  0  0  0  0  0  0  0  0  0  0
    3.3778    0.8157   18.4119 N   0  0  0  0  0  0  0  0  0  0  0  0
    3.0784    1.0957   17.1210 C   0  0  0  0  0  0  0  0  0  0  0  0
    2.2781    0.1170   16.5122 N   0  0  0  0  0  0  0  0  0  0  0  0
    2.6930   -0.8485   16.2943 H   0  0  0  0  0  0  0  0  0  0  0  0
    1.2716    0.2565   16.2501 H   0  0  0  0  0  0  0  0  0  0  0  0
    5.2343    3.7574   19.5787 C   0  0  0  0  0  0  0  0  0  0  0  0
    5.4969    3.5286   20.9114 C   0  0  0  0  0  0  0  0  0  0  0  0
    5.9256    4.7153   21.4582 N   0  0  0  0  0  0  0  0  0  0  0  0
    5.9430    5.6678   20.5329 N   0  0  0  0  0  0  0  0  0  0  0  0
    6.3050    7.0806   20.7445 C   0  0  0  0  0  0  0  0  0  0  0  0
    5.5183    5.0948   19.3721 C   0  0  0  0  0  0  0  0  0  0  0  0
    3.1432    4.2926   12.4198 C   0  0  0  0  0  0  0  0  0  0  0  0
    2.8617    5.7970   11.8250 C   0  0  0  0  0  0  0  0  0  0  0  0
    2.6282    6.5547   13.0727 C   0  0  0  0  0  0  0  0  0  0  0  0
    1.5283    5.6312   13.6850 C   0  0  0  0  0  0  0  0  0  0  0  0
    2.1667    4.2268   13.5260 C   0  0  0  0  0  0  0  0  0  0  0  0
    2.9422    3.5476   11.4105 O   0  0  0  0  0  0  0  0  0  0  0  0
    2.9214    2.6601   10.5344 C   0  0  0  0  0  0  0  0  0  0  0  0
    7.4452    3.6902    8.4356 C   0  0  0  0  0  0  0  0  0  0  0  0
    6.2885    2.7865    8.7179 C   0  0  0  0  0  0  0  0  0  0  0  0
    6.3495    1.4470    8.3489 C   0  0  0  0  0  0  0  0  0  0  0  0
    5.3432    0.5645    8.6487 C   0  0  0  0  0  0  0  0  0  0  0  0
    4.2470    1.0084    9.3176 C   0  0  0  0  0  0  0  0  0  0  0  0
    3.0735    0.1433    9.6529 C   0  0  0  0  0  0  0  0  0  0  0  0
    4.1643    2.3736    9.7057 C   0  0  0  0  0  0  0  0  0  0  0  0
    5.1451    3.2127    9.4161 C   0  0  0  0  0  0  0  0  0  0  0  0
 27 28  1  0  0  0
 28 29  2  0  0  0
 29 30  1  0  0  0
 30 31  2  0  0  0
 31 32  1  0  0  0
 31 33  1  0  0  0
 33 26  1  0  0  0
 26 25  1  0  0  0
 25 20  1  0  0  0
 20 21  1  0  0  0
 21 22  1  0  0  0
 22 23  1  0  0  0
 23 24  1  0  0  0
 24  1  1  0  0  0
  1  2  1  0  0  0
  2  3  2  0  0  0
  2  5  1  0  0  0
  5  6  2  0  0  0
  6  7  1  0  0  0
  7  8  2  0  0  0
  8  9  1  0  0  0
  9 10  2  0  0  0
 10 11  1  0  0  0
  7 14  1  0  0  0
 14 15  1  0  0  0
 15 16  2  0  0  0
 16 17  1  0  0  0
 17 18  1  0  0  0
 17 19  1  0  0  0
 33 34  2  0  0  0
 34 28  1  0  0  0
 24 20  1  0  0  0
 10  5  1  0  0  0
 19 14  2  0  0  0
  1  4  1  0  0  0
 11 12  1  0  0  0
 11 13  1  0  0  0
M  END
> <minimizedAffinity>
-7.33750

> <CNNscore>
0.3560706377

> <CNNaffinity>
6.0850324631

> <CNN_VS>
2.1667013168

> <CNNaffinity_variance>
0.4815081954

$$$$
[H]c1nc(N([H])[H])c(C(=O)N([H])[C@@]2([H])C([H])([H])C([H])([H])C([H])([H])[C@]2([H])OC([H])([H])c2c([H])c([H])c(C([H])([H])[H])c(C([H])([H])[H])c2[H])c([H])c1-c1c([H])c(C(=O)N2C([H])([H])C([H])([H])C([H])(N3C([H])([H])C([H])([H])C([H])([H])C3([H])[H])C([H])([H])C2([H])[H])c([H])c(N([H])[H])c1[H]


 50 55  0  0  0  0  0  0  0  0999 V2000
    2.7432    3.3753   15.9295 C   0  0  0  0  0  0  0  0  0  0  0  0
    3.4146    3.8239   17.0505 C   0  0  0  0  0  0  0  0  0  0  0  0
    3.8479    2.8922   17.9303 C   0  0  0  0  0  0  0  0  0  0  0  0
    3.5979    1.5429   17.6708 C   0  0  0  0  0  0  0  0  0  0  0  0
    2.9514    1.1274   16.5921 N   0  0  0  0  0  0  0  0  0  0  0  0
    2.5061    2.0534   15.6883 C   0  0  0  0  0  0  0  0  0  0  0  0
    1.8183    1.6580   14.5169 N   0  0  0  0  0  0  0  0  0  0  0  0
    0.7953    1.6226   14.3554 H   0  0  0  0  0  0  0  0  0  0  0  0
    2.4343    1.3577   13.7009 H   0  0  0  0  0  0  0  0  0  0  0  0
    4.5691    3.1810   19.1858 C   0  0  0  0  0  0  0  0  0  0  0  0
    5.2018    2.2156   19.9205 C   0  0  0  0  0  0  0  0  0  0  0  0
    5.8464    2.4988   21.0964 C   0  0  0  0  0  0  0  0  0  0  0  0
    6.4580    1.4355   21.7977 N   0  0  0  0  0  0  0  0  0  0  0  0
    5.8458    3.8201   21.5458 C   0  0  0  0  0  0  0  0  0  0  0  0
    5.2307    4.8439   20.8699 C   0  0  0  0  0  0  0  0  0  0  0  0
    4.6005    4.4617   19.6786 C   0  0  0  0  0  0  0  0  0  0  0  0
    6.1181    0.4446   21.7697 H   0  0  0  0  0  0  0  0  0  0  0  0
    7.3148    1.5676   22.4138 H   0  0  0  0  0  0  0  0  0  0  0  0
    5.1829    6.2320   21.2841 C   0  0  0  0  0  0  0  0  0  0  0  0
    5.5821    6.4386   22.5285 O   0  0  0  0  0  0  0  0  0  0  0  0
    4.8036    7.3948   20.6443 N   0  0  0  0  0  0  0  0  0  0  0  0
    4.2432    7.4651   19.3191 C   0  0  0  0  0  0  0  0  0  0  0  0
    3.6031    8.8795   19.2213 C   0  0  0  0  0  0  0  0  0  0  0  0
    4.7304    9.8482   19.1494 C   0  0  0  0  0  0  0  0  0  0  0  0
    5.6539    9.6519   20.3383 C   0  0  0  0  0  0  0  0  0  0  0  0
    5.0698    8.6779   21.3337 C   0  0  0  0  0  0  0  0  0  0  0  0
    4.3587   11.2470   19.2056 N   0  0  0  0  0  0  0  0  0  0  0  0
    3.1856   11.6271   18.5060 C   0  0  0  0  0  0  0  0  0  0  0  0
    3.5175   11.8740   17.0577 C   0  0  0  0  0  0  0  0  0  0  0  0
    4.9033   12.5243   17.2377 C   0  0  0  0  0  0  0  0  0  0  0  0
    5.4355   11.9750   18.5213 C   0  0  0  0  0  0  0  0  0  0  0  0
    2.6870    4.4753   13.6950 N   0  0  0  0  0  0  0  0  0  0  0  0
    2.2961    4.4182   14.9470 C   0  0  0  0  0  0  0  0  0  0  0  0
    1.4653    5.2446   15.5340 O   0  0  0  0  0  0  0  0  0  0  0  0
    1.6005    5.2576   13.4208 H   0  0  0  0  0  0  0  0  0  0  0  0
    2.4942    3.4678   11.3975 C   0  0  0  0  0  0  0  0  0  0  0  0
    3.3631    3.7028   10.1669 C   0  0  0  0  0  0  0  0  0  0  0  0
    4.6709    4.2672   10.6503 C   0  0  0  0  0  0  0  0  0  0  0  0
    4.5681    4.3067   12.1618 C   0  0  0  0  0  0  0  0  0  0  0  0
    3.1019    4.5382   12.3613 C   0  0  0  0  0  0  0  0  0  0  0  0
    1.2120    3.8538   11.1979 O   0  0  0  0  0  0  0  0  0  0  0  0
    0.9317    5.1840   11.1574 C   0  0  0  0  0  0  0  0  0  0  0  0
   -4.6921    5.9222   12.0265 C   0  0  0  0  0  0  0  0  0  0  0  0
   -3.2373    5.7364   11.8468 C   0  0  0  0  0  0  0  0  0  0  0  0
   -2.7993    4.9244   10.8152 C   0  0  0  0  0  0  0  0  0  0  0  0
   -1.4389    4.7411   10.6102 C   0  0  0  0  0  0  0  0  0  0  0  0
   -0.5348    5.3736   11.4424 C   0  0  0  0  0  0  0  0  0  0  0  0
   -0.9786    6.1759   12.4619 C   0  0  0  0  0  0  0  0  0  0  0  0
   -2.3515    6.3642   12.6741 C   0  0  0  0  0  0  0  0  0  0  0  0
   -2.8152    7.2319   13.7894 C   0  0  0  0  0  0  0  0  0  0  0  0
 43 44  1  0  0  0
 44 45  2  0  0  0
 45 46  1  0  0  0
 46 47  2  0  0  0
 47 42  1  0  0  0
 42 41  1  0  0  0
 41 36  1  0  0  0
 36 37  1  0  0  0
 37 38  1  0  0  0
 38 39  1  0  0  0
 39 40  1  0  0  0
 40 32  1  0  0  0
 32 33  1  0  0  0
 33 34  2  0  0  0
 33  1  1  0  0  0
  1  2  2  0  0  0
  2  3  1  0  0  0
  3  4  2  0  0  0
  4  5  1  0  0  0
  5  6  2  0  0  0
  6  7  1  0  0  0
  3 10  1  0  0  0
 10 11  2  0  0  0
 11 12  1  0  0  0
 12 13  1  0  0  0
 12 14  2  0  0  0
 14 15  1  0  0  0
 15 16  2  0  0  0
 15 19  1  0  0  0
 19 20  2  0  0  0
 19 21  1  0  0  0
 21 22  1  0  0  0
 22 23  1  0  0  0
 23 24  1  0  0  0
 24 25  1  0  0  0
 25 26  1  0  0  0
 24 27  1  0  0  0
 27 28  1  0  0  0
 28 29  1  0  0  0
 29 30  1  0  0  0
 30 31  1  0  0  0
 47 48  1  0  0  0
 48 49  2  0  0  0
 49 50  1  0  0  0
 49 44  1  0  0  0
 40 36  1  0  0  0
  6  1  1  0  0  0
 16 10  1  0  0  0
 26 21  1  0  0  0
 31 27  1  0  0  0
 32 35  1  0  0  0
  7  8  1  0  0  0
  7  9  1  0  0  0
 13 17  1  0  0  0
 13 18  1  0  0  0
M  END
> <minimizedAffinity>
-10.60741

> <CNNscore>
0.3992146552

> <CNNaffinity>
7.5091409683

> <CNN_VS>
2.9977591038

> <CNNaffinity_variance>
0.3551112711

$$$$
[H]c1nc(N([H])[H])c(C(=O)N([H])[C@@]2([H])C([H])([H])C([H])([H])C([H])([H])[C@]2([H])OC([H])([H])c2c([H])c([H])c(C([H])([H])[H])c(C([H])([H])[H])c2[H])c([H])c1-c1c([H])c(C(=O)N2C([H])([H])C([H])([H])C([H])(N3C([H])([H])C([H])([H])C([H])([H])C3([H])[H])C([H])([H])C2([H])[H])c([H])c(N([H])[H])c1[H]


 50 55  0  0  0  0  0  0  0  0999 V2000
    3.2109    2.7973   15.7891 C   0  0  0  0  0  0  0  0  0  0  0  0
    3.9394    3.2579   16.8688 C   0  0  0  0  0  0  0  0  0  0  0  0
    3.9632    2.4846   17.9785 C   0  0  0  0  0  0  0  0  0  0  0  0
    3.2593    1.2784   17.9826 C   0  0  0  0  0  0  0  0  0  0  0  0
    2.5636    0.8501   16.9400 N   0  0  0  0  0  0  0  0  0  0  0  0
    2.5279    1.6162   15.8068 C   0  0  0  0  0  0  0  0  0  0  0  0
    1.8058    1.1969   14.6647 N   0  0  0  0  0  0  0  0  0  0  0  0
    0.8481    1.4684   14.3766 H   0  0  0  0  0  0  0  0  0  0  0  0
    2.3144    0.5142   14.0238 H   0  0  0  0  0  0  0  0  0  0  0  0
    4.6738    2.8168   19.2293 C   0  0  0  0  0  0  0  0  0  0  0  0
    5.3071    1.8786   19.9980 C   0  0  0  0  0  0  0  0  0  0  0  0
    5.9417    2.2022   21.1689 C   0  0  0  0  0  0  0  0  0  0  0  0
    6.5547    1.1650   21.9071 N   0  0  0  0  0  0  0  0  0  0  0  0
    5.9301    3.5368   21.5770 C   0  0  0  0  0  0  0  0  0  0  0  0
    5.3135    4.5353   20.8653 C   0  0  0  0  0  0  0  0  0  0  0  0
    4.6941    4.1123   19.6822 C   0  0  0  0  0  0  0  0  0  0  0  0
    6.2210    0.1716   21.9076 H   0  0  0  0  0  0  0  0  0  0  0  0
    7.4063    1.3215   22.5246 H   0  0  0  0  0  0  0  0  0  0  0  0
    5.2545    5.9353   21.2359 C   0  0  0  0  0  0  0  0  0  0  0  0
    5.6704    6.1865   22.4665 O   0  0  0  0  0  0  0  0  0  0  0  0
    4.8505    7.0722   20.5655 N   0  0  0  0  0  0  0  0  0  0  0  0
    4.2687    7.0932   19.2478 C   0  0  0  0  0  0  0  0  0  0  0  0
    3.6092    8.4957   19.1153 C   0  0  0  0  0  0  0  0  0  0  0  0
    4.7228    9.4754   18.9945 C   0  0  0  0  0  0  0  0  0  0  0  0
    5.6671    9.3286   20.1742 C   0  0  0  0  0  0  0  0  0  0  0  0
    5.1111    8.3799   21.2093 C   0  0  0  0  0  0  0  0  0  0  0  0
    4.3343   10.8706   19.0120 N   0  0  0  0  0  0  0  0  0  0  0  0
    3.1409   11.2122   18.3271 C   0  0  0  0  0  0  0  0  0  0  0  0
    3.4370   11.4139   16.8641 C   0  0  0  0  0  0  0  0  0  0  0  0
    4.8179   12.0869   16.9903 C   0  0  0  0  0  0  0  0  0  0  0  0
    5.3858   11.5880   18.2792 C   0  0  0  0  0  0  0  0  0  0  0  0
    2.8700    4.9158   14.5235 N   0  0  0  0  0  0  0  0  0  0  0  0
    3.2195    3.6507   14.5545 C   0  0  0  0  0  0  0  0  0  0  0  0
    3.6281    2.9382   13.5330 O   0  0  0  0  0  0  0  0  0  0  0  0
    3.5512    5.0461   13.3459 H   0  0  0  0  0  0  0  0  0  0  0  0
    1.8926    6.7775   13.1416 C   0  0  0  0  0  0  0  0  0  0  0  0
    1.8734    8.2763   13.4209 C   0  0  0  0  0  0  0  0  0  0  0  0
    2.9607    8.5532   14.4227 C   0  0  0  0  0  0  0  0  0  0  0  0
    3.6349    7.2199   14.6772 C   0  0  0  0  0  0  0  0  0  0  0  0
    2.4982    6.2632   14.4880 C   0  0  0  0  0  0  0  0  0  0  0  0
    0.6457    6.2528   13.0873 O   0  0  0  0  0  0  0  0  0  0  0  0
   -0.3329    6.8212   13.8416 C   0  0  0  0  0  0  0  0  0  0  0  0
   -5.4840    5.7918   11.5320 C   0  0  0  0  0  0  0  0  0  0  0  0
   -4.1393    6.0527   12.0860 C   0  0  0  0  0  0  0  0  0  0  0  0
   -4.0294    6.8913   13.1816 C   0  0  0  0  0  0  0  0  0  0  0  0
   -2.7822    7.1450   13.7351 C   0  0  0  0  0  0  0  0  0  0  0  0
   -1.6608    6.5554   13.1830 C   0  0  0  0  0  0  0  0  0  0  0  0
   -1.7799    5.7262   12.0974 C   0  0  0  0  0  0  0  0  0  0  0  0
   -3.0371    5.4669   11.5337 C   0  0  0  0  0  0  0  0  0  0  0  0
   -3.1468    4.5709   10.3517 C   0  0  0  0  0  0  0  0  0  0  0  0
 43 44  1  0  0  0
 44 45  2  0  0  0
 45 46  1  0  0  0
 46 47  2  0  0  0
 47 42  1  0  0  0
 42 41  1  0  0  0
 41 36  1  0  0  0
 36 37  1  0  0  0
 37 38  1  0  0  0
 38 39  1  0  0  0
 39 40  1  0  0  0
 40 32  1  0  0  0
 32 33  1  0  0  0
 33 34  2  0  0  0
 33  1  1  0  0  0
  1  2  2  0  0  0
  2  3  1  0  0  0
  3  4  2  0  0  0
  4  5  1  0  0  0
  5  6  2  0  0  0
  6  7  1  0  0  0
  3 10  1  0  0  0
 10 11  2  0  0  0
 11 12  1  0  0  0
 12 13  1  0  0  0
 12 14  2  0  0  0
 14 15  1  0  0  0
 15 16  2  0  0  0
 15 19  1  0  0  0
 19 20  2  0  0  0
 19 21  1  0  0  0
 21 22  1  0  0  0
 22 23  1  0  0  0
 23 24  1  0  0  0
 24 25  1  0  0  0
 25 26  1  0  0  0
 24 27  1  0  0  0
 27 28  1  0  0  0
 28 29  1  0  0  0
 29 30  1  0  0  0
 30 31  1  0  0  0
 47 48  1  0  0  0
 48 49  2  0  0  0
 49 50  1  0  0  0
 49 44  1  0  0  0
 40 36  1  0  0  0
  6  1  1  0  0  0
 16 10  1  0  0  0
 26 21  1  0  0  0
 31 27  1  0  0  0
 32 35  1  0  0  0
  7  8  1  0  0  0
  7  9  1  0  0  0
 13 17  1  0  0  0
 13 18  1  0  0  0
M  END
> <minimizedAffinity>
-11.35309

> <CNNscore>
0.3389952779

> <CNNaffinity>
7.2779068947

> <CNN_VS>
2.4671759605

> <CNNaffinity_variance>
0.3907240927

$$$$
[H]c1nc(N([H])[H])c(C(=O)N([H])[C@@]2([H])C([H])([H])C([H])([H])C([H])([H])[C@]2([H])OC([H])([H])c2c([H])c([H])c(C([H])([H])[H])c(C([H])([H])[H])c2[H])c([H])c1-c1c([H])c(C(=O)N2C([H])([H])C([H])([H])C([H])(N3C([H])([H])C([H])([H])C([H])([H])C3([H])[H])C([H])([H])C2([H])[H])c([H])c(N([H])[H])c1[H]


 50 55  0  0  0  0  0  0  0  0999 V2000
    3.0619    2.9263   15.2644 C   0  0  0  0  0  0  0  0  0  0  0  0
    3.7880    3.2718   16.3877 C   0  0  0  0  0  0  0  0  0  0  0  0
    3.7678    2.4105   17.4306 C   0  0  0  0  0  0  0  0  0  0  0  0
    3.0236    1.2333   17.3266 C   0  0  0  0  0  0  0  0  0  0  0  0
    2.3307    0.9157   16.2434 N   0  0  0  0  0  0  0  0  0  0  0  0
    2.3392    1.7723   15.1762 C   0  0  0  0  0  0  0  0  0  0  0  0
    1.6219    1.4727   13.9941 N   0  0  0  0  0  0  0  0  0  0  0  0
    0.6786    1.8000   13.7165 H   0  0  0  0  0  0  0  0  0  0  0  0
    2.1173    0.8270   13.3064 H   0  0  0  0  0  0  0  0  0  0  0  0
    4.4689    2.6148   18.7137 C   0  0  0  0  0  0  0  0  0  0  0  0
    4.8275    1.5841   19.5391 C   0  0  0  0  0  0  0  0  0  0  0  0
    5.4570    1.7946   20.7382 C   0  0  0  0  0  0  0  0  0  0  0  0
    5.7747    0.6712   21.5341 N   0  0  0  0  0  0  0  0  0  0  0  0
    5.7319    3.1099   21.1154 C   0  0  0  0  0  0  0  0  0  0  0  0
    5.4005    4.1975   20.3466 C   0  0  0  0  0  0  0  0  0  0  0  0
    4.7634    3.8863   19.1385 C   0  0  0  0  0  0  0  0  0  0  0  0
    5.2214   -0.2187   21.5367 H   0  0  0  0  0  0  0  0  0  0  0  0
    6.6057    0.6501   22.1974 H   0  0  0  0  0  0  0  0  0  0  0  0
    5.6464    5.5859   20.6821 C   0  0  0  0  0  0  0  0  0  0  0  0
    4.7669    6.4300   20.1678 O   0  0  0  0  0  0  0  0  0  0  0  0
    6.6169    6.2170   21.4338 N   0  0  0  0  0  0  0  0  0  0  0  0
    7.7502    5.5645   22.0381 C   0  0  0  0  0  0  0  0  0  0  0  0
    8.7408    6.7107   22.3906 C   0  0  0  0  0  0  0  0  0  0  0  0
    8.1418    7.4484   23.5358 C   0  0  0  0  0  0  0  0  0  0  0  0
    6.7416    7.9105   23.1739 C   0  0  0  0  0  0  0  0  0  0  0  0
    6.4392    7.6598   21.7158 C   0  0  0  0  0  0  0  0  0  0  0  0
    8.8324    8.6584   23.9316 N   0  0  0  0  0  0  0  0  0  0  0  0
   10.2131    8.5398   24.2306 C   0  0  0  0  0  0  0  0  0  0  0  0
   10.3852    8.0909   25.6581 C   0  0  0  0  0  0  0  0  0  0  0  0
    9.2248    8.8784   26.2977 C   0  0  0  0  0  0  0  0  0  0  0  0
    8.2242    9.0682   25.2043 C   0  0  0  0  0  0  0  0  0  0  0  0
    2.8036    5.1491   14.1696 N   0  0  0  0  0  0  0  0  0  0  0  0
    3.1192    3.8764   14.1039 C   0  0  0  0  0  0  0  0  0  0  0  0
    3.5307    3.2380   13.0357 O   0  0  0  0  0  0  0  0  0  0  0  0
    3.5130    5.3555   13.0198 H   0  0  0  0  0  0  0  0  0  0  0  0
    1.9774    7.1620   12.9062 C   0  0  0  0  0  0  0  0  0  0  0  0
    1.9734    8.6277   13.3262 C   0  0  0  0  0  0  0  0  0  0  0  0
    2.9889    8.7752   14.4259 C   0  0  0  0  0  0  0  0  0  0  0  0
    3.6099    7.4036   14.5990 C   0  0  0  0  0  0  0  0  0  0  0  0
    2.4680    6.5047   14.2371 C   0  0  0  0  0  0  0  0  0  0  0  0
    0.7259    6.6837   12.7117 O   0  0  0  0  0  0  0  0  0  0  0  0
   -0.2171    6.9231   13.6620 C   0  0  0  0  0  0  0  0  0  0  0  0
   -5.4637    5.8120   11.6208 C   0  0  0  0  0  0  0  0  0  0  0  0
   -4.0970    6.0972   12.1045 C   0  0  0  0  0  0  0  0  0  0  0  0
   -3.9487    6.8739   13.2403 C   0  0  0  0  0  0  0  0  0  0  0  0
   -2.6789    7.1477   13.7291 C   0  0  0  0  0  0  0  0  0  0  0  0
   -1.5738    6.6399   13.0728 C   0  0  0  0  0  0  0  0  0  0  0  0
   -1.7310    5.8716   11.9481 C   0  0  0  0  0  0  0  0  0  0  0  0
   -3.0112    5.5923   11.4494 C   0  0  0  0  0  0  0  0  0  0  0  0
   -3.1626    4.7633   10.2239 C   0  0  0  0  0  0  0  0  0  0  0  0
 43 44  1  0  0  0
 44 45  2  0  0  0
 45 46  1  0  0  0
 46 47  2  0  0  0
 47 42  1  0  0  0
 42 41  1  0  0  0
 41 36  1  0  0  0
 36 37  1  0  0  0
 37 38  1  0  0  0
 38 39  1  0  0  0
 39 40  1  0  0  0
 40 32  1  0  0  0
 32 33  1  0  0  0
 33 34  2  0  0  0
 33  1  1  0  0  0
  1  2  2  0  0  0
  2  3  1  0  0  0
  3  4  2  0  0  0
  4  5  1  0  0  0
  5  6  2  0  0  0
  6  7  1  0  0  0
  3 10  1  0  0  0
 10 11  2  0  0  0
 11 12  1  0  0  0
 12 13  1  0  0  0
 12 14  2  0  0  0
 14 15  1  0  0  0
 15 16  2  0  0  0
 15 19  1  0  0  0
 19 20  2  0  0  0
 19 21  1  0  0  0
 21 22  1  0  0  0
 22 23  1  0  0  0
 23 24  1  0  0  0
 24 25  1  0  0  0
 25 26  1  0  0  0
 24 27  1  0  0  0
 27 28  1  0  0  0
 28 29  1  0  0  0
 29 30  1  0  0  0
 30 31  1  0  0  0
 47 48  1  0  0  0
 48 49  2  0  0  0
 49 50  1  0  0  0
 49 44  1  0  0  0
 40 36  1  0  0  0
  6  1  1  0  0  0
 16 10  1  0  0  0
 26 21  1  0  0  0
 31 27  1  0  0  0
 32 35  1  0  0  0
  7  8  1  0  0  0
  7  9  1  0  0  0
 13 17  1  0  0  0
 13 18  1  0  0  0
M  END
> <minimizedAffinity>
-10.68725

> <CNNscore>
0.3098292053

> <CNNaffinity>
7.0202398300

> <CNN_VS>
2.1750752926

> <CNNaffinity_variance>
0.1635488421

$$$$
[H]c1nc(N([H])[H])c(C(=O)N([H])[C@@]2([H])C([H])([H])C([H])([H])C([H])([H])[C@]2([H])OC([H])([H])c2c([H])c([H])c(C([H])([H])[H])c(C([H])([H])[H])c2[H])c([H])c1-c1c([H])c(C(=O)N2C([H])([H])C([H])([H])C([H])(N3C([H])([H])C([H])([H])C([H])([H])C3([H])[H])C([H])([H])C2([H])[H])c([H])c(N([H])[H])c1[H]


 50 55  0  0  0  0  0  0  0  0999 V2000
    3.5018    2.5431   16.8735 C   0  0  0  0  0  0  0  0  0  0  0  0
    4.1698    3.2601   17.8473 C   0  0  0  0  0  0  0  0  0  0  0  0
    4.3552    2.6591   19.0449 C   0  0  0  0  0  0  0  0  0  0  0  0
    3.8682    1.3647   19.2395 C   0  0  0  0  0  0  0  0  0  0  0  0
    3.2280    0.6897   18.2966 N   0  0  0  0  0  0  0  0  0  0  0  0
    3.0314    1.2786   17.0772 C   0  0  0  0  0  0  0  0  0  0  0  0
    2.3609    0.5945   16.0359 N   0  0  0  0  0  0  0  0  0  0  0  0
    1.3635    0.6619   15.7630 H   0  0  0  0  0  0  0  0  0  0  0  0
    2.9611   -0.0749   15.4641 H   0  0  0  0  0  0  0  0  0  0  0  0
    5.0322    3.2708   20.2056 C   0  0  0  0  0  0  0  0  0  0  0  0
    5.1136    2.6604   21.4275 C   0  0  0  0  0  0  0  0  0  0  0  0
    5.7256    3.2541   22.5005 C   0  0  0  0  0  0  0  0  0  0  0  0
    5.7473    2.5569   23.7293 N   0  0  0  0  0  0  0  0  0  0  0  0
    6.2768    4.5241   22.3242 C   0  0  0  0  0  0  0  0  0  0  0  0
    6.2324    5.2043   21.1330 C   0  0  0  0  0  0  0  0  0  0  0  0
    5.5905    4.5196   20.0931 C   0  0  0  0  0  0  0  0  0  0  0  0
    5.0066    1.8794   24.0302 H   0  0  0  0  0  0  0  0  0  0  0  0
    6.5244    2.6741   24.4458 H   0  0  0  0  0  0  0  0  0  0  0  0
    6.7736    6.5258   20.8848 C   0  0  0  0  0  0  0  0  0  0  0  0
    5.9169    7.3640   20.3244 O   0  0  0  0  0  0  0  0  0  0  0  0
    8.0091    7.0973   21.1134 N   0  0  0  0  0  0  0  0  0  0  0  0
    9.1605    6.4010   21.6278 C   0  0  0  0  0  0  0  0  0  0  0  0
   10.3716    7.3229   21.3071 C   0  0  0  0  0  0  0  0  0  0  0  0
   10.2644    8.4928   22.2205 C   0  0  0  0  0  0  0  0  0  0  0  0
    8.9063    9.1512   22.0557 C   0  0  0  0  0  0  0  0  0  0  0  0
    8.1434    8.5559   20.8963 C   0  0  0  0  0  0  0  0  0  0  0  0
   11.2157    9.5596   21.9864 N   0  0  0  0  0  0  0  0  0  0  0  0
   12.5318    9.3635   22.4756 C   0  0  0  0  0  0  0  0  0  0  0  0
   12.5959    9.7570   23.9281 C   0  0  0  0  0  0  0  0  0  0  0  0
   11.6487   10.9723   23.8884 C   0  0  0  0  0  0  0  0  0  0  0  0
   10.7187   10.7132   22.7479 C   0  0  0  0  0  0  0  0  0  0  0  0
    3.0388    4.4803   15.3771 N   0  0  0  0  0  0  0  0  0  0  0  0
    3.3311    3.2108   15.5401 C   0  0  0  0  0  0  0  0  0  0  0  0
    3.5209    2.3342   14.5844 O   0  0  0  0  0  0  0  0  0  0  0  0
    3.5070    4.3946   14.0961 H   0  0  0  0  0  0  0  0  0  0  0  0
    2.1629    6.2339   13.7997 C   0  0  0  0  0  0  0  0  0  0  0  0
    2.2065    7.7526   13.9278 C   0  0  0  0  0  0  0  0  0  0  0  0
    3.2917    8.0820   14.9158 C   0  0  0  0  0  0  0  0  0  0  0  0
    3.9028    6.7534   15.3136 C   0  0  0  0  0  0  0  0  0  0  0  0
    2.7275    5.8319   15.2010 C   0  0  0  0  0  0  0  0  0  0  0  0
    0.8948    5.7602   13.7763 O   0  0  0  0  0  0  0  0  0  0  0  0
   -0.1328    6.6510   13.7824 C   0  0  0  0  0  0  0  0  0  0  0  0
   -3.6693    5.3686    9.4492 C   0  0  0  0  0  0  0  0  0  0  0  0
   -2.7879    5.6802   10.5934 C   0  0  0  0  0  0  0  0  0  0  0  0
   -1.4193    5.6901   10.3873 C   0  0  0  0  0  0  0  0  0  0  0  0
   -0.5646    5.9936   11.4379 C   0  0  0  0  0  0  0  0  0  0  0  0
   -1.0926    6.2829   12.6818 C   0  0  0  0  0  0  0  0  0  0  0  0
   -2.4499    6.2702   12.8761 C   0  0  0  0  0  0  0  0  0  0  0  0
   -3.3180    5.9637   11.8189 C   0  0  0  0  0  0  0  0  0  0  0  0
   -4.7872    5.9473   12.0495 C   0  0  0  0  0  0  0  0  0  0  0  0
 43 44  1  0  0  0
 44 45  2  0  0  0
 45 46  1  0  0  0
 46 47  2  0  0  0
 47 42  1  0  0  0
 42 41  1  0  0  0
 41 36  1  0  0  0
 36 37  1  0  0  0
 37 38  1  0  0  0
 38 39  1  0  0  0
 39 40  1  0  0  0
 40 32  1  0  0  0
 32 33  1  0  0  0
 33 34  2  0  0  0
 33  1  1  0  0  0
  1  2  2  0  0  0
  2  3  1  0  0  0
  3  4  2  0  0  0
  4  5  1  0  0  0
  5  6  2  0  0  0
  6  7  1  0  0  0
  3 10  1  0  0  0
 10 11  2  0  0  0
 11 12  1  0  0  0
 12 13  1  0  0  0
 12 14  2  0  0  0
 14 15  1  0  0  0
 15 16  2  0  0  0
 15 19  1  0  0  0
 19 20  2  0  0  0
 19 21  1  0  0  0
 21 22  1  0  0  0
 22 23  1  0  0  0
 23 24  1  0  0  0
 24 25  1  0  0  0
 25 26  1  0  0  0
 24 27  1  0  0  0
 27 28  1  0  0  0
 28 29  1  0  0  0
 29 30  1  0  0  0
 30 31  1  0  0  0
 47 48  1  0  0  0
 48 49  2  0  0  0
 49 50  1  0  0  0
 49 44  1  0  0  0
 40 36  1  0  0  0
  6  1  1  0  0  0
 16 10  1  0  0  0
 26 21  1  0  0  0
 31 27  1  0  0  0
 32 35  1  0  0  0
  7  8  1  0  0  0
  7  9  1  0  0  0
 13 17  1  0  0  0
 13 18  1  0  0  0
M  END
> <minimizedAffinity>
-9.91042

> <CNNscore>
0.2694554627

> <CNNaffinity>
6.9490432739

> <CNN_VS>
1.8724576235

> <CNNaffinity_variance>
0.0981357694

$$$$
[H]c1nc(N([H])[H])c(C(=O)N([H])[C@@]2([H])C([H])([H])C([H])([H])C([H])([H])[C@]2([H])OC([H])([H])c2c([H])c([H])c(C([H])([H])[H])c(C([H])([H])[H])c2[H])c([H])c1-c1c([H])c(C(=O)N2C([H])([H])C([H])([H])C([H])(N3C([H])([H])C([H])([H])C([H])([H])C3([H])[H])C([H])([H])C2([H])[H])c([H])c(N([H])[H])c1[H]


 50 55  0  0  0  0  0  0  0  0999 V2000
    4.0179    3.4809   17.3625 C   0  0  0  0  0  0  0  0  0  0  0  0
    3.8797    4.1223   16.1467 C   0  0  0  0  0  0  0  0  0  0  0  0
    3.5634    3.3609   15.0743 C   0  0  0  0  0  0  0  0  0  0  0  0
    3.3972    1.9845   15.2421 C   0  0  0  0  0  0  0  0  0  0  0  0
    3.5343    1.3828   16.4140 N   0  0  0  0  0  0  0  0  0  0  0  0
    3.8523    2.1348   17.5122 C   0  0  0  0  0  0  0  0  0  0  0  0
    4.0008    1.5390   18.7868 N   0  0  0  0  0  0  0  0  0  0  0  0
    4.8747    1.2397   19.2565 H   0  0  0  0  0  0  0  0  0  0  0  0
    3.0968    1.3776   19.3275 H   0  0  0  0  0  0  0  0  0  0  0  0
    3.3880    3.8651   13.6977 C   0  0  0  0  0  0  0  0  0  0  0  0
    2.5830    3.2519   12.7767 C   0  0  0  0  0  0  0  0  0  0  0  0
    2.4509    3.7211   11.4958 C   0  0  0  0  0  0  0  0  0  0  0  0
    1.6106    3.0138   10.6069 N   0  0  0  0  0  0  0  0  0  0  0  0
    3.1699    4.8616   11.1350 C   0  0  0  0  0  0  0  0  0  0  0  0
    4.0012    5.5306   11.9980 C   0  0  0  0  0  0  0  0  0  0  0  0
    4.0716    4.9813   13.2847 C   0  0  0  0  0  0  0  0  0  0  0  0
    1.4373    1.9818   10.6626 H   0  0  0  0  0  0  0  0  0  0  0  0
    1.0910    3.4836    9.8067 H   0  0  0  0  0  0  0  0  0  0  0  0
    4.7827    6.7108   11.6866 C   0  0  0  0  0  0  0  0  0  0  0  0
    4.0805    7.8318   11.6577 O   0  0  0  0  0  0  0  0  0  0  0  0
    6.1204    6.9107   11.4109 N   0  0  0  0  0  0  0  0  0  0  0  0
    7.1044    5.8661   11.2850 C   0  0  0  0  0  0  0  0  0  0  0  0
    8.3154    6.5305   10.5697 C   0  0  0  0  0  0  0  0  0  0  0  0
    8.9398    7.4473   11.5617 C   0  0  0  0  0  0  0  0  0  0  0  0
    7.9009    8.4226   12.0857 C   0  0  0  0  0  0  0  0  0  0  0  0
    6.6034    8.3075   11.3215 C   0  0  0  0  0  0  0  0  0  0  0  0
   10.0039    8.2886   11.0540 N   0  0  0  0  0  0  0  0  0  0  0  0
   10.9975    7.6582   10.2633 C   0  0  0  0  0  0  0  0  0  0  0  0
   12.0421    7.0441   11.1579 C   0  0  0  0  0  0  0  0  0  0  0  0
   12.0870    8.1286   12.2523 C   0  0  0  0  0  0  0  0  0  0  0  0
   10.7353    8.7653   12.2353 C   0  0  0  0  0  0  0  0  0  0  0  0
    5.3064    5.2286   18.5838 N   0  0  0  0  0  0  0  0  0  0  0  0
    4.3380    4.3427   18.5489 C   0  0  0  0  0  0  0  0  0  0  0  0
    3.5054    4.0715   19.5241 O   0  0  0  0  0  0  0  0  0  0  0  0
    4.6815    5.8286   19.6407 H   0  0  0  0  0  0  0  0  0  0  0  0
    6.4191    7.0522   19.9130 C   0  0  0  0  0  0  0  0  0  0  0  0
    7.4539    8.0775   19.4629 C   0  0  0  0  0  0  0  0  0  0  0  0
    7.3679    8.1636   17.9637 C   0  0  0  0  0  0  0  0  0  0  0  0
    6.2483    7.2248   17.5613 C   0  0  0  0  0  0  0  0  0  0  0  0
    6.3371    6.1724   18.6233 C   0  0  0  0  0  0  0  0  0  0  0  0
    6.9001    6.2308   20.8757 O   0  0  0  0  0  0  0  0  0  0  0  0
    6.2721    6.2042   22.0818 C   0  0  0  0  0  0  0  0  0  0  0  0
    3.6387    1.1707   22.8922 C   0  0  0  0  0  0  0  0  0  0  0  0
    4.3349    2.4505   22.6460 C   0  0  0  0  0  0  0  0  0  0  0  0
    3.7314    3.6213   23.0708 C   0  0  0  0  0  0  0  0  0  0  0  0
    4.3662    4.8388   22.8680 C   0  0  0  0  0  0  0  0  0  0  0  0
    5.5976    4.8673   22.2414 C   0  0  0  0  0  0  0  0  0  0  0  0
    6.1873    3.7019   21.8239 C   0  0  0  0  0  0  0  0  0  0  0  0
    5.5506    2.4693   22.0254 C   0  0  0  0  0  0  0  0  0  0  0  0
    6.2014    1.2159   21.5593 C   0  0  0  0  0  0  0  0  0  0  0  0
 43 44  1  0  0  0
 44 45  2  0  0  0
 45 46  1  0  0  0
 46 47  2  0  0  0
 47 42  1  0  0  0
 42 41  1  0  0  0
 41 36  1  0  0  0
 36 37  1  0  0  0
 37 38  1  0  0  0
 38 39  1  0  0  0
 39 40  1  0  0  0
 40 32  1  0  0  0
 32 33  1  0  0  0
 33 34  2  0  0  0
 33  1  1  0  0  0
  1  2  2  0  0  0
  2  3  1  0  0  0
  3  4  2  0  0  0
  4  5  1  0  0  0
  5  6  2  0  0  0
  6  7  1  0  0  0
  3 10  1  0  0  0
 10 11  2  0  0  0
 11 12  1  0  0  0
 12 13  1  0  0  0
 12 14  2  0  0  0
 14 15  1  0  0  0
 15 16  2  0  0  0
 15 19  1  0  0  0
 19 20  2  0  0  0
 19 21  1  0  0  0
 21 22  1  0  0  0
 22 23  1  0  0  0
 23 24  1  0  0  0
 24 25  1  0  0  0
 25 26  1  0  0  0
 24 27  1  0  0  0
 27 28  1  0  0  0
 28 29  1  0  0  0
 29 30  1  0  0  0
 30 31  1  0  0  0
 47 48  1  0  0  0
 48 49  2  0  0  0
 49 50  1  0  0  0
 49 44  1  0  0  0
 40 36  1  0  0  0
  6  1  1  0  0  0
 16 10  1  0  0  0
 26 21  1  0  0  0
 31 27  1  0  0  0
 32 35  1  0  0  0
  7  8  1  0  0  0
  7  9  1  0  0  0
 13 17  1  0  0  0
 13 18  1  0  0  0
M  END
> <minimizedAffinity>
-9.69700

> <CNNscore>
0.2375968099

> <CNNaffinity>
7.3334398270

> <CNN_VS>
1.7424019575

> <CNNaffinity_variance>
0.1738465130

$$$$
[H]c1nc(N([H])[H])c(C(=O)N([H])[C@@]2([H])C([H])([H])C([H])([H])C([H])([H])[C@]2([H])OC([H])([H])c2c([H])c([H])c(C([H])([H])[H])c(C([H])([H])[H])c2[H])c([H])c1-c1c([H])c(C(=O)N2C([H])([H])C([H])([H])C([H])(N3C([H])([H])C([H])([H])C([H])([H])C3([H])[H])C([H])([H])C2([H])[H])c([H])c(N([H])[H])c1[H]


 50 55  0  0  0  0  0  0  0  0999 V2000
    3.0578    3.0996   15.4334 C   0  0  0  0  0  0  0  0  0  0  0  0
    3.7487    3.7066   16.4643 C   0  0  0  0  0  0  0  0  0  0  0  0
    3.9391    2.9871   17.5938 C   0  0  0  0  0  0  0  0  0  0  0  0
    3.4340    1.6870   17.6658 C   0  0  0  0  0  0  0  0  0  0  0  0
    2.7720    1.1183   16.6696 N   0  0  0  0  0  0  0  0  0  0  0  0
    2.5699    1.8281   15.5172 C   0  0  0  0  0  0  0  0  0  0  0  0
    1.8763    1.2605   14.4224 N   0  0  0  0  0  0  0  0  0  0  0  0
    0.8768    1.3691   14.1711 H   0  0  0  0  0  0  0  0  0  0  0  0
    2.4589    0.6424   13.7790 H   0  0  0  0  0  0  0  0  0  0  0  0
    4.6395    3.4708   18.8002 C   0  0  0  0  0  0  0  0  0  0  0  0
    4.7273    2.7403   19.9538 C   0  0  0  0  0  0  0  0  0  0  0  0
    5.3615    3.2157   21.0720 C   0  0  0  0  0  0  0  0  0  0  0  0
    5.3884    2.3990   22.2247 N   0  0  0  0  0  0  0  0  0  0  0  0
    5.9290    4.4895   21.0155 C   0  0  0  0  0  0  0  0  0  0  0  0
    5.8796    5.2857   19.8988 C   0  0  0  0  0  0  0  0  0  0  0  0
    5.2147    4.7170   18.8049 C   0  0  0  0  0  0  0  0  0  0  0  0
    4.6417    1.7048   22.4670 H   0  0  0  0  0  0  0  0  0  0  0  0
    6.1761    2.4337   22.9384 H   0  0  0  0  0  0  0  0  0  0  0  0
    6.4371    6.6180   19.7759 C   0  0  0  0  0  0  0  0  0  0  0  0
    7.7589    6.6569   19.8194 O   0  0  0  0  0  0  0  0  0  0  0  0
    5.8703    7.8671   19.6217 N   0  0  0  0  0  0  0  0  0  0  0  0
    4.4560    8.1410   19.6315 C   0  0  0  0  0  0  0  0  0  0  0  0
    4.3393    9.6763   19.8521 C   0  0  0  0  0  0  0  0  0  0  0  0
    4.7862   10.3192   18.5867 C   0  0  0  0  0  0  0  0  0  0  0  0
    6.1798    9.8352   18.2280 C   0  0  0  0  0  0  0  0  0  0  0  0
    6.7761    9.0037   19.3387 C   0  0  0  0  0  0  0  0  0  0  0  0
    4.9018   11.7625   18.6241 N   0  0  0  0  0  0  0  0  0  0  0  0
    3.8597   12.4724   19.2722 C   0  0  0  0  0  0  0  0  0  0  0  0
    2.7193   12.6862   18.3118 C   0  0  0  0  0  0  0  0  0  0  0  0
    3.5328   12.9347   17.0265 C   0  0  0  0  0  0  0  0  0  0  0  0
    4.8224   12.2068   17.2263 C   0  0  0  0  0  0  0  0  0  0  0  0
    1.7640    4.4892   13.8205 N   0  0  0  0  0  0  0  0  0  0  0  0
    2.8817    3.8987   14.1751 C   0  0  0  0  0  0  0  0  0  0  0  0
    4.0071    3.9110   13.5035 O   0  0  0  0  0  0  0  0  0  0  0  0
    2.4856    5.2867   12.9774 H   0  0  0  0  0  0  0  0  0  0  0  0
    0.3508    5.3034   11.9046 C   0  0  0  0  0  0  0  0  0  0  0  0
   -0.8662    6.2215   11.9278 C   0  0  0  0  0  0  0  0  0  0  0  0
   -0.8239    6.9790   13.2266 C   0  0  0  0  0  0  0  0  0  0  0  0
    0.4454    6.5309   13.9229 C   0  0  0  0  0  0  0  0  0  0  0  0
    0.5748    5.1188   13.4408 C   0  0  0  0  0  0  0  0  0  0  0  0
    0.0498    4.0692   11.4367 O   0  0  0  0  0  0  0  0  0  0  0  0
    0.2818    3.7963   10.1247 C   0  0  0  0  0  0  0  0  0  0  0  0
    3.9068   -0.6306    9.6898 C   0  0  0  0  0  0  0  0  0  0  0  0
    2.9417    0.4810    9.8161 C   0  0  0  0  0  0  0  0  0  0  0  0
    3.4223    1.7367   10.1443 C   0  0  0  0  0  0  0  0  0  0  0  0
    2.5436    2.8053   10.2560 C   0  0  0  0  0  0  0  0  0  0  0  0
    1.1943    2.6014   10.0378 C   0  0  0  0  0  0  0  0  0  0  0  0
    0.7278    1.3535    9.7134 C   0  0  0  0  0  0  0  0  0  0  0  0
    1.6105    0.2703    9.5998 C   0  0  0  0  0  0  0  0  0  0  0  0
    1.0861   -1.0778    9.2544 C   0  0  0  0  0  0  0  0  0  0  0  0
 43 44  1  0  0  0
 44 45  2  0  0  0
 45 46  1  0  0  0
 46 47  2  0  0  0
 47 42  1  0  0  0
 42 41  1  0  0  0
 41 36  1  0  0  0
 36 37  1  0  0  0
 37 38  1  0  0  0
 38 39  1  0  0  0
 39 40  1  0  0  0
 40 32  1  0  0  0
 32 33  1  0  0  0
 33 34  2  0  0  0
 33  1  1  0  0  0
  1  2  2  0  0  0
  2  3  1  0  0  0
  3  4  2  0  0  0
  4  5  1  0  0  0
  5  6  2  0  0  0
  6  7  1  0  0  0
  3 10  1  0  0  0
 10 11  2  0  0  0
 11 12  1  0  0  0
 12 13  1  0  0  0
 12 14  2  0  0  0
 14 15  1  0  0  0
 15 16  2  0  0  0
 15 19  1  0  0  0
 19 20  2  0  0  0
 19 21  1  0  0  0
 21 22  1  0  0  0
 22 23  1  0  0  0
 23 24  1  0  0  0
 24 25  1  0  0  0
 25 26  1  0  0  0
 24 27  1  0  0  0
 27 28  1  0  0  0
 28 29  1  0  0  0
 29 30  1  0  0  0
 30 31  1  0  0  0
 47 48  1  0  0  0
 48 49  2  0  0  0
 49 50  1  0  0  0
 49 44  1  0  0  0
 40 36  1  0  0  0
  6  1  1  0  0  0
 16 10  1  0  0  0
 26 21  1  0  0  0
 31 27  1  0  0  0
 32 35  1  0  0  0
  7  8  1  0  0  0
  7  9  1  0  0  0
 13 17  1  0  0  0
 13 18  1  0  0  0
M  END
> <minimizedAffinity>
-9.53705

> <CNNscore>
0.2199761868

> <CNNaffinity>
7.0347595215

> <CNN_VS>
1.5474796295

> <CNNaffinity_variance>
0.1638657600

$$$$
[H]c1nc(N([H])[H])c(C(=O)N([H])[C@@]2([H])C([H])([H])C([H])([H])C([H])([H])[C@]2([H])OC([H])([H])c2c([H])c([H])c(C([H])([H])[H])c(C([H])([H])[H])c2[H])c([H])c1-c1c([H])c(C(=O)N2C([H])([H])C([H])([H])C([H])(N3C([H])([H])C([H])([H])C([H])([H])C3([H])[H])C([H])([H])C2([H])[H])c([H])c(N([H])[H])c1[H]


 50 55  0  0  0  0  0  0  0  0999 V2000
    4.8479    2.2737   20.3961 C   0  0  0  0  0  0  0  0  0  0  0  0
    4.7884    3.6528   20.4511 C   0  0  0  0  0  0  0  0  0  0  0  0
    5.6244    4.2776   21.3117 C   0  0  0  0  0  0  0  0  0  0  0  0
    6.4921    3.5124   22.0941 C   0  0  0  0  0  0  0  0  0  0  0  0
    6.5371    2.1901   22.0317 N   0  0  0  0  0  0  0  0  0  0  0  0
    5.7010    1.5384   21.1663 C   0  0  0  0  0  0  0  0  0  0  0  0
    5.7183    0.1278   21.0577 N   0  0  0  0  0  0  0  0  0  0  0  0
    5.0944   -0.5583   21.5201 H   0  0  0  0  0  0  0  0  0  0  0  0
    6.4711   -0.2754   20.4203 H   0  0  0  0  0  0  0  0  0  0  0  0
    5.6946    5.7379   21.5173 C   0  0  0  0  0  0  0  0  0  0  0  0
    4.8419    6.6178   20.9083 C   0  0  0  0  0  0  0  0  0  0  0  0
    4.9373    7.9725   21.0926 C   0  0  0  0  0  0  0  0  0  0  0  0
    4.0246    8.8073   20.4095 N   0  0  0  0  0  0  0  0  0  0  0  0
    5.9443    8.4536   21.9308 C   0  0  0  0  0  0  0  0  0  0  0  0
    6.8410    7.6376   22.5738 C   0  0  0  0  0  0  0  0  0  0  0  0
    6.6657    6.2696   22.3285 C   0  0  0  0  0  0  0  0  0  0  0  0
    3.5965    8.5704   19.4828 H   0  0  0  0  0  0  0  0  0  0  0  0
    3.7061    9.7478   20.7903 H   0  0  0  0  0  0  0  0  0  0  0  0
    7.9141    8.0702   23.4467 C   0  0  0  0  0  0  0  0  0  0  0  0
    7.5224    8.3798   24.6720 O   0  0  0  0  0  0  0  0  0  0  0  0
    9.2731    8.2283   23.2639 N   0  0  0  0  0  0  0  0  0  0  0  0
    9.9657    8.0528   22.0130 C   0  0  0  0  0  0  0  0  0  0  0  0
   11.3475    8.7388   22.2120 C   0  0  0  0  0  0  0  0  0  0  0  0
   12.1215    7.8674   23.1371 C   0  0  0  0  0  0  0  0  0  0  0  0
   11.3337    7.6473   24.4162 C   0  0  0  0  0  0  0  0  0  0  0  0
   10.0993    8.5163   24.4584 C   0  0  0  0  0  0  0  0  0  0  0  0
   13.3935    8.3989   23.5813 N   0  0  0  0  0  0  0  0  0  0  0  0
   13.4301    8.9764   24.8755 C   0  0  0  0  0  0  0  0  0  0  0  0
   12.9673   10.4080   24.8044 C   0  0  0  0  0  0  0  0  0  0  0  0
   13.5959   10.7953   23.4514 C   0  0  0  0  0  0  0  0  0  0  0  0
   13.6955    9.5192   22.6806 C   0  0  0  0  0  0  0  0  0  0  0  0
    3.8060    1.9497   18.1566 N   0  0  0  0  0  0  0  0  0  0  0  0
    3.9368    1.5965   19.4143 C   0  0  0  0  0  0  0  0  0  0  0  0
    3.3077    0.6120   20.0083 O   0  0  0  0  0  0  0  0  0  0  0  0
    3.2833    0.7147   17.8933 H   0  0  0  0  0  0  0  0  0  0  0  0
    2.5695    3.3967   16.5109 C   0  0  0  0  0  0  0  0  0  0  0  0
    2.5566    3.3279   14.9878 C   0  0  0  0  0  0  0  0  0  0  0  0
    3.0149    1.9478   14.6036 C   0  0  0  0  0  0  0  0  0  0  0  0
    3.2407    1.2112   15.9088 C   0  0  0  0  0  0  0  0  0  0  0  0
    3.6650    2.3240   16.8169 C   0  0  0  0  0  0  0  0  0  0  0  0
    3.0785    4.5664   16.9645 O   0  0  0  0  0  0  0  0  0  0  0  0
    3.7073    5.3881   16.0819 C   0  0  0  0  0  0  0  0  0  0  0  0
    8.1289    7.7182   18.9010 C   0  0  0  0  0  0  0  0  0  0  0  0
    6.9906    7.1533   18.1472 C   0  0  0  0  0  0  0  0  0  0  0  0
    6.8733    5.7768   18.0645 C   0  0  0  0  0  0  0  0  0  0  0  0
    5.8072    5.2143   17.3765 C   0  0  0  0  0  0  0  0  0  0  0  0
    4.8724    6.0389   16.7797 C   0  0  0  0  0  0  0  0  0  0  0  0
    4.9974    7.4016   16.8670 C   0  0  0  0  0  0  0  0  0  0  0  0
    6.0726    7.9753   17.5601 C   0  0  0  0  0  0  0  0  0  0  0  0
    6.1965    9.4553   17.6383 C   0  0  0  0  0  0  0  0  0  0  0  0
 43 44  1  0  0  0
 44 45  2  0  0  0
 45 46  1  0  0  0
 46 47  2  0  0  0
 47 42  1  0  0  0
 42 41  1  0  0  0
 41 36  1  0  0  0
 36 37  1  0  0  0
 37 38  1  0  0  0
 38 39  1  0  0  0
 39 40  1  0  0  0
 40 32  1  0  0  0
 32 33  1  0  0  0
 33 34  2  0  0  0
 33  1  1  0  0  0
  1  2  2  0  0  0
  2  3  1  0  0  0
  3  4  2  0  0  0
  4  5  1  0  0  0
  5  6  2  0  0  0
  6  7  1  0  0  0
  3 10  1  0  0  0
 10 11  2  0  0  0
 11 12  1  0  0  0
 12 13  1  0  0  0
 12 14  2  0  0  0
 14 15  1  0  0  0
 15 16  2  0  0  0
 15 19  1  0  0  0
 19 20  2  0  0  0
 19 21  1  0  0  0
 21 22  1  0  0  0
 22 23  1  0  0  0
 23 24  1  0  0  0
 24 25  1  0  0  0
 25 26  1  0  0  0
 24 27  1  0  0  0
 27 28  1  0  0  0
 28 29  1  0  0  0
 29 30  1  0  0  0
 30 31  1  0  0  0
 47 48  1  0  0  0
 48 49  2  0  0  0
 49 50  1  0  0  0
 49 44  1  0  0  0
 40 36  1  0  0  0
  6  1  1  0  0  0
 16 10  1  0  0  0
 26 21  1  0  0  0
 31 27  1  0  0  0
 32 35  1  0  0  0
  7  8  1  0  0  0
  7  9  1  0  0  0
 13 17  1  0  0  0
 13 18  1  0  0  0
M  END
> <minimizedAffinity>
-10.15221

> <CNNscore>
0.2160932124

> <CNNaffinity>
7.2382135391

> <CNN_VS>
1.5641287565

> <CNNaffinity_variance>
0.3877125680

$$$$
[H]c1nc(N([H])[H])c(C(=O)N([H])[C@@]2([H])C([H])([H])C([H])([H])C([H])([H])[C@]2([H])OC([H])([H])c2c([H])c([H])c(C([H])([H])[H])c(C([H])([H])[H])c2[H])c([H])c1-c1c([H])c(C(=O)N2C([H])([H])C([H])([H])C([H])(N3C([H])([H])C([H])([H])C([H])([H])C3([H])[H])C([H])([H])C2([H])[H])c([H])c(N([H])[H])c1[H]


 50 55  0  0  0  0  0  0  0  0999 V2000
    3.5941    2.4692   17.0384 C   0  0  0  0  0  0  0  0  0  0  0  0
    4.2666    3.1699   18.0209 C   0  0  0  0  0  0  0  0  0  0  0  0
    4.4065    2.5719   19.2262 C   0  0  0  0  0  0  0  0  0  0  0  0
    3.8708    1.2967   19.4195 C   0  0  0  0  0  0  0  0  0  0  0  0
    3.2269    0.6373   18.4683 N   0  0  0  0  0  0  0  0  0  0  0  0
    3.0758    1.2234   17.2410 C   0  0  0  0  0  0  0  0  0  0  0  0
    2.4033    0.5552   16.1908 N   0  0  0  0  0  0  0  0  0  0  0  0
    1.4146    0.6550   15.8969 H   0  0  0  0  0  0  0  0  0  0  0  0
    2.9914   -0.1391   15.6361 H   0  0  0  0  0  0  0  0  0  0  0  0
    5.0805    3.1686   20.3964 C   0  0  0  0  0  0  0  0  0  0  0  0
    5.1722    2.5358   21.6061 C   0  0  0  0  0  0  0  0  0  0  0  0
    5.7812    3.1154   22.6885 C   0  0  0  0  0  0  0  0  0  0  0  0
    5.8142    2.3951   23.9036 N   0  0  0  0  0  0  0  0  0  0  0  0
    6.3183    4.3944   22.5350 C   0  0  0  0  0  0  0  0  0  0  0  0
    6.2630    5.0967   21.3572 C   0  0  0  0  0  0  0  0  0  0  0  0
    5.6252    4.4252   20.3062 C   0  0  0  0  0  0  0  0  0  0  0  0
    5.0817    1.7041   24.1937 H   0  0  0  0  0  0  0  0  0  0  0  0
    6.5922    2.5069   24.6200 H   0  0  0  0  0  0  0  0  0  0  0  0
    6.7894    6.4284   21.1327 C   0  0  0  0  0  0  0  0  0  0  0  0
    8.0737    6.5579   21.4233 O   0  0  0  0  0  0  0  0  0  0  0  0
    6.2240    7.6013   20.6745 N   0  0  0  0  0  0  0  0  0  0  0  0
    4.8281    7.7824   20.3677 C   0  0  0  0  0  0  0  0  0  0  0  0
    4.6189    9.3228   20.3135 C   0  0  0  0  0  0  0  0  0  0  0  0
    5.2887    9.7957   19.0716 C   0  0  0  0  0  0  0  0  0  0  0  0
    6.7411    9.3535   19.0703 C   0  0  0  0  0  0  0  0  0  0  0  0
    7.1300    8.7382   20.3935 C   0  0  0  0  0  0  0  0  0  0  0  0
    5.3466   11.2326   18.8995 N   0  0  0  0  0  0  0  0  0  0  0  0
    4.2114   11.9741   19.3137 C   0  0  0  0  0  0  0  0  0  0  0  0
    3.1827   11.9817   18.2135 C   0  0  0  0  0  0  0  0  0  0  0  0
    4.1299   12.0799   17.0015 C   0  0  0  0  0  0  0  0  0  0  0  0
    5.4133   11.4597   17.4499 C   0  0  0  0  0  0  0  0  0  0  0  0
    3.3521    4.4270   15.5170 N   0  0  0  0  0  0  0  0  0  0  0  0
    3.4740    3.1323   15.6973 C   0  0  0  0  0  0  0  0  0  0  0  0
    3.5129    2.2227   14.7545 O   0  0  0  0  0  0  0  0  0  0  0  0
    3.7639    4.2576   14.2250 H   0  0  0  0  0  0  0  0  0  0  0  0
    3.5628    6.3366   13.8923 C   0  0  0  0  0  0  0  0  0  0  0  0
    3.5546    7.8370   14.1634 C   0  0  0  0  0  0  0  0  0  0  0  0
    3.8909    8.0255   15.6172 C   0  0  0  0  0  0  0  0  0  0  0  0
    4.1417    6.6348   16.1650 C   0  0  0  0  0  0  0  0  0  0  0  0
    3.2220    5.8055   15.3226 C   0  0  0  0  0  0  0  0  0  0  0  0
    2.5247    5.9535   13.1123 O   0  0  0  0  0  0  0  0  0  0  0  0
    2.6943    5.9416   11.7630 C   0  0  0  0  0  0  0  0  0  0  0  0
   -2.4193    6.0687    9.1625 C   0  0  0  0  0  0  0  0  0  0  0  0
   -1.1179    6.0036    9.8590 C   0  0  0  0  0  0  0  0  0  0  0  0
    0.0299    6.2837    9.1383 C   0  0  0  0  0  0  0  0  0  0  0  0
    1.2669    6.2459    9.7667 C   0  0  0  0  0  0  0  0  0  0  0  0
    1.3376    5.9272   11.1096 C   0  0  0  0  0  0  0  0  0  0  0  0
    0.1947    5.6510   11.8151 C   0  0  0  0  0  0  0  0  0  0  0  0
   -1.0574    5.6870   11.1854 C   0  0  0  0  0  0  0  0  0  0  0  0
   -2.2859    5.3773   11.9643 C   0  0  0  0  0  0  0  0  0  0  0  0
 43 44  1  0  0  0
 44 45  2  0  0  0
 45 46  1  0  0  0
 46 47  2  0  0  0
 47 42  1  0  0  0
 42 41  1  0  0  0
 41 36  1  0  0  0
 36 37  1  0  0  0
 37 38  1  0  0  0
 38 39  1  0  0  0
 39 40  1  0  0  0
 40 32  1  0  0  0
 32 33  1  0  0  0
 33 34  2  0  0  0
 33  1  1  0  0  0
  1  2  2  0  0  0
  2  3  1  0  0  0
  3  4  2  0  0  0
  4  5  1  0  0  0
  5  6  2  0  0  0
  6  7  1  0  0  0
  3 10  1  0  0  0
 10 11  2  0  0  0
 11 12  1  0  0  0
 12 13  1  0  0  0
 12 14  2  0  0  0
 14 15  1  0  0  0
 15 16  2  0  0  0
 15 19  1  0  0  0
 19 20  2  0  0  0
 19 21  1  0  0  0
 21 22  1  0  0  0
 22 23  1  0  0  0
 23 24  1  0  0  0
 24 25  1  0  0  0
 25 26  1  0  0  0
 24 27  1  0  0  0
 27 28  1  0  0  0
 28 29  1  0  0  0
 29 30  1  0  0  0
 30 31  1  0  0  0
 47 48  1  0  0  0
 48 49  2  0  0  0
 49 50  1  0  0  0
 49 44  1  0  0  0
 40 36  1  0  0  0
  6  1  1  0  0  0
 16 10  1  0  0  0
 26 21  1  0  0  0
 31 27  1  0  0  0
 32 35  1  0  0  0
  7  8  1  0  0  0
  7  9  1  0  0  0
 13 17  1  0  0  0
 13 18  1  0  0  0
M  END
> <minimizedAffinity>
-10.02899

> <CNNscore>
0.1990221143

> <CNNaffinity>
6.9642438889

> <CNN_VS>
1.3860385418

> <CNNaffinity_variance>
0.4554111958

$$$$
[H]c1nc(N([H])[H])c(C(=O)N([H])[C@@]2([H])C([H])([H])C([H])([H])C([H])([H])[C@]2([H])OC([H])([H])c2c([H])c([H])c(C([H])([H])[H])c(C([H])([H])[H])c2[H])c([H])c1-c1c([H])c(C(=O)N2C([H])([H])C([H])([H])C([H])(N3C([H])([H])C([H])([H])C([H])([H])C3([H])[H])C([H])([H])C2([H])[H])c([H])c(N([H])[H])c1[H]


 50 55  0  0  0  0  0  0  0  0999 V2000
    2.0729    3.3904   14.2032 C   0  0  0  0  0  0  0  0  0  0  0  0
    2.8288    3.9002   15.2412 C   0  0  0  0  0  0  0  0  0  0  0  0
    3.2517    3.0314   16.1878 C   0  0  0  0  0  0  0  0  0  0  0  0
    2.9078    1.6824   16.0758 C   0  0  0  0  0  0  0  0  0  0  0  0
    2.1809    1.2080   15.0754 N   0  0  0  0  0  0  0  0  0  0  0  0
    1.7444    2.0696   14.1061 C   0  0  0  0  0  0  0  0  0  0  0  0
    0.9727    1.6088   13.0135 N   0  0  0  0  0  0  0  0  0  0  0  0
   -0.0578    1.6245   12.9048 H   0  0  0  0  0  0  0  0  0  0  0  0
    1.5252    1.1920   12.2032 H   0  0  0  0  0  0  0  0  0  0  0  0
    4.0548    3.3923   17.3730 C   0  0  0  0  0  0  0  0  0  0  0  0
    4.2702    2.5338   18.4164 C   0  0  0  0  0  0  0  0  0  0  0  0
    4.9990    2.8946   19.5197 C   0  0  0  0  0  0  0  0  0  0  0  0
    5.1557    1.9487   20.5575 N   0  0  0  0  0  0  0  0  0  0  0  0
    5.5298    4.1846   19.5649 C   0  0  0  0  0  0  0  0  0  0  0  0
    5.3548    5.1053   18.5623 C   0  0  0  0  0  0  0  0  0  0  0  0
    4.5998    4.6478   17.4747 C   0  0  0  0  0  0  0  0  0  0  0  0
    4.4517    1.2059   20.7827 H   0  0  0  0  0  0  0  0  0  0  0  0
    6.0079    1.9252   21.1933 H   0  0  0  0  0  0  0  0  0  0  0  0
    5.8678    6.4608   18.5500 C   0  0  0  0  0  0  0  0  0  0  0  0
    7.1852    6.5391   18.4552 O   0  0  0  0  0  0  0  0  0  0  0  0
    5.2621    7.6993   18.6175 N   0  0  0  0  0  0  0  0  0  0  0  0
    3.8524    7.9213   18.8144 C   0  0  0  0  0  0  0  0  0  0  0  0
    3.7298    9.4126   19.2392 C   0  0  0  0  0  0  0  0  0  0  0  0
    4.0198   10.2222   18.0248 C   0  0  0  0  0  0  0  0  0  0  0  0
    5.3744    9.8341   17.4595 C   0  0  0  0  0  0  0  0  0  0  0  0
    6.1075    8.8924   18.3849 C   0  0  0  0  0  0  0  0  0  0  0  0
    4.1095   11.6528   18.2323 N   0  0  0  0  0  0  0  0  0  0  0  0
    2.8920   12.3469   18.4467 C   0  0  0  0  0  0  0  0  0  0  0  0
    2.2575   12.6773   17.1212 C   0  0  0  0  0  0  0  0  0  0  0  0
    3.5338   12.9966   16.3183 C   0  0  0  0  0  0  0  0  0  0  0  0
    4.6217   12.2086   16.9728 C   0  0  0  0  0  0  0  0  0  0  0  0
    2.4543    4.9865   12.3289 N   0  0  0  0  0  0  0  0  0  0  0  0
    1.6374    4.3607   13.1442 C   0  0  0  0  0  0  0  0  0  0  0  0
    0.3320    4.4756   13.1663 O   0  0  0  0  0  0  0  0  0  0  0  0
    1.3974    5.2208   11.4948 H   0  0  0  0  0  0  0  0  0  0  0  0
    4.8463    5.3568   11.6420 C   0  0  0  0  0  0  0  0  0  0  0  0
    5.4313    6.4301   10.7305 C   0  0  0  0  0  0  0  0  0  0  0  0
    4.4337    7.5543   10.6743 C   0  0  0  0  0  0  0  0  0  0  0  0
    3.3011    7.1455   11.5946 C   0  0  0  0  0  0  0  0  0  0  0  0
    3.3223    5.6541   11.4596 C   0  0  0  0  0  0  0  0  0  0  0  0
    5.0291    4.1107   11.1453 O   0  0  0  0  0  0  0  0  0  0  0  0
    4.8427    3.9072    9.8136 C   0  0  0  0  0  0  0  0  0  0  0  0
    3.2054   -1.5591    9.2080 C   0  0  0  0  0  0  0  0  0  0  0  0
    3.6488   -0.1545    9.3249 C   0  0  0  0  0  0  0  0  0  0  0  0
    2.8226    0.7452    9.9755 C   0  0  0  0  0  0  0  0  0  0  0  0
    3.2165    2.0687   10.1153 C   0  0  0  0  0  0  0  0  0  0  0  0
    4.4335    2.4736    9.6007 C   0  0  0  0  0  0  0  0  0  0  0  0
    5.2450    1.5747    8.9575 C   0  0  0  0  0  0  0  0  0  0  0  0
    4.8520    0.2368    8.8127 C   0  0  0  0  0  0  0  0  0  0  0  0
    5.7414   -0.7227    8.1056 C   0  0  0  0  0  0  0  0  0  0  0  0
 43 44  1  0  0  0
 44 45  2  0  0  0
 45 46  1  0  0  0
 46 47  2  0  0  0
 47 42  1  0  0  0
 42 41  1  0  0  0
 41 36  1  0  0  0
 36 37  1  0  0  0
 37 38  1  0  0  0
 38 39  1  0  0  0
 39 40  1  0  0  0
 40 32  1  0  0  0
 32 33  1  0  0  0
 33 34  2  0  0  0
 33  1  1  0  0  0
  1  2  2  0  0  0
  2  3  1  0  0  0
  3  4  2  0  0  0
  4  5  1  0  0  0
  5  6  2  0  0  0
  6  7  1  0  0  0
  3 10  1  0  0  0
 10 11  2  0  0  0
 11 12  1  0  0  0
 12 13  1  0  0  0
 12 14  2  0  0  0
 14 15  1  0  0  0
 15 16  2  0  0  0
 15 19  1  0  0  0
 19 20  2  0  0  0
 19 21  1  0  0  0
 21 22  1  0  0  0
 22 23  1  0  0  0
 23 24  1  0  0  0
 24 25  1  0  0  0
 25 26  1  0  0  0
 24 27  1  0  0  0
 27 28  1  0  0  0
 28 29  1  0  0  0
 29 30  1  0  0  0
 30 31  1  0  0  0
 47 48  1  0  0  0
 48 49  2  0  0  0
 49 50  1  0  0  0
 49 44  1  0  0  0
 40 36  1  0  0  0
  6  1  1  0  0  0
 16 10  1  0  0  0
 26 21  1  0  0  0
 31 27  1  0  0  0
 32 35  1  0  0  0
  7  8  1  0  0  0
  7  9  1  0  0  0
 13 17  1  0  0  0
 13 18  1  0  0  0
M  END
> <minimizedAffinity>
-9.01207

> <CNNscore>
0.1383518279

> <CNNaffinity>
6.8891906738

> <CNN_VS>
0.9531320930

> <CNNaffinity_variance>
0.1809608638

$$$$
[H]O[C@]1([H])C([H])([H])C([H])([H])[C@@]([H])(n2c([H])c(-c3c([H])c([H])c(S(=O)(=O)N4C([H])([H])C([H])([H])OC([H])([H])C4([H])[H])c(F)c3[H])c3c([H])nc(N([H])C([H])([H])C([H])([H])C([H])([H])C([H])([H])[H])nc32)C([H])([H])C1([H])[H]


 39 43  0  0  0  0  0  0  0  0999 V2000
    3.0561    0.2887   18.6049 C   0  0  0  0  0  0  0  0  0  0  0  0
    2.4950   -0.1435   17.4677 N   0  0  0  0  0  0  0  0  0  0  0  0
    2.5138    0.5547   16.3224 C   0  0  0  0  0  0  0  0  0  0  0  0
    3.1431    1.7812   16.3128 C   0  0  0  0  0  0  0  0  0  0  0  0
    3.3278    2.7148   15.3168 C   0  0  0  0  0  0  0  0  0  0  0  0
    4.0251    3.7381   15.8894 C   0  0  0  0  0  0  0  0  0  0  0  0
    4.2736    3.4675   17.1933 N   0  0  0  0  0  0  0  0  0  0  0  0
    3.7304    2.2479   17.4787 C   0  0  0  0  0  0  0  0  0  0  0  0
    3.6617    1.4863   18.5665 N   0  0  0  0  0  0  0  0  0  0  0  0
    4.9706    4.2683   18.1509 C   0  0  0  0  0  0  0  0  0  0  0  0
    5.8134    5.2709   17.3967 C   0  0  0  0  0  0  0  0  0  0  0  0
    5.3761    6.6515   17.7990 C   0  0  0  0  0  0  0  0  0  0  0  0
    5.6935    6.8046   19.2811 C   0  0  0  0  0  0  0  0  0  0  0  0
    6.9950    6.3189   19.4489 O   0  0  0  0  0  0  0  0  0  0  0  0
    4.7481    5.8920   20.0290 C   0  0  0  0  0  0  0  0  0  0  0  0
    4.0532    4.9116   19.1461 C   0  0  0  0  0  0  0  0  0  0  0  0
    7.2179    6.3106   20.4072 H   0  0  0  0  0  0  0  0  0  0  0  0
    2.8942    2.6751   13.9190 C   0  0  0  0  0  0  0  0  0  0  0  0
    1.7823    1.9596   13.5282 C   0  0  0  0  0  0  0  0  0  0  0  0
    1.3639    1.9152   12.2249 C   0  0  0  0  0  0  0  0  0  0  0  0
    2.0436    2.5991   11.1946 C   0  0  0  0  0  0  0  0  0  0  0  0
    3.1403    3.3032   11.5975 C   0  0  0  0  0  0  0  0  0  0  0  0
    3.8308    4.0339   10.6785 F   0  0  0  0  0  0  0  0  0  0  0  0
    3.5694    3.3490   12.9281 C   0  0  0  0  0  0  0  0  0  0  0  0
    1.4750    2.4465    9.5519 S   0  0  0  0  0  0  0  0  0  0  0  0
   -0.0288    2.2328    9.5338 O   0  0  0  0  0  0  0  0  0  0  0  0
    1.6775    3.7774    8.8127 O   0  0  0  0  0  0  0  0  0  0  0  0
    2.2739    1.2689    8.6544 N   0  0  0  0  0  0  0  0  0  0  0  0
    3.6652    1.1770    8.7827 C   0  0  0  0  0  0  0  0  0  0  0  0
    4.1574    0.2302    7.6684 C   0  0  0  0  0  0  0  0  0  0  0  0
    3.9373    0.7731    6.4261 O   0  0  0  0  0  0  0  0  0  0  0  0
    2.6795    1.2888    6.2306 C   0  0  0  0  0  0  0  0  0  0  0  0
    1.7294    1.0034    7.3578 C   0  0  0  0  0  0  0  0  0  0  0  0
    3.0080   -0.5044   19.8068 N   0  0  0  0  0  0  0  0  0  0  0  0
    3.2066   -1.4973   19.6870 H   0  0  0  0  0  0  0  0  0  0  0  0
    2.7271    0.1619   21.0277 C   0  0  0  0  0  0  0  0  0  0  0  0
    3.8655    0.4151   21.9516 C   0  0  0  0  0  0  0  0  0  0  0  0
    5.8284    1.8982   21.4806 C   0  0  0  0  0  0  0  0  0  0  0  0
    5.1587    0.5992   21.2712 C   0  0  0  0  0  0  0  0  0  0  0  0
 38 39  1  0  0  0
 39 37  1  0  0  0
 37 36  1  0  0  0
 36 34  1  0  0  0
 34  1  1  0  0  0
  1  2  2  0  0  0
  2  3  1  0  0  0
  3  4  2  0  0  0
  4  5  1  0  0  0
  5  6  2  0  0  0
  6  7  1  0  0  0
  7 10  1  0  0  0
 10 11  1  0  0  0
 11 12  1  0  0  0
 12 13  1  0  0  0
 13 14  1  0  0  0
 13 15  1  0  0  0
 15 16  1  0  0  0
  7  8  1  0  0  0
  8  9  2  0  0  0
  5 18  1  0  0  0
 18 19  2  0  0  0
 19 20  1  0  0  0
 20 21  2  0  0  0
 21 22  1  0  0  0
 22 23  1  0  0  0
 22 24  2  0  0  0
 21 25  1  0  0  0
 25 26  2  0  0  0
 25 27  2  0  0  0
 25 28  1  0  0  0
 28 29  1  0  0  0
 29 30  1  0  0  0
 30 31  1  0  0  0
 31 32  1  0  0  0
 32 33  1  0  0  0
  9  1  1  0  0  0
 24 18  1  0  0  0
 33 28  1  0  0  0
  8  4  1  0  0  0
 16 10  1  0  0  0
 34 35  1  0  0  0
 14 17  1  0  0  0
M  END
> <minimizedAffinity>
-7.84170

> <CNNscore>
0.9525184631

> <CNNaffinity>
7.7951612473

> <CNN_VS>
7.4250349998

> <CNNaffinity_variance>
0.0831852928

$$$$
[H]O[C@]1([H])C([H])([H])C([H])([H])[C@@]([H])(n2c([H])c(-c3c([H])c([H])c(S(=O)(=O)N4C([H])([H])C([H])([H])OC([H])([H])C4([H])[H])c(F)c3[H])c3c([H])nc(N([H])C([H])([H])C([H])([H])C([H])([H])C([H])([H])[H])nc32)C([H])([H])C1([H])[H]


 39 43  0  0  0  0  0  0  0  0999 V2000
    3.5919    1.0825   19.1707 C   0  0  0  0  0  0  0  0  0  0  0  0
    3.2601    0.5078   18.0069 N   0  0  0  0  0  0  0  0  0  0  0  0
    3.2161    1.1707   16.8414 C   0  0  0  0  0  0  0  0  0  0  0  0
    3.5285    2.5133   16.8389 C   0  0  0  0  0  0  0  0  0  0  0  0
    3.5739    3.4474   15.8273 C   0  0  0  0  0  0  0  0  0  0  0  0
    3.9469    4.6191   16.4181 C   0  0  0  0  0  0  0  0  0  0  0  0
    4.1311    4.4388   17.7480 N   0  0  0  0  0  0  0  0  0  0  0  0
    3.8746    3.1283   18.0322 C   0  0  0  0  0  0  0  0  0  0  0  0
    3.8911    2.3909   19.1386 N   0  0  0  0  0  0  0  0  0  0  0  0
    4.5218    5.4011   18.7306 C   0  0  0  0  0  0  0  0  0  0  0  0
    3.3312    5.6680   19.6226 C   0  0  0  0  0  0  0  0  0  0  0  0
    3.7085    5.3079   21.0322 C   0  0  0  0  0  0  0  0  0  0  0  0
    4.8214    6.2598   21.4519 C   0  0  0  0  0  0  0  0  0  0  0  0
    4.4061    7.5365   21.0576 O   0  0  0  0  0  0  0  0  0  0  0  0
    6.0440    5.8894   20.6430 C   0  0  0  0  0  0  0  0  0  0  0  0
    5.7408    4.9852   19.4967 C   0  0  0  0  0  0  0  0  0  0  0  0
    5.1313    8.1802   21.2241 H   0  0  0  0  0  0  0  0  0  0  0  0
    3.2947    3.2802   14.3999 C   0  0  0  0  0  0  0  0  0  0  0  0
    3.9865    3.9898   13.4412 C   0  0  0  0  0  0  0  0  0  0  0  0
    3.7376    3.8421   12.1026 C   0  0  0  0  0  0  0  0  0  0  0  0
    2.7558    2.9535   11.6153 C   0  0  0  0  0  0  0  0  0  0  0  0
    2.0814    2.2581   12.5758 C   0  0  0  0  0  0  0  0  0  0  0  0
    1.1484    1.3414   12.1956 F   0  0  0  0  0  0  0  0  0  0  0  0
    2.3339    2.4083   13.9434 C   0  0  0  0  0  0  0  0  0  0  0  0
    2.4649    2.8651    9.8969 S   0  0  0  0  0  0  0  0  0  0  0  0
    3.6284    3.4756    9.1347 O   0  0  0  0  0  0  0  0  0  0  0  0
    2.4513    1.3947    9.4535 O   0  0  0  0  0  0  0  0  0  0  0  0
    0.9969    3.5294    9.4130 N   0  0  0  0  0  0  0  0  0  0  0  0
    0.2848    4.2962   10.3433 C   0  0  0  0  0  0  0  0  0  0  0  0
   -1.1166    4.5398    9.7458 C   0  0  0  0  0  0  0  0  0  0  0  0
   -1.8146    3.3627    9.6278 O   0  0  0  0  0  0  0  0  0  0  0  0
   -1.1166    2.3267    9.0570 C   0  0  0  0  0  0  0  0  0  0  0  0
    0.2232    2.7306    8.5122 C   0  0  0  0  0  0  0  0  0  0  0  0
    3.6254    0.3214   20.3937 N   0  0  0  0  0  0  0  0  0  0  0  0
    3.0037   -0.4861   20.4266 H   0  0  0  0  0  0  0  0  0  0  0  0
    4.5271    0.7379   21.4071 C   0  0  0  0  0  0  0  0  0  0  0  0
    5.9776    0.7491   21.0758 C   0  0  0  0  0  0  0  0  0  0  0  0
    5.9775    2.7409   22.5948 C   0  0  0  0  0  0  0  0  0  0  0  0
    6.7559    1.7460   21.8304 C   0  0  0  0  0  0  0  0  0  0  0  0
 38 39  1  0  0  0
 39 37  1  0  0  0
 37 36  1  0  0  0
 36 34  1  0  0  0
 34  1  1  0  0  0
  1  2  2  0  0  0
  2  3  1  0  0  0
  3  4  2  0  0  0
  4  5  1  0  0  0
  5  6  2  0  0  0
  6  7  1  0  0  0
  7 10  1  0  0  0
 10 11  1  0  0  0
 11 12  1  0  0  0
 12 13  1  0  0  0
 13 14  1  0  0  0
 13 15  1  0  0  0
 15 16  1  0  0  0
  7  8  1  0  0  0
  8  9  2  0  0  0
  5 18  1  0  0  0
 18 19  2  0  0  0
 19 20  1  0  0  0
 20 21  2  0  0  0
 21 22  1  0  0  0
 22 23  1  0  0  0
 22 24  2  0  0  0
 21 25  1  0  0  0
 25 26  2  0  0  0
 25 27  2  0  0  0
 25 28  1  0  0  0
 28 29  1  0  0  0
 29 30  1  0  0  0
 30 31  1  0  0  0
 31 32  1  0  0  0
 32 33  1  0  0  0
  9  1  1  0  0  0
 24 18  1  0  0  0
 33 28  1  0  0  0
  8  4  1  0  0  0
 16 10  1  0  0  0
 34 35  1  0  0  0
 14 17  1  0  0  0
M  END
> <minimizedAffinity>
-8.41893

> <CNNscore>
0.6080759764

> <CNNaffinity>
7.3893494606

> <CNN_VS>
4.4932856560

> <CNNaffinity_variance>
0.3416689336

$$$$
[H]O[C@]1([H])C([H])([H])C([H])([H])[C@@]([H])(n2c([H])c(-c3c([H])c([H])c(S(=O)(=O)N4C([H])([H])C([H])([H])OC([H])([H])C4([H])[H])c(F)c3[H])c3c([H])nc(N([H])C([H])([H])C([H])([H])C([H])([H])C([H])([H])[H])nc32)C([H])([H])C1([H])[H]


 39 43  0  0  0  0  0  0  0  0999 V2000
    3.8209    1.0531   19.2544 C   0  0  0  0  0  0  0  0  0  0  0  0
    3.0885    0.6175   18.2206 N   0  0  0  0  0  0  0  0  0  0  0  0
    2.9375    1.3067   17.0796 C   0  0  0  0  0  0  0  0  0  0  0  0
    3.5683    2.5268   16.9624 C   0  0  0  0  0  0  0  0  0  0  0  0
    3.6060    3.4509   15.9414 C   0  0  0  0  0  0  0  0  0  0  0  0
    4.3916    4.4717   16.3911 C   0  0  0  0  0  0  0  0  0  0  0  0
    4.8347    4.2088   17.6439 N   0  0  0  0  0  0  0  0  0  0  0  0
    4.3313    2.9968   18.0203 C   0  0  0  0  0  0  0  0  0  0  0  0
    4.4237    2.2443   19.1127 N   0  0  0  0  0  0  0  0  0  0  0  0
    5.6770    5.0101   18.4760 C   0  0  0  0  0  0  0  0  0  0  0  0
    6.4191    5.9840   17.5900 C   0  0  0  0  0  0  0  0  0  0  0  0
    6.0688    7.3790   18.0263 C   0  0  0  0  0  0  0  0  0  0  0  0
    6.6004    7.5485   19.4439 C   0  0  0  0  0  0  0  0  0  0  0  0
    7.9038    7.0396   19.4305 O   0  0  0  0  0  0  0  0  0  0  0  0
    5.7576    6.6664   20.3370 C   0  0  0  0  0  0  0  0  0  0  0  0
    4.9249    5.6866   19.5817 C   0  0  0  0  0  0  0  0  0  0  0  0
    8.2631    7.0415   20.3464 H   0  0  0  0  0  0  0  0  0  0  0  0
    2.9631    3.4046   14.6269 C   0  0  0  0  0  0  0  0  0  0  0  0
    2.0560    4.3655   14.2330 C   0  0  0  0  0  0  0  0  0  0  0  0
    1.4485    4.3361   13.0059 C   0  0  0  0  0  0  0  0  0  0  0  0
    1.7106    3.3199   12.0627 C   0  0  0  0  0  0  0  0  0  0  0  0
    2.6108    2.3780   12.4668 C   0  0  0  0  0  0  0  0  0  0  0  0
    2.9616    1.3853   11.6026 F   0  0  0  0  0  0  0  0  0  0  0  0
    3.2316    2.4061   13.7200 C   0  0  0  0  0  0  0  0  0  0  0  0
    0.8534    3.3272   10.5427 S   0  0  0  0  0  0  0  0  0  0  0  0
    0.1765    1.9867   10.3143 O   0  0  0  0  0  0  0  0  0  0  0  0
   -0.3072    4.3307   10.6126 O   0  0  0  0  0  0  0  0  0  0  0  0
    1.7976    3.7717    9.2231 N   0  0  0  0  0  0  0  0  0  0  0  0
    1.6562    5.0718    8.7226 C   0  0  0  0  0  0  0  0  0  0  0  0
    2.4097    5.1196    7.3772 C   0  0  0  0  0  0  0  0  0  0  0  0
    1.8146    4.3010    6.4485 O   0  0  0  0  0  0  0  0  0  0  0  0
    1.5115    3.0380    6.8950 C   0  0  0  0  0  0  0  0  0  0  0  0
    2.0480    2.7383    8.2651 C   0  0  0  0  0  0  0  0  0  0  0  0
    3.9510    0.2697   20.4567 N   0  0  0  0  0  0  0  0  0  0  0  0
    4.5524   -0.5504   20.3846 H   0  0  0  0  0  0  0  0  0  0  0  0
    3.2699    0.7214   21.6168 C   0  0  0  0  0  0  0  0  0  0  0  0
    4.0640    1.4539   22.6398 C   0  0  0  0  0  0  0  0  0  0  0  0
    6.0334    2.9439   22.2202 C   0  0  0  0  0  0  0  0  0  0  0  0
    5.4955    1.5721   22.3142 C   0  0  0  0  0  0  0  0  0  0  0  0
 38 39  1  0  0  0
 39 37  1  0  0  0
 37 36  1  0  0  0
 36 34  1  0  0  0
 34  1  1  0  0  0
  1  2  2  0  0  0
  2  3  1  0  0  0
  3  4  2  0  0  0
  4  5  1  0  0  0
  5  6  2  0  0  0
  6  7  1  0  0  0
  7 10  1  0  0  0
 10 11  1  0  0  0
 11 12  1  0  0  0
 12 13  1  0  0  0
 13 14  1  0  0  0
 13 15  1  0  0  0
 15 16  1  0  0  0
  7  8  1  0  0  0
  8  9  2  0  0  0
  5 18  1  0  0  0
 18 19  2  0  0  0
 19 20  1  0  0  0
 20 21  2  0  0  0
 21 22  1  0  0  0
 22 23  1  0  0  0
 22 24  2  0  0  0
 21 25  1  0  0  0
 25 26  2  0  0  0
 25 27  2  0  0  0
 25 28  1  0  0  0
 28 29  1  0  0  0
 29 30  1  0  0  0
 30 31  1  0  0  0
 31 32  1  0  0  0
 32 33  1  0  0  0
  9  1  1  0  0  0
 24 18  1  0  0  0
 33 28  1  0  0  0
  8  4  1  0  0  0
 16 10  1  0  0  0
 34 35  1  0  0  0
 14 17  1  0  0  0
M  END
> <minimizedAffinity>
-7.22425

> <CNNscore>
0.5726256371

> <CNNaffinity>
7.3482589722

> <CNN_VS>
4.2078013420

> <CNNaffinity_variance>
0.3196197152

$$$$
[H]O[C@]1([H])C([H])([H])C([H])([H])[C@@]([H])(n2c([H])c(-c3c([H])c([H])c(S(=O)(=O)N4C([H])([H])C([H])([H])OC([H])([H])C4([H])[H])c(F)c3[H])c3c([H])nc(N([H])C([H])([H])C([H])([H])C([H])([H])C([H])([H])[H])nc32)C([H])([H])C1([H])[H]


 39 43  0  0  0  0  0  0  0  0999 V2000
    4.1876    1.4960   19.3844 C   0  0  0  0  0  0  0  0  0  0  0  0
    3.8211    0.7721   18.3183 N   0  0  0  0  0  0  0  0  0  0  0  0
    3.5701    1.3058   17.1135 C   0  0  0  0  0  0  0  0  0  0  0  0
    3.6953    2.6703   16.9621 C   0  0  0  0  0  0  0  0  0  0  0  0
    3.5110    3.4981   15.8765 C   0  0  0  0  0  0  0  0  0  0  0  0
    3.7791    4.7601   16.3201 C   0  0  0  0  0  0  0  0  0  0  0  0
    4.1195    4.7366   17.6310 N   0  0  0  0  0  0  0  0  0  0  0  0
    4.0734    3.4387   18.0523 C   0  0  0  0  0  0  0  0  0  0  0  0
    4.3016    2.8221   19.2080 N   0  0  0  0  0  0  0  0  0  0  0  0
    4.4730    5.8327   18.4782 C   0  0  0  0  0  0  0  0  0  0  0  0
    3.4418    5.9238   19.5793 C   0  0  0  0  0  0  0  0  0  0  0  0
    4.1446    5.7601   20.8978 C   0  0  0  0  0  0  0  0  0  0  0  0
    5.0874    6.9470   21.0498 C   0  0  0  0  0  0  0  0  0  0  0  0
    4.3429    8.0784   20.6981 O   0  0  0  0  0  0  0  0  0  0  0  0
    6.1869    6.7680   20.0276 C   0  0  0  0  0  0  0  0  0  0  0  0
    5.8742    5.7332   19.0004 C   0  0  0  0  0  0  0  0  0  0  0  0
    4.9321    8.8663   20.6915 H   0  0  0  0  0  0  0  0  0  0  0  0
    3.1144    3.1570   14.5091 C   0  0  0  0  0  0  0  0  0  0  0  0
    2.1556    2.1998   14.2532 C   0  0  0  0  0  0  0  0  0  0  0  0
    1.7732    1.8719   12.9796 C   0  0  0  0  0  0  0  0  0  0  0  0
    2.3356    2.4925   11.8439 C   0  0  0  0  0  0  0  0  0  0  0  0
    3.2812    3.4379   12.1138 C   0  0  0  0  0  0  0  0  0  0  0  0
    3.8440    4.1235   11.0801 F   0  0  0  0  0  0  0  0  0  0  0  0
    3.6734    3.7733   13.4139 C   0  0  0  0  0  0  0  0  0  0  0  0
    1.8304    1.9781   10.2548 S   0  0  0  0  0  0  0  0  0  0  0  0
    0.6059    1.0848   10.3559 O   0  0  0  0  0  0  0  0  0  0  0  0
    1.3468    3.1942    9.4511 O   0  0  0  0  0  0  0  0  0  0  0  0
    3.0474    1.2524    9.3478 N   0  0  0  0  0  0  0  0  0  0  0  0
    3.7619    0.1991    9.9314 C   0  0  0  0  0  0  0  0  0  0  0  0
    4.9702   -0.0860    9.0153 C   0  0  0  0  0  0  0  0  0  0  0  0
    5.8366    0.9796    8.9948 O   0  0  0  0  0  0  0  0  0  0  0  0
    5.2470    2.2058    8.8066 C   0  0  0  0  0  0  0  0  0  0  0  0
    3.7822    2.1272    8.4858 C   0  0  0  0  0  0  0  0  0  0  0  0
    4.4475    0.8697   20.6556 N   0  0  0  0  0  0  0  0  0  0  0  0
    3.6223    0.5943   21.1873 H   0  0  0  0  0  0  0  0  0  0  0  0
    5.8017    0.6676   21.0285 C   0  0  0  0  0  0  0  0  0  0  0  0
    6.4724    1.7494   21.7990 C   0  0  0  0  0  0  0  0  0  0  0  0
    5.4157    2.1786   24.0291 C   0  0  0  0  0  0  0  0  0  0  0  0
    5.5526    2.5645   22.6105 C   0  0  0  0  0  0  0  0  0  0  0  0
 38 39  1  0  0  0
 39 37  1  0  0  0
 37 36  1  0  0  0
 36 34  1  0  0  0
 34  1  1  0  0  0
  1  2  2  0  0  0
  2  3  1  0  0  0
  3  4  2  0  0  0
  4  5  1  0  0  0
  5  6  2  0  0  0
  6  7  1  0  0  0
  7 10  1  0  0  0
 10 11  1  0  0  0
 11 12  1  0  0  0
 12 13  1  0  0  0
 13 14  1  0  0  0
 13 15  1  0  0  0
 15 16  1  0  0  0
  7  8  1  0  0  0
  8  9  2  0  0  0
  5 18  1  0  0  0
 18 19  2  0  0  0
 19 20  1  0  0  0
 20 21  2  0  0  0
 21 22  1  0  0  0
 22 23  1  0  0  0
 22 24  2  0  0  0
 21 25  1  0  0  0
 25 26  2  0  0  0
 25 27  2  0  0  0
 25 28  1  0  0  0
 28 29  1  0  0  0
 29 30  1  0  0  0
 30 31  1  0  0  0
 31 32  1  0  0  0
 32 33  1  0  0  0
  9  1  1  0  0  0
 24 18  1  0  0  0
 33 28  1  0  0  0
  8  4  1  0  0  0
 16 10  1  0  0  0
 34 35  1  0  0  0
 14 17  1  0  0  0
M  END
> <minimizedAffinity>
-8.64193

> <CNNscore>
0.3863556385

> <CNNaffinity>
7.2835121155

> <CNN_VS>
2.8140258789

> <CNNaffinity_variance>
0.3870375752

$$$$
[H]O[C@]1([H])C([H])([H])C([H])([H])[C@@]([H])(n2c([H])c(-c3c([H])c([H])c(S(=O)(=O)N4C([H])([H])C([H])([H])OC([H])([H])C4([H])[H])c(F)c3[H])c3c([H])nc(N([H])C([H])([H])C([H])([H])C([H])([H])C([H])([H])[H])nc32)C([H])([H])C1([H])[H]


 39 43  0  0  0  0  0  0  0  0999 V2000
    1.2538    2.4321   12.3513 C   0  0  0  0  0  0  0  0  0  0  0  0
    1.2919    1.5658   13.3725 N   0  0  0  0  0  0  0  0  0  0  0  0
    1.9914    1.7794   14.4971 C   0  0  0  0  0  0  0  0  0  0  0  0
    2.7091    2.9509   14.6100 C   0  0  0  0  0  0  0  0  0  0  0  0
    3.5077    3.4495   15.6156 C   0  0  0  0  0  0  0  0  0  0  0  0
    3.9586    4.6575   15.1695 C   0  0  0  0  0  0  0  0  0  0  0  0
    3.4681    4.9165   13.9337 N   0  0  0  0  0  0  0  0  0  0  0  0
    2.6838    3.8616   13.5649 C   0  0  0  0  0  0  0  0  0  0  0  0
    1.9620    3.5644   12.4885 N   0  0  0  0  0  0  0  0  0  0  0  0
    3.6911    6.0641   13.1107 C   0  0  0  0  0  0  0  0  0  0  0  0
    4.4499    5.6178   11.8821 C   0  0  0  0  0  0  0  0  0  0  0  0
    3.6207    5.9443   10.6718 C   0  0  0  0  0  0  0  0  0  0  0  0
    3.4987    7.4616   10.6121 C   0  0  0  0  0  0  0  0  0  0  0  0
    4.7870    7.9612   10.8328 O   0  0  0  0  0  0  0  0  0  0  0  0
    2.6248    7.8776   11.7738 C   0  0  0  0  0  0  0  0  0  0  0  0
    2.4251    6.7943   12.7789 C   0  0  0  0  0  0  0  0  0  0  0  0
    4.7491    8.9423   10.8950 H   0  0  0  0  0  0  0  0  0  0  0  0
    3.8398    2.8582   16.9131 C   0  0  0  0  0  0  0  0  0  0  0  0
    4.6798    3.4943   17.8024 C   0  0  0  0  0  0  0  0  0  0  0  0
    4.9975    2.9541   19.0202 C   0  0  0  0  0  0  0  0  0  0  0  0
    4.4861    1.7098   19.4458 C   0  0  0  0  0  0  0  0  0  0  0  0
    3.6559    1.0940   18.5556 C   0  0  0  0  0  0  0  0  0  0  0  0
    3.0768   -0.0893   18.9016 F   0  0  0  0  0  0  0  0  0  0  0  0
    3.3310    1.6440   17.3112 C   0  0  0  0  0  0  0  0  0  0  0  0
    4.9836    1.0681   20.9904 S   0  0  0  0  0  0  0  0  0  0  0  0
    4.2102   -0.2006   21.3065 O   0  0  0  0  0  0  0  0  0  0  0  0
    6.4470    0.6093   20.9085 O   0  0  0  0  0  0  0  0  0  0  0  0
    4.8940    2.1737   22.2553 N   0  0  0  0  0  0  0  0  0  0  0  0
    3.6541    2.7670   22.5222 C   0  0  0  0  0  0  0  0  0  0  0  0
    3.9113    3.9165   23.5186 C   0  0  0  0  0  0  0  0  0  0  0  0
    4.6762    4.9037   22.9468 O   0  0  0  0  0  0  0  0  0  0  0  0
    5.7904    4.4620   22.2761 C   0  0  0  0  0  0  0  0  0  0  0  0
    6.0521    2.9930   22.4445 C   0  0  0  0  0  0  0  0  0  0  0  0
    0.4829    2.1524   11.1665 N   0  0  0  0  0  0  0  0  0  0  0  0
   -0.4164    2.6287   11.1042 H   0  0  0  0  0  0  0  0  0  0  0  0
    1.0499    1.2830   10.1989 C   0  0  0  0  0  0  0  0  0  0  0  0
    1.9621    1.8807    9.1868 C   0  0  0  0  0  0  0  0  0  0  0  0
    3.7032    0.1978    9.8278 C   0  0  0  0  0  0  0  0  0  0  0  0
    3.3858    1.5785    9.4120 C   0  0  0  0  0  0  0  0  0  0  0  0
 38 39  1  0  0  0
 39 37  1  0  0  0
 37 36  1  0  0  0
 36 34  1  0  0  0
 34  1  1  0  0  0
  1  2  2  0  0  0
  2  3  1  0  0  0
  3  4  2  0  0  0
  4  5  1  0  0  0
  5  6  2  0  0  0
  6  7  1  0  0  0
  7 10  1  0  0  0
 10 11  1  0  0  0
 11 12  1  0  0  0
 12 13  1  0  0  0
 13 14  1  0  0  0
 13 15  1  0  0  0
 15 16  1  0  0  0
  7  8  1  0  0  0
  8  9  2  0  0  0
  5 18  1  0  0  0
 18 19  2  0  0  0
 19 20  1  0  0  0
 20 21  2  0  0  0
 21 22  1  0  0  0
 22 23  1  0  0  0
 22 24  2  0  0  0
 21 25  1  0  0  0
 25 26  2  0  0  0
 25 27  2  0  0  0
 25 28  1  0  0  0
 28 29  1  0  0  0
 29 30  1  0  0  0
 30 31  1  0  0  0
 31 32  1  0  0  0
 32 33  1  0  0  0
  9  1  1  0  0  0
 24 18  1  0  0  0
 33 28  1  0  0  0
  8  4  1  0  0  0
 16 10  1  0  0  0
 34 35  1  0  0  0
 14 17  1  0  0  0
M  END
> <minimizedAffinity>
-8.33477

> <CNNscore>
0.3778188527

> <CNNaffinity>
7.0504584312

> <CNN_VS>
2.6637961864

> <CNNaffinity_variance>
0.1075452715

$$$$
[H]O[C@]1([H])C([H])([H])C([H])([H])[C@@]([H])(n2c([H])c(-c3c([H])c([H])c(S(=O)(=O)N4C([H])([H])C([H])([H])OC([H])([H])C4([H])[H])c(F)c3[H])c3c([H])nc(N([H])C([H])([H])C([H])([H])C([H])([H])C([H])([H])[H])nc32)C([H])([H])C1([H])[H]


 39 43  0  0  0  0  0  0  0  0999 V2000
    4.4705    1.9521   20.0909 C   0  0  0  0  0  0  0  0  0  0  0  0
    4.3184    1.2105   18.9856 N   0  0  0  0  0  0  0  0  0  0  0  0
    3.9762    1.7222   17.7936 C   0  0  0  0  0  0  0  0  0  0  0  0
    3.7699    3.0819   17.6989 C   0  0  0  0  0  0  0  0  0  0  0  0
    3.4179    3.8893   16.6397 C   0  0  0  0  0  0  0  0  0  0  0  0
    3.3599    5.1571   17.1403 C   0  0  0  0  0  0  0  0  0  0  0  0
    3.6619    5.1567   18.4608 N   0  0  0  0  0  0  0  0  0  0  0  0
    3.9218    3.8683   18.8305 C   0  0  0  0  0  0  0  0  0  0  0  0
    4.2632    3.2731   19.9694 N   0  0  0  0  0  0  0  0  0  0  0  0
    3.7166    6.2659   19.3613 C   0  0  0  0  0  0  0  0  0  0  0  0
    4.8546    6.0281   20.3271 C   0  0  0  0  0  0  0  0  0  0  0  0
    5.8334    7.1604   20.1899 C   0  0  0  0  0  0  0  0  0  0  0  0
    5.1121    8.4279   20.6305 C   0  0  0  0  0  0  0  0  0  0  0  0
    4.4567    8.1037   21.8236 O   0  0  0  0  0  0  0  0  0  0  0  0
    4.0648    8.7242   19.5811 C   0  0  0  0  0  0  0  0  0  0  0  0
    3.8203    7.5826   18.6533 C   0  0  0  0  0  0  0  0  0  0  0  0
    3.8992    8.8639   22.1052 H   0  0  0  0  0  0  0  0  0  0  0  0
    3.1514    3.5253   15.2469 C   0  0  0  0  0  0  0  0  0  0  0  0
    3.8643    4.0820   14.2063 C   0  0  0  0  0  0  0  0  0  0  0  0
    3.6273    3.7495   12.8990 C   0  0  0  0  0  0  0  0  0  0  0  0
    2.6370    2.8144   12.5300 C   0  0  0  0  0  0  0  0  0  0  0  0
    1.9417    2.2718   13.5707 C   0  0  0  0  0  0  0  0  0  0  0  0
    0.9987    1.3236   13.3123 F   0  0  0  0  0  0  0  0  0  0  0  0
    2.1820    2.6109   14.9063 C   0  0  0  0  0  0  0  0  0  0  0  0
    2.3632    2.4873   10.8379 S   0  0  0  0  0  0  0  0  0  0  0  0
    3.2568    3.3673    9.9809 O   0  0  0  0  0  0  0  0  0  0  0  0
    2.8156    1.0563   10.5119 O   0  0  0  0  0  0  0  0  0  0  0  0
    0.7522    2.6038   10.3671 N   0  0  0  0  0  0  0  0  0  0  0  0
    0.3816    2.0272    9.1461 C   0  0  0  0  0  0  0  0  0  0  0  0
   -1.0497    2.5127    8.8361 C   0  0  0  0  0  0  0  0  0  0  0  0
   -1.0760    3.8697    8.6254 O   0  0  0  0  0  0  0  0  0  0  0  0
   -0.4035    4.6174    9.5609 C   0  0  0  0  0  0  0  0  0  0  0  0
    0.0867    3.8168   10.7330 C   0  0  0  0  0  0  0  0  0  0  0  0
    4.8421    1.3498   21.3459 N   0  0  0  0  0  0  0  0  0  0  0  0
    4.2332    0.5994   21.6711 H   0  0  0  0  0  0  0  0  0  0  0  0
    6.0168    1.8245   21.9848 C   0  0  0  0  0  0  0  0  0  0  0  0
    5.8670    2.9337   22.9652 C   0  0  0  0  0  0  0  0  0  0  0  0
    3.6910    4.0256   23.5540 C   0  0  0  0  0  0  0  0  0  0  0  0
    4.6125    2.8863   23.7351 C   0  0  0  0  0  0  0  0  0  0  0  0
 38 39  1  0  0  0
 39 37  1  0  0  0
 37 36  1  0  0  0
 36 34  1  0  0  0
 34  1  1  0  0  0
  1  2  2  0  0  0
  2  3  1  0  0  0
  3  4  2  0  0  0
  4  5  1  0  0  0
  5  6  2  0  0  0
  6  7  1  0  0  0
  7 10  1  0  0  0
 10 11  1  0  0  0
 11 12  1  0  0  0
 12 13  1  0  0  0
 13 14  1  0  0  0
 13 15  1  0  0  0
 15 16  1  0  0  0
  7  8  1  0  0  0
  8  9  2  0  0  0
  5 18  1  0  0  0
 18 19  2  0  0  0
 19 20  1  0  0  0
 20 21  2  0  0  0
 21 22  1  0  0  0
 22 23  1  0  0  0
 22 24  2  0  0  0
 21 25  1  0  0  0
 25 26  2  0  0  0
 25 27  2  0  0  0
 25 28  1  0  0  0
 28 29  1  0  0  0
 29 30  1  0  0  0
 30 31  1  0  0  0
 31 32  1  0  0  0
 32 33  1  0  0  0
  9  1  1  0  0  0
 24 18  1  0  0  0
 33 28  1  0  0  0
  8  4  1  0  0  0
 16 10  1  0  0  0
 34 35  1  0  0  0
 14 17  1  0  0  0
M  END
> <minimizedAffinity>
-9.10895

> <CNNscore>
0.2676687539

> <CNNaffinity>
7.0370879173

> <CNN_VS>
1.8836085796

> <CNNaffinity_variance>
0.2823254168

$$$$
[H]O[C@]1([H])C([H])([H])C([H])([H])[C@@]([H])(n2c([H])c(-c3c([H])c([H])c(S(=O)(=O)N4C([H])([H])C([H])([H])OC([H])([H])C4([H])[H])c(F)c3[H])c3c([H])nc(N([H])C([H])([H])C([H])([H])C([H])([H])C([H])([H])[H])nc32)C([H])([H])C1([H])[H]


 39 43  0  0  0  0  0  0  0  0999 V2000
    4.3811    1.8701   19.9750 C   0  0  0  0  0  0  0  0  0  0  0  0
    4.2340    1.1496   18.8552 N   0  0  0  0  0  0  0  0  0  0  0  0
    3.9182    1.6866   17.6671 C   0  0  0  0  0  0  0  0  0  0  0  0
    3.7352    3.0509   17.5924 C   0  0  0  0  0  0  0  0  0  0  0  0
    3.4123    3.8816   16.5419 C   0  0  0  0  0  0  0  0  0  0  0  0
    3.3669    5.1415   17.0631 C   0  0  0  0  0  0  0  0  0  0  0  0
    3.6488    5.1141   18.3877 N   0  0  0  0  0  0  0  0  0  0  0  0
    3.8824    3.8157   18.7393 C   0  0  0  0  0  0  0  0  0  0  0  0
    4.1969    3.1960   19.8729 N   0  0  0  0  0  0  0  0  0  0  0  0
    3.7076    6.2071   19.3076 C   0  0  0  0  0  0  0  0  0  0  0  0
    4.8629    5.9624   20.2508 C   0  0  0  0  0  0  0  0  0  0  0  0
    5.8289    7.1064   20.1193 C   0  0  0  0  0  0  0  0  0  0  0  0
    5.1031    8.3586   20.5945 C   0  0  0  0  0  0  0  0  0  0  0  0
    4.4697    8.0064   21.7915 O   0  0  0  0  0  0  0  0  0  0  0  0
    4.0365    8.6642   19.5673 C   0  0  0  0  0  0  0  0  0  0  0  0
    3.7878    7.5376   18.6226 C   0  0  0  0  0  0  0  0  0  0  0  0
    3.9098    8.7559   22.0959 H   0  0  0  0  0  0  0  0  0  0  0  0
    3.1611    3.5452   15.1393 C   0  0  0  0  0  0  0  0  0  0  0  0
    3.8886    4.1189   14.1181 C   0  0  0  0  0  0  0  0  0  0  0  0
    3.6661    3.8124   12.8020 C   0  0  0  0  0  0  0  0  0  0  0  0
    2.6768    2.8885   12.4033 C   0  0  0  0  0  0  0  0  0  0  0  0
    1.9671    2.3288   13.4250 C   0  0  0  0  0  0  0  0  0  0  0  0
    1.0237    1.3893   13.1374 F   0  0  0  0  0  0  0  0  0  0  0  0
    2.1926    2.6414   14.7697 C   0  0  0  0  0  0  0  0  0  0  0  0
    2.4221    2.5948   10.7021 S   0  0  0  0  0  0  0  0  0  0  0  0
    2.4416    1.1028   10.4175 O   0  0  0  0  0  0  0  0  0  0  0  0
    1.0040    3.0365   10.3116 O   0  0  0  0  0  0  0  0  0  0  0  0
    3.4820    3.4265    9.6946 N   0  0  0  0  0  0  0  0  0  0  0  0
    2.9356    4.2704    8.7200 C   0  0  0  0  0  0  0  0  0  0  0  0
    4.0893    4.6767    7.7796 C   0  0  0  0  0  0  0  0  0  0  0  0
    4.5745    3.5894    7.0949 O   0  0  0  0  0  0  0  0  0  0  0  0
    4.8221    2.4794    7.8650 C   0  0  0  0  0  0  0  0  0  0  0  0
    4.6776    2.7246    9.3394 C   0  0  0  0  0  0  0  0  0  0  0  0
    4.7239    1.2409   21.2251 N   0  0  0  0  0  0  0  0  0  0  0  0
    5.6258    0.7660   21.2459 H   0  0  0  0  0  0  0  0  0  0  0  0
    3.8075    1.3660   22.3013 C   0  0  0  0  0  0  0  0  0  0  0  0
    4.3424    1.8271   23.6109 C   0  0  0  0  0  0  0  0  0  0  0  0
    3.5367    4.1827   23.3341 C   0  0  0  0  0  0  0  0  0  0  0  0
    4.6485    3.2669   23.6586 C   0  0  0  0  0  0  0  0  0  0  0  0
 38 39  1  0  0  0
 39 37  1  0  0  0
 37 36  1  0  0  0
 36 34  1  0  0  0
 34  1  1  0  0  0
  1  2  2  0  0  0
  2  3  1  0  0  0
  3  4  2  0  0  0
  4  5  1  0  0  0
  5  6  2  0  0  0
  6  7  1  0  0  0
  7 10  1  0  0  0
 10 11  1  0  0  0
 11 12  1  0  0  0
 12 13  1  0  0  0
 13 14  1  0  0  0
 13 15  1  0  0  0
 15 16  1  0  0  0
  7  8  1  0  0  0
  8  9  2  0  0  0
  5 18  1  0  0  0
 18 19  2  0  0  0
 19 20  1  0  0  0
 20 21  2  0  0  0
 21 22  1  0  0  0
 22 23  1  0  0  0
 22 24  2  0  0  0
 21 25  1  0  0  0
 25 26  2  0  0  0
 25 27  2  0  0  0
 25 28  1  0  0  0
 28 29  1  0  0  0
 29 30  1  0  0  0
 30 31  1  0  0  0
 31 32  1  0  0  0
 32 33  1  0  0  0
  9  1  1  0  0  0
 24 18  1  0  0  0
 33 28  1  0  0  0
  8  4  1  0  0  0
 16 10  1  0  0  0
 34 35  1  0  0  0
 14 17  1  0  0  0
M  END
> <minimizedAffinity>
-8.85901

> <CNNscore>
0.2450130284

> <CNNaffinity>
6.9640645981

> <CNN_VS>
1.7062865496

> <CNNaffinity_variance>
0.3477503657

$$$$
[H]O[C@]1([H])C([H])([H])C([H])([H])[C@@]([H])(n2c([H])c(-c3c([H])c([H])c(S(=O)(=O)N4C([H])([H])C([H])([H])OC([H])([H])C4([H])[H])c(F)c3[H])c3c([H])nc(N([H])C([H])([H])C([H])([H])C([H])([H])C([H])([H])[H])nc32)C([H])([H])C1([H])[H]


 39 43  0  0  0  0  0  0  0  0999 V2000
    3.1799    1.5303   16.5712 C   0  0  0  0  0  0  0  0  0  0  0  0
    2.5576    1.3336   15.4012 N   0  0  0  0  0  0  0  0  0  0  0  0
    2.1402    2.3325   14.6090 C   0  0  0  0  0  0  0  0  0  0  0  0
    2.3624    3.6300   15.0182 C   0  0  0  0  0  0  0  0  0  0  0  0
    2.0599    4.8435   14.4405 C   0  0  0  0  0  0  0  0  0  0  0  0
    2.5218    5.7932   15.3042 C   0  0  0  0  0  0  0  0  0  0  0  0
    3.0937    5.2097   16.3846 N   0  0  0  0  0  0  0  0  0  0  0  0
    3.0048    3.8566   16.2258 C   0  0  0  0  0  0  0  0  0  0  0  0
    3.3829    2.8038   16.9446 N   0  0  0  0  0  0  0  0  0  0  0  0
    3.6979    5.8364   17.5187 C   0  0  0  0  0  0  0  0  0  0  0  0
    2.8712    5.4950   18.7370 C   0  0  0  0  0  0  0  0  0  0  0  0
    3.7514    4.7687   19.7152 C   0  0  0  0  0  0  0  0  0  0  0  0
    4.8335    5.7479   20.1522 C   0  0  0  0  0  0  0  0  0  0  0  0
    4.1744    6.9486   20.4384 O   0  0  0  0  0  0  0  0  0  0  0  0
    5.7299    5.9740   18.9558 C   0  0  0  0  0  0  0  0  0  0  0  0
    5.1440    5.4769   17.6778 C   0  0  0  0  0  0  0  0  0  0  0  0
    4.8398    7.6449   20.6393 H   0  0  0  0  0  0  0  0  0  0  0  0
    1.3884    5.1219   13.1696 C   0  0  0  0  0  0  0  0  0  0  0  0
    0.2882    4.3983   12.7610 C   0  0  0  0  0  0  0  0  0  0  0  0
   -0.3511    4.6489   11.5760 C   0  0  0  0  0  0  0  0  0  0  0  0
    0.0742    5.6650   10.6940 C   0  0  0  0  0  0  0  0  0  0  0  0
    1.1626    6.3724   11.1131 C   0  0  0  0  0  0  0  0  0  0  0  0
    1.6144    7.4048   10.3481 F   0  0  0  0  0  0  0  0  0  0  0  0
    1.8171    6.1172   12.3227 C   0  0  0  0  0  0  0  0  0  0  0  0
   -0.7641    5.8832    9.1790 S   0  0  0  0  0  0  0  0  0  0  0  0
   -2.2666    5.8460    9.3994 O   0  0  0  0  0  0  0  0  0  0  0  0
   -0.4947    7.2967    8.6422 O   0  0  0  0  0  0  0  0  0  0  0  0
   -0.2932    4.8100    7.9720 N   0  0  0  0  0  0  0  0  0  0  0  0
    1.0669    4.7444    7.6457 C   0  0  0  0  0  0  0  0  0  0  0  0
    1.1787    3.9118    6.3516 C   0  0  0  0  0  0  0  0  0  0  0  0
    0.5779    4.5549    5.2972 O   0  0  0  0  0  0  0  0  0  0  0  0
   -0.6759    5.0520    5.5564 C   0  0  0  0  0  0  0  0  0  0  0  0
   -1.2209    4.6442    6.8949 C   0  0  0  0  0  0  0  0  0  0  0  0
    3.6094    0.4192   17.3817 N   0  0  0  0  0  0  0  0  0  0  0  0
    4.3972   -0.1143   17.0150 H   0  0  0  0  0  0  0  0  0  0  0  0
    2.9314    0.1943   18.6078 C   0  0  0  0  0  0  0  0  0  0  0  0
    3.5603    0.7212   19.8490 C   0  0  0  0  0  0  0  0  0  0  0  0
    3.4211    0.8602   22.3461 C   0  0  0  0  0  0  0  0  0  0  0  0
    2.8472    0.3529   21.0838 C   0  0  0  0  0  0  0  0  0  0  0  0
 38 39  1  0  0  0
 39 37  1  0  0  0
 37 36  1  0  0  0
 36 34  1  0  0  0
 34  1  1  0  0  0
  1  2  2  0  0  0
  2  3  1  0  0  0
  3  4  2  0  0  0
  4  5  1  0  0  0
  5  6  2  0  0  0
  6  7  1  0  0  0
  7 10  1  0  0  0
 10 11  1  0  0  0
 11 12  1  0  0  0
 12 13  1  0  0  0
 13 14  1  0  0  0
 13 15  1  0  0  0
 15 16  1  0  0  0
  7  8  1  0  0  0
  8  9  2  0  0  0
  5 18  1  0  0  0
 18 19  2  0  0  0
 19 20  1  0  0  0
 20 21  2  0  0  0
 21 22  1  0  0  0
 22 23  1  0  0  0
 22 24  2  0  0  0
 21 25  1  0  0  0
 25 26  2  0  0  0
 25 27  2  0  0  0
 25 28  1  0  0  0
 28 29  1  0  0  0
 29 30  1  0  0  0
 30 31  1  0  0  0
 31 32  1  0  0  0
 32 33  1  0  0  0
  9  1  1  0  0  0
 24 18  1  0  0  0
 33 28  1  0  0  0
  8  4  1  0  0  0
 16 10  1  0  0  0
 34 35  1  0  0  0
 14 17  1  0  0  0
M  END
> <minimizedAffinity>
-7.04597

> <CNNscore>
0.2254103720

> <CNNaffinity>
6.6253881454

> <CNN_VS>
1.4934312105

> <CNNaffinity_variance>
0.0823205709

$$$$
[H]O[C@]1([H])C([H])([H])C([H])([H])[C@@]([H])(n2c([H])c(-c3c([H])c([H])c(S(=O)(=O)N4C([H])([H])C([H])([H])OC([H])([H])C4([H])[H])c(F)c3[H])c3c([H])nc(N([H])C([H])([H])C([H])([H])C([H])([H])C([H])([H])[H])nc32)C([H])([H])C1([H])[H]


 39 43  0  0  0  0  0  0  0  0999 V2000
    4.5010    1.9047   20.1047 C   0  0  0  0  0  0  0  0  0  0  0  0
    4.3545    1.1596   19.0010 N   0  0  0  0  0  0  0  0  0  0  0  0
    4.0110    1.6665   17.8073 C   0  0  0  0  0  0  0  0  0  0  0  0
    3.7973    3.0248   17.7090 C   0  0  0  0  0  0  0  0  0  0  0  0
    3.4423    3.8277   16.6474 C   0  0  0  0  0  0  0  0  0  0  0  0
    3.3765    5.0963   17.1450 C   0  0  0  0  0  0  0  0  0  0  0  0
    3.6768    5.1007   18.4658 N   0  0  0  0  0  0  0  0  0  0  0  0
    3.9433    3.8148   18.8389 C   0  0  0  0  0  0  0  0  0  0  0  0
    4.2865    3.2241   19.9797 N   0  0  0  0  0  0  0  0  0  0  0  0
    3.7241    6.2124   19.3637 C   0  0  0  0  0  0  0  0  0  0  0  0
    4.8853    6.0014   20.3079 C   0  0  0  0  0  0  0  0  0  0  0  0
    5.8361    7.1548   20.1506 C   0  0  0  0  0  0  0  0  0  0  0  0
    5.0956    8.4068   20.6033 C   0  0  0  0  0  0  0  0  0  0  0  0
    4.4703    8.0703   21.8091 O   0  0  0  0  0  0  0  0  0  0  0  0
    4.0221    8.6782   19.5737 C   0  0  0  0  0  0  0  0  0  0  0  0
    3.7852    7.5299   18.6523 C   0  0  0  0  0  0  0  0  0  0  0  0
    3.9017    8.8184   22.1004 H   0  0  0  0  0  0  0  0  0  0  0  0
    3.1796    3.4588   15.2552 C   0  0  0  0  0  0  0  0  0  0  0  0
    2.2504    2.4944   14.9270 C   0  0  0  0  0  0  0  0  0  0  0  0
    1.9929    2.1407   13.6293 C   0  0  0  0  0  0  0  0  0  0  0  0
    2.6618    2.7402   12.5410 C   0  0  0  0  0  0  0  0  0  0  0  0
    3.5765    3.6930   12.8821 C   0  0  0  0  0  0  0  0  0  0  0  0
    4.2360    4.3596   11.8941 F   0  0  0  0  0  0  0  0  0  0  0  0
    3.8413    4.0549   14.2071 C   0  0  0  0  0  0  0  0  0  0  0  0
    2.3125    2.1934   10.9210 S   0  0  0  0  0  0  0  0  0  0  0  0
    1.1468    1.2195   10.9348 O   0  0  0  0  0  0  0  0  0  0  0  0
    1.8096    3.3745   10.0778 O   0  0  0  0  0  0  0  0  0  0  0  0
    3.6399    1.5518   10.1107 N   0  0  0  0  0  0  0  0  0  0  0  0
    4.2897    2.3613    9.1710 C   0  0  0  0  0  0  0  0  0  0  0  0
    5.2674    1.4536    8.3959 C   0  0  0  0  0  0  0  0  0  0  0  0
    4.5898    0.5101    7.6631 O   0  0  0  0  0  0  0  0  0  0  0  0
    3.6012   -0.1567    8.3446 C   0  0  0  0  0  0  0  0  0  0  0  0
    3.5671    0.1538    9.8133 C   0  0  0  0  0  0  0  0  0  0  0  0
    4.8742    1.3074   21.3617 N   0  0  0  0  0  0  0  0  0  0  0  0
    4.2832    0.5384   21.6761 H   0  0  0  0  0  0  0  0  0  0  0  0
    6.0269    1.8126   22.0172 C   0  0  0  0  0  0  0  0  0  0  0  0
    5.8282    2.5224   23.3097 C   0  0  0  0  0  0  0  0  0  0  0  0
    3.9119    4.1271   23.4736 C   0  0  0  0  0  0  0  0  0  0  0  0
    4.4150    2.7510   23.6557 C   0  0  0  0  0  0  0  0  0  0  0  0
 38 39  1  0  0  0
 39 37  1  0  0  0
 37 36  1  0  0  0
 36 34  1  0  0  0
 34  1  1  0  0  0
  1  2  2  0  0  0
  2  3  1  0  0  0
  3  4  2  0  0  0
  4  5  1  0  0  0
  5  6  2  0  0  0
  6  7  1  0  0  0
  7 10  1  0  0  0
 10 11  1  0  0  0
 11 12  1  0  0  0
 12 13  1  0  0  0
 13 14  1  0  0  0
 13 15  1  0  0  0
 15 16  1  0  0  0
  7  8  1  0  0  0
  8  9  2  0  0  0
  5 18  1  0  0  0
 18 19  2  0  0  0
 19 20  1  0  0  0
 20 21  2  0  0  0
 21 22  1  0  0  0
 22 23  1  0  0  0
 22 24  2  0  0  0
 21 25  1  0  0  0
 25 26  2  0  0  0
 25 27  2  0  0  0
 25 28  1  0  0  0
 28 29  1  0  0  0
 29 30  1  0  0  0
 30 31  1  0  0  0
 31 32  1  0  0  0
 32 33  1  0  0  0
  9  1  1  0  0  0
 24 18  1  0  0  0
 33 28  1  0  0  0
  8  4  1  0  0  0
 16 10  1  0  0  0
 34 35  1  0  0  0
 14 17  1  0  0  0
M  END
> <minimizedAffinity>
-9.11168

> <CNNscore>
0.2153379619

> <CNNaffinity>
6.8973007202

> <CNN_VS>
1.4852507114

> <CNNaffinity_variance>
0.4600679278

$$$$
[H]O[C@]1([H])C([H])([H])C([H])([H])[C@@]([H])(n2c([H])c(-c3c([H])c([H])c(S(=O)(=O)N4C([H])([H])C([H])([H])N(C([H])([H])[H])C([H])([H])C4([H])[H])c(F)c3[H])c3c([H])nc(N([H])C([H])([H])C([H])([H])C([H])([H])C([H])([H])[H])nc32)C([H])([H])C1([H])[H]


 40 44  0  0  0  0  0  0  0  0999 V2000
    3.6846    1.2080   19.0262 C   0  0  0  0  0  0  0  0  0  0  0  0
    3.2512    0.5692   17.9073 N   0  0  0  0  0  0  0  0  0  0  0  0
    3.2101    1.2336   16.7415 C   0  0  0  0  0  0  0  0  0  0  0  0
    3.6104    2.5578   16.7030 C   0  0  0  0  0  0  0  0  0  0  0  0
    3.6930    3.5047   15.7055 C   0  0  0  0  0  0  0  0  0  0  0  0
    4.1694    4.6669   16.2602 C   0  0  0  0  0  0  0  0  0  0  0  0
    4.3764    4.4442   17.5686 N   0  0  0  0  0  0  0  0  0  0  0  0
    4.0430    3.1729   17.8527 C   0  0  0  0  0  0  0  0  0  0  0  0
    4.0721    2.4912   18.9861 N   0  0  0  0  0  0  0  0  0  0  0  0
    4.8810    5.4782   18.4443 C   0  0  0  0  0  0  0  0  0  0  0  0
    3.8324    6.4189   18.9338 C   0  0  0  0  0  0  0  0  0  0  0  0
    4.4512    7.4628   19.8084 C   0  0  0  0  0  0  0  0  0  0  0  0
    5.8256    7.1409   20.2890 C   0  0  0  0  0  0  0  0  0  0  0  0
    6.7662    7.6100   19.3788 O   0  0  0  0  0  0  0  0  0  0  0  0
    6.0289    5.7040   20.6666 C   0  0  0  0  0  0  0  0  0  0  0  0
    5.5825    4.7688   19.5925 C   0  0  0  0  0  0  0  0  0  0  0  0
    7.6609    7.7478   19.7807 H   0  0  0  0  0  0  0  0  0  0  0  0
    3.3199    3.2641   14.3100 C   0  0  0  0  0  0  0  0  0  0  0  0
    3.9623    3.9785   13.3132 C   0  0  0  0  0  0  0  0  0  0  0  0
    3.6445    3.7902   11.9860 C   0  0  0  0  0  0  0  0  0  0  0  0
    2.6768    2.8861   11.5888 C   0  0  0  0  0  0  0  0  0  0  0  0
    2.0333    2.1714   12.5764 C   0  0  0  0  0  0  0  0  0  0  0  0
    1.0834    1.2819   12.2101 F   0  0  0  0  0  0  0  0  0  0  0  0
    2.3541    2.3609   13.9239 C   0  0  0  0  0  0  0  0  0  0  0  0
    2.2853    2.6602    9.8879 S   0  0  0  0  0  0  0  0  0  0  0  0
    0.8338    2.9237    9.6440 O   0  0  0  0  0  0  0  0  0  0  0  0
    2.5740    1.2378    9.5258 O   0  0  0  0  0  0  0  0  0  0  0  0
    3.2172    3.7800    8.9852 N   0  0  0  0  0  0  0  0  0  0  0  0
    4.2461    3.2000    8.2133 C   0  0  0  0  0  0  0  0  0  0  0  0
    4.0127    3.1242    6.7428 C   0  0  0  0  0  0  0  0  0  0  0  0
    3.1444    4.1475    6.2240 N   0  0  0  0  0  0  0  0  0  0  0  0
    3.5282    4.5883    4.9139 C   0  0  0  0  0  0  0  0  0  0  0  0
    3.1625    5.2867    7.1317 C   0  0  0  0  0  0  0  0  0  0  0  0
    2.4626    4.8182    8.3899 C   0  0  0  0  0  0  0  0  0  0  0  0
    3.7010    0.4409   20.2257 N   0  0  0  0  0  0  0  0  0  0  0  0
    3.1545   -0.4412   20.2379 H   0  0  0  0  0  0  0  0  0  0  0  0
    4.4329    0.8336   21.4014 C   0  0  0  0  0  0  0  0  0  0  0  0
    5.9081    0.6698   21.1424 C   0  0  0  0  0  0  0  0  0  0  0  0
    5.8834    2.5093   22.7887 C   0  0  0  0  0  0  0  0  0  0  0  0
    6.7152    1.7970   21.7290 C   0  0  0  0  0  0  0  0  0  0  0  0
 39 40  1  0  0  0
 40 38  1  0  0  0
 38 37  1  0  0  0
 37 35  1  0  0  0
 35  1  1  0  0  0
  1  2  2  0  0  0
  2  3  1  0  0  0
  3  4  2  0  0  0
  4  5  1  0  0  0
  5  6  2  0  0  0
  6  7  1  0  0  0
  7 10  1  0  0  0
 10 11  1  0  0  0
 11 12  1  0  0  0
 12 13  1  0  0  0
 13 14  1  0  0  0
 13 15  1  0  0  0
 15 16  1  0  0  0
  7  8  1  0  0  0
  8  9  2  0  0  0
  5 18  1  0  0  0
 18 19  2  0  0  0
 19 20  1  0  0  0
 20 21  2  0  0  0
 21 22  1  0  0  0
 22 23  1  0  0  0
 22 24  2  0  0  0
 21 25  1  0  0  0
 25 26  2  0  0  0
 25 27  2  0  0  0
 25 28  1  0  0  0
 28 29  1  0  0  0
 29 30  1  0  0  0
 30 31  1  0  0  0
 31 32  1  0  0  0
 31 33  1  0  0  0
 33 34  1  0  0  0
  9  1  1  0  0  0
 24 18  1  0  0  0
 34 28  1  0  0  0
  8  4  1  0  0  0
 16 10  1  0  0  0
 35 36  1  0  0  0
 14 17  1  0  0  0
M  END
> <minimizedAffinity>
-7.77750

> <CNNscore>
0.5576182008

> <CNNaffinity>
7.3263254166

> <CNN_VS>
4.0852923393

> <CNNaffinity_variance>
0.3539505005

$$$$
[H]O[C@]1([H])C([H])([H])C([H])([H])[C@@]([H])(n2c([H])c(-c3c([H])c([H])c(S(=O)(=O)N4C([H])([H])C([H])([H])N(C([H])([H])[H])C([H])([H])C4([H])[H])c(F)c3[H])c3c([H])nc(N([H])C([H])([H])C([H])([H])C([H])([H])C([H])([H])[H])nc32)C([H])([H])C1([H])[H]


 40 44  0  0  0  0  0  0  0  0999 V2000
    4.1141    1.5953   19.8411 C   0  0  0  0  0  0  0  0  0  0  0  0
    3.7591    0.8902   18.7344 N   0  0  0  0  0  0  0  0  0  0  0  0
    3.5602    1.5370   17.5749 C   0  0  0  0  0  0  0  0  0  0  0  0
    3.7208    2.9108   17.5304 C   0  0  0  0  0  0  0  0  0  0  0  0
    3.6002    3.8574   16.5364 C   0  0  0  0  0  0  0  0  0  0  0  0
    3.8855    5.0852   17.0809 C   0  0  0  0  0  0  0  0  0  0  0  0
    4.1754    4.9024   18.3797 N   0  0  0  0  0  0  0  0  0  0  0  0
    4.0803    3.5924   18.6677 C   0  0  0  0  0  0  0  0  0  0  0  0
    4.2692    2.9265   19.7951 N   0  0  0  0  0  0  0  0  0  0  0  0
    4.5225    6.0089   19.2433 C   0  0  0  0  0  0  0  0  0  0  0  0
    5.9893    6.2605   19.3414 C   0  0  0  0  0  0  0  0  0  0  0  0
    6.2502    7.4024   20.2717 C   0  0  0  0  0  0  0  0  0  0  0  0
    5.0568    8.2412   20.5817 C   0  0  0  0  0  0  0  0  0  0  0  0
    4.3952    7.7291   21.6921 O   0  0  0  0  0  0  0  0  0  0  0  0
    4.1520    8.4872   19.4116 C   0  0  0  0  0  0  0  0  0  0  0  0
    3.7764    7.2233   18.7121 C   0  0  0  0  0  0  0  0  0  0  0  0
    3.8319    8.4009   22.1530 H   0  0  0  0  0  0  0  0  0  0  0  0
    3.2249    3.5549   15.1536 C   0  0  0  0  0  0  0  0  0  0  0  0
    3.9132    4.1725   14.1234 C   0  0  0  0  0  0  0  0  0  0  0  0
    3.5954    3.9232   12.8063 C   0  0  0  0  0  0  0  0  0  0  0  0
    2.5822    3.0514   12.4527 C   0  0  0  0  0  0  0  0  0  0  0  0
    1.8928    2.4330   13.4738 C   0  0  0  0  0  0  0  0  0  0  0  0
    0.8980    1.5766   13.1504 F   0  0  0  0  0  0  0  0  0  0  0  0
    2.2135    2.6845   14.8111 C   0  0  0  0  0  0  0  0  0  0  0  0
    2.1915    2.7464   10.7640 S   0  0  0  0  0  0  0  0  0  0  0  0
    3.1700    3.4343    9.8665 O   0  0  0  0  0  0  0  0  0  0  0  0
    0.8295    3.3014   10.4908 O   0  0  0  0  0  0  0  0  0  0  0  0
    2.2864    1.0551   10.5041 N   0  0  0  0  0  0  0  0  0  0  0  0
    1.1313    0.4837    9.9296 C   0  0  0  0  0  0  0  0  0  0  0  0
    1.2220    0.1038    8.4908 C   0  0  0  0  0  0  0  0  0  0  0  0
    2.5489   -0.2293    8.0453 N   0  0  0  0  0  0  0  0  0  0  0  0
    2.5584   -1.2814    7.0701 C   0  0  0  0  0  0  0  0  0  0  0  0
    3.3433   -0.6411    9.1948 C   0  0  0  0  0  0  0  0  0  0  0  0
    3.5408    0.6098   10.0247 C   0  0  0  0  0  0  0  0  0  0  0  0
    4.3079    0.8431   21.0345 N   0  0  0  0  0  0  0  0  0  0  0  0
    5.0030    0.0730   21.0080 H   0  0  0  0  0  0  0  0  0  0  0  0
    3.5904    1.1042   22.2548 C   0  0  0  0  0  0  0  0  0  0  0  0
    4.4078    2.0276   23.1204 C   0  0  0  0  0  0  0  0  0  0  0  0
    4.5873    4.4820   22.9252 C   0  0  0  0  0  0  0  0  0  0  0  0
    3.7014    3.3303   23.3845 C   0  0  0  0  0  0  0  0  0  0  0  0
 39 40  1  0  0  0
 40 38  1  0  0  0
 38 37  1  0  0  0
 37 35  1  0  0  0
 35  1  1  0  0  0
  1  2  2  0  0  0
  2  3  1  0  0  0
  3  4  2  0  0  0
  4  5  1  0  0  0
  5  6  2  0  0  0
  6  7  1  0  0  0
  7 10  1  0  0  0
 10 11  1  0  0  0
 11 12  1  0  0  0
 12 13  1  0  0  0
 13 14  1  0  0  0
 13 15  1  0  0  0
 15 16  1  0  0  0
  7  8  1  0  0  0
  8  9  2  0  0  0
  5 18  1  0  0  0
 18 19  2  0  0  0
 19 20  1  0  0  0
 20 21  2  0  0  0
 21 22  1  0  0  0
 22 23  1  0  0  0
 22 24  2  0  0  0
 21 25  1  0  0  0
 25 26  2  0  0  0
 25 27  2  0  0  0
 25 28  1  0  0  0
 28 29  1  0  0  0
 29 30  1  0  0  0
 30 31  1  0  0  0
 31 32  1  0  0  0
 31 33  1  0  0  0
 33 34  1  0  0  0
  9  1  1  0  0  0
 24 18  1  0  0  0
 34 28  1  0  0  0
  8  4  1  0  0  0
 16 10  1  0  0  0
 35 36  1  0  0  0
 14 17  1  0  0  0
M  END
> <minimizedAffinity>
-8.80355

> <CNNscore>
0.3526601791

> <CNNaffinity>
7.2749938965

> <CNN_VS>
2.5656006336

> <CNNaffinity_variance>
0.4185546041

$$$$
[H]O[C@]1([H])C([H])([H])C([H])([H])[C@@]([H])(n2c([H])c(-c3c([H])c([H])c(S(=O)(=O)N4C([H])([H])C([H])([H])N(C([H])([H])[H])C([H])([H])C4([H])[H])c(F)c3[H])c3c([H])nc(N([H])C([H])([H])C([H])([H])C([H])([H])C([H])([H])[H])nc32)C([H])([H])C1([H])[H]


 40 44  0  0  0  0  0  0  0  0999 V2000
    4.3169    1.9584   20.2341 C   0  0  0  0  0  0  0  0  0  0  0  0
    3.9871    1.1824   19.1678 N   0  0  0  0  0  0  0  0  0  0  0  0
    3.7617    1.7584   17.9764 C   0  0  0  0  0  0  0  0  0  0  0  0
    3.8695    3.1330   17.8582 C   0  0  0  0  0  0  0  0  0  0  0  0
    3.7111    4.0201   16.8158 C   0  0  0  0  0  0  0  0  0  0  0  0
    3.9502    5.2851   17.2932 C   0  0  0  0  0  0  0  0  0  0  0  0
    4.2492    5.1829   18.5988 N   0  0  0  0  0  0  0  0  0  0  0  0
    4.2047    3.8874   18.9564 C   0  0  0  0  0  0  0  0  0  0  0  0
    4.4209    3.2902   20.1168 N   0  0  0  0  0  0  0  0  0  0  0  0
    4.5553    6.3463   19.4010 C   0  0  0  0  0  0  0  0  0  0  0  0
    6.0086    6.6769   19.4543 C   0  0  0  0  0  0  0  0  0  0  0  0
    6.2282    7.8744   20.3234 C   0  0  0  0  0  0  0  0  0  0  0  0
    4.9991    8.6651   20.6198 C   0  0  0  0  0  0  0  0  0  0  0  0
    4.3872    8.1743   21.7678 O   0  0  0  0  0  0  0  0  0  0  0  0
    4.0596    8.8076   19.4599 C   0  0  0  0  0  0  0  0  0  0  0  0
    3.7365    7.4937   18.8296 C   0  0  0  0  0  0  0  0  0  0  0  0
    3.7989    8.8381   22.2088 H   0  0  0  0  0  0  0  0  0  0  0  0
    3.3451    3.6302   15.4525 C   0  0  0  0  0  0  0  0  0  0  0  0
    2.2733    2.7740   15.2666 C   0  0  0  0  0  0  0  0  0  0  0  0
    1.8922    2.3757   14.0041 C   0  0  0  0  0  0  0  0  0  0  0  0
    2.5563    2.8083   12.8711 C   0  0  0  0  0  0  0  0  0  0  0  0
    3.6245    3.6612   13.0493 C   0  0  0  0  0  0  0  0  0  0  0  0
    4.2881    4.0964   11.9548 F   0  0  0  0  0  0  0  0  0  0  0  0
    4.0131    4.0667   14.3295 C   0  0  0  0  0  0  0  0  0  0  0  0
    2.0538    2.2878   11.2668 S   0  0  0  0  0  0  0  0  0  0  0  0
    1.0126    1.2190   11.3640 O   0  0  0  0  0  0  0  0  0  0  0  0
    3.2465    1.7222   10.5630 O   0  0  0  0  0  0  0  0  0  0  0  0
    1.3878    3.6468   10.4625 N   0  0  0  0  0  0  0  0  0  0  0  0
    0.5049    4.4188   11.2469 C   0  0  0  0  0  0  0  0  0  0  0  0
    1.0257    5.7235   11.7459 C   0  0  0  0  0  0  0  0  0  0  0  0
    2.0370    6.3188   10.9134 N   0  0  0  0  0  0  0  0  0  0  0  0
    1.9510    7.7503   10.8745 C   0  0  0  0  0  0  0  0  0  0  0  0
    1.9002    5.7987    9.5596 C   0  0  0  0  0  0  0  0  0  0  0  0
    2.3043    4.3416    9.6385 C   0  0  0  0  0  0  0  0  0  0  0  0
    4.5414    1.2788   21.4651 N   0  0  0  0  0  0  0  0  0  0  0  0
    5.3136    0.5861   21.4962 H   0  0  0  0  0  0  0  0  0  0  0  0
    3.7535    1.5105   22.6474 C   0  0  0  0  0  0  0  0  0  0  0  0
    4.4421    2.5396   23.5058 C   0  0  0  0  0  0  0  0  0  0  0  0
    4.3741    4.9378   22.9239 C   0  0  0  0  0  0  0  0  0  0  0  0
    3.6370    3.8055   23.6288 C   0  0  0  0  0  0  0  0  0  0  0  0
 39 40  1  0  0  0
 40 38  1  0  0  0
 38 37  1  0  0  0
 37 35  1  0  0  0
 35  1  1  0  0  0
  1  2  2  0  0  0
  2  3  1  0  0  0
  3  4  2  0  0  0
  4  5  1  0  0  0
  5  6  2  0  0  0
  6  7  1  0  0  0
  7 10  1  0  0  0
 10 11  1  0  0  0
 11 12  1  0  0  0
 12 13  1  0  0  0
 13 14  1  0  0  0
 13 15  1  0  0  0
 15 16  1  0  0  0
  7  8  1  0  0  0
  8  9  2  0  0  0
  5 18  1  0  0  0
 18 19  2  0  0  0
 19 20  1  0  0  0
 20 21  2  0  0  0
 21 22  1  0  0  0
 22 23  1  0  0  0
 22 24  2  0  0  0
 21 25  1  0  0  0
 25 26  2  0  0  0
 25 27  2  0  0  0
 25 28  1  0  0  0
 28 29  1  0  0  0
 29 30  1  0  0  0
 30 31  1  0  0  0
 31 32  1  0  0  0
 31 33  1  0  0  0
 33 34  1  0  0  0
  9  1  1  0  0  0
 24 18  1  0  0  0
 34 28  1  0  0  0
  8  4  1  0  0  0
 16 10  1  0  0  0
 35 36  1  0  0  0
 14 17  1  0  0  0
M  END
> <minimizedAffinity>
-9.17517

> <CNNscore>
0.2745820284

> <CNNaffinity>
7.3122825623

> <CNN_VS>
2.0078213215

> <CNNaffinity_variance>
0.4807284772

$$$$
[H]O[C@]1([H])C([H])([H])C([H])([H])[C@@]([H])(n2c([H])c(-c3c([H])c([H])c(S(=O)(=O)N4C([H])([H])C([H])([H])N(C([H])([H])[H])C([H])([H])C4([H])[H])c(F)c3[H])c3c([H])nc(N([H])C([H])([H])C([H])([H])C([H])([H])C([H])([H])[H])nc32)C([H])([H])C1([H])[H]


 40 44  0  0  0  0  0  0  0  0999 V2000
    3.6422    1.5932   18.4291 C   0  0  0  0  0  0  0  0  0  0  0  0
    3.2487    1.4217   17.1392 N   0  0  0  0  0  0  0  0  0  0  0  0
    3.0709    2.4963   16.3546 C   0  0  0  0  0  0  0  0  0  0  0  0
    3.2920    3.7589   16.8762 C   0  0  0  0  0  0  0  0  0  0  0  0
    3.2068    5.0352   16.3640 C   0  0  0  0  0  0  0  0  0  0  0  0
    3.5501    5.9170   17.3589 C   0  0  0  0  0  0  0  0  0  0  0  0
    3.8404    5.2037   18.4595 N   0  0  0  0  0  0  0  0  0  0  0  0
    3.6891    3.8962   18.1843 C   0  0  0  0  0  0  0  0  0  0  0  0
    3.8559    2.8178   18.9320 N   0  0  0  0  0  0  0  0  0  0  0  0
    4.2421    5.8411   19.6936 C   0  0  0  0  0  0  0  0  0  0  0  0
    4.0478    4.9904   20.9030 C   0  0  0  0  0  0  0  0  0  0  0  0
    4.4662    5.7409   22.1275 C   0  0  0  0  0  0  0  0  0  0  0  0
    5.2952    6.9524   21.8651 C   0  0  0  0  0  0  0  0  0  0  0  0
    4.4721    8.0596   21.6929 O   0  0  0  0  0  0  0  0  0  0  0  0
    6.3053    6.7862   20.7694 C   0  0  0  0  0  0  0  0  0  0  0  0
    5.6974    6.2470   19.5174 C   0  0  0  0  0  0  0  0  0  0  0  0
    4.9347    8.9183   21.8652 H   0  0  0  0  0  0  0  0  0  0  0  0
    2.8091    5.3448   14.9890 C   0  0  0  0  0  0  0  0  0  0  0  0
    1.9215    6.3839   14.7674 C   0  0  0  0  0  0  0  0  0  0  0  0
    1.5146    6.7116   13.4927 C   0  0  0  0  0  0  0  0  0  0  0  0
    1.9694    6.0245   12.3825 C   0  0  0  0  0  0  0  0  0  0  0  0
    2.8535    4.9887   12.5962 C   0  0  0  0  0  0  0  0  0  0  0  0
    3.3107    4.3033   11.5244 F   0  0  0  0  0  0  0  0  0  0  0  0
    3.2677    4.6542   13.8889 C   0  0  0  0  0  0  0  0  0  0  0  0
    1.4374    6.4588   10.7620 S   0  0  0  0  0  0  0  0  0  0  0  0
    2.5478    6.2733    9.7778 O   0  0  0  0  0  0  0  0  0  0  0  0
    1.0487    7.9033   10.7682 O   0  0  0  0  0  0  0  0  0  0  0  0
    0.1392    5.4211   10.3438 N   0  0  0  0  0  0  0  0  0  0  0  0
   -0.3000    4.5800   11.3881 C   0  0  0  0  0  0  0  0  0  0  0  0
   -1.5908    4.9451   12.0384 C   0  0  0  0  0  0  0  0  0  0  0  0
   -2.5061    5.6575   11.1870 N   0  0  0  0  0  0  0  0  0  0  0  0
   -3.8763    5.3121   11.4344 C   0  0  0  0  0  0  0  0  0  0  0  0
   -2.1859    5.3611    9.7972 C   0  0  0  0  0  0  0  0  0  0  0  0
   -0.8511    6.0258    9.5343 C   0  0  0  0  0  0  0  0  0  0  0  0
    3.8104    0.4087   19.2013 N   0  0  0  0  0  0  0  0  0  0  0  0
    4.6310   -0.1897   18.9882 H   0  0  0  0  0  0  0  0  0  0  0  0
    2.9033    0.0156   20.2476 C   0  0  0  0  0  0  0  0  0  0  0  0
    3.6317    0.0364   21.5664 C   0  0  0  0  0  0  0  0  0  0  0  0
    4.9405    1.8491   22.6134 C   0  0  0  0  0  0  0  0  0  0  0  0
    3.5393    1.3774   22.2439 C   0  0  0  0  0  0  0  0  0  0  0  0
 39 40  1  0  0  0
 40 38  1  0  0  0
 38 37  1  0  0  0
 37 35  1  0  0  0
 35  1  1  0  0  0
  1  2  2  0  0  0
  2  3  1  0  0  0
  3  4  2  0  0  0
  4  5  1  0  0  0
  5  6  2  0  0  0
  6  7  1  0  0  0
  7 10  1  0  0  0
 10 11  1  0  0  0
 11 12  1  0  0  0
 12 13  1  0  0  0
 13 14  1  0  0  0
 13 15  1  0  0  0
 15 16  1  0  0  0
  7  8  1  0  0  0
  8  9  2  0  0  0
  5 18  1  0  0  0
 18 19  2  0  0  0
 19 20  1  0  0  0
 20 21  2  0  0  0
 21 22  1  0  0  0
 22 23  1  0  0  0
 22 24  2  0  0  0
 21 25  1  0  0  0
 25 26  2  0  0  0
 25 27  2  0  0  0
 25 28  1  0  0  0
 28 29  1  0  0  0
 29 30  1  0  0  0
 30 31  1  0  0  0
 31 32  1  0  0  0
 31 33  1  0  0  0
 33 34  1  0  0  0
  9  1  1  0  0  0
 24 18  1  0  0  0
 34 28  1  0  0  0
  8  4  1  0  0  0
 16 10  1  0  0  0
 35 36  1  0  0  0
 14 17  1  0  0  0
M  END
> <minimizedAffinity>
-8.43659

> <CNNscore>
0.2685753107

> <CNNaffinity>
7.1432785988

> <CNN_VS>
1.9185082912

> <CNNaffinity_variance>
0.3096599281

$$$$
[H]O[C@]1([H])C([H])([H])C([H])([H])[C@@]([H])(n2c([H])c(-c3c([H])c([H])c(S(=O)(=O)N4C([H])([H])C([H])([H])N(C([H])([H])[H])C([H])([H])C4([H])[H])c(F)c3[H])c3c([H])nc(N([H])C([H])([H])C([H])([H])C([H])([H])C([H])([H])[H])nc32)C([H])([H])C1([H])[H]


 40 44  0  0  0  0  0  0  0  0999 V2000
    4.3511    1.9855   20.2105 C   0  0  0  0  0  0  0  0  0  0  0  0
    4.0173    1.2333   19.1285 N   0  0  0  0  0  0  0  0  0  0  0  0
    3.7875    1.8355   17.9510 C   0  0  0  0  0  0  0  0  0  0  0  0
    3.8952    3.2124   17.8628 C   0  0  0  0  0  0  0  0  0  0  0  0
    3.7330    4.1223   16.8409 C   0  0  0  0  0  0  0  0  0  0  0  0
    3.9741    5.3764   17.3452 C   0  0  0  0  0  0  0  0  0  0  0  0
    4.2779    5.2454   18.6471 N   0  0  0  0  0  0  0  0  0  0  0  0
    4.2346    3.9423   18.9761 C   0  0  0  0  0  0  0  0  0  0  0  0
    4.4549    3.3196   20.1223 N   0  0  0  0  0  0  0  0  0  0  0  0
    4.5872    6.3907   19.4737 C   0  0  0  0  0  0  0  0  0  0  0  0
    6.0452    6.6891   19.5700 C   0  0  0  0  0  0  0  0  0  0  0  0
    6.2669    7.8695   20.4617 C   0  0  0  0  0  0  0  0  0  0  0  0
    5.0474    8.6824   20.7369 C   0  0  0  0  0  0  0  0  0  0  0  0
    4.3948    8.1892   21.8612 O   0  0  0  0  0  0  0  0  0  0  0  0
    4.1425    8.8611   19.5548 C   0  0  0  0  0  0  0  0  0  0  0  0
    3.8085    7.5634   18.8974 C   0  0  0  0  0  0  0  0  0  0  0  0
    3.8093    8.8594   22.2960 H   0  0  0  0  0  0  0  0  0  0  0  0
    3.3620    3.7627   15.4706 C   0  0  0  0  0  0  0  0  0  0  0  0
    4.1304    4.2399   14.4226 C   0  0  0  0  0  0  0  0  0  0  0  0
    3.8203    3.9322   13.1160 C   0  0  0  0  0  0  0  0  0  0  0  0
    2.7357    3.1386   12.7912 C   0  0  0  0  0  0  0  0  0  0  0  0
    1.9664    2.6602   13.8301 C   0  0  0  0  0  0  0  0  0  0  0  0
    0.9009    1.8822   13.5348 F   0  0  0  0  0  0  0  0  0  0  0  0
    2.2792    2.9711   15.1568 C   0  0  0  0  0  0  0  0  0  0  0  0
    2.3562    2.7571   11.1155 S   0  0  0  0  0  0  0  0  0  0  0  0
    1.7364    1.4001   11.0136 O   0  0  0  0  0  0  0  0  0  0  0  0
    3.6327    2.7526   10.3356 O   0  0  0  0  0  0  0  0  0  0  0  0
    1.2369    3.9275   10.5549 N   0  0  0  0  0  0  0  0  0  0  0  0
   -0.1039    3.6782   10.9167 C   0  0  0  0  0  0  0  0  0  0  0  0
   -0.6703    4.5313   12.0003 C   0  0  0  0  0  0  0  0  0  0  0  0
   -0.0753    5.8372   12.1027 N   0  0  0  0  0  0  0  0  0  0  0  0
   -1.0208    6.8494   12.4760 C   0  0  0  0  0  0  0  0  0  0  0  0
    0.5139    6.1895   10.8179 C   0  0  0  0  0  0  0  0  0  0  0  0
    1.6979    5.2622   10.6429 C   0  0  0  0  0  0  0  0  0  0  0  0
    4.5801    1.2788   21.4253 N   0  0  0  0  0  0  0  0  0  0  0  0
    5.3564    0.5903   21.4401 H   0  0  0  0  0  0  0  0  0  0  0  0
    3.7911    1.4782   22.6127 C   0  0  0  0  0  0  0  0  0  0  0  0
    4.4954    2.4583   23.5147 C   0  0  0  0  0  0  0  0  0  0  0  0
    4.5049    4.8716   22.9944 C   0  0  0  0  0  0  0  0  0  0  0  0
    3.7276    3.7445   23.6636 C   0  0  0  0  0  0  0  0  0  0  0  0
 39 40  1  0  0  0
 40 38  1  0  0  0
 38 37  1  0  0  0
 37 35  1  0  0  0
 35  1  1  0  0  0
  1  2  2  0  0  0
  2  3  1  0  0  0
  3  4  2  0  0  0
  4  5  1  0  0  0
  5  6  2  0  0  0
  6  7  1  0  0  0
  7 10  1  0  0  0
 10 11  1  0  0  0
 11 12  1  0  0  0
 12 13  1  0  0  0
 13 14  1  0  0  0
 13 15  1  0  0  0
 15 16  1  0  0  0
  7  8  1  0  0  0
  8  9  2  0  0  0
  5 18  1  0  0  0
 18 19  2  0  0  0
 19 20  1  0  0  0
 20 21  2  0  0  0
 21 22  1  0  0  0
 22 23  1  0  0  0
 22 24  2  0  0  0
 21 25  1  0  0  0
 25 26  2  0  0  0
 25 27  2  0  0  0
 25 28  1  0  0  0
 28 29  1  0  0  0
 29 30  1  0  0  0
 30 31  1  0  0  0
 31 32  1  0  0  0
 31 33  1  0  0  0
 33 34  1  0  0  0
  9  1  1  0  0  0
 24 18  1  0  0  0
 34 28  1  0  0  0
  8  4  1  0  0  0
 16 10  1  0  0  0
 35 36  1  0  0  0
 14 17  1  0  0  0
M  END
> <minimizedAffinity>
-9.21602

> <CNNscore>
0.2561967373

> <CNNaffinity>
7.2693238258

> <CNN_VS>
1.8623770475

> <CNNaffinity_variance>
0.3909555674

$$$$
[H]O[C@]1([H])C([H])([H])C([H])([H])[C@@]([H])(n2c([H])c(-c3c([H])c([H])c(S(=O)(=O)N4C([H])([H])C([H])([H])N(C([H])([H])[H])C([H])([H])C4([H])[H])c(F)c3[H])c3c([H])nc(N([H])C([H])([H])C([H])([H])C([H])([H])C([H])([H])[H])nc32)C([H])([H])C1([H])[H]


 40 44  0  0  0  0  0  0  0  0999 V2000
    3.8459    7.0277   19.0796 C   0  0  0  0  0  0  0  0  0  0  0  0
    3.5911    7.2361   17.7606 N   0  0  0  0  0  0  0  0  0  0  0  0
    3.4656    6.1828   16.9378 C   0  0  0  0  0  0  0  0  0  0  0  0
    3.5989    4.9042   17.4504 C   0  0  0  0  0  0  0  0  0  0  0  0
    3.5306    3.6413   16.9036 C   0  0  0  0  0  0  0  0  0  0  0  0
    3.7454    2.7303   17.9083 C   0  0  0  0  0  0  0  0  0  0  0  0
    3.9417    3.4131   19.0483 N   0  0  0  0  0  0  0  0  0  0  0  0
    3.8563    4.7296   18.7885 C   0  0  0  0  0  0  0  0  0  0  0  0
    3.9744    5.7877   19.5737 N   0  0  0  0  0  0  0  0  0  0  0  0
    4.1969    2.7398   20.3022 C   0  0  0  0  0  0  0  0  0  0  0  0
    3.8230    1.2961   20.2987 C   0  0  0  0  0  0  0  0  0  0  0  0
    4.0991    0.6941   21.6400 C   0  0  0  0  0  0  0  0  0  0  0  0
    4.9887    1.5067   22.5185 C   0  0  0  0  0  0  0  0  0  0  0  0
    4.2263    2.3883   23.2767 O   0  0  0  0  0  0  0  0  0  0  0  0
    6.1279    2.1693   21.8033 C   0  0  0  0  0  0  0  0  0  0  0  0
    5.6735    2.9392   20.6080 C   0  0  0  0  0  0  0  0  0  0  0  0
    4.6863    2.6910   24.1000 H   0  0  0  0  0  0  0  0  0  0  0  0
    3.2749    3.3709   15.4873 C   0  0  0  0  0  0  0  0  0  0  0  0
    2.2603    2.4928   15.1466 C   0  0  0  0  0  0  0  0  0  0  0  0
    1.9832    2.2036   13.8285 C   0  0  0  0  0  0  0  0  0  0  0  0
    2.6991    2.7716   12.7909 C   0  0  0  0  0  0  0  0  0  0  0  0
    3.7108    3.6469   13.1233 C   0  0  0  0  0  0  0  0  0  0  0  0
    4.4236    4.2137   12.1241 F   0  0  0  0  0  0  0  0  0  0  0  0
    3.9938    3.9419   14.4602 C   0  0  0  0  0  0  0  0  0  0  0  0
    2.3295    2.3889   11.1133 S   0  0  0  0  0  0  0  0  0  0  0  0
    1.3500    1.2618   11.0356 O   0  0  0  0  0  0  0  0  0  0  0  0
    3.5954    1.9612   10.4407 O   0  0  0  0  0  0  0  0  0  0  0  0
    1.6350    3.7844   10.4010 N   0  0  0  0  0  0  0  0  0  0  0  0
    0.6615    4.4264   11.1954 C   0  0  0  0  0  0  0  0  0  0  0  0
    1.0726    5.7004   11.8515 C   0  0  0  0  0  0  0  0  0  0  0  0
    2.0962    6.4285   11.1498 N   0  0  0  0  0  0  0  0  0  0  0  0
    1.9282    7.8501   11.2434 C   0  0  0  0  0  0  0  0  0  0  0  0
    2.0737    6.0399    9.7460 C   0  0  0  0  0  0  0  0  0  0  0  0
    2.5576    4.6056    9.7110 C   0  0  0  0  0  0  0  0  0  0  0  0
    3.9663    8.1913   19.8915 N   0  0  0  0  0  0  0  0  0  0  0  0
    3.0902    8.6659   20.1817 H   0  0  0  0  0  0  0  0  0  0  0  0
    5.2329    8.7258   20.3184 C   0  0  0  0  0  0  0  0  0  0  0  0
    5.2141    8.9057   21.8142 C   0  0  0  0  0  0  0  0  0  0  0  0
    6.8616    9.7188   23.4631 C   0  0  0  0  0  0  0  0  0  0  0  0
    6.5588    8.6360   22.4345 C   0  0  0  0  0  0  0  0  0  0  0  0
 39 40  1  0  0  0
 40 38  1  0  0  0
 38 37  1  0  0  0
 37 35  1  0  0  0
 35  1  1  0  0  0
  1  2  2  0  0  0
  2  3  1  0  0  0
  3  4  2  0  0  0
  4  5  1  0  0  0
  5  6  2  0  0  0
  6  7  1  0  0  0
  7 10  1  0  0  0
 10 11  1  0  0  0
 11 12  1  0  0  0
 12 13  1  0  0  0
 13 14  1  0  0  0
 13 15  1  0  0  0
 15 16  1  0  0  0
  7  8  1  0  0  0
  8  9  2  0  0  0
  5 18  1  0  0  0
 18 19  2  0  0  0
 19 20  1  0  0  0
 20 21  2  0  0  0
 21 22  1  0  0  0
 22 23  1  0  0  0
 22 24  2  0  0  0
 21 25  1  0  0  0
 25 26  2  0  0  0
 25 27  2  0  0  0
 25 28  1  0  0  0
 28 29  1  0  0  0
 29 30  1  0  0  0
 30 31  1  0  0  0
 31 32  1  0  0  0
 31 33  1  0  0  0
 33 34  1  0  0  0
  9  1  1  0  0  0
 24 18  1  0  0  0
 34 28  1  0  0  0
  8  4  1  0  0  0
 16 10  1  0  0  0
 35 36  1  0  0  0
 14 17  1  0  0  0
M  END
> <minimizedAffinity>
-8.46950

> <CNNscore>
0.1195227876

> <CNNaffinity>
6.8634133339

> <CNN_VS>
0.8203343153

> <CNNaffinity_variance>
0.1942763180

$$$$
[H]O[C@]1([H])C([H])([H])C([H])([H])[C@@]([H])(n2c([H])c(-c3c([H])c([H])c(S(=O)(=O)N4C([H])([H])C([H])([H])N(C([H])([H])[H])C([H])([H])C4([H])[H])c(F)c3[H])c3c([H])nc(N([H])C([H])([H])C([H])([H])C([H])([H])C([H])([H])[H])nc32)C([H])([H])C1([H])[H]


 40 44  0  0  0  0  0  0  0  0999 V2000
    4.1136    2.1340   18.8119 C   0  0  0  0  0  0  0  0  0  0  0  0
    3.6534    1.7234   17.6005 N   0  0  0  0  0  0  0  0  0  0  0  0
    3.3461    2.6373   16.6664 C   0  0  0  0  0  0  0  0  0  0  0  0
    3.5043    3.9812   16.9569 C   0  0  0  0  0  0  0  0  0  0  0  0
    3.2912    5.1452   16.2509 C   0  0  0  0  0  0  0  0  0  0  0  0
    3.6294    6.2017   17.0600 C   0  0  0  0  0  0  0  0  0  0  0  0
    4.0415    5.7034   18.2374 N   0  0  0  0  0  0  0  0  0  0  0  0
    3.9718    4.3614   18.1915 C   0  0  0  0  0  0  0  0  0  0  0  0
    4.2660    3.4368   19.0907 N   0  0  0  0  0  0  0  0  0  0  0  0
    4.4714    6.5635   19.3173 C   0  0  0  0  0  0  0  0  0  0  0  0
    5.9484    6.5810   19.5230 C   0  0  0  0  0  0  0  0  0  0  0  0
    6.2932    7.4749   20.6718 C   0  0  0  0  0  0  0  0  0  0  0  0
    5.2019    8.3994   21.0936 C   0  0  0  0  0  0  0  0  0  0  0  0
    4.4051    7.7833   22.0522 O   0  0  0  0  0  0  0  0  0  0  0  0
    4.4184    8.9907   19.9601 C   0  0  0  0  0  0  0  0  0  0  0  0
    3.9286    7.9504   19.0084 C   0  0  0  0  0  0  0  0  0  0  0  0
    3.9049    8.4275   22.6142 H   0  0  0  0  0  0  0  0  0  0  0  0
    2.7852    5.1933   14.8775 C   0  0  0  0  0  0  0  0  0  0  0  0
    1.5328    5.7354   14.6448 C   0  0  0  0  0  0  0  0  0  0  0  0
    1.0117    5.8002   13.3712 C   0  0  0  0  0  0  0  0  0  0  0  0
    1.7085    5.3309   12.2731 C   0  0  0  0  0  0  0  0  0  0  0  0
    2.9563    4.7899   12.4980 C   0  0  0  0  0  0  0  0  0  0  0  0
    3.6551    4.3250   11.4381 F   0  0  0  0  0  0  0  0  0  0  0  0
    3.4872    4.7231   13.7895 C   0  0  0  0  0  0  0  0  0  0  0  0
    1.0252    5.4228   10.6539 S   0  0  0  0  0  0  0  0  0  0  0  0
   -0.3029    6.1094   10.6829 O   0  0  0  0  0  0  0  0  0  0  0  0
    0.8246    4.0285   10.1504 O   0  0  0  0  0  0  0  0  0  0  0  0
    2.1050    6.3330    9.6831 N   0  0  0  0  0  0  0  0  0  0  0  0
    1.9936    6.0926    8.2972 C   0  0  0  0  0  0  0  0  0  0  0  0
    1.3239    7.1519    7.4898 C   0  0  0  0  0  0  0  0  0  0  0  0
    1.4405    8.4787    8.0341 N   0  0  0  0  0  0  0  0  0  0  0  0
    1.5632    9.4853    7.0194 C   0  0  0  0  0  0  0  0  0  0  0  0
    2.6111    8.5327    8.8995 C   0  0  0  0  0  0  0  0  0  0  0  0
    2.2720    7.6746   10.1000 C   0  0  0  0  0  0  0  0  0  0  0  0
    4.4188    1.1093   19.7524 N   0  0  0  0  0  0  0  0  0  0  0  0
    5.2286    0.4944   19.5451 H   0  0  0  0  0  0  0  0  0  0  0  0
    3.6619    0.8966   20.9582 C   0  0  0  0  0  0  0  0  0  0  0  0
    4.4087    1.4949   22.1220 C   0  0  0  0  0  0  0  0  0  0  0  0
    6.3910    2.9652   22.1804 C   0  0  0  0  0  0  0  0  0  0  0  0
    5.8916    1.5590   21.8714 C   0  0  0  0  0  0  0  0  0  0  0  0
 39 40  1  0  0  0
 40 38  1  0  0  0
 38 37  1  0  0  0
 37 35  1  0  0  0
 35  1  1  0  0  0
  1  2  2  0  0  0
  2  3  1  0  0  0
  3  4  2  0  0  0
  4  5  1  0  0  0
  5  6  2  0  0  0
  6  7  1  0  0  0
  7 10  1  0  0  0
 10 11  1  0  0  0
 11 12  1  0  0  0
 12 13  1  0  0  0
 13 14  1  0  0  0
 13 15  1  0  0  0
 15 16  1  0  0  0
  7  8  1  0  0  0
  8  9  2  0  0  0
  5 18  1  0  0  0
 18 19  2  0  0  0
 19 20  1  0  0  0
 20 21  2  0  0  0
 21 22  1  0  0  0
 22 23  1  0  0  0
 22 24  2  0  0  0
 21 25  1  0  0  0
 25 26  2  0  0  0
 25 27  2  0  0  0
 25 28  1  0  0  0
 28 29  1  0  0  0
 29 30  1  0  0  0
 30 31  1  0  0  0
 31 32  1  0  0  0
 31 33  1  0  0  0
 33 34  1  0  0  0
  9  1  1  0  0  0
 24 18  1  0  0  0
 34 28  1  0  0  0
  8  4  1  0  0  0
 16 10  1  0  0  0
 35 36  1  0  0  0
 14 17  1  0  0  0
M  END
> <minimizedAffinity>
-8.57899

> <CNNscore>
0.1184739843

> <CNNaffinity>
6.7593169212

> <CNN_VS>
0.8008031845

> <CNNaffinity_variance>
0.2718682587

$$$$
[H]O[C@]1([H])C([H])([H])C([H])([H])[C@@]([H])(n2c([H])c(-c3c([H])c([H])c(S(=O)(=O)N4C([H])([H])C([H])([H])N(C([H])([H])[H])C([H])([H])C4([H])[H])c(F)c3[H])c3c([H])nc(N([H])C([H])([H])C([H])([H])C([H])([H])C([H])([H])[H])nc32)C([H])([H])C1([H])[H]


 40 44  0  0  0  0  0  0  0  0999 V2000
    4.7357    2.3130   20.1145 C   0  0  0  0  0  0  0  0  0  0  0  0
    4.3578    1.5837   19.0313 N   0  0  0  0  0  0  0  0  0  0  0  0
    3.9871    2.2155   17.9064 C   0  0  0  0  0  0  0  0  0  0  0  0
    3.9972    3.5990   17.8728 C   0  0  0  0  0  0  0  0  0  0  0  0
    3.6874    4.5359   16.9111 C   0  0  0  0  0  0  0  0  0  0  0  0
    3.8900    5.7824   17.4503 C   0  0  0  0  0  0  0  0  0  0  0  0
    4.3145    5.6203   18.7143 N   0  0  0  0  0  0  0  0  0  0  0  0
    4.3848    4.3052   18.9856 C   0  0  0  0  0  0  0  0  0  0  0  0
    4.7446    3.6535   20.0792 N   0  0  0  0  0  0  0  0  0  0  0  0
    4.6201    6.7500   19.5635 C   0  0  0  0  0  0  0  0  0  0  0  0
    6.0755    7.0642   19.6489 C   0  0  0  0  0  0  0  0  0  0  0  0
    6.2939    8.2264   20.5650 C   0  0  0  0  0  0  0  0  0  0  0  0
    5.0682    9.0176   20.8738 C   0  0  0  0  0  0  0  0  0  0  0  0
    4.4357    8.4905   21.9942 O   0  0  0  0  0  0  0  0  0  0  0  0
    4.1465    9.2122   19.7072 C   0  0  0  0  0  0  0  0  0  0  0  0
    3.8202    7.9259   19.0240 C   0  0  0  0  0  0  0  0  0  0  0  0
    3.8475    9.1432   22.4515 H   0  0  0  0  0  0  0  0  0  0  0  0
    3.2218    4.2071   15.5621 C   0  0  0  0  0  0  0  0  0  0  0  0
    3.5627    2.9809   15.0174 C   0  0  0  0  0  0  0  0  0  0  0  0
    3.1516    2.6266   13.7511 C   0  0  0  0  0  0  0  0  0  0  0  0
    2.3851    3.4714   12.9698 C   0  0  0  0  0  0  0  0  0  0  0  0
    2.0423    4.6940   13.5064 C   0  0  0  0  0  0  0  0  0  0  0  0
    1.2932    5.5357   12.7594 F   0  0  0  0  0  0  0  0  0  0  0  0
    2.4583    5.0558   14.7911 C   0  0  0  0  0  0  0  0  0  0  0  0
    1.8701    3.0001   11.3543 S   0  0  0  0  0  0  0  0  0  0  0  0
    0.3940    3.1825   11.2000 O   0  0  0  0  0  0  0  0  0  0  0  0
    2.1888    1.5508   11.1654 O   0  0  0  0  0  0  0  0  0  0  0  0
    2.6797    4.0121   10.2329 N   0  0  0  0  0  0  0  0  0  0  0  0
    4.0521    4.2034   10.4991 C   0  0  0  0  0  0  0  0  0  0  0  0
    5.0086    3.4746    9.6180 C   0  0  0  0  0  0  0  0  0  0  0  0
    4.5114    3.2024    8.2955 N   0  0  0  0  0  0  0  0  0  0  0  0
    5.5333    3.2825    7.2918 C   0  0  0  0  0  0  0  0  0  0  0  0
    3.4607    4.1607    7.9798 C   0  0  0  0  0  0  0  0  0  0  0  0
    2.2998    3.8078    8.8855 C   0  0  0  0  0  0  0  0  0  0  0  0
    5.1155    1.5755   21.2718 N   0  0  0  0  0  0  0  0  0  0  0  0
    4.5197    0.7706   21.5440 H   0  0  0  0  0  0  0  0  0  0  0  0
    6.2732    1.8964   22.0650 C   0  0  0  0  0  0  0  0  0  0  0  0
    5.8244    2.4716   23.3833 C   0  0  0  0  0  0  0  0  0  0  0  0
    3.8393    3.9246   23.5899 C   0  0  0  0  0  0  0  0  0  0  0  0
    4.3250    2.4821   23.5162 C   0  0  0  0  0  0  0  0  0  0  0  0
 39 40  1  0  0  0
 40 38  1  0  0  0
 38 37  1  0  0  0
 37 35  1  0  0  0
 35  1  1  0  0  0
  1  2  2  0  0  0
  2  3  1  0  0  0
  3  4  2  0  0  0
  4  5  1  0  0  0
  5  6  2  0  0  0
  6  7  1  0  0  0
  7 10  1  0  0  0
 10 11  1  0  0  0
 11 12  1  0  0  0
 12 13  1  0  0  0
 13 14  1  0  0  0
 13 15  1  0  0  0
 15 16  1  0  0  0
  7  8  1  0  0  0
  8  9  2  0  0  0
  5 18  1  0  0  0
 18 19  2  0  0  0
 19 20  1  0  0  0
 20 21  2  0  0  0
 21 22  1  0  0  0
 22 23  1  0  0  0
 22 24  2  0  0  0
 21 25  1  0  0  0
 25 26  2  0  0  0
 25 27  2  0  0  0
 25 28  1  0  0  0
 28 29  1  0  0  0
 29 30  1  0  0  0
 30 31  1  0  0  0
 31 32  1  0  0  0
 31 33  1  0  0  0
 33 34  1  0  0  0
  9  1  1  0  0  0
 24 18  1  0  0  0
 34 28  1  0  0  0
  8  4  1  0  0  0
 16 10  1  0  0  0
 35 36  1  0  0  0
 14 17  1  0  0  0
M  END
> <minimizedAffinity>
-8.85477

> <CNNscore>
0.1112869531

> <CNNaffinity>
6.8171682358

> <CNN_VS>
0.7586618662

> <CNNaffinity_variance>
0.2756671607

$$$$
[H]O[C@]1([H])C([H])([H])C([H])([H])[C@@]([H])(n2c([H])c(-c3c([H])c([H])c(S(=O)(=O)N4C([H])([H])C([H])([H])N(C([H])([H])[H])C([H])([H])C4([H])[H])c(F)c3[H])c3c([H])nc(N([H])C([H])([H])C([H])([H])C([H])([H])C([H])([H])[H])nc32)C([H])([H])C1([H])[H]


 40 44  0  0  0  0  0  0  0  0999 V2000
    4.4362    2.4080   19.5409 C   0  0  0  0  0  0  0  0  0  0  0  0
    4.0319    1.8385   18.3746 N   0  0  0  0  0  0  0  0  0  0  0  0
    3.7160    2.6222   17.3316 C   0  0  0  0  0  0  0  0  0  0  0  0
    3.8084    3.9966   17.4656 C   0  0  0  0  0  0  0  0  0  0  0  0
    3.5688    5.0594   16.6219 C   0  0  0  0  0  0  0  0  0  0  0  0
    3.8368    6.2173   17.3094 C   0  0  0  0  0  0  0  0  0  0  0  0
    4.2323    5.8790   18.5478 N   0  0  0  0  0  0  0  0  0  0  0  0
    4.2206    4.5391   18.6586 C   0  0  0  0  0  0  0  0  0  0  0  0
    4.5250    3.7400   19.6680 N   0  0  0  0  0  0  0  0  0  0  0  0
    4.5916    6.8779   19.5296 C   0  0  0  0  0  0  0  0  0  0  0  0
    6.0626    7.0415   19.7131 C   0  0  0  0  0  0  0  0  0  0  0  0
    6.3345    8.0736   20.7611 C   0  0  0  0  0  0  0  0  0  0  0  0
    5.1698    8.9403   21.1017 C   0  0  0  0  0  0  0  0  0  0  0  0
    4.4330    8.3595   22.1279 O   0  0  0  0  0  0  0  0  0  0  0  0
    4.3335    9.3446   19.9246 C   0  0  0  0  0  0  0  0  0  0  0  0
    3.9306    8.1751   19.0893 C   0  0  0  0  0  0  0  0  0  0  0  0
    3.8819    9.0127   22.6285 H   0  0  0  0  0  0  0  0  0  0  0  0
    3.1046    4.9239   15.2397 C   0  0  0  0  0  0  0  0  0  0  0  0
    1.8287    5.3538   14.9175 C   0  0  0  0  0  0  0  0  0  0  0  0
    1.3452    5.2448   13.6321 C   0  0  0  0  0  0  0  0  0  0  0  0
    2.1045    4.7053   12.6104 C   0  0  0  0  0  0  0  0  0  0  0  0
    3.3760    4.2753   12.9245 C   0  0  0  0  0  0  0  0  0  0  0  0
    4.1357    3.7444   11.9403 F   0  0  0  0  0  0  0  0  0  0  0  0
    3.8688    4.3849   14.2282 C   0  0  0  0  0  0  0  0  0  0  0  0
    1.4684    4.5748   10.9746 S   0  0  0  0  0  0  0  0  0  0  0  0
   -0.0073    4.8160   10.9646 O   0  0  0  0  0  0  0  0  0  0  0  0
    1.7227    3.1851   10.4828 O   0  0  0  0  0  0  0  0  0  0  0  0
    2.2379    5.7712   10.0189 N   0  0  0  0  0  0  0  0  0  0  0  0
    2.3208    7.0429   10.6246 C   0  0  0  0  0  0  0  0  0  0  0  0
    3.6598    7.4490   11.1388 C   0  0  0  0  0  0  0  0  0  0  0  0
    4.7703    6.8531   10.4446 N   0  0  0  0  0  0  0  0  0  0  0  0
    5.8923    7.7395   10.3297 C   0  0  0  0  0  0  0  0  0  0  0  0
    4.3372    6.4611    9.1101 C   0  0  0  0  0  0  0  0  0  0  0  0
    3.3748    5.3101    9.3142 C   0  0  0  0  0  0  0  0  0  0  0  0
    4.7546    1.5150   20.6033 N   0  0  0  0  0  0  0  0  0  0  0  0
    5.7464    1.4623   20.9040 H   0  0  0  0  0  0  0  0  0  0  0  0
    3.7723    0.6969   21.2651 C   0  0  0  0  0  0  0  0  0  0  0  0
    3.3544    1.3676   22.5479 C   0  0  0  0  0  0  0  0  0  0  0  0
    4.1457    3.4912   23.5273 C   0  0  0  0  0  0  0  0  0  0  0  0
    4.5105    2.0400   23.2388 C   0  0  0  0  0  0  0  0  0  0  0  0
 39 40  1  0  0  0
 40 38  1  0  0  0
 38 37  1  0  0  0
 37 35  1  0  0  0
 35  1  1  0  0  0
  1  2  2  0  0  0
  2  3  1  0  0  0
  3  4  2  0  0  0
  4  5  1  0  0  0
  5  6  2  0  0  0
  6  7  1  0  0  0
  7 10  1  0  0  0
 10 11  1  0  0  0
 11 12  1  0  0  0
 12 13  1  0  0  0
 13 14  1  0  0  0
 13 15  1  0  0  0
 15 16  1  0  0  0
  7  8  1  0  0  0
  8  9  2  0  0  0
  5 18  1  0  0  0
 18 19  2  0  0  0
 19 20  1  0  0  0
 20 21  2  0  0  0
 21 22  1  0  0  0
 22 23  1  0  0  0
 22 24  2  0  0  0
 21 25  1  0  0  0
 25 26  2  0  0  0
 25 27  2  0  0  0
 25 28  1  0  0  0
 28 29  1  0  0  0
 29 30  1  0  0  0
 30 31  1  0  0  0
 31 32  1  0  0  0
 31 33  1  0  0  0
 33 34  1  0  0  0
  9  1  1  0  0  0
 24 18  1  0  0  0
 34 28  1  0  0  0
  8  4  1  0  0  0
 16 10  1  0  0  0
 35 36  1  0  0  0
 14 17  1  0  0  0
M  END
> <minimizedAffinity>
-8.79350

> <CNNscore>
0.1015460342

> <CNNaffinity>
6.8940176964

> <CNN_VS>
0.7000601292

> <CNNaffinity_variance>
0.3455555141

$$$$
[H]O[C@]1([H])C([H])([H])C([H])([H])[C@@]([H])(C([H])([H])n2nc(-c3c([H])c([H])c(S(=O)(=O)N([H])C(=O)C([H])([H])[H])c([H])c3[H])c3c([H])nc(N([H])C([H])([H])C([H])([H])C([H])([H])C([H])([H])[H])nc32)C([H])([H])C1([H])[H]


 38 41  0  0  0  0  0  0  0  0999 V2000
    3.0881    0.1370   19.0290 C   0  0  0  0  0  0  0  0  0  0  0  0
    2.3620   -0.2475   17.9734 N   0  0  0  0  0  0  0  0  0  0  0  0
    2.3426    0.4128   16.7913 C   0  0  0  0  0  0  0  0  0  0  0  0
    3.1221    1.5431   16.6902 C   0  0  0  0  0  0  0  0  0  0  0  0
    3.3179    2.4219   15.6714 C   0  0  0  0  0  0  0  0  0  0  0  0
    4.1954    3.3537   16.1538 N   0  0  0  0  0  0  0  0  0  0  0  0
    4.5296    3.0763   17.3984 N   0  0  0  0  0  0  0  0  0  0  0  0
    3.8820    1.9620   17.7624 C   0  0  0  0  0  0  0  0  0  0  0  0
    3.8472    1.2512   18.9030 N   0  0  0  0  0  0  0  0  0  0  0  0
    2.7929    2.4988   14.3135 C   0  0  0  0  0  0  0  0  0  0  0  0
    3.3846    3.1842   13.2815 C   0  0  0  0  0  0  0  0  0  0  0  0
    2.8251    3.2408   12.0161 C   0  0  0  0  0  0  0  0  0  0  0  0
    1.6348    2.6049   11.7294 C   0  0  0  0  0  0  0  0  0  0  0  0
    1.0296    1.9126   12.7508 C   0  0  0  0  0  0  0  0  0  0  0  0
    1.5834    1.8556   14.0049 C   0  0  0  0  0  0  0  0  0  0  0  0
    0.9471    2.7342   10.1264 S   0  0  0  0  0  0  0  0  0  0  0  0
    2.0780    2.9177    9.1321 O   0  0  0  0  0  0  0  0  0  0  0  0
    0.1154    3.9905   10.1210 O   0  0  0  0  0  0  0  0  0  0  0  0
    0.0339    1.3208    9.8079 N   0  0  0  0  0  0  0  0  0  0  0  0
    0.6680    0.0881    9.5858 C   0  0  0  0  0  0  0  0  0  0  0  0
   -0.1513   -1.1185    9.3151 C   0  0  0  0  0  0  0  0  0  0  0  0
    1.9372    0.0344    9.6217 O   0  0  0  0  0  0  0  0  0  0  0  0
   -1.0098    1.4419    9.7925 H   0  0  0  0  0  0  0  0  0  0  0  0
    3.0597   -0.5735   20.2409 N   0  0  0  0  0  0  0  0  0  0  0  0
    2.4304   -1.4271   20.2890 H   0  0  0  0  0  0  0  0  0  0  0  0
    3.7998   -0.2566   21.4154 C   0  0  0  0  0  0  0  0  0  0  0  0
    3.2558    0.9472   22.1561 C   0  0  0  0  0  0  0  0  0  0  0  0
    5.6651    1.4189   21.9718 C   0  0  0  0  0  0  0  0  0  0  0  0
    4.3859    1.8191   22.6681 C   0  0  0  0  0  0  0  0  0  0  0  0
    5.4814    3.8871   18.1618 C   0  0  0  0  0  0  0  0  0  0  0  0
    4.7333    4.7706   19.1675 C   0  0  0  0  0  0  0  0  0  0  0  0
    5.3535    4.6739   20.5308 C   0  0  0  0  0  0  0  0  0  0  0  0
    4.6219    5.6373   21.4592 C   0  0  0  0  0  0  0  0  0  0  0  0
    4.9683    7.0294   20.9878 C   0  0  0  0  0  0  0  0  0  0  0  0
    4.4159    8.0087   21.8001 O   0  0  0  0  0  0  0  0  0  0  0  0
    4.4043    7.2384   19.5855 C   0  0  0  0  0  0  0  0  0  0  0  0
    4.9008    6.1785   18.6608 C   0  0  0  0  0  0  0  0  0  0  0  0
    4.1859    8.8155   21.2843 H   0  0  0  0  0  0  0  0  0  0  0  0
 28 29  1  0  0  0
 29 27  1  0  0  0
 27 26  1  0  0  0
 26 24  1  0  0  0
 24  1  1  0  0  0
  1  2  2  0  0  0
  2  3  1  0  0  0
  3  4  2  0  0  0
  4  5  1  0  0  0
  5  6  2  0  0  0
  6  7  1  0  0  0
  7 30  1  0  0  0
 30 31  1  0  0  0
 31 32  1  0  0  0
 32 33  1  0  0  0
 33 34  1  0  0  0
 34 35  1  0  0  0
 34 36  1  0  0  0
 36 37  1  0  0  0
  7  8  1  0  0  0
  8  9  2  0  0  0
  5 10  1  0  0  0
 10 11  2  0  0  0
 11 12  1  0  0  0
 12 13  2  0  0  0
 13 14  1  0  0  0
 14 15  2  0  0  0
 13 16  1  0  0  0
 16 17  2  0  0  0
 16 18  2  0  0  0
 16 19  1  0  0  0
 19 20  1  0  0  0
 20 21  1  0  0  0
 20 22  2  0  0  0
  9  1  1  0  0  0
 15 10  1  0  0  0
  8  4  1  0  0  0
 37 31  1  0  0  0
 24 25  1  0  0  0
 35 38  1  0  0  0
 19 23  1  0  0  0
M  END
> <minimizedAffinity>
-8.83017

> <CNNscore>
0.9664917588

> <CNNaffinity>
7.7126073837

> <CNN_VS>
7.4541716576

> <CNNaffinity_variance>
0.0861200243

$$$$
[H]O[C@]1([H])C([H])([H])C([H])([H])[C@@]([H])(C([H])([H])n2nc(-c3c([H])c([H])c(S(=O)(=O)N([H])C(=O)C([H])([H])[H])c([H])c3[H])c3c([H])nc(N([H])C([H])([H])C([H])([H])C([H])([H])C([H])([H])[H])nc32)C([H])([H])C1([H])[H]


 38 41  0  0  0  0  0  0  0  0999 V2000
    3.0120    0.1490   19.0676 C   0  0  0  0  0  0  0  0  0  0  0  0
    2.3066   -0.2119   17.9898 N   0  0  0  0  0  0  0  0  0  0  0  0
    2.3305    0.4595   16.8140 C   0  0  0  0  0  0  0  0  0  0  0  0
    3.1335    1.5757   16.7442 C   0  0  0  0  0  0  0  0  0  0  0  0
    3.3723    2.4600   15.7394 C   0  0  0  0  0  0  0  0  0  0  0  0
    4.2542    3.3705   16.2535 N   0  0  0  0  0  0  0  0  0  0  0  0
    4.5505    3.0753   17.5035 N   0  0  0  0  0  0  0  0  0  0  0  0
    3.8729    1.9702   17.8397 C   0  0  0  0  0  0  0  0  0  0  0  0
    3.7949    1.2497   18.9721 N   0  0  0  0  0  0  0  0  0  0  0  0
    2.8845    2.5594   14.3691 C   0  0  0  0  0  0  0  0  0  0  0  0
    3.4709    3.3100   13.3804 C   0  0  0  0  0  0  0  0  0  0  0  0
    2.9469    3.3841   12.1007 C   0  0  0  0  0  0  0  0  0  0  0  0
    1.7995    2.7004   11.7552 C   0  0  0  0  0  0  0  0  0  0  0  0
    1.2003    1.9426   12.7327 C   0  0  0  0  0  0  0  0  0  0  0  0
    1.7189    1.8682   14.0008 C   0  0  0  0  0  0  0  0  0  0  0  0
    1.1538    2.8528   10.1367 S   0  0  0  0  0  0  0  0  0  0  0  0
    1.4575    1.5757    9.3764 O   0  0  0  0  0  0  0  0  0  0  0  0
    1.9137    3.9761    9.4803 O   0  0  0  0  0  0  0  0  0  0  0  0
   -0.5289    3.1517   10.2457 N   0  0  0  0  0  0  0  0  0  0  0  0
   -1.0142    4.3456   10.8025 C   0  0  0  0  0  0  0  0  0  0  0  0
   -2.4775    4.5757   10.8802 C   0  0  0  0  0  0  0  0  0  0  0  0
   -0.1831    5.2068   11.2301 O   0  0  0  0  0  0  0  0  0  0  0  0
   -1.1551    2.3944    9.8733 H   0  0  0  0  0  0  0  0  0  0  0  0
    2.9386   -0.5720   20.2714 N   0  0  0  0  0  0  0  0  0  0  0  0
    2.1825   -1.3131   20.3485 H   0  0  0  0  0  0  0  0  0  0  0  0
    3.7874   -0.4031   21.4021 C   0  0  0  0  0  0  0  0  0  0  0  0
    3.4801    0.8493   22.1965 C   0  0  0  0  0  0  0  0  0  0  0  0
    4.4964    2.5106   23.7025 C   0  0  0  0  0  0  0  0  0  0  0  0
    4.7534    1.6063   22.5203 C   0  0  0  0  0  0  0  0  0  0  0  0
    5.4971    3.8608   18.2992 C   0  0  0  0  0  0  0  0  0  0  0  0
    4.7389    4.7681   19.2758 C   0  0  0  0  0  0  0  0  0  0  0  0
    5.3244    4.6786   20.6548 C   0  0  0  0  0  0  0  0  0  0  0  0
    4.5859    5.6646   21.5536 C   0  0  0  0  0  0  0  0  0  0  0  0
    4.9654    7.0452   21.0743 C   0  0  0  0  0  0  0  0  0  0  0  0
    4.4091    8.0429   21.8611 O   0  0  0  0  0  0  0  0  0  0  0  0
    4.4389    7.2456   19.6562 C   0  0  0  0  0  0  0  0  0  0  0  0
    4.9408    6.1669   18.7565 C   0  0  0  0  0  0  0  0  0  0  0  0
    4.2043    8.8467   21.3303 H   0  0  0  0  0  0  0  0  0  0  0  0
 28 29  1  0  0  0
 29 27  1  0  0  0
 27 26  1  0  0  0
 26 24  1  0  0  0
 24  1  1  0  0  0
  1  2  2  0  0  0
  2  3  1  0  0  0
  3  4  2  0  0  0
  4  5  1  0  0  0
  5  6  2  0  0  0
  6  7  1  0  0  0
  7 30  1  0  0  0
 30 31  1  0  0  0
 31 32  1  0  0  0
 32 33  1  0  0  0
 33 34  1  0  0  0
 34 35  1  0  0  0
 34 36  1  0  0  0
 36 37  1  0  0  0
  7  8  1  0  0  0
  8  9  2  0  0  0
  5 10  1  0  0  0
 10 11  2  0  0  0
 11 12  1  0  0  0
 12 13  2  0  0  0
 13 14  1  0  0  0
 14 15  2  0  0  0
 13 16  1  0  0  0
 16 17  2  0  0  0
 16 18  2  0  0  0
 16 19  1  0  0  0
 19 20  1  0  0  0
 20 21  1  0  0  0
 20 22  2  0  0  0
  9  1  1  0  0  0
 15 10  1  0  0  0
  8  4  1  0  0  0
 37 31  1  0  0  0
 24 25  1  0  0  0
 35 38  1  0  0  0
 19 23  1  0  0  0
M  END
> <minimizedAffinity>
-8.92566

> <CNNscore>
0.9555781484

> <CNNaffinity>
7.7850332260

> <CNN_VS>
7.4392075539

> <CNNaffinity_variance>
0.1543817073

$$$$
[H]O[C@]1([H])C([H])([H])C([H])([H])[C@@]([H])(C([H])([H])n2nc(-c3c([H])c([H])c(S(=O)(=O)N([H])C(=O)C([H])([H])[H])c([H])c3[H])c3c([H])nc(N([H])C([H])([H])C([H])([H])C([H])([H])C([H])([H])[H])nc32)C([H])([H])C1([H])[H]


 38 41  0  0  0  0  0  0  0  0999 V2000
    3.1874    0.8763   17.4600 C   0  0  0  0  0  0  0  0  0  0  0  0
    2.4971    0.9214   16.3152 N   0  0  0  0  0  0  0  0  0  0  0  0
    2.5171    1.9744   15.4640 C   0  0  0  0  0  0  0  0  0  0  0  0
    3.2994    3.0514   15.8155 C   0  0  0  0  0  0  0  0  0  0  0  0
    3.5290    4.2439   15.2039 C   0  0  0  0  0  0  0  0  0  0  0  0
    4.3898    4.9182   16.0257 N   0  0  0  0  0  0  0  0  0  0  0  0
    4.6822    4.1934   17.0871 N   0  0  0  0  0  0  0  0  0  0  0  0
    4.0230    3.0317   16.9896 C   0  0  0  0  0  0  0  0  0  0  0  0
    3.9502    1.9479   17.7817 N   0  0  0  0  0  0  0  0  0  0  0  0
    3.0497    4.8272   13.9567 C   0  0  0  0  0  0  0  0  0  0  0  0
    2.1598    4.2266   13.1010 C   0  0  0  0  0  0  0  0  0  0  0  0
    1.7588    4.8210   11.9163 C   0  0  0  0  0  0  0  0  0  0  0  0
    2.2391    6.0571   11.5360 C   0  0  0  0  0  0  0  0  0  0  0  0
    3.1298    6.6734   12.3819 C   0  0  0  0  0  0  0  0  0  0  0  0
    3.5275    6.0855   13.5561 C   0  0  0  0  0  0  0  0  0  0  0  0
    1.7324    6.7528   10.0132 S   0  0  0  0  0  0  0  0  0  0  0  0
    2.6844    6.2821    8.9299 O   0  0  0  0  0  0  0  0  0  0  0  0
    1.8901    8.2445   10.1543 O   0  0  0  0  0  0  0  0  0  0  0  0
    0.1180    6.2727    9.7034 N   0  0  0  0  0  0  0  0  0  0  0  0
   -0.6008    6.8144    8.6260 C   0  0  0  0  0  0  0  0  0  0  0  0
   -1.9969    6.3760    8.3827 C   0  0  0  0  0  0  0  0  0  0  0  0
   -0.0352    7.6737    7.8797 O   0  0  0  0  0  0  0  0  0  0  0  0
   -0.2838    5.5597   10.3626 H   0  0  0  0  0  0  0  0  0  0  0  0
    3.1187   -0.2339   18.3186 N   0  0  0  0  0  0  0  0  0  0  0  0
    3.5984   -1.1254   17.9993 H   0  0  0  0  0  0  0  0  0  0  0  0
    2.4651   -0.2760   19.5830 C   0  0  0  0  0  0  0  0  0  0  0  0
    3.4282   -0.2845   20.7519 C   0  0  0  0  0  0  0  0  0  0  0  0
    5.1550    1.4183   21.1754 C   0  0  0  0  0  0  0  0  0  0  0  0
    3.6756    1.1245   21.2547 C   0  0  0  0  0  0  0  0  0  0  0  0
    5.6079    4.6500   18.1268 C   0  0  0  0  0  0  0  0  0  0  0  0
    4.8489    5.4456   19.1957 C   0  0  0  0  0  0  0  0  0  0  0  0
    5.4220    5.1927   20.5595 C   0  0  0  0  0  0  0  0  0  0  0  0
    4.6840    6.0754   21.5604 C   0  0  0  0  0  0  0  0  0  0  0  0
    5.0788    7.4985   21.2460 C   0  0  0  0  0  0  0  0  0  0  0  0
    4.5240    8.4040   22.1384 O   0  0  0  0  0  0  0  0  0  0  0  0
    4.5659    7.8655   19.8566 C   0  0  0  0  0  0  0  0  0  0  0  0
    5.0666    6.8930   18.8425 C   0  0  0  0  0  0  0  0  0  0  0  0
    4.3303    9.2653   21.7021 H   0  0  0  0  0  0  0  0  0  0  0  0
 28 29  1  0  0  0
 29 27  1  0  0  0
 27 26  1  0  0  0
 26 24  1  0  0  0
 24  1  1  0  0  0
  1  2  2  0  0  0
  2  3  1  0  0  0
  3  4  2  0  0  0
  4  5  1  0  0  0
  5  6  2  0  0  0
  6  7  1  0  0  0
  7 30  1  0  0  0
 30 31  1  0  0  0
 31 32  1  0  0  0
 32 33  1  0  0  0
 33 34  1  0  0  0
 34 35  1  0  0  0
 34 36  1  0  0  0
 36 37  1  0  0  0
  7  8  1  0  0  0
  8  9  2  0  0  0
  5 10  1  0  0  0
 10 11  2  0  0  0
 11 12  1  0  0  0
 12 13  2  0  0  0
 13 14  1  0  0  0
 14 15  2  0  0  0
 13 16  1  0  0  0
 16 17  2  0  0  0
 16 18  2  0  0  0
 16 19  1  0  0  0
 19 20  1  0  0  0
 20 21  1  0  0  0
 20 22  2  0  0  0
  9  1  1  0  0  0
 15 10  1  0  0  0
  8  4  1  0  0  0
 37 31  1  0  0  0
 24 25  1  0  0  0
 35 38  1  0  0  0
 19 23  1  0  0  0
M  END
> <minimizedAffinity>
-7.78906

> <CNNscore>
0.4030881524

> <CNNaffinity>
6.8383703232

> <CNN_VS>
2.7564661503

> <CNNaffinity_variance>
0.2961473465

$$$$
[H]O[C@]1([H])C([H])([H])C([H])([H])[C@@]([H])(C([H])([H])n2nc(-c3c([H])c([H])c(S(=O)(=O)N([H])C(=O)C([H])([H])[H])c([H])c3[H])c3c([H])nc(N([H])C([H])([H])C([H])([H])C([H])([H])C([H])([H])[H])nc32)C([H])([H])C1([H])[H]


 38 41  0  0  0  0  0  0  0  0999 V2000
    3.7974    5.9213   19.2832 C   0  0  0  0  0  0  0  0  0  0  0  0
    3.5276    6.3776   18.0551 N   0  0  0  0  0  0  0  0  0  0  0  0
    3.4229    5.5844   16.9625 C   0  0  0  0  0  0  0  0  0  0  0  0
    3.6085    4.2328   17.1474 C   0  0  0  0  0  0  0  0  0  0  0  0
    3.5824    3.1864   16.2796 C   0  0  0  0  0  0  0  0  0  0  0  0
    3.8456    2.0766   17.0346 N   0  0  0  0  0  0  0  0  0  0  0  0
    4.0253    2.4065   18.2981 N   0  0  0  0  0  0  0  0  0  0  0  0
    3.8867    3.7343   18.4031 C   0  0  0  0  0  0  0  0  0  0  0  0
    3.9743    4.5877   19.4382 N   0  0  0  0  0  0  0  0  0  0  0  0
    3.3430    3.0942   14.8444 C   0  0  0  0  0  0  0  0  0  0  0  0
    2.6242    2.0979   14.2316 C   0  0  0  0  0  0  0  0  0  0  0  0
    2.4503    2.0504   12.8587 C   0  0  0  0  0  0  0  0  0  0  0  0
    2.9964    3.0115   12.0333 C   0  0  0  0  0  0  0  0  0  0  0  0
    3.7178    4.0174   12.6303 C   0  0  0  0  0  0  0  0  0  0  0  0
    3.8904    4.0655   13.9906 C   0  0  0  0  0  0  0  0  0  0  0  0
    2.7813    2.8907   10.3016 S   0  0  0  0  0  0  0  0  0  0  0  0
    2.3738    4.2527    9.7722 O   0  0  0  0  0  0  0  0  0  0  0  0
    1.6305    1.9435   10.0815 O   0  0  0  0  0  0  0  0  0  0  0  0
    4.2470    2.3426    9.6058 N   0  0  0  0  0  0  0  0  0  0  0  0
    4.3422    2.0957    8.2271 C   0  0  0  0  0  0  0  0  0  0  0  0
    5.6267    1.6240    7.6546 C   0  0  0  0  0  0  0  0  0  0  0  0
    3.3189    2.2828    7.4970 O   0  0  0  0  0  0  0  0  0  0  0  0
    5.0496    2.2093   10.2709 H   0  0  0  0  0  0  0  0  0  0  0  0
    3.9135    6.7888   20.3825 N   0  0  0  0  0  0  0  0  0  0  0  0
    3.2405    7.6085   20.4277 H   0  0  0  0  0  0  0  0  0  0  0  0
    4.8515    6.6709   21.4473 C   0  0  0  0  0  0  0  0  0  0  0  0
    6.2752    6.4764   20.9688 C   0  0  0  0  0  0  0  0  0  0  0  0
    7.4334    7.1665   18.9088 C   0  0  0  0  0  0  0  0  0  0  0  0
    6.7348    7.6676   20.1507 C   0  0  0  0  0  0  0  0  0  0  0  0
    4.2926    1.4163   19.3442 C   0  0  0  0  0  0  0  0  0  0  0  0
    4.4003    2.1075   20.7089 C   0  0  0  0  0  0  0  0  0  0  0  0
    3.6429    1.3453   21.7567 C   0  0  0  0  0  0  0  0  0  0  0  0
    3.8609    2.0327   23.1003 C   0  0  0  0  0  0  0  0  0  0  0  0
    5.3124    1.8195   23.4578 C   0  0  0  0  0  0  0  0  0  0  0  0
    5.6259    2.3419   24.7039 O   0  0  0  0  0  0  0  0  0  0  0  0
    6.1904    2.5365   22.4363 C   0  0  0  0  0  0  0  0  0  0  0  0
    5.8653    2.0764   21.0552 C   0  0  0  0  0  0  0  0  0  0  0  0
    6.5536    2.6711   24.7322 H   0  0  0  0  0  0  0  0  0  0  0  0
 28 29  1  0  0  0
 29 27  1  0  0  0
 27 26  1  0  0  0
 26 24  1  0  0  0
 24  1  1  0  0  0
  1  2  2  0  0  0
  2  3  1  0  0  0
  3  4  2  0  0  0
  4  5  1  0  0  0
  5  6  2  0  0  0
  6  7  1  0  0  0
  7 30  1  0  0  0
 30 31  1  0  0  0
 31 32  1  0  0  0
 32 33  1  0  0  0
 33 34  1  0  0  0
 34 35  1  0  0  0
 34 36  1  0  0  0
 36 37  1  0  0  0
  7  8  1  0  0  0
  8  9  2  0  0  0
  5 10  1  0  0  0
 10 11  2  0  0  0
 11 12  1  0  0  0
 12 13  2  0  0  0
 13 14  1  0  0  0
 14 15  2  0  0  0
 13 16  1  0  0  0
 16 17  2  0  0  0
 16 18  2  0  0  0
 16 19  1  0  0  0
 19 20  1  0  0  0
 20 21  1  0  0  0
 20 22  2  0  0  0
  9  1  1  0  0  0
 15 10  1  0  0  0
  8  4  1  0  0  0
 37 31  1  0  0  0
 24 25  1  0  0  0
 35 38  1  0  0  0
 19 23  1  0  0  0
M  END
> <minimizedAffinity>
-8.38981

> <CNNscore>
0.2566806972

> <CNNaffinity>
6.8124756813

> <CNN_VS>
1.7486310005

> <CNNaffinity_variance>
0.2092240751

$$$$
[H]O[C@]1([H])C([H])([H])C([H])([H])[C@@]([H])(C([H])([H])n2nc(-c3c([H])c([H])c(S(=O)(=O)N([H])C(=O)C([H])([H])[H])c([H])c3[H])c3c([H])nc(N([H])C([H])([H])C([H])([H])C([H])([H])C([H])([H])[H])nc32)C([H])([H])C1([H])[H]


 38 41  0  0  0  0  0  0  0  0999 V2000
    3.0928    2.9411   16.6133 C   0  0  0  0  0  0  0  0  0  0  0  0
    3.1937    1.7650   15.9841 N   0  0  0  0  0  0  0  0  0  0  0  0
    2.8992    1.5829   14.6750 C   0  0  0  0  0  0  0  0  0  0  0  0
    2.4726    2.6846   13.9680 C   0  0  0  0  0  0  0  0  0  0  0  0
    2.0955    2.8399   12.6709 C   0  0  0  0  0  0  0  0  0  0  0  0
    1.7641    4.1606   12.5405 N   0  0  0  0  0  0  0  0  0  0  0  0
    1.9238    4.7946   13.6851 N   0  0  0  0  0  0  0  0  0  0  0  0
    2.3604    3.9101   14.5910 C   0  0  0  0  0  0  0  0  0  0  0  0
    2.6722    4.0091   15.8949 N   0  0  0  0  0  0  0  0  0  0  0  0
    2.0079    1.9163   11.5463 C   0  0  0  0  0  0  0  0  0  0  0  0
    0.8465    1.3429   11.0909 C   0  0  0  0  0  0  0  0  0  0  0  0
    0.8292    0.4524   10.0306 C   0  0  0  0  0  0  0  0  0  0  0  0
    1.9894    0.0955    9.3751 C   0  0  0  0  0  0  0  0  0  0  0  0
    3.1612    0.6615    9.8170 C   0  0  0  0  0  0  0  0  0  0  0  0
    3.1794    1.5443   10.8673 C   0  0  0  0  0  0  0  0  0  0  0  0
    1.9238   -1.0610    8.0645 S   0  0  0  0  0  0  0  0  0  0  0  0
    3.2816   -1.0985    7.3889 O   0  0  0  0  0  0  0  0  0  0  0  0
    0.9259   -0.5227    7.0724 O   0  0  0  0  0  0  0  0  0  0  0  0
    1.4815   -2.5869    8.7040 N   0  0  0  0  0  0  0  0  0  0  0  0
    2.3974   -3.3508    9.4446 C   0  0  0  0  0  0  0  0  0  0  0  0
    1.9827   -4.6676    9.9873 C   0  0  0  0  0  0  0  0  0  0  0  0
    3.5681   -2.8938    9.6336 O   0  0  0  0  0  0  0  0  0  0  0  0
    0.4981   -2.9002    8.5065 H   0  0  0  0  0  0  0  0  0  0  0  0
    3.3936    3.0740   17.9794 N   0  0  0  0  0  0  0  0  0  0  0  0
    2.6260    3.4447   18.6121 H   0  0  0  0  0  0  0  0  0  0  0  0
    4.6357    2.7556   18.5986 C   0  0  0  0  0  0  0  0  0  0  0  0
    4.4818    1.8965   19.8364 C   0  0  0  0  0  0  0  0  0  0  0  0
    6.2669    0.8957   21.2049 C   0  0  0  0  0  0  0  0  0  0  0  0
    5.5837    2.1912   20.8356 C   0  0  0  0  0  0  0  0  0  0  0  0
    1.6741    6.2302   13.8362 C   0  0  0  0  0  0  0  0  0  0  0  0
    2.9980    6.9769   14.0397 C   0  0  0  0  0  0  0  0  0  0  0  0
    3.7830    7.0337   12.7618 C   0  0  0  0  0  0  0  0  0  0  0  0
    5.0406    7.8602   13.0086 C   0  0  0  0  0  0  0  0  0  0  0  0
    4.5804    9.2813   13.2292 C   0  0  0  0  0  0  0  0  0  0  0  0
    5.6445   10.1550   13.3974 O   0  0  0  0  0  0  0  0  0  0  0  0
    3.7419    9.3444   14.5025 C   0  0  0  0  0  0  0  0  0  0  0  0
    2.6079    8.3783   14.4283 C   0  0  0  0  0  0  0  0  0  0  0  0
    5.4123   10.8899   14.0104 H   0  0  0  0  0  0  0  0  0  0  0  0
 28 29  1  0  0  0
 29 27  1  0  0  0
 27 26  1  0  0  0
 26 24  1  0  0  0
 24  1  1  0  0  0
  1  2  2  0  0  0
  2  3  1  0  0  0
  3  4  2  0  0  0
  4  5  1  0  0  0
  5  6  2  0  0  0
  6  7  1  0  0  0
  7 30  1  0  0  0
 30 31  1  0  0  0
 31 32  1  0  0  0
 32 33  1  0  0  0
 33 34  1  0  0  0
 34 35  1  0  0  0
 34 36  1  0  0  0
 36 37  1  0  0  0
  7  8  1  0  0  0
  8  9  2  0  0  0
  5 10  1  0  0  0
 10 11  2  0  0  0
 11 12  1  0  0  0
 12 13  2  0  0  0
 13 14  1  0  0  0
 14 15  2  0  0  0
 13 16  1  0  0  0
 16 17  2  0  0  0
 16 18  2  0  0  0
 16 19  1  0  0  0
 19 20  1  0  0  0
 20 21  1  0  0  0
 20 22  2  0  0  0
  9  1  1  0  0  0
 15 10  1  0  0  0
  8  4  1  0  0  0
 37 31  1  0  0  0
 24 25  1  0  0  0
 35 38  1  0  0  0
 19 23  1  0  0  0
M  END
> <minimizedAffinity>
-6.53074

> <CNNscore>
0.2323975712

> <CNNaffinity>
6.6067361832

> <CNN_VS>
1.5353894234

> <CNNaffinity_variance>
0.5538039207

$$$$
[H]O[C@]1([H])C([H])([H])C([H])([H])[C@@]([H])(C([H])([H])n2nc(-c3c([H])c([H])c(S(=O)(=O)N([H])C(=O)C([H])([H])[H])c([H])c3[H])c3c([H])nc(N([H])C([H])([H])C([H])([H])C([H])([H])C([H])([H])[H])nc32)C([H])([H])C1([H])[H]


 38 41  0  0  0  0  0  0  0  0999 V2000
    4.1239    1.6724   19.9477 C   0  0  0  0  0  0  0  0  0  0  0  0
    3.8222    0.9764   18.8459 N   0  0  0  0  0  0  0  0  0  0  0  0
    3.7018    1.5284   17.6153 C   0  0  0  0  0  0  0  0  0  0  0  0
    3.9054    2.8862   17.5131 C   0  0  0  0  0  0  0  0  0  0  0  0
    3.8519    3.7342   16.4516 C   0  0  0  0  0  0  0  0  0  0  0  0
    4.1365    4.9731   16.9568 N   0  0  0  0  0  0  0  0  0  0  0  0
    4.3553    4.9062   18.2550 N   0  0  0  0  0  0  0  0  0  0  0  0
    4.2190    3.6286   18.6325 C   0  0  0  0  0  0  0  0  0  0  0  0
    4.3206    3.0061   19.8198 N   0  0  0  0  0  0  0  0  0  0  0  0
    3.5717    3.5334   15.0351 C   0  0  0  0  0  0  0  0  0  0  0  0
    3.7862    4.4683   14.0529 C   0  0  0  0  0  0  0  0  0  0  0  0
    3.4776    4.2278   12.7246 C   0  0  0  0  0  0  0  0  0  0  0  0
    2.9347    3.0254   12.3211 C   0  0  0  0  0  0  0  0  0  0  0  0
    2.7149    2.0773   13.2914 C   0  0  0  0  0  0  0  0  0  0  0  0
    3.0206    2.3145   14.6077 C   0  0  0  0  0  0  0  0  0  0  0  0
    2.5270    2.7798   10.6379 S   0  0  0  0  0  0  0  0  0  0  0  0
    2.2809    4.1344   10.0009 O   0  0  0  0  0  0  0  0  0  0  0  0
    1.2282    2.0163   10.6224 O   0  0  0  0  0  0  0  0  0  0  0  0
    3.8122    1.9376    9.8817 N   0  0  0  0  0  0  0  0  0  0  0  0
    4.9683    2.6140    9.4612 C   0  0  0  0  0  0  0  0  0  0  0  0
    6.0651    1.8554    8.8116 C   0  0  0  0  0  0  0  0  0  0  0  0
    5.0486    3.8685    9.6477 O   0  0  0  0  0  0  0  0  0  0  0  0
    3.6747    0.9029    9.7600 H   0  0  0  0  0  0  0  0  0  0  0  0
    4.2196    1.0548   21.2062 N   0  0  0  0  0  0  0  0  0  0  0  0
    4.8663    0.2168   21.2881 H   0  0  0  0  0  0  0  0  0  0  0  0
    3.5298    1.4492   22.3877 C   0  0  0  0  0  0  0  0  0  0  0  0
    4.4589    1.8154   23.5263 C   0  0  0  0  0  0  0  0  0  0  0  0
    3.5984    4.1135   23.3276 C   0  0  0  0  0  0  0  0  0  0  0  0
    4.8509    3.2783   23.4510 C   0  0  0  0  0  0  0  0  0  0  0  0
    4.7141    6.0775   19.0585 C   0  0  0  0  0  0  0  0  0  0  0  0
    6.2099    6.0475   19.3950 C   0  0  0  0  0  0  0  0  0  0  0  0
    6.9180    7.2265   18.7939 C   0  0  0  0  0  0  0  0  0  0  0  0
    8.3768    7.1854   19.2360 C   0  0  0  0  0  0  0  0  0  0  0  0
    8.3806    7.4629   20.7202 C   0  0  0  0  0  0  0  0  0  0  0  0
    9.6662    7.5228   21.2375 O   0  0  0  0  0  0  0  0  0  0  0  0
    7.6578    6.3302   21.4435 C   0  0  0  0  0  0  0  0  0  0  0  0
    6.2817    6.1559   20.8950 C   0  0  0  0  0  0  0  0  0  0  0  0
    9.6956    7.1946   22.1655 H   0  0  0  0  0  0  0  0  0  0  0  0
 28 29  1  0  0  0
 29 27  1  0  0  0
 27 26  1  0  0  0
 26 24  1  0  0  0
 24  1  1  0  0  0
  1  2  2  0  0  0
  2  3  1  0  0  0
  3  4  2  0  0  0
  4  5  1  0  0  0
  5  6  2  0  0  0
  6  7  1  0  0  0
  7 30  1  0  0  0
 30 31  1  0  0  0
 31 32  1  0  0  0
 32 33  1  0  0  0
 33 34  1  0  0  0
 34 35  1  0  0  0
 34 36  1  0  0  0
 36 37  1  0  0  0
  7  8  1  0  0  0
  8  9  2  0  0  0
  5 10  1  0  0  0
 10 11  2  0  0  0
 11 12  1  0  0  0
 12 13  2  0  0  0
 13 14  1  0  0  0
 14 15  2  0  0  0
 13 16  1  0  0  0
 16 17  2  0  0  0
 16 18  2  0  0  0
 16 19  1  0  0  0
 19 20  1  0  0  0
 20 21  1  0  0  0
 20 22  2  0  0  0
  9  1  1  0  0  0
 15 10  1  0  0  0
  8  4  1  0  0  0
 37 31  1  0  0  0
 24 25  1  0  0  0
 35 38  1  0  0  0
 19 23  1  0  0  0
M  END
> <minimizedAffinity>
-7.91521

> <CNNscore>
0.2215719521

> <CNNaffinity>
6.8730101585

> <CNN_VS>
1.5228662491

> <CNNaffinity_variance>
0.3338634968

$$$$
[H]O[C@]1([H])C([H])([H])C([H])([H])[C@@]([H])(C([H])([H])n2nc(-c3c([H])c([H])c(S(=O)(=O)N([H])C(=O)C([H])([H])[H])c([H])c3[H])c3c([H])nc(N([H])C([H])([H])C([H])([H])C([H])([H])C([H])([H])[H])nc32)C([H])([H])C1([H])[H]


 38 41  0  0  0  0  0  0  0  0999 V2000
    1.1073    2.2673   11.4142 C   0  0  0  0  0  0  0  0  0  0  0  0
    0.8555    1.5976   12.5445 N   0  0  0  0  0  0  0  0  0  0  0  0
    1.5760    1.7414   13.6820 C   0  0  0  0  0  0  0  0  0  0  0  0
    2.6244    2.6333   13.6531 C   0  0  0  0  0  0  0  0  0  0  0  0
    3.5313    2.9983   14.5981 C   0  0  0  0  0  0  0  0  0  0  0  0
    4.3416    3.9192   13.9930 N   0  0  0  0  0  0  0  0  0  0  0  0
    3.9660    4.1198   12.7455 N   0  0  0  0  0  0  0  0  0  0  0  0
    2.9060    3.3385   12.5016 C   0  0  0  0  0  0  0  0  0  0  0  0
    2.1432    3.1395   11.4126 N   0  0  0  0  0  0  0  0  0  0  0  0
    3.7333    2.5983   15.9854 C   0  0  0  0  0  0  0  0  0  0  0  0
    3.3482    1.3931   16.5183 C   0  0  0  0  0  0  0  0  0  0  0  0
    3.5461    1.0785   17.8522 C   0  0  0  0  0  0  0  0  0  0  0  0
    4.1456    1.9701   18.7177 C   0  0  0  0  0  0  0  0  0  0  0  0
    4.5389    3.1811   18.2004 C   0  0  0  0  0  0  0  0  0  0  0  0
    4.3436    3.4935   16.8788 C   0  0  0  0  0  0  0  0  0  0  0  0
    4.3418    1.5437   20.4027 S   0  0  0  0  0  0  0  0  0  0  0  0
    5.7439    0.9990   20.6000 O   0  0  0  0  0  0  0  0  0  0  0  0
    3.3672    0.4274   20.6747 O   0  0  0  0  0  0  0  0  0  0  0  0
    4.0531    2.9368   21.3560 N   0  0  0  0  0  0  0  0  0  0  0  0
    4.0282    2.8584   22.7575 C   0  0  0  0  0  0  0  0  0  0  0  0
    3.7780    4.0838   23.5552 C   0  0  0  0  0  0  0  0  0  0  0  0
    4.2213    1.7321   23.3137 O   0  0  0  0  0  0  0  0  0  0  0  0
    3.9009    3.8319   20.8271 H   0  0  0  0  0  0  0  0  0  0  0  0
    0.3402    2.0688   10.2538 N   0  0  0  0  0  0  0  0  0  0  0  0
    0.4633    1.1469    9.7419 H   0  0  0  0  0  0  0  0  0  0  0  0
   -0.5921    2.9904    9.6979 C   0  0  0  0  0  0  0  0  0  0  0  0
   -0.1400    3.5700    8.3737 C   0  0  0  0  0  0  0  0  0  0  0  0
   -1.9392    4.1472    6.7955 C   0  0  0  0  0  0  0  0  0  0  0  0
   -0.9999    3.0503    7.2379 C   0  0  0  0  0  0  0  0  0  0  0  0
    4.6337    5.0793   11.8624 C   0  0  0  0  0  0  0  0  0  0  0  0
    3.5951    5.8385   11.0278 C   0  0  0  0  0  0  0  0  0  0  0  0
    3.0113    6.9799   11.8082 C   0  0  0  0  0  0  0  0  0  0  0  0
    2.0555    7.7433   10.8977 C   0  0  0  0  0  0  0  0  0  0  0  0
    2.9094    8.4076    9.8443 C   0  0  0  0  0  0  0  0  0  0  0  0
    2.1596    9.1981    8.9859 O   0  0  0  0  0  0  0  0  0  0  0  0
    3.5818    7.3338    8.9939 C   0  0  0  0  0  0  0  0  0  0  0  0
    4.3584    6.3966    9.8561 C   0  0  0  0  0  0  0  0  0  0  0  0
    2.5413    9.2046    8.0782 H   0  0  0  0  0  0  0  0  0  0  0  0
 28 29  1  0  0  0
 29 27  1  0  0  0
 27 26  1  0  0  0
 26 24  1  0  0  0
 24  1  1  0  0  0
  1  2  2  0  0  0
  2  3  1  0  0  0
  3  4  2  0  0  0
  4  5  1  0  0  0
  5  6  2  0  0  0
  6  7  1  0  0  0
  7 30  1  0  0  0
 30 31  1  0  0  0
 31 32  1  0  0  0
 32 33  1  0  0  0
 33 34  1  0  0  0
 34 35  1  0  0  0
 34 36  1  0  0  0
 36 37  1  0  0  0
  7  8  1  0  0  0
  8  9  2  0  0  0
  5 10  1  0  0  0
 10 11  2  0  0  0
 11 12  1  0  0  0
 12 13  2  0  0  0
 13 14  1  0  0  0
 14 15  2  0  0  0
 13 16  1  0  0  0
 16 17  2  0  0  0
 16 18  2  0  0  0
 16 19  1  0  0  0
 19 20  1  0  0  0
 20 21  1  0  0  0
 20 22  2  0  0  0
  9  1  1  0  0  0
 15 10  1  0  0  0
  8  4  1  0  0  0
 37 31  1  0  0  0
 24 25  1  0  0  0
 35 38  1  0  0  0
 19 23  1  0  0  0
M  END
> <minimizedAffinity>
-6.84011

> <CNNscore>
0.1882413328

> <CNNaffinity>
6.4206366539

> <CNN_VS>
1.2086292505

> <CNNaffinity_variance>
0.2697188258

$$$$
[H]O[C@]1([H])C([H])([H])C([H])([H])[C@@]([H])(C([H])([H])n2nc(-c3c([H])c([H])c(S(=O)(=O)N([H])C(=O)C([H])([H])[H])c([H])c3[H])c3c([H])nc(N([H])C([H])([H])C([H])([H])C([H])([H])C([H])([H])[H])nc32)C([H])([H])C1([H])[H]


 38 41  0  0  0  0  0  0  0  0999 V2000
    3.8755    5.9188   19.4124 C   0  0  0  0  0  0  0  0  0  0  0  0
    3.6234    6.3906   18.1863 N   0  0  0  0  0  0  0  0  0  0  0  0
    3.5138    5.6090   17.0859 C   0  0  0  0  0  0  0  0  0  0  0  0
    3.6745    4.2528   17.2601 C   0  0  0  0  0  0  0  0  0  0  0  0
    3.6373    3.2147   16.3827 C   0  0  0  0  0  0  0  0  0  0  0  0
    3.8751    2.0939   17.1298 N   0  0  0  0  0  0  0  0  0  0  0  0
    4.0503    2.4094   18.3977 N   0  0  0  0  0  0  0  0  0  0  0  0
    3.9339    3.7385   18.5134 C   0  0  0  0  0  0  0  0  0  0  0  0
    4.0279    4.5811   19.5568 N   0  0  0  0  0  0  0  0  0  0  0  0
    3.4079    3.1393   14.9450 C   0  0  0  0  0  0  0  0  0  0  0  0
    3.8605    4.0567   14.0294 C   0  0  0  0  0  0  0  0  0  0  0  0
    3.5903    3.9441   12.6759 C   0  0  0  0  0  0  0  0  0  0  0  0
    2.8460    2.8944   12.1784 C   0  0  0  0  0  0  0  0  0  0  0  0
    2.3863    1.9658   13.0812 C   0  0  0  0  0  0  0  0  0  0  0  0
    2.6538    2.0762   14.4223 C   0  0  0  0  0  0  0  0  0  0  0  0
    2.4989    2.8129   10.4660 S   0  0  0  0  0  0  0  0  0  0  0  0
    1.5394    1.6630   10.2248 O   0  0  0  0  0  0  0  0  0  0  0  0
    3.8010    2.4824    9.7838 O   0  0  0  0  0  0  0  0  0  0  0  0
    1.8410    4.3142    9.9698 N   0  0  0  0  0  0  0  0  0  0  0  0
    0.6069    4.7603   10.4687 C   0  0  0  0  0  0  0  0  0  0  0  0
    0.0651    6.0667   10.0213 C   0  0  0  0  0  0  0  0  0  0  0  0
   -0.0217    4.0296   11.2970 O   0  0  0  0  0  0  0  0  0  0  0  0
    2.4159    4.8630    9.2824 H   0  0  0  0  0  0  0  0  0  0  0  0
    3.9977    6.7744   20.5203 N   0  0  0  0  0  0  0  0  0  0  0  0
    3.1896    6.7967   21.2083 H   0  0  0  0  0  0  0  0  0  0  0  0
    5.1086    7.6168   20.8097 C   0  0  0  0  0  0  0  0  0  0  0  0
    4.7290    9.0761   20.9523 C   0  0  0  0  0  0  0  0  0  0  0  0
    3.4804    9.8761   18.9872 C   0  0  0  0  0  0  0  0  0  0  0  0
    4.8483    9.7949   19.6225 C   0  0  0  0  0  0  0  0  0  0  0  0
    4.2920    1.4056   19.4369 C   0  0  0  0  0  0  0  0  0  0  0  0
    4.4659    2.0885   20.7990 C   0  0  0  0  0  0  0  0  0  0  0  0
    3.6656    1.3859   21.8566 C   0  0  0  0  0  0  0  0  0  0  0  0
    3.9490    2.0568   23.1963 C   0  0  0  0  0  0  0  0  0  0  0  0
    5.3846    1.7368   23.5382 C   0  0  0  0  0  0  0  0  0  0  0  0
    5.7498    2.2360   24.7797 O   0  0  0  0  0  0  0  0  0  0  0  0
    6.3020    2.3854   22.5058 C   0  0  0  0  0  0  0  0  0  0  0  0
    5.9283    1.9491   21.1292 C   0  0  0  0  0  0  0  0  0  0  0  0
    6.6997    2.4954   24.7972 H   0  0  0  0  0  0  0  0  0  0  0  0
 28 29  1  0  0  0
 29 27  1  0  0  0
 27 26  1  0  0  0
 26 24  1  0  0  0
 24  1  1  0  0  0
  1  2  2  0  0  0
  2  3  1  0  0  0
  3  4  2  0  0  0
  4  5  1  0  0  0
  5  6  2  0  0  0
  6  7  1  0  0  0
  7 30  1  0  0  0
 30 31  1  0  0  0
 31 32  1  0  0  0
 32 33  1  0  0  0
 33 34  1  0  0  0
 34 35  1  0  0  0
 34 36  1  0  0  0
 36 37  1  0  0  0
  7  8  1  0  0  0
  8  9  2  0  0  0
  5 10  1  0  0  0
 10 11  2  0  0  0
 11 12  1  0  0  0
 12 13  2  0  0  0
 13 14  1  0  0  0
 14 15  2  0  0  0
 13 16  1  0  0  0
 16 17  2  0  0  0
 16 18  2  0  0  0
 16 19  1  0  0  0
 19 20  1  0  0  0
 20 21  1  0  0  0
 20 22  2  0  0  0
  9  1  1  0  0  0
 15 10  1  0  0  0
  8  4  1  0  0  0
 37 31  1  0  0  0
 24 25  1  0  0  0
 35 38  1  0  0  0
 19 23  1  0  0  0
M  END
> <minimizedAffinity>
-8.93932

> <CNNscore>
0.1827868223

> <CNNaffinity>
6.8075881004

> <CNN_VS>
1.2443374395

> <CNNaffinity_variance>
0.3374239802

$$$$
[H]O[C@]1([H])C([H])([H])C([H])([H])[C@@]([H])(C([H])([H])n2nc(-c3c([H])c([H])c(S(=O)(=O)N([H])C(=O)C([H])([H])[H])c([H])c3[H])c3c([H])nc(N([H])C([H])([H])C([H])([H])C([H])([H])C([H])([H])[H])nc32)C([H])([H])C1([H])[H]


 38 41  0  0  0  0  0  0  0  0999 V2000
    4.7834    1.8067   19.9289 C   0  0  0  0  0  0  0  0  0  0  0  0
    4.1065    1.0847   19.0290 N   0  0  0  0  0  0  0  0  0  0  0  0
    3.8525    1.5012   17.7657 C   0  0  0  0  0  0  0  0  0  0  0  0
    4.3267    2.7428   17.4063 C   0  0  0  0  0  0  0  0  0  0  0  0
    4.2384    3.4467   16.2464 C   0  0  0  0  0  0  0  0  0  0  0  0
    4.8926    4.6247   16.4812 N   0  0  0  0  0  0  0  0  0  0  0  0
    5.3625    4.6576   17.7123 N   0  0  0  0  0  0  0  0  0  0  0  0
    5.0290    3.5084   18.3136 C   0  0  0  0  0  0  0  0  0  0  0  0
    5.2401    3.0238   19.5497 N   0  0  0  0  0  0  0  0  0  0  0  0
    3.6251    3.1582   14.9556 C   0  0  0  0  0  0  0  0  0  0  0  0
    2.7882    2.0993   14.7041 C   0  0  0  0  0  0  0  0  0  0  0  0
    2.2538    1.8626   13.4487 C   0  0  0  0  0  0  0  0  0  0  0  0
    2.5397    2.6877   12.3807 C   0  0  0  0  0  0  0  0  0  0  0  0
    3.3748    3.7538   12.6152 C   0  0  0  0  0  0  0  0  0  0  0  0
    3.9045    3.9893   13.8588 C   0  0  0  0  0  0  0  0  0  0  0  0
    1.8710    2.3288   10.8047 S   0  0  0  0  0  0  0  0  0  0  0  0
    0.7930    1.2743   10.9694 O   0  0  0  0  0  0  0  0  0  0  0  0
    2.9901    1.7266    9.9955 O   0  0  0  0  0  0  0  0  0  0  0  0
    1.2558    3.7774   10.1295 N   0  0  0  0  0  0  0  0  0  0  0  0
    0.2333    4.4942   10.7711 C   0  0  0  0  0  0  0  0  0  0  0  0
   -0.2763    5.7469   10.1619 C   0  0  0  0  0  0  0  0  0  0  0  0
   -0.2351    4.0500   11.8659 O   0  0  0  0  0  0  0  0  0  0  0  0
    1.6903    4.0824    9.2226 H   0  0  0  0  0  0  0  0  0  0  0  0
    5.0053    1.3366   21.2343 N   0  0  0  0  0  0  0  0  0  0  0  0
    4.2776    0.6818   21.6451 H   0  0  0  0  0  0  0  0  0  0  0  0
    6.1197    1.6552   22.0615 C   0  0  0  0  0  0  0  0  0  0  0  0
    5.8723    2.8481   22.9614 C   0  0  0  0  0  0  0  0  0  0  0  0
    3.8019    4.0499   23.5358 C   0  0  0  0  0  0  0  0  0  0  0  0
    4.5276    2.7305   23.6523 C   0  0  0  0  0  0  0  0  0  0  0  0
    6.1359    5.7870   18.2343 C   0  0  0  0  0  0  0  0  0  0  0  0
    5.4607    6.3528   19.4896 C   0  0  0  0  0  0  0  0  0  0  0  0
    6.3638    6.2358   20.6826 C   0  0  0  0  0  0  0  0  0  0  0  0
    5.6722    6.8919   21.8729 C   0  0  0  0  0  0  0  0  0  0  0  0
    5.6300    8.3723   21.5786 C   0  0  0  0  0  0  0  0  0  0  0  0
    5.0821    9.0979   22.6261 O   0  0  0  0  0  0  0  0  0  0  0  0
    4.7504    8.6151   20.3556 C   0  0  0  0  0  0  0  0  0  0  0  0
    5.2366    7.8125   19.1962 C   0  0  0  0  0  0  0  0  0  0  0  0
    4.5936    9.8879   22.2989 H   0  0  0  0  0  0  0  0  0  0  0  0
 28 29  1  0  0  0
 29 27  1  0  0  0
 27 26  1  0  0  0
 26 24  1  0  0  0
 24  1  1  0  0  0
  1  2  2  0  0  0
  2  3  1  0  0  0
  3  4  2  0  0  0
  4  5  1  0  0  0
  5  6  2  0  0  0
  6  7  1  0  0  0
  7 30  1  0  0  0
 30 31  1  0  0  0
 31 32  1  0  0  0
 32 33  1  0  0  0
 33 34  1  0  0  0
 34 35  1  0  0  0
 34 36  1  0  0  0
 36 37  1  0  0  0
  7  8  1  0  0  0
  8  9  2  0  0  0
  5 10  1  0  0  0
 10 11  2  0  0  0
 11 12  1  0  0  0
 12 13  2  0  0  0
 13 14  1  0  0  0
 14 15  2  0  0  0
 13 16  1  0  0  0
 16 17  2  0  0  0
 16 18  2  0  0  0
 16 19  1  0  0  0
 19 20  1  0  0  0
 20 21  1  0  0  0
 20 22  2  0  0  0
  9  1  1  0  0  0
 15 10  1  0  0  0
  8  4  1  0  0  0
 37 31  1  0  0  0
 24 25  1  0  0  0
 35 38  1  0  0  0
 19 23  1  0  0  0
M  END
> <minimizedAffinity>
-8.50758

> <CNNscore>
0.1719799042

> <CNNaffinity>
6.7071962357

> <CNN_VS>
1.1535029411

> <CNNaffinity_variance>
0.3613993227

$$$$
[H]C(=O)c1c([H])c([H])c(-c2c([H])nc(N([H])[H])c(C(=O)N([H])[C@@]3([H])C([H])([H])C([H])([H])C([H])([H])[C@]3([H])OC([H])([H])c3c([H])c([H])c(C([H])([H])[H])c(C([H])([H])[H])c3[H])c2[H])c([H])c1[H]


 36 39  0  0  0  0  0  0  0  0999 V2000
    3.8148    2.5501   20.5931 N   0  0  0  0  0  0  0  0  0  0  0  0
    3.9787    1.3691   19.8570 C   0  0  0  0  0  0  0  0  0  0  0  0
    4.6637    0.4559   20.4236 O   0  0  0  0  0  0  0  0  0  0  0  0
    3.2612    3.3340   20.1739 H   0  0  0  0  0  0  0  0  0  0  0  0
    3.4528    1.1036   18.5484 C   0  0  0  0  0  0  0  0  0  0  0  0
    3.6601    2.0154   17.5058 C   0  0  0  0  0  0  0  0  0  0  0  0
    3.1662    1.7854   16.2376 C   0  0  0  0  0  0  0  0  0  0  0  0
    2.4579    0.6014   16.0692 C   0  0  0  0  0  0  0  0  0  0  0  0
    2.2705   -0.2615   17.0856 N   0  0  0  0  0  0  0  0  0  0  0  0
    2.7408   -0.0596   18.3265 C   0  0  0  0  0  0  0  0  0  0  0  0
    2.5021   -1.0215   19.3532 N   0  0  0  0  0  0  0  0  0  0  0  0
    2.9932   -1.9248   19.4331 H   0  0  0  0  0  0  0  0  0  0  0  0
    1.7855   -0.7981   20.0691 H   0  0  0  0  0  0  0  0  0  0  0  0
    3.3492    2.6950   15.1113 C   0  0  0  0  0  0  0  0  0  0  0  0
    2.9084    2.3787   13.8437 C   0  0  0  0  0  0  0  0  0  0  0  0
    3.0819    3.2466   12.7729 C   0  0  0  0  0  0  0  0  0  0  0  0
    3.7060    4.4689   12.9334 C   0  0  0  0  0  0  0  0  0  0  0  0
    4.1474    4.7871   14.2003 C   0  0  0  0  0  0  0  0  0  0  0  0
    3.9730    3.9199   15.2642 C   0  0  0  0  0  0  0  0  0  0  0  0
    3.8803    5.3699   11.7994 C   0  0  0  0  0  0  0  0  0  0  0  0
    4.2465    6.5569   11.9723 O   0  0  0  0  0  0  0  0  0  0  0  0
    5.8525    2.4459   21.9446 C   0  0  0  0  0  0  0  0  0  0  0  0
    6.1087    2.4046   23.4298 C   0  0  0  0  0  0  0  0  0  0  0  0
    4.7630    2.1495   24.1030 C   0  0  0  0  0  0  0  0  0  0  0  0
    3.8315    1.8112   22.9308 C   0  0  0  0  0  0  0  0  0  0  0  0
    4.3539    2.7961   21.9044 C   0  0  0  0  0  0  0  0  0  0  0  0
    6.5935    3.4353   21.3101 O   0  0  0  0  0  0  0  0  0  0  0  0
    7.0755    4.3723   22.2149 C   0  0  0  0  0  0  0  0  0  0  0  0
    6.4846    9.8362   20.4374 C   0  0  0  0  0  0  0  0  0  0  0  0
    6.6514    8.4153   20.9095 C   0  0  0  0  0  0  0  0  0  0  0  0
    7.7255    8.0118   21.6731 C   0  0  0  0  0  0  0  0  0  0  0  0
    7.8775    6.7168   22.1009 C   0  0  0  0  0  0  0  0  0  0  0  0
    6.9457    5.7674   21.7737 C   0  0  0  0  0  0  0  0  0  0  0  0
    5.8592    6.1558   21.0062 C   0  0  0  0  0  0  0  0  0  0  0  0
    5.7105    7.4555   20.5793 C   0  0  0  0  0  0  0  0  0  0  0  0
    4.5369    7.8788   19.7504 C   0  0  0  0  0  0  0  0  0  0  0  0
 29 30  1  0  0  0
 30 31  2  0  0  0
 31 32  1  0  0  0
 32 33  2  0  0  0
 33 28  1  0  0  0
 28 27  1  0  0  0
 27 22  1  0  0  0
 22 23  1  0  0  0
 23 24  1  0  0  0
 24 25  1  0  0  0
 25 26  1  0  0  0
 26  1  1  0  0  0
  1  2  1  0  0  0
  2  3  2  0  0  0
  2  5  1  0  0  0
  5  6  2  0  0  0
  6  7  1  0  0  0
  7  8  2  0  0  0
  8  9  1  0  0  0
  9 10  2  0  0  0
 10 11  1  0  0  0
  7 14  1  0  0  0
 14 15  2  0  0  0
 15 16  1  0  0  0
 16 17  2  0  0  0
 17 20  1  0  0  0
 20 21  2  0  0  0
 17 18  1  0  0  0
 18 19  2  0  0  0
 33 34  1  0  0  0
 34 35  2  0  0  0
 35 36  1  0  0  0
 35 30  1  0  0  0
 26 22  1  0  0  0
 10  5  1  0  0  0
 19 14  1  0  0  0
  1  4  1  0  0  0
 11 12  1  0  0  0
 11 13  1  0  0  0
M  END
> <minimizedAffinity>
-8.56863

> <CNNscore>
0.6793183088

> <CNNaffinity>
7.0865259171

> <CNN_VS>
4.8140068054

> <CNNaffinity_variance>
0.3057685196

$$$$
[H]C(=O)c1c([H])c([H])c(-c2c([H])nc(N([H])[H])c(C(=O)N([H])[C@@]3([H])C([H])([H])C([H])([H])C([H])([H])[C@]3([H])OC([H])([H])c3c([H])c([H])c(C([H])([H])[H])c(C([H])([H])[H])c3[H])c2[H])c([H])c1[H]


 36 39  0  0  0  0  0  0  0  0999 V2000
    3.7693    4.7971   13.8222 N   0  0  0  0  0  0  0  0  0  0  0  0
    2.7336    4.0123   14.3466 C   0  0  0  0  0  0  0  0  0  0  0  0
    1.5702    4.2537   13.8855 O   0  0  0  0  0  0  0  0  0  0  0  0
    4.7457    4.6411   14.1672 H   0  0  0  0  0  0  0  0  0  0  0  0
    2.8660    2.9816   15.3362 C   0  0  0  0  0  0  0  0  0  0  0  0
    3.5259    3.2427   16.5436 C   0  0  0  0  0  0  0  0  0  0  0  0
    3.6675    2.2704   17.5131 C   0  0  0  0  0  0  0  0  0  0  0  0
    3.1170    1.0303   17.2119 C   0  0  0  0  0  0  0  0  0  0  0  0
    2.4864    0.8009   16.0446 N   0  0  0  0  0  0  0  0  0  0  0  0
    2.3364    1.7298   15.0873 C   0  0  0  0  0  0  0  0  0  0  0  0
    1.6544    1.4119   13.8748 N   0  0  0  0  0  0  0  0  0  0  0  0
    0.6313    1.3162   13.7878 H   0  0  0  0  0  0  0  0  0  0  0  0
    2.2258    1.2668   13.0214 H   0  0  0  0  0  0  0  0  0  0  0  0
    4.3425    2.4806   18.7896 C   0  0  0  0  0  0  0  0  0  0  0  0
    4.6198    1.4354   19.6450 C   0  0  0  0  0  0  0  0  0  0  0  0
    5.2641    1.6370   20.8592 C   0  0  0  0  0  0  0  0  0  0  0  0
    5.6561    2.8991   21.2629 C   0  0  0  0  0  0  0  0  0  0  0  0
    5.3798    3.9457   20.4088 C   0  0  0  0  0  0  0  0  0  0  0  0
    4.7377    3.7408   19.2005 C   0  0  0  0  0  0  0  0  0  0  0  0
    6.3324    3.0949   22.5406 C   0  0  0  0  0  0  0  0  0  0  0  0
    5.9369    2.5043   23.5738 O   0  0  0  0  0  0  0  0  0  0  0  0
    4.9602    6.1265   12.1476 C   0  0  0  0  0  0  0  0  0  0  0  0
    4.6636    7.4373   11.4644 C   0  0  0  0  0  0  0  0  0  0  0  0
    3.4916    8.0688   12.2105 C   0  0  0  0  0  0  0  0  0  0  0  0
    3.3350    7.1817   13.4534 C   0  0  0  0  0  0  0  0  0  0  0  0
    3.6132    5.8284   12.8309 C   0  0  0  0  0  0  0  0  0  0  0  0
    5.2718    5.1197   11.2421 O   0  0  0  0  0  0  0  0  0  0  0  0
    4.1838    4.7983   10.4408 C   0  0  0  0  0  0  0  0  0  0  0  0
    3.6426   -0.8459    9.3396 C   0  0  0  0  0  0  0  0  0  0  0  0
    3.7720    0.6253    9.6373 C   0  0  0  0  0  0  0  0  0  0  0  0
    2.9021    1.2885   10.4757 C   0  0  0  0  0  0  0  0  0  0  0  0
    3.0197    2.6291   10.7447 C   0  0  0  0  0  0  0  0  0  0  0  0
    4.0270    3.3622   10.1748 C   0  0  0  0  0  0  0  0  0  0  0  0
    4.9107    2.7110    9.3290 C   0  0  0  0  0  0  0  0  0  0  0  0
    4.7893    1.3666    9.0620 C   0  0  0  0  0  0  0  0  0  0  0  0
    5.7433    0.6596    8.1490 C   0  0  0  0  0  0  0  0  0  0  0  0
 29 30  1  0  0  0
 30 31  2  0  0  0
 31 32  1  0  0  0
 32 33  2  0  0  0
 33 28  1  0  0  0
 28 27  1  0  0  0
 27 22  1  0  0  0
 22 23  1  0  0  0
 23 24  1  0  0  0
 24 25  1  0  0  0
 25 26  1  0  0  0
 26  1  1  0  0  0
  1  2  1  0  0  0
  2  3  2  0  0  0
  2  5  1  0  0  0
  5  6  2  0  0  0
  6  7  1  0  0  0
  7  8  2  0  0  0
  8  9  1  0  0  0
  9 10  2  0  0  0
 10 11  1  0  0  0
  7 14  1  0  0  0
 14 15  2  0  0  0
 15 16  1  0  0  0
 16 17  2  0  0  0
 17 20  1  0  0  0
 20 21  2  0  0  0
 17 18  1  0  0  0
 18 19  2  0  0  0
 33 34  1  0  0  0
 34 35  2  0  0  0
 35 36  1  0  0  0
 35 30  1  0  0  0
 26 22  1  0  0  0
 10  5  1  0  0  0
 19 14  1  0  0  0
  1  4  1  0  0  0
 11 12  1  0  0  0
 11 13  1  0  0  0
M  END
> <minimizedAffinity>
-7.47584

> <CNNscore>
0.5325891972

> <CNNaffinity>
6.5133185387

> <CNN_VS>
3.4689230919

> <CNNaffinity_variance>
0.4177668095

$$$$
[H]C(=O)c1c([H])c([H])c(-c2c([H])nc(N([H])[H])c(C(=O)N([H])[C@@]3([H])C([H])([H])C([H])([H])C([H])([H])[C@]3([H])OC([H])([H])c3c([H])c([H])c(C([H])([H])[H])c(C([H])([H])[H])c3[H])c2[H])c([H])c1[H]


 36 39  0  0  0  0  0  0  0  0999 V2000
    3.9244    4.5091   13.3598 N   0  0  0  0  0  0  0  0  0  0  0  0
    2.8414    4.0419   14.1164 C   0  0  0  0  0  0  0  0  0  0  0  0
    1.7161    4.5838   13.8629 O   0  0  0  0  0  0  0  0  0  0  0  0
    4.8729    4.0985   13.5282 H   0  0  0  0  0  0  0  0  0  0  0  0
    2.8879    3.0271   15.1300 C   0  0  0  0  0  0  0  0  0  0  0  0
    3.5425    3.2711   16.3438 C   0  0  0  0  0  0  0  0  0  0  0  0
    3.6024    2.3135   17.3362 C   0  0  0  0  0  0  0  0  0  0  0  0
    2.9761    1.1059   17.0509 C   0  0  0  0  0  0  0  0  0  0  0  0
    2.3521    0.8925   15.8771 N   0  0  0  0  0  0  0  0  0  0  0  0
    2.2809    1.8077   14.8977 C   0  0  0  0  0  0  0  0  0  0  0  0
    1.6005    1.5083   13.6795 N   0  0  0  0  0  0  0  0  0  0  0  0
    0.5749    1.4784   13.5753 H   0  0  0  0  0  0  0  0  0  0  0  0
    2.1758    1.3068   12.8403 H   0  0  0  0  0  0  0  0  0  0  0  0
    4.2675    2.5073   18.6205 C   0  0  0  0  0  0  0  0  0  0  0  0
    4.4227    1.4746   19.5208 C   0  0  0  0  0  0  0  0  0  0  0  0
    5.0576    1.6604   20.7424 C   0  0  0  0  0  0  0  0  0  0  0  0
    5.5629    2.8932   21.1085 C   0  0  0  0  0  0  0  0  0  0  0  0
    5.4088    3.9273   20.2095 C   0  0  0  0  0  0  0  0  0  0  0  0
    4.7756    3.7383   18.9939 C   0  0  0  0  0  0  0  0  0  0  0  0
    6.2279    3.0726   22.3945 C   0  0  0  0  0  0  0  0  0  0  0  0
    6.1377    2.2008   23.2915 O   0  0  0  0  0  0  0  0  0  0  0  0
    5.0901    5.4649   11.4317 C   0  0  0  0  0  0  0  0  0  0  0  0
    5.0116    6.7974   10.7308 C   0  0  0  0  0  0  0  0  0  0  0  0
    4.1857    7.7184   11.6245 C   0  0  0  0  0  0  0  0  0  0  0  0
    4.0377    6.9197   12.9270 C   0  0  0  0  0  0  0  0  0  0  0  0
    3.8553    5.5309   12.3488 C   0  0  0  0  0  0  0  0  0  0  0  0
    4.9752    4.3983   10.5487 O   0  0  0  0  0  0  0  0  0  0  0  0
    6.2140    3.8451   10.2515 C   0  0  0  0  0  0  0  0  0  0  0  0
    6.7700    1.7783    4.8867 C   0  0  0  0  0  0  0  0  0  0  0  0
    6.6099    2.3126    6.2862 C   0  0  0  0  0  0  0  0  0  0  0  0
    5.3966    2.3197    6.9399 C   0  0  0  0  0  0  0  0  0  0  0  0
    5.2515    2.8084    8.2139 C   0  0  0  0  0  0  0  0  0  0  0  0
    6.3322    3.3147    8.8868 C   0  0  0  0  0  0  0  0  0  0  0  0
    7.5600    3.3153    8.2442 C   0  0  0  0  0  0  0  0  0  0  0  0
    7.7012    2.8242    6.9666 C   0  0  0  0  0  0  0  0  0  0  0  0
    9.0269    2.8226    6.2695 C   0  0  0  0  0  0  0  0  0  0  0  0
 29 30  1  0  0  0
 30 31  2  0  0  0
 31 32  1  0  0  0
 32 33  2  0  0  0
 33 28  1  0  0  0
 28 27  1  0  0  0
 27 22  1  0  0  0
 22 23  1  0  0  0
 23 24  1  0  0  0
 24 25  1  0  0  0
 25 26  1  0  0  0
 26  1  1  0  0  0
  1  2  1  0  0  0
  2  3  2  0  0  0
  2  5  1  0  0  0
  5  6  2  0  0  0
  6  7  1  0  0  0
  7  8  2  0  0  0
  8  9  1  0  0  0
  9 10  2  0  0  0
 10 11  1  0  0  0
  7 14  1  0  0  0
 14 15  2  0  0  0
 15 16  1  0  0  0
 16 17  2  0  0  0
 17 20  1  0  0  0
 20 21  2  0  0  0
 17 18  1  0  0  0
 18 19  2  0  0  0
 33 34  1  0  0  0
 34 35  2  0  0  0
 35 36  1  0  0  0
 35 30  1  0  0  0
 26 22  1  0  0  0
 10  5  1  0  0  0
 19 14  1  0  0  0
  1  4  1  0  0  0
 11 12  1  0  0  0
 11 13  1  0  0  0
M  END
> <minimizedAffinity>
-7.24105

> <CNNscore>
0.5145207047

> <CNNaffinity>
6.1659760475

> <CNN_VS>
3.1725223064

> <CNNaffinity_variance>
0.4641172886

$$$$
[H]C(=O)c1c([H])c([H])c(-c2c([H])nc(N([H])[H])c(C(=O)N([H])[C@@]3([H])C([H])([H])C([H])([H])C([H])([H])[C@]3([H])OC([H])([H])c3c([H])c([H])c(C([H])([H])[H])c(C([H])([H])[H])c3[H])c2[H])c([H])c1[H]


 36 39  0  0  0  0  0  0  0  0999 V2000
    3.7628    5.0370   14.4902 N   0  0  0  0  0  0  0  0  0  0  0  0
    2.9343    4.4498   15.4558 C   0  0  0  0  0  0  0  0  0  0  0  0
    1.8433    5.0640   15.6944 O   0  0  0  0  0  0  0  0  0  0  0  0
    4.6725    4.5741   14.2561 H   0  0  0  0  0  0  0  0  0  0  0  0
    3.2012    3.2422   16.1835 C   0  0  0  0  0  0  0  0  0  0  0  0
    3.6471    3.3010   17.5099 C   0  0  0  0  0  0  0  0  0  0  0  0
    3.9112    2.1557   18.2336 C   0  0  0  0  0  0  0  0  0  0  0  0
    3.7064    0.9554   17.5633 C   0  0  0  0  0  0  0  0  0  0  0  0
    3.2770    0.9216   16.2877 N   0  0  0  0  0  0  0  0  0  0  0  0
    3.0139    2.0213   15.5642 C   0  0  0  0  0  0  0  0  0  0  0  0
    2.5607    1.9057   14.2160 N   0  0  0  0  0  0  0  0  0  0  0  0
    1.6049    1.6314   13.9424 H   0  0  0  0  0  0  0  0  0  0  0  0
    3.2381    2.1114   13.4579 H   0  0  0  0  0  0  0  0  0  0  0  0
    4.3763    2.1512   19.6166 C   0  0  0  0  0  0  0  0  0  0  0  0
    5.1759    3.1570   20.1169 C   0  0  0  0  0  0  0  0  0  0  0  0
    5.6164    3.1522   21.4344 C   0  0  0  0  0  0  0  0  0  0  0  0
    5.2704    2.1350   22.3032 C   0  0  0  0  0  0  0  0  0  0  0  0
    4.4707    1.1283   21.8049 C   0  0  0  0  0  0  0  0  0  0  0  0
    4.0342    1.1366   20.4920 C   0  0  0  0  0  0  0  0  0  0  0  0
    5.7402    2.1442   23.6843 C   0  0  0  0  0  0  0  0  0  0  0  0
    4.9304    2.0669   24.6388 O   0  0  0  0  0  0  0  0  0  0  0  0
    3.9554    6.1416   12.3147 C   0  0  0  0  0  0  0  0  0  0  0  0
    3.9167    7.5845   11.8794 C   0  0  0  0  0  0  0  0  0  0  0  0
    4.0033    8.4305   13.1466 C   0  0  0  0  0  0  0  0  0  0  0  0
    4.3370    7.4075   14.2413 C   0  0  0  0  0  0  0  0  0  0  0  0
    3.4760    6.2515   13.7736 C   0  0  0  0  0  0  0  0  0  0  0  0
    3.0824    5.3472   11.5817 O   0  0  0  0  0  0  0  0  0  0  0  0
    3.6301    4.0994   11.3130 C   0  0  0  0  0  0  0  0  0  0  0  0
   -0.1782    0.3180    9.1774 C   0  0  0  0  0  0  0  0  0  0  0  0
    0.8263    1.2932    9.7338 C   0  0  0  0  0  0  0  0  0  0  0  0
    2.1125    0.9222   10.0621 C   0  0  0  0  0  0  0  0  0  0  0  0
    3.0261    1.8109   10.5707 C   0  0  0  0  0  0  0  0  0  0  0  0
    2.6780    3.1206   10.7714 C   0  0  0  0  0  0  0  0  0  0  0  0
    1.3885    3.5108   10.4467 C   0  0  0  0  0  0  0  0  0  0  0  0
    0.4754    2.6165    9.9368 C   0  0  0  0  0  0  0  0  0  0  0  0
   -0.9188    3.0352    9.5841 C   0  0  0  0  0  0  0  0  0  0  0  0
 29 30  1  0  0  0
 30 31  2  0  0  0
 31 32  1  0  0  0
 32 33  2  0  0  0
 33 28  1  0  0  0
 28 27  1  0  0  0
 27 22  1  0  0  0
 22 23  1  0  0  0
 23 24  1  0  0  0
 24 25  1  0  0  0
 25 26  1  0  0  0
 26  1  1  0  0  0
  1  2  1  0  0  0
  2  3  2  0  0  0
  2  5  1  0  0  0
  5  6  2  0  0  0
  6  7  1  0  0  0
  7  8  2  0  0  0
  8  9  1  0  0  0
  9 10  2  0  0  0
 10 11  1  0  0  0
  7 14  1  0  0  0
 14 15  2  0  0  0
 15 16  1  0  0  0
 16 17  2  0  0  0
 17 20  1  0  0  0
 20 21  2  0  0  0
 17 18  1  0  0  0
 18 19  2  0  0  0
 33 34  1  0  0  0
 34 35  2  0  0  0
 35 36  1  0  0  0
 35 30  1  0  0  0
 26 22  1  0  0  0
 10  5  1  0  0  0
 19 14  1  0  0  0
  1  4  1  0  0  0
 11 12  1  0  0  0
 11 13  1  0  0  0
M  END
> <minimizedAffinity>
-7.66902

> <CNNscore>
0.4727596045

> <CNNaffinity>
6.3159508705

> <CNN_VS>
2.9859263897

> <CNNaffinity_variance>
0.2418591529

$$$$
[H]C(=O)c1c([H])c([H])c(-c2c([H])nc(N([H])[H])c(C(=O)N([H])[C@@]3([H])C([H])([H])C([H])([H])C([H])([H])[C@]3([H])OC([H])([H])c3c([H])c([H])c(C([H])([H])[H])c(C([H])([H])[H])c3[H])c2[H])c([H])c1[H]


 36 39  0  0  0  0  0  0  0  0999 V2000
    3.7031    5.9793   15.5643 N   0  0  0  0  0  0  0  0  0  0  0  0
    3.0788    5.8931   16.8159 C   0  0  0  0  0  0  0  0  0  0  0  0
    1.8982    5.4132   16.8121 O   0  0  0  0  0  0  0  0  0  0  0  0
    4.6742    6.3675   15.5097 H   0  0  0  0  0  0  0  0  0  0  0  0
    3.6417    6.2890   18.0751 C   0  0  0  0  0  0  0  0  0  0  0  0
    3.9055    5.3316   19.0627 C   0  0  0  0  0  0  0  0  0  0  0  0
    4.4469    5.6840   20.2826 C   0  0  0  0  0  0  0  0  0  0  0  0
    4.7086    7.0374   20.4605 C   0  0  0  0  0  0  0  0  0  0  0  0
    4.4473    7.9412   19.4973 N   0  0  0  0  0  0  0  0  0  0  0  0
    3.9214    7.6226   18.3041 C   0  0  0  0  0  0  0  0  0  0  0  0
    3.6728    8.6372   17.3319 N   0  0  0  0  0  0  0  0  0  0  0  0
    4.4028    9.0939   16.7644 H   0  0  0  0  0  0  0  0  0  0  0  0
    2.6908    8.9370   17.1849 H   0  0  0  0  0  0  0  0  0  0  0  0
    4.7449    4.7347   21.3499 C   0  0  0  0  0  0  0  0  0  0  0  0
    3.8666    4.5113   22.3891 C   0  0  0  0  0  0  0  0  0  0  0  0
    4.1512    3.6058   23.4035 C   0  0  0  0  0  0  0  0  0  0  0  0
    5.3315    2.8874   23.4141 C   0  0  0  0  0  0  0  0  0  0  0  0
    6.2111    3.1092   22.3757 C   0  0  0  0  0  0  0  0  0  0  0  0
    5.9241    4.0120   21.3673 C   0  0  0  0  0  0  0  0  0  0  0  0
    5.6158    1.9394   24.4859 C   0  0  0  0  0  0  0  0  0  0  0  0
    4.6877    1.3215   25.0600 O   0  0  0  0  0  0  0  0  0  0  0  0
    3.4945    4.1219   13.9843 C   0  0  0  0  0  0  0  0  0  0  0  0
    3.1267    4.0411   12.5244 C   0  0  0  0  0  0  0  0  0  0  0  0
    3.1364    5.4693   11.9869 C   0  0  0  0  0  0  0  0  0  0  0  0
    3.7574    6.2816   13.1318 C   0  0  0  0  0  0  0  0  0  0  0  0
    3.1181    5.5783   14.3121 C   0  0  0  0  0  0  0  0  0  0  0  0
    2.7487    3.2466   14.7641 O   0  0  0  0  0  0  0  0  0  0  0  0
    3.4364    2.0643   15.0052 C   0  0  0  0  0  0  0  0  0  0  0  0
    4.1160    0.7629   20.5916 C   0  0  0  0  0  0  0  0  0  0  0  0
    3.9511    1.1121   19.1354 C   0  0  0  0  0  0  0  0  0  0  0  0
    4.7160    2.0769   18.5159 C   0  0  0  0  0  0  0  0  0  0  0  0
    4.5636    2.3955   17.1899 C   0  0  0  0  0  0  0  0  0  0  0  0
    3.6263    1.7498   16.4275 C   0  0  0  0  0  0  0  0  0  0  0  0
    2.8484    0.7767   17.0345 C   0  0  0  0  0  0  0  0  0  0  0  0
    3.0044    0.4602   18.3645 C   0  0  0  0  0  0  0  0  0  0  0  0
    2.1659   -0.5917   19.0235 C   0  0  0  0  0  0  0  0  0  0  0  0
 29 30  1  0  0  0
 30 31  2  0  0  0
 31 32  1  0  0  0
 32 33  2  0  0  0
 33 28  1  0  0  0
 28 27  1  0  0  0
 27 22  1  0  0  0
 22 23  1  0  0  0
 23 24  1  0  0  0
 24 25  1  0  0  0
 25 26  1  0  0  0
 26  1  1  0  0  0
  1  2  1  0  0  0
  2  3  2  0  0  0
  2  5  1  0  0  0
  5  6  2  0  0  0
  6  7  1  0  0  0
  7  8  2  0  0  0
  8  9  1  0  0  0
  9 10  2  0  0  0
 10 11  1  0  0  0
  7 14  1  0  0  0
 14 15  2  0  0  0
 15 16  1  0  0  0
 16 17  2  0  0  0
 17 20  1  0  0  0
 20 21  2  0  0  0
 17 18  1  0  0  0
 18 19  2  0  0  0
 33 34  1  0  0  0
 34 35  2  0  0  0
 35 36  1  0  0  0
 35 30  1  0  0  0
 26 22  1  0  0  0
 10  5  1  0  0  0
 19 14  1  0  0  0
  1  4  1  0  0  0
 11 12  1  0  0  0
 11 13  1  0  0  0
M  END
> <minimizedAffinity>
-9.49973

> <CNNscore>
0.4254202247

> <CNNaffinity>
6.8295869827

> <CNN_VS>
2.9054443836

> <CNNaffinity_variance>
0.0574248321

$$$$
[H]C(=O)c1c([H])c([H])c(-c2c([H])nc(N([H])[H])c(C(=O)N([H])[C@@]3([H])C([H])([H])C([H])([H])C([H])([H])[C@]3([H])OC([H])([H])c3c([H])c([H])c(C([H])([H])[H])c(C([H])([H])[H])c3[H])c2[H])c([H])c1[H]


 36 39  0  0  0  0  0  0  0  0999 V2000
    3.6525    5.3009   14.9814 N   0  0  0  0  0  0  0  0  0  0  0  0
    2.9779    4.6366   16.0145 C   0  0  0  0  0  0  0  0  0  0  0  0
    1.8912    5.1782   16.4020 O   0  0  0  0  0  0  0  0  0  0  0  0
    4.5518    4.8995   14.6252 H   0  0  0  0  0  0  0  0  0  0  0  0
    3.3949    3.4247   16.6600 C   0  0  0  0  0  0  0  0  0  0  0  0
    3.7323    3.4288   18.0192 C   0  0  0  0  0  0  0  0  0  0  0  0
    4.1361    2.2779   18.6656 C   0  0  0  0  0  0  0  0  0  0  0  0
    4.1841    1.1296   17.8840 C   0  0  0  0  0  0  0  0  0  0  0  0
    3.8551    1.1481   16.5786 N   0  0  0  0  0  0  0  0  0  0  0  0
    3.4599    2.2541   15.9287 C   0  0  0  0  0  0  0  0  0  0  0  0
    3.1264    2.1952   14.5424 N   0  0  0  0  0  0  0  0  0  0  0  0
    2.2519    1.7966   14.1684 H   0  0  0  0  0  0  0  0  0  0  0  0
    3.8096    2.5795   13.8631 H   0  0  0  0  0  0  0  0  0  0  0  0
    4.4993    2.2176   20.0776 C   0  0  0  0  0  0  0  0  0  0  0  0
    5.5016    3.0049   20.6037 C   0  0  0  0  0  0  0  0  0  0  0  0
    5.8449    2.9474   21.9486 C   0  0  0  0  0  0  0  0  0  0  0  0
    5.1936    2.0954   22.8200 C   0  0  0  0  0  0  0  0  0  0  0  0
    4.1909    1.3074   22.2958 C   0  0  0  0  0  0  0  0  0  0  0  0
    3.8521    1.3673   20.9557 C   0  0  0  0  0  0  0  0  0  0  0  0
    5.5650    2.0469   24.2299 C   0  0  0  0  0  0  0  0  0  0  0  0
    4.8300    1.4726   25.0684 O   0  0  0  0  0  0  0  0  0  0  0  0
    3.4549    6.4508   12.8300 C   0  0  0  0  0  0  0  0  0  0  0  0
    3.3030    7.8993   12.4406 C   0  0  0  0  0  0  0  0  0  0  0  0
    3.5699    8.7244   13.6964 C   0  0  0  0  0  0  0  0  0  0  0  0
    4.1079    7.6932   14.6981 C   0  0  0  0  0  0  0  0  0  0  0  0
    3.2168    6.5182   14.3495 C   0  0  0  0  0  0  0  0  0  0  0  0
    2.4980    5.6415   12.2301 O   0  0  0  0  0  0  0  0  0  0  0  0
    1.2287    5.8894   12.7365 C   0  0  0  0  0  0  0  0  0  0  0  0
   -2.9158    5.8882    8.7133 C   0  0  0  0  0  0  0  0  0  0  0  0
   -1.8447    5.8816    9.7727 C   0  0  0  0  0  0  0  0  0  0  0  0
   -2.0853    5.4632   11.0637 C   0  0  0  0  0  0  0  0  0  0  0  0
   -1.1094    5.4594   12.0285 C   0  0  0  0  0  0  0  0  0  0  0  0
    0.1593    5.8809   11.7294 C   0  0  0  0  0  0  0  0  0  0  0  0
    0.4187    6.3051   10.4359 C   0  0  0  0  0  0  0  0  0  0  0  0
   -0.5627    6.3073    9.4714 C   0  0  0  0  0  0  0  0  0  0  0  0
   -0.2855    6.7642    8.0721 C   0  0  0  0  0  0  0  0  0  0  0  0
 29 30  1  0  0  0
 30 31  2  0  0  0
 31 32  1  0  0  0
 32 33  2  0  0  0
 33 28  1  0  0  0
 28 27  1  0  0  0
 27 22  1  0  0  0
 22 23  1  0  0  0
 23 24  1  0  0  0
 24 25  1  0  0  0
 25 26  1  0  0  0
 26  1  1  0  0  0
  1  2  1  0  0  0
  2  3  2  0  0  0
  2  5  1  0  0  0
  5  6  2  0  0  0
  6  7  1  0  0  0
  7  8  2  0  0  0
  8  9  1  0  0  0
  9 10  2  0  0  0
 10 11  1  0  0  0
  7 14  1  0  0  0
 14 15  2  0  0  0
 15 16  1  0  0  0
 16 17  2  0  0  0
 17 20  1  0  0  0
 20 21  2  0  0  0
 17 18  1  0  0  0
 18 19  2  0  0  0
 33 34  1  0  0  0
 34 35  2  0  0  0
 35 36  1  0  0  0
 35 30  1  0  0  0
 26 22  1  0  0  0
 10  5  1  0  0  0
 19 14  1  0  0  0
  1  4  1  0  0  0
 11 12  1  0  0  0
 11 13  1  0  0  0
M  END
> <minimizedAffinity>
-8.00946

> <CNNscore>
0.4029525220

> <CNNaffinity>
6.0680298805

> <CNN_VS>
2.4451279640

> <CNNaffinity_variance>
0.4436503053

$$$$
[H]C(=O)c1c([H])c([H])c(-c2c([H])nc(N([H])[H])c(C(=O)N([H])[C@@]3([H])C([H])([H])C([H])([H])C([H])([H])[C@]3([H])OC([H])([H])c3c([H])c([H])c(C([H])([H])[H])c(C([H])([H])[H])c3[H])c2[H])c([H])c1[H]


 36 39  0  0  0  0  0  0  0  0999 V2000
    2.2244    5.2651   14.0206 N   0  0  0  0  0  0  0  0  0  0  0  0
    2.6657    3.9363   13.9640 C   0  0  0  0  0  0  0  0  0  0  0  0
    2.4834    3.3409   12.8520 O   0  0  0  0  0  0  0  0  0  0  0  0
    2.3487    5.8012   14.9116 H   0  0  0  0  0  0  0  0  0  0  0  0
    3.2925    3.2032   15.0265 C   0  0  0  0  0  0  0  0  0  0  0  0
    3.5944    3.8362   16.2388 C   0  0  0  0  0  0  0  0  0  0  0  0
    4.1966    3.1555   17.2776 C   0  0  0  0  0  0  0  0  0  0  0  0
    4.4791    1.8154   17.0402 C   0  0  0  0  0  0  0  0  0  0  0  0
    4.1800    1.2265   15.8669 N   0  0  0  0  0  0  0  0  0  0  0  0
    3.5949    1.8675   14.8429 C   0  0  0  0  0  0  0  0  0  0  0  0
    3.3078    1.1750   13.6286 N   0  0  0  0  0  0  0  0  0  0  0  0
    2.5335    0.5048   13.5073 H   0  0  0  0  0  0  0  0  0  0  0  0
    3.9193    1.3574   12.8109 H   0  0  0  0  0  0  0  0  0  0  0  0
    4.5350    3.7579   18.5628 C   0  0  0  0  0  0  0  0  0  0  0  0
    5.0096    5.0491   18.6569 C   0  0  0  0  0  0  0  0  0  0  0  0
    5.3296    5.6218   19.8815 C   0  0  0  0  0  0  0  0  0  0  0  0
    5.1850    4.9188   21.0623 C   0  0  0  0  0  0  0  0  0  0  0  0
    4.7104    3.6274   20.9703 C   0  0  0  0  0  0  0  0  0  0  0  0
    4.3931    3.0606   19.7488 C   0  0  0  0  0  0  0  0  0  0  0  0
    5.5246    5.5340   22.3408 C   0  0  0  0  0  0  0  0  0  0  0  0
    5.8990    6.7295   22.3990 O   0  0  0  0  0  0  0  0  0  0  0  0
    2.6473    6.7423   12.1157 C   0  0  0  0  0  0  0  0  0  0  0  0
    1.7777    7.6866   11.3250 C   0  0  0  0  0  0  0  0  0  0  0  0
    0.4712    7.8367   12.0992 C   0  0  0  0  0  0  0  0  0  0  0  0
    0.7641    7.1466   13.4386 C   0  0  0  0  0  0  0  0  0  0  0  0
    1.5952    5.9807   12.9423 C   0  0  0  0  0  0  0  0  0  0  0  0
    3.3454    5.8612   11.2991 O   0  0  0  0  0  0  0  0  0  0  0  0
    2.4868    5.1019   10.5147 C   0  0  0  0  0  0  0  0  0  0  0  0
    4.9469    0.5795    7.8959 C   0  0  0  0  0  0  0  0  0  0  0  0
    4.3132    1.7688    8.5694 C   0  0  0  0  0  0  0  0  0  0  0  0
    4.6696    3.0654    8.2674 C   0  0  0  0  0  0  0  0  0  0  0  0
    4.0931    4.1480    8.8829 C   0  0  0  0  0  0  0  0  0  0  0  0
    3.1261    3.9666    9.8362 C   0  0  0  0  0  0  0  0  0  0  0  0
    2.7556    2.6692   10.1522 C   0  0  0  0  0  0  0  0  0  0  0  0
    3.3362    1.5864    9.5326 C   0  0  0  0  0  0  0  0  0  0  0  0
    2.9375    0.1828    9.8711 C   0  0  0  0  0  0  0  0  0  0  0  0
 29 30  1  0  0  0
 30 31  2  0  0  0
 31 32  1  0  0  0
 32 33  2  0  0  0
 33 28  1  0  0  0
 28 27  1  0  0  0
 27 22  1  0  0  0
 22 23  1  0  0  0
 23 24  1  0  0  0
 24 25  1  0  0  0
 25 26  1  0  0  0
 26  1  1  0  0  0
  1  2  1  0  0  0
  2  3  2  0  0  0
  2  5  1  0  0  0
  5  6  2  0  0  0
  6  7  1  0  0  0
  7  8  2  0  0  0
  8  9  1  0  0  0
  9 10  2  0  0  0
 10 11  1  0  0  0
  7 14  1  0  0  0
 14 15  2  0  0  0
 15 16  1  0  0  0
 16 17  2  0  0  0
 17 20  1  0  0  0
 20 21  2  0  0  0
 17 18  1  0  0  0
 18 19  2  0  0  0
 33 34  1  0  0  0
 34 35  2  0  0  0
 35 36  1  0  0  0
 35 30  1  0  0  0
 26 22  1  0  0  0
 10  5  1  0  0  0
 19 14  1  0  0  0
  1  4  1  0  0  0
 11 12  1  0  0  0
 11 13  1  0  0  0
M  END
> <minimizedAffinity>
-4.72189

> <CNNscore>
0.3942705691

> <CNNaffinity>
6.1471076012

> <CNN_VS>
2.4236235619

> <CNNaffinity_variance>
1.3651418686

$$$$
[H]C(=O)c1c([H])c([H])c(-c2c([H])nc(N([H])[H])c(C(=O)N([H])[C@@]3([H])C([H])([H])C([H])([H])C([H])([H])[C@]3([H])OC([H])([H])c3c([H])c([H])c(C([H])([H])[H])c(C([H])([H])[H])c3[H])c2[H])c([H])c1[H]


 36 39  0  0  0  0  0  0  0  0999 V2000
    3.1422    5.3932   15.1034 N   0  0  0  0  0  0  0  0  0  0  0  0
    3.6489    4.1021   14.9034 C   0  0  0  0  0  0  0  0  0  0  0  0
    4.2906    3.9230   13.8170 O   0  0  0  0  0  0  0  0  0  0  0  0
    2.6055    5.5952   15.9797 H   0  0  0  0  0  0  0  0  0  0  0  0
    3.5118    2.9877   15.7971 C   0  0  0  0  0  0  0  0  0  0  0  0
    3.9587    3.0851   17.1208 C   0  0  0  0  0  0  0  0  0  0  0  0
    3.8391    2.0294   18.0020 C   0  0  0  0  0  0  0  0  0  0  0  0
    3.2520    0.8779   17.4910 C   0  0  0  0  0  0  0  0  0  0  0  0
    2.8291    0.8058   16.2148 N   0  0  0  0  0  0  0  0  0  0  0  0
    2.9347    1.8184   15.3400 C   0  0  0  0  0  0  0  0  0  0  0  0
    2.4623    1.6672   14.0019 N   0  0  0  0  0  0  0  0  0  0  0  0
    1.4681    1.6805   13.7283 H   0  0  0  0  0  0  0  0  0  0  0  0
    3.1663    1.5348   13.2518 H   0  0  0  0  0  0  0  0  0  0  0  0
    4.2839    2.0693   19.3912 C   0  0  0  0  0  0  0  0  0  0  0  0
    3.7559    1.2274   20.3470 C   0  0  0  0  0  0  0  0  0  0  0  0
    4.1817    1.2655   21.6688 C   0  0  0  0  0  0  0  0  0  0  0  0
    5.1567    2.1525   22.0835 C   0  0  0  0  0  0  0  0  0  0  0  0
    5.6860    2.9952   21.1292 C   0  0  0  0  0  0  0  0  0  0  0  0
    5.2591    2.9544   19.8137 C   0  0  0  0  0  0  0  0  0  0  0  0
    5.5940    2.1802   23.4750 C   0  0  0  0  0  0  0  0  0  0  0  0
    4.7873    1.9476   24.4066 O   0  0  0  0  0  0  0  0  0  0  0  0
    3.1725    7.8351   14.9428 C   0  0  0  0  0  0  0  0  0  0  0  0
    2.9716    8.8001   13.8020 C   0  0  0  0  0  0  0  0  0  0  0  0
    2.4236    7.9905   12.6302 C   0  0  0  0  0  0  0  0  0  0  0  0
    2.1066    6.6237   13.2528 C   0  0  0  0  0  0  0  0  0  0  0  0
    3.2895    6.4966   14.1914 C   0  0  0  0  0  0  0  0  0  0  0  0
    4.3408    8.0920   15.6498 O   0  0  0  0  0  0  0  0  0  0  0  0
    4.1016    8.8943   16.7580 C   0  0  0  0  0  0  0  0  0  0  0  0
    4.8223    6.3160   21.8762 C   0  0  0  0  0  0  0  0  0  0  0  0
    4.6301    6.9747   20.5349 C   0  0  0  0  0  0  0  0  0  0  0  0
    4.3319    6.2580   19.3961 C   0  0  0  0  0  0  0  0  0  0  0  0
    4.1590    6.8587   18.1744 C   0  0  0  0  0  0  0  0  0  0  0  0
    4.2809    8.2175   18.0494 C   0  0  0  0  0  0  0  0  0  0  0  0
    4.5806    8.9536   19.1846 C   0  0  0  0  0  0  0  0  0  0  0  0
    4.7531    8.3473   20.4078 C   0  0  0  0  0  0  0  0  0  0  0  0
    5.0762    9.1400   21.6369 C   0  0  0  0  0  0  0  0  0  0  0  0
 29 30  1  0  0  0
 30 31  2  0  0  0
 31 32  1  0  0  0
 32 33  2  0  0  0
 33 28  1  0  0  0
 28 27  1  0  0  0
 27 22  1  0  0  0
 22 23  1  0  0  0
 23 24  1  0  0  0
 24 25  1  0  0  0
 25 26  1  0  0  0
 26  1  1  0  0  0
  1  2  1  0  0  0
  2  3  2  0  0  0
  2  5  1  0  0  0
  5  6  2  0  0  0
  6  7  1  0  0  0
  7  8  2  0  0  0
  8  9  1  0  0  0
  9 10  2  0  0  0
 10 11  1  0  0  0
  7 14  1  0  0  0
 14 15  2  0  0  0
 15 16  1  0  0  0
 16 17  2  0  0  0
 17 20  1  0  0  0
 20 21  2  0  0  0
 17 18  1  0  0  0
 18 19  2  0  0  0
 33 34  1  0  0  0
 34 35  2  0  0  0
 35 36  1  0  0  0
 35 30  1  0  0  0
 26 22  1  0  0  0
 10  5  1  0  0  0
 19 14  1  0  0  0
  1  4  1  0  0  0
 11 12  1  0  0  0
 11 13  1  0  0  0
M  END
> <minimizedAffinity>
-9.26213

> <CNNscore>
0.3872371316

> <CNNaffinity>
6.6104478836

> <CNN_VS>
2.5598108768

> <CNNaffinity_variance>
0.6326504350

$$$$
[H]C(=O)c1c([H])c([H])c(-c2c([H])nc(N([H])[H])c(C(=O)N([H])[C@@]3([H])C([H])([H])C([H])([H])C([H])([H])[C@]3([H])OC([H])([H])c3c([H])c([H])c(C([H])([H])[H])c(C([H])([H])[H])c3[H])c2[H])c([H])c1[H]


 36 39  0  0  0  0  0  0  0  0999 V2000
    3.8776    6.0541   15.6409 N   0  0  0  0  0  0  0  0  0  0  0  0
    3.0539    5.0101   16.0827 C   0  0  0  0  0  0  0  0  0  0  0  0
    1.8011    5.1989   15.9445 O   0  0  0  0  0  0  0  0  0  0  0  0
    4.9158    5.9517   15.7320 H   0  0  0  0  0  0  0  0  0  0  0  0
    3.4891    3.7724   16.6642 C   0  0  0  0  0  0  0  0  0  0  0  0
    3.8493    3.7158   18.0164 C   0  0  0  0  0  0  0  0  0  0  0  0
    4.2710    2.5391   18.6018 C   0  0  0  0  0  0  0  0  0  0  0  0
    4.3128    1.4286   17.7670 C   0  0  0  0  0  0  0  0  0  0  0  0
    3.9617    1.5053   16.4695 N   0  0  0  0  0  0  0  0  0  0  0  0
    3.5489    2.6375   15.8783 C   0  0  0  0  0  0  0  0  0  0  0  0
    3.1924    2.6406   14.4965 N   0  0  0  0  0  0  0  0  0  0  0  0
    2.3142    2.2538   14.1189 H   0  0  0  0  0  0  0  0  0  0  0  0
    3.8618    3.0606   13.8246 H   0  0  0  0  0  0  0  0  0  0  0  0
    4.6583    2.4158   20.0033 C   0  0  0  0  0  0  0  0  0  0  0  0
    5.6172    1.5146   20.4150 C   0  0  0  0  0  0  0  0  0  0  0  0
    5.9860    1.3998   21.7494 C   0  0  0  0  0  0  0  0  0  0  0  0
    5.4051    2.1874   22.7249 C   0  0  0  0  0  0  0  0  0  0  0  0
    4.4461    3.0893   22.3153 C   0  0  0  0  0  0  0  0  0  0  0  0
    4.0813    3.2005   20.9853 C   0  0  0  0  0  0  0  0  0  0  0  0
    5.8034    2.0557   24.1222 C   0  0  0  0  0  0  0  0  0  0  0  0
    4.9695    1.7280   24.9997 O   0  0  0  0  0  0  0  0  0  0  0  0
    3.8391    7.3799   13.5841 C   0  0  0  0  0  0  0  0  0  0  0  0
    3.6134    8.8432   13.2997 C   0  0  0  0  0  0  0  0  0  0  0  0
    3.6606    9.5663   14.6428 C   0  0  0  0  0  0  0  0  0  0  0  0
    4.1613    8.4893   15.6151 C   0  0  0  0  0  0  0  0  0  0  0  0
    3.4190    7.2894   15.0624 C   0  0  0  0  0  0  0  0  0  0  0  0
    3.0307    6.5616   12.8047 O   0  0  0  0  0  0  0  0  0  0  0  0
    3.6985    6.1118   11.6731 C   0  0  0  0  0  0  0  0  0  0  0  0
    2.4550    8.9794    6.8158 C   0  0  0  0  0  0  0  0  0  0  0  0
    2.7649    8.2252    8.0826 C   0  0  0  0  0  0  0  0  0  0  0  0
    1.8145    7.4860    8.7534 C   0  0  0  0  0  0  0  0  0  0  0  0
    2.0973    6.8010    9.9084 C   0  0  0  0  0  0  0  0  0  0  0  0
    3.3598    6.8335   10.4393 C   0  0  0  0  0  0  0  0  0  0  0  0
    4.3278    7.5722    9.7776 C   0  0  0  0  0  0  0  0  0  0  0  0
    4.0400    8.2576    8.6196 C   0  0  0  0  0  0  0  0  0  0  0  0
    5.0841    9.0562    7.9015 C   0  0  0  0  0  0  0  0  0  0  0  0
 29 30  1  0  0  0
 30 31  2  0  0  0
 31 32  1  0  0  0
 32 33  2  0  0  0
 33 28  1  0  0  0
 28 27  1  0  0  0
 27 22  1  0  0  0
 22 23  1  0  0  0
 23 24  1  0  0  0
 24 25  1  0  0  0
 25 26  1  0  0  0
 26  1  1  0  0  0
  1  2  1  0  0  0
  2  3  2  0  0  0
  2  5  1  0  0  0
  5  6  2  0  0  0
  6  7  1  0  0  0
  7  8  2  0  0  0
  8  9  1  0  0  0
  9 10  2  0  0  0
 10 11  1  0  0  0
  7 14  1  0  0  0
 14 15  2  0  0  0
 15 16  1  0  0  0
 16 17  2  0  0  0
 17 20  1  0  0  0
 20 21  2  0  0  0
 17 18  1  0  0  0
 18 19  2  0  0  0
 33 34  1  0  0  0
 34 35  2  0  0  0
 35 36  1  0  0  0
 35 30  1  0  0  0
 26 22  1  0  0  0
 10  5  1  0  0  0
 19 14  1  0  0  0
  1  4  1  0  0  0
 11 12  1  0  0  0
 11 13  1  0  0  0
M  END
> <minimizedAffinity>
-7.47264

> <CNNscore>
0.3037976921

> <CNNaffinity>
5.9009609222

> <CNN_VS>
1.7926982641

> <CNNaffinity_variance>
0.4875895977

$$$$
[H]c1nc(N([H])[H])c(C(=O)N([H])[C@@]2([H])C([H])([H])C([H])([H])C([H])([H])[C@]2([H])OC([H])([H])c2c([H])c([H])c([H])c([H])c2[H])c([H])c1-c1c([H])nn(C2([H])C([H])([H])C([H])([H])N([H])C([H])([H])C2([H])[H])c1[H]


 38 42  0  0  0  0  0  0  0  0999 V2000
    2.4959   -0.4798   18.7655 N   0  0  0  0  0  0  0  0  0  0  0  0
    3.2334    0.5754   19.3628 C   0  0  0  0  0  0  0  0  0  0  0  0
    3.3384    0.6913   20.7182 N   0  0  0  0  0  0  0  0  0  0  0  0
    4.0413    1.7002   21.2632 C   0  0  0  0  0  0  0  0  0  0  0  0
    4.6537    2.6151   20.4339 C   0  0  0  0  0  0  0  0  0  0  0  0
    4.5654    2.5242   19.0467 C   0  0  0  0  0  0  0  0  0  0  0  0
    3.8440    1.4878   18.5249 C   0  0  0  0  0  0  0  0  0  0  0  0
    3.0224   -1.3073   18.4174 H   0  0  0  0  0  0  0  0  0  0  0  0
    1.4591   -0.4840   18.6504 H   0  0  0  0  0  0  0  0  0  0  0  0
    5.4070    3.7079   21.0386 C   0  0  0  0  0  0  0  0  0  0  0  0
    6.3431    3.6389   22.0576 C   0  0  0  0  0  0  0  0  0  0  0  0
    6.7760    4.8851   22.2821 N   0  0  0  0  0  0  0  0  0  0  0  0
    6.1791    5.7444   21.4745 N   0  0  0  0  0  0  0  0  0  0  0  0
    5.3322    5.0454   20.6997 C   0  0  0  0  0  0  0  0  0  0  0  0
    6.4242    7.1925   21.4541 C   0  0  0  0  0  0  0  0  0  0  0  0
    7.1493    7.5296   20.1866 C   0  0  0  0  0  0  0  0  0  0  0  0
    6.8951    8.9115   19.6778 C   0  0  0  0  0  0  0  0  0  0  0  0
    6.3188    9.7425   20.7393 N   0  0  0  0  0  0  0  0  0  0  0  0
    5.0017    9.2223   20.9953 C   0  0  0  0  0  0  0  0  0  0  0  0
    5.0686    7.8433   21.5702 C   0  0  0  0  0  0  0  0  0  0  0  0
    6.8987    9.5685   21.5871 H   0  0  0  0  0  0  0  0  0  0  0  0
    3.7048    1.3318   17.0892 C   0  0  0  0  0  0  0  0  0  0  0  0
    3.8454    0.1763   16.5451 O   0  0  0  0  0  0  0  0  0  0  0  0
    3.4161    2.3757   16.1866 N   0  0  0  0  0  0  0  0  0  0  0  0
    3.2906    3.3372   16.5570 H   0  0  0  0  0  0  0  0  0  0  0  0
    3.2785    2.2044   14.7570 C   0  0  0  0  0  0  0  0  0  0  0  0
    1.9253    1.6792   14.3686 C   0  0  0  0  0  0  0  0  0  0  0  0
    1.1373    2.8332   13.7924 C   0  0  0  0  0  0  0  0  0  0  0  0
    1.9383    4.0354   14.2022 C   0  0  0  0  0  0  0  0  0  0  0  0
    3.3570    3.5709   14.0929 C   0  0  0  0  0  0  0  0  0  0  0  0
    3.6585    3.4459   12.7403 O   0  0  0  0  0  0  0  0  0  0  0  0
    4.4643    4.5069   12.3258 C   0  0  0  0  0  0  0  0  0  0  0  0
    3.6038    5.6367   11.8360 C   0  0  0  0  0  0  0  0  0  0  0  0
    3.7401    6.8703   12.4322 C   0  0  0  0  0  0  0  0  0  0  0  0
    2.9713    7.9209   12.0156 C   0  0  0  0  0  0  0  0  0  0  0  0
    2.0510    7.7577   10.9948 C   0  0  0  0  0  0  0  0  0  0  0  0
    1.9029    6.5287   10.3877 C   0  0  0  0  0  0  0  0  0  0  0  0
    2.6872    5.4807   10.8212 C   0  0  0  0  0  0  0  0  0  0  0  0
  1  2  1  0  0  0
  2  3  2  0  0  0
  3  4  1  0  0  0
  4  5  2  0  0  0
  5  6  1  0  0  0
  6  7  2  0  0  0
  7 22  1  0  0  0
 22 23  2  0  0  0
 22 24  1  0  0  0
 24 26  1  0  0  0
 26 27  1  0  0  0
 27 28  1  0  0  0
 28 29  1  0  0  0
 29 30  1  0  0  0
 30 31  1  0  0  0
 31 32  1  0  0  0
 32 33  1  0  0  0
 33 34  2  0  0  0
 34 35  1  0  0  0
 35 36  2  0  0  0
 36 37  1  0  0  0
 37 38  2  0  0  0
  5 10  1  0  0  0
 10 11  1  0  0  0
 11 12  2  0  0  0
 12 13  1  0  0  0
 13 14  1  0  0  0
 13 15  1  0  0  0
 15 16  1  0  0  0
 16 17  1  0  0  0
 17 18  1  0  0  0
 18 19  1  0  0  0
 19 20  1  0  0  0
  7  2  1  0  0  0
 30 26  1  0  0  0
 38 33  1  0  0  0
 14 10  2  0  0  0
 20 15  1  0  0  0
  1  8  1  0  0  0
  1  9  1  0  0  0
 24 25  1  0  0  0
 18 21  1  0  0  0
M  END
> <minimizedAffinity>
-8.04582

> <CNNscore>
0.4814276695

> <CNNaffinity>
6.8156404495

> <CNN_VS>
3.2812378407

> <CNNaffinity_variance>
0.6854120493

$$$$
[H]c1nc(N([H])[H])c(C(=O)N([H])[C@@]2([H])C([H])([H])C([H])([H])C([H])([H])[C@]2([H])OC([H])([H])c2c([H])c([H])c([H])c([H])c2[H])c([H])c1-c1c([H])nn(C2([H])C([H])([H])C([H])([H])N([H])C([H])([H])C2([H])[H])c1[H]


 38 42  0  0  0  0  0  0  0  0999 V2000
    3.9500    0.8589   19.7358 N   0  0  0  0  0  0  0  0  0  0  0  0
    3.6307    1.1920   18.3937 C   0  0  0  0  0  0  0  0  0  0  0  0
    3.0621    0.2820   17.5511 N   0  0  0  0  0  0  0  0  0  0  0  0
    2.7690    0.6187   16.2824 C   0  0  0  0  0  0  0  0  0  0  0  0
    3.0510    1.8951   15.8453 C   0  0  0  0  0  0  0  0  0  0  0  0
    3.6311    2.8468   16.6809 C   0  0  0  0  0  0  0  0  0  0  0  0
    3.9164    2.4730   17.9638 C   0  0  0  0  0  0  0  0  0  0  0  0
    3.2842    1.1470   20.4820 H   0  0  0  0  0  0  0  0  0  0  0  0
    4.8087    0.3435   20.0278 H   0  0  0  0  0  0  0  0  0  0  0  0
    2.7341    2.2444   14.4652 C   0  0  0  0  0  0  0  0  0  0  0  0
    1.5924    1.9317   13.7453 C   0  0  0  0  0  0  0  0  0  0  0  0
    1.7367    2.4615   12.5249 N   0  0  0  0  0  0  0  0  0  0  0  0
    2.8937    3.0913   12.4180 N   0  0  0  0  0  0  0  0  0  0  0  0
    3.5261    2.9724   13.5978 C   0  0  0  0  0  0  0  0  0  0  0  0
    3.3673    3.7861   11.2137 C   0  0  0  0  0  0  0  0  0  0  0  0
    4.6468    4.4906   11.5489 C   0  0  0  0  0  0  0  0  0  0  0  0
    5.5809    4.6585   10.3946 C   0  0  0  0  0  0  0  0  0  0  0  0
    4.8648    4.4549    9.1316 N   0  0  0  0  0  0  0  0  0  0  0  0
    4.5070    3.0618    9.0852 C   0  0  0  0  0  0  0  0  0  0  0  0
    3.5185    2.7227   10.1549 C   0  0  0  0  0  0  0  0  0  0  0  0
    3.9841    5.0060    9.2088 H   0  0  0  0  0  0  0  0  0  0  0  0
    4.5251    3.4097   18.8896 C   0  0  0  0  0  0  0  0  0  0  0  0
    5.5946    4.0426   18.5635 O   0  0  0  0  0  0  0  0  0  0  0  0
    4.0340    3.7088   20.1769 N   0  0  0  0  0  0  0  0  0  0  0  0
    3.1727    3.2328   20.5071 H   0  0  0  0  0  0  0  0  0  0  0  0
    4.6511    4.6469   21.0886 C   0  0  0  0  0  0  0  0  0  0  0  0
    3.7250    5.0674   22.1947 C   0  0  0  0  0  0  0  0  0  0  0  0
    4.1580    4.3455   23.4501 C   0  0  0  0  0  0  0  0  0  0  0  0
    5.0805    3.2794   22.9331 C   0  0  0  0  0  0  0  0  0  0  0  0
    5.7985    3.9487   21.8031 C   0  0  0  0  0  0  0  0  0  0  0  0
    6.6774    4.8778   22.3510 O   0  0  0  0  0  0  0  0  0  0  0  0
    6.9993    5.8528   21.4062 C   0  0  0  0  0  0  0  0  0  0  0  0
    6.7902    7.2189   21.9949 C   0  0  0  0  0  0  0  0  0  0  0  0
    7.3808    7.5085   23.2047 C   0  0  0  0  0  0  0  0  0  0  0  0
    7.2096    8.7398   23.7729 C   0  0  0  0  0  0  0  0  0  0  0  0
    6.4439    9.7051   23.1425 C   0  0  0  0  0  0  0  0  0  0  0  0
    5.8461    9.4305   21.9307 C   0  0  0  0  0  0  0  0  0  0  0  0
    6.0302    8.1831   21.3727 C   0  0  0  0  0  0  0  0  0  0  0  0
  1  2  1  0  0  0
  2  3  2  0  0  0
  3  4  1  0  0  0
  4  5  2  0  0  0
  5  6  1  0  0  0
  6  7  2  0  0  0
  7 22  1  0  0  0
 22 23  2  0  0  0
 22 24  1  0  0  0
 24 26  1  0  0  0
 26 27  1  0  0  0
 27 28  1  0  0  0
 28 29  1  0  0  0
 29 30  1  0  0  0
 30 31  1  0  0  0
 31 32  1  0  0  0
 32 33  1  0  0  0
 33 34  2  0  0  0
 34 35  1  0  0  0
 35 36  2  0  0  0
 36 37  1  0  0  0
 37 38  2  0  0  0
  5 10  1  0  0  0
 10 11  1  0  0  0
 11 12  2  0  0  0
 12 13  1  0  0  0
 13 14  1  0  0  0
 13 15  1  0  0  0
 15 16  1  0  0  0
 16 17  1  0  0  0
 17 18  1  0  0  0
 18 19  1  0  0  0
 19 20  1  0  0  0
  7  2  1  0  0  0
 30 26  1  0  0  0
 38 33  1  0  0  0
 14 10  2  0  0  0
 20 15  1  0  0  0
  1  8  1  0  0  0
  1  9  1  0  0  0
 24 25  1  0  0  0
 18 21  1  0  0  0
M  END
> <minimizedAffinity>
-8.61173

> <CNNscore>
0.4562617242

> <CNNaffinity>
6.8155717850

> <CNN_VS>
3.1096844673

> <CNNaffinity_variance>
0.4558269978

$$$$
[H]c1nc(N([H])[H])c(C(=O)N([H])[C@@]2([H])C([H])([H])C([H])([H])C([H])([H])[C@]2([H])OC([H])([H])c2c([H])c([H])c([H])c([H])c2[H])c([H])c1-c1c([H])nn(C2([H])C([H])([H])C([H])([H])N([H])C([H])([H])C2([H])[H])c1[H]


 38 42  0  0  0  0  0  0  0  0999 V2000
    3.9824    0.8199   20.0879 N   0  0  0  0  0  0  0  0  0  0  0  0
    3.8292    1.3325   18.7734 C   0  0  0  0  0  0  0  0  0  0  0  0
    3.3463    0.5576   17.7596 N   0  0  0  0  0  0  0  0  0  0  0  0
    3.2105    1.0635   16.5208 C   0  0  0  0  0  0  0  0  0  0  0  0
    3.5660    2.3751   16.2897 C   0  0  0  0  0  0  0  0  0  0  0  0
    4.0618    3.1918   17.3034 C   0  0  0  0  0  0  0  0  0  0  0  0
    4.1875    2.6475   18.5503 C   0  0  0  0  0  0  0  0  0  0  0  0
    3.2391    1.0326   20.7846 H   0  0  0  0  0  0  0  0  0  0  0  0
    4.7909    0.2424   20.4057 H   0  0  0  0  0  0  0  0  0  0  0  0
    3.4199    2.9086   14.9402 C   0  0  0  0  0  0  0  0  0  0  0  0
    3.0072    2.2419   13.7979 C   0  0  0  0  0  0  0  0  0  0  0  0
    3.0205    3.1286   12.7958 N   0  0  0  0  0  0  0  0  0  0  0  0
    3.4137    4.3162   13.2220 N   0  0  0  0  0  0  0  0  0  0  0  0
    3.6655    4.2074   14.5376 C   0  0  0  0  0  0  0  0  0  0  0  0
    3.5381    5.5148   12.3821 C   0  0  0  0  0  0  0  0  0  0  0  0
    3.7478    6.6978   13.2778 C   0  0  0  0  0  0  0  0  0  0  0  0
    4.5320    7.8097   12.6600 C   0  0  0  0  0  0  0  0  0  0  0  0
    4.5687    7.6529   11.2027 N   0  0  0  0  0  0  0  0  0  0  0  0
    5.3634    6.4827   10.9380 C   0  0  0  0  0  0  0  0  0  0  0  0
    4.6917    5.2477   11.4481 C   0  0  0  0  0  0  0  0  0  0  0  0
    3.5904    7.4443   10.9116 H   0  0  0  0  0  0  0  0  0  0  0  0
    4.7008    3.4369   19.6542 C   0  0  0  0  0  0  0  0  0  0  0  0
    5.6605    2.9888   20.3815 O   0  0  0  0  0  0  0  0  0  0  0  0
    4.2263    4.7113   20.0262 N   0  0  0  0  0  0  0  0  0  0  0  0
    3.4503    5.1349   19.4823 H   0  0  0  0  0  0  0  0  0  0  0  0
    4.7496    5.4875   21.1289 C   0  0  0  0  0  0  0  0  0  0  0  0
    6.1621    5.1114   21.4772 C   0  0  0  0  0  0  0  0  0  0  0  0
    7.0669    6.2001   20.9475 C   0  0  0  0  0  0  0  0  0  0  0  0
    6.1739    6.9658   20.0142 C   0  0  0  0  0  0  0  0  0  0  0  0
    4.8428    6.9437   20.6984 C   0  0  0  0  0  0  0  0  0  0  0  0
    4.9223    7.7819   21.8062 O   0  0  0  0  0  0  0  0  0  0  0  0
    4.9231    9.1172   21.4015 C   0  0  0  0  0  0  0  0  0  0  0  0
    6.1167    9.8222   21.9801 C   0  0  0  0  0  0  0  0  0  0  0  0
    6.6139    9.3856   23.1877 C   0  0  0  0  0  0  0  0  0  0  0  0
    7.6963   10.0052   23.7469 C   0  0  0  0  0  0  0  0  0  0  0  0
    8.3022   11.0738   23.1093 C   0  0  0  0  0  0  0  0  0  0  0  0
    7.8163   11.5227   21.8996 C   0  0  0  0  0  0  0  0  0  0  0  0
    6.7237   10.8852   21.3508 C   0  0  0  0  0  0  0  0  0  0  0  0
  1  2  1  0  0  0
  2  3  2  0  0  0
  3  4  1  0  0  0
  4  5  2  0  0  0
  5  6  1  0  0  0
  6  7  2  0  0  0
  7 22  1  0  0  0
 22 23  2  0  0  0
 22 24  1  0  0  0
 24 26  1  0  0  0
 26 27  1  0  0  0
 27 28  1  0  0  0
 28 29  1  0  0  0
 29 30  1  0  0  0
 30 31  1  0  0  0
 31 32  1  0  0  0
 32 33  1  0  0  0
 33 34  2  0  0  0
 34 35  1  0  0  0
 35 36  2  0  0  0
 36 37  1  0  0  0
 37 38  2  0  0  0
  5 10  1  0  0  0
 10 11  1  0  0  0
 11 12  2  0  0  0
 12 13  1  0  0  0
 13 14  1  0  0  0
 13 15  1  0  0  0
 15 16  1  0  0  0
 16 17  1  0  0  0
 17 18  1  0  0  0
 18 19  1  0  0  0
 19 20  1  0  0  0
  7  2  1  0  0  0
 30 26  1  0  0  0
 38 33  1  0  0  0
 14 10  2  0  0  0
 20 15  1  0  0  0
  1  8  1  0  0  0
  1  9  1  0  0  0
 24 25  1  0  0  0
 18 21  1  0  0  0
M  END
> <minimizedAffinity>
-8.30295

> <CNNscore>
0.4260450304

> <CNNaffinity>
6.6673622131

> <CNN_VS>
2.8405964375

> <CNNaffinity_variance>
0.4710775316

$$$$
[H]c1nc(N([H])[H])c(C(=O)N([H])[C@@]2([H])C([H])([H])C([H])([H])C([H])([H])[C@]2([H])OC([H])([H])c2c([H])c([H])c([H])c([H])c2[H])c([H])c1-c1c([H])nn(C2([H])C([H])([H])C([H])([H])N([H])C([H])([H])C2([H])[H])c1[H]


 38 42  0  0  0  0  0  0  0  0999 V2000
    4.3947    1.3286   18.9908 N   0  0  0  0  0  0  0  0  0  0  0  0
    4.0223    1.8875   17.7406 C   0  0  0  0  0  0  0  0  0  0  0  0
    3.5170    1.1130   16.7375 N   0  0  0  0  0  0  0  0  0  0  0  0
    3.1718    1.6634   15.5599 C   0  0  0  0  0  0  0  0  0  0  0  0
    3.3356    3.0202   15.3804 C   0  0  0  0  0  0  0  0  0  0  0  0
    3.8486    3.8378   16.3848 C   0  0  0  0  0  0  0  0  0  0  0  0
    4.1896    3.2476   17.5690 C   0  0  0  0  0  0  0  0  0  0  0  0
    3.7213    1.4066   19.7805 H   0  0  0  0  0  0  0  0  0  0  0  0
    5.2995    0.8430   19.1743 H   0  0  0  0  0  0  0  0  0  0  0  0
    2.9636    3.6026   14.0961 C   0  0  0  0  0  0  0  0  0  0  0  0
    3.7977    3.9897   13.0598 C   0  0  0  0  0  0  0  0  0  0  0  0
    3.0184    4.4645   12.0810 N   0  0  0  0  0  0  0  0  0  0  0  0
    1.7432    4.4060   12.4231 N   0  0  0  0  0  0  0  0  0  0  0  0
    1.6826    3.8797   13.6582 C   0  0  0  0  0  0  0  0  0  0  0  0
    0.6229    4.8433   11.5797 C   0  0  0  0  0  0  0  0  0  0  0  0
    0.4333    3.8342   10.4881 C   0  0  0  0  0  0  0  0  0  0  0  0
   -0.9690    3.7256    9.9834 C   0  0  0  0  0  0  0  0  0  0  0  0
   -1.7445    4.9017   10.3895 N   0  0  0  0  0  0  0  0  0  0  0  0
   -1.8863    4.8233   11.8194 C   0  0  0  0  0  0  0  0  0  0  0  0
   -0.5638    4.9714   12.5017 C   0  0  0  0  0  0  0  0  0  0  0  0
   -1.1470    5.7277   10.1750 H   0  0  0  0  0  0  0  0  0  0  0  0
    4.7340    4.0355   18.6589 C   0  0  0  0  0  0  0  0  0  0  0  0
    5.8295    4.6888   18.5035 O   0  0  0  0  0  0  0  0  0  0  0  0
    4.1503    4.1612   19.9361 N   0  0  0  0  0  0  0  0  0  0  0  0
    3.2633    3.6591   20.1326 H   0  0  0  0  0  0  0  0  0  0  0  0
    4.7043    4.9523   21.0127 C   0  0  0  0  0  0  0  0  0  0  0  0
    3.7088    5.2089   22.1087 C   0  0  0  0  0  0  0  0  0  0  0  0
    4.0664    4.3082   23.2686 C   0  0  0  0  0  0  0  0  0  0  0  0
    5.0251    3.3263   22.6589 C   0  0  0  0  0  0  0  0  0  0  0  0
    5.8087    4.1520   21.6868 C   0  0  0  0  0  0  0  0  0  0  0  0
    6.6466    4.9868   22.4195 O   0  0  0  0  0  0  0  0  0  0  0  0
    7.1942    5.9675   21.5917 C   0  0  0  0  0  0  0  0  0  0  0  0
    8.6619    6.1116   21.8775 C   0  0  0  0  0  0  0  0  0  0  0  0
    9.1311    5.7177   23.1107 C   0  0  0  0  0  0  0  0  0  0  0  0
   10.4598    5.8375   23.4080 C   0  0  0  0  0  0  0  0  0  0  0  0
   11.3449    6.3542   22.4778 C   0  0  0  0  0  0  0  0  0  0  0  0
   10.8905    6.7530   21.2387 C   0  0  0  0  0  0  0  0  0  0  0  0
    9.5470    6.6245   20.9566 C   0  0  0  0  0  0  0  0  0  0  0  0
  1  2  1  0  0  0
  2  3  2  0  0  0
  3  4  1  0  0  0
  4  5  2  0  0  0
  5  6  1  0  0  0
  6  7  2  0  0  0
  7 22  1  0  0  0
 22 23  2  0  0  0
 22 24  1  0  0  0
 24 26  1  0  0  0
 26 27  1  0  0  0
 27 28  1  0  0  0
 28 29  1  0  0  0
 29 30  1  0  0  0
 30 31  1  0  0  0
 31 32  1  0  0  0
 32 33  1  0  0  0
 33 34  2  0  0  0
 34 35  1  0  0  0
 35 36  2  0  0  0
 36 37  1  0  0  0
 37 38  2  0  0  0
  5 10  1  0  0  0
 10 11  1  0  0  0
 11 12  2  0  0  0
 12 13  1  0  0  0
 13 14  1  0  0  0
 13 15  1  0  0  0
 15 16  1  0  0  0
 16 17  1  0  0  0
 17 18  1  0  0  0
 18 19  1  0  0  0
 19 20  1  0  0  0
  7  2  1  0  0  0
 30 26  1  0  0  0
 38 33  1  0  0  0
 14 10  2  0  0  0
 20 15  1  0  0  0
  1  8  1  0  0  0
  1  9  1  0  0  0
 24 25  1  0  0  0
 18 21  1  0  0  0
M  END
> <minimizedAffinity>
-8.20747

> <CNNscore>
0.3794644475

> <CNNaffinity>
6.6357374191

> <CNN_VS>
2.5180263519

> <CNNaffinity_variance>
0.4580084383

$$$$
[H]c1nc(N([H])[H])c(C(=O)N([H])[C@@]2([H])C([H])([H])C([H])([H])C([H])([H])[C@]2([H])OC([H])([H])c2c([H])c([H])c([H])c([H])c2[H])c([H])c1-c1c([H])nn(C2([H])C([H])([H])C([H])([H])N([H])C([H])([H])C2([H])[H])c1[H]


 38 42  0  0  0  0  0  0  0  0999 V2000
    4.0542    1.1694   18.7265 N   0  0  0  0  0  0  0  0  0  0  0  0
    3.7088    1.6410   17.4333 C   0  0  0  0  0  0  0  0  0  0  0  0
    3.0235    0.8586   16.5504 N   0  0  0  0  0  0  0  0  0  0  0  0
    2.7076    1.3253   15.3292 C   0  0  0  0  0  0  0  0  0  0  0  0
    3.0859    2.6045   14.9820 C   0  0  0  0  0  0  0  0  0  0  0  0
    3.7861    3.4279   15.8607 C   0  0  0  0  0  0  0  0  0  0  0  0
    4.0914    2.9238   17.0934 C   0  0  0  0  0  0  0  0  0  0  0  0
    3.4504    1.4507   19.5261 H   0  0  0  0  0  0  0  0  0  0  0  0
    4.8740    0.5580   18.9323 H   0  0  0  0  0  0  0  0  0  0  0  0
    2.7428    3.0953   13.6522 C   0  0  0  0  0  0  0  0  0  0  0  0
    2.6751    2.3788   12.4682 C   0  0  0  0  0  0  0  0  0  0  0  0
    2.3180    3.2376   11.5060 N   0  0  0  0  0  0  0  0  0  0  0  0
    2.1531    4.4536   11.9967 N   0  0  0  0  0  0  0  0  0  0  0  0
    2.4084    4.3929   13.3147 C   0  0  0  0  0  0  0  0  0  0  0  0
    1.7590    5.6324   11.2139 C   0  0  0  0  0  0  0  0  0  0  0  0
    1.7233    6.8167   12.1315 C   0  0  0  0  0  0  0  0  0  0  0  0
    2.0090    8.1235   11.4655 C   0  0  0  0  0  0  0  0  0  0  0  0
    1.8631    7.9926   10.0125 N   0  0  0  0  0  0  0  0  0  0  0  0
    2.9341    7.1393    9.5700 C   0  0  0  0  0  0  0  0  0  0  0  0
    2.7755    5.7523   10.1062 C   0  0  0  0  0  0  0  0  0  0  0  0
    0.9676    7.4831    9.8586 H   0  0  0  0  0  0  0  0  0  0  0  0
    4.8226    3.7223   18.0592 C   0  0  0  0  0  0  0  0  0  0  0  0
    5.3306    3.1731   19.1038 O   0  0  0  0  0  0  0  0  0  0  0  0
    5.0415    5.1115   17.9597 N   0  0  0  0  0  0  0  0  0  0  0  0
    4.6580    5.6212   17.1408 H   0  0  0  0  0  0  0  0  0  0  0  0
    5.7745    5.8942   18.9304 C   0  0  0  0  0  0  0  0  0  0  0  0
    6.3358    7.1585   18.3435 C   0  0  0  0  0  0  0  0  0  0  0  0
    5.4761    8.3047   18.8250 C   0  0  0  0  0  0  0  0  0  0  0  0
    4.2584    7.6159   19.3706 C   0  0  0  0  0  0  0  0  0  0  0  0
    4.8058    6.3735   20.0010 C   0  0  0  0  0  0  0  0  0  0  0  0
    5.4896    6.7493   21.1530 O   0  0  0  0  0  0  0  0  0  0  0  0
    6.4102    5.7637   21.5106 C   0  0  0  0  0  0  0  0  0  0  0  0
    5.7242    4.6961   22.3146 C   0  0  0  0  0  0  0  0  0  0  0  0
    6.3362    3.4680   22.4303 C   0  0  0  0  0  0  0  0  0  0  0  0
    5.7400    2.4710   23.1506 C   0  0  0  0  0  0  0  0  0  0  0  0
    4.5200    2.6829   23.7688 C   0  0  0  0  0  0  0  0  0  0  0  0
    3.8947    3.9071   23.6625 C   0  0  0  0  0  0  0  0  0  0  0  0
    4.5112    4.9008   22.9319 C   0  0  0  0  0  0  0  0  0  0  0  0
  1  2  1  0  0  0
  2  3  2  0  0  0
  3  4  1  0  0  0
  4  5  2  0  0  0
  5  6  1  0  0  0
  6  7  2  0  0  0
  7 22  1  0  0  0
 22 23  2  0  0  0
 22 24  1  0  0  0
 24 26  1  0  0  0
 26 27  1  0  0  0
 27 28  1  0  0  0
 28 29  1  0  0  0
 29 30  1  0  0  0
 30 31  1  0  0  0
 31 32  1  0  0  0
 32 33  1  0  0  0
 33 34  2  0  0  0
 34 35  1  0  0  0
 35 36  2  0  0  0
 36 37  1  0  0  0
 37 38  2  0  0  0
  5 10  1  0  0  0
 10 11  1  0  0  0
 11 12  2  0  0  0
 12 13  1  0  0  0
 13 14  1  0  0  0
 13 15  1  0  0  0
 15 16  1  0  0  0
 16 17  1  0  0  0
 17 18  1  0  0  0
 18 19  1  0  0  0
 19 20  1  0  0  0
  7  2  1  0  0  0
 30 26  1  0  0  0
 38 33  1  0  0  0
 14 10  2  0  0  0
 20 15  1  0  0  0
  1  8  1  0  0  0
  1  9  1  0  0  0
 24 25  1  0  0  0
 18 21  1  0  0  0
M  END
> <minimizedAffinity>
-8.69128

> <CNNscore>
0.3761196434

> <CNNaffinity>
6.7077269554

> <CNN_VS>
2.5229079723

> <CNNaffinity_variance>
0.4738186300

$$$$
[H]c1nc(N([H])[H])c(C(=O)N([H])[C@@]2([H])C([H])([H])C([H])([H])C([H])([H])[C@]2([H])OC([H])([H])c2c([H])c([H])c([H])c([H])c2[H])c([H])c1-c1c([H])nn(C2([H])C([H])([H])C([H])([H])N([H])C([H])([H])C2([H])[H])c1[H]


 38 42  0  0  0  0  0  0  0  0999 V2000
    5.7788    2.8564   23.1977 N   0  0  0  0  0  0  0  0  0  0  0  0
    5.2548    2.4893   21.9309 C   0  0  0  0  0  0  0  0  0  0  0  0
    4.9121    1.1990   21.6498 N   0  0  0  0  0  0  0  0  0  0  0  0
    4.4184    0.8730   20.4419 C   0  0  0  0  0  0  0  0  0  0  0  0
    4.2636    1.8600   19.4923 C   0  0  0  0  0  0  0  0  0  0  0  0
    4.6040    3.1863   19.7486 C   0  0  0  0  0  0  0  0  0  0  0  0
    5.1027    3.4842   20.9852 C   0  0  0  0  0  0  0  0  0  0  0  0
    5.1273    3.2749   23.8930 H   0  0  0  0  0  0  0  0  0  0  0  0
    6.7752    2.7354   23.4818 H   0  0  0  0  0  0  0  0  0  0  0  0
    3.7335    1.4912   18.1847 C   0  0  0  0  0  0  0  0  0  0  0  0
    2.9835    0.3752   17.8507 C   0  0  0  0  0  0  0  0  0  0  0  0
    2.7171    0.4548   16.5416 N   0  0  0  0  0  0  0  0  0  0  0  0
    3.2467    1.5468   16.0182 N   0  0  0  0  0  0  0  0  0  0  0  0
    3.8773    2.2014   17.0081 C   0  0  0  0  0  0  0  0  0  0  0  0
    3.1420    1.9419   14.6074 C   0  0  0  0  0  0  0  0  0  0  0  0
    1.7006    1.8695   14.2038 C   0  0  0  0  0  0  0  0  0  0  0  0
    1.3145    2.8197   13.1170 C   0  0  0  0  0  0  0  0  0  0  0  0
    2.5112    3.3133   12.4288 N   0  0  0  0  0  0  0  0  0  0  0  0
    3.2142    4.1394   13.3746 C   0  0  0  0  0  0  0  0  0  0  0  0
    3.7282    3.3289   14.5215 C   0  0  0  0  0  0  0  0  0  0  0  0
    3.1006    2.4752   12.2406 H   0  0  0  0  0  0  0  0  0  0  0  0
    5.4828    4.8433   21.3222 C   0  0  0  0  0  0  0  0  0  0  0  0
    5.0125    5.4063   22.3770 O   0  0  0  0  0  0  0  0  0  0  0  0
    6.3616    5.6477   20.5682 N   0  0  0  0  0  0  0  0  0  0  0  0
    6.7789    5.2570   19.7018 H   0  0  0  0  0  0  0  0  0  0  0  0
    6.7327    7.0012   20.9180 C   0  0  0  0  0  0  0  0  0  0  0  0
    8.1535    7.3214   20.5485 C   0  0  0  0  0  0  0  0  0  0  0  0
    8.1176    8.1929   19.3140 C   0  0  0  0  0  0  0  0  0  0  0  0
    6.7058    8.0396   18.8258 C   0  0  0  0  0  0  0  0  0  0  0  0
    5.9006    7.9650   20.0854 C   0  0  0  0  0  0  0  0  0  0  0  0
    5.8928    9.2328   20.6585 O   0  0  0  0  0  0  0  0  0  0  0  0
    5.5097    9.1542   21.9979 C   0  0  0  0  0  0  0  0  0  0  0  0
    6.5815    9.7464   22.8681 C   0  0  0  0  0  0  0  0  0  0  0  0
    7.1285   10.9560   22.5023 C   0  0  0  0  0  0  0  0  0  0  0  0
    8.1086   11.5236   23.2674 C   0  0  0  0  0  0  0  0  0  0  0  0
    8.5609   10.8922   24.4129 C   0  0  0  0  0  0  0  0  0  0  0  0
    8.0231    9.6808   24.7926 C   0  0  0  0  0  0  0  0  0  0  0  0
    7.0352    9.1236   24.0085 C   0  0  0  0  0  0  0  0  0  0  0  0
  1  2  1  0  0  0
  2  3  2  0  0  0
  3  4  1  0  0  0
  4  5  2  0  0  0
  5  6  1  0  0  0
  6  7  2  0  0  0
  7 22  1  0  0  0
 22 23  2  0  0  0
 22 24  1  0  0  0
 24 26  1  0  0  0
 26 27  1  0  0  0
 27 28  1  0  0  0
 28 29  1  0  0  0
 29 30  1  0  0  0
 30 31  1  0  0  0
 31 32  1  0  0  0
 32 33  1  0  0  0
 33 34  2  0  0  0
 34 35  1  0  0  0
 35 36  2  0  0  0
 36 37  1  0  0  0
 37 38  2  0  0  0
  5 10  1  0  0  0
 10 11  1  0  0  0
 11 12  2  0  0  0
 12 13  1  0  0  0
 13 14  1  0  0  0
 13 15  1  0  0  0
 15 16  1  0  0  0
 16 17  1  0  0  0
 17 18  1  0  0  0
 18 19  1  0  0  0
 19 20  1  0  0  0
  7  2  1  0  0  0
 30 26  1  0  0  0
 38 33  1  0  0  0
 14 10  2  0  0  0
 20 15  1  0  0  0
  1  8  1  0  0  0
  1  9  1  0  0  0
 24 25  1  0  0  0
 18 21  1  0  0  0
M  END
> <minimizedAffinity>
-8.70014

> <CNNscore>
0.3735624552

> <CNNaffinity>
6.7597608566

> <CNN_VS>
2.5251929760

> <CNNaffinity_variance>
0.2348756492

$$$$
[H]c1nc(N([H])[H])c(C(=O)N([H])[C@@]2([H])C([H])([H])C([H])([H])C([H])([H])[C@]2([H])OC([H])([H])c2c([H])c([H])c([H])c([H])c2[H])c([H])c1-c1c([H])nn(C2([H])C([H])([H])C([H])([H])N([H])C([H])([H])C2([H])[H])c1[H]


 38 42  0  0  0  0  0  0  0  0999 V2000
    2.0010    1.1525   14.6724 N   0  0  0  0  0  0  0  0  0  0  0  0
    2.6484    1.5304   15.8775 C   0  0  0  0  0  0  0  0  0  0  0  0
    2.7738    0.6599   16.9206 N   0  0  0  0  0  0  0  0  0  0  0  0
    3.3899    1.0395   18.0543 C   0  0  0  0  0  0  0  0  0  0  0  0
    3.8926    2.3196   18.1478 C   0  0  0  0  0  0  0  0  0  0  0  0
    3.7806    3.2314   17.1007 C   0  0  0  0  0  0  0  0  0  0  0  0
    3.1492    2.8145   15.9630 C   0  0  0  0  0  0  0  0  0  0  0  0
    2.5956    0.8635   13.8686 H   0  0  0  0  0  0  0  0  0  0  0  0
    0.9669    1.1441   14.5354 H   0  0  0  0  0  0  0  0  0  0  0  0
    4.5523    2.7199   19.3854 C   0  0  0  0  0  0  0  0  0  0  0  0
    5.2820    1.9297   20.2588 C   0  0  0  0  0  0  0  0  0  0  0  0
    5.7015    2.7219   21.2524 N   0  0  0  0  0  0  0  0  0  0  0  0
    5.2886    3.9643   21.0714 N   0  0  0  0  0  0  0  0  0  0  0  0
    4.5796    3.9895   19.9301 C   0  0  0  0  0  0  0  0  0  0  0  0
    5.5746    5.0878   21.9734 C   0  0  0  0  0  0  0  0  0  0  0  0
    7.0614    5.2112   22.1153 C   0  0  0  0  0  0  0  0  0  0  0  0
    7.5425    6.5976   22.3968 C   0  0  0  0  0  0  0  0  0  0  0  0
    6.4313    7.4332   22.8620 N   0  0  0  0  0  0  0  0  0  0  0  0
    5.5463    7.5974   21.7391 C   0  0  0  0  0  0  0  0  0  0  0  0
    4.9213    6.2957   21.3499 C   0  0  0  0  0  0  0  0  0  0  0  0
    5.9300    6.8703   23.5810 H   0  0  0  0  0  0  0  0  0  0  0  0
    2.9917    3.7110   14.8331 C   0  0  0  0  0  0  0  0  0  0  0  0
    3.8114    3.6600   13.8449 O   0  0  0  0  0  0  0  0  0  0  0  0
    1.9770    4.6814   14.7062 N   0  0  0  0  0  0  0  0  0  0  0  0
    1.2794    4.7789   15.4687 H   0  0  0  0  0  0  0  0  0  0  0  0
    1.8317    5.5674   13.5721 C   0  0  0  0  0  0  0  0  0  0  0  0
    0.7970    5.0852   12.5949 C   0  0  0  0  0  0  0  0  0  0  0  0
   -0.4343    5.9431   12.7753 C   0  0  0  0  0  0  0  0  0  0  0  0
   -0.1806    6.6388   14.0816 C   0  0  0  0  0  0  0  0  0  0  0  0
    1.2927    6.9026   14.0631 C   0  0  0  0  0  0  0  0  0  0  0  0
    1.5314    7.9053   13.1284 O   0  0  0  0  0  0  0  0  0  0  0  0
    2.9025    8.0452   12.9108 C   0  0  0  0  0  0  0  0  0  0  0  0
    3.2157    7.7888   11.4641 C   0  0  0  0  0  0  0  0  0  0  0  0
    2.2144    7.9658   10.5356 C   0  0  0  0  0  0  0  0  0  0  0  0
    2.4612    7.7383    9.2106 C   0  0  0  0  0  0  0  0  0  0  0  0
    3.7142    7.3287    8.7888 C   0  0  0  0  0  0  0  0  0  0  0  0
    4.7272    7.1471    9.7063 C   0  0  0  0  0  0  0  0  0  0  0  0
    4.4597    7.3817   11.0384 C   0  0  0  0  0  0  0  0  0  0  0  0
  1  2  1  0  0  0
  2  3  2  0  0  0
  3  4  1  0  0  0
  4  5  2  0  0  0
  5  6  1  0  0  0
  6  7  2  0  0  0
  7 22  1  0  0  0
 22 23  2  0  0  0
 22 24  1  0  0  0
 24 26  1  0  0  0
 26 27  1  0  0  0
 27 28  1  0  0  0
 28 29  1  0  0  0
 29 30  1  0  0  0
 30 31  1  0  0  0
 31 32  1  0  0  0
 32 33  1  0  0  0
 33 34  2  0  0  0
 34 35  1  0  0  0
 35 36  2  0  0  0
 36 37  1  0  0  0
 37 38  2  0  0  0
  5 10  1  0  0  0
 10 11  1  0  0  0
 11 12  2  0  0  0
 12 13  1  0  0  0
 13 14  1  0  0  0
 13 15  1  0  0  0
 15 16  1  0  0  0
 16 17  1  0  0  0
 17 18  1  0  0  0
 18 19  1  0  0  0
 19 20  1  0  0  0
  7  2  1  0  0  0
 30 26  1  0  0  0
 38 33  1  0  0  0
 14 10  2  0  0  0
 20 15  1  0  0  0
  1  8  1  0  0  0
  1  9  1  0  0  0
 24 25  1  0  0  0
 18 21  1  0  0  0
M  END
> <minimizedAffinity>
-8.02262

> <CNNscore>
0.3718583286

> <CNNaffinity>
6.4316573143

> <CNN_VS>
2.3916652203

> <CNNaffinity_variance>
0.4428380430

$$$$
[H]c1nc(N([H])[H])c(C(=O)N([H])[C@@]2([H])C([H])([H])C([H])([H])C([H])([H])[C@]2([H])OC([H])([H])c2c([H])c([H])c([H])c([H])c2[H])c([H])c1-c1c([H])nn(C2([H])C([H])([H])C([H])([H])N([H])C([H])([H])C2([H])[H])c1[H]


 38 42  0  0  0  0  0  0  0  0999 V2000
    4.0371    1.0462   19.4370 N   0  0  0  0  0  0  0  0  0  0  0  0
    3.7913    1.4599   18.1019 C   0  0  0  0  0  0  0  0  0  0  0  0
    3.2849    0.5990   17.1724 N   0  0  0  0  0  0  0  0  0  0  0  0
    3.0609    1.0119   15.9121 C   0  0  0  0  0  0  0  0  0  0  0  0
    3.3501    2.3162   15.5726 C   0  0  0  0  0  0  0  0  0  0  0  0
    3.8677    3.2192   16.4985 C   0  0  0  0  0  0  0  0  0  0  0  0
    4.0837    2.7682   17.7700 C   0  0  0  0  0  0  0  0  0  0  0  0
    3.3254    1.2799   20.1595 H   0  0  0  0  0  0  0  0  0  0  0  0
    4.8845    0.5221   19.7460 H   0  0  0  0  0  0  0  0  0  0  0  0
    3.1086    2.7485   14.2008 C   0  0  0  0  0  0  0  0  0  0  0  0
    3.7445    3.7601   13.4994 C   0  0  0  0  0  0  0  0  0  0  0  0
    3.2010    3.7960   12.2771 N   0  0  0  0  0  0  0  0  0  0  0  0
    2.2613    2.8751   12.1516 N   0  0  0  0  0  0  0  0  0  0  0  0
    2.1850    2.2174   13.3210 C   0  0  0  0  0  0  0  0  0  0  0  0
    1.4674    2.6405   10.9382 C   0  0  0  0  0  0  0  0  0  0  0  0
    2.3318    2.9248    9.7475 C   0  0  0  0  0  0  0  0  0  0  0  0
    1.9765    2.1427    8.5248 C   0  0  0  0  0  0  0  0  0  0  0  0
    0.6282    1.5822    8.6577 N   0  0  0  0  0  0  0  0  0  0  0  0
    0.7005    0.5866    9.6943 C   0  0  0  0  0  0  0  0  0  0  0  0
    0.9983    1.2094   11.0209 C   0  0  0  0  0  0  0  0  0  0  0  0
    0.0274    2.3589    9.0056 H   0  0  0  0  0  0  0  0  0  0  0  0
    4.6248    3.6509   18.7865 C   0  0  0  0  0  0  0  0  0  0  0  0
    5.7101    4.3032   18.5688 O   0  0  0  0  0  0  0  0  0  0  0  0
    4.0482    3.8745   20.0534 N   0  0  0  0  0  0  0  0  0  0  0  0
    3.1695    3.3789   20.2980 H   0  0  0  0  0  0  0  0  0  0  0  0
    4.5987    4.7594   21.0564 C   0  0  0  0  0  0  0  0  0  0  0  0
    3.6198    5.0624   22.1554 C   0  0  0  0  0  0  0  0  0  0  0  0
    4.0338    4.2605   23.3678 C   0  0  0  0  0  0  0  0  0  0  0  0
    5.0117    3.2687   22.8067 C   0  0  0  0  0  0  0  0  0  0  0  0
    5.7446    4.0465   21.7587 C   0  0  0  0  0  0  0  0  0  0  0  0
    6.5697    4.9592   22.4085 O   0  0  0  0  0  0  0  0  0  0  0  0
    7.0687    5.8914   21.4981 C   0  0  0  0  0  0  0  0  0  0  0  0
    6.9205    7.2775   22.0581 C   0  0  0  0  0  0  0  0  0  0  0  0
    5.8643    8.0488   21.6272 C   0  0  0  0  0  0  0  0  0  0  0  0
    5.6995    9.3162   22.1117 C   0  0  0  0  0  0  0  0  0  0  0  0
    6.5882    9.8369   23.0361 C   0  0  0  0  0  0  0  0  0  0  0  0
    7.6507    9.0771   23.4775 C   0  0  0  0  0  0  0  0  0  0  0  0
    7.8007    7.8007   22.9778 C   0  0  0  0  0  0  0  0  0  0  0  0
  1  2  1  0  0  0
  2  3  2  0  0  0
  3  4  1  0  0  0
  4  5  2  0  0  0
  5  6  1  0  0  0
  6  7  2  0  0  0
  7 22  1  0  0  0
 22 23  2  0  0  0
 22 24  1  0  0  0
 24 26  1  0  0  0
 26 27  1  0  0  0
 27 28  1  0  0  0
 28 29  1  0  0  0
 29 30  1  0  0  0
 30 31  1  0  0  0
 31 32  1  0  0  0
 32 33  1  0  0  0
 33 34  2  0  0  0
 34 35  1  0  0  0
 35 36  2  0  0  0
 36 37  1  0  0  0
 37 38  2  0  0  0
  5 10  1  0  0  0
 10 11  1  0  0  0
 11 12  2  0  0  0
 12 13  1  0  0  0
 13 14  1  0  0  0
 13 15  1  0  0  0
 15 16  1  0  0  0
 16 17  1  0  0  0
 17 18  1  0  0  0
 18 19  1  0  0  0
 19 20  1  0  0  0
  7  2  1  0  0  0
 30 26  1  0  0  0
 38 33  1  0  0  0
 14 10  2  0  0  0
 20 15  1  0  0  0
  1  8  1  0  0  0
  1  9  1  0  0  0
 24 25  1  0  0  0
 18 21  1  0  0  0
M  END
> <minimizedAffinity>
-8.37661

> <CNNscore>
0.3492300510

> <CNNaffinity>
6.5410032272

> <CNN_VS>
2.2843148708

> <CNNaffinity_variance>
0.4919554293

$$$$
[H]c1nc(N([H])[H])c(C(=O)N([H])[C@@]2([H])C([H])([H])C([H])([H])C([H])([H])[C@]2([H])OC([H])([H])c2c([H])c([H])c([H])c([H])c2[H])c([H])c1-c1c([H])nn(C2([H])C([H])([H])C([H])([H])N([H])C([H])([H])C2([H])[H])c1[H]


 38 42  0  0  0  0  0  0  0  0999 V2000
    2.2188    2.0824   12.9253 N   0  0  0  0  0  0  0  0  0  0  0  0
    2.7105    2.0866   14.2566 C   0  0  0  0  0  0  0  0  0  0  0  0
    2.4427    1.0621   15.1170 N   0  0  0  0  0  0  0  0  0  0  0  0
    2.9178    1.0872   16.3750 C   0  0  0  0  0  0  0  0  0  0  0  0
    3.6784    2.1618   16.7830 C   0  0  0  0  0  0  0  0  0  0  0  0
    3.9693    3.2230   15.9287 C   0  0  0  0  0  0  0  0  0  0  0  0
    3.4718    3.1669   14.6574 C   0  0  0  0  0  0  0  0  0  0  0  0
    2.8638    1.7775   12.1676 H   0  0  0  0  0  0  0  0  0  0  0  0
    1.2523    2.3645   12.6522 H   0  0  0  0  0  0  0  0  0  0  0  0
    4.1813    2.1792   18.1519 C   0  0  0  0  0  0  0  0  0  0  0  0
    4.4634    1.0988   18.9722 C   0  0  0  0  0  0  0  0  0  0  0  0
    4.9046    1.5904   20.1360 N   0  0  0  0  0  0  0  0  0  0  0  0
    4.9231    2.9118   20.1132 N   0  0  0  0  0  0  0  0  0  0  0  0
    4.4828    3.2986   18.9038 C   0  0  0  0  0  0  0  0  0  0  0  0
    5.3555    3.7683   21.2253 C   0  0  0  0  0  0  0  0  0  0  0  0
    5.4801    5.1727   20.7173 C   0  0  0  0  0  0  0  0  0  0  0  0
    5.2439    6.2268   21.7498 C   0  0  0  0  0  0  0  0  0  0  0  0
    5.3403    5.6483   23.0935 N   0  0  0  0  0  0  0  0  0  0  0  0
    4.2135    4.7651   23.2394 C   0  0  0  0  0  0  0  0  0  0  0  0
    4.3147    3.6025   22.3042 C   0  0  0  0  0  0  0  0  0  0  0  0
    6.2030    5.0643   23.0936 H   0  0  0  0  0  0  0  0  0  0  0  0
    3.7304    4.2380   13.7135 C   0  0  0  0  0  0  0  0  0  0  0  0
    4.4000    4.0103   12.6408 O   0  0  0  0  0  0  0  0  0  0  0  0
    3.2978    5.5713   13.8651 N   0  0  0  0  0  0  0  0  0  0  0  0
    2.7517    5.8273   14.7099 H   0  0  0  0  0  0  0  0  0  0  0  0
    3.5620    6.6285   12.9140 C   0  0  0  0  0  0  0  0  0  0  0  0
    2.3068    7.1589   12.2807 C   0  0  0  0  0  0  0  0  0  0  0  0
    2.0080    8.4982   12.9144 C   0  0  0  0  0  0  0  0  0  0  0  0
    2.8964    8.5119   14.1249 C   0  0  0  0  0  0  0  0  0  0  0  0
    4.1405    7.8215   13.6601 C   0  0  0  0  0  0  0  0  0  0  0  0
    4.7989    8.6794   12.7847 O   0  0  0  0  0  0  0  0  0  0  0  0
    6.0268    9.0674   13.3219 C   0  0  0  0  0  0  0  0  0  0  0  0
    7.1432    8.3967   12.5733 C   0  0  0  0  0  0  0  0  0  0  0  0
    6.8203    7.5341   11.5497 C   0  0  0  0  0  0  0  0  0  0  0  0
    7.8092    6.9026   10.8487 C   0  0  0  0  0  0  0  0  0  0  0  0
    9.1404    7.1213   11.1583 C   0  0  0  0  0  0  0  0  0  0  0  0
    9.4799    7.9822   12.1803 C   0  0  0  0  0  0  0  0  0  0  0  0
    8.4687    8.6103   12.8762 C   0  0  0  0  0  0  0  0  0  0  0  0
  1  2  1  0  0  0
  2  3  2  0  0  0
  3  4  1  0  0  0
  4  5  2  0  0  0
  5  6  1  0  0  0
  6  7  2  0  0  0
  7 22  1  0  0  0
 22 23  2  0  0  0
 22 24  1  0  0  0
 24 26  1  0  0  0
 26 27  1  0  0  0
 27 28  1  0  0  0
 28 29  1  0  0  0
 29 30  1  0  0  0
 30 31  1  0  0  0
 31 32  1  0  0  0
 32 33  1  0  0  0
 33 34  2  0  0  0
 34 35  1  0  0  0
 35 36  2  0  0  0
 36 37  1  0  0  0
 37 38  2  0  0  0
  5 10  1  0  0  0
 10 11  1  0  0  0
 11 12  2  0  0  0
 12 13  1  0  0  0
 13 14  1  0  0  0
 13 15  1  0  0  0
 15 16  1  0  0  0
 16 17  1  0  0  0
 17 18  1  0  0  0
 18 19  1  0  0  0
 19 20  1  0  0  0
  7  2  1  0  0  0
 30 26  1  0  0  0
 38 33  1  0  0  0
 14 10  2  0  0  0
 20 15  1  0  0  0
  1  8  1  0  0  0
  1  9  1  0  0  0
 24 25  1  0  0  0
 18 21  1  0  0  0
M  END
> <minimizedAffinity>
-8.65751

> <CNNscore>
0.3250450492

> <CNNaffinity>
6.5095686913

> <CNN_VS>
2.1159031391

> <CNNaffinity_variance>
0.6341911554

$$$$
[H]O[C@]1([H])C([H])([H])C([H])([H])[C@@]([H])(N([H])c2nc(N([H])C([H])([H])C([H])([H])C([H])([H])C([H])([H])[H])nc([H])c2-c2nc([H])c(N([H])[H])c([H])c2[H])C([H])([H])C1([H])[H]


 31 33  0  0  0  0  0  0  0  0999 V2000
    2.8067    0.1914   18.3722 C   0  0  0  0  0  0  0  0  0  0  0  0
    2.5279   -0.3155   17.1659 N   0  0  0  0  0  0  0  0  0  0  0  0
    2.5934    0.3812   16.0337 C   0  0  0  0  0  0  0  0  0  0  0  0
    2.9776    1.7441   16.0687 C   0  0  0  0  0  0  0  0  0  0  0  0
    3.2650    2.2618   17.2794 C   0  0  0  0  0  0  0  0  0  0  0  0
    3.1735    1.4815   18.4081 N   0  0  0  0  0  0  0  0  0  0  0  0
    3.0299    2.4206   14.7907 C   0  0  0  0  0  0  0  0  0  0  0  0
    2.3996    1.9942   13.6777 C   0  0  0  0  0  0  0  0  0  0  0  0
    2.5479    2.6283   12.4331 C   0  0  0  0  0  0  0  0  0  0  0  0
    3.3582    3.7177   12.3276 C   0  0  0  0  0  0  0  0  0  0  0  0
    3.5568    4.4102   11.1034 N   0  0  0  0  0  0  0  0  0  0  0  0
    4.0052    4.1508   13.4742 C   0  0  0  0  0  0  0  0  0  0  0  0
    3.8355    3.5193   14.6374 N   0  0  0  0  0  0  0  0  0  0  0  0
    4.3912    5.0113   10.9315 H   0  0  0  0  0  0  0  0  0  0  0  0
    2.8395    4.3090   10.3560 H   0  0  0  0  0  0  0  0  0  0  0  0
    2.7079   -0.6240   19.5255 N   0  0  0  0  0  0  0  0  0  0  0  0
    2.5554   -1.6475   19.3875 H   0  0  0  0  0  0  0  0  0  0  0  0
    2.8177   -0.0326   20.8161 C   0  0  0  0  0  0  0  0  0  0  0  0
    4.1998   -0.0553   21.3920 C   0  0  0  0  0  0  0  0  0  0  0  0
    6.2354    1.2718   21.3734 C   0  0  0  0  0  0  0  0  0  0  0  0
    4.7447    1.2880   21.7317 C   0  0  0  0  0  0  0  0  0  0  0  0
    3.7940    3.5761   17.4222 N   0  0  0  0  0  0  0  0  0  0  0  0
    3.4334    4.4444   17.0334 H   0  0  0  0  0  0  0  0  0  0  0  0
    5.0536    3.6857   18.1843 C   0  0  0  0  0  0  0  0  0  0  0  0
    6.0257    4.4795   17.3745 C   0  0  0  0  0  0  0  0  0  0  0  0
    5.7102    5.9616   17.3785 C   0  0  0  0  0  0  0  0  0  0  0  0
    5.6802    6.5149   18.7806 C   0  0  0  0  0  0  0  0  0  0  0  0
    6.7375    7.4012   18.9850 O   0  0  0  0  0  0  0  0  0  0  0  0
    5.7534    5.4029   19.8059 C   0  0  0  0  0  0  0  0  0  0  0  0
    4.7813    4.2912   19.5258 C   0  0  0  0  0  0  0  0  0  0  0  0
    7.6053    7.0045   18.6604 H   0  0  0  0  0  0  0  0  0  0  0  0
 20 21  1  0  0  0
 21 19  1  0  0  0
 19 18  1  0  0  0
 18 16  1  0  0  0
 16  1  1  0  0  0
  1  2  2  0  0  0
  2  3  1  0  0  0
  3  4  2  0  0  0
  4  5  1  0  0  0
  5 22  1  0  0  0
 22 24  1  0  0  0
 24 25  1  0  0  0
 25 26  1  0  0  0
 26 27  1  0  0  0
 27 28  1  0  0  0
 27 29  1  0  0  0
 29 30  1  0  0  0
  5  6  2  0  0  0
  4  7  1  0  0  0
  7  8  2  0  0  0
  8  9  1  0  0  0
  9 10  2  0  0  0
 10 11  1  0  0  0
 10 12  1  0  0  0
 12 13  2  0  0  0
  6  1  1  0  0  0
 13  7  1  0  0  0
 30 24  1  0  0  0
 16 17  1  0  0  0
 22 23  1  0  0  0
 28 31  1  0  0  0
 11 14  1  0  0  0
 11 15  1  0  0  0
M  END
> <minimizedAffinity>
-7.04245

> <CNNscore>
0.9195584655

> <CNNaffinity>
7.0257139206

> <CNN_VS>
6.4605545998

> <CNNaffinity_variance>
0.1136942953

$$$$
[H]O[C@]1([H])C([H])([H])C([H])([H])[C@@]([H])(N([H])c2nc(N([H])C([H])([H])C([H])([H])C([H])([H])C([H])([H])[H])nc([H])c2-c2nc([H])c(N([H])[H])c([H])c2[H])C([H])([H])C1([H])[H]


 31 33  0  0  0  0  0  0  0  0999 V2000
    2.9753    1.3077   16.8836 C   0  0  0  0  0  0  0  0  0  0  0  0
    2.8074    0.3891   17.8418 N   0  0  0  0  0  0  0  0  0  0  0  0
    3.2823    0.5105   19.0792 C   0  0  0  0  0  0  0  0  0  0  0  0
    4.0145    1.6680   19.4402 C   0  0  0  0  0  0  0  0  0  0  0  0
    4.1845    2.6008   18.4825 C   0  0  0  0  0  0  0  0  0  0  0  0
    3.6664    2.4063   17.2236 N   0  0  0  0  0  0  0  0  0  0  0  0
    4.4851    1.7190   20.8076 C   0  0  0  0  0  0  0  0  0  0  0  0
    3.6998    1.5446   21.8896 C   0  0  0  0  0  0  0  0  0  0  0  0
    4.1761    1.6914   23.2030 C   0  0  0  0  0  0  0  0  0  0  0  0
    5.4801    2.0247   23.4102 C   0  0  0  0  0  0  0  0  0  0  0  0
    6.0323    2.1902   24.7085 N   0  0  0  0  0  0  0  0  0  0  0  0
    6.2826    2.2046   22.2947 C   0  0  0  0  0  0  0  0  0  0  0  0
    5.7896    2.0543   21.0638 N   0  0  0  0  0  0  0  0  0  0  0  0
    6.8976    2.7461   24.8799 H   0  0  0  0  0  0  0  0  0  0  0  0
    5.5505    1.7373   25.5122 H   0  0  0  0  0  0  0  0  0  0  0  0
    2.4364    1.0936   15.5920 N   0  0  0  0  0  0  0  0  0  0  0  0
    2.3466    0.1084   15.2582 H   0  0  0  0  0  0  0  0  0  0  0  0
    2.0403    2.2097   14.8016 C   0  0  0  0  0  0  0  0  0  0  0  0
    2.9504    2.5074   13.6503 C   0  0  0  0  0  0  0  0  0  0  0  0
    2.8815    4.7361   14.6164 C   0  0  0  0  0  0  0  0  0  0  0  0
    3.7387    3.7615   13.8002 C   0  0  0  0  0  0  0  0  0  0  0  0
    4.7813    3.8619   18.7671 N   0  0  0  0  0  0  0  0  0  0  0  0
    5.7608    4.0664   18.9516 H   0  0  0  0  0  0  0  0  0  0  0  0
    3.8555    5.0081   18.8598 C   0  0  0  0  0  0  0  0  0  0  0  0
    3.3651    5.1039   20.2674 C   0  0  0  0  0  0  0  0  0  0  0  0
    4.4096    5.6693   21.2084 C   0  0  0  0  0  0  0  0  0  0  0  0
    4.8736    7.0325   20.7618 C   0  0  0  0  0  0  0  0  0  0  0  0
    4.4671    8.0137   21.6658 O   0  0  0  0  0  0  0  0  0  0  0  0
    4.3369    7.3660   19.3856 C   0  0  0  0  0  0  0  0  0  0  0  0
    4.5451    6.2533   18.3968 C   0  0  0  0  0  0  0  0  0  0  0  0
    3.4916    7.9070   21.8955 H   0  0  0  0  0  0  0  0  0  0  0  0
 20 21  1  0  0  0
 21 19  1  0  0  0
 19 18  1  0  0  0
 18 16  1  0  0  0
 16  1  1  0  0  0
  1  2  2  0  0  0
  2  3  1  0  0  0
  3  4  2  0  0  0
  4  5  1  0  0  0
  5 22  1  0  0  0
 22 24  1  0  0  0
 24 25  1  0  0  0
 25 26  1  0  0  0
 26 27  1  0  0  0
 27 28  1  0  0  0
 27 29  1  0  0  0
 29 30  1  0  0  0
  5  6  2  0  0  0
  4  7  1  0  0  0
  7  8  2  0  0  0
  8  9  1  0  0  0
  9 10  2  0  0  0
 10 11  1  0  0  0
 10 12  1  0  0  0
 12 13  2  0  0  0
  6  1  1  0  0  0
 13  7  1  0  0  0
 30 24  1  0  0  0
 16 17  1  0  0  0
 22 23  1  0  0  0
 28 31  1  0  0  0
 11 14  1  0  0  0
 11 15  1  0  0  0
M  END
> <minimizedAffinity>
-7.91054

> <CNNscore>
0.6665792465

> <CNNaffinity>
7.0230216980

> <CNN_VS>
4.6814002991

> <CNNaffinity_variance>
0.3967942595

$$$$
[H]O[C@]1([H])C([H])([H])C([H])([H])[C@@]([H])(N([H])c2nc(N([H])C([H])([H])C([H])([H])C([H])([H])C([H])([H])[H])nc([H])c2-c2nc([H])c(N([H])[H])c([H])c2[H])C([H])([H])C1([H])[H]


 31 33  0  0  0  0  0  0  0  0999 V2000
    3.4436    1.7702   16.7290 C   0  0  0  0  0  0  0  0  0  0  0  0
    3.2641    0.8371   17.6708 N   0  0  0  0  0  0  0  0  0  0  0  0
    3.7054    0.9489   18.9216 C   0  0  0  0  0  0  0  0  0  0  0  0
    4.4121    2.1114   19.3159 C   0  0  0  0  0  0  0  0  0  0  0  0
    4.5935    3.0587   18.3747 C   0  0  0  0  0  0  0  0  0  0  0  0
    4.1105    2.8736   17.1005 N   0  0  0  0  0  0  0  0  0  0  0  0
    4.8468    2.1510   20.6954 C   0  0  0  0  0  0  0  0  0  0  0  0
    6.1037    1.8859   21.1051 C   0  0  0  0  0  0  0  0  0  0  0  0
    6.4657    1.8460   22.4618 C   0  0  0  0  0  0  0  0  0  0  0  0
    5.5219    2.0802   23.4151 C   0  0  0  0  0  0  0  0  0  0  0  0
    5.8135    2.0568   24.8051 N   0  0  0  0  0  0  0  0  0  0  0  0
    4.2311    2.3503   22.9887 C   0  0  0  0  0  0  0  0  0  0  0  0
    3.9301    2.3794   21.6890 N   0  0  0  0  0  0  0  0  0  0  0  0
    5.0764    1.9074   25.5272 H   0  0  0  0  0  0  0  0  0  0  0  0
    6.8004    2.1946   25.1057 H   0  0  0  0  0  0  0  0  0  0  0  0
    2.9409    1.5656   15.4213 N   0  0  0  0  0  0  0  0  0  0  0  0
    2.3387    0.7289   15.2557 H   0  0  0  0  0  0  0  0  0  0  0  0
    3.2667    2.4916   14.3900 C   0  0  0  0  0  0  0  0  0  0  0  0
    2.0811    3.0886   13.6967 C   0  0  0  0  0  0  0  0  0  0  0  0
    1.3935    1.9032   11.6899 C   0  0  0  0  0  0  0  0  0  0  0  0
    1.1034    2.0897   13.1839 C   0  0  0  0  0  0  0  0  0  0  0  0
    5.1652    4.3241   18.6904 N   0  0  0  0  0  0  0  0  0  0  0  0
    6.1334    4.5365   18.9201 H   0  0  0  0  0  0  0  0  0  0  0  0
    4.2258    5.4616   18.7446 C   0  0  0  0  0  0  0  0  0  0  0  0
    3.5639    5.4614   20.0836 C   0  0  0  0  0  0  0  0  0  0  0  0
    4.4790    5.9609   21.1833 C   0  0  0  0  0  0  0  0  0  0  0  0
    4.9837    7.3512   20.8911 C   0  0  0  0  0  0  0  0  0  0  0  0
    4.4602    8.2686   21.8019 O   0  0  0  0  0  0  0  0  0  0  0  0
    4.6191    7.7780   19.4847 C   0  0  0  0  0  0  0  0  0  0  0  0
    4.9575    6.7352   18.4564 C   0  0  0  0  0  0  0  0  0  0  0  0
    3.4646    8.1469   21.9008 H   0  0  0  0  0  0  0  0  0  0  0  0
 20 21  1  0  0  0
 21 19  1  0  0  0
 19 18  1  0  0  0
 18 16  1  0  0  0
 16  1  1  0  0  0
  1  2  2  0  0  0
  2  3  1  0  0  0
  3  4  2  0  0  0
  4  5  1  0  0  0
  5 22  1  0  0  0
 22 24  1  0  0  0
 24 25  1  0  0  0
 25 26  1  0  0  0
 26 27  1  0  0  0
 27 28  1  0  0  0
 27 29  1  0  0  0
 29 30  1  0  0  0
  5  6  2  0  0  0
  4  7  1  0  0  0
  7  8  2  0  0  0
  8  9  1  0  0  0
  9 10  2  0  0  0
 10 11  1  0  0  0
 10 12  1  0  0  0
 12 13  2  0  0  0
  6  1  1  0  0  0
 13  7  1  0  0  0
 30 24  1  0  0  0
 16 17  1  0  0  0
 22 23  1  0  0  0
 28 31  1  0  0  0
 11 14  1  0  0  0
 11 15  1  0  0  0
M  END
> <minimizedAffinity>
-7.89090

> <CNNscore>
0.4575399160

> <CNNaffinity>
6.7627487183

> <CNN_VS>
3.0942275524

> <CNNaffinity_variance>
0.5573382974

$$$$
[H]O[C@]1([H])C([H])([H])C([H])([H])[C@@]([H])(N([H])c2nc(N([H])C([H])([H])C([H])([H])C([H])([H])C([H])([H])[H])nc([H])c2-c2nc([H])c(N([H])[H])c([H])c2[H])C([H])([H])C1([H])[H]


 31 33  0  0  0  0  0  0  0  0999 V2000
    3.9362    1.8490   20.2287 C   0  0  0  0  0  0  0  0  0  0  0  0
    3.8699    0.9207   19.2676 N   0  0  0  0  0  0  0  0  0  0  0  0
    3.7089    1.1984   17.9759 C   0  0  0  0  0  0  0  0  0  0  0  0
    3.5970    2.5464   17.5558 C   0  0  0  0  0  0  0  0  0  0  0  0
    3.6674    3.4886   18.5169 C   0  0  0  0  0  0  0  0  0  0  0  0
    3.8331    3.1270   19.8333 N   0  0  0  0  0  0  0  0  0  0  0  0
    3.4329    2.7551   16.1334 C   0  0  0  0  0  0  0  0  0  0  0  0
    2.8174    1.8892   15.3032 C   0  0  0  0  0  0  0  0  0  0  0  0
    2.7577    2.0844   13.9134 C   0  0  0  0  0  0  0  0  0  0  0  0
    3.3410    3.1861   13.3652 C   0  0  0  0  0  0  0  0  0  0  0  0
    3.3211    3.4500   11.9696 N   0  0  0  0  0  0  0  0  0  0  0  0
    3.9741    4.0720   14.2226 C   0  0  0  0  0  0  0  0  0  0  0  0
    4.0067    3.8487   15.5378 N   0  0  0  0  0  0  0  0  0  0  0  0
    4.0146    4.0792   11.5110 H   0  0  0  0  0  0  0  0  0  0  0  0
    2.5850    2.9956   11.3908 H   0  0  0  0  0  0  0  0  0  0  0  0
    4.1067    1.4618   21.5799 N   0  0  0  0  0  0  0  0  0  0  0  0
    3.6166    0.5994   21.9056 H   0  0  0  0  0  0  0  0  0  0  0  0
    4.9275    2.2472   22.4381 C   0  0  0  0  0  0  0  0  0  0  0  0
    6.2886    1.6748   22.6876 C   0  0  0  0  0  0  0  0  0  0  0  0
    7.1664   -0.1196   21.3038 C   0  0  0  0  0  0  0  0  0  0  0  0
    7.0755    1.4036   21.4531 C   0  0  0  0  0  0  0  0  0  0  0  0
    3.7065    4.8762   18.1998 N   0  0  0  0  0  0  0  0  0  0  0  0
    3.2794    5.3522   17.4084 H   0  0  0  0  0  0  0  0  0  0  0  0
    4.5127    5.7222   19.1018 C   0  0  0  0  0  0  0  0  0  0  0  0
    5.9353    5.6688   18.6501 C   0  0  0  0  0  0  0  0  0  0  0  0
    6.1792    6.4930   17.4021 C   0  0  0  0  0  0  0  0  0  0  0  0
    5.7890    7.9346   17.6089 C   0  0  0  0  0  0  0  0  0  0  0  0
    6.9137    8.7590   17.5872 O   0  0  0  0  0  0  0  0  0  0  0  0
    5.0590    8.1175   18.9230 C   0  0  0  0  0  0  0  0  0  0  0  0
    3.9587    7.1126   19.1197 C   0  0  0  0  0  0  0  0  0  0  0  0
    7.6427    8.3860   18.1749 H   0  0  0  0  0  0  0  0  0  0  0  0
 20 21  1  0  0  0
 21 19  1  0  0  0
 19 18  1  0  0  0
 18 16  1  0  0  0
 16  1  1  0  0  0
  1  2  2  0  0  0
  2  3  1  0  0  0
  3  4  2  0  0  0
  4  5  1  0  0  0
  5 22  1  0  0  0
 22 24  1  0  0  0
 24 25  1  0  0  0
 25 26  1  0  0  0
 26 27  1  0  0  0
 27 28  1  0  0  0
 27 29  1  0  0  0
 29 30  1  0  0  0
  5  6  2  0  0  0
  4  7  1  0  0  0
  7  8  2  0  0  0
  8  9  1  0  0  0
  9 10  2  0  0  0
 10 11  1  0  0  0
 10 12  1  0  0  0
 12 13  2  0  0  0
  6  1  1  0  0  0
 13  7  1  0  0  0
 30 24  1  0  0  0
 16 17  1  0  0  0
 22 23  1  0  0  0
 28 31  1  0  0  0
 11 14  1  0  0  0
 11 15  1  0  0  0
M  END
> <minimizedAffinity>
-6.62065

> <CNNscore>
0.3821618557

> <CNNaffinity>
6.4348220825

> <CNN_VS>
2.4591436386

> <CNNaffinity_variance>
0.5074977279

$$$$
[H]O[C@]1([H])C([H])([H])C([H])([H])[C@@]([H])(N([H])c2nc(N([H])C([H])([H])C([H])([H])C([H])([H])C([H])([H])[H])nc([H])c2-c2nc([H])c(N([H])[H])c([H])c2[H])C([H])([H])C1([H])[H]


 31 33  0  0  0  0  0  0  0  0999 V2000
    4.6204    5.1387   18.0419 C   0  0  0  0  0  0  0  0  0  0  0  0
    4.7390    5.6966   16.8317 N   0  0  0  0  0  0  0  0  0  0  0  0
    4.2592    5.1563   15.7139 C   0  0  0  0  0  0  0  0  0  0  0  0
    3.5763    3.9167   15.7698 C   0  0  0  0  0  0  0  0  0  0  0  0
    3.4479    3.3497   16.9857 C   0  0  0  0  0  0  0  0  0  0  0  0
    3.9716    3.9657   18.0981 N   0  0  0  0  0  0  0  0  0  0  0  0
    3.0816    3.4085   14.5086 C   0  0  0  0  0  0  0  0  0  0  0  0
    2.9049    2.1008   14.2317 C   0  0  0  0  0  0  0  0  0  0  0  0
    2.5088    1.6415   12.9647 C   0  0  0  0  0  0  0  0  0  0  0  0
    2.2919    2.5388   11.9635 C   0  0  0  0  0  0  0  0  0  0  0  0
    1.8900    2.1490   10.6581 N   0  0  0  0  0  0  0  0  0  0  0  0
    2.4768    3.8816   12.2528 C   0  0  0  0  0  0  0  0  0  0  0  0
    2.8531    4.2752   13.4710 N   0  0  0  0  0  0  0  0  0  0  0  0
    2.0365    2.7576    9.8243 H   0  0  0  0  0  0  0  0  0  0  0  0
    1.4336    1.2214   10.5375 H   0  0  0  0  0  0  0  0  0  0  0  0
    5.1649    5.7845   19.1782 N   0  0  0  0  0  0  0  0  0  0  0  0
    6.0959    5.4617   19.5232 H   0  0  0  0  0  0  0  0  0  0  0  0
    4.4380    6.8363   19.8048 C   0  0  0  0  0  0  0  0  0  0  0  0
    3.9261    6.5060   21.1727 C   0  0  0  0  0  0  0  0  0  0  0  0
    5.3249    4.5539   20.8009 C   0  0  0  0  0  0  0  0  0  0  0  0
    4.7009    5.4484   21.8785 C   0  0  0  0  0  0  0  0  0  0  0  0
    2.6636    2.1779   17.1833 N   0  0  0  0  0  0  0  0  0  0  0  0
    1.7809    1.9306   16.7418 H   0  0  0  0  0  0  0  0  0  0  0  0
    3.1659    1.2278   18.1956 C   0  0  0  0  0  0  0  0  0  0  0  0
    4.5919    0.9151   17.8802 C   0  0  0  0  0  0  0  0  0  0  0  0
    5.5293    2.0472   18.2486 C   0  0  0  0  0  0  0  0  0  0  0  0
    5.4209    2.3988   19.7108 C   0  0  0  0  0  0  0  0  0  0  0  0
    6.5966    2.0718   20.3861 O   0  0  0  0  0  0  0  0  0  0  0  0
    4.2553    1.6808   20.3579 C   0  0  0  0  0  0  0  0  0  0  0  0
    2.9848    1.8055   19.5644 C   0  0  0  0  0  0  0  0  0  0  0  0
    6.8954    1.1377   20.1537 H   0  0  0  0  0  0  0  0  0  0  0  0
 20 21  1  0  0  0
 21 19  1  0  0  0
 19 18  1  0  0  0
 18 16  1  0  0  0
 16  1  1  0  0  0
  1  2  2  0  0  0
  2  3  1  0  0  0
  3  4  2  0  0  0
  4  5  1  0  0  0
  5 22  1  0  0  0
 22 24  1  0  0  0
 24 25  1  0  0  0
 25 26  1  0  0  0
 26 27  1  0  0  0
 27 28  1  0  0  0
 27 29  1  0  0  0
 29 30  1  0  0  0
  5  6  2  0  0  0
  4  7  1  0  0  0
  7  8  2  0  0  0
  8  9  1  0  0  0
  9 10  2  0  0  0
 10 11  1  0  0  0
 10 12  1  0  0  0
 12 13  2  0  0  0
  6  1  1  0  0  0
 13  7  1  0  0  0
 30 24  1  0  0  0
 16 17  1  0  0  0
 22 23  1  0  0  0
 28 31  1  0  0  0
 11 14  1  0  0  0
 11 15  1  0  0  0
M  END
> <minimizedAffinity>
-2.14337

> <CNNscore>
0.3744746447

> <CNNaffinity>
6.0172743797

> <CNN_VS>
2.2533166409

> <CNNaffinity_variance>
1.2606627941

$$$$
[H]O[C@]1([H])C([H])([H])C([H])([H])[C@@]([H])(N([H])c2nc(N([H])C([H])([H])C([H])([H])C([H])([H])C([H])([H])[H])nc([H])c2-c2nc([H])c(N([H])[H])c([H])c2[H])C([H])([H])C1([H])[H]


 31 33  0  0  0  0  0  0  0  0999 V2000
    4.5817    1.7046   20.0220 C   0  0  0  0  0  0  0  0  0  0  0  0
    4.1618    0.8182   19.1121 N   0  0  0  0  0  0  0  0  0  0  0  0
    3.8495    1.1325   17.8571 C   0  0  0  0  0  0  0  0  0  0  0  0
    3.9556    2.4764   17.4223 C   0  0  0  0  0  0  0  0  0  0  0  0
    4.3824    3.3754   18.3310 C   0  0  0  0  0  0  0  0  0  0  0  0
    4.6856    2.9779   19.6121 N   0  0  0  0  0  0  0  0  0  0  0  0
    3.6040    2.7249   16.0409 C   0  0  0  0  0  0  0  0  0  0  0  0
    2.8894    1.8775   15.2732 C   0  0  0  0  0  0  0  0  0  0  0  0
    2.6457    2.1127   13.9099 C   0  0  0  0  0  0  0  0  0  0  0  0
    3.1450    3.2356   13.3232 C   0  0  0  0  0  0  0  0  0  0  0  0
    2.9395    3.5400   11.9511 N   0  0  0  0  0  0  0  0  0  0  0  0
    3.8803    4.1023   14.1162 C   0  0  0  0  0  0  0  0  0  0  0  0
    4.0875    3.8410   15.4082 N   0  0  0  0  0  0  0  0  0  0  0  0
    3.5626    4.1892   11.4243 H   0  0  0  0  0  0  0  0  0  0  0  0
    2.1362    3.0954   11.4608 H   0  0  0  0  0  0  0  0  0  0  0  0
    4.8900    1.2807   21.3372 N   0  0  0  0  0  0  0  0  0  0  0  0
    4.2199    0.6355   21.8113 H   0  0  0  0  0  0  0  0  0  0  0  0
    6.0842    1.7398   21.9621 C   0  0  0  0  0  0  0  0  0  0  0  0
    5.8724    2.7986   22.9998 C   0  0  0  0  0  0  0  0  0  0  0  0
    3.8262    4.0252   23.4616 C   0  0  0  0  0  0  0  0  0  0  0  0
    4.5681    2.7070   23.7120 C   0  0  0  0  0  0  0  0  0  0  0  0
    4.6594    4.7252   17.9718 N   0  0  0  0  0  0  0  0  0  0  0  0
    5.5019    5.1011   17.5427 H   0  0  0  0  0  0  0  0  0  0  0  0
    3.6158    5.7116   18.3142 C   0  0  0  0  0  0  0  0  0  0  0  0
    3.4268    5.7012   19.7958 C   0  0  0  0  0  0  0  0  0  0  0  0
    4.5522    6.4023   20.5292 C   0  0  0  0  0  0  0  0  0  0  0  0
    4.7047    7.8300   20.0690 C   0  0  0  0  0  0  0  0  0  0  0  0
    4.3593    8.7173   21.0881 O   0  0  0  0  0  0  0  0  0  0  0  0
    3.8449    8.1044   18.8531 C   0  0  0  0  0  0  0  0  0  0  0  0
    4.0002    7.0580   17.7852 C   0  0  0  0  0  0  0  0  0  0  0  0
    3.4813    8.4558   21.5085 H   0  0  0  0  0  0  0  0  0  0  0  0
 20 21  1  0  0  0
 21 19  1  0  0  0
 19 18  1  0  0  0
 18 16  1  0  0  0
 16  1  1  0  0  0
  1  2  2  0  0  0
  2  3  1  0  0  0
  3  4  2  0  0  0
  4  5  1  0  0  0
  5 22  1  0  0  0
 22 24  1  0  0  0
 24 25  1  0  0  0
 25 26  1  0  0  0
 26 27  1  0  0  0
 27 28  1  0  0  0
 27 29  1  0  0  0
 29 30  1  0  0  0
  5  6  2  0  0  0
  4  7  1  0  0  0
  7  8  2  0  0  0
  8  9  1  0  0  0
  9 10  2  0  0  0
 10 11  1  0  0  0
 10 12  1  0  0  0
 12 13  2  0  0  0
  6  1  1  0  0  0
 13  7  1  0  0  0
 30 24  1  0  0  0
 16 17  1  0  0  0
 22 23  1  0  0  0
 28 31  1  0  0  0
 11 14  1  0  0  0
 11 15  1  0  0  0
M  END
> <minimizedAffinity>
-8.00708

> <CNNscore>
0.3415946960

> <CNNaffinity>
6.5211005211

> <CNN_VS>
2.2275733948

> <CNNaffinity_variance>
0.5813989639

$$$$
[H]O[C@]1([H])C([H])([H])C([H])([H])[C@@]([H])(N([H])c2nc(N([H])C([H])([H])C([H])([H])C([H])([H])C([H])([H])[H])nc([H])c2-c2nc([H])c(N([H])[H])c([H])c2[H])C([H])([H])C1([H])[H]


 31 33  0  0  0  0  0  0  0  0999 V2000
    3.8950    2.7547   17.1679 C   0  0  0  0  0  0  0  0  0  0  0  0
    3.3566    1.6874   16.5671 N   0  0  0  0  0  0  0  0  0  0  0  0
    2.9607    1.6706   15.2964 C   0  0  0  0  0  0  0  0  0  0  0  0
    3.1022    2.8342   14.5012 C   0  0  0  0  0  0  0  0  0  0  0  0
    3.6481    3.9127   15.0969 C   0  0  0  0  0  0  0  0  0  0  0  0
    4.0326    3.8575   16.4161 N   0  0  0  0  0  0  0  0  0  0  0  0
    2.6535    2.7227   13.1300 C   0  0  0  0  0  0  0  0  0  0  0  0
    1.6349    1.9381   12.7241 C   0  0  0  0  0  0  0  0  0  0  0  0
    1.2875    1.7873   11.3713 C   0  0  0  0  0  0  0  0  0  0  0  0
    1.9983    2.4512   10.4182 C   0  0  0  0  0  0  0  0  0  0  0  0
    1.7055    2.3478    9.0321 N   0  0  0  0  0  0  0  0  0  0  0  0
    3.0455    3.2548   10.8407 C   0  0  0  0  0  0  0  0  0  0  0  0
    3.3413    3.3707   12.1367 N   0  0  0  0  0  0  0  0  0  0  0  0
    2.4094    2.5684    8.2953 H   0  0  0  0  0  0  0  0  0  0  0  0
    0.7521    2.0402    8.7497 H   0  0  0  0  0  0  0  0  0  0  0  0
    4.2859    2.6830   18.5268 N   0  0  0  0  0  0  0  0  0  0  0  0
    4.5136    3.5765   19.0166 H   0  0  0  0  0  0  0  0  0  0  0  0
    4.3553    1.4159   19.1725 C   0  0  0  0  0  0  0  0  0  0  0  0
    5.0511    1.4338   20.4984 C   0  0  0  0  0  0  0  0  0  0  0  0
    6.1996    2.6070   22.2900 C   0  0  0  0  0  0  0  0  0  0  0  0
    5.5174    2.7810   20.9280 C   0  0  0  0  0  0  0  0  0  0  0  0
    3.9661    5.0900   14.3617 N   0  0  0  0  0  0  0  0  0  0  0  0
    4.6917    5.2156   13.6596 H   0  0  0  0  0  0  0  0  0  0  0  0
    3.1807    6.2937   14.6990 C   0  0  0  0  0  0  0  0  0  0  0  0
    3.6866    7.4316   13.8742 C   0  0  0  0  0  0  0  0  0  0  0  0
    3.2337    7.3480   12.4306 C   0  0  0  0  0  0  0  0  0  0  0  0
    1.7302    7.3032   12.3264 C   0  0  0  0  0  0  0  0  0  0  0  0
    1.2410    8.4668   11.7331 O   0  0  0  0  0  0  0  0  0  0  0  0
    1.0953    7.1312   13.6903 C   0  0  0  0  0  0  0  0  0  0  0  0
    1.7241    6.0224   14.4868 C   0  0  0  0  0  0  0  0  0  0  0  0
    1.6535    9.2843   12.1543 H   0  0  0  0  0  0  0  0  0  0  0  0
 20 21  1  0  0  0
 21 19  1  0  0  0
 19 18  1  0  0  0
 18 16  1  0  0  0
 16  1  1  0  0  0
  1  2  2  0  0  0
  2  3  1  0  0  0
  3  4  2  0  0  0
  4  5  1  0  0  0
  5 22  1  0  0  0
 22 24  1  0  0  0
 24 25  1  0  0  0
 25 26  1  0  0  0
 26 27  1  0  0  0
 27 28  1  0  0  0
 27 29  1  0  0  0
 29 30  1  0  0  0
  5  6  2  0  0  0
  4  7  1  0  0  0
  7  8  2  0  0  0
  8  9  1  0  0  0
  9 10  2  0  0  0
 10 11  1  0  0  0
 10 12  1  0  0  0
 12 13  2  0  0  0
  6  1  1  0  0  0
 13  7  1  0  0  0
 30 24  1  0  0  0
 16 17  1  0  0  0
 22 23  1  0  0  0
 28 31  1  0  0  0
 11 14  1  0  0  0
 11 15  1  0  0  0
M  END
> <minimizedAffinity>
-6.19705

> <CNNscore>
0.2254317999

> <CNNaffinity>
5.9949808121

> <CNN_VS>
1.3514592648

> <CNNaffinity_variance>
0.3514974415

$$$$
[H]O[C@]1([H])C([H])([H])C([H])([H])[C@@]([H])(N([H])c2nc(N([H])C([H])([H])C([H])([H])C([H])([H])C([H])([H])[H])nc([H])c2-c2nc([H])c(N([H])[H])c([H])c2[H])C([H])([H])C1([H])[H]


 31 33  0  0  0  0  0  0  0  0999 V2000
    3.7486    1.9500   17.5174 C   0  0  0  0  0  0  0  0  0  0  0  0
    3.3832    1.6954   16.2558 N   0  0  0  0  0  0  0  0  0  0  0  0
    3.3291    2.6171   15.2972 C   0  0  0  0  0  0  0  0  0  0  0  0
    3.6717    3.9593   15.5930 C   0  0  0  0  0  0  0  0  0  0  0  0
    4.0457    4.2240   16.8605 C   0  0  0  0  0  0  0  0  0  0  0  0
    4.0762    3.2201   17.7998 N   0  0  0  0  0  0  0  0  0  0  0  0
    3.5925    4.8913   14.4891 C   0  0  0  0  0  0  0  0  0  0  0  0
    4.0719    4.6488   13.2525 C   0  0  0  0  0  0  0  0  0  0  0  0
    4.0573    5.6136   12.2316 C   0  0  0  0  0  0  0  0  0  0  0  0
    3.5438    6.8493   12.4839 C   0  0  0  0  0  0  0  0  0  0  0  0
    3.4953    7.8747   11.5021 N   0  0  0  0  0  0  0  0  0  0  0  0
    3.0541    7.0941   13.7571 C   0  0  0  0  0  0  0  0  0  0  0  0
    3.0864    6.1483   14.6979 N   0  0  0  0  0  0  0  0  0  0  0  0
    3.4200    8.8840   11.7528 H   0  0  0  0  0  0  0  0  0  0  0  0
    3.5369    7.6010   10.4987 H   0  0  0  0  0  0  0  0  0  0  0  0
    3.7751    0.9063   18.4737 N   0  0  0  0  0  0  0  0  0  0  0  0
    3.6650   -0.0733   18.1297 H   0  0  0  0  0  0  0  0  0  0  0  0
    3.9481    1.2197   19.8518 C   0  0  0  0  0  0  0  0  0  0  0  0
    5.2582    1.8666   20.1800 C   0  0  0  0  0  0  0  0  0  0  0  0
    6.9365    0.6975   21.4921 C   0  0  0  0  0  0  0  0  0  0  0  0
    5.7249    1.6335   21.5745 C   0  0  0  0  0  0  0  0  0  0  0  0
    4.5434    5.5031   17.2396 N   0  0  0  0  0  0  0  0  0  0  0  0
    5.4861    5.8691   17.1276 H   0  0  0  0  0  0  0  0  0  0  0  0
    3.5862    6.3893   17.9310 C   0  0  0  0  0  0  0  0  0  0  0  0
    3.3425    5.8421   19.2992 C   0  0  0  0  0  0  0  0  0  0  0  0
    4.5015    6.0975   20.2412 C   0  0  0  0  0  0  0  0  0  0  0  0
    4.8059    7.5698   20.3540 C   0  0  0  0  0  0  0  0  0  0  0  0
    4.5089    8.0393   21.6334 O   0  0  0  0  0  0  0  0  0  0  0  0
    4.0215    8.3672   19.3332 C   0  0  0  0  0  0  0  0  0  0  0  0
    4.1161    7.7891   17.9490 C   0  0  0  0  0  0  0  0  0  0  0  0
    3.5951    7.7299   21.9253 H   0  0  0  0  0  0  0  0  0  0  0  0
 20 21  1  0  0  0
 21 19  1  0  0  0
 19 18  1  0  0  0
 18 16  1  0  0  0
 16  1  1  0  0  0
  1  2  2  0  0  0
  2  3  1  0  0  0
  3  4  2  0  0  0
  4  5  1  0  0  0
  5 22  1  0  0  0
 22 24  1  0  0  0
 24 25  1  0  0  0
 25 26  1  0  0  0
 26 27  1  0  0  0
 27 28  1  0  0  0
 27 29  1  0  0  0
 29 30  1  0  0  0
  5  6  2  0  0  0
  4  7  1  0  0  0
  7  8  2  0  0  0
  8  9  1  0  0  0
  9 10  2  0  0  0
 10 11  1  0  0  0
 10 12  1  0  0  0
 12 13  2  0  0  0
  6  1  1  0  0  0
 13  7  1  0  0  0
 30 24  1  0  0  0
 16 17  1  0  0  0
 22 23  1  0  0  0
 28 31  1  0  0  0
 11 14  1  0  0  0
 11 15  1  0  0  0
M  END
> <minimizedAffinity>
-7.24181

> <CNNscore>
0.2172332704

> <CNNaffinity>
6.0377111435

> <CNN_VS>
1.3115917444

> <CNNaffinity_variance>
0.7851255536

$$$$
[H]O[C@]1([H])C([H])([H])C([H])([H])[C@@]([H])(N([H])c2nc(N([H])C([H])([H])C([H])([H])C([H])([H])C([H])([H])[H])nc([H])c2-c2nc([H])c(N([H])[H])c([H])c2[H])C([H])([H])C1([H])[H]


 31 33  0  0  0  0  0  0  0  0999 V2000
    4.0152    3.0957   16.5468 C   0  0  0  0  0  0  0  0  0  0  0  0
    3.5570    2.1457   17.3699 N   0  0  0  0  0  0  0  0  0  0  0  0
    3.9349    2.0167   18.6395 C   0  0  0  0  0  0  0  0  0  0  0  0
    4.8773    2.9212   19.1873 C   0  0  0  0  0  0  0  0  0  0  0  0
    5.3407    3.8845   18.3666 C   0  0  0  0  0  0  0  0  0  0  0  0
    4.9061    3.9555   17.0638 N   0  0  0  0  0  0  0  0  0  0  0  0
    5.2234    2.7112   20.5765 C   0  0  0  0  0  0  0  0  0  0  0  0
    6.0494    1.7407   21.0167 C   0  0  0  0  0  0  0  0  0  0  0  0
    6.2896    1.5119   22.3817 C   0  0  0  0  0  0  0  0  0  0  0  0
    5.6706    2.2907   23.3115 C   0  0  0  0  0  0  0  0  0  0  0  0
    5.8648    2.1186   24.7081 N   0  0  0  0  0  0  0  0  0  0  0  0
    4.8212    3.2856   22.8538 C   0  0  0  0  0  0  0  0  0  0  0  0
    4.6217    3.4697   21.5474 N   0  0  0  0  0  0  0  0  0  0  0  0
    5.1786    2.4634   25.4133 H   0  0  0  0  0  0  0  0  0  0  0  0
    6.7251    1.6299   25.0312 H   0  0  0  0  0  0  0  0  0  0  0  0
    3.5587    3.1563   15.2079 N   0  0  0  0  0  0  0  0  0  0  0  0
    3.5593    4.0866   14.7340 H   0  0  0  0  0  0  0  0  0  0  0  0
    3.1204    1.9666   14.5601 C   0  0  0  0  0  0  0  0  0  0  0  0
    2.0263    2.1738   13.5588 C   0  0  0  0  0  0  0  0  0  0  0  0
    1.1870    2.1115   11.2792 C   0  0  0  0  0  0  0  0  0  0  0  0
    2.4479    1.9897   12.1428 C   0  0  0  0  0  0  0  0  0  0  0  0
    6.1824    4.9294   18.8434 N   0  0  0  0  0  0  0  0  0  0  0  0
    7.1973    4.9360   18.9142 H   0  0  0  0  0  0  0  0  0  0  0  0
    5.4935    6.1333   19.3491 C   0  0  0  0  0  0  0  0  0  0  0  0
    6.0925    7.3307   18.6871 C   0  0  0  0  0  0  0  0  0  0  0  0
    5.6418    7.4846   17.2485 C   0  0  0  0  0  0  0  0  0  0  0  0
    4.1402    7.5743   17.1481 C   0  0  0  0  0  0  0  0  0  0  0  0
    3.7481    8.8441   16.7249 O   0  0  0  0  0  0  0  0  0  0  0  0
    3.4865    7.2657   18.4787 C   0  0  0  0  0  0  0  0  0  0  0  0
    4.0211    6.0107   19.1100 C   0  0  0  0  0  0  0  0  0  0  0  0
    4.2221    9.5599   17.2530 H   0  0  0  0  0  0  0  0  0  0  0  0
 20 21  1  0  0  0
 21 19  1  0  0  0
 19 18  1  0  0  0
 18 16  1  0  0  0
 16  1  1  0  0  0
  1  2  2  0  0  0
  2  3  1  0  0  0
  3  4  2  0  0  0
  4  5  1  0  0  0
  5 22  1  0  0  0
 22 24  1  0  0  0
 24 25  1  0  0  0
 25 26  1  0  0  0
 26 27  1  0  0  0
 27 28  1  0  0  0
 27 29  1  0  0  0
 29 30  1  0  0  0
  5  6  2  0  0  0
  4  7  1  0  0  0
  7  8  2  0  0  0
  8  9  1  0  0  0
  9 10  2  0  0  0
 10 11  1  0  0  0
 10 12  1  0  0  0
 12 13  2  0  0  0
  6  1  1  0  0  0
 13  7  1  0  0  0
 30 24  1  0  0  0
 16 17  1  0  0  0
 22 23  1  0  0  0
 28 31  1  0  0  0
 11 14  1  0  0  0
 11 15  1  0  0  0
M  END
> <minimizedAffinity>
-6.68162

> <CNNscore>
0.2120957226

> <CNNaffinity>
6.2657623291

> <CNN_VS>
1.3289413452

> <CNNaffinity_variance>
0.2998836339

$$$$
[H]c1c([H])c(N2C([H])([H])C([H])([H])N([H])C([H])([H])C2([H])[H])c([H])c([H])c1-c1nn(C([H])([H])C2([H])C([H])([H])C([H])([H])C([H])(N([H])[H])C([H])([H])C2([H])[H])c2nc(N([H])C([H])([H])[H])nc([H])c12


 35 39  0  0  0  0  0  0  0  0999 V2000
    3.1491    0.1865   19.1171 C   0  0  0  0  0  0  0  0  0  0  0  0
    2.4173   -0.2052   18.0597 N   0  0  0  0  0  0  0  0  0  0  0  0
    2.4134    0.4682   16.9051 C   0  0  0  0  0  0  0  0  0  0  0  0
    3.1972    1.6152   16.8009 C   0  0  0  0  0  0  0  0  0  0  0  0
    3.4346    2.5033   15.8051 C   0  0  0  0  0  0  0  0  0  0  0  0
    4.2984    3.4042   16.2820 N   0  0  0  0  0  0  0  0  0  0  0  0
    4.6280    3.1266   17.5593 N   0  0  0  0  0  0  0  0  0  0  0  0
    3.9490    2.0129   17.8965 C   0  0  0  0  0  0  0  0  0  0  0  0
    3.9011    1.2880   19.0157 N   0  0  0  0  0  0  0  0  0  0  0  0
    2.8442    2.4618   14.4592 C   0  0  0  0  0  0  0  0  0  0  0  0
    3.4584    3.1019   13.4240 C   0  0  0  0  0  0  0  0  0  0  0  0
    2.8647    3.0414   12.1579 C   0  0  0  0  0  0  0  0  0  0  0  0
    1.6907    2.3546   11.9562 C   0  0  0  0  0  0  0  0  0  0  0  0
    1.1003    1.7173   13.0401 C   0  0  0  0  0  0  0  0  0  0  0  0
    1.6735    1.7709   14.2826 C   0  0  0  0  0  0  0  0  0  0  0  0
    1.0697    2.2671   10.7120 N   0  0  0  0  0  0  0  0  0  0  0  0
    1.0968    1.1064    9.8703 C   0  0  0  0  0  0  0  0  0  0  0  0
   -0.2921    0.6649    9.4525 C   0  0  0  0  0  0  0  0  0  0  0  0
   -1.1737    1.8072    9.2590 N   0  0  0  0  0  0  0  0  0  0  0  0
   -0.3534    2.9759    8.9258 C   0  0  0  0  0  0  0  0  0  0  0  0
    0.3313    3.4184   10.1924 C   0  0  0  0  0  0  0  0  0  0  0  0
   -1.6424    2.0326   10.1653 H   0  0  0  0  0  0  0  0  0  0  0  0
    3.1716    0.1422   21.5949 C   0  0  0  0  0  0  0  0  0  0  0  0
    3.1209   -0.5738   20.3439 N   0  0  0  0  0  0  0  0  0  0  0  0
    3.0659   -1.5997   20.3301 H   0  0  0  0  0  0  0  0  0  0  0  0
    5.5122    3.9156   18.3576 C   0  0  0  0  0  0  0  0  0  0  0  0
    4.9664    5.2004   18.9006 C   0  0  0  0  0  0  0  0  0  0  0  0
    3.7910    4.9708   19.7532 C   0  0  0  0  0  0  0  0  0  0  0  0
    4.1675    4.5516   21.1650 C   0  0  0  0  0  0  0  0  0  0  0  0
    4.8522    5.8050   21.7313 C   0  0  0  0  0  0  0  0  0  0  0  0
    5.0639    5.7234   23.1396 N   0  0  0  0  0  0  0  0  0  0  0  0
    6.1610    5.8923   21.0114 C   0  0  0  0  0  0  0  0  0  0  0  0
    6.0542    6.0267   19.5285 C   0  0  0  0  0  0  0  0  0  0  0  0
    4.4292    4.9783   23.5246 H   0  0  0  0  0  0  0  0  0  0  0  0
    4.7109    6.6274   23.5750 H   0  0  0  0  0  0  0  0  0  0  0  0
 23 24  1  0  0  0
 24  1  1  0  0  0
  1  2  2  0  0  0
  2  3  1  0  0  0
  3  4  2  0  0  0
  4  5  1  0  0  0
  5  6  2  0  0  0
  6  7  1  0  0  0
  7 26  1  0  0  0
 26 27  1  0  0  0
 27 28  1  0  0  0
 28 29  1  0  0  0
 29 30  1  0  0  0
 30 31  1  0  0  0
 30 32  1  0  0  0
 32 33  1  0  0  0
  7  8  1  0  0  0
  8  9  2  0  0  0
  5 10  1  0  0  0
 10 11  2  0  0  0
 11 12  1  0  0  0
 12 13  2  0  0  0
 13 14  1  0  0  0
 14 15  2  0  0  0
 13 16  1  0  0  0
 16 17  1  0  0  0
 17 18  1  0  0  0
 18 19  1  0  0  0
 19 20  1  0  0  0
 20 21  1  0  0  0
  9  1  1  0  0  0
 15 10  1  0  0  0
 21 16  1  0  0  0
  8  4  1  0  0  0
 33 27  1  0  0  0
 24 25  1  0  0  0
 31 34  1  0  0  0
 31 35  1  0  0  0
 19 22  1  0  0  0
M  END
> <minimizedAffinity>
-8.73088

> <CNNscore>
0.9666244984

> <CNNaffinity>
7.5016126633

> <CNN_VS>
7.2512426376

> <CNNaffinity_variance>
0.2243633568

$$$$
[H]c1c([H])c(N2C([H])([H])C([H])([H])N([H])C([H])([H])C2([H])[H])c([H])c([H])c1-c1nn(C([H])([H])C2([H])C([H])([H])C([H])([H])C([H])(N([H])[H])C([H])([H])C2([H])[H])c2nc(N([H])C([H])([H])[H])nc([H])c12


 35 39  0  0  0  0  0  0  0  0999 V2000
    2.8941    0.0462   18.7769 C   0  0  0  0  0  0  0  0  0  0  0  0
    2.3943   -0.2094   17.5554 N   0  0  0  0  0  0  0  0  0  0  0  0
    2.6005    0.6040   16.5150 C   0  0  0  0  0  0  0  0  0  0  0  0
    3.3605    1.7551   16.7103 C   0  0  0  0  0  0  0  0  0  0  0  0
    3.7665    2.7615   15.8985 C   0  0  0  0  0  0  0  0  0  0  0  0
    4.4970    3.5953   16.6445 N   0  0  0  0  0  0  0  0  0  0  0  0
    4.5762    3.1592   17.9175 N   0  0  0  0  0  0  0  0  0  0  0  0
    3.8722    2.0118   17.9736 C   0  0  0  0  0  0  0  0  0  0  0  0
    3.6236    1.1518   18.9630 N   0  0  0  0  0  0  0  0  0  0  0  0
    3.4533    2.8896   14.4678 C   0  0  0  0  0  0  0  0  0  0  0  0
    2.6736    1.9554   13.8530 C   0  0  0  0  0  0  0  0  0  0  0  0
    2.3993    2.1106   12.4893 C   0  0  0  0  0  0  0  0  0  0  0  0
    2.9007    3.1771   11.7809 C   0  0  0  0  0  0  0  0  0  0  0  0
    3.6905    4.1045   12.4486 C   0  0  0  0  0  0  0  0  0  0  0  0
    3.9645    3.9612   13.7826 C   0  0  0  0  0  0  0  0  0  0  0  0
    2.6484    3.3699   10.4243 N   0  0  0  0  0  0  0  0  0  0  0  0
    1.9702    4.5091    9.8780 C   0  0  0  0  0  0  0  0  0  0  0  0
    2.7675    5.1818    8.7778 C   0  0  0  0  0  0  0  0  0  0  0  0
    3.5121    4.2071    7.9935 N   0  0  0  0  0  0  0  0  0  0  0  0
    2.8241    2.9155    8.0831 C   0  0  0  0  0  0  0  0  0  0  0  0
    3.0879    2.3620    9.4590 C   0  0  0  0  0  0  0  0  0  0  0  0
    4.4508    4.0649    8.4299 H   0  0  0  0  0  0  0  0  0  0  0  0
    3.2788   -0.5987   21.1386 C   0  0  0  0  0  0  0  0  0  0  0  0
    2.6445   -0.8625   19.8704 N   0  0  0  0  0  0  0  0  0  0  0  0
    2.0307   -1.6779   19.7520 H   0  0  0  0  0  0  0  0  0  0  0  0
    5.2663    3.8415   18.9662 C   0  0  0  0  0  0  0  0  0  0  0  0
    4.5116    4.0579   20.2418 C   0  0  0  0  0  0  0  0  0  0  0  0
    5.2710    3.5807   21.4067 C   0  0  0  0  0  0  0  0  0  0  0  0
    6.3154    4.5824   21.8723 C   0  0  0  0  0  0  0  0  0  0  0  0
    5.4690    5.7588   22.3825 C   0  0  0  0  0  0  0  0  0  0  0  0
    6.2419    6.7161   23.1040 N   0  0  0  0  0  0  0  0  0  0  0  0
    4.8849    6.3800   21.1529 C   0  0  0  0  0  0  0  0  0  0  0  0
    4.0175    5.4742   20.3432 C   0  0  0  0  0  0  0  0  0  0  0  0
    7.1413    6.2573   23.3989 H   0  0  0  0  0  0  0  0  0  0  0  0
    5.7352    6.9234   24.0159 H   0  0  0  0  0  0  0  0  0  0  0  0
 23 24  1  0  0  0
 24  1  1  0  0  0
  1  2  2  0  0  0
  2  3  1  0  0  0
  3  4  2  0  0  0
  4  5  1  0  0  0
  5  6  2  0  0  0
  6  7  1  0  0  0
  7 26  1  0  0  0
 26 27  1  0  0  0
 27 28  1  0  0  0
 28 29  1  0  0  0
 29 30  1  0  0  0
 30 31  1  0  0  0
 30 32  1  0  0  0
 32 33  1  0  0  0
  7  8  1  0  0  0
  8  9  2  0  0  0
  5 10  1  0  0  0
 10 11  2  0  0  0
 11 12  1  0  0  0
 12 13  2  0  0  0
 13 14  1  0  0  0
 14 15  2  0  0  0
 13 16  1  0  0  0
 16 17  1  0  0  0
 17 18  1  0  0  0
 18 19  1  0  0  0
 19 20  1  0  0  0
 20 21  1  0  0  0
  9  1  1  0  0  0
 15 10  1  0  0  0
 21 16  1  0  0  0
  8  4  1  0  0  0
 33 27  1  0  0  0
 24 25  1  0  0  0
 31 34  1  0  0  0
 31 35  1  0  0  0
 19 22  1  0  0  0
M  END
> <minimizedAffinity>
-8.97263

> <CNNscore>
0.9463267922

> <CNNaffinity>
7.4759597778

> <CNN_VS>
7.0747008324

> <CNNaffinity_variance>
0.3518261313

$$$$
[H]c1c([H])c(N2C([H])([H])C([H])([H])N([H])C([H])([H])C2([H])[H])c([H])c([H])c1-c1nn(C([H])([H])C2([H])C([H])([H])C([H])([H])C([H])(N([H])[H])C([H])([H])C2([H])[H])c2nc(N([H])C([H])([H])[H])nc([H])c12


 35 39  0  0  0  0  0  0  0  0999 V2000
    4.1240    1.3624   19.5873 C   0  0  0  0  0  0  0  0  0  0  0  0
    3.5159    0.7568   18.5526 N   0  0  0  0  0  0  0  0  0  0  0  0
    3.2487    1.3944   17.4087 C   0  0  0  0  0  0  0  0  0  0  0  0
    3.6156    2.7332   17.2914 C   0  0  0  0  0  0  0  0  0  0  0  0
    3.5136    3.6518   16.3002 C   0  0  0  0  0  0  0  0  0  0  0  0
    4.0589    4.7828   16.7572 N   0  0  0  0  0  0  0  0  0  0  0  0
    4.5114    4.6248   18.0171 N   0  0  0  0  0  0  0  0  0  0  0  0
    4.2421    3.3510   18.3637 C   0  0  0  0  0  0  0  0  0  0  0  0
    4.4756    2.6479   19.4734 N   0  0  0  0  0  0  0  0  0  0  0  0
    2.9147    3.4236   14.9770 C   0  0  0  0  0  0  0  0  0  0  0  0
    3.2333    2.3042   14.2670 C   0  0  0  0  0  0  0  0  0  0  0  0
    2.6445    2.1234   13.0101 C   0  0  0  0  0  0  0  0  0  0  0  0
    1.7652    3.0482   12.4981 C   0  0  0  0  0  0  0  0  0  0  0  0
    1.4698    4.1737   13.2568 C   0  0  0  0  0  0  0  0  0  0  0  0
    2.0410    4.3596   14.4875 C   0  0  0  0  0  0  0  0  0  0  0  0
    1.1551    2.9039   11.2538 N   0  0  0  0  0  0  0  0  0  0  0  0
    1.5498    1.9468   10.2616 C   0  0  0  0  0  0  0  0  0  0  0  0
    0.3882    1.0954    9.7877 C   0  0  0  0  0  0  0  0  0  0  0  0
   -0.8489    1.8622    9.7523 N   0  0  0  0  0  0  0  0  0  0  0  0
   -0.5125    3.2790    9.5815 C   0  0  0  0  0  0  0  0  0  0  0  0
    0.0326    3.7716   10.8964 C   0  0  0  0  0  0  0  0  0  0  0  0
   -1.3220    1.7879   10.6810 H   0  0  0  0  0  0  0  0  0  0  0  0
    3.5091   -0.4512   21.1603 C   0  0  0  0  0  0  0  0  0  0  0  0
    4.3918    0.6321   20.8033 N   0  0  0  0  0  0  0  0  0  0  0  0
    5.1906    0.8750   21.4021 H   0  0  0  0  0  0  0  0  0  0  0  0
    5.1250    5.6559   18.7929 C   0  0  0  0  0  0  0  0  0  0  0  0
    4.2315    6.4325   19.7106 C   0  0  0  0  0  0  0  0  0  0  0  0
    4.8835    6.7003   21.0008 C   0  0  0  0  0  0  0  0  0  0  0  0
    5.8296    7.8887   20.9406 C   0  0  0  0  0  0  0  0  0  0  0  0
    4.8850    9.0761   20.6989 C   0  0  0  0  0  0  0  0  0  0  0  0
    5.5362   10.3347   20.8608 N   0  0  0  0  0  0  0  0  0  0  0  0
    4.4079    8.9132   19.2901 C   0  0  0  0  0  0  0  0  0  0  0  0
    3.6698    7.6440   19.0198 C   0  0  0  0  0  0  0  0  0  0  0  0
    6.4182   10.1797   21.4127 H   0  0  0  0  0  0  0  0  0  0  0  0
    4.9279   10.9375   21.4915 H   0  0  0  0  0  0  0  0  0  0  0  0
 23 24  1  0  0  0
 24  1  1  0  0  0
  1  2  2  0  0  0
  2  3  1  0  0  0
  3  4  2  0  0  0
  4  5  1  0  0  0
  5  6  2  0  0  0
  6  7  1  0  0  0
  7 26  1  0  0  0
 26 27  1  0  0  0
 27 28  1  0  0  0
 28 29  1  0  0  0
 29 30  1  0  0  0
 30 31  1  0  0  0
 30 32  1  0  0  0
 32 33  1  0  0  0
  7  8  1  0  0  0
  8  9  2  0  0  0
  5 10  1  0  0  0
 10 11  2  0  0  0
 11 12  1  0  0  0
 12 13  2  0  0  0
 13 14  1  0  0  0
 14 15  2  0  0  0
 13 16  1  0  0  0
 16 17  1  0  0  0
 17 18  1  0  0  0
 18 19  1  0  0  0
 19 20  1  0  0  0
 20 21  1  0  0  0
  9  1  1  0  0  0
 15 10  1  0  0  0
 21 16  1  0  0  0
  8  4  1  0  0  0
 33 27  1  0  0  0
 24 25  1  0  0  0
 31 34  1  0  0  0
 31 35  1  0  0  0
 19 22  1  0  0  0
M  END
> <minimizedAffinity>
-8.03611

> <CNNscore>
0.3695748150

> <CNNaffinity>
6.6416463852

> <CNN_VS>
2.4545853138

> <CNNaffinity_variance>
0.5777376890

$$$$
[H]c1c([H])c(N2C([H])([H])C([H])([H])N([H])C([H])([H])C2([H])[H])c([H])c([H])c1-c1nn(C([H])([H])C2([H])C([H])([H])C([H])([H])C([H])(N([H])[H])C([H])([H])C2([H])[H])c2nc(N([H])C([H])([H])[H])nc([H])c12


 35 39  0  0  0  0  0  0  0  0999 V2000
    4.2075    2.0130   20.6771 C   0  0  0  0  0  0  0  0  0  0  0  0
    4.6696    2.3507   21.8934 N   0  0  0  0  0  0  0  0  0  0  0  0
    5.4300    3.4317   22.0935 C   0  0  0  0  0  0  0  0  0  0  0  0
    5.7509    4.2317   20.9991 C   0  0  0  0  0  0  0  0  0  0  0  0
    6.4657    5.3731   20.8474 C   0  0  0  0  0  0  0  0  0  0  0  0
    6.4182    5.6951   19.5515 N   0  0  0  0  0  0  0  0  0  0  0  0
    5.6937    4.7949   18.8575 N   0  0  0  0  0  0  0  0  0  0  0  0
    5.2706    3.8761   19.7474 C   0  0  0  0  0  0  0  0  0  0  0  0
    4.5165    2.7819   19.6271 N   0  0  0  0  0  0  0  0  0  0  0  0
    7.1527    6.1047   21.9218 C   0  0  0  0  0  0  0  0  0  0  0  0
    6.5990    7.2383   22.4386 C   0  0  0  0  0  0  0  0  0  0  0  0
    7.2842    7.9083   23.4588 C   0  0  0  0  0  0  0  0  0  0  0  0
    8.4867    7.4398   23.9331 C   0  0  0  0  0  0  0  0  0  0  0  0
    9.0132    6.2808   23.3768 C   0  0  0  0  0  0  0  0  0  0  0  0
    8.3503    5.6185   22.3782 C   0  0  0  0  0  0  0  0  0  0  0  0
    9.1982    8.0745   24.9491 N   0  0  0  0  0  0  0  0  0  0  0  0
    9.4806    9.4799   24.9875 C   0  0  0  0  0  0  0  0  0  0  0  0
    9.0453   10.1199   26.2911 C   0  0  0  0  0  0  0  0  0  0  0  0
    9.2241    9.2088   27.4125 N   0  0  0  0  0  0  0  0  0  0  0  0
   10.2844    8.2552   27.0718 C   0  0  0  0  0  0  0  0  0  0  0  0
    9.7111    7.2869   26.0704 C   0  0  0  0  0  0  0  0  0  0  0  0
    8.3543    8.6424   27.5327 H   0  0  0  0  0  0  0  0  0  0  0  0
    3.4492   -0.1894   21.5232 C   0  0  0  0  0  0  0  0  0  0  0  0
    3.3892    0.8355   20.5103 N   0  0  0  0  0  0  0  0  0  0  0  0
    2.7780    0.7268   19.6916 H   0  0  0  0  0  0  0  0  0  0  0  0
    5.4755    4.8453   17.4463 C   0  0  0  0  0  0  0  0  0  0  0  0
    4.5253    5.8900   16.9470 C   0  0  0  0  0  0  0  0  0  0  0  0
    3.2872    5.9174   17.7393 C   0  0  0  0  0  0  0  0  0  0  0  0
    3.4410    6.6979   19.0347 C   0  0  0  0  0  0  0  0  0  0  0  0
    3.6559    8.1402   18.5508 C   0  0  0  0  0  0  0  0  0  0  0  0
    3.5714    9.0909   19.6108 N   0  0  0  0  0  0  0  0  0  0  0  0
    5.0264    8.1491   17.9504 C   0  0  0  0  0  0  0  0  0  0  0  0
    5.2131    7.2185   16.7981 C   0  0  0  0  0  0  0  0  0  0  0  0
    3.0725    8.6387   20.4188 H   0  0  0  0  0  0  0  0  0  0  0  0
    2.9207    9.8716   19.2971 H   0  0  0  0  0  0  0  0  0  0  0  0
 23 24  1  0  0  0
 24  1  1  0  0  0
  1  2  2  0  0  0
  2  3  1  0  0  0
  3  4  2  0  0  0
  4  5  1  0  0  0
  5  6  2  0  0  0
  6  7  1  0  0  0
  7 26  1  0  0  0
 26 27  1  0  0  0
 27 28  1  0  0  0
 28 29  1  0  0  0
 29 30  1  0  0  0
 30 31  1  0  0  0
 30 32  1  0  0  0
 32 33  1  0  0  0
  7  8  1  0  0  0
  8  9  2  0  0  0
  5 10  1  0  0  0
 10 11  2  0  0  0
 11 12  1  0  0  0
 12 13  2  0  0  0
 13 14  1  0  0  0
 14 15  2  0  0  0
 13 16  1  0  0  0
 16 17  1  0  0  0
 17 18  1  0  0  0
 18 19  1  0  0  0
 19 20  1  0  0  0
 20 21  1  0  0  0
  9  1  1  0  0  0
 15 10  1  0  0  0
 21 16  1  0  0  0
  8  4  1  0  0  0
 33 27  1  0  0  0
 24 25  1  0  0  0
 31 34  1  0  0  0
 31 35  1  0  0  0
 19 22  1  0  0  0
M  END
> <minimizedAffinity>
-8.22047

> <CNNscore>
0.2139443308

> <CNNaffinity>
6.2305006981

> <CNN_VS>
1.3329802752

> <CNNaffinity_variance>
0.4309658110

$$$$
[H]c1c([H])c(N2C([H])([H])C([H])([H])N([H])C([H])([H])C2([H])[H])c([H])c([H])c1-c1nn(C([H])([H])C2([H])C([H])([H])C([H])([H])C([H])(N([H])[H])C([H])([H])C2([H])[H])c2nc(N([H])C([H])([H])[H])nc([H])c12


 35 39  0  0  0  0  0  0  0  0999 V2000
    3.7718    1.4769   18.6321 C   0  0  0  0  0  0  0  0  0  0  0  0
    4.2371    1.7149   19.8706 N   0  0  0  0  0  0  0  0  0  0  0  0
    4.7920    2.8818   20.2130 C   0  0  0  0  0  0  0  0  0  0  0  0
    4.8886    3.8816   19.2476 C   0  0  0  0  0  0  0  0  0  0  0  0
    5.3656    5.1501   19.2537 C   0  0  0  0  0  0  0  0  0  0  0  0
    5.1781    5.6444   18.0265 N   0  0  0  0  0  0  0  0  0  0  0  0
    4.5936    4.7327   17.2239 N   0  0  0  0  0  0  0  0  0  0  0  0
    4.4066    3.6279   17.9720 C   0  0  0  0  0  0  0  0  0  0  0  0
    3.8653    2.4377   17.7062 N   0  0  0  0  0  0  0  0  0  0  0  0
    5.9686    5.8349   20.4066 C   0  0  0  0  0  0  0  0  0  0  0  0
    5.3594    5.7859   21.6252 C   0  0  0  0  0  0  0  0  0  0  0  0
    5.9629    6.4521   22.6981 C   0  0  0  0  0  0  0  0  0  0  0  0
    7.1416    7.1408   22.5339 C   0  0  0  0  0  0  0  0  0  0  0  0
    7.7267    7.1636   21.2742 C   0  0  0  0  0  0  0  0  0  0  0  0
    7.1437    6.5150   20.2184 C   0  0  0  0  0  0  0  0  0  0  0  0
    7.7761    7.8135   23.5761 N   0  0  0  0  0  0  0  0  0  0  0  0
    9.0086    7.3980   24.1800 C   0  0  0  0  0  0  0  0  0  0  0  0
   10.0437    8.5056   24.1984 C   0  0  0  0  0  0  0  0  0  0  0  0
    9.4216    9.8068   24.3977 N   0  0  0  0  0  0  0  0  0  0  0  0
    8.1533    9.6115   25.1069 C   0  0  0  0  0  0  0  0  0  0  0  0
    7.1738    9.0305   24.1210 C   0  0  0  0  0  0  0  0  0  0  0  0
    9.1725   10.2109   23.4669 H   0  0  0  0  0  0  0  0  0  0  0  0
    2.6310    0.0139   16.9890 C   0  0  0  0  0  0  0  0  0  0  0  0
    3.1803    0.2002   18.3094 N   0  0  0  0  0  0  0  0  0  0  0  0
    3.1497   -0.5592   19.0007 H   0  0  0  0  0  0  0  0  0  0  0  0
    4.2826    4.9473   15.8460 C   0  0  0  0  0  0  0  0  0  0  0  0
    3.0620    4.2607   15.3145 C   0  0  0  0  0  0  0  0  0  0  0  0
    2.0210    5.2266   14.9344 C   0  0  0  0  0  0  0  0  0  0  0  0
    2.2604    5.8316   13.5605 C   0  0  0  0  0  0  0  0  0  0  0  0
    2.0806    4.6342   12.6147 C   0  0  0  0  0  0  0  0  0  0  0  0
    2.0113    5.0251   11.2447 N   0  0  0  0  0  0  0  0  0  0  0  0
    3.2784    3.7690   12.8502 C   0  0  0  0  0  0  0  0  0  0  0  0
    3.4239    3.2650   14.2478 C   0  0  0  0  0  0  0  0  0  0  0  0
    1.7802    6.0506   11.2068 H   0  0  0  0  0  0  0  0  0  0  0  0
    1.1677    4.5441   10.8109 H   0  0  0  0  0  0  0  0  0  0  0  0
 23 24  1  0  0  0
 24  1  1  0  0  0
  1  2  2  0  0  0
  2  3  1  0  0  0
  3  4  2  0  0  0
  4  5  1  0  0  0
  5  6  2  0  0  0
  6  7  1  0  0  0
  7 26  1  0  0  0
 26 27  1  0  0  0
 27 28  1  0  0  0
 28 29  1  0  0  0
 29 30  1  0  0  0
 30 31  1  0  0  0
 30 32  1  0  0  0
 32 33  1  0  0  0
  7  8  1  0  0  0
  8  9  2  0  0  0
  5 10  1  0  0  0
 10 11  2  0  0  0
 11 12  1  0  0  0
 12 13  2  0  0  0
 13 14  1  0  0  0
 14 15  2  0  0  0
 13 16  1  0  0  0
 16 17  1  0  0  0
 17 18  1  0  0  0
 18 19  1  0  0  0
 19 20  1  0  0  0
 20 21  1  0  0  0
  9  1  1  0  0  0
 15 10  1  0  0  0
 21 16  1  0  0  0
  8  4  1  0  0  0
 33 27  1  0  0  0
 24 25  1  0  0  0
 31 34  1  0  0  0
 31 35  1  0  0  0
 19 22  1  0  0  0
M  END
> <minimizedAffinity>
-7.52198

> <CNNscore>
0.2052963078

> <CNNaffinity>
6.1823644638

> <CNN_VS>
1.2692166567

> <CNNaffinity_variance>
0.5221448541

$$$$
[H]c1c([H])c(N2C([H])([H])C([H])([H])N([H])C([H])([H])C2([H])[H])c([H])c([H])c1-c1nn(C([H])([H])C2([H])C([H])([H])C([H])([H])C([H])(N([H])[H])C([H])([H])C2([H])[H])c2nc(N([H])C([H])([H])[H])nc([H])c12


 35 39  0  0  0  0  0  0  0  0999 V2000
    3.7464    1.5506   18.6829 C   0  0  0  0  0  0  0  0  0  0  0  0
    4.1629    1.9730   19.8892 N   0  0  0  0  0  0  0  0  0  0  0  0
    4.7152    3.1763   20.0729 C   0  0  0  0  0  0  0  0  0  0  0  0
    4.8614    4.0167   18.9714 C   0  0  0  0  0  0  0  0  0  0  0  0
    5.3507    5.2695   18.8042 C   0  0  0  0  0  0  0  0  0  0  0  0
    5.2188    5.5714   17.5093 N   0  0  0  0  0  0  0  0  0  0  0  0
    4.6584    4.5501   16.8311 N   0  0  0  0  0  0  0  0  0  0  0  0
    4.4296    3.5732   17.7302 C   0  0  0  0  0  0  0  0  0  0  0  0
    3.8875    2.3584   17.6263 N   0  0  0  0  0  0  0  0  0  0  0  0
    5.9129    6.1198   19.8637 C   0  0  0  0  0  0  0  0  0  0  0  0
    7.2545    6.3580   19.9083 C   0  0  0  0  0  0  0  0  0  0  0  0
    7.7523    7.1708   20.9334 C   0  0  0  0  0  0  0  0  0  0  0  0
    6.9142    7.7191   21.8754 C   0  0  0  0  0  0  0  0  0  0  0  0
    5.5541    7.4494   21.7906 C   0  0  0  0  0  0  0  0  0  0  0  0
    5.0576    6.6552   20.7915 C   0  0  0  0  0  0  0  0  0  0  0  0
    7.3688    8.5358   22.9086 N   0  0  0  0  0  0  0  0  0  0  0  0
    7.2832    8.2069   24.3018 C   0  0  0  0  0  0  0  0  0  0  0  0
    8.6232    8.3141   25.0028 C   0  0  0  0  0  0  0  0  0  0  0  0
    9.4191    9.4043   24.4570 N   0  0  0  0  0  0  0  0  0  0  0  0
    8.5101   10.3993   23.8797 C   0  0  0  0  0  0  0  0  0  0  0  0
    7.9794    9.8270   22.5914 C   0  0  0  0  0  0  0  0  0  0  0  0
    9.9927    9.0420   23.6623 H   0  0  0  0  0  0  0  0  0  0  0  0
    2.5536   -0.0978   17.2681 C   0  0  0  0  0  0  0  0  0  0  0  0
    3.1556    0.2419   18.5339 N   0  0  0  0  0  0  0  0  0  0  0  0
    3.1620   -0.4335   19.3082 H   0  0  0  0  0  0  0  0  0  0  0  0
    4.4063    4.5531   15.4246 C   0  0  0  0  0  0  0  0  0  0  0  0
    3.0945    5.1194   14.9752 C   0  0  0  0  0  0  0  0  0  0  0  0
    2.9258    6.5107   15.4194 C   0  0  0  0  0  0  0  0  0  0  0  0
    3.6452    7.5017   14.5187 C   0  0  0  0  0  0  0  0  0  0  0  0
    2.8751    7.3931   13.1936 C   0  0  0  0  0  0  0  0  0  0  0  0
    3.2216    8.4265   12.2735 N   0  0  0  0  0  0  0  0  0  0  0  0
    3.2447    6.0541   12.6374 C   0  0  0  0  0  0  0  0  0  0  0  0
    2.8843    4.8931   13.5038 C   0  0  0  0  0  0  0  0  0  0  0  0
    3.6799    9.2055   12.8116 H   0  0  0  0  0  0  0  0  0  0  0  0
    2.3186    8.8506   11.9047 H   0  0  0  0  0  0  0  0  0  0  0  0
 23 24  1  0  0  0
 24  1  1  0  0  0
  1  2  2  0  0  0
  2  3  1  0  0  0
  3  4  2  0  0  0
  4  5  1  0  0  0
  5  6  2  0  0  0
  6  7  1  0  0  0
  7 26  1  0  0  0
 26 27  1  0  0  0
 27 28  1  0  0  0
 28 29  1  0  0  0
 29 30  1  0  0  0
 30 31  1  0  0  0
 30 32  1  0  0  0
 32 33  1  0  0  0
  7  8  1  0  0  0
  8  9  2  0  0  0
  5 10  1  0  0  0
 10 11  2  0  0  0
 11 12  1  0  0  0
 12 13  2  0  0  0
 13 14  1  0  0  0
 14 15  2  0  0  0
 13 16  1  0  0  0
 16 17  1  0  0  0
 17 18  1  0  0  0
 18 19  1  0  0  0
 19 20  1  0  0  0
 20 21  1  0  0  0
  9  1  1  0  0  0
 15 10  1  0  0  0
 21 16  1  0  0  0
  8  4  1  0  0  0
 33 27  1  0  0  0
 24 25  1  0  0  0
 31 34  1  0  0  0
 31 35  1  0  0  0
 19 22  1  0  0  0
M  END
> <minimizedAffinity>
-7.03180

> <CNNscore>
0.2039128393

> <CNNaffinity>
6.2371892929

> <CNN_VS>
1.2718429565

> <CNNaffinity_variance>
0.6271088719

$$$$
[H]c1c([H])c(N2C([H])([H])C([H])([H])N([H])C([H])([H])C2([H])[H])c([H])c([H])c1-c1nn(C([H])([H])C2([H])C([H])([H])C([H])([H])C([H])(N([H])[H])C([H])([H])C2([H])[H])c2nc(N([H])C([H])([H])[H])nc([H])c12


 35 39  0  0  0  0  0  0  0  0999 V2000
    5.0375    2.3163   20.0240 C   0  0  0  0  0  0  0  0  0  0  0  0
    4.0651    1.8617   19.2148 N   0  0  0  0  0  0  0  0  0  0  0  0
    3.7214    2.4923   18.0874 C   0  0  0  0  0  0  0  0  0  0  0  0
    4.3985    3.6607   17.7453 C   0  0  0  0  0  0  0  0  0  0  0  0
    4.3206    4.5197   16.6999 C   0  0  0  0  0  0  0  0  0  0  0  0
    5.2418    5.4663   16.9018 N   0  0  0  0  0  0  0  0  0  0  0  0
    5.9151    5.2465   18.0487 N   0  0  0  0  0  0  0  0  0  0  0  0
    5.4002    4.1233   18.5858 C   0  0  0  0  0  0  0  0  0  0  0  0
    5.6867    3.4383   19.6944 N   0  0  0  0  0  0  0  0  0  0  0  0
    3.3916    4.4093   15.5658 C   0  0  0  0  0  0  0  0  0  0  0  0
    3.5795    3.4452   14.6204 C   0  0  0  0  0  0  0  0  0  0  0  0
    2.6753    3.3732   13.5544 C   0  0  0  0  0  0  0  0  0  0  0  0
    1.6208    4.2502   13.4571 C   0  0  0  0  0  0  0  0  0  0  0  0
    1.4683    5.2163   14.4436 C   0  0  0  0  0  0  0  0  0  0  0  0
    2.3479    5.2948   15.4903 C   0  0  0  0  0  0  0  0  0  0  0  0
    0.6971    4.2099   12.4149 N   0  0  0  0  0  0  0  0  0  0  0  0
   -0.6050    4.8090   12.4597 C   0  0  0  0  0  0  0  0  0  0  0  0
   -0.8560    5.7315   11.2831 C   0  0  0  0  0  0  0  0  0  0  0  0
   -0.2157    5.2324   10.0745 N   0  0  0  0  0  0  0  0  0  0  0  0
   -0.0715    3.7780   10.1920 C   0  0  0  0  0  0  0  0  0  0  0  0
    1.0408    3.5161   11.1734 C   0  0  0  0  0  0  0  0  0  0  0  0
    0.7551    5.6152   10.0209 H   0  0  0  0  0  0  0  0  0  0  0  0
    4.9603    2.1582   22.4960 C   0  0  0  0  0  0  0  0  0  0  0  0
    5.3735    1.6004   21.2318 N   0  0  0  0  0  0  0  0  0  0  0  0
    5.8938    0.7153   21.1955 H   0  0  0  0  0  0  0  0  0  0  0  0
    6.9474    6.0936   18.5572 C   0  0  0  0  0  0  0  0  0  0  0  0
    6.5595    7.0571   19.6364 C   0  0  0  0  0  0  0  0  0  0  0  0
    6.5612    8.4441   19.1488 C   0  0  0  0  0  0  0  0  0  0  0  0
    5.2894    8.7990   18.3956 C   0  0  0  0  0  0  0  0  0  0  0  0
    4.2095    8.7444   19.4871 C   0  0  0  0  0  0  0  0  0  0  0  0
    2.9663    9.2936   19.0543 N   0  0  0  0  0  0  0  0  0  0  0  0
    4.0541    7.2914   19.8084 C   0  0  0  0  0  0  0  0  0  0  0  0
    5.2898    6.6248   20.3156 C   0  0  0  0  0  0  0  0  0  0  0  0
    3.1485    9.8948   18.2106 H   0  0  0  0  0  0  0  0  0  0  0  0
    2.6329    9.9737   19.8010 H   0  0  0  0  0  0  0  0  0  0  0  0
 23 24  1  0  0  0
 24  1  1  0  0  0
  1  2  2  0  0  0
  2  3  1  0  0  0
  3  4  2  0  0  0
  4  5  1  0  0  0
  5  6  2  0  0  0
  6  7  1  0  0  0
  7 26  1  0  0  0
 26 27  1  0  0  0
 27 28  1  0  0  0
 28 29  1  0  0  0
 29 30  1  0  0  0
 30 31  1  0  0  0
 30 32  1  0  0  0
 32 33  1  0  0  0
  7  8  1  0  0  0
  8  9  2  0  0  0
  5 10  1  0  0  0
 10 11  2  0  0  0
 11 12  1  0  0  0
 12 13  2  0  0  0
 13 14  1  0  0  0
 14 15  2  0  0  0
 13 16  1  0  0  0
 16 17  1  0  0  0
 17 18  1  0  0  0
 18 19  1  0  0  0
 19 20  1  0  0  0
 20 21  1  0  0  0
  9  1  1  0  0  0
 15 10  1  0  0  0
 21 16  1  0  0  0
  8  4  1  0  0  0
 33 27  1  0  0  0
 24 25  1  0  0  0
 31 34  1  0  0  0
 31 35  1  0  0  0
 19 22  1  0  0  0
M  END
> <minimizedAffinity>
-7.20954

> <CNNscore>
0.2037539929

> <CNNaffinity>
6.2711129189

> <CNN_VS>
1.2777643204

> <CNNaffinity_variance>
0.4623670578

$$$$
[H]c1c([H])c(N2C([H])([H])C([H])([H])N([H])C([H])([H])C2([H])[H])c([H])c([H])c1-c1nn(C([H])([H])C2([H])C([H])([H])C([H])([H])C([H])(N([H])[H])C([H])([H])C2([H])[H])c2nc(N([H])C([H])([H])[H])nc([H])c12


 35 39  0  0  0  0  0  0  0  0999 V2000
    3.7519    1.8920   18.3755 C   0  0  0  0  0  0  0  0  0  0  0  0
    3.5816    1.7448   17.0502 N   0  0  0  0  0  0  0  0  0  0  0  0
    3.6158    2.7809   16.2064 C   0  0  0  0  0  0  0  0  0  0  0  0
    3.8358    4.0550   16.7253 C   0  0  0  0  0  0  0  0  0  0  0  0
    3.9428    5.2882   16.1736 C   0  0  0  0  0  0  0  0  0  0  0  0
    4.1736    6.1450   17.1726 N   0  0  0  0  0  0  0  0  0  0  0  0
    4.2187    5.5032   18.3571 N   0  0  0  0  0  0  0  0  0  0  0  0
    4.0100    4.1984   18.0938 C   0  0  0  0  0  0  0  0  0  0  0  0
    3.9628    3.1158   18.8723 N   0  0  0  0  0  0  0  0  0  0  0  0
    3.8270    5.6010   14.7417 C   0  0  0  0  0  0  0  0  0  0  0  0
    3.8138    4.5948   13.8218 C   0  0  0  0  0  0  0  0  0  0  0  0
    3.7045    4.9325   12.4678 C   0  0  0  0  0  0  0  0  0  0  0  0
    3.6120    6.2449   12.0684 C   0  0  0  0  0  0  0  0  0  0  0  0
    3.6293    7.2370   13.0406 C   0  0  0  0  0  0  0  0  0  0  0  0
    3.7361    6.9166   14.3677 C   0  0  0  0  0  0  0  0  0  0  0  0
    3.4981    6.6227   10.7322 N   0  0  0  0  0  0  0  0  0  0  0  0
    2.2638    6.9639   10.0867 C   0  0  0  0  0  0  0  0  0  0  0  0
    2.3266    8.3139    9.3996 C   0  0  0  0  0  0  0  0  0  0  0  0
    3.6484    8.5619    8.8420 N   0  0  0  0  0  0  0  0  0  0  0  0
    4.2876    7.2707    8.5700 C   0  0  0  0  0  0  0  0  0  0  0  0
    4.6971    6.6854    9.8961 C   0  0  0  0  0  0  0  0  0  0  0  0
    4.2402    9.0302    9.5648 H   0  0  0  0  0  0  0  0  0  0  0  0
    2.6329   -0.2052   19.0764 C   0  0  0  0  0  0  0  0  0  0  0  0
    3.7066    0.7425   19.2474 N   0  0  0  0  0  0  0  0  0  0  0  0
    4.4199    0.5996   19.9730 H   0  0  0  0  0  0  0  0  0  0  0  0
    4.4247    6.1430   19.6180 C   0  0  0  0  0  0  0  0  0  0  0  0
    5.6105    7.0514   19.7283 C   0  0  0  0  0  0  0  0  0  0  0  0
    5.2073    8.4648   19.7618 C   0  0  0  0  0  0  0  0  0  0  0  0
    4.7566    8.9101   21.1437 C   0  0  0  0  0  0  0  0  0  0  0  0
    6.0454    8.8265   21.9759 C   0  0  0  0  0  0  0  0  0  0  0  0
    5.9118    9.4448   23.2543 N   0  0  0  0  0  0  0  0  0  0  0  0
    6.3148    7.3628   22.1301 C   0  0  0  0  0  0  0  0  0  0  0  0
    6.5164    6.6231   20.8491 C   0  0  0  0  0  0  0  0  0  0  0  0
    5.0816   10.0899   23.2222 H   0  0  0  0  0  0  0  0  0  0  0  0
    6.7466   10.0890   23.3935 H   0  0  0  0  0  0  0  0  0  0  0  0
 23 24  1  0  0  0
 24  1  1  0  0  0
  1  2  2  0  0  0
  2  3  1  0  0  0
  3  4  2  0  0  0
  4  5  1  0  0  0
  5  6  2  0  0  0
  6  7  1  0  0  0
  7 26  1  0  0  0
 26 27  1  0  0  0
 27 28  1  0  0  0
 28 29  1  0  0  0
 29 30  1  0  0  0
 30 31  1  0  0  0
 30 32  1  0  0  0
 32 33  1  0  0  0
  7  8  1  0  0  0
  8  9  2  0  0  0
  5 10  1  0  0  0
 10 11  2  0  0  0
 11 12  1  0  0  0
 12 13  2  0  0  0
 13 14  1  0  0  0
 14 15  2  0  0  0
 13 16  1  0  0  0
 16 17  1  0  0  0
 17 18  1  0  0  0
 18 19  1  0  0  0
 19 20  1  0  0  0
 20 21  1  0  0  0
  9  1  1  0  0  0
 15 10  1  0  0  0
 21 16  1  0  0  0
  8  4  1  0  0  0
 33 27  1  0  0  0
 24 25  1  0  0  0
 31 34  1  0  0  0
 31 35  1  0  0  0
 19 22  1  0  0  0
M  END
> <minimizedAffinity>
-7.30989

> <CNNscore>
0.1962968111

> <CNNaffinity>
6.0052165985

> <CNN_VS>
1.1788048744

> <CNNaffinity_variance>
0.4827755094

$$$$
[H]c1c([H])c(N2C([H])([H])C([H])([H])N([H])C([H])([H])C2([H])[H])c([H])c([H])c1-c1nn(C([H])([H])C2([H])C([H])([H])C([H])([H])C([H])(N([H])[H])C([H])([H])C2([H])[H])c2nc(N([H])C([H])([H])[H])nc([H])c12


 35 39  0  0  0  0  0  0  0  0999 V2000
    4.9301    1.7807   19.7012 C   0  0  0  0  0  0  0  0  0  0  0  0
    4.1065    1.3390   18.7349 N   0  0  0  0  0  0  0  0  0  0  0  0
    3.7914    2.0829   17.6700 C   0  0  0  0  0  0  0  0  0  0  0  0
    4.3390    3.3595   17.5643 C   0  0  0  0  0  0  0  0  0  0  0  0
    4.2484    4.3468   16.6403 C   0  0  0  0  0  0  0  0  0  0  0  0
    5.0145    5.3545   17.0681 N   0  0  0  0  0  0  0  0  0  0  0  0
    5.5992    5.0497   18.2438 N   0  0  0  0  0  0  0  0  0  0  0  0
    5.1873    3.8080   18.5657 C   0  0  0  0  0  0  0  0  0  0  0  0
    5.4550    3.0067   19.5985 N   0  0  0  0  0  0  0  0  0  0  0  0
    3.4533    4.2955   15.4046 C   0  0  0  0  0  0  0  0  0  0  0  0
    2.2952    5.0082   15.3077 C   0  0  0  0  0  0  0  0  0  0  0  0
    1.5648    4.9321   14.1161 C   0  0  0  0  0  0  0  0  0  0  0  0
    1.9992    4.1596   13.0649 C   0  0  0  0  0  0  0  0  0  0  0  0
    3.1852    3.4506   13.2083 C   0  0  0  0  0  0  0  0  0  0  0  0
    3.9067    3.5185   14.3703 C   0  0  0  0  0  0  0  0  0  0  0  0
    1.3042    4.0598   11.8615 N   0  0  0  0  0  0  0  0  0  0  0  0
    0.8878    5.1796   11.0685 C   0  0  0  0  0  0  0  0  0  0  0  0
    1.3511    5.0707    9.6290 C   0  0  0  0  0  0  0  0  0  0  0  0
    1.3451    3.6873    9.1753 N   0  0  0  0  0  0  0  0  0  0  0  0
    0.3622    2.9426    9.9686 C   0  0  0  0  0  0  0  0  0  0  0  0
    0.9542    2.7388   11.3386 C   0  0  0  0  0  0  0  0  0  0  0  0
    2.2730    3.2559    9.3867 H   0  0  0  0  0  0  0  0  0  0  0  0
    6.5089    1.1253   21.4955 C   0  0  0  0  0  0  0  0  0  0  0  0
    5.2412    0.9405   20.8331 N   0  0  0  0  0  0  0  0  0  0  0  0
    4.5783    0.2274   21.1615 H   0  0  0  0  0  0  0  0  0  0  0  0
    6.4589    5.9279   18.9727 C   0  0  0  0  0  0  0  0  0  0  0  0
    5.8314    6.7267   20.0735 C   0  0  0  0  0  0  0  0  0  0  0  0
    4.3637    6.6627   20.0187 C   0  0  0  0  0  0  0  0  0  0  0  0
    3.8115    5.3928   20.6459 C   0  0  0  0  0  0  0  0  0  0  0  0
    4.1645    5.5547   22.1325 C   0  0  0  0  0  0  0  0  0  0  0  0
    3.5146    4.5892   22.9571 N   0  0  0  0  0  0  0  0  0  0  0  0
    5.6494    5.3838   22.2007 C   0  0  0  0  0  0  0  0  0  0  0  0
    6.4327    6.3755   21.4060 C   0  0  0  0  0  0  0  0  0  0  0  0
    2.7035    4.1902   22.4192 H   0  0  0  0  0  0  0  0  0  0  0  0
    3.0674    5.1053   23.7726 H   0  0  0  0  0  0  0  0  0  0  0  0
 23 24  1  0  0  0
 24  1  1  0  0  0
  1  2  2  0  0  0
  2  3  1  0  0  0
  3  4  2  0  0  0
  4  5  1  0  0  0
  5  6  2  0  0  0
  6  7  1  0  0  0
  7 26  1  0  0  0
 26 27  1  0  0  0
 27 28  1  0  0  0
 28 29  1  0  0  0
 29 30  1  0  0  0
 30 31  1  0  0  0
 30 32  1  0  0  0
 32 33  1  0  0  0
  7  8  1  0  0  0
  8  9  2  0  0  0
  5 10  1  0  0  0
 10 11  2  0  0  0
 11 12  1  0  0  0
 12 13  2  0  0  0
 13 14  1  0  0  0
 14 15  2  0  0  0
 13 16  1  0  0  0
 16 17  1  0  0  0
 17 18  1  0  0  0
 18 19  1  0  0  0
 19 20  1  0  0  0
 20 21  1  0  0  0
  9  1  1  0  0  0
 15 10  1  0  0  0
 21 16  1  0  0  0
  8  4  1  0  0  0
 33 27  1  0  0  0
 24 25  1  0  0  0
 31 34  1  0  0  0
 31 35  1  0  0  0
 19 22  1  0  0  0
M  END
> <minimizedAffinity>
-7.66896

> <CNNscore>
0.1835806817

> <CNNaffinity>
6.3596949577

> <CNN_VS>
1.1675171852

> <CNNaffinity_variance>
0.5265621543

$$$$
[H]O[C@]1([H])C([H])([H])C([H])([H])[C@@]([H])(N([H])c2nc(N([H])C([H])([H])C([H])([H])C([H])([H])[H])nc([H])c2-c2nc([H])c([H])c([H])c2[H])C([H])([H])C1([H])[H]


 27 29  0  0  0  0  0  0  0  0999 V2000
    3.0246    0.1512   18.5976 C   0  0  0  0  0  0  0  0  0  0  0  0
    2.2126   -0.1384   17.5867 N   0  0  0  0  0  0  0  0  0  0  0  0
    2.2765    0.5889   16.4326 C   0  0  0  0  0  0  0  0  0  0  0  0
    3.1638    1.6309   16.2653 C   0  0  0  0  0  0  0  0  0  0  0  0
    3.9918    1.9163   17.3122 C   0  0  0  0  0  0  0  0  0  0  0  0
    3.8839    1.1507   18.4531 N   0  0  0  0  0  0  0  0  0  0  0  0
    3.2137    2.3516   15.0180 C   0  0  0  0  0  0  0  0  0  0  0  0
    2.5511    1.8357   13.8912 C   0  0  0  0  0  0  0  0  0  0  0  0
    2.5895    2.4753   12.6709 C   0  0  0  0  0  0  0  0  0  0  0  0
    3.2827    3.6411   12.5275 C   0  0  0  0  0  0  0  0  0  0  0  0
    3.9335    4.1331   13.6626 C   0  0  0  0  0  0  0  0  0  0  0  0
    3.8675    3.4850   14.8101 N   0  0  0  0  0  0  0  0  0  0  0  0
    2.9662   -0.6048   19.8135 N   0  0  0  0  0  0  0  0  0  0  0  0
    3.1948   -1.6197   19.8239 H   0  0  0  0  0  0  0  0  0  0  0  0
    2.5867    0.0495   21.0337 C   0  0  0  0  0  0  0  0  0  0  0  0
    3.5982    1.6862   22.5351 C   0  0  0  0  0  0  0  0  0  0  0  0
    3.8323    0.3398   21.8475 C   0  0  0  0  0  0  0  0  0  0  0  0
    4.9740    2.9399   17.3273 N   0  0  0  0  0  0  0  0  0  0  0  0
    5.8375    2.9335   16.8041 H   0  0  0  0  0  0  0  0  0  0  0  0
    4.7647    4.1150   18.1627 C   0  0  0  0  0  0  0  0  0  0  0  0
    3.3316    4.5757   18.2086 C   0  0  0  0  0  0  0  0  0  0  0  0
    3.4064    6.0301   18.6943 C   0  0  0  0  0  0  0  0  0  0  0  0
    3.9821    6.0342   20.0641 C   0  0  0  0  0  0  0  0  0  0  0  0
    4.9331    7.0633   20.1571 O   0  0  0  0  0  0  0  0  0  0  0  0
    4.5135    4.7442   20.5716 C   0  0  0  0  0  0  0  0  0  0  0  0
    5.2751    3.9313   19.5554 C   0  0  0  0  0  0  0  0  0  0  0  0
    5.2758    7.0885   21.0848 H   0  0  0  0  0  0  0  0  0  0  0  0
 16 17  1  0  0  0
 17 15  1  0  0  0
 15 13  1  0  0  0
 13  1  1  0  0  0
  1  2  2  0  0  0
  2  3  1  0  0  0
  3  4  2  0  0  0
  4  5  1  0  0  0
  5 18  1  0  0  0
 18 20  1  0  0  0
 20 21  1  0  0  0
 21 22  1  0  0  0
 22 23  1  0  0  0
 23 24  1  0  0  0
 23 25  1  0  0  0
 25 26  1  0  0  0
  5  6  2  0  0  0
  4  7  1  0  0  0
  7  8  2  0  0  0
  8  9  1  0  0  0
  9 10  2  0  0  0
 10 11  1  0  0  0
 11 12  2  0  0  0
  6  1  1  0  0  0
 12  7  1  0  0  0
 26 20  1  0  0  0
 13 14  1  0  0  0
 18 19  1  0  0  0
 24 27  1  0  0  0
M  END
> <minimizedAffinity>
-7.42318

> <CNNscore>
0.9483026862

> <CNNaffinity>
6.8777618408

> <CNN_VS>
6.5222001076

> <CNNaffinity_variance>
0.0784623474

$$$$
[H]O[C@]1([H])C([H])([H])C([H])([H])[C@@]([H])(N([H])c2nc(N([H])C([H])([H])C([H])([H])C([H])([H])[H])nc([H])c2-c2nc([H])c([H])c([H])c2[H])C([H])([H])C1([H])[H]


 27 29  0  0  0  0  0  0  0  0999 V2000
    2.8297    1.0397   16.9240 C   0  0  0  0  0  0  0  0  0  0  0  0
    2.5035    0.2474   17.9393 N   0  0  0  0  0  0  0  0  0  0  0  0
    3.0823    0.4348   19.1620 C   0  0  0  0  0  0  0  0  0  0  0  0
    4.0082    1.4294   19.3954 C   0  0  0  0  0  0  0  0  0  0  0  0
    4.3328    2.2356   18.3430 C   0  0  0  0  0  0  0  0  0  0  0  0
    3.7189    2.0012   17.1315 N   0  0  0  0  0  0  0  0  0  0  0  0
    4.5709    1.6063   20.7106 C   0  0  0  0  0  0  0  0  0  0  0  0
    3.7331    1.5502   21.8374 C   0  0  0  0  0  0  0  0  0  0  0  0
    4.2196    1.7369   23.1133 C   0  0  0  0  0  0  0  0  0  0  0  0
    5.5457    1.9849   23.3137 C   0  0  0  0  0  0  0  0  0  0  0  0
    6.3578    2.0365   22.1771 C   0  0  0  0  0  0  0  0  0  0  0  0
    5.8459    1.8508   20.9752 N   0  0  0  0  0  0  0  0  0  0  0  0
    2.2292    0.8521   15.6364 N   0  0  0  0  0  0  0  0  0  0  0  0
    2.0319   -0.1022   15.2721 H   0  0  0  0  0  0  0  0  0  0  0  0
    1.8958    1.9987   14.8396 C   0  0  0  0  0  0  0  0  0  0  0  0
    3.5822    3.5221   13.9500 C   0  0  0  0  0  0  0  0  0  0  0  0
    2.9284    2.1550   13.7409 C   0  0  0  0  0  0  0  0  0  0  0  0
    5.2527    3.3148   18.3881 N   0  0  0  0  0  0  0  0  0  0  0  0
    6.2530    3.2302   18.4953 H   0  0  0  0  0  0  0  0  0  0  0  0
    4.7541    4.6798   18.2846 C   0  0  0  0  0  0  0  0  0  0  0  0
    4.2102    5.2238   19.5793 C   0  0  0  0  0  0  0  0  0  0  0  0
    3.3249    6.4067   19.1624 C   0  0  0  0  0  0  0  0  0  0  0  0
    4.1868    7.4255   18.5092 C   0  0  0  0  0  0  0  0  0  0  0  0
    3.5407    7.8990   17.3558 O   0  0  0  0  0  0  0  0  0  0  0  0
    5.5930    7.0369   18.2339 C   0  0  0  0  0  0  0  0  0  0  0  0
    5.7717    5.6257   17.7337 C   0  0  0  0  0  0  0  0  0  0  0  0
    4.0998    8.6098   16.9545 H   0  0  0  0  0  0  0  0  0  0  0  0
 16 17  1  0  0  0
 17 15  1  0  0  0
 15 13  1  0  0  0
 13  1  1  0  0  0
  1  2  2  0  0  0
  2  3  1  0  0  0
  3  4  2  0  0  0
  4  5  1  0  0  0
  5 18  1  0  0  0
 18 20  1  0  0  0
 20 21  1  0  0  0
 21 22  1  0  0  0
 22 23  1  0  0  0
 23 24  1  0  0  0
 23 25  1  0  0  0
 25 26  1  0  0  0
  5  6  2  0  0  0
  4  7  1  0  0  0
  7  8  2  0  0  0
  8  9  1  0  0  0
  9 10  2  0  0  0
 10 11  1  0  0  0
 11 12  2  0  0  0
  6  1  1  0  0  0
 12  7  1  0  0  0
 26 20  1  0  0  0
 13 14  1  0  0  0
 18 19  1  0  0  0
 24 27  1  0  0  0
M  END
> <minimizedAffinity>
-7.29069

> <CNNscore>
0.9051771760

> <CNNaffinity>
6.8208222389

> <CNN_VS>
6.1740527153

> <CNNaffinity_variance>
0.2208813131

$$$$
[H]O[C@]1([H])C([H])([H])C([H])([H])[C@@]([H])(N([H])c2nc(N([H])C([H])([H])C([H])([H])C([H])([H])[H])nc([H])c2-c2nc([H])c([H])c([H])c2[H])C([H])([H])C1([H])[H]


 27 29  0  0  0  0  0  0  0  0999 V2000
    3.2675    2.2371   15.0068 C   0  0  0  0  0  0  0  0  0  0  0  0
    2.6038    1.1998   15.5054 N   0  0  0  0  0  0  0  0  0  0  0  0
    2.7843    0.8400   16.8104 C   0  0  0  0  0  0  0  0  0  0  0  0
    3.6409    1.5186   17.6512 C   0  0  0  0  0  0  0  0  0  0  0  0
    4.3151    2.5823   17.1249 C   0  0  0  0  0  0  0  0  0  0  0  0
    4.0955    2.9005   15.8020 N   0  0  0  0  0  0  0  0  0  0  0  0
    3.7769    1.1188   19.0294 C   0  0  0  0  0  0  0  0  0  0  0  0
    2.9082    0.1501   19.5601 C   0  0  0  0  0  0  0  0  0  0  0  0
    2.9828   -0.2476   20.8777 C   0  0  0  0  0  0  0  0  0  0  0  0
    3.9158    0.2993   21.7088 C   0  0  0  0  0  0  0  0  0  0  0  0
    4.7673    1.2609   21.1572 C   0  0  0  0  0  0  0  0  0  0  0  0
    4.6577    1.6090   19.8891 N   0  0  0  0  0  0  0  0  0  0  0  0
    3.0865    2.6235   13.6388 N   0  0  0  0  0  0  0  0  0  0  0  0
    2.4975    2.0557   12.9960 H   0  0  0  0  0  0  0  0  0  0  0  0
    3.7278    3.8113   13.1502 C   0  0  0  0  0  0  0  0  0  0  0  0
    3.1851    6.1432   13.6236 C   0  0  0  0  0  0  0  0  0  0  0  0
    2.6789    4.8816   12.9217 C   0  0  0  0  0  0  0  0  0  0  0  0
    5.2284    3.4068   17.8312 N   0  0  0  0  0  0  0  0  0  0  0  0
    6.1676    3.1493   18.0979 H   0  0  0  0  0  0  0  0  0  0  0  0
    4.8146    4.7441   18.2349 C   0  0  0  0  0  0  0  0  0  0  0  0
    5.9654    5.6604   18.5580 C   0  0  0  0  0  0  0  0  0  0  0  0
    5.3433    6.7835   19.3997 C   0  0  0  0  0  0  0  0  0  0  0  0
    4.3489    7.4989   18.5588 C   0  0  0  0  0  0  0  0  0  0  0  0
    3.1880    7.7246   19.3161 O   0  0  0  0  0  0  0  0  0  0  0  0
    4.0372    6.9024   17.2355 C   0  0  0  0  0  0  0  0  0  0  0  0
    3.9209    5.3991   17.2320 C   0  0  0  0  0  0  0  0  0  0  0  0
    2.5509    8.2423   18.7639 H   0  0  0  0  0  0  0  0  0  0  0  0
 16 17  1  0  0  0
 17 15  1  0  0  0
 15 13  1  0  0  0
 13  1  1  0  0  0
  1  2  2  0  0  0
  2  3  1  0  0  0
  3  4  2  0  0  0
  4  5  1  0  0  0
  5 18  1  0  0  0
 18 20  1  0  0  0
 20 21  1  0  0  0
 21 22  1  0  0  0
 22 23  1  0  0  0
 23 24  1  0  0  0
 23 25  1  0  0  0
 25 26  1  0  0  0
  5  6  2  0  0  0
  4  7  1  0  0  0
  7  8  2  0  0  0
  8  9  1  0  0  0
  9 10  2  0  0  0
 10 11  1  0  0  0
 11 12  2  0  0  0
  6  1  1  0  0  0
 12  7  1  0  0  0
 26 20  1  0  0  0
 13 14  1  0  0  0
 18 19  1  0  0  0
 24 27  1  0  0  0
M  END
> <minimizedAffinity>
-6.87170

> <CNNscore>
0.4503130615

> <CNNaffinity>
6.0950598717

> <CNN_VS>
2.7446851730

> <CNNaffinity_variance>
0.2430257052

$$$$
[H]O[C@]1([H])C([H])([H])C([H])([H])[C@@]([H])(N([H])c2nc(N([H])C([H])([H])C([H])([H])C([H])([H])[H])nc([H])c2-c2nc([H])c([H])c([H])c2[H])C([H])([H])C1([H])[H]


 27 29  0  0  0  0  0  0  0  0999 V2000
    4.2629    1.4281   19.4708 C   0  0  0  0  0  0  0  0  0  0  0  0
    3.5418    0.7104   18.6163 N   0  0  0  0  0  0  0  0  0  0  0  0
    3.2187    1.2292   17.3951 C   0  0  0  0  0  0  0  0  0  0  0  0
    3.6154    2.4893   17.0003 C   0  0  0  0  0  0  0  0  0  0  0  0
    4.3560    3.2143   17.8884 C   0  0  0  0  0  0  0  0  0  0  0  0
    4.6524    2.6421   19.1068 N   0  0  0  0  0  0  0  0  0  0  0  0
    3.2740    2.9829   15.6898 C   0  0  0  0  0  0  0  0  0  0  0  0
    3.1325    2.0794   14.6228 C   0  0  0  0  0  0  0  0  0  0  0  0
    2.8307    2.5048   13.3470 C   0  0  0  0  0  0  0  0  0  0  0  0
    2.6606    3.8329   13.0876 C   0  0  0  0  0  0  0  0  0  0  0  0
    2.8072    4.7111   14.1653 C   0  0  0  0  0  0  0  0  0  0  0  0
    3.0964    4.2562   15.3697 N   0  0  0  0  0  0  0  0  0  0  0  0
    4.6075    0.8942   20.7552 N   0  0  0  0  0  0  0  0  0  0  0  0
    4.8532   -0.1104   20.8685 H   0  0  0  0  0  0  0  0  0  0  0  0
    4.6133    1.7596   21.9006 C   0  0  0  0  0  0  0  0  0  0  0  0
    6.9045    0.9701   21.6113 C   0  0  0  0  0  0  0  0  0  0  0  0
    6.0478    2.0262   22.3120 C   0  0  0  0  0  0  0  0  0  0  0  0
    4.8629    4.5199   17.6622 N   0  0  0  0  0  0  0  0  0  0  0  0
    5.2306    4.8642   16.7872 H   0  0  0  0  0  0  0  0  0  0  0  0
    4.8828    5.4761   18.7613 C   0  0  0  0  0  0  0  0  0  0  0  0
    6.1868    6.2179   18.8927 C   0  0  0  0  0  0  0  0  0  0  0  0
    6.1801    6.7645   20.3273 C   0  0  0  0  0  0  0  0  0  0  0  0
    5.0441    7.7131   20.4585 C   0  0  0  0  0  0  0  0  0  0  0  0
    4.3826    7.4687   21.6729 O   0  0  0  0  0  0  0  0  0  0  0  0
    4.0960    7.7853   19.3184 C   0  0  0  0  0  0  0  0  0  0  0  0
    3.7556    6.4552   18.6950 C   0  0  0  0  0  0  0  0  0  0  0  0
    3.6582    8.1351   21.7733 H   0  0  0  0  0  0  0  0  0  0  0  0
 16 17  1  0  0  0
 17 15  1  0  0  0
 15 13  1  0  0  0
 13  1  1  0  0  0
  1  2  2  0  0  0
  2  3  1  0  0  0
  3  4  2  0  0  0
  4  5  1  0  0  0
  5 18  1  0  0  0
 18 20  1  0  0  0
 20 21  1  0  0  0
 21 22  1  0  0  0
 22 23  1  0  0  0
 23 24  1  0  0  0
 23 25  1  0  0  0
 25 26  1  0  0  0
  5  6  2  0  0  0
  4  7  1  0  0  0
  7  8  2  0  0  0
  8  9  1  0  0  0
  9 10  2  0  0  0
 10 11  1  0  0  0
 11 12  2  0  0  0
  6  1  1  0  0  0
 12  7  1  0  0  0
 26 20  1  0  0  0
 13 14  1  0  0  0
 18 19  1  0  0  0
 24 27  1  0  0  0
M  END
> <minimizedAffinity>
-7.47738

> <CNNscore>
0.4426240623

> <CNNaffinity>
6.2918343544

> <CNN_VS>
2.7849173546

> <CNNaffinity_variance>
0.4546724856

$$$$
[H]O[C@]1([H])C([H])([H])C([H])([H])[C@@]([H])(N([H])c2nc(N([H])C([H])([H])C([H])([H])C([H])([H])[H])nc([H])c2-c2nc([H])c([H])c([H])c2[H])C([H])([H])C1([H])[H]


 27 29  0  0  0  0  0  0  0  0999 V2000
    2.8804    2.2400   10.4250 C   0  0  0  0  0  0  0  0  0  0  0  0
    1.6257    1.9160   10.7179 N   0  0  0  0  0  0  0  0  0  0  0  0
    0.8326    2.8029   11.3882 C   0  0  0  0  0  0  0  0  0  0  0  0
    1.2838    4.0447   11.7823 C   0  0  0  0  0  0  0  0  0  0  0  0
    2.5746    4.3635   11.4738 C   0  0  0  0  0  0  0  0  0  0  0  0
    3.3302    3.4305   10.7970 N   0  0  0  0  0  0  0  0  0  0  0  0
    0.4005    4.9582   12.4628 C   0  0  0  0  0  0  0  0  0  0  0  0
   -0.9225    5.1089   12.0137 C   0  0  0  0  0  0  0  0  0  0  0  0
   -1.7976    5.9870   12.6160 C   0  0  0  0  0  0  0  0  0  0  0  0
   -1.3924    6.7414   13.6775 C   0  0  0  0  0  0  0  0  0  0  0  0
   -0.0720    6.5737   14.1047 C   0  0  0  0  0  0  0  0  0  0  0  0
    0.7289    5.7197   13.4960 N   0  0  0  0  0  0  0  0  0  0  0  0
    3.7220    1.3171    9.7225 N   0  0  0  0  0  0  0  0  0  0  0  0
    4.7402    1.2582    9.9284 H   0  0  0  0  0  0  0  0  0  0  0  0
    3.1502    0.4626    8.7207 C   0  0  0  0  0  0  0  0  0  0  0  0
    1.8751   -1.5868    9.0819 C   0  0  0  0  0  0  0  0  0  0  0  0
    3.2765   -0.9797    9.1697 C   0  0  0  0  0  0  0  0  0  0  0  0
    3.2142    5.5912   11.7846 N   0  0  0  0  0  0  0  0  0  0  0  0
    3.1848    6.0593   12.6787 H   0  0  0  0  0  0  0  0  0  0  0  0
    3.9820    6.2750   10.7524 C   0  0  0  0  0  0  0  0  0  0  0  0
    3.3222    7.5278   10.2394 C   0  0  0  0  0  0  0  0  0  0  0  0
    3.9991    7.7981    8.8882 C   0  0  0  0  0  0  0  0  0  0  0  0
    5.4424    8.0518    9.1333 C   0  0  0  0  0  0  0  0  0  0  0  0
    6.1980    7.3526    8.1782 O   0  0  0  0  0  0  0  0  0  0  0  0
    5.9400    7.8146   10.5118 C   0  0  0  0  0  0  0  0  0  0  0  0
    5.3788    6.5867   11.1832 C   0  0  0  0  0  0  0  0  0  0  0  0
    7.1538    7.5651    8.3198 H   0  0  0  0  0  0  0  0  0  0  0  0
 16 17  1  0  0  0
 17 15  1  0  0  0
 15 13  1  0  0  0
 13  1  1  0  0  0
  1  2  2  0  0  0
  2  3  1  0  0  0
  3  4  2  0  0  0
  4  5  1  0  0  0
  5 18  1  0  0  0
 18 20  1  0  0  0
 20 21  1  0  0  0
 21 22  1  0  0  0
 22 23  1  0  0  0
 23 24  1  0  0  0
 23 25  1  0  0  0
 25 26  1  0  0  0
  5  6  2  0  0  0
  4  7  1  0  0  0
  7  8  2  0  0  0
  8  9  1  0  0  0
  9 10  2  0  0  0
 10 11  1  0  0  0
 11 12  2  0  0  0
  6  1  1  0  0  0
 12  7  1  0  0  0
 26 20  1  0  0  0
 13 14  1  0  0  0
 18 19  1  0  0  0
 24 27  1  0  0  0
M  END
> <minimizedAffinity>
-4.43628

> <CNNscore>
0.3651487231

> <CNNaffinity>
5.0691118240

> <CNN_VS>
1.8509796858

> <CNNaffinity_variance>
0.4819776118

$$$$
[H]O[C@]1([H])C([H])([H])C([H])([H])[C@@]([H])(N([H])c2nc(N([H])C([H])([H])C([H])([H])C([H])([H])[H])nc([H])c2-c2nc([H])c([H])c([H])c2[H])C([H])([H])C1([H])[H]


 27 29  0  0  0  0  0  0  0  0999 V2000
    3.9198    2.4885   16.3832 C   0  0  0  0  0  0  0  0  0  0  0  0
    3.6384    1.4909   17.2143 N   0  0  0  0  0  0  0  0  0  0  0  0
    4.0264    1.5643   18.5216 C   0  0  0  0  0  0  0  0  0  0  0  0
    4.7104    2.6488   19.0286 C   0  0  0  0  0  0  0  0  0  0  0  0
    4.9918    3.6660   18.1630 C   0  0  0  0  0  0  0  0  0  0  0  0
    4.5773    3.5391   16.8547 N   0  0  0  0  0  0  0  0  0  0  0  0
    5.0742    2.6935   20.4226 C   0  0  0  0  0  0  0  0  0  0  0  0
    5.8636    1.6663   20.9673 C   0  0  0  0  0  0  0  0  0  0  0  0
    6.2174    1.6519   22.2993 C   0  0  0  0  0  0  0  0  0  0  0  0
    5.8023    2.6495   23.1315 C   0  0  0  0  0  0  0  0  0  0  0  0
    5.0179    3.6590   22.5658 C   0  0  0  0  0  0  0  0  0  0  0  0
    4.7051    3.6298   21.2842 N   0  0  0  0  0  0  0  0  0  0  0  0
    3.5180    2.4224   15.0093 N   0  0  0  0  0  0  0  0  0  0  0  0
    3.2244    1.5210   14.5806 H   0  0  0  0  0  0  0  0  0  0  0  0
    3.5214    3.6180   14.2148 C   0  0  0  0  0  0  0  0  0  0  0  0
    2.3786    5.6455   14.9493 C   0  0  0  0  0  0  0  0  0  0  0  0
    2.1585    4.2757   14.3047 C   0  0  0  0  0  0  0  0  0  0  0  0
    5.6751    4.8636   18.4972 N   0  0  0  0  0  0  0  0  0  0  0  0
    6.5713    4.9196   18.9587 H   0  0  0  0  0  0  0  0  0  0  0  0
    5.0635    6.1459   18.1742 C   0  0  0  0  0  0  0  0  0  0  0  0
    4.7761    6.9989   19.3817 C   0  0  0  0  0  0  0  0  0  0  0  0
    3.7335    8.0171   18.8988 C   0  0  0  0  0  0  0  0  0  0  0  0
    4.3516    8.8452   17.8312 C   0  0  0  0  0  0  0  0  0  0  0  0
    3.4348    8.9910   16.7775 O   0  0  0  0  0  0  0  0  0  0  0  0
    5.6889    8.4223   17.3446 C   0  0  0  0  0  0  0  0  0  0  0  0
    5.8609    6.9329   17.1851 C   0  0  0  0  0  0  0  0  0  0  0  0
    3.8368    9.5822   16.0936 H   0  0  0  0  0  0  0  0  0  0  0  0
 16 17  1  0  0  0
 17 15  1  0  0  0
 15 13  1  0  0  0
 13  1  1  0  0  0
  1  2  2  0  0  0
  2  3  1  0  0  0
  3  4  2  0  0  0
  4  5  1  0  0  0
  5 18  1  0  0  0
 18 20  1  0  0  0
 20 21  1  0  0  0
 21 22  1  0  0  0
 22 23  1  0  0  0
 23 24  1  0  0  0
 23 25  1  0  0  0
 25 26  1  0  0  0
  5  6  2  0  0  0
  4  7  1  0  0  0
  7  8  2  0  0  0
  8  9  1  0  0  0
  9 10  2  0  0  0
 10 11  1  0  0  0
 11 12  2  0  0  0
  6  1  1  0  0  0
 12  7  1  0  0  0
 26 20  1  0  0  0
 13 14  1  0  0  0
 18 19  1  0  0  0
 24 27  1  0  0  0
M  END
> <minimizedAffinity>
-6.83891

> <CNNscore>
0.3336466253

> <CNNaffinity>
5.8817520142

> <CNN_VS>
1.9624266624

> <CNNaffinity_variance>
0.4443666339

$$$$
[H]O[C@]1([H])C([H])([H])C([H])([H])[C@@]([H])(N([H])c2nc(N([H])C([H])([H])C([H])([H])C([H])([H])[H])nc([H])c2-c2nc([H])c([H])c([H])c2[H])C([H])([H])C1([H])[H]


 27 29  0  0  0  0  0  0  0  0999 V2000
    4.1755    3.6389   15.8872 C   0  0  0  0  0  0  0  0  0  0  0  0
    3.5410    2.4717   15.9001 N   0  0  0  0  0  0  0  0  0  0  0  0
    3.5563    1.7011   17.0274 C   0  0  0  0  0  0  0  0  0  0  0  0
    4.2133    2.0876   18.1765 C   0  0  0  0  0  0  0  0  0  0  0  0
    4.8599    3.2892   18.1483 C   0  0  0  0  0  0  0  0  0  0  0  0
    4.8124    4.0254   16.9841 N   0  0  0  0  0  0  0  0  0  0  0  0
    4.1775    1.2532   19.3513 C   0  0  0  0  0  0  0  0  0  0  0  0
    2.9512    0.7269   19.7919 C   0  0  0  0  0  0  0  0  0  0  0  0
    2.8621   -0.0560   20.9227 C   0  0  0  0  0  0  0  0  0  0  0  0
    3.9795   -0.3413   21.6509 C   0  0  0  0  0  0  0  0  0  0  0  0
    5.1865    0.1943   21.1924 C   0  0  0  0  0  0  0  0  0  0  0  0
    5.2219    0.9385   20.1033 N   0  0  0  0  0  0  0  0  0  0  0  0
    4.1666    4.4556   14.7098 N   0  0  0  0  0  0  0  0  0  0  0  0
    4.9422    4.4056   14.0181 H   0  0  0  0  0  0  0  0  0  0  0  0
    3.0709    5.3551   14.4832 C   0  0  0  0  0  0  0  0  0  0  0  0
    3.1476    4.1335   12.3718 C   0  0  0  0  0  0  0  0  0  0  0  0
    2.2021    4.8058   13.3690 C   0  0  0  0  0  0  0  0  0  0  0  0
    5.5796    3.8602   19.2294 N   0  0  0  0  0  0  0  0  0  0  0  0
    6.5225    4.2184   19.1837 H   0  0  0  0  0  0  0  0  0  0  0  0
    4.9463    3.9487   20.5384 C   0  0  0  0  0  0  0  0  0  0  0  0
    5.9161    3.8497   21.6863 C   0  0  0  0  0  0  0  0  0  0  0  0
    5.0493    3.4726   22.8960 C   0  0  0  0  0  0  0  0  0  0  0  0
    4.0873    4.5780   23.1417 C   0  0  0  0  0  0  0  0  0  0  0  0
    2.8188    4.0318   23.3959 O   0  0  0  0  0  0  0  0  0  0  0  0
    4.0298    5.6556   22.1222 C   0  0  0  0  0  0  0  0  0  0  0  0
    4.1120    5.1789   20.6941 C   0  0  0  0  0  0  0  0  0  0  0  0
    2.1964    4.7719   23.6048 H   0  0  0  0  0  0  0  0  0  0  0  0
 16 17  1  0  0  0
 17 15  1  0  0  0
 15 13  1  0  0  0
 13  1  1  0  0  0
  1  2  2  0  0  0
  2  3  1  0  0  0
  3  4  2  0  0  0
  4  5  1  0  0  0
  5 18  1  0  0  0
 18 20  1  0  0  0
 20 21  1  0  0  0
 21 22  1  0  0  0
 22 23  1  0  0  0
 23 24  1  0  0  0
 23 25  1  0  0  0
 25 26  1  0  0  0
  5  6  2  0  0  0
  4  7  1  0  0  0
  7  8  2  0  0  0
  8  9  1  0  0  0
  9 10  2  0  0  0
 10 11  1  0  0  0
 11 12  2  0  0  0
  6  1  1  0  0  0
 12  7  1  0  0  0
 26 20  1  0  0  0
 13 14  1  0  0  0
 18 19  1  0  0  0
 24 27  1  0  0  0
M  END
> <minimizedAffinity>
-6.57437

> <CNNscore>
0.3245174587

> <CNNaffinity>
6.0948038101

> <CNN_VS>
1.9778702259

> <CNNaffinity_variance>
0.2170127630

$$$$
[H]O[C@]1([H])C([H])([H])C([H])([H])[C@@]([H])(N([H])c2nc(N([H])C([H])([H])C([H])([H])C([H])([H])[H])nc([H])c2-c2nc([H])c([H])c([H])c2[H])C([H])([H])C1([H])[H]


 27 29  0  0  0  0  0  0  0  0999 V2000
    3.6722    2.7097   16.5793 C   0  0  0  0  0  0  0  0  0  0  0  0
    2.9151    1.7107   16.1387 N   0  0  0  0  0  0  0  0  0  0  0  0
    2.5498    1.6624   14.8238 C   0  0  0  0  0  0  0  0  0  0  0  0
    2.9394    2.6225   13.9140 C   0  0  0  0  0  0  0  0  0  0  0  0
    3.7172    3.6421   14.3812 C   0  0  0  0  0  0  0  0  0  0  0  0
    4.0553    3.6415   15.7173 N   0  0  0  0  0  0  0  0  0  0  0  0
    2.5523    2.5136   12.5298 C   0  0  0  0  0  0  0  0  0  0  0  0
    1.3974    1.7901   12.1868 C   0  0  0  0  0  0  0  0  0  0  0  0
    0.9995    1.6373   10.8761 C   0  0  0  0  0  0  0  0  0  0  0  0
    1.7295    2.1932    9.8670 C   0  0  0  0  0  0  0  0  0  0  0  0
    2.8739    2.9071   10.2340 C   0  0  0  0  0  0  0  0  0  0  0  0
    3.2145    3.0264   11.5033 N   0  0  0  0  0  0  0  0  0  0  0  0
    4.0612    2.7711   17.9571 N   0  0  0  0  0  0  0  0  0  0  0  0
    4.2000    3.6855   18.4336 H   0  0  0  0  0  0  0  0  0  0  0  0
    4.2617    1.5522   18.6886 C   0  0  0  0  0  0  0  0  0  0  0  0
    3.9349    0.5644   20.8963 C   0  0  0  0  0  0  0  0  0  0  0  0
    4.2898    1.8642   20.1718 C   0  0  0  0  0  0  0  0  0  0  0  0
    4.2234    4.7132   13.6006 N   0  0  0  0  0  0  0  0  0  0  0  0
    4.9298    4.6352   12.8835 H   0  0  0  0  0  0  0  0  0  0  0  0
    3.7158    6.0601   13.8260 C   0  0  0  0  0  0  0  0  0  0  0  0
    4.1077    7.0406   12.7521 C   0  0  0  0  0  0  0  0  0  0  0  0
    3.9206    8.4204   13.3986 C   0  0  0  0  0  0  0  0  0  0  0  0
    2.4825    8.5862   13.7333 C   0  0  0  0  0  0  0  0  0  0  0  0
    2.3734    9.1374   15.0203 O   0  0  0  0  0  0  0  0  0  0  0  0
    1.6140    7.3935   13.5684 C   0  0  0  0  0  0  0  0  0  0  0  0
    2.2339    6.0942   14.0167 C   0  0  0  0  0  0  0  0  0  0  0  0
    1.4152    9.2880   15.2151 H   0  0  0  0  0  0  0  0  0  0  0  0
 16 17  1  0  0  0
 17 15  1  0  0  0
 15 13  1  0  0  0
 13  1  1  0  0  0
  1  2  2  0  0  0
  2  3  1  0  0  0
  3  4  2  0  0  0
  4  5  1  0  0  0
  5 18  1  0  0  0
 18 20  1  0  0  0
 20 21  1  0  0  0
 21 22  1  0  0  0
 22 23  1  0  0  0
 23 24  1  0  0  0
 23 25  1  0  0  0
 25 26  1  0  0  0
  5  6  2  0  0  0
  4  7  1  0  0  0
  7  8  2  0  0  0
  8  9  1  0  0  0
  9 10  2  0  0  0
 10 11  1  0  0  0
 11 12  2  0  0  0
  6  1  1  0  0  0
 12  7  1  0  0  0
 26 20  1  0  0  0
 13 14  1  0  0  0
 18 19  1  0  0  0
 24 27  1  0  0  0
M  END
> <minimizedAffinity>
-6.18035

> <CNNscore>
0.3181766868

> <CNNaffinity>
5.8086748123

> <CNN_VS>
1.8481849432

> <CNNaffinity_variance>
0.2967857122

$$$$
[H]O[C@]1([H])C([H])([H])C([H])([H])[C@@]([H])(N([H])c2nc(N([H])C([H])([H])C([H])([H])C([H])([H])[H])nc([H])c2-c2nc([H])c([H])c([H])c2[H])C([H])([H])C1([H])[H]


 27 29  0  0  0  0  0  0  0  0999 V2000
   -0.0733    2.7512    9.9762 C   0  0  0  0  0  0  0  0  0  0  0  0
    0.1202    1.7962    9.0730 N   0  0  0  0  0  0  0  0  0  0  0  0
    1.3714    1.2833    8.8824 C   0  0  0  0  0  0  0  0  0  0  0  0
    2.4650    1.7200    9.5995 C   0  0  0  0  0  0  0  0  0  0  0  0
    2.2505    2.7009   10.5241 C   0  0  0  0  0  0  0  0  0  0  0  0
    0.9680    3.1826   10.6745 N   0  0  0  0  0  0  0  0  0  0  0  0
    3.7614    1.1283    9.3829 C   0  0  0  0  0  0  0  0  0  0  0  0
    3.9574   -0.2352    9.6614 C   0  0  0  0  0  0  0  0  0  0  0  0
    5.1840   -0.8410    9.4934 C   0  0  0  0  0  0  0  0  0  0  0  0
    6.2515   -0.1192    9.0467 C   0  0  0  0  0  0  0  0  0  0  0  0
    6.0310    1.2346    8.7775 C   0  0  0  0  0  0  0  0  0  0  0  0
    4.8379    1.7701    8.9535 N   0  0  0  0  0  0  0  0  0  0  0  0
   -1.3818    3.2972   10.1846 N   0  0  0  0  0  0  0  0  0  0  0  0
   -2.2259    2.6896   10.1551 H   0  0  0  0  0  0  0  0  0  0  0  0
   -1.5278    4.7027   10.4374 C   0  0  0  0  0  0  0  0  0  0  0  0
   -1.0845    5.5508   12.6826 C   0  0  0  0  0  0  0  0  0  0  0  0
   -2.1533    4.8972   11.8045 C   0  0  0  0  0  0  0  0  0  0  0  0
    3.2431    3.2708   11.3624 N   0  0  0  0  0  0  0  0  0  0  0  0
    3.9433    2.7569   11.8773 H   0  0  0  0  0  0  0  0  0  0  0  0
    3.2869    4.7171   11.5320 C   0  0  0  0  0  0  0  0  0  0  0  0
    3.2448    5.1578   12.9715 C   0  0  0  0  0  0  0  0  0  0  0  0
    2.8098    6.6290   12.9149 C   0  0  0  0  0  0  0  0  0  0  0  0
    3.8518    7.3945   12.1828 C   0  0  0  0  0  0  0  0  0  0  0  0
    3.2263    8.2712   11.2816 O   0  0  0  0  0  0  0  0  0  0  0  0
    4.9274    6.6067   11.5297 C   0  0  0  0  0  0  0  0  0  0  0  0
    4.4619    5.3426   10.8524 C   0  0  0  0  0  0  0  0  0  0  0  0
    3.9253    8.8094   10.8337 H   0  0  0  0  0  0  0  0  0  0  0  0
 16 17  1  0  0  0
 17 15  1  0  0  0
 15 13  1  0  0  0
 13  1  1  0  0  0
  1  2  2  0  0  0
  2  3  1  0  0  0
  3  4  2  0  0  0
  4  5  1  0  0  0
  5 18  1  0  0  0
 18 20  1  0  0  0
 20 21  1  0  0  0
 21 22  1  0  0  0
 22 23  1  0  0  0
 23 24  1  0  0  0
 23 25  1  0  0  0
 25 26  1  0  0  0
  5  6  2  0  0  0
  4  7  1  0  0  0
  7  8  2  0  0  0
  8  9  1  0  0  0
  9 10  2  0  0  0
 10 11  1  0  0  0
 11 12  2  0  0  0
  6  1  1  0  0  0
 12  7  1  0  0  0
 26 20  1  0  0  0
 13 14  1  0  0  0
 18 19  1  0  0  0
 24 27  1  0  0  0
M  END
> <minimizedAffinity>
-4.33979

> <CNNscore>
0.3076221049

> <CNNaffinity>
4.8392510414

> <CNN_VS>
1.4886605740

> <CNNaffinity_variance>
0.1490233690

$$$$
[H]OC1([H])C([H])([H])C([H])([H])C([H])(n2nc(-c3c([H])c([H])c(N([H])S(=O)(=O)C([H])([H])[H])c([H])c3[H])c3c([H])nc(N([H])C([H])([H])C([H])([H])C([H])([H])C([H])([H])[H])nc32)C([H])([H])C1([H])[H]


 35 38  0  0  0  0  0  0  0  0999 V2000
    3.5658    1.3624   18.1564 C   0  0  0  0  0  0  0  0  0  0  0  0
    2.9721    0.7506   17.1177 N   0  0  0  0  0  0  0  0  0  0  0  0
    2.7305    1.3628   15.9536 C   0  0  0  0  0  0  0  0  0  0  0  0
    3.0897    2.6761   15.7696 C   0  0  0  0  0  0  0  0  0  0  0  0
    3.0132    3.6046   14.7681 C   0  0  0  0  0  0  0  0  0  0  0  0
    3.5636    4.7526   15.2300 N   0  0  0  0  0  0  0  0  0  0  0  0
    3.9836    4.6082   16.4622 N   0  0  0  0  0  0  0  0  0  0  0  0
    3.7070    3.3307   16.8335 C   0  0  0  0  0  0  0  0  0  0  0  0
    3.9135    2.6466   17.9674 N   0  0  0  0  0  0  0  0  0  0  0  0
    4.6171    5.5794   17.2959 C   0  0  0  0  0  0  0  0  0  0  0  0
    6.1168    5.3588   17.4305 C   0  0  0  0  0  0  0  0  0  0  0  0
    6.5554    6.1929   18.6251 C   0  0  0  0  0  0  0  0  0  0  0  0
    6.2110    7.6405   18.4755 C   0  0  0  0  0  0  0  0  0  0  0  0
    6.2970    8.2156   19.7645 O   0  0  0  0  0  0  0  0  0  0  0  0
    4.8299    7.8987   17.9740 C   0  0  0  0  0  0  0  0  0  0  0  0
    4.4214    6.9970   16.8341 C   0  0  0  0  0  0  0  0  0  0  0  0
    7.2201    8.1210   20.1223 H   0  0  0  0  0  0  0  0  0  0  0  0
    2.4348    3.3593   13.4527 C   0  0  0  0  0  0  0  0  0  0  0  0
    3.2194    2.7678   12.4836 C   0  0  0  0  0  0  0  0  0  0  0  0
    2.7253    2.5046   11.1975 C   0  0  0  0  0  0  0  0  0  0  0  0
    1.4429    2.8375   10.8898 C   0  0  0  0  0  0  0  0  0  0  0  0
    0.6605    3.4374   11.8865 C   0  0  0  0  0  0  0  0  0  0  0  0
    1.1361    3.6989   13.1488 C   0  0  0  0  0  0  0  0  0  0  0  0
    0.8634    2.6028    9.6208 N   0  0  0  0  0  0  0  0  0  0  0  0
    0.7844    3.3555    8.9052 H   0  0  0  0  0  0  0  0  0  0  0  0
    0.2700    1.0383    9.2375 S   0  0  0  0  0  0  0  0  0  0  0  0
   -1.4288    1.2587    8.6944 C   0  0  0  0  0  0  0  0  0  0  0  0
    1.0446    0.3470    8.1590 O   0  0  0  0  0  0  0  0  0  0  0  0
    0.2873    0.1561   10.4668 O   0  0  0  0  0  0  0  0  0  0  0  0
    3.8276    0.7084   19.4099 N   0  0  0  0  0  0  0  0  0  0  0  0
    3.6505   -0.3265   19.4797 H   0  0  0  0  0  0  0  0  0  0  0  0
    4.3121    1.3618   20.5687 C   0  0  0  0  0  0  0  0  0  0  0  0
    3.5782    1.0777   21.8489 C   0  0  0  0  0  0  0  0  0  0  0  0
    4.9248    2.1252   23.5847 C   0  0  0  0  0  0  0  0  0  0  0  0
    3.7249    2.3485   22.7009 C   0  0  0  0  0  0  0  0  0  0  0  0
 34 35  1  0  0  0
 35 33  1  0  0  0
 33 32  1  0  0  0
 32 30  1  0  0  0
 30  1  1  0  0  0
  1  2  2  0  0  0
  2  3  1  0  0  0
  3  4  2  0  0  0
  4  5  1  0  0  0
  5  6  2  0  0  0
  6  7  1  0  0  0
  7 10  1  0  0  0
 10 11  1  0  0  0
 11 12  1  0  0  0
 12 13  1  0  0  0
 13 14  1  0  0  0
 13 15  1  0  0  0
 15 16  1  0  0  0
  7  8  1  0  0  0
  8  9  2  0  0  0
  5 18  1  0  0  0
 18 19  2  0  0  0
 19 20  1  0  0  0
 20 21  2  0  0  0
 21 24  1  0  0  0
 24 26  1  0  0  0
 26 27  1  0  0  0
 26 28  2  0  0  0
 26 29  2  0  0  0
 21 22  1  0  0  0
 22 23  2  0  0  0
  9  1  1  0  0  0
 23 18  1  0  0  0
  8  4  1  0  0  0
 16 10  1  0  0  0
 30 31  1  0  0  0
 14 17  1  0  0  0
 24 25  1  0  0  0
M  END
> <minimizedAffinity>
-6.61079

> <CNNscore>
0.6287057996

> <CNNaffinity>
7.0213150978

> <CNN_VS>
4.4143414497

> <CNNaffinity_variance>
0.4443829656

$$$$
[H]OC1([H])C([H])([H])C([H])([H])C([H])(n2nc(-c3c([H])c([H])c(N([H])S(=O)(=O)C([H])([H])[H])c([H])c3[H])c3c([H])nc(N([H])C([H])([H])C([H])([H])C([H])([H])C([H])([H])[H])nc32)C([H])([H])C1([H])[H]


 35 38  0  0  0  0  0  0  0  0999 V2000
    3.9107    1.1863   19.4876 C   0  0  0  0  0  0  0  0  0  0  0  0
    3.2758    0.6225   18.4461 N   0  0  0  0  0  0  0  0  0  0  0  0
    3.1913    1.2029   17.2442 C   0  0  0  0  0  0  0  0  0  0  0  0
    3.7658    2.4311   17.0220 C   0  0  0  0  0  0  0  0  0  0  0  0
    3.8874    3.3057   15.9774 C   0  0  0  0  0  0  0  0  0  0  0  0
    4.5932    4.3746   16.4174 N   0  0  0  0  0  0  0  0  0  0  0  0
    4.9257    4.2306   17.6760 N   0  0  0  0  0  0  0  0  0  0  0  0
    4.4296    3.0346   18.0881 C   0  0  0  0  0  0  0  0  0  0  0  0
    4.4694    2.3872   19.2610 N   0  0  0  0  0  0  0  0  0  0  0  0
    5.6675    5.1315   18.4992 C   0  0  0  0  0  0  0  0  0  0  0  0
    6.3904    6.2069   17.7014 C   0  0  0  0  0  0  0  0  0  0  0  0
    7.4186    6.8082   18.6481 C   0  0  0  0  0  0  0  0  0  0  0  0
    6.8031    7.3531   19.8975 C   0  0  0  0  0  0  0  0  0  0  0  0
    7.8509    7.5074   20.8346 O   0  0  0  0  0  0  0  0  0  0  0  0
    5.7849    6.4613   20.5247 C   0  0  0  0  0  0  0  0  0  0  0  0
    4.8335    5.8373   19.5324 C   0  0  0  0  0  0  0  0  0  0  0  0
    8.5327    8.1424   20.4866 H   0  0  0  0  0  0  0  0  0  0  0  0
    3.3397    3.0863   14.6444 C   0  0  0  0  0  0  0  0  0  0  0  0
    2.3396    2.1488   14.4849 C   0  0  0  0  0  0  0  0  0  0  0  0
    1.7697    1.8882   13.2300 C   0  0  0  0  0  0  0  0  0  0  0  0
    2.2079    2.5717   12.1386 C   0  0  0  0  0  0  0  0  0  0  0  0
    3.2243    3.5202   12.3194 C   0  0  0  0  0  0  0  0  0  0  0  0
    3.7882    3.7820   13.5448 C   0  0  0  0  0  0  0  0  0  0  0  0
    1.6852    2.3756   10.8388 N   0  0  0  0  0  0  0  0  0  0  0  0
    0.8666    2.9160   10.4885 H   0  0  0  0  0  0  0  0  0  0  0  0
    2.4115    1.2176    9.8004 S   0  0  0  0  0  0  0  0  0  0  0  0
    1.1628   -0.0360    9.4860 C   0  0  0  0  0  0  0  0  0  0  0  0
    2.8766    1.7853    8.4956 O   0  0  0  0  0  0  0  0  0  0  0  0
    3.5993    0.5746   10.4826 O   0  0  0  0  0  0  0  0  0  0  0  0
    4.0041    0.5660   20.7814 N   0  0  0  0  0  0  0  0  0  0  0  0
    4.5662   -0.3189   20.8716 H   0  0  0  0  0  0  0  0  0  0  0  0
    3.3894    1.0648   21.9553 C   0  0  0  0  0  0  0  0  0  0  0  0
    4.3065    1.6640   22.9838 C   0  0  0  0  0  0  0  0  0  0  0  0
    3.5900    3.9253   23.5284 C   0  0  0  0  0  0  0  0  0  0  0  0
    4.4659    3.1402   22.5865 C   0  0  0  0  0  0  0  0  0  0  0  0
 34 35  1  0  0  0
 35 33  1  0  0  0
 33 32  1  0  0  0
 32 30  1  0  0  0
 30  1  1  0  0  0
  1  2  2  0  0  0
  2  3  1  0  0  0
  3  4  2  0  0  0
  4  5  1  0  0  0
  5  6  2  0  0  0
  6  7  1  0  0  0
  7 10  1  0  0  0
 10 11  1  0  0  0
 11 12  1  0  0  0
 12 13  1  0  0  0
 13 14  1  0  0  0
 13 15  1  0  0  0
 15 16  1  0  0  0
  7  8  1  0  0  0
  8  9  2  0  0  0
  5 18  1  0  0  0
 18 19  2  0  0  0
 19 20  1  0  0  0
 20 21  2  0  0  0
 21 24  1  0  0  0
 24 26  1  0  0  0
 26 27  1  0  0  0
 26 28  2  0  0  0
 26 29  2  0  0  0
 21 22  1  0  0  0
 22 23  2  0  0  0
  9  1  1  0  0  0
 23 18  1  0  0  0
  8  4  1  0  0  0
 16 10  1  0  0  0
 30 31  1  0  0  0
 14 17  1  0  0  0
 24 25  1  0  0  0
M  END
> <minimizedAffinity>
-7.75172

> <CNNscore>
0.6094348431

> <CNNaffinity>
7.0836820602

> <CNN_VS>
4.3170428276

> <CNNaffinity_variance>
0.4363691807

$$$$
[H]OC1([H])C([H])([H])C([H])([H])C([H])(n2nc(-c3c([H])c([H])c(N([H])S(=O)(=O)C([H])([H])[H])c([H])c3[H])c3c([H])nc(N([H])C([H])([H])C([H])([H])C([H])([H])C([H])([H])[H])nc32)C([H])([H])C1([H])[H]


 35 38  0  0  0  0  0  0  0  0999 V2000
    4.0295    1.5187   18.9871 C   0  0  0  0  0  0  0  0  0  0  0  0
    3.8445    0.8511   17.8357 N   0  0  0  0  0  0  0  0  0  0  0  0
    3.6880    1.4625   16.6567 C   0  0  0  0  0  0  0  0  0  0  0  0
    3.7111    2.8339   16.5749 C   0  0  0  0  0  0  0  0  0  0  0  0
    3.5925    3.7810   15.5952 C   0  0  0  0  0  0  0  0  0  0  0  0
    3.7093    4.9957   16.1826 N   0  0  0  0  0  0  0  0  0  0  0  0
    3.8945    4.8760   17.4736 N   0  0  0  0  0  0  0  0  0  0  0  0
    3.9018    3.5470   17.7567 C   0  0  0  0  0  0  0  0  0  0  0  0
    4.0506    2.8594   18.8974 N   0  0  0  0  0  0  0  0  0  0  0  0
    4.0621    5.9150   18.4391 C   0  0  0  0  0  0  0  0  0  0  0  0
    5.3881    5.8285   19.1806 C   0  0  0  0  0  0  0  0  0  0  0  0
    5.2409    6.7211   20.4039 C   0  0  0  0  0  0  0  0  0  0  0  0
    4.8850    8.1300   20.0504 C   0  0  0  0  0  0  0  0  0  0  0  0
    4.3968    8.7359   21.2312 O   0  0  0  0  0  0  0  0  0  0  0  0
    3.8137    8.2570   19.0200 C   0  0  0  0  0  0  0  0  0  0  0  0
    3.9709    7.3007   17.8624 C   0  0  0  0  0  0  0  0  0  0  0  0
    5.0981    8.7291   21.9364 H   0  0  0  0  0  0  0  0  0  0  0  0
    3.3795    3.4904   14.1827 C   0  0  0  0  0  0  0  0  0  0  0  0
    2.5152    2.4709   13.8389 C   0  0  0  0  0  0  0  0  0  0  0  0
    2.2660    2.1391   12.4990 C   0  0  0  0  0  0  0  0  0  0  0  0
    2.8873    2.8340   11.5084 C   0  0  0  0  0  0  0  0  0  0  0  0
    3.7617    3.8663   11.8762 C   0  0  0  0  0  0  0  0  0  0  0  0
    4.0118    4.1982   13.1859 C   0  0  0  0  0  0  0  0  0  0  0  0
    2.6892    2.5695   10.1329 N   0  0  0  0  0  0  0  0  0  0  0  0
    1.9727    3.0776    9.5733 H   0  0  0  0  0  0  0  0  0  0  0  0
    3.6503    1.3800    9.3529 S   0  0  0  0  0  0  0  0  0  0  0  0
    5.2408    2.1488    9.0232 C   0  0  0  0  0  0  0  0  0  0  0  0
    3.8624    0.1444   10.1711 O   0  0  0  0  0  0  0  0  0  0  0  0
    3.0155    0.9713    8.0415 O   0  0  0  0  0  0  0  0  0  0  0  0
    4.1981    0.8656   20.2569 N   0  0  0  0  0  0  0  0  0  0  0  0
    4.9285    0.1125   20.3380 H   0  0  0  0  0  0  0  0  0  0  0  0
    3.4459    1.1655   21.4183 C   0  0  0  0  0  0  0  0  0  0  0  0
    4.2000    1.7943   22.5558 C   0  0  0  0  0  0  0  0  0  0  0  0
    3.6733    3.9739   23.5019 C   0  0  0  0  0  0  0  0  0  0  0  0
    4.2083    3.3032   22.2631 C   0  0  0  0  0  0  0  0  0  0  0  0
 34 35  1  0  0  0
 35 33  1  0  0  0
 33 32  1  0  0  0
 32 30  1  0  0  0
 30  1  1  0  0  0
  1  2  2  0  0  0
  2  3  1  0  0  0
  3  4  2  0  0  0
  4  5  1  0  0  0
  5  6  2  0  0  0
  6  7  1  0  0  0
  7 10  1  0  0  0
 10 11  1  0  0  0
 11 12  1  0  0  0
 12 13  1  0  0  0
 13 14  1  0  0  0
 13 15  1  0  0  0
 15 16  1  0  0  0
  7  8  1  0  0  0
  8  9  2  0  0  0
  5 18  1  0  0  0
 18 19  2  0  0  0
 19 20  1  0  0  0
 20 21  2  0  0  0
 21 24  1  0  0  0
 24 26  1  0  0  0
 26 27  1  0  0  0
 26 28  2  0  0  0
 26 29  2  0  0  0
 21 22  1  0  0  0
 22 23  2  0  0  0
  9  1  1  0  0  0
 23 18  1  0  0  0
  8  4  1  0  0  0
 16 10  1  0  0  0
 30 31  1  0  0  0
 14 17  1  0  0  0
 24 25  1  0  0  0
M  END
> <minimizedAffinity>
-7.96703

> <CNNscore>
0.3948841691

> <CNNaffinity>
6.8879179955

> <CNN_VS>
2.7199296951

> <CNNaffinity_variance>
0.7008021474

$$$$
[H]OC1([H])C([H])([H])C([H])([H])C([H])(n2nc(-c3c([H])c([H])c(N([H])S(=O)(=O)C([H])([H])[H])c([H])c3[H])c3c([H])nc(N([H])C([H])([H])C([H])([H])C([H])([H])C([H])([H])[H])nc32)C([H])([H])C1([H])[H]


 35 38  0  0  0  0  0  0  0  0999 V2000
    4.0391    1.7889   19.3436 C   0  0  0  0  0  0  0  0  0  0  0  0
    3.7760    1.1872   18.1712 N   0  0  0  0  0  0  0  0  0  0  0  0
    3.5413    1.8641   17.0420 C   0  0  0  0  0  0  0  0  0  0  0  0
    3.5606    3.2379   17.0368 C   0  0  0  0  0  0  0  0  0  0  0  0
    3.3775    4.2387   16.1226 C   0  0  0  0  0  0  0  0  0  0  0  0
    3.5354    5.4185   16.7687 N   0  0  0  0  0  0  0  0  0  0  0  0
    3.8070    5.2263   18.0355 N   0  0  0  0  0  0  0  0  0  0  0  0
    3.8315    3.8834   18.2416 C   0  0  0  0  0  0  0  0  0  0  0  0
    4.0560    3.1326   19.3289 N   0  0  0  0  0  0  0  0  0  0  0  0
    4.0407    6.2092   19.0449 C   0  0  0  0  0  0  0  0  0  0  0  0
    5.1919    5.8468   19.9716 C   0  0  0  0  0  0  0  0  0  0  0  0
    5.0519    6.7540   21.1850 C   0  0  0  0  0  0  0  0  0  0  0  0
    5.0562    8.2053   20.8238 C   0  0  0  0  0  0  0  0  0  0  0  0
    4.5332    8.9040   21.9364 O   0  0  0  0  0  0  0  0  0  0  0  0
    4.2032    8.5526   19.6503 C   0  0  0  0  0  0  0  0  0  0  0  0
    4.3295    7.5813   18.5015 C   0  0  0  0  0  0  0  0  0  0  0  0
    5.1030    8.7514   22.7371 H   0  0  0  0  0  0  0  0  0  0  0  0
    3.0694    4.0282   14.7134 C   0  0  0  0  0  0  0  0  0  0  0  0
    4.0984    4.0796   13.7953 C   0  0  0  0  0  0  0  0  0  0  0  0
    3.8709    3.8865   12.4247 C   0  0  0  0  0  0  0  0  0  0  0  0
    2.6082    3.6425   11.9815 C   0  0  0  0  0  0  0  0  0  0  0  0
    1.5755    3.5937   12.9283 C   0  0  0  0  0  0  0  0  0  0  0  0
    1.7891    3.7815   14.2727 C   0  0  0  0  0  0  0  0  0  0  0  0
    2.2913    3.4311   10.6192 N   0  0  0  0  0  0  0  0  0  0  0  0
    2.0675    2.4841   10.2477 H   0  0  0  0  0  0  0  0  0  0  0  0
    2.2716    4.7643    9.5381 S   0  0  0  0  0  0  0  0  0  0  0  0
    1.8262    6.2045   10.5164 C   0  0  0  0  0  0  0  0  0  0  0  0
    3.5854    5.0149    8.8655 O   0  0  0  0  0  0  0  0  0  0  0  0
    1.2273    4.5521    8.4638 O   0  0  0  0  0  0  0  0  0  0  0  0
    4.2920    1.0653   20.5600 N   0  0  0  0  0  0  0  0  0  0  0  0
    5.0292    0.3145   20.5504 H   0  0  0  0  0  0  0  0  0  0  0  0
    3.6152    1.2923   21.7828 C   0  0  0  0  0  0  0  0  0  0  0  0
    4.4737    1.6570   22.9609 C   0  0  0  0  0  0  0  0  0  0  0  0
    3.7142    3.9207   23.4322 C   0  0  0  0  0  0  0  0  0  0  0  0
    4.8238    3.1419   22.7741 C   0  0  0  0  0  0  0  0  0  0  0  0
 34 35  1  0  0  0
 35 33  1  0  0  0
 33 32  1  0  0  0
 32 30  1  0  0  0
 30  1  1  0  0  0
  1  2  2  0  0  0
  2  3  1  0  0  0
  3  4  2  0  0  0
  4  5  1  0  0  0
  5  6  2  0  0  0
  6  7  1  0  0  0
  7 10  1  0  0  0
 10 11  1  0  0  0
 11 12  1  0  0  0
 12 13  1  0  0  0
 13 14  1  0  0  0
 13 15  1  0  0  0
 15 16  1  0  0  0
  7  8  1  0  0  0
  8  9  2  0  0  0
  5 18  1  0  0  0
 18 19  2  0  0  0
 19 20  1  0  0  0
 20 21  2  0  0  0
 21 24  1  0  0  0
 24 26  1  0  0  0
 26 27  1  0  0  0
 26 28  2  0  0  0
 26 29  2  0  0  0
 21 22  1  0  0  0
 22 23  2  0  0  0
  9  1  1  0  0  0
 23 18  1  0  0  0
  8  4  1  0  0  0
 16 10  1  0  0  0
 30 31  1  0  0  0
 14 17  1  0  0  0
 24 25  1  0  0  0
M  END
> <minimizedAffinity>
-7.58591

> <CNNscore>
0.3577280045

> <CNNaffinity>
6.8050627708

> <CNN_VS>
2.4343614578

> <CNNaffinity_variance>
0.5983391404

$$$$
[H]OC1([H])C([H])([H])C([H])([H])C([H])(n2nc(-c3c([H])c([H])c(N([H])S(=O)(=O)C([H])([H])[H])c([H])c3[H])c3c([H])nc(N([H])C([H])([H])C([H])([H])C([H])([H])C([H])([H])[H])nc32)C([H])([H])C1([H])[H]


 35 38  0  0  0  0  0  0  0  0999 V2000
    4.0176    1.5251   20.1223 C   0  0  0  0  0  0  0  0  0  0  0  0
    3.8182    0.8192   18.9964 N   0  0  0  0  0  0  0  0  0  0  0  0
    3.6865    1.3888   17.7937 C   0  0  0  0  0  0  0  0  0  0  0  0
    3.7516    2.7546   17.6591 C   0  0  0  0  0  0  0  0  0  0  0  0
    3.6668    3.6660   16.6427 C   0  0  0  0  0  0  0  0  0  0  0  0
    3.8176    4.8986   17.1834 N   0  0  0  0  0  0  0  0  0  0  0  0
    3.9924    4.8236   18.4792 N   0  0  0  0  0  0  0  0  0  0  0  0
    3.9578    3.5070   18.8135 C   0  0  0  0  0  0  0  0  0  0  0  0
    4.0799    2.8601   19.9809 N   0  0  0  0  0  0  0  0  0  0  0  0
    4.1866    5.8938   19.4048 C   0  0  0  0  0  0  0  0  0  0  0  0
    5.3740    5.6708   20.3299 C   0  0  0  0  0  0  0  0  0  0  0  0
    5.2034    6.6601   21.4733 C   0  0  0  0  0  0  0  0  0  0  0  0
    5.1158    8.0768   21.0021 C   0  0  0  0  0  0  0  0  0  0  0  0
    4.5733    8.8289   22.0696 O   0  0  0  0  0  0  0  0  0  0  0  0
    4.2224    8.2826   19.8253 C   0  0  0  0  0  0  0  0  0  0  0  0
    4.3843    7.2337   18.7516 C   0  0  0  0  0  0  0  0  0  0  0  0
    5.1657    8.7717   22.8664 H   0  0  0  0  0  0  0  0  0  0  0  0
    3.4523    3.3273   15.2412 C   0  0  0  0  0  0  0  0  0  0  0  0
    3.8428    4.2309   14.2739 C   0  0  0  0  0  0  0  0  0  0  0  0
    3.6647    3.9678   12.9076 C   0  0  0  0  0  0  0  0  0  0  0  0
    3.0938    2.7961   12.5183 C   0  0  0  0  0  0  0  0  0  0  0  0
    2.7034    1.8903   13.5145 C   0  0  0  0  0  0  0  0  0  0  0  0
    2.8741    2.1396   14.8550 C   0  0  0  0  0  0  0  0  0  0  0  0
    2.8822    2.4485   11.1635 N   0  0  0  0  0  0  0  0  0  0  0  0
    3.6712    2.2013   10.5300 H   0  0  0  0  0  0  0  0  0  0  0  0
    1.2853    2.4300   10.5340 S   0  0  0  0  0  0  0  0  0  0  0  0
    1.4029    3.0030    8.8347 C   0  0  0  0  0  0  0  0  0  0  0  0
    0.6453    1.0768   10.5526 O   0  0  0  0  0  0  0  0  0  0  0  0
    0.4027    3.3775   11.3169 O   0  0  0  0  0  0  0  0  0  0  0  0
    4.1598    0.9171   21.4174 N   0  0  0  0  0  0  0  0  0  0  0  0
    4.6233   -0.0255   21.4784 H   0  0  0  0  0  0  0  0  0  0  0  0
    3.7178    1.5006   22.6294 C   0  0  0  0  0  0  0  0  0  0  0  0
    4.7899    1.9474   23.5828 C   0  0  0  0  0  0  0  0  0  0  0  0
    3.4464    3.9657   23.3701 C   0  0  0  0  0  0  0  0  0  0  0  0
    4.8698    3.4747   23.4296 C   0  0  0  0  0  0  0  0  0  0  0  0
 34 35  1  0  0  0
 35 33  1  0  0  0
 33 32  1  0  0  0
 32 30  1  0  0  0
 30  1  1  0  0  0
  1  2  2  0  0  0
  2  3  1  0  0  0
  3  4  2  0  0  0
  4  5  1  0  0  0
  5  6  2  0  0  0
  6  7  1  0  0  0
  7 10  1  0  0  0
 10 11  1  0  0  0
 11 12  1  0  0  0
 12 13  1  0  0  0
 13 14  1  0  0  0
 13 15  1  0  0  0
 15 16  1  0  0  0
  7  8  1  0  0  0
  8  9  2  0  0  0
  5 18  1  0  0  0
 18 19  2  0  0  0
 19 20  1  0  0  0
 20 21  2  0  0  0
 21 24  1  0  0  0
 24 26  1  0  0  0
 26 27  1  0  0  0
 26 28  2  0  0  0
 26 29  2  0  0  0
 21 22  1  0  0  0
 22 23  2  0  0  0
  9  1  1  0  0  0
 23 18  1  0  0  0
  8  4  1  0  0  0
 16 10  1  0  0  0
 30 31  1  0  0  0
 14 17  1  0  0  0
 24 25  1  0  0  0
M  END
> <minimizedAffinity>
-8.42954

> <CNNscore>
0.3231264651

> <CNNaffinity>
6.7733545303

> <CNN_VS>
2.1886501312

> <CNNaffinity_variance>
0.5965896249

$$$$
[H]OC1([H])C([H])([H])C([H])([H])C([H])(n2nc(-c3c([H])c([H])c(N([H])S(=O)(=O)C([H])([H])[H])c([H])c3[H])c3c([H])nc(N([H])C([H])([H])C([H])([H])C([H])([H])C([H])([H])[H])nc32)C([H])([H])C1([H])[H]


 35 38  0  0  0  0  0  0  0  0999 V2000
    7.8498    4.9357    8.3705 C   0  0  0  0  0  0  0  0  0  0  0  0
    6.9547    4.6557    9.3327 N   0  0  0  0  0  0  0  0  0  0  0  0
    5.7590    5.2496    9.4099 C   0  0  0  0  0  0  0  0  0  0  0  0
    5.3897    6.1945    8.4833 C   0  0  0  0  0  0  0  0  0  0  0  0
    4.3015    6.9865    8.2394 C   0  0  0  0  0  0  0  0  0  0  0  0
    4.5697    7.7237    7.1354 N   0  0  0  0  0  0  0  0  0  0  0  0
    5.7605    7.4473    6.6654 N   0  0  0  0  0  0  0  0  0  0  0  0
    6.3024    6.5009    7.4760 C   0  0  0  0  0  0  0  0  0  0  0  0
    7.4800    5.8610    7.4688 N   0  0  0  0  0  0  0  0  0  0  0  0
    6.4079    8.0078    5.5224 C   0  0  0  0  0  0  0  0  0  0  0  0
    5.6139    7.8188    4.2380 C   0  0  0  0  0  0  0  0  0  0  0  0
    6.5872    8.0952    3.1016 C   0  0  0  0  0  0  0  0  0  0  0  0
    7.2027    9.4555    3.1873 C   0  0  0  0  0  0  0  0  0  0  0  0
    8.3413    9.4416    2.3488 O   0  0  0  0  0  0  0  0  0  0  0  0
    7.6704    9.8375    4.5515 C   0  0  0  0  0  0  0  0  0  0  0  0
    6.6967    9.4782    5.6478 C   0  0  0  0  0  0  0  0  0  0  0  0
    8.0749    9.2475    1.4105 H   0  0  0  0  0  0  0  0  0  0  0  0
    3.0893    7.0020    9.0490 C   0  0  0  0  0  0  0  0  0  0  0  0
    1.9877    6.2985    8.6061 C   0  0  0  0  0  0  0  0  0  0  0  0
    0.7902    6.2722    9.3362 C   0  0  0  0  0  0  0  0  0  0  0  0
    0.7043    6.9541   10.5100 C   0  0  0  0  0  0  0  0  0  0  0  0
    1.8331    7.6629   10.9444 C   0  0  0  0  0  0  0  0  0  0  0  0
    3.0101    7.6942   10.2359 C   0  0  0  0  0  0  0  0  0  0  0  0
   -0.4615    6.9765   11.3109 N   0  0  0  0  0  0  0  0  0  0  0  0
   -1.1950    7.7067   11.1932 H   0  0  0  0  0  0  0  0  0  0  0  0
   -0.6853    5.7725   12.5138 S   0  0  0  0  0  0  0  0  0  0  0  0
   -0.9962    6.6451   14.0537 C   0  0  0  0  0  0  0  0  0  0  0  0
   -1.8280    4.8464   12.2349 O   0  0  0  0  0  0  0  0  0  0  0  0
    0.5692    4.9392   12.6604 O   0  0  0  0  0  0  0  0  0  0  0  0
    9.1364    4.2997    8.2835 N   0  0  0  0  0  0  0  0  0  0  0  0
    9.4024    3.6068    9.0294 H   0  0  0  0  0  0  0  0  0  0  0  0
   10.0811    4.5397    7.2565 C   0  0  0  0  0  0  0  0  0  0  0  0
   10.2820    3.4293    6.2643 C   0  0  0  0  0  0  0  0  0  0  0  0
    8.2937    2.6010    5.1311 C   0  0  0  0  0  0  0  0  0  0  0  0
    9.3038    3.7192    5.1148 C   0  0  0  0  0  0  0  0  0  0  0  0
 34 35  1  0  0  0
 35 33  1  0  0  0
 33 32  1  0  0  0
 32 30  1  0  0  0
 30  1  1  0  0  0
  1  2  2  0  0  0
  2  3  1  0  0  0
  3  4  2  0  0  0
  4  5  1  0  0  0
  5  6  2  0  0  0
  6  7  1  0  0  0
  7 10  1  0  0  0
 10 11  1  0  0  0
 11 12  1  0  0  0
 12 13  1  0  0  0
 13 14  1  0  0  0
 13 15  1  0  0  0
 15 16  1  0  0  0
  7  8  1  0  0  0
  8  9  2  0  0  0
  5 18  1  0  0  0
 18 19  2  0  0  0
 19 20  1  0  0  0
 20 21  2  0  0  0
 21 24  1  0  0  0
 24 26  1  0  0  0
 26 27  1  0  0  0
 26 28  2  0  0  0
 26 29  2  0  0  0
 21 22  1  0  0  0
 22 23  2  0  0  0
  9  1  1  0  0  0
 23 18  1  0  0  0
  8  4  1  0  0  0
 16 10  1  0  0  0
 30 31  1  0  0  0
 14 17  1  0  0  0
 24 25  1  0  0  0
M  END
> <minimizedAffinity>
-5.22728

> <CNNscore>
0.2506383955

> <CNNaffinity>
5.2771959305

> <CNN_VS>
1.3226679564

> <CNNaffinity_variance>
0.3357712030

$$$$
[H]OC1([H])C([H])([H])C([H])([H])C([H])(n2nc(-c3c([H])c([H])c(N([H])S(=O)(=O)C([H])([H])[H])c([H])c3[H])c3c([H])nc(N([H])C([H])([H])C([H])([H])C([H])([H])C([H])([H])[H])nc32)C([H])([H])C1([H])[H]


 35 38  0  0  0  0  0  0  0  0999 V2000
    0.2884    6.0510   12.1590 C   0  0  0  0  0  0  0  0  0  0  0  0
    0.0018    6.4245   13.4176 N   0  0  0  0  0  0  0  0  0  0  0  0
    0.9414    6.7444   14.3138 C   0  0  0  0  0  0  0  0  0  0  0  0
    2.2718    6.7025   13.9732 C   0  0  0  0  0  0  0  0  0  0  0  0
    3.4705    6.9473   14.5848 C   0  0  0  0  0  0  0  0  0  0  0  0
    4.4489    6.7149   13.6778 N   0  0  0  0  0  0  0  0  0  0  0  0
    3.9437    6.3379   12.5297 N   0  0  0  0  0  0  0  0  0  0  0  0
    2.5925    6.3180   12.6729 C   0  0  0  0  0  0  0  0  0  0  0  0
    1.5920    6.0130   11.8349 N   0  0  0  0  0  0  0  0  0  0  0  0
    4.6401    6.0019   11.3291 C   0  0  0  0  0  0  0  0  0  0  0  0
    5.8323    6.9086   11.0604 C   0  0  0  0  0  0  0  0  0  0  0  0
    6.2025    6.6893    9.6010 C   0  0  0  0  0  0  0  0  0  0  0  0
    6.5038    5.2575    9.2912 C   0  0  0  0  0  0  0  0  0  0  0  0
    6.4375    5.1218    7.8852 O   0  0  0  0  0  0  0  0  0  0  0  0
    5.5339    4.2827    9.8696 C   0  0  0  0  0  0  0  0  0  0  0  0
    5.1484    4.5870   11.2972 C   0  0  0  0  0  0  0  0  0  0  0  0
    7.1096    5.7123    7.4507 H   0  0  0  0  0  0  0  0  0  0  0  0
    3.6220    7.3804   15.9685 C   0  0  0  0  0  0  0  0  0  0  0  0
    3.5004    6.4425   16.9735 C   0  0  0  0  0  0  0  0  0  0  0  0
    3.6341    6.7922   18.3253 C   0  0  0  0  0  0  0  0  0  0  0  0
    3.8897    8.0849   18.6623 C   0  0  0  0  0  0  0  0  0  0  0  0
    4.0102    9.0240   17.6284 C   0  0  0  0  0  0  0  0  0  0  0  0
    3.8808    8.6905   16.3017 C   0  0  0  0  0  0  0  0  0  0  0  0
    4.0445    8.5225   19.9987 N   0  0  0  0  0  0  0  0  0  0  0  0
    3.4317    9.2570   20.4108 H   0  0  0  0  0  0  0  0  0  0  0  0
    5.2729    7.8313   20.9786 S   0  0  0  0  0  0  0  0  0  0  0  0
    5.7320    9.0880   22.1785 C   0  0  0  0  0  0  0  0  0  0  0  0
    4.8416    6.5946   21.7036 O   0  0  0  0  0  0  0  0  0  0  0  0
    6.4813    7.4845   20.1365 O   0  0  0  0  0  0  0  0  0  0  0  0
   -0.7183    5.7062   11.1920 N   0  0  0  0  0  0  0  0  0  0  0  0
   -1.4456    6.4270   10.9496 H   0  0  0  0  0  0  0  0  0  0  0  0
   -0.8028    4.4550   10.5348 C   0  0  0  0  0  0  0  0  0  0  0  0
   -1.2244    4.4877    9.0929 C   0  0  0  0  0  0  0  0  0  0  0  0
   -3.3344    5.6144    8.6435 C   0  0  0  0  0  0  0  0  0  0  0  0
   -2.7503    4.3036    9.1035 C   0  0  0  0  0  0  0  0  0  0  0  0
 34 35  1  0  0  0
 35 33  1  0  0  0
 33 32  1  0  0  0
 32 30  1  0  0  0
 30  1  1  0  0  0
  1  2  2  0  0  0
  2  3  1  0  0  0
  3  4  2  0  0  0
  4  5  1  0  0  0
  5  6  2  0  0  0
  6  7  1  0  0  0
  7 10  1  0  0  0
 10 11  1  0  0  0
 11 12  1  0  0  0
 12 13  1  0  0  0
 13 14  1  0  0  0
 13 15  1  0  0  0
 15 16  1  0  0  0
  7  8  1  0  0  0
  8  9  2  0  0  0
  5 18  1  0  0  0
 18 19  2  0  0  0
 19 20  1  0  0  0
 20 21  2  0  0  0
 21 24  1  0  0  0
 24 26  1  0  0  0
 26 27  1  0  0  0
 26 28  2  0  0  0
 26 29  2  0  0  0
 21 22  1  0  0  0
 22 23  2  0  0  0
  9  1  1  0  0  0
 23 18  1  0  0  0
  8  4  1  0  0  0
 16 10  1  0  0  0
 30 31  1  0  0  0
 14 17  1  0  0  0
 24 25  1  0  0  0
M  END
> <minimizedAffinity>
-5.32519

> <CNNscore>
0.2363455743

> <CNNaffinity>
5.6559658051

> <CNN_VS>
1.3367624283

> <CNNaffinity_variance>
1.2960195541

$$$$
[H]OC1([H])C([H])([H])C([H])([H])C([H])(n2nc(-c3c([H])c([H])c(N([H])S(=O)(=O)C([H])([H])[H])c([H])c3[H])c3c([H])nc(N([H])C([H])([H])C([H])([H])C([H])([H])C([H])([H])[H])nc32)C([H])([H])C1([H])[H]


 35 38  0  0  0  0  0  0  0  0999 V2000
    4.1554    1.8867   19.2101 C   0  0  0  0  0  0  0  0  0  0  0  0
    3.6550    1.5916   17.9984 N   0  0  0  0  0  0  0  0  0  0  0  0
    3.4024    2.5197   17.0693 C   0  0  0  0  0  0  0  0  0  0  0  0
    3.6517    3.8465   17.3246 C   0  0  0  0  0  0  0  0  0  0  0  0
    3.5301    5.0348   16.6582 C   0  0  0  0  0  0  0  0  0  0  0  0
    3.9611    6.0158   17.4865 N   0  0  0  0  0  0  0  0  0  0  0  0
    4.3478    5.5219   18.6363 N   0  0  0  0  0  0  0  0  0  0  0  0
    4.1710    4.1760   18.5749 C   0  0  0  0  0  0  0  0  0  0  0  0
    4.3960    3.1868   19.4508 N   0  0  0  0  0  0  0  0  0  0  0  0
    4.8639    6.2245   19.7675 C   0  0  0  0  0  0  0  0  0  0  0  0
    6.3644    6.0439   19.9450 C   0  0  0  0  0  0  0  0  0  0  0  0
    6.6741    6.4979   21.3637 C   0  0  0  0  0  0  0  0  0  0  0  0
    6.2421    7.9055   21.6262 C   0  0  0  0  0  0  0  0  0  0  0  0
    6.2126    8.0679   23.0306 O   0  0  0  0  0  0  0  0  0  0  0  0
    4.8788    8.2382   21.1200 C   0  0  0  0  0  0  0  0  0  0  0  0
    4.6004    7.7046   19.7354 C   0  0  0  0  0  0  0  0  0  0  0  0
    7.1173    7.9129   23.4137 H   0  0  0  0  0  0  0  0  0  0  0  0
    3.0227    5.1747   15.2988 C   0  0  0  0  0  0  0  0  0  0  0  0
    1.7288    5.6190   15.1169 C   0  0  0  0  0  0  0  0  0  0  0  0
    1.1785    5.7751   13.8361 C   0  0  0  0  0  0  0  0  0  0  0  0
    1.9316    5.4836   12.7416 C   0  0  0  0  0  0  0  0  0  0  0  0
    3.2437    5.0337   12.9453 C   0  0  0  0  0  0  0  0  0  0  0  0
    3.7910    4.8779   14.1961 C   0  0  0  0  0  0  0  0  0  0  0  0
    1.4579    5.6178   11.4154 N   0  0  0  0  0  0  0  0  0  0  0  0
    1.0649    4.8102   10.8880 H   0  0  0  0  0  0  0  0  0  0  0  0
    1.5272    7.1492   10.6429 S   0  0  0  0  0  0  0  0  0  0  0  0
    3.2281    7.3706   10.1066 C   0  0  0  0  0  0  0  0  0  0  0  0
    0.6195    7.2689    9.4585 O   0  0  0  0  0  0  0  0  0  0  0  0
    1.1690    8.2462   11.6216 O   0  0  0  0  0  0  0  0  0  0  0  0
    4.4285    0.8923   20.2121 N   0  0  0  0  0  0  0  0  0  0  0  0
    4.2097   -0.1128   19.9908 H   0  0  0  0  0  0  0  0  0  0  0  0
    4.9769    1.1697   21.4876 C   0  0  0  0  0  0  0  0  0  0  0  0
    3.9929    1.4447   22.5896 C   0  0  0  0  0  0  0  0  0  0  0  0
    5.8601    2.9836   22.8521 C   0  0  0  0  0  0  0  0  0  0  0  0
    4.7477    2.3089   23.6123 C   0  0  0  0  0  0  0  0  0  0  0  0
 34 35  1  0  0  0
 35 33  1  0  0  0
 33 32  1  0  0  0
 32 30  1  0  0  0
 30  1  1  0  0  0
  1  2  2  0  0  0
  2  3  1  0  0  0
  3  4  2  0  0  0
  4  5  1  0  0  0
  5  6  2  0  0  0
  6  7  1  0  0  0
  7 10  1  0  0  0
 10 11  1  0  0  0
 11 12  1  0  0  0
 12 13  1  0  0  0
 13 14  1  0  0  0
 13 15  1  0  0  0
 15 16  1  0  0  0
  7  8  1  0  0  0
  8  9  2  0  0  0
  5 18  1  0  0  0
 18 19  2  0  0  0
 19 20  1  0  0  0
 20 21  2  0  0  0
 21 24  1  0  0  0
 24 26  1  0  0  0
 26 27  1  0  0  0
 26 28  2  0  0  0
 26 29  2  0  0  0
 21 22  1  0  0  0
 22 23  2  0  0  0
  9  1  1  0  0  0
 23 18  1  0  0  0
  8  4  1  0  0  0
 16 10  1  0  0  0
 30 31  1  0  0  0
 14 17  1  0  0  0
 24 25  1  0  0  0
M  END
> <minimizedAffinity>
-7.55105

> <CNNscore>
0.2304330319

> <CNNaffinity>
6.4855089188

> <CNN_VS>
1.4944754839

> <CNNaffinity_variance>
0.4669857025

$$$$
[H]OC1([H])C([H])([H])C([H])([H])C([H])(n2nc(-c3c([H])c([H])c(N([H])S(=O)(=O)C([H])([H])[H])c([H])c3[H])c3c([H])nc(N([H])C([H])([H])C([H])([H])C([H])([H])C([H])([H])[H])nc32)C([H])([H])C1([H])[H]


 35 38  0  0  0  0  0  0  0  0999 V2000
    1.5930    1.9882   13.6559 C   0  0  0  0  0  0  0  0  0  0  0  0
    1.9061    1.4577   14.8501 N   0  0  0  0  0  0  0  0  0  0  0  0
    2.4798    2.1619   15.8316 C   0  0  0  0  0  0  0  0  0  0  0  0
    2.7793    3.4908   15.6521 C   0  0  0  0  0  0  0  0  0  0  0  0
    3.3417    4.4988   16.3859 C   0  0  0  0  0  0  0  0  0  0  0  0
    3.3527    5.6114   15.6138 N   0  0  0  0  0  0  0  0  0  0  0  0
    2.8321    5.3699   14.4365 N   0  0  0  0  0  0  0  0  0  0  0  0
    2.4634    4.0621   14.4211 C   0  0  0  0  0  0  0  0  0  0  0  0
    1.8896    3.2883   13.4893 N   0  0  0  0  0  0  0  0  0  0  0  0
    2.6631    6.2763   13.3458 C   0  0  0  0  0  0  0  0  0  0  0  0
    2.5200    7.7237   13.7932 C   0  0  0  0  0  0  0  0  0  0  0  0
    1.9610    8.4771   12.5953 C   0  0  0  0  0  0  0  0  0  0  0  0
    2.8215    8.3467   11.3790 C   0  0  0  0  0  0  0  0  0  0  0  0
    2.0269    8.7311   10.2742 O   0  0  0  0  0  0  0  0  0  0  0  0
    3.3036    6.9611   11.1086 C   0  0  0  0  0  0  0  0  0  0  0  0
    3.7825    6.2352   12.3427 C   0  0  0  0  0  0  0  0  0  0  0  0
    1.7260    9.6732   10.3783 H   0  0  0  0  0  0  0  0  0  0  0  0
    3.8285    4.3571   17.7526 C   0  0  0  0  0  0  0  0  0  0  0  0
    3.3208    5.1924   18.7268 C   0  0  0  0  0  0  0  0  0  0  0  0
    3.7464    5.1095   20.0608 C   0  0  0  0  0  0  0  0  0  0  0  0
    4.6820    4.1864   20.4111 C   0  0  0  0  0  0  0  0  0  0  0  0
    5.1864    3.3463   19.4085 C   0  0  0  0  0  0  0  0  0  0  0  0
    4.7754    3.4203   18.0994 C   0  0  0  0  0  0  0  0  0  0  0  0
    5.1625    4.0313   21.7325 N   0  0  0  0  0  0  0  0  0  0  0  0
    6.0684    4.4436   22.0396 H   0  0  0  0  0  0  0  0  0  0  0  0
    4.2363    3.1409   22.8709 S   0  0  0  0  0  0  0  0  0  0  0  0
    5.4136    2.3285   23.9588 C   0  0  0  0  0  0  0  0  0  0  0  0
    3.3130    3.9871   23.6910 O   0  0  0  0  0  0  0  0  0  0  0  0
    3.4071    2.0906   22.1644 O   0  0  0  0  0  0  0  0  0  0  0  0
    0.9762    1.2351   12.5977 N   0  0  0  0  0  0  0  0  0  0  0  0
    0.3377    0.4401   12.8572 H   0  0  0  0  0  0  0  0  0  0  0  0
    1.1667    1.4883   11.2178 C   0  0  0  0  0  0  0  0  0  0  0  0
    2.5777    1.3870   10.7110 C   0  0  0  0  0  0  0  0  0  0  0  0
    1.6244    3.4856    9.9297 C   0  0  0  0  0  0  0  0  0  0  0  0
    2.7143    2.4849    9.6441 C   0  0  0  0  0  0  0  0  0  0  0  0
 34 35  1  0  0  0
 35 33  1  0  0  0
 33 32  1  0  0  0
 32 30  1  0  0  0
 30  1  1  0  0  0
  1  2  2  0  0  0
  2  3  1  0  0  0
  3  4  2  0  0  0
  4  5  1  0  0  0
  5  6  2  0  0  0
  6  7  1  0  0  0
  7 10  1  0  0  0
 10 11  1  0  0  0
 11 12  1  0  0  0
 12 13  1  0  0  0
 13 14  1  0  0  0
 13 15  1  0  0  0
 15 16  1  0  0  0
  7  8  1  0  0  0
  8  9  2  0  0  0
  5 18  1  0  0  0
 18 19  2  0  0  0
 19 20  1  0  0  0
 20 21  2  0  0  0
 21 24  1  0  0  0
 24 26  1  0  0  0
 26 27  1  0  0  0
 26 28  2  0  0  0
 26 29  2  0  0  0
 21 22  1  0  0  0
 22 23  2  0  0  0
  9  1  1  0  0  0
 23 18  1  0  0  0
  8  4  1  0  0  0
 16 10  1  0  0  0
 30 31  1  0  0  0
 14 17  1  0  0  0
 24 25  1  0  0  0
M  END
> <minimizedAffinity>
-6.69938

> <CNNscore>
0.2169303894

> <CNNaffinity>
6.4054594040

> <CNN_VS>
1.3895387650

> <CNNaffinity_variance>
0.3062282503

$$$$
[H]C1=C([H])C([H])(F)C([H])([H])C([H])=C1N([H])C(=O)C1(C(=O)N([H])c2c([H])c([H])c(Oc3c([H])c([H])nc4c([H])c(OC([H])([H])C([H])([H])C([H])([H])N5C([H])([H])C([H])([H])OC([H])([H])C5([H])[H])c(OC([H])([H])[H])c([H])c34)c(F)c2[H])C([H])([H])C1([H])[H]


 48 53  0  0  0  0  0  0  0  0999 V2000
    2.6668    2.7807   14.4808 C   0  0  0  0  0  0  0  0  0  0  0  0
    1.7888    2.0073   13.7342 C   0  0  0  0  0  0  0  0  0  0  0  0
    0.7478    2.5029   13.0069 C   0  0  0  0  0  0  0  0  0  0  0  0
    0.5258    3.8847   12.9950 C   0  0  0  0  0  0  0  0  0  0  0  0
    1.3694    4.6842   13.7173 C   0  0  0  0  0  0  0  0  0  0  0  0
    2.4343    4.1449   14.4573 C   0  0  0  0  0  0  0  0  0  0  0  0
    3.2405    5.0033   15.1242 F   0  0  0  0  0  0  0  0  0  0  0  0
   -0.5506    4.3988   12.1883 N   0  0  0  0  0  0  0  0  0  0  0  0
   -0.4861    4.4791   10.8160 C   0  0  0  0  0  0  0  0  0  0  0  0
    0.6294    4.0939   10.2763 O   0  0  0  0  0  0  0  0  0  0  0  0
   -1.3615    4.7239   12.7365 H   0  0  0  0  0  0  0  0  0  0  0  0
   -1.4799    4.9398    9.8165 C   0  0  0  0  0  0  0  0  0  0  0  0
   -0.9347    5.0821    8.4055 C   0  0  0  0  0  0  0  0  0  0  0  0
   -1.0811    6.3217    9.1628 C   0  0  0  0  0  0  0  0  0  0  0  0
   -2.9273    4.7747    9.9537 C   0  0  0  0  0  0  0  0  0  0  0  0
   -3.2815    4.2145   11.0891 O   0  0  0  0  0  0  0  0  0  0  0  0
   -4.0073    5.0907    9.1384 N   0  0  0  0  0  0  0  0  0  0  0  0
   -3.9281    5.5592    8.2210 H   0  0  0  0  0  0  0  0  0  0  0  0
   -5.3763    4.7958    9.5624 C   0  0  0  0  0  0  0  0  0  0  0  0
   -5.8440    3.5976    9.2953 C   0  0  0  0  0  0  0  0  0  0  0  0
   -7.1754    3.1022    9.6315 C   0  0  0  0  0  0  0  0  0  0  0  0
   -8.0677    4.0788   10.2928 C   0  0  0  0  0  0  0  0  0  0  0  0
   -8.4880    3.5689   11.5479 F   0  0  0  0  0  0  0  0  0  0  0  0
   -7.4506    5.3823   10.5455 C   0  0  0  0  0  0  0  0  0  0  0  0
   -6.2234    5.7362   10.2221 C   0  0  0  0  0  0  0  0  0  0  0  0
    3.7031    2.2178   15.1927 O   0  0  0  0  0  0  0  0  0  0  0  0
    5.1845    3.9155   18.6121 C   0  0  0  0  0  0  0  0  0  0  0  0
    4.6971    3.3617   17.4603 C   0  0  0  0  0  0  0  0  0  0  0  0
    4.0134    2.1673   17.5336 C   0  0  0  0  0  0  0  0  0  0  0  0
    3.4947    1.5563   16.3715 C   0  0  0  0  0  0  0  0  0  0  0  0
    2.8199    0.3620   16.4659 C   0  0  0  0  0  0  0  0  0  0  0  0
    2.6364   -0.2552   17.6837 C   0  0  0  0  0  0  0  0  0  0  0  0
    3.1298    0.3286   18.7871 N   0  0  0  0  0  0  0  0  0  0  0  0
    3.8025    1.5109   18.7185 C   0  0  0  0  0  0  0  0  0  0  0  0
    4.2989    2.0767   19.8830 C   0  0  0  0  0  0  0  0  0  0  0  0
    4.9837    3.2674   19.8421 C   0  0  0  0  0  0  0  0  0  0  0  0
    6.2283    5.7574   17.4536 C   0  0  0  0  0  0  0  0  0  0  0  0
    5.8838    5.1063   18.6550 O   0  0  0  0  0  0  0  0  0  0  0  0
    5.4664    3.8335   20.9765 O   0  0  0  0  0  0  0  0  0  0  0  0
    4.7017    4.3875   21.9846 C   0  0  0  0  0  0  0  0  0  0  0  0
    5.4683    5.4254   22.7924 C   0  0  0  0  0  0  0  0  0  0  0  0
    6.5581    6.0242   21.8931 C   0  0  0  0  0  0  0  0  0  0  0  0
    6.3395    7.4470   21.8162 N   0  0  0  0  0  0  0  0  0  0  0  0
    7.6176    8.1354   21.5207 C   0  0  0  0  0  0  0  0  0  0  0  0
    7.2211    9.6033   21.3377 C   0  0  0  0  0  0  0  0  0  0  0  0
    5.9596    9.8782   21.8657 O   0  0  0  0  0  0  0  0  0  0  0  0
    4.9366    9.2297   21.1459 C   0  0  0  0  0  0  0  0  0  0  0  0
    5.4279    7.8337   20.7408 C   0  0  0  0  0  0  0  0  0  0  0  0
 37 38  1  0  0  0
 38 27  1  0  0  0
 27 28  2  0  0  0
 28 29  1  0  0  0
 29 30  2  0  0  0
 30 26  1  0  0  0
 26  1  1  0  0  0
  1  2  2  0  0  0
  2  3  1  0  0  0
  3  4  2  0  0  0
  4  8  1  0  0  0
  8  9  1  0  0  0
  9 10  2  0  0  0
  9 12  1  0  0  0
 12 13  1  0  0  0
 13 14  1  0  0  0
 12 15  1  0  0  0
 15 16  2  0  0  0
 15 17  1  0  0  0
 17 19  1  0  0  0
 19 20  2  0  0  0
 20 21  1  0  0  0
 21 22  1  0  0  0
 22 23  1  0  0  0
 22 24  1  0  0  0
 24 25  2  0  0  0
  4  5  1  0  0  0
  5  6  2  0  0  0
  6  7  1  0  0  0
 30 31  1  0  0  0
 31 32  2  0  0  0
 32 33  1  0  0  0
 33 34  2  0  0  0
 34 35  1  0  0  0
 35 36  2  0  0  0
 36 39  1  0  0  0
 39 40  1  0  0  0
 40 41  1  0  0  0
 41 42  1  0  0  0
 42 43  1  0  0  0
 43 44  1  0  0  0
 44 45  1  0  0  0
 45 46  1  0  0  0
 46 47  1  0  0  0
 47 48  1  0  0  0
 36 27  1  0  0  0
 48 43  1  0  0  0
 34 29  1  0  0  0
  6  1  1  0  0  0
 14 12  1  0  0  0
 25 19  1  0  0  0
  8 11  1  0  0  0
 17 18  1  0  0  0
M  END
> <minimizedAffinity>
-8.71259

> <CNNscore>
0.2296081334

> <CNNaffinity>
6.6891264915

> <CNN_VS>
1.5358778238

> <CNNaffinity_variance>
0.1948491633

$$$$
[H]C1=C([H])C([H])(F)C([H])([H])C([H])=C1N([H])C(=O)C1(C(=O)N([H])c2c([H])c([H])c(Oc3c([H])c([H])nc4c([H])c(OC([H])([H])C([H])([H])C([H])([H])N5C([H])([H])C([H])([H])OC([H])([H])C5([H])[H])c(OC([H])([H])[H])c([H])c34)c(F)c2[H])C([H])([H])C1([H])[H]


 48 53  0  0  0  0  0  0  0  0999 V2000
    3.7655    2.4103   15.9639 C   0  0  0  0  0  0  0  0  0  0  0  0
    3.8389    3.6886   15.4283 C   0  0  0  0  0  0  0  0  0  0  0  0
    2.9837    4.1844   14.4897 C   0  0  0  0  0  0  0  0  0  0  0  0
    1.9503    3.3685   14.0153 C   0  0  0  0  0  0  0  0  0  0  0  0
    1.8411    2.1005   14.5181 C   0  0  0  0  0  0  0  0  0  0  0  0
    2.7374    1.6168   15.4853 C   0  0  0  0  0  0  0  0  0  0  0  0
    2.5474    0.3611   15.9527 F   0  0  0  0  0  0  0  0  0  0  0  0
    1.0281    3.9190   13.0561 N   0  0  0  0  0  0  0  0  0  0  0  0
    1.0146    3.5476   11.7311 C   0  0  0  0  0  0  0  0  0  0  0  0
    1.9159    2.6851   11.3738 O   0  0  0  0  0  0  0  0  0  0  0  0
    0.3980    4.6346   13.4495 H   0  0  0  0  0  0  0  0  0  0  0  0
    0.1403    3.9648   10.6084 C   0  0  0  0  0  0  0  0  0  0  0  0
    0.5851    3.4649    9.2443 C   0  0  0  0  0  0  0  0  0  0  0  0
    0.9025    4.8566    9.5503 C   0  0  0  0  0  0  0  0  0  0  0  0
   -1.2682    4.3345   10.7512 C   0  0  0  0  0  0  0  0  0  0  0  0
   -1.4818    5.2092   11.7092 O   0  0  0  0  0  0  0  0  0  0  0  0
   -2.4277    3.9596   10.0835 N   0  0  0  0  0  0  0  0  0  0  0  0
   -2.4552    3.3034    9.2859 H   0  0  0  0  0  0  0  0  0  0  0  0
   -3.7249    4.5187   10.4650 C   0  0  0  0  0  0  0  0  0  0  0  0
   -4.0964    5.6329    9.8767 C   0  0  0  0  0  0  0  0  0  0  0  0
   -5.3459    6.3508   10.1104 C   0  0  0  0  0  0  0  0  0  0  0  0
   -6.2302    5.7664   11.1417 C   0  0  0  0  0  0  0  0  0  0  0  0
   -7.4954    5.4686   10.5737 F   0  0  0  0  0  0  0  0  0  0  0  0
   -5.7251    4.5268   11.7349 C   0  0  0  0  0  0  0  0  0  0  0  0
   -4.5842    3.9355   11.4441 C   0  0  0  0  0  0  0  0  0  0  0  0
    4.6604    1.9700   16.9141 O   0  0  0  0  0  0  0  0  0  0  0  0
    5.3684    5.1903   19.3425 C   0  0  0  0  0  0  0  0  0  0  0  0
    5.1396    4.1235   18.5177 C   0  0  0  0  0  0  0  0  0  0  0  0
    4.5695    2.9848   19.0449 C   0  0  0  0  0  0  0  0  0  0  0  0
    4.3173    1.8577   18.2332 C   0  0  0  0  0  0  0  0  0  0  0  0
    3.7523    0.7297   18.7801 C   0  0  0  0  0  0  0  0  0  0  0  0
    3.4226    0.6776   20.1166 C   0  0  0  0  0  0  0  0  0  0  0  0
    3.6628    1.7512   20.8857 N   0  0  0  0  0  0  0  0  0  0  0  0
    4.2224    2.8793   20.3669 C   0  0  0  0  0  0  0  0  0  0  0  0
    4.4567    3.9638   21.1986 C   0  0  0  0  0  0  0  0  0  0  0  0
    5.0226    5.1132   20.7019 C   0  0  0  0  0  0  0  0  0  0  0  0
    6.5921    6.4360   17.6766 C   0  0  0  0  0  0  0  0  0  0  0  0
    5.9343    6.3784   18.9216 O   0  0  0  0  0  0  0  0  0  0  0  0
    5.2486    6.1827   21.5053 O   0  0  0  0  0  0  0  0  0  0  0  0
    6.1420    6.2205   22.5580 C   0  0  0  0  0  0  0  0  0  0  0  0
    7.5202    5.7034   22.1700 C   0  0  0  0  0  0  0  0  0  0  0  0
    8.5247    6.8534   22.3226 C   0  0  0  0  0  0  0  0  0  0  0  0
    7.8700    7.9253   23.0300 N   0  0  0  0  0  0  0  0  0  0  0  0
    8.3895    8.0028   24.4153 C   0  0  0  0  0  0  0  0  0  0  0  0
    7.7158    9.2472   25.0009 C   0  0  0  0  0  0  0  0  0  0  0  0
    6.6078    9.6473   24.2542 O   0  0  0  0  0  0  0  0  0  0  0  0
    6.9764   10.1148   22.9772 C   0  0  0  0  0  0  0  0  0  0  0  0
    8.1191    9.2409   22.4434 C   0  0  0  0  0  0  0  0  0  0  0  0
 37 38  1  0  0  0
 38 27  1  0  0  0
 27 28  2  0  0  0
 28 29  1  0  0  0
 29 30  2  0  0  0
 30 26  1  0  0  0
 26  1  1  0  0  0
  1  2  2  0  0  0
  2  3  1  0  0  0
  3  4  2  0  0  0
  4  8  1  0  0  0
  8  9  1  0  0  0
  9 10  2  0  0  0
  9 12  1  0  0  0
 12 13  1  0  0  0
 13 14  1  0  0  0
 12 15  1  0  0  0
 15 16  2  0  0  0
 15 17  1  0  0  0
 17 19  1  0  0  0
 19 20  2  0  0  0
 20 21  1  0  0  0
 21 22  1  0  0  0
 22 23  1  0  0  0
 22 24  1  0  0  0
 24 25  2  0  0  0
  4  5  1  0  0  0
  5  6  2  0  0  0
  6  7  1  0  0  0
 30 31  1  0  0  0
 31 32  2  0  0  0
 32 33  1  0  0  0
 33 34  2  0  0  0
 34 35  1  0  0  0
 35 36  2  0  0  0
 36 39  1  0  0  0
 39 40  1  0  0  0
 40 41  1  0  0  0
 41 42  1  0  0  0
 42 43  1  0  0  0
 43 44  1  0  0  0
 44 45  1  0  0  0
 45 46  1  0  0  0
 46 47  1  0  0  0
 47 48  1  0  0  0
 36 27  1  0  0  0
 48 43  1  0  0  0
 34 29  1  0  0  0
  6  1  1  0  0  0
 14 12  1  0  0  0
 25 19  1  0  0  0
  8 11  1  0  0  0
 17 18  1  0  0  0
M  END
> <minimizedAffinity>
-9.08721

> <CNNscore>
0.1672569513

> <CNNaffinity>
6.5816869736

> <CNN_VS>
1.1008329391

> <CNNaffinity_variance>
0.3323383331

$$$$
[H]C1=C([H])C([H])(F)C([H])([H])C([H])=C1N([H])C(=O)C1(C(=O)N([H])c2c([H])c([H])c(Oc3c([H])c([H])nc4c([H])c(OC([H])([H])C([H])([H])C([H])([H])N5C([H])([H])C([H])([H])OC([H])([H])C5([H])[H])c(OC([H])([H])[H])c([H])c34)c(F)c2[H])C([H])([H])C1([H])[H]


 48 53  0  0  0  0  0  0  0  0999 V2000
    3.2241    2.4124   15.0339 C   0  0  0  0  0  0  0  0  0  0  0  0
    2.9436    1.7931   16.2439 C   0  0  0  0  0  0  0  0  0  0  0  0
    3.4378    2.1922   17.4500 C   0  0  0  0  0  0  0  0  0  0  0  0
    4.2903    3.3009   17.5004 C   0  0  0  0  0  0  0  0  0  0  0  0
    4.5920    3.9419   16.3297 C   0  0  0  0  0  0  0  0  0  0  0  0
    4.0675    3.5079   15.1012 C   0  0  0  0  0  0  0  0  0  0  0  0
    4.3915    4.2103   13.9908 F   0  0  0  0  0  0  0  0  0  0  0  0
    4.7705    3.7381   18.7857 N   0  0  0  0  0  0  0  0  0  0  0  0
    4.2352    4.8116   19.4600 C   0  0  0  0  0  0  0  0  0  0  0  0
    3.2801    5.4454   18.8518 O   0  0  0  0  0  0  0  0  0  0  0  0
    5.5680    3.1881   19.1398 H   0  0  0  0  0  0  0  0  0  0  0  0
    4.5597    5.3937   20.7847 C   0  0  0  0  0  0  0  0  0  0  0  0
    4.8449    4.3694   21.8700 C   0  0  0  0  0  0  0  0  0  0  0  0
    3.5180    4.9777   21.8973 C   0  0  0  0  0  0  0  0  0  0  0  0
    5.0971    6.7397   20.9866 C   0  0  0  0  0  0  0  0  0  0  0  0
    6.3508    6.8610   20.6100 O   0  0  0  0  0  0  0  0  0  0  0  0
    4.5591    7.9188   21.4877 N   0  0  0  0  0  0  0  0  0  0  0  0
    3.5825    8.0246   21.8076 H   0  0  0  0  0  0  0  0  0  0  0  0
    5.3670    9.1363   21.5649 C   0  0  0  0  0  0  0  0  0  0  0  0
    5.2553    9.9962   20.5780 C   0  0  0  0  0  0  0  0  0  0  0  0
    5.9666   11.2658   20.4622 C   0  0  0  0  0  0  0  0  0  0  0  0
    6.9248   11.5579   21.5501 C   0  0  0  0  0  0  0  0  0  0  0  0
    6.5774   12.7819   22.1772 F   0  0  0  0  0  0  0  0  0  0  0  0
    6.9727   10.5380   22.5994 C   0  0  0  0  0  0  0  0  0  0  0  0
    6.2720    9.4227   22.6307 C   0  0  0  0  0  0  0  0  0  0  0  0
    2.6891    1.9612   13.8474 O   0  0  0  0  0  0  0  0  0  0  0  0
    2.2769    1.0133    9.8850 C   0  0  0  0  0  0  0  0  0  0  0  0
    2.4269    1.3168   11.2102 C   0  0  0  0  0  0  0  0  0  0  0  0
    1.7223    2.3795   11.7335 C   0  0  0  0  0  0  0  0  0  0  0  0
    1.8470    2.7323   13.0946 C   0  0  0  0  0  0  0  0  0  0  0  0
    1.1389    3.7992   13.5956 C   0  0  0  0  0  0  0  0  0  0  0  0
    0.3007    4.5365   12.7886 C   0  0  0  0  0  0  0  0  0  0  0  0
    0.1833    4.1981   11.4949 N   0  0  0  0  0  0  0  0  0  0  0  0
    0.8752    3.1461   10.9757 C   0  0  0  0  0  0  0  0  0  0  0  0
    0.7270    2.8340    9.6328 C   0  0  0  0  0  0  0  0  0  0  0  0
    1.4153    1.7796    9.0826 C   0  0  0  0  0  0  0  0  0  0  0  0
    4.3258    0.0481    9.0514 C   0  0  0  0  0  0  0  0  0  0  0  0
    2.9336   -0.0275    9.2569 O   0  0  0  0  0  0  0  0  0  0  0  0
    1.2714    1.4609    7.7719 O   0  0  0  0  0  0  0  0  0  0  0  0
    0.1799    1.7740    6.9855 C   0  0  0  0  0  0  0  0  0  0  0  0
   -0.3053    0.5872    6.1648 C   0  0  0  0  0  0  0  0  0  0  0  0
   -0.9668   -0.4171    7.1181 C   0  0  0  0  0  0  0  0  0  0  0  0
   -2.2063    0.1568    7.5789 N   0  0  0  0  0  0  0  0  0  0  0  0
   -3.2226    0.0850    6.5033 C   0  0  0  0  0  0  0  0  0  0  0  0
   -4.5057    0.5990    7.1628 C   0  0  0  0  0  0  0  0  0  0  0  0
   -4.2484    1.2998    8.3410 O   0  0  0  0  0  0  0  0  0  0  0  0
   -3.7425    0.4590    9.3521 C   0  0  0  0  0  0  0  0  0  0  0  0
   -2.7862   -0.5576    8.7148 C   0  0  0  0  0  0  0  0  0  0  0  0
 37 38  1  0  0  0
 38 27  1  0  0  0
 27 28  2  0  0  0
 28 29  1  0  0  0
 29 30  2  0  0  0
 30 26  1  0  0  0
 26  1  1  0  0  0
  1  2  2  0  0  0
  2  3  1  0  0  0
  3  4  2  0  0  0
  4  8  1  0  0  0
  8  9  1  0  0  0
  9 10  2  0  0  0
  9 12  1  0  0  0
 12 13  1  0  0  0
 13 14  1  0  0  0
 12 15  1  0  0  0
 15 16  2  0  0  0
 15 17  1  0  0  0
 17 19  1  0  0  0
 19 20  2  0  0  0
 20 21  1  0  0  0
 21 22  1  0  0  0
 22 23  1  0  0  0
 22 24  1  0  0  0
 24 25  2  0  0  0
  4  5  1  0  0  0
  5  6  2  0  0  0
  6  7  1  0  0  0
 30 31  1  0  0  0
 31 32  2  0  0  0
 32 33  1  0  0  0
 33 34  2  0  0  0
 34 35  1  0  0  0
 35 36  2  0  0  0
 36 39  1  0  0  0
 39 40  1  0  0  0
 40 41  1  0  0  0
 41 42  1  0  0  0
 42 43  1  0  0  0
 43 44  1  0  0  0
 44 45  1  0  0  0
 45 46  1  0  0  0
 46 47  1  0  0  0
 47 48  1  0  0  0
 36 27  1  0  0  0
 48 43  1  0  0  0
 34 29  1  0  0  0
  6  1  1  0  0  0
 14 12  1  0  0  0
 25 19  1  0  0  0
  8 11  1  0  0  0
 17 18  1  0  0  0
M  END
> <minimizedAffinity>
-7.47899

> <CNNscore>
0.1565794200

> <CNNaffinity>
6.4127225876

> <CNN_VS>
1.0041004419

> <CNNaffinity_variance>
0.3706519306

$$$$
[H]C1=C([H])C([H])(F)C([H])([H])C([H])=C1N([H])C(=O)C1(C(=O)N([H])c2c([H])c([H])c(Oc3c([H])c([H])nc4c([H])c(OC([H])([H])C([H])([H])C([H])([H])N5C([H])([H])C([H])([H])OC([H])([H])C5([H])[H])c(OC([H])([H])[H])c([H])c34)c(F)c2[H])C([H])([H])C1([H])[H]


 48 53  0  0  0  0  0  0  0  0999 V2000
    3.2929    3.0559   14.3363 C   0  0  0  0  0  0  0  0  0  0  0  0
    2.0791    2.3947   14.4620 C   0  0  0  0  0  0  0  0  0  0  0  0
    1.1916    2.2067   13.4446 C   0  0  0  0  0  0  0  0  0  0  0  0
    1.5007    2.7055   12.1741 C   0  0  0  0  0  0  0  0  0  0  0  0
    2.6888    3.3634   12.0061 C   0  0  0  0  0  0  0  0  0  0  0  0
    3.5841    3.5418   13.0735 C   0  0  0  0  0  0  0  0  0  0  0  0
    4.7506    4.1798   12.8214 F   0  0  0  0  0  0  0  0  0  0  0  0
    0.5746    2.4624   11.0985 N   0  0  0  0  0  0  0  0  0  0  0  0
   -0.3459    3.3945   10.6773 C   0  0  0  0  0  0  0  0  0  0  0  0
   -0.3623    4.5136   11.3341 O   0  0  0  0  0  0  0  0  0  0  0  0
    0.6490    1.5172   10.6925 H   0  0  0  0  0  0  0  0  0  0  0  0
   -1.3495    3.3529    9.5865 C   0  0  0  0  0  0  0  0  0  0  0  0
   -1.0133    2.3932    8.4575 C   0  0  0  0  0  0  0  0  0  0  0  0
   -0.7487    3.8052    8.1971 C   0  0  0  0  0  0  0  0  0  0  0  0
   -2.7562    3.7241    9.7433 C   0  0  0  0  0  0  0  0  0  0  0  0
   -3.5881    2.8175    9.2803 O   0  0  0  0  0  0  0  0  0  0  0  0
   -3.3983    4.8315   10.2838 N   0  0  0  0  0  0  0  0  0  0  0  0
   -2.9124    5.6329   10.7187 H   0  0  0  0  0  0  0  0  0  0  0  0
   -4.8590    4.9163   10.2983 C   0  0  0  0  0  0  0  0  0  0  0  0
   -5.4311    5.6076    9.3388 C   0  0  0  0  0  0  0  0  0  0  0  0
   -6.8663    5.8140    9.1692 C   0  0  0  0  0  0  0  0  0  0  0  0
   -7.7219    5.2134   10.2153 C   0  0  0  0  0  0  0  0  0  0  0  0
   -8.6413    4.3113    9.6213 F   0  0  0  0  0  0  0  0  0  0  0  0
   -6.9871    4.4647   11.2367 C   0  0  0  0  0  0  0  0  0  0  0  0
   -5.6797    4.3134   11.2982 C   0  0  0  0  0  0  0  0  0  0  0  0
    4.1485    3.2099   15.4049 O   0  0  0  0  0  0  0  0  0  0  0  0
    4.3615    2.5145   19.4348 C   0  0  0  0  0  0  0  0  0  0  0  0
    4.2909    2.7290   18.0858 C   0  0  0  0  0  0  0  0  0  0  0  0
    4.1545    4.0202   17.6234 C   0  0  0  0  0  0  0  0  0  0  0  0
    4.0746    4.2903   16.2402 C   0  0  0  0  0  0  0  0  0  0  0  0
    3.9337    5.5854   15.8000 C   0  0  0  0  0  0  0  0  0  0  0  0
    3.8703    6.6347   16.6902 C   0  0  0  0  0  0  0  0  0  0  0  0
    3.9476    6.3748   18.0049 N   0  0  0  0  0  0  0  0  0  0  0  0
    4.0864    5.1004   18.4648 C   0  0  0  0  0  0  0  0  0  0  0  0
    4.1582    4.8772   19.8314 C   0  0  0  0  0  0  0  0  0  0  0  0
    4.2955    3.6011   20.3226 C   0  0  0  0  0  0  0  0  0  0  0  0
    3.3845    0.4022   20.0736 C   0  0  0  0  0  0  0  0  0  0  0  0
    4.4973    1.2643   20.0070 O   0  0  0  0  0  0  0  0  0  0  0  0
    4.3748    3.3726   21.6574 O   0  0  0  0  0  0  0  0  0  0  0  0
    5.1052    4.1235   22.5577 C   0  0  0  0  0  0  0  0  0  0  0  0
    6.5079    4.4333   22.0536 C   0  0  0  0  0  0  0  0  0  0  0  0
    6.7547    5.9391   22.2165 C   0  0  0  0  0  0  0  0  0  0  0  0
    7.6835    6.3510   21.1940 N   0  0  0  0  0  0  0  0  0  0  0  0
    7.0763    7.4188   20.3656 C   0  0  0  0  0  0  0  0  0  0  0  0
    8.2020    7.8477   19.4200 C   0  0  0  0  0  0  0  0  0  0  0  0
    9.2266    6.9033   19.3579 O   0  0  0  0  0  0  0  0  0  0  0  0
    9.9225    6.8028   20.5790 C   0  0  0  0  0  0  0  0  0  0  0  0
    8.9163    6.9244   21.7310 C   0  0  0  0  0  0  0  0  0  0  0  0
 37 38  1  0  0  0
 38 27  1  0  0  0
 27 28  2  0  0  0
 28 29  1  0  0  0
 29 30  2  0  0  0
 30 26  1  0  0  0
 26  1  1  0  0  0
  1  2  2  0  0  0
  2  3  1  0  0  0
  3  4  2  0  0  0
  4  8  1  0  0  0
  8  9  1  0  0  0
  9 10  2  0  0  0
  9 12  1  0  0  0
 12 13  1  0  0  0
 13 14  1  0  0  0
 12 15  1  0  0  0
 15 16  2  0  0  0
 15 17  1  0  0  0
 17 19  1  0  0  0
 19 20  2  0  0  0
 20 21  1  0  0  0
 21 22  1  0  0  0
 22 23  1  0  0  0
 22 24  1  0  0  0
 24 25  2  0  0  0
  4  5  1  0  0  0
  5  6  2  0  0  0
  6  7  1  0  0  0
 30 31  1  0  0  0
 31 32  2  0  0  0
 32 33  1  0  0  0
 33 34  2  0  0  0
 34 35  1  0  0  0
 35 36  2  0  0  0
 36 39  1  0  0  0
 39 40  1  0  0  0
 40 41  1  0  0  0
 41 42  1  0  0  0
 42 43  1  0  0  0
 43 44  1  0  0  0
 44 45  1  0  0  0
 45 46  1  0  0  0
 46 47  1  0  0  0
 47 48  1  0  0  0
 36 27  1  0  0  0
 48 43  1  0  0  0
 34 29  1  0  0  0
  6  1  1  0  0  0
 14 12  1  0  0  0
 25 19  1  0  0  0
  8 11  1  0  0  0
 17 18  1  0  0  0
M  END
> <minimizedAffinity>
-8.17640

> <CNNscore>
0.1456361264

> <CNNaffinity>
6.4738869667

> <CNN_VS>
0.9428318143

> <CNNaffinity_variance>
0.1585608274

$$$$
[H]C1=C([H])C([H])(F)C([H])([H])C([H])=C1N([H])C(=O)C1(C(=O)N([H])c2c([H])c([H])c(Oc3c([H])c([H])nc4c([H])c(OC([H])([H])C([H])([H])C([H])([H])N5C([H])([H])C([H])([H])OC([H])([H])C5([H])[H])c(OC([H])([H])[H])c([H])c34)c(F)c2[H])C([H])([H])C1([H])[H]


 48 53  0  0  0  0  0  0  0  0999 V2000
    3.9555    2.8386   15.9496 C   0  0  0  0  0  0  0  0  0  0  0  0
    3.7795    4.0920   15.3801 C   0  0  0  0  0  0  0  0  0  0  0  0
    2.8326    4.3915   14.4464 C   0  0  0  0  0  0  0  0  0  0  0  0
    1.9641    3.3831   14.0135 C   0  0  0  0  0  0  0  0  0  0  0  0
    2.1025    2.1321   14.5506 C   0  0  0  0  0  0  0  0  0  0  0  0
    3.0878    1.8530   15.5118 C   0  0  0  0  0  0  0  0  0  0  0  0
    3.1441    0.5979   16.0148 F   0  0  0  0  0  0  0  0  0  0  0  0
    0.9408    3.7232   13.0592 N   0  0  0  0  0  0  0  0  0  0  0  0
    1.0972    3.5576   11.7020 C   0  0  0  0  0  0  0  0  0  0  0  0
    2.2493    3.1037   11.3142 O   0  0  0  0  0  0  0  0  0  0  0  0
    0.0924    4.1254   13.4860 H   0  0  0  0  0  0  0  0  0  0  0  0
    0.1696    3.8122   10.5734 C   0  0  0  0  0  0  0  0  0  0  0  0
    0.5457    3.1117    9.2787 C   0  0  0  0  0  0  0  0  0  0  0  0
    0.8808    4.5304    9.3592 C   0  0  0  0  0  0  0  0  0  0  0  0
   -1.2294    4.2122   10.7278 C   0  0  0  0  0  0  0  0  0  0  0  0
   -1.4474    4.9375   11.8024 O   0  0  0  0  0  0  0  0  0  0  0  0
   -2.3758    3.9913    9.9742 N   0  0  0  0  0  0  0  0  0  0  0  0
   -2.3968    3.4670    9.0843 H   0  0  0  0  0  0  0  0  0  0  0  0
   -3.6658    4.5372   10.3971 C   0  0  0  0  0  0  0  0  0  0  0  0
   -4.0137    5.7062    9.9089 C   0  0  0  0  0  0  0  0  0  0  0  0
   -5.2522    6.4225   10.1990 C   0  0  0  0  0  0  0  0  0  0  0  0
   -6.1538    5.7641   11.1688 C   0  0  0  0  0  0  0  0  0  0  0  0
   -7.4199    5.5411   10.5693 F   0  0  0  0  0  0  0  0  0  0  0  0
   -5.6746    4.4676   11.6514 C   0  0  0  0  0  0  0  0  0  0  0  0
   -4.5421    3.8843   11.3151 C   0  0  0  0  0  0  0  0  0  0  0  0
    4.9311    2.6013   16.8927 O   0  0  0  0  0  0  0  0  0  0  0  0
    5.9086    6.0929   18.7960 C   0  0  0  0  0  0  0  0  0  0  0  0
    5.5891    4.9332   18.1450 C   0  0  0  0  0  0  0  0  0  0  0  0
    5.0200    3.9026   18.8617 C   0  0  0  0  0  0  0  0  0  0  0  0
    4.6760    2.6861   18.2336 C   0  0  0  0  0  0  0  0  0  0  0  0
    4.1137    1.6686   18.9680 C   0  0  0  0  0  0  0  0  0  0  0  0
    3.8753    1.8147   20.3168 C   0  0  0  0  0  0  0  0  0  0  0  0
    4.2025    2.9730   20.9111 N   0  0  0  0  0  0  0  0  0  0  0  0
    4.7614    3.9947   20.2048 C   0  0  0  0  0  0  0  0  0  0  0  0
    5.0874    5.1725   20.8598 C   0  0  0  0  0  0  0  0  0  0  0  0
    5.6548    6.2181   20.1719 C   0  0  0  0  0  0  0  0  0  0  0  0
    6.0009    7.6124   16.9234 C   0  0  0  0  0  0  0  0  0  0  0  0
    6.4824    7.1870   18.1777 O   0  0  0  0  0  0  0  0  0  0  0  0
    5.9701    7.3776   20.8016 O   0  0  0  0  0  0  0  0  0  0  0  0
    5.0637    8.2720   21.3366 C   0  0  0  0  0  0  0  0  0  0  0  0
    5.0007    9.5753   20.5525 C   0  0  0  0  0  0  0  0  0  0  0  0
    3.9236    9.4317   19.4688 C   0  0  0  0  0  0  0  0  0  0  0  0
    3.8851   10.6594   18.7142 N   0  0  0  0  0  0  0  0  0  0  0  0
    2.4814   11.0044   18.3893 C   0  0  0  0  0  0  0  0  0  0  0  0
    2.5774   12.3755   17.7139 C   0  0  0  0  0  0  0  0  0  0  0  0
    3.8726   12.6604   17.2814 O   0  0  0  0  0  0  0  0  0  0  0  0
    4.7617   12.8279   18.3615 C   0  0  0  0  0  0  0  0  0  0  0  0
    4.4104   11.8070   19.4518 C   0  0  0  0  0  0  0  0  0  0  0  0
 37 38  1  0  0  0
 38 27  1  0  0  0
 27 28  2  0  0  0
 28 29  1  0  0  0
 29 30  2  0  0  0
 30 26  1  0  0  0
 26  1  1  0  0  0
  1  2  2  0  0  0
  2  3  1  0  0  0
  3  4  2  0  0  0
  4  8  1  0  0  0
  8  9  1  0  0  0
  9 10  2  0  0  0
  9 12  1  0  0  0
 12 13  1  0  0  0
 13 14  1  0  0  0
 12 15  1  0  0  0
 15 16  2  0  0  0
 15 17  1  0  0  0
 17 19  1  0  0  0
 19 20  2  0  0  0
 20 21  1  0  0  0
 21 22  1  0  0  0
 22 23  1  0  0  0
 22 24  1  0  0  0
 24 25  2  0  0  0
  4  5  1  0  0  0
  5  6  2  0  0  0
  6  7  1  0  0  0
 30 31  1  0  0  0
 31 32  2  0  0  0
 32 33  1  0  0  0
 33 34  2  0  0  0
 34 35  1  0  0  0
 35 36  2  0  0  0
 36 39  1  0  0  0
 39 40  1  0  0  0
 40 41  1  0  0  0
 41 42  1  0  0  0
 42 43  1  0  0  0
 43 44  1  0  0  0
 44 45  1  0  0  0
 45 46  1  0  0  0
 46 47  1  0  0  0
 47 48  1  0  0  0
 36 27  1  0  0  0
 48 43  1  0  0  0
 34 29  1  0  0  0
  6  1  1  0  0  0
 14 12  1  0  0  0
 25 19  1  0  0  0
  8 11  1  0  0  0
 17 18  1  0  0  0
M  END
> <minimizedAffinity>
-9.19172

> <CNNscore>
0.1393375993

> <CNNaffinity>
6.4969038963

> <CNN_VS>
0.9052630067

> <CNNaffinity_variance>
0.3726086020

$$$$
[H]C1=C([H])C([H])(F)C([H])([H])C([H])=C1N([H])C(=O)C1(C(=O)N([H])c2c([H])c([H])c(Oc3c([H])c([H])nc4c([H])c(OC([H])([H])C([H])([H])C([H])([H])N5C([H])([H])C([H])([H])OC([H])([H])C5([H])[H])c(OC([H])([H])[H])c([H])c34)c(F)c2[H])C([H])([H])C1([H])[H]


 48 53  0  0  0  0  0  0  0  0999 V2000
    3.0486    2.4969   14.8551 C   0  0  0  0  0  0  0  0  0  0  0  0
    2.7155    1.8863   16.0562 C   0  0  0  0  0  0  0  0  0  0  0  0
    3.2295    2.2346   17.2697 C   0  0  0  0  0  0  0  0  0  0  0  0
    4.1605    3.2772   17.3380 C   0  0  0  0  0  0  0  0  0  0  0  0
    4.5161    3.9074   16.1766 C   0  0  0  0  0  0  0  0  0  0  0  0
    3.9694    3.5268   14.9402 C   0  0  0  0  0  0  0  0  0  0  0  0
    4.3514    4.2160   13.8399 F   0  0  0  0  0  0  0  0  0  0  0  0
    4.6628    3.6636   18.6311 N   0  0  0  0  0  0  0  0  0  0  0  0
    4.2230    4.7816   19.3023 C   0  0  0  0  0  0  0  0  0  0  0  0
    3.3408    5.5049   18.6840 O   0  0  0  0  0  0  0  0  0  0  0  0
    5.3996    3.0394   18.9936 H   0  0  0  0  0  0  0  0  0  0  0  0
    4.5836    5.3270   20.6332 C   0  0  0  0  0  0  0  0  0  0  0  0
    4.9239    4.2740   21.6744 C   0  0  0  0  0  0  0  0  0  0  0  0
    3.5886    4.8570   21.7668 C   0  0  0  0  0  0  0  0  0  0  0  0
    5.1048    6.6753   20.8601 C   0  0  0  0  0  0  0  0  0  0  0  0
    6.3674    6.8090   20.5192 O   0  0  0  0  0  0  0  0  0  0  0  0
    4.5441    7.8464   21.3552 N   0  0  0  0  0  0  0  0  0  0  0  0
    3.5582    7.9423   21.6489 H   0  0  0  0  0  0  0  0  0  0  0  0
    5.3401    9.0693   21.4639 C   0  0  0  0  0  0  0  0  0  0  0  0
    5.2094    9.9594   20.5067 C   0  0  0  0  0  0  0  0  0  0  0  0
    5.9063   11.2396   20.4252 C   0  0  0  0  0  0  0  0  0  0  0  0
    6.8725   11.5066   21.5125 C   0  0  0  0  0  0  0  0  0  0  0  0
    6.5190   12.7058   22.1824 F   0  0  0  0  0  0  0  0  0  0  0  0
    6.9417   10.4538   22.5276 C   0  0  0  0  0  0  0  0  0  0  0  0
    6.2530    9.3307   22.5295 C   0  0  0  0  0  0  0  0  0  0  0  0
    2.4899    2.0994   13.6604 O   0  0  0  0  0  0  0  0  0  0  0  0
    3.7232    2.6276    9.7914 C   0  0  0  0  0  0  0  0  0  0  0  0
    3.3254    2.4404   11.0866 C   0  0  0  0  0  0  0  0  0  0  0  0
    2.2175    3.1185   11.5472 C   0  0  0  0  0  0  0  0  0  0  0  0
    1.7711    2.9595   12.8769 C   0  0  0  0  0  0  0  0  0  0  0  0
    0.6663    3.6492   13.3179 C   0  0  0  0  0  0  0  0  0  0  0  0
   -0.0213    4.4989   12.4796 C   0  0  0  0  0  0  0  0  0  0  0  0
    0.4049    4.6472   11.2155 N   0  0  0  0  0  0  0  0  0  0  0  0
    1.4971    3.9756   10.7561 C   0  0  0  0  0  0  0  0  0  0  0  0
    1.9049    4.1617    9.4440 C   0  0  0  0  0  0  0  0  0  0  0  0
    3.0049    3.4987    8.9556 C   0  0  0  0  0  0  0  0  0  0  0  0
    4.8043    0.6038    9.0430 C   0  0  0  0  0  0  0  0  0  0  0  0
    4.8173    2.0011    9.2264 O   0  0  0  0  0  0  0  0  0  0  0  0
    3.4075    3.6676    7.6712 O   0  0  0  0  0  0  0  0  0  0  0  0
    4.1795    4.7130    7.2034 C   0  0  0  0  0  0  0  0  0  0  0  0
    3.5569    5.4013    5.9968 C   0  0  0  0  0  0  0  0  0  0  0  0
    2.3711    6.2446    6.4843 C   0  0  0  0  0  0  0  0  0  0  0  0
    2.8770    7.5327    6.8877 N   0  0  0  0  0  0  0  0  0  0  0  0
    3.8209    8.0430    5.8661 C   0  0  0  0  0  0  0  0  0  0  0  0
    4.1728    9.4529    6.3496 C   0  0  0  0  0  0  0  0  0  0  0  0
    3.8492    9.6455    7.6927 O   0  0  0  0  0  0  0  0  0  0  0  0
    2.4564    9.6264    7.9050 C   0  0  0  0  0  0  0  0  0  0  0  0
    1.8352    8.5517    7.0031 C   0  0  0  0  0  0  0  0  0  0  0  0
 37 38  1  0  0  0
 38 27  1  0  0  0
 27 28  2  0  0  0
 28 29  1  0  0  0
 29 30  2  0  0  0
 30 26  1  0  0  0
 26  1  1  0  0  0
  1  2  2  0  0  0
  2  3  1  0  0  0
  3  4  2  0  0  0
  4  8  1  0  0  0
  8  9  1  0  0  0
  9 10  2  0  0  0
  9 12  1  0  0  0
 12 13  1  0  0  0
 13 14  1  0  0  0
 12 15  1  0  0  0
 15 16  2  0  0  0
 15 17  1  0  0  0
 17 19  1  0  0  0
 19 20  2  0  0  0
 20 21  1  0  0  0
 21 22  1  0  0  0
 22 23  1  0  0  0
 22 24  1  0  0  0
 24 25  2  0  0  0
  4  5  1  0  0  0
  5  6  2  0  0  0
  6  7  1  0  0  0
 30 31  1  0  0  0
 31 32  2  0  0  0
 32 33  1  0  0  0
 33 34  2  0  0  0
 34 35  1  0  0  0
 35 36  2  0  0  0
 36 39  1  0  0  0
 39 40  1  0  0  0
 40 41  1  0  0  0
 41 42  1  0  0  0
 42 43  1  0  0  0
 43 44  1  0  0  0
 44 45  1  0  0  0
 45 46  1  0  0  0
 46 47  1  0  0  0
 47 48  1  0  0  0
 36 27  1  0  0  0
 48 43  1  0  0  0
 34 29  1  0  0  0
  6  1  1  0  0  0
 14 12  1  0  0  0
 25 19  1  0  0  0
  8 11  1  0  0  0
 17 18  1  0  0  0
M  END
> <minimizedAffinity>
-7.55496

> <CNNscore>
0.1243644133

> <CNNaffinity>
6.4305968285

> <CNN_VS>
0.7997373939

> <CNNaffinity_variance>
0.2181826383

$$$$
[H]C1=C([H])C([H])(F)C([H])([H])C([H])=C1N([H])C(=O)C1(C(=O)N([H])c2c([H])c([H])c(Oc3c([H])c([H])nc4c([H])c(OC([H])([H])C([H])([H])C([H])([H])N5C([H])([H])C([H])([H])OC([H])([H])C5([H])[H])c(OC([H])([H])[H])c([H])c34)c(F)c2[H])C([H])([H])C1([H])[H]


 48 53  0  0  0  0  0  0  0  0999 V2000
    3.9984    2.1809   16.6824 C   0  0  0  0  0  0  0  0  0  0  0  0
    4.3400    3.3600   16.0349 C   0  0  0  0  0  0  0  0  0  0  0  0
    3.6231    3.9212   15.0203 C   0  0  0  0  0  0  0  0  0  0  0  0
    2.4569    3.2843   14.5808 C   0  0  0  0  0  0  0  0  0  0  0  0
    2.0831    2.1191   15.1933 C   0  0  0  0  0  0  0  0  0  0  0  0
    2.8419    1.5645   16.2369 C   0  0  0  0  0  0  0  0  0  0  0  0
    2.3923    0.4238   16.8096 F   0  0  0  0  0  0  0  0  0  0  0  0
    1.6859    3.9101   13.5380 N   0  0  0  0  0  0  0  0  0  0  0  0
    1.0056    5.0929   13.7161 C   0  0  0  0  0  0  0  0  0  0  0  0
    1.0652    5.6089   14.9053 O   0  0  0  0  0  0  0  0  0  0  0  0
    1.6710    3.3762   12.6556 H   0  0  0  0  0  0  0  0  0  0  0  0
    0.1939    5.9041   12.7770 C   0  0  0  0  0  0  0  0  0  0  0  0
   -1.0559    6.5139   13.3893 C   0  0  0  0  0  0  0  0  0  0  0  0
   -1.2597    5.3187   12.5760 C   0  0  0  0  0  0  0  0  0  0  0  0
    0.7193    6.5429   11.5700 C   0  0  0  0  0  0  0  0  0  0  0  0
    0.5224    7.8424   11.5415 O   0  0  0  0  0  0  0  0  0  0  0  0
    1.3878    6.0656   10.4492 N   0  0  0  0  0  0  0  0  0  0  0  0
    1.6545    5.0778   10.3059 H   0  0  0  0  0  0  0  0  0  0  0  0
    1.7979    6.9750    9.3788 C   0  0  0  0  0  0  0  0  0  0  0  0
    0.9775    7.1170    8.3627 C   0  0  0  0  0  0  0  0  0  0  0  0
    1.1937    7.9714    7.1989 C   0  0  0  0  0  0  0  0  0  0  0  0
    2.4837    8.6942    7.1731 C   0  0  0  0  0  0  0  0  0  0  0  0
    2.2477   10.0906    7.0940 F   0  0  0  0  0  0  0  0  0  0  0  0
    3.3233    8.4683    8.3511 C   0  0  0  0  0  0  0  0  0  0  0  0
    3.0342    7.6881    9.3726 C   0  0  0  0  0  0  0  0  0  0  0  0
    4.7651    1.6671   17.7051 O   0  0  0  0  0  0  0  0  0  0  0  0
    5.6537    5.2861   19.4028 C   0  0  0  0  0  0  0  0  0  0  0  0
    5.3648    4.0827   18.8204 C   0  0  0  0  0  0  0  0  0  0  0  0
    4.7486    3.1085   19.5760 C   0  0  0  0  0  0  0  0  0  0  0  0
    4.4335    1.8502   19.0192 C   0  0  0  0  0  0  0  0  0  0  0  0
    3.8231    0.8903   19.7918 C   0  0  0  0  0  0  0  0  0  0  0  0
    3.5082    1.1351   21.1103 C   0  0  0  0  0  0  0  0  0  0  0  0
    3.8080    2.3329   21.6367 N   0  0  0  0  0  0  0  0  0  0  0  0
    4.4134    3.2990   20.8916 C   0  0  0  0  0  0  0  0  0  0  0  0
    4.7088    4.5208   21.4769 C   0  0  0  0  0  0  0  0  0  0  0  0
    5.3218    5.5120   20.7489 C   0  0  0  0  0  0  0  0  0  0  0  0
    5.7491    6.7818   17.5112 C   0  0  0  0  0  0  0  0  0  0  0  0
    6.2694    6.3309   18.7408 O   0  0  0  0  0  0  0  0  0  0  0  0
    5.6077    6.7137   21.3097 O   0  0  0  0  0  0  0  0  0  0  0  0
    4.9464    7.8980   21.0494 C   0  0  0  0  0  0  0  0  0  0  0  0
    5.4663    9.0523   21.8949 C   0  0  0  0  0  0  0  0  0  0  0  0
    6.9849    9.1471   21.6958 C   0  0  0  0  0  0  0  0  0  0  0  0
    7.6217    8.6992   22.9091 N   0  0  0  0  0  0  0  0  0  0  0  0
    8.9966    8.2344   22.6117 C   0  0  0  0  0  0  0  0  0  0  0  0
    9.5925    7.9177   23.9864 C   0  0  0  0  0  0  0  0  0  0  0  0
    8.6108    7.7830   24.9680 O   0  0  0  0  0  0  0  0  0  0  0  0
    7.9595    9.0046   25.2303 C   0  0  0  0  0  0  0  0  0  0  0  0
    7.7724    9.7574   23.9064 C   0  0  0  0  0  0  0  0  0  0  0  0
 37 38  1  0  0  0
 38 27  1  0  0  0
 27 28  2  0  0  0
 28 29  1  0  0  0
 29 30  2  0  0  0
 30 26  1  0  0  0
 26  1  1  0  0  0
  1  2  2  0  0  0
  2  3  1  0  0  0
  3  4  2  0  0  0
  4  8  1  0  0  0
  8  9  1  0  0  0
  9 10  2  0  0  0
  9 12  1  0  0  0
 12 13  1  0  0  0
 13 14  1  0  0  0
 12 15  1  0  0  0
 15 16  2  0  0  0
 15 17  1  0  0  0
 17 19  1  0  0  0
 19 20  2  0  0  0
 20 21  1  0  0  0
 21 22  1  0  0  0
 22 23  1  0  0  0
 22 24  1  0  0  0
 24 25  2  0  0  0
  4  5  1  0  0  0
  5  6  2  0  0  0
  6  7  1  0  0  0
 30 31  1  0  0  0
 31 32  2  0  0  0
 32 33  1  0  0  0
 33 34  2  0  0  0
 34 35  1  0  0  0
 35 36  2  0  0  0
 36 39  1  0  0  0
 39 40  1  0  0  0
 40 41  1  0  0  0
 41 42  1  0  0  0
 42 43  1  0  0  0
 43 44  1  0  0  0
 44 45  1  0  0  0
 45 46  1  0  0  0
 46 47  1  0  0  0
 47 48  1  0  0  0
 36 27  1  0  0  0
 48 43  1  0  0  0
 34 29  1  0  0  0
  6  1  1  0  0  0
 14 12  1  0  0  0
 25 19  1  0  0  0
  8 11  1  0  0  0
 17 18  1  0  0  0
M  END
> <minimizedAffinity>
-8.86790

> <CNNscore>
0.1188711599

> <CNNaffinity>
6.3549556732

> <CNN_VS>
0.7554209232

> <CNNaffinity_variance>
0.4886535704

$$$$
[H]C1=C([H])C([H])(F)C([H])([H])C([H])=C1N([H])C(=O)C1(C(=O)N([H])c2c([H])c([H])c(Oc3c([H])c([H])nc4c([H])c(OC([H])([H])C([H])([H])C([H])([H])N5C([H])([H])C([H])([H])OC([H])([H])C5([H])[H])c(OC([H])([H])[H])c([H])c34)c(F)c2[H])C([H])([H])C1([H])[H]


 48 53  0  0  0  0  0  0  0  0999 V2000
    4.0973    2.4816   16.9291 C   0  0  0  0  0  0  0  0  0  0  0  0
    4.3867    3.6702   16.2737 C   0  0  0  0  0  0  0  0  0  0  0  0
    3.6087    4.2277   15.3030 C   0  0  0  0  0  0  0  0  0  0  0  0
    2.4303    3.5766   14.9211 C   0  0  0  0  0  0  0  0  0  0  0  0
    2.1066    2.4016   15.5434 C   0  0  0  0  0  0  0  0  0  0  0  0
    2.9279    1.8511   16.5408 C   0  0  0  0  0  0  0  0  0  0  0  0
    2.5260    0.6997   17.1276 F   0  0  0  0  0  0  0  0  0  0  0  0
    1.5958    4.1981   13.9256 N   0  0  0  0  0  0  0  0  0  0  0  0
    1.5585    3.7832   12.6141 C   0  0  0  0  0  0  0  0  0  0  0  0
    2.3553    2.8069   12.3043 O   0  0  0  0  0  0  0  0  0  0  0  0
    1.0501    4.9976   14.2818 H   0  0  0  0  0  0  0  0  0  0  0  0
    0.7582    4.2608   11.4606 C   0  0  0  0  0  0  0  0  0  0  0  0
    1.4258    4.0709   10.1090 C   0  0  0  0  0  0  0  0  0  0  0  0
    1.4796    5.4197   10.6652 C   0  0  0  0  0  0  0  0  0  0  0  0
   -0.6985    4.3990   11.4662 C   0  0  0  0  0  0  0  0  0  0  0  0
   -1.2194    4.3654   12.6728 O   0  0  0  0  0  0  0  0  0  0  0  0
   -1.6471    4.5639   10.4644 N   0  0  0  0  0  0  0  0  0  0  0  0
   -1.4257    4.6396    9.4581 H   0  0  0  0  0  0  0  0  0  0  0  0
   -3.0689    4.6766   10.7914 C   0  0  0  0  0  0  0  0  0  0  0  0
   -3.8711    3.7517   10.3152 C   0  0  0  0  0  0  0  0  0  0  0  0
   -5.3141    3.6780   10.5237 C   0  0  0  0  0  0  0  0  0  0  0  0
   -5.8991    4.7854   11.3101 C   0  0  0  0  0  0  0  0  0  0  0  0
   -6.5631    4.2637   12.4498 F   0  0  0  0  0  0  0  0  0  0  0  0
   -4.9211    5.7615   11.7942 C   0  0  0  0  0  0  0  0  0  0  0  0
   -3.6228    5.7356   11.5717 C   0  0  0  0  0  0  0  0  0  0  0  0
    4.9247    1.9721   17.9056 O   0  0  0  0  0  0  0  0  0  0  0  0
    5.6480    5.4904   19.8721 C   0  0  0  0  0  0  0  0  0  0  0  0
    5.4139    4.3222   19.2004 C   0  0  0  0  0  0  0  0  0  0  0  0
    4.8580    3.2617   19.8831 C   0  0  0  0  0  0  0  0  0  0  0  0
    4.6009    2.0355   19.2327 C   0  0  0  0  0  0  0  0  0  0  0  0
    4.0503    0.9883   19.9335 C   0  0  0  0  0  0  0  0  0  0  0  0
    3.7399    1.1137   21.2697 C   0  0  0  0  0  0  0  0  0  0  0  0
    3.9846    2.2812   21.8851 N   0  0  0  0  0  0  0  0  0  0  0  0
    4.5302    3.3322   21.2124 C   0  0  0  0  0  0  0  0  0  0  0  0
    4.7699    4.5189   21.8885 C   0  0  0  0  0  0  0  0  0  0  0  0
    5.3220    5.5940   21.2345 C   0  0  0  0  0  0  0  0  0  0  0  0
    7.5307    6.5764   18.8231 C   0  0  0  0  0  0  0  0  0  0  0  0
    6.2009    6.6139   19.2882 O   0  0  0  0  0  0  0  0  0  0  0  0
    5.5530    6.7620   21.8847 O   0  0  0  0  0  0  0  0  0  0  0  0
    6.6214    7.0158   22.7226 C   0  0  0  0  0  0  0  0  0  0  0  0
    7.3401    8.3113   22.3723 C   0  0  0  0  0  0  0  0  0  0  0  0
    8.1535    8.7547   23.5957 C   0  0  0  0  0  0  0  0  0  0  0  0
    8.9979    7.6553   23.9910 N   0  0  0  0  0  0  0  0  0  0  0  0
   10.1920    7.6003   23.1157 C   0  0  0  0  0  0  0  0  0  0  0  0
   11.0523    6.4878   23.7220 C   0  0  0  0  0  0  0  0  0  0  0  0
   10.3230    5.6676   24.5829 O   0  0  0  0  0  0  0  0  0  0  0  0
    9.9139    6.3557   25.7424 C   0  0  0  0  0  0  0  0  0  0  0  0
    9.5150    7.7850   25.3522 C   0  0  0  0  0  0  0  0  0  0  0  0
 37 38  1  0  0  0
 38 27  1  0  0  0
 27 28  2  0  0  0
 28 29  1  0  0  0
 29 30  2  0  0  0
 30 26  1  0  0  0
 26  1  1  0  0  0
  1  2  2  0  0  0
  2  3  1  0  0  0
  3  4  2  0  0  0
  4  8  1  0  0  0
  8  9  1  0  0  0
  9 10  2  0  0  0
  9 12  1  0  0  0
 12 13  1  0  0  0
 13 14  1  0  0  0
 12 15  1  0  0  0
 15 16  2  0  0  0
 15 17  1  0  0  0
 17 19  1  0  0  0
 19 20  2  0  0  0
 20 21  1  0  0  0
 21 22  1  0  0  0
 22 23  1  0  0  0
 22 24  1  0  0  0
 24 25  2  0  0  0
  4  5  1  0  0  0
  5  6  2  0  0  0
  6  7  1  0  0  0
 30 31  1  0  0  0
 31 32  2  0  0  0
 32 33  1  0  0  0
 33 34  2  0  0  0
 34 35  1  0  0  0
 35 36  2  0  0  0
 36 39  1  0  0  0
 39 40  1  0  0  0
 40 41  1  0  0  0
 41 42  1  0  0  0
 42 43  1  0  0  0
 43 44  1  0  0  0
 44 45  1  0  0  0
 45 46  1  0  0  0
 46 47  1  0  0  0
 47 48  1  0  0  0
 36 27  1  0  0  0
 48 43  1  0  0  0
 34 29  1  0  0  0
  6  1  1  0  0  0
 14 12  1  0  0  0
 25 19  1  0  0  0
  8 11  1  0  0  0
 17 18  1  0  0  0
M  END
> <minimizedAffinity>
-8.90790

> <CNNscore>
0.1155540943

> <CNNaffinity>
6.6065053940

> <CNN_VS>
0.7634087205

> <CNNaffinity_variance>
0.2397728264

$$$$
[H]C1=C([H])C([H])(F)C([H])([H])C([H])=C1N([H])C(=O)C1(C(=O)N([H])c2c([H])c([H])c(Oc3c([H])c([H])nc4c([H])c(OC([H])([H])C([H])([H])C([H])([H])N5C([H])([H])C([H])([H])OC([H])([H])C5([H])[H])c(OC([H])([H])[H])c([H])c34)c(F)c2[H])C([H])([H])C1([H])[H]


 48 53  0  0  0  0  0  0  0  0999 V2000
    4.6166    2.1526   18.1943 C   0  0  0  0  0  0  0  0  0  0  0  0
    5.1252    3.1373   17.3587 C   0  0  0  0  0  0  0  0  0  0  0  0
    4.6311    3.4348   16.1236 C   0  0  0  0  0  0  0  0  0  0  0  0
    3.5349    2.7118   15.6394 C   0  0  0  0  0  0  0  0  0  0  0  0
    3.0018    1.7321   16.4321 C   0  0  0  0  0  0  0  0  0  0  0  0
    3.5321    1.4479   17.7012 C   0  0  0  0  0  0  0  0  0  0  0  0
    2.9328    0.4824   18.4361 F   0  0  0  0  0  0  0  0  0  0  0  0
    2.9959    3.0652   14.3517 N   0  0  0  0  0  0  0  0  0  0  0  0
    2.3096    4.2357   14.1224 C   0  0  0  0  0  0  0  0  0  0  0  0
    2.1378    5.0047   15.1534 O   0  0  0  0  0  0  0  0  0  0  0  0
    3.1501    2.3484   13.6263 H   0  0  0  0  0  0  0  0  0  0  0  0
    1.7124    4.7916   12.8841 C   0  0  0  0  0  0  0  0  0  0  0  0
    2.5442    4.5747   11.6313 C   0  0  0  0  0  0  0  0  0  0  0  0
    2.6183    5.9061   12.2258 C   0  0  0  0  0  0  0  0  0  0  0  0
    0.2827    5.0391   12.6952 C   0  0  0  0  0  0  0  0  0  0  0  0
   -0.4693    4.0062   13.0052 O   0  0  0  0  0  0  0  0  0  0  0  0
   -0.4484    6.1385   12.2620 N   0  0  0  0  0  0  0  0  0  0  0  0
   -0.0341    7.0480   12.0002 H   0  0  0  0  0  0  0  0  0  0  0  0
   -1.9081    6.0806   12.1784 C   0  0  0  0  0  0  0  0  0  0  0  0
   -2.5895    6.7141   13.1059 C   0  0  0  0  0  0  0  0  0  0  0  0
   -4.0443    6.7830   13.2045 C   0  0  0  0  0  0  0  0  0  0  0  0
   -4.7869    6.0226   12.1762 C   0  0  0  0  0  0  0  0  0  0  0  0
   -5.6424    6.8979   11.4592 F   0  0  0  0  0  0  0  0  0  0  0  0
   -3.9353    5.3542   11.1906 C   0  0  0  0  0  0  0  0  0  0  0  0
   -2.6180    5.3644   11.1684 C   0  0  0  0  0  0  0  0  0  0  0  0
    5.1604    1.9028   19.4351 O   0  0  0  0  0  0  0  0  0  0  0  0
    5.9973    5.8219   20.2774 C   0  0  0  0  0  0  0  0  0  0  0  0
    5.7285    4.5138   19.9816 C   0  0  0  0  0  0  0  0  0  0  0  0
    4.9310    3.7877   20.8397 C   0  0  0  0  0  0  0  0  0  0  0  0
    4.6284    2.4340   20.5775 C   0  0  0  0  0  0  0  0  0  0  0  0
    3.8348    1.7261   21.4492 C   0  0  0  0  0  0  0  0  0  0  0  0
    3.3226    2.3175   22.5829 C   0  0  0  0  0  0  0  0  0  0  0  0
    3.6112    3.6051   22.8290 N   0  0  0  0  0  0  0  0  0  0  0  0
    4.3957    4.3265   21.9810 C   0  0  0  0  0  0  0  0  0  0  0  0
    4.6716    5.6529   22.2761 C   0  0  0  0  0  0  0  0  0  0  0  0
    5.4625    6.4028   21.4392 C   0  0  0  0  0  0  0  0  0  0  0  0
    6.6129    6.6377   18.0912 C   0  0  0  0  0  0  0  0  0  0  0  0
    6.7835    6.6409   19.4900 O   0  0  0  0  0  0  0  0  0  0  0  0
    5.7320    7.7036   21.7146 O   0  0  0  0  0  0  0  0  0  0  0  0
    4.8290    8.7453   21.6291 C   0  0  0  0  0  0  0  0  0  0  0  0
    5.0097    9.5691   20.3618 C   0  0  0  0  0  0  0  0  0  0  0  0
    3.9518    9.1222   19.3440 C   0  0  0  0  0  0  0  0  0  0  0  0
    3.8441   10.1464   18.3353 N   0  0  0  0  0  0  0  0  0  0  0  0
    3.8728    9.5290   16.9888 C   0  0  0  0  0  0  0  0  0  0  0  0
    3.6201   10.6986   16.0329 C   0  0  0  0  0  0  0  0  0  0  0  0
    3.8341   11.9341   16.6439 O   0  0  0  0  0  0  0  0  0  0  0  0
    2.8814   12.1950   17.6486 C   0  0  0  0  0  0  0  0  0  0  0  0
    2.5869   10.8896   18.3993 C   0  0  0  0  0  0  0  0  0  0  0  0
 37 38  1  0  0  0
 38 27  1  0  0  0
 27 28  2  0  0  0
 28 29  1  0  0  0
 29 30  2  0  0  0
 30 26  1  0  0  0
 26  1  1  0  0  0
  1  2  2  0  0  0
  2  3  1  0  0  0
  3  4  2  0  0  0
  4  8  1  0  0  0
  8  9  1  0  0  0
  9 10  2  0  0  0
  9 12  1  0  0  0
 12 13  1  0  0  0
 13 14  1  0  0  0
 12 15  1  0  0  0
 15 16  2  0  0  0
 15 17  1  0  0  0
 17 19  1  0  0  0
 19 20  2  0  0  0
 20 21  1  0  0  0
 21 22  1  0  0  0
 22 23  1  0  0  0
 22 24  1  0  0  0
 24 25  2  0  0  0
  4  5  1  0  0  0
  5  6  2  0  0  0
  6  7  1  0  0  0
 30 31  1  0  0  0
 31 32  2  0  0  0
 32 33  1  0  0  0
 33 34  2  0  0  0
 34 35  1  0  0  0
 35 36  2  0  0  0
 36 39  1  0  0  0
 39 40  1  0  0  0
 40 41  1  0  0  0
 41 42  1  0  0  0
 42 43  1  0  0  0
 43 44  1  0  0  0
 44 45  1  0  0  0
 45 46  1  0  0  0
 46 47  1  0  0  0
 47 48  1  0  0  0
 36 27  1  0  0  0
 48 43  1  0  0  0
 34 29  1  0  0  0
  6  1  1  0  0  0
 14 12  1  0  0  0
 25 19  1  0  0  0
  8 11  1  0  0  0
 17 18  1  0  0  0
M  END
> <minimizedAffinity>
-9.52139

> <CNNscore>
0.1086607873

> <CNNaffinity>
6.6206293106

> <CNN_VS>
0.7194027901

> <CNNaffinity_variance>
0.4490078986

$$$$
[H]O[C@]1([H])C([H])([H])C([H])([H])[C@@]([H])(n2c([H])c(-c3c([H])c([H])c(C4(N5C([H])([H])C([H])([H])N(C([H])([H])[H])C([H])([H])C5([H])[H])C([H])([H])C4([H])[H])c([H])c3[H])c3c([H])nc(N([H])C([H])([H])C([H])([H])C([H])([H])C([H])([H])[H])nc32)C([H])([H])C1([H])[H]


 39 44  0  0  0  0  0  0  0  0999 V2000
    2.8391    0.2388   18.2981 C   0  0  0  0  0  0  0  0  0  0  0  0
    2.4908   -0.0828   17.0424 N   0  0  0  0  0  0  0  0  0  0  0  0
    2.6817    0.7038   15.9758 C   0  0  0  0  0  0  0  0  0  0  0  0
    3.2839    1.9401   16.1907 C   0  0  0  0  0  0  0  0  0  0  0  0
    3.6284    2.9854   15.3737 C   0  0  0  0  0  0  0  0  0  0  0  0
    4.1984    3.9502   16.1811 C   0  0  0  0  0  0  0  0  0  0  0  0
    4.1900    3.4872   17.4389 N   0  0  0  0  0  0  0  0  0  0  0  0
    3.6321    2.2471   17.4856 C   0  0  0  0  0  0  0  0  0  0  0  0
    3.4331    1.4467   18.5403 N   0  0  0  0  0  0  0  0  0  0  0  0
    4.6920    4.2087   18.5757 C   0  0  0  0  0  0  0  0  0  0  0  0
    5.8134    5.1635   18.2484 C   0  0  0  0  0  0  0  0  0  0  0  0
    5.9658    6.2316   19.3257 C   0  0  0  0  0  0  0  0  0  0  0  0
    5.4254    5.7568   20.6520 C   0  0  0  0  0  0  0  0  0  0  0  0
    6.1629    4.7316   21.2101 O   0  0  0  0  0  0  0  0  0  0  0  0
    3.9514    5.4537   20.5863 C   0  0  0  0  0  0  0  0  0  0  0  0
    3.5770    5.0287   19.1796 C   0  0  0  0  0  0  0  0  0  0  0  0
    5.6338    4.3599   21.9645 H   0  0  0  0  0  0  0  0  0  0  0  0
    3.4153    3.0464   13.9360 C   0  0  0  0  0  0  0  0  0  0  0  0
    2.6934    2.1152   13.2338 C   0  0  0  0  0  0  0  0  0  0  0  0
    2.5275    2.2339   11.8730 C   0  0  0  0  0  0  0  0  0  0  0  0
    3.0911    3.2915   11.2298 C   0  0  0  0  0  0  0  0  0  0  0  0
    3.8225    4.2464   11.8993 C   0  0  0  0  0  0  0  0  0  0  0  0
    3.9829    4.1216   13.2508 C   0  0  0  0  0  0  0  0  0  0  0  0
    2.9416    3.4822    9.7405 C   0  0  0  0  0  0  0  0  0  0  0  0
    3.4441    2.3508    8.9287 C   0  0  0  0  0  0  0  0  0  0  0  0
    4.2386    3.6246    9.0317 C   0  0  0  0  0  0  0  0  0  0  0  0
    1.7963    4.2506    9.3917 N   0  0  0  0  0  0  0  0  0  0  0  0
    1.6581    5.5192   10.0129 C   0  0  0  0  0  0  0  0  0  0  0  0
    0.2002    5.9063   10.0593 C   0  0  0  0  0  0  0  0  0  0  0  0
   -0.5422    4.9141   10.7643 N   0  0  0  0  0  0  0  0  0  0  0  0
   -0.1776    4.9036   12.1504 C   0  0  0  0  0  0  0  0  0  0  0  0
   -0.4041    3.5815   10.2284 C   0  0  0  0  0  0  0  0  0  0  0  0
    0.6021    3.5421    9.0926 C   0  0  0  0  0  0  0  0  0  0  0  0
    2.6191   -0.6073   19.4115 N   0  0  0  0  0  0  0  0  0  0  0  0
    2.4478   -1.6440   19.2716 H   0  0  0  0  0  0  0  0  0  0  0  0
    2.6088   -0.1542   20.7776 C   0  0  0  0  0  0  0  0  0  0  0  0
    3.9770   -0.3109   21.3778 C   0  0  0  0  0  0  0  0  0  0  0  0
    5.9121    1.1744   21.2080 C   0  0  0  0  0  0  0  0  0  0  0  0
    4.5006    1.0778   21.7591 C   0  0  0  0  0  0  0  0  0  0  0  0
 38 39  1  0  0  0
 39 37  1  0  0  0
 37 36  1  0  0  0
 36 34  1  0  0  0
 34  1  1  0  0  0
  1  2  2  0  0  0
  2  3  1  0  0  0
  3  4  2  0  0  0
  4  5  1  0  0  0
  5  6  2  0  0  0
  6  7  1  0  0  0
  7 10  1  0  0  0
 10 11  1  0  0  0
 11 12  1  0  0  0
 12 13  1  0  0  0
 13 14  1  0  0  0
 13 15  1  0  0  0
 15 16  1  0  0  0
  7  8  1  0  0  0
  8  9  2  0  0  0
  5 18  1  0  0  0
 18 19  2  0  0  0
 19 20  1  0  0  0
 20 21  2  0  0  0
 21 22  1  0  0  0
 22 23  2  0  0  0
 21 24  1  0  0  0
 24 25  1  0  0  0
 25 26  1  0  0  0
 24 27  1  0  0  0
 27 28  1  0  0  0
 28 29  1  0  0  0
 29 30  1  0  0  0
 30 31  1  0  0  0
 30 32  1  0  0  0
 32 33  1  0  0  0
  9  1  1  0  0  0
 23 18  1  0  0  0
 26 24  1  0  0  0
 33 27  1  0  0  0
  8  4  1  0  0  0
 16 10  1  0  0  0
 34 35  1  0  0  0
 14 17  1  0  0  0
M  END
> <minimizedAffinity>
-8.63366

> <CNNscore>
0.9534971714

> <CNNaffinity>
7.6280698776

> <CNN_VS>
7.2733430862

> <CNNaffinity_variance>
0.0525256395

$$$$
[H]O[C@]1([H])C([H])([H])C([H])([H])[C@@]([H])(n2c([H])c(-c3c([H])c([H])c(C4(N5C([H])([H])C([H])([H])N(C([H])([H])[H])C([H])([H])C5([H])[H])C([H])([H])C4([H])[H])c([H])c3[H])c3c([H])nc(N([H])C([H])([H])C([H])([H])C([H])([H])C([H])([H])[H])nc32)C([H])([H])C1([H])[H]


 39 44  0  0  0  0  0  0  0  0999 V2000
    2.8350    0.2718   18.3979 C   0  0  0  0  0  0  0  0  0  0  0  0
    2.6622   -0.1437   17.1333 N   0  0  0  0  0  0  0  0  0  0  0  0
    2.8041    0.6332   16.0521 C   0  0  0  0  0  0  0  0  0  0  0  0
    3.1555    1.9638   16.2605 C   0  0  0  0  0  0  0  0  0  0  0  0
    3.3798    3.0300   15.4289 C   0  0  0  0  0  0  0  0  0  0  0  0
    3.6953    4.1050   16.2367 C   0  0  0  0  0  0  0  0  0  0  0  0
    3.6577    3.6848   17.5089 N   0  0  0  0  0  0  0  0  0  0  0  0
    3.3273    2.3660   17.5647 C   0  0  0  0  0  0  0  0  0  0  0  0
    3.1809    1.5738   18.6340 N   0  0  0  0  0  0  0  0  0  0  0  0
    3.9206    4.5178   18.6498 C   0  0  0  0  0  0  0  0  0  0  0  0
    5.0985    4.0677   19.4782 C   0  0  0  0  0  0  0  0  0  0  0  0
    5.6380    5.2037   20.3403 C   0  0  0  0  0  0  0  0  0  0  0  0
    4.5764    6.2413   20.6107 C   0  0  0  0  0  0  0  0  0  0  0  0
    3.5519    5.7823   21.4143 O   0  0  0  0  0  0  0  0  0  0  0  0
    4.0850    6.8911   19.3437 C   0  0  0  0  0  0  0  0  0  0  0  0
    4.2201    5.9228   18.1845 C   0  0  0  0  0  0  0  0  0  0  0  0
    2.8200    6.4531   21.3769 H   0  0  0  0  0  0  0  0  0  0  0  0
    3.2877    3.0097   13.9773 C   0  0  0  0  0  0  0  0  0  0  0  0
    2.5723    2.0748   13.2734 C   0  0  0  0  0  0  0  0  0  0  0  0
    2.5243    2.1145   11.8988 C   0  0  0  0  0  0  0  0  0  0  0  0
    3.1983    3.0974   11.2436 C   0  0  0  0  0  0  0  0  0  0  0  0
    3.9271    4.0535   11.9144 C   0  0  0  0  0  0  0  0  0  0  0  0
    3.9701    4.0074   13.2796 C   0  0  0  0  0  0  0  0  0  0  0  0
    3.1812    3.1998    9.7383 C   0  0  0  0  0  0  0  0  0  0  0  0
    3.1037    4.5855    9.2235 C   0  0  0  0  0  0  0  0  0  0  0  0
    1.8908    3.6954    9.1961 C   0  0  0  0  0  0  0  0  0  0  0  0
    3.9261    2.1673    9.1035 N   0  0  0  0  0  0  0  0  0  0  0  0
    5.3211    2.3799    8.9511 C   0  0  0  0  0  0  0  0  0  0  0  0
    5.8319    1.5803    7.7776 C   0  0  0  0  0  0  0  0  0  0  0  0
    5.1308    1.9549    6.5942 N   0  0  0  0  0  0  0  0  0  0  0  0
    5.4566    3.3000    6.2211 C   0  0  0  0  0  0  0  0  0  0  0  0
    3.6969    1.8248    6.6911 C   0  0  0  0  0  0  0  0  0  0  0  0
    3.2703    1.4187    8.0901 C   0  0  0  0  0  0  0  0  0  0  0  0
    2.6710   -0.5675   19.5260 N   0  0  0  0  0  0  0  0  0  0  0  0
    2.4683   -1.6005   19.4008 H   0  0  0  0  0  0  0  0  0  0  0  0
    2.7610   -0.1121   20.8884 C   0  0  0  0  0  0  0  0  0  0  0  0
    4.1678   -0.2755   21.3893 C   0  0  0  0  0  0  0  0  0  0  0  0
    3.6060    1.8379   22.4837 C   0  0  0  0  0  0  0  0  0  0  0  0
    4.7174    1.1088   21.7498 C   0  0  0  0  0  0  0  0  0  0  0  0
 38 39  1  0  0  0
 39 37  1  0  0  0
 37 36  1  0  0  0
 36 34  1  0  0  0
 34  1  1  0  0  0
  1  2  2  0  0  0
  2  3  1  0  0  0
  3  4  2  0  0  0
  4  5  1  0  0  0
  5  6  2  0  0  0
  6  7  1  0  0  0
  7 10  1  0  0  0
 10 11  1  0  0  0
 11 12  1  0  0  0
 12 13  1  0  0  0
 13 14  1  0  0  0
 13 15  1  0  0  0
 15 16  1  0  0  0
  7  8  1  0  0  0
  8  9  2  0  0  0
  5 18  1  0  0  0
 18 19  2  0  0  0
 19 20  1  0  0  0
 20 21  2  0  0  0
 21 22  1  0  0  0
 22 23  2  0  0  0
 21 24  1  0  0  0
 24 25  1  0  0  0
 25 26  1  0  0  0
 24 27  1  0  0  0
 27 28  1  0  0  0
 28 29  1  0  0  0
 29 30  1  0  0  0
 30 31  1  0  0  0
 30 32  1  0  0  0
 32 33  1  0  0  0
  9  1  1  0  0  0
 23 18  1  0  0  0
 26 24  1  0  0  0
 33 27  1  0  0  0
  8  4  1  0  0  0
 16 10  1  0  0  0
 34 35  1  0  0  0
 14 17  1  0  0  0
M  END
> <minimizedAffinity>
-8.36462

> <CNNscore>
0.8964136243

> <CNNaffinity>
7.5556297302

> <CNN_VS>
6.7729692459

> <CNNaffinity_variance>
0.1471384466

$$$$
[H]O[C@]1([H])C([H])([H])C([H])([H])[C@@]([H])(n2c([H])c(-c3c([H])c([H])c(C4(N5C([H])([H])C([H])([H])N(C([H])([H])[H])C([H])([H])C5([H])[H])C([H])([H])C4([H])[H])c([H])c3[H])c3c([H])nc(N([H])C([H])([H])C([H])([H])C([H])([H])C([H])([H])[H])nc32)C([H])([H])C1([H])[H]


 39 44  0  0  0  0  0  0  0  0999 V2000
    4.1221    1.7379   19.8882 C   0  0  0  0  0  0  0  0  0  0  0  0
    3.8238    1.0410   18.7804 N   0  0  0  0  0  0  0  0  0  0  0  0
    3.6376    1.5817   17.5698 C   0  0  0  0  0  0  0  0  0  0  0  0
    3.7636    2.9634   17.4585 C   0  0  0  0  0  0  0  0  0  0  0  0
    3.6443    3.8490   16.4192 C   0  0  0  0  0  0  0  0  0  0  0  0
    3.8821    5.1065   16.9388 C   0  0  0  0  0  0  0  0  0  0  0  0
    4.1342    4.9665   18.2477 N   0  0  0  0  0  0  0  0  0  0  0  0
    4.0699    3.6557   18.6070 C   0  0  0  0  0  0  0  0  0  0  0  0
    4.2527    3.0970   19.8099 N   0  0  0  0  0  0  0  0  0  0  0  0
    4.4214    6.0535   19.1426 C   0  0  0  0  0  0  0  0  0  0  0  0
    5.8525    6.0931   19.6185 C   0  0  0  0  0  0  0  0  0  0  0  0
    6.2304    7.4793   20.1284 C   0  0  0  0  0  0  0  0  0  0  0  0
    5.0146    8.2491   20.5823 C   0  0  0  0  0  0  0  0  0  0  0  0
    4.4201    7.7209   21.7110 O   0  0  0  0  0  0  0  0  0  0  0  0
    4.0401    8.4818   19.4576 C   0  0  0  0  0  0  0  0  0  0  0  0
    4.1542    7.3632   18.4400 C   0  0  0  0  0  0  0  0  0  0  0  0
    3.5372    8.1638   21.8181 H   0  0  0  0  0  0  0  0  0  0  0  0
    3.3193    3.5060   15.0434 C   0  0  0  0  0  0  0  0  0  0  0  0
    2.4236    2.5276   14.6946 C   0  0  0  0  0  0  0  0  0  0  0  0
    2.1595    2.2549   13.3720 C   0  0  0  0  0  0  0  0  0  0  0  0
    2.8008    2.9714   12.4101 C   0  0  0  0  0  0  0  0  0  0  0  0
    3.7062    3.9609   12.7202 C   0  0  0  0  0  0  0  0  0  0  0  0
    3.9634    4.2259   14.0360 C   0  0  0  0  0  0  0  0  0  0  0  0
    2.5514    2.7253   10.9425 C   0  0  0  0  0  0  0  0  0  0  0  0
    2.6537    1.3051   10.5377 C   0  0  0  0  0  0  0  0  0  0  0  0
    3.7591    2.2712   10.2077 C   0  0  0  0  0  0  0  0  0  0  0  0
    1.6160    3.6367   10.3782 N   0  0  0  0  0  0  0  0  0  0  0  0
    2.0156    4.9955   10.2865 C   0  0  0  0  0  0  0  0  0  0  0  0
    0.7964    5.8848   10.2863 C   0  0  0  0  0  0  0  0  0  0  0  0
    0.0330    5.6606   11.4693 N   0  0  0  0  0  0  0  0  0  0  0  0
    0.7504    6.1143   12.6243 C   0  0  0  0  0  0  0  0  0  0  0  0
   -0.3608    4.2864   11.6663 C   0  0  0  0  0  0  0  0  0  0  0  0
    0.2376    3.3806   10.6055 C   0  0  0  0  0  0  0  0  0  0  0  0
    4.3063    1.1436   21.1597 N   0  0  0  0  0  0  0  0  0  0  0  0
    5.0658    0.4190   21.3081 H   0  0  0  0  0  0  0  0  0  0  0  0
    3.5114    1.4572   22.3179 C   0  0  0  0  0  0  0  0  0  0  0  0
    4.4072    1.7836   23.4788 C   0  0  0  0  0  0  0  0  0  0  0  0
    3.5402    4.0689   23.4060 C   0  0  0  0  0  0  0  0  0  0  0  0
    4.8216    3.2550   23.3719 C   0  0  0  0  0  0  0  0  0  0  0  0
 38 39  1  0  0  0
 39 37  1  0  0  0
 37 36  1  0  0  0
 36 34  1  0  0  0
 34  1  1  0  0  0
  1  2  2  0  0  0
  2  3  1  0  0  0
  3  4  2  0  0  0
  4  5  1  0  0  0
  5  6  2  0  0  0
  6  7  1  0  0  0
  7 10  1  0  0  0
 10 11  1  0  0  0
 11 12  1  0  0  0
 12 13  1  0  0  0
 13 14  1  0  0  0
 13 15  1  0  0  0
 15 16  1  0  0  0
  7  8  1  0  0  0
  8  9  2  0  0  0
  5 18  1  0  0  0
 18 19  2  0  0  0
 19 20  1  0  0  0
 20 21  2  0  0  0
 21 22  1  0  0  0
 22 23  2  0  0  0
 21 24  1  0  0  0
 24 25  1  0  0  0
 25 26  1  0  0  0
 24 27  1  0  0  0
 27 28  1  0  0  0
 28 29  1  0  0  0
 29 30  1  0  0  0
 30 31  1  0  0  0
 30 32  1  0  0  0
 32 33  1  0  0  0
  9  1  1  0  0  0
 23 18  1  0  0  0
 26 24  1  0  0  0
 33 27  1  0  0  0
  8  4  1  0  0  0
 16 10  1  0  0  0
 34 35  1  0  0  0
 14 17  1  0  0  0
M  END
> <minimizedAffinity>
-9.17926

> <CNNscore>
0.4132241309

> <CNNaffinity>
7.2688741684

> <CNN_VS>
3.0036742687

> <CNNaffinity_variance>
0.5347384214

$$$$
[H]O[C@]1([H])C([H])([H])C([H])([H])[C@@]([H])(n2c([H])c(-c3c([H])c([H])c(C4(N5C([H])([H])C([H])([H])N(C([H])([H])[H])C([H])([H])C5([H])[H])C([H])([H])C4([H])[H])c([H])c3[H])c3c([H])nc(N([H])C([H])([H])C([H])([H])C([H])([H])C([H])([H])[H])nc32)C([H])([H])C1([H])[H]


 39 44  0  0  0  0  0  0  0  0999 V2000
    3.6714    1.6158   18.4427 C   0  0  0  0  0  0  0  0  0  0  0  0
    3.3019    1.4415   17.1641 N   0  0  0  0  0  0  0  0  0  0  0  0
    3.1374    2.4324   16.2789 C   0  0  0  0  0  0  0  0  0  0  0  0
    3.3670    3.7320   16.7215 C   0  0  0  0  0  0  0  0  0  0  0  0
    3.2985    4.9653   16.1274 C   0  0  0  0  0  0  0  0  0  0  0  0
    3.6407    5.8915   17.0933 C   0  0  0  0  0  0  0  0  0  0  0  0
    3.9032    5.2233   18.2251 N   0  0  0  0  0  0  0  0  0  0  0  0
    3.7448    3.8853   18.0352 C   0  0  0  0  0  0  0  0  0  0  0  0
    3.9044    2.8812   18.9063 N   0  0  0  0  0  0  0  0  0  0  0  0
    4.2879    5.8403   19.4645 C   0  0  0  0  0  0  0  0  0  0  0  0
    3.5825    5.2774   20.6735 C   0  0  0  0  0  0  0  0  0  0  0  0
    4.3493    5.5813   21.9558 C   0  0  0  0  0  0  0  0  0  0  0  0
    5.2234    6.8011   21.7984 C   0  0  0  0  0  0  0  0  0  0  0  0
    4.5089    7.9732   21.6505 O   0  0  0  0  0  0  0  0  0  0  0  0
    6.2717    6.6121   20.7334 C   0  0  0  0  0  0  0  0  0  0  0  0
    5.7682    5.6393   19.6846 C   0  0  0  0  0  0  0  0  0  0  0  0
    5.1477    8.6777   21.3628 H   0  0  0  0  0  0  0  0  0  0  0  0
    2.9251    5.2235   14.7454 C   0  0  0  0  0  0  0  0  0  0  0  0
    1.7219    5.7652   14.3710 C   0  0  0  0  0  0  0  0  0  0  0  0
    1.4326    5.9864   13.0440 C   0  0  0  0  0  0  0  0  0  0  0  0
    2.3594    5.6599   12.1037 C   0  0  0  0  0  0  0  0  0  0  0  0
    3.5779    5.1145   12.4398 C   0  0  0  0  0  0  0  0  0  0  0  0
    3.8579    4.8975   13.7598 C   0  0  0  0  0  0  0  0  0  0  0  0
    2.1061    5.8827   10.6330 C   0  0  0  0  0  0  0  0  0  0  0  0
    3.0787    6.7862    9.9782 C   0  0  0  0  0  0  0  0  0  0  0  0
    1.6938    7.2720   10.3101 C   0  0  0  0  0  0  0  0  0  0  0  0
    1.5314    4.7505    9.9913 N   0  0  0  0  0  0  0  0  0  0  0  0
    0.4070    4.1552   10.6204 C   0  0  0  0  0  0  0  0  0  0  0  0
    0.3156    2.7010   10.2277 C   0  0  0  0  0  0  0  0  0  0  0  0
    1.5164    2.0244   10.5921 N   0  0  0  0  0  0  0  0  0  0  0  0
    1.6417    1.9554   12.0183 C   0  0  0  0  0  0  0  0  0  0  0  0
    2.7144    2.6086   10.0393 C   0  0  0  0  0  0  0  0  0  0  0  0
    2.4089    3.8879    9.2817 C   0  0  0  0  0  0  0  0  0  0  0  0
    3.8308    0.5516   19.3625 N   0  0  0  0  0  0  0  0  0  0  0  0
    4.2804   -0.3585   19.0569 H   0  0  0  0  0  0  0  0  0  0  0  0
    3.4138    0.6076   20.7389 C   0  0  0  0  0  0  0  0  0  0  0  0
    4.6125    0.5159   21.6397 C   0  0  0  0  0  0  0  0  0  0  0  0
    6.2201    2.3502   21.8144 C   0  0  0  0  0  0  0  0  0  0  0  0
    4.8479    1.8907   22.2742 C   0  0  0  0  0  0  0  0  0  0  0  0
 38 39  1  0  0  0
 39 37  1  0  0  0
 37 36  1  0  0  0
 36 34  1  0  0  0
 34  1  1  0  0  0
  1  2  2  0  0  0
  2  3  1  0  0  0
  3  4  2  0  0  0
  4  5  1  0  0  0
  5  6  2  0  0  0
  6  7  1  0  0  0
  7 10  1  0  0  0
 10 11  1  0  0  0
 11 12  1  0  0  0
 12 13  1  0  0  0
 13 14  1  0  0  0
 13 15  1  0  0  0
 15 16  1  0  0  0
  7  8  1  0  0  0
  8  9  2  0  0  0
  5 18  1  0  0  0
 18 19  2  0  0  0
 19 20  1  0  0  0
 20 21  2  0  0  0
 21 22  1  0  0  0
 22 23  2  0  0  0
 21 24  1  0  0  0
 24 25  1  0  0  0
 25 26  1  0  0  0
 24 27  1  0  0  0
 27 28  1  0  0  0
 28 29  1  0  0  0
 29 30  1  0  0  0
 30 31  1  0  0  0
 30 32  1  0  0  0
 32 33  1  0  0  0
  9  1  1  0  0  0
 23 18  1  0  0  0
 26 24  1  0  0  0
 33 27  1  0  0  0
  8  4  1  0  0  0
 16 10  1  0  0  0
 34 35  1  0  0  0
 14 17  1  0  0  0
M  END
> <minimizedAffinity>
-7.74423

> <CNNscore>
0.3977415264

> <CNNaffinity>
7.1424446106

> <CNN_VS>
2.8408467770

> <CNNaffinity_variance>
0.5918225050

$$$$
[H]O[C@]1([H])C([H])([H])C([H])([H])[C@@]([H])(n2c([H])c(-c3c([H])c([H])c(C4(N5C([H])([H])C([H])([H])N(C([H])([H])[H])C([H])([H])C5([H])[H])C([H])([H])C4([H])[H])c([H])c3[H])c3c([H])nc(N([H])C([H])([H])C([H])([H])C([H])([H])C([H])([H])[H])nc32)C([H])([H])C1([H])[H]


 39 44  0  0  0  0  0  0  0  0999 V2000
    3.5862    1.6713   17.8312 C   0  0  0  0  0  0  0  0  0  0  0  0
    3.3607    1.3512   16.5472 N   0  0  0  0  0  0  0  0  0  0  0  0
    3.3672    2.2261   15.5337 C   0  0  0  0  0  0  0  0  0  0  0  0
    3.6266    3.5590   15.8390 C   0  0  0  0  0  0  0  0  0  0  0  0
    3.7095    4.7069   15.0945 C   0  0  0  0  0  0  0  0  0  0  0  0
    3.9940    5.7324   15.9749 C   0  0  0  0  0  0  0  0  0  0  0  0
    4.0763    5.2043   17.2041 N   0  0  0  0  0  0  0  0  0  0  0  0
    3.8548    3.8624   17.1612 C   0  0  0  0  0  0  0  0  0  0  0  0
    3.8443    2.9731   18.1618 N   0  0  0  0  0  0  0  0  0  0  0  0
    4.3503    5.9569   18.3971 C   0  0  0  0  0  0  0  0  0  0  0  0
    5.7219    5.7106   18.9750 C   0  0  0  0  0  0  0  0  0  0  0  0
    6.1495    6.8482   19.8957 C   0  0  0  0  0  0  0  0  0  0  0  0
    4.9555    7.5799   20.4575 C   0  0  0  0  0  0  0  0  0  0  0  0
    4.2063    6.8184   21.3321 O   0  0  0  0  0  0  0  0  0  0  0  0
    4.1259    8.2222   19.3766 C   0  0  0  0  0  0  0  0  0  0  0  0
    4.2603    7.4325   18.0890 C   0  0  0  0  0  0  0  0  0  0  0  0
    3.3537    7.3022   21.4940 H   0  0  0  0  0  0  0  0  0  0  0  0
    3.5204    4.8019   13.6553 C   0  0  0  0  0  0  0  0  0  0  0  0
    4.2132    4.0445   12.7455 C   0  0  0  0  0  0  0  0  0  0  0  0
    3.9837    4.1823   11.3957 C   0  0  0  0  0  0  0  0  0  0  0  0
    3.0566    5.0832   10.9730 C   0  0  0  0  0  0  0  0  0  0  0  0
    2.3413    5.8614   11.8550 C   0  0  0  0  0  0  0  0  0  0  0  0
    2.5749    5.7189   13.1940 C   0  0  0  0  0  0  0  0  0  0  0  0
    2.7541    5.2781    9.5077 C   0  0  0  0  0  0  0  0  0  0  0  0
    1.3106    5.3563    9.1895 C   0  0  0  0  0  0  0  0  0  0  0  0
    2.0901    4.1065    8.8823 C   0  0  0  0  0  0  0  0  0  0  0  0
    3.7489    6.0384    8.8322 N   0  0  0  0  0  0  0  0  0  0  0  0
    4.8959    5.3379    8.3761 C   0  0  0  0  0  0  0  0  0  0  0  0
    6.0653    6.2867    8.2778 C   0  0  0  0  0  0  0  0  0  0  0  0
    6.3104    6.8865    9.5477 N   0  0  0  0  0  0  0  0  0  0  0  0
    6.7801    5.9079   10.4838 C   0  0  0  0  0  0  0  0  0  0  0  0
    5.1694    7.5688   10.1087 C   0  0  0  0  0  0  0  0  0  0  0  0
    3.9340    7.3844    9.2463 C   0  0  0  0  0  0  0  0  0  0  0  0
    3.5658    0.7288   18.8871 N   0  0  0  0  0  0  0  0  0  0  0  0
    3.1553   -0.2370   18.7360 H   0  0  0  0  0  0  0  0  0  0  0  0
    4.0794    0.9866   20.2067 C   0  0  0  0  0  0  0  0  0  0  0  0
    3.1081    0.4887   21.2388 C   0  0  0  0  0  0  0  0  0  0  0  0
    4.0077    2.4971   22.3050 C   0  0  0  0  0  0  0  0  0  0  0  0
    3.4834    1.1014   22.5924 C   0  0  0  0  0  0  0  0  0  0  0  0
 38 39  1  0  0  0
 39 37  1  0  0  0
 37 36  1  0  0  0
 36 34  1  0  0  0
 34  1  1  0  0  0
  1  2  2  0  0  0
  2  3  1  0  0  0
  3  4  2  0  0  0
  4  5  1  0  0  0
  5  6  2  0  0  0
  6  7  1  0  0  0
  7 10  1  0  0  0
 10 11  1  0  0  0
 11 12  1  0  0  0
 12 13  1  0  0  0
 13 14  1  0  0  0
 13 15  1  0  0  0
 15 16  1  0  0  0
  7  8  1  0  0  0
  8  9  2  0  0  0
  5 18  1  0  0  0
 18 19  2  0  0  0
 19 20  1  0  0  0
 20 21  2  0  0  0
 21 22  1  0  0  0
 22 23  2  0  0  0
 21 24  1  0  0  0
 24 25  1  0  0  0
 25 26  1  0  0  0
 24 27  1  0  0  0
 27 28  1  0  0  0
 28 29  1  0  0  0
 29 30  1  0  0  0
 30 31  1  0  0  0
 30 32  1  0  0  0
 32 33  1  0  0  0
  9  1  1  0  0  0
 23 18  1  0  0  0
 26 24  1  0  0  0
 33 27  1  0  0  0
  8  4  1  0  0  0
 16 10  1  0  0  0
 34 35  1  0  0  0
 14 17  1  0  0  0
M  END
> <minimizedAffinity>
-7.75129

> <CNNscore>
0.3525617719

> <CNNaffinity>
6.9332876205

> <CNN_VS>
2.4444122314

> <CNNaffinity_variance>
0.2891203463

$$$$
[H]O[C@]1([H])C([H])([H])C([H])([H])[C@@]([H])(n2c([H])c(-c3c([H])c([H])c(C4(N5C([H])([H])C([H])([H])N(C([H])([H])[H])C([H])([H])C5([H])[H])C([H])([H])C4([H])[H])c([H])c3[H])c3c([H])nc(N([H])C([H])([H])C([H])([H])C([H])([H])C([H])([H])[H])nc32)C([H])([H])C1([H])[H]


 39 44  0  0  0  0  0  0  0  0999 V2000
    4.3765    1.8946   20.1370 C   0  0  0  0  0  0  0  0  0  0  0  0
    4.0627    1.1229   19.0845 N   0  0  0  0  0  0  0  0  0  0  0  0
    3.7880    1.5853   17.8584 C   0  0  0  0  0  0  0  0  0  0  0  0
    3.8326    2.9634   17.6681 C   0  0  0  0  0  0  0  0  0  0  0  0
    3.6142    3.7826   16.5911 C   0  0  0  0  0  0  0  0  0  0  0  0
    3.8081    5.0776   17.0306 C   0  0  0  0  0  0  0  0  0  0  0  0
    4.1313    5.0236   18.3303 N   0  0  0  0  0  0  0  0  0  0  0  0
    4.1566    3.7332   18.7610 C   0  0  0  0  0  0  0  0  0  0  0  0
    4.4285    3.2523   19.9806 N   0  0  0  0  0  0  0  0  0  0  0  0
    4.4021    6.1720   19.1505 C   0  0  0  0  0  0  0  0  0  0  0  0
    5.8346    6.2696   19.6137 C   0  0  0  0  0  0  0  0  0  0  0  0
    6.1884    7.6931   20.0297 C   0  0  0  0  0  0  0  0  0  0  0  0
    4.9604    8.4678   20.4401 C   0  0  0  0  0  0  0  0  0  0  0  0
    4.3819    8.0034   21.6046 O   0  0  0  0  0  0  0  0  0  0  0  0
    3.9758    8.6081   19.3088 C   0  0  0  0  0  0  0  0  0  0  0  0
    4.1062    7.4278   18.3657 C   0  0  0  0  0  0  0  0  0  0  0  0
    3.4912    8.4356   21.6882 H   0  0  0  0  0  0  0  0  0  0  0  0
    3.2414    3.3475   15.2540 C   0  0  0  0  0  0  0  0  0  0  0  0
    2.3805    2.3093   15.0043 C   0  0  0  0  0  0  0  0  0  0  0  0
    2.0674    1.9502   13.7134 C   0  0  0  0  0  0  0  0  0  0  0  0
    2.6249    2.6411   12.6831 C   0  0  0  0  0  0  0  0  0  0  0  0
    3.4931    3.6886   12.8931 C   0  0  0  0  0  0  0  0  0  0  0  0
    3.7994    4.0393   14.1780 C   0  0  0  0  0  0  0  0  0  0  0  0
    2.3182    2.3010   11.2454 C   0  0  0  0  0  0  0  0  0  0  0  0
    3.1554    1.2165   10.6847 C   0  0  0  0  0  0  0  0  0  0  0  0
    3.4173    2.6501   10.3100 C   0  0  0  0  0  0  0  0  0  0  0  0
    0.9479    2.4870   10.9114 N   0  0  0  0  0  0  0  0  0  0  0  0
    0.4287    1.6931    9.8557 C   0  0  0  0  0  0  0  0  0  0  0  0
   -0.7444    2.3977    9.2195 C   0  0  0  0  0  0  0  0  0  0  0  0
   -0.3383    3.6767    8.7381 N   0  0  0  0  0  0  0  0  0  0  0  0
    0.5733    3.5349    7.6411 C   0  0  0  0  0  0  0  0  0  0  0  0
    0.2581    4.5236    9.7427 C   0  0  0  0  0  0  0  0  0  0  0  0
    0.4109    3.7930   11.0644 C   0  0  0  0  0  0  0  0  0  0  0  0
    4.6550    1.3821   21.4268 N   0  0  0  0  0  0  0  0  0  0  0  0
    5.5262    0.8025   21.5969 H   0  0  0  0  0  0  0  0  0  0  0  0
    3.8147    1.5935   22.5761 C   0  0  0  0  0  0  0  0  0  0  0  0
    4.4868    2.5360   23.5335 C   0  0  0  0  0  0  0  0  0  0  0  0
    4.5490    4.9111   22.9553 C   0  0  0  0  0  0  0  0  0  0  0  0
    3.6778    3.8365   23.5810 C   0  0  0  0  0  0  0  0  0  0  0  0
 38 39  1  0  0  0
 39 37  1  0  0  0
 37 36  1  0  0  0
 36 34  1  0  0  0
 34  1  1  0  0  0
  1  2  2  0  0  0
  2  3  1  0  0  0
  3  4  2  0  0  0
  4  5  1  0  0  0
  5  6  2  0  0  0
  6  7  1  0  0  0
  7 10  1  0  0  0
 10 11  1  0  0  0
 11 12  1  0  0  0
 12 13  1  0  0  0
 13 14  1  0  0  0
 13 15  1  0  0  0
 15 16  1  0  0  0
  7  8  1  0  0  0
  8  9  2  0  0  0
  5 18  1  0  0  0
 18 19  2  0  0  0
 19 20  1  0  0  0
 20 21  2  0  0  0
 21 22  1  0  0  0
 22 23  2  0  0  0
 21 24  1  0  0  0
 24 25  1  0  0  0
 25 26  1  0  0  0
 24 27  1  0  0  0
 27 28  1  0  0  0
 28 29  1  0  0  0
 29 30  1  0  0  0
 30 31  1  0  0  0
 30 32  1  0  0  0
 32 33  1  0  0  0
  9  1  1  0  0  0
 23 18  1  0  0  0
 26 24  1  0  0  0
 33 27  1  0  0  0
  8  4  1  0  0  0
 16 10  1  0  0  0
 34 35  1  0  0  0
 14 17  1  0  0  0
M  END
> <minimizedAffinity>
-9.13876

> <CNNscore>
0.3449862003

> <CNNaffinity>
7.1186208725

> <CNN_VS>
2.4558260441

> <CNNaffinity_variance>
0.4686071277

$$$$
[H]O[C@]1([H])C([H])([H])C([H])([H])[C@@]([H])(n2c([H])c(-c3c([H])c([H])c(C4(N5C([H])([H])C([H])([H])N(C([H])([H])[H])C([H])([H])C5([H])[H])C([H])([H])C4([H])[H])c([H])c3[H])c3c([H])nc(N([H])C([H])([H])C([H])([H])C([H])([H])C([H])([H])[H])nc32)C([H])([H])C1([H])[H]


 39 44  0  0  0  0  0  0  0  0999 V2000
    1.4949    2.3840   13.1446 C   0  0  0  0  0  0  0  0  0  0  0  0
    1.7063    1.4925   14.1255 N   0  0  0  0  0  0  0  0  0  0  0  0
    2.3683    1.7535   15.2597 C   0  0  0  0  0  0  0  0  0  0  0  0
    2.8699    3.0409   15.4274 C   0  0  0  0  0  0  0  0  0  0  0  0
    3.5818    3.6627   16.4200 C   0  0  0  0  0  0  0  0  0  0  0  0
    3.7925    4.9627   16.0037 C   0  0  0  0  0  0  0  0  0  0  0  0
    3.2213    5.1036   14.7994 N   0  0  0  0  0  0  0  0  0  0  0  0
    2.6406    3.9366   14.4090 C   0  0  0  0  0  0  0  0  0  0  0  0
    1.9757    3.6571   13.2811 N   0  0  0  0  0  0  0  0  0  0  0  0
    3.2329    6.3167   14.0294 C   0  0  0  0  0  0  0  0  0  0  0  0
    1.8776    6.9636   13.8853 C   0  0  0  0  0  0  0  0  0  0  0  0
    2.0019    8.4388   13.5210 C   0  0  0  0  0  0  0  0  0  0  0  0
    3.3145    8.7277   12.8353 C   0  0  0  0  0  0  0  0  0  0  0  0
    3.4193    8.1516   11.5849 O   0  0  0  0  0  0  0  0  0  0  0  0
    4.4942    8.4277   13.7225 C   0  0  0  0  0  0  0  0  0  0  0  0
    4.1339    7.3259   14.7003 C   0  0  0  0  0  0  0  0  0  0  0  0
    4.3679    8.2283   11.2997 H   0  0  0  0  0  0  0  0  0  0  0  0
    4.0264    3.0468   17.6606 C   0  0  0  0  0  0  0  0  0  0  0  0
    3.5588    1.8430   18.1225 C   0  0  0  0  0  0  0  0  0  0  0  0
    4.0242    1.3144   19.3047 C   0  0  0  0  0  0  0  0  0  0  0  0
    4.9584    2.0039   20.0128 C   0  0  0  0  0  0  0  0  0  0  0  0
    5.4522    3.2147   19.5823 C   0  0  0  0  0  0  0  0  0  0  0  0
    4.9850    3.7333   18.4073 C   0  0  0  0  0  0  0  0  0  0  0  0
    5.5133    1.4764   21.3130 C   0  0  0  0  0  0  0  0  0  0  0  0
    6.8530    0.8576   21.1963 C   0  0  0  0  0  0  0  0  0  0  0  0
    5.6283   -0.0035   21.3472 C   0  0  0  0  0  0  0  0  0  0  0  0
    5.0940    2.2327   22.4426 N   0  0  0  0  0  0  0  0  0  0  0  0
    3.7187    2.5764   22.5133 C   0  0  0  0  0  0  0  0  0  0  0  0
    3.5493    3.8276   23.3398 C   0  0  0  0  0  0  0  0  0  0  0  0
    4.3080    4.8913   22.7695 N   0  0  0  0  0  0  0  0  0  0  0  0
    3.7597    5.2773   21.5027 C   0  0  0  0  0  0  0  0  0  0  0  0
    5.7110    4.5952   22.6075 C   0  0  0  0  0  0  0  0  0  0  0  0
    6.0222    3.1592   22.9881 C   0  0  0  0  0  0  0  0  0  0  0  0
    0.7984    2.0814   11.9499 N   0  0  0  0  0  0  0  0  0  0  0  0
   -0.2009    1.7294   11.9862 H   0  0  0  0  0  0  0  0  0  0  0  0
    1.3616    2.2191   10.6325 C   0  0  0  0  0  0  0  0  0  0  0  0
    1.5722    0.8623   10.0230 C   0  0  0  0  0  0  0  0  0  0  0  0
    0.3878   -1.1077    9.1890 C   0  0  0  0  0  0  0  0  0  0  0  0
    0.2641    0.0722   10.1366 C   0  0  0  0  0  0  0  0  0  0  0  0
 38 39  1  0  0  0
 39 37  1  0  0  0
 37 36  1  0  0  0
 36 34  1  0  0  0
 34  1  1  0  0  0
  1  2  2  0  0  0
  2  3  1  0  0  0
  3  4  2  0  0  0
  4  5  1  0  0  0
  5  6  2  0  0  0
  6  7  1  0  0  0
  7 10  1  0  0  0
 10 11  1  0  0  0
 11 12  1  0  0  0
 12 13  1  0  0  0
 13 14  1  0  0  0
 13 15  1  0  0  0
 15 16  1  0  0  0
  7  8  1  0  0  0
  8  9  2  0  0  0
  5 18  1  0  0  0
 18 19  2  0  0  0
 19 20  1  0  0  0
 20 21  2  0  0  0
 21 22  1  0  0  0
 22 23  2  0  0  0
 21 24  1  0  0  0
 24 25  1  0  0  0
 25 26  1  0  0  0
 24 27  1  0  0  0
 27 28  1  0  0  0
 28 29  1  0  0  0
 29 30  1  0  0  0
 30 31  1  0  0  0
 30 32  1  0  0  0
 32 33  1  0  0  0
  9  1  1  0  0  0
 23 18  1  0  0  0
 26 24  1  0  0  0
 33 27  1  0  0  0
  8  4  1  0  0  0
 16 10  1  0  0  0
 34 35  1  0  0  0
 14 17  1  0  0  0
M  END
> <minimizedAffinity>
-8.30521

> <CNNscore>
0.3389834166

> <CNNaffinity>
6.9955797195

> <CNN_VS>
2.3713855743

> <CNNaffinity_variance>
0.2586908340

$$$$
[H]O[C@]1([H])C([H])([H])C([H])([H])[C@@]([H])(n2c([H])c(-c3c([H])c([H])c(C4(N5C([H])([H])C([H])([H])N(C([H])([H])[H])C([H])([H])C5([H])[H])C([H])([H])C4([H])[H])c([H])c3[H])c3c([H])nc(N([H])C([H])([H])C([H])([H])C([H])([H])C([H])([H])[H])nc32)C([H])([H])C1([H])[H]


 39 44  0  0  0  0  0  0  0  0999 V2000
    4.6848    1.5747   19.8076 C   0  0  0  0  0  0  0  0  0  0  0  0
    3.9985    1.1790   18.7241 N   0  0  0  0  0  0  0  0  0  0  0  0
    3.7393    1.9545   17.6638 C   0  0  0  0  0  0  0  0  0  0  0  0
    4.2177    3.2612   17.6932 C   0  0  0  0  0  0  0  0  0  0  0  0
    4.1496    4.3190   16.8241 C   0  0  0  0  0  0  0  0  0  0  0  0
    4.8204    5.3683   17.4214 C   0  0  0  0  0  0  0  0  0  0  0  0
    5.2710    4.9416   18.6094 N   0  0  0  0  0  0  0  0  0  0  0  0
    4.9181    3.6434   18.8136 C   0  0  0  0  0  0  0  0  0  0  0  0
    5.1676    2.8530   19.8650 N   0  0  0  0  0  0  0  0  0  0  0  0
    6.0134    5.7498   19.5369 C   0  0  0  0  0  0  0  0  0  0  0  0
    6.7877    6.8709   18.8889 C   0  0  0  0  0  0  0  0  0  0  0  0
    7.1314    7.9632   19.8955 C   0  0  0  0  0  0  0  0  0  0  0  0
    7.1632    7.4233   21.3041 C   0  0  0  0  0  0  0  0  0  0  0  0
    8.1997    6.5397   21.5302 O   0  0  0  0  0  0  0  0  0  0  0  0
    5.8243    6.8825   21.7329 C   0  0  0  0  0  0  0  0  0  0  0  0
    5.0603    6.3841   20.5215 C   0  0  0  0  0  0  0  0  0  0  0  0
    8.0286    6.0961   22.4027 H   0  0  0  0  0  0  0  0  0  0  0  0
    3.4843    4.3147   15.5304 C   0  0  0  0  0  0  0  0  0  0  0  0
    3.8378    3.4864   14.4960 C   0  0  0  0  0  0  0  0  0  0  0  0
    3.1641    3.5315   13.2970 C   0  0  0  0  0  0  0  0  0  0  0  0
    2.1380    4.4120   13.1499 C   0  0  0  0  0  0  0  0  0  0  0  0
    1.7535    5.2594   14.1645 C   0  0  0  0  0  0  0  0  0  0  0  0
    2.4276    5.2087   15.3523 C   0  0  0  0  0  0  0  0  0  0  0  0
    1.3559    4.5069   11.8631 C   0  0  0  0  0  0  0  0  0  0  0  0
    1.4493    3.3049   11.0042 C   0  0  0  0  0  0  0  0  0  0  0  0
    2.2154    4.5515   10.6532 C   0  0  0  0  0  0  0  0  0  0  0  0
    0.1766    5.2929   11.9873 N   0  0  0  0  0  0  0  0  0  0  0  0
   -1.0230    4.6077   12.3123 C   0  0  0  0  0  0  0  0  0  0  0  0
   -2.2091    5.3906   11.8046 C   0  0  0  0  0  0  0  0  0  0  0  0
   -2.0990    5.5775   10.3956 N   0  0  0  0  0  0  0  0  0  0  0  0
   -2.2344    4.3260    9.7102 C   0  0  0  0  0  0  0  0  0  0  0  0
   -0.8737    6.2155    9.9785 C   0  0  0  0  0  0  0  0  0  0  0  0
    0.0639    6.4360   11.1517 C   0  0  0  0  0  0  0  0  0  0  0  0
    4.9390    0.7379   20.9207 N   0  0  0  0  0  0  0  0  0  0  0  0
    5.9237    0.4036   21.1265 H   0  0  0  0  0  0  0  0  0  0  0  0
    3.9245    0.2845   21.8356 C   0  0  0  0  0  0  0  0  0  0  0  0
    3.3046    1.4610   22.5344 C   0  0  0  0  0  0  0  0  0  0  0  0
    4.0509    3.6028   23.4484 C   0  0  0  0  0  0  0  0  0  0  0  0
    4.3725    2.1192   23.4145 C   0  0  0  0  0  0  0  0  0  0  0  0
 38 39  1  0  0  0
 39 37  1  0  0  0
 37 36  1  0  0  0
 36 34  1  0  0  0
 34  1  1  0  0  0
  1  2  2  0  0  0
  2  3  1  0  0  0
  3  4  2  0  0  0
  4  5  1  0  0  0
  5  6  2  0  0  0
  6  7  1  0  0  0
  7 10  1  0  0  0
 10 11  1  0  0  0
 11 12  1  0  0  0
 12 13  1  0  0  0
 13 14  1  0  0  0
 13 15  1  0  0  0
 15 16  1  0  0  0
  7  8  1  0  0  0
  8  9  2  0  0  0
  5 18  1  0  0  0
 18 19  2  0  0  0
 19 20  1  0  0  0
 20 21  2  0  0  0
 21 22  1  0  0  0
 22 23  2  0  0  0
 21 24  1  0  0  0
 24 25  1  0  0  0
 25 26  1  0  0  0
 24 27  1  0  0  0
 27 28  1  0  0  0
 28 29  1  0  0  0
 29 30  1  0  0  0
 30 31  1  0  0  0
 30 32  1  0  0  0
 32 33  1  0  0  0
  9  1  1  0  0  0
 23 18  1  0  0  0
 26 24  1  0  0  0
 33 27  1  0  0  0
  8  4  1  0  0  0
 16 10  1  0  0  0
 34 35  1  0  0  0
 14 17  1  0  0  0
M  END
> <minimizedAffinity>
-8.37803

> <CNNscore>
0.2949373126

> <CNNaffinity>
6.9632616043

> <CNN_VS>
2.0537257195

> <CNNaffinity_variance>
0.4372934699

$$$$
[H]O[C@]1([H])C([H])([H])C([H])([H])[C@@]([H])(n2c([H])c(-c3c([H])c([H])c(C4(N5C([H])([H])C([H])([H])N(C([H])([H])[H])C([H])([H])C5([H])[H])C([H])([H])C4([H])[H])c([H])c3[H])c3c([H])nc(N([H])C([H])([H])C([H])([H])C([H])([H])C([H])([H])[H])nc32)C([H])([H])C1([H])[H]


 39 44  0  0  0  0  0  0  0  0999 V2000
    3.3856    1.4729   16.6083 C   0  0  0  0  0  0  0  0  0  0  0  0
    3.2074    1.3492   15.2836 N   0  0  0  0  0  0  0  0  0  0  0  0
    3.2334    2.3678   14.4151 C   0  0  0  0  0  0  0  0  0  0  0  0
    3.4616    3.6416   14.9277 C   0  0  0  0  0  0  0  0  0  0  0  0
    3.5507    4.8900   14.3689 C   0  0  0  0  0  0  0  0  0  0  0  0
    3.7900    5.7729   15.4039 C   0  0  0  0  0  0  0  0  0  0  0  0
    3.8402    5.0651   16.5410 N   0  0  0  0  0  0  0  0  0  0  0  0
    3.6414    3.7431   16.2876 C   0  0  0  0  0  0  0  0  0  0  0  0
    3.6121    2.7120   17.1411 N   0  0  0  0  0  0  0  0  0  0  0  0
    4.0629    5.6306   17.8431 C   0  0  0  0  0  0  0  0  0  0  0  0
    3.1121    5.1265   18.9004 C   0  0  0  0  0  0  0  0  0  0  0  0
    3.6734    5.3434   20.3013 C   0  0  0  0  0  0  0  0  0  0  0  0
    4.6708    6.4753   20.3255 C   0  0  0  0  0  0  0  0  0  0  0  0
    4.1040    7.7118   20.0890 O   0  0  0  0  0  0  0  0  0  0  0  0
    5.8636    6.1969   19.4487 C   0  0  0  0  0  0  0  0  0  0  0  0
    5.4587    5.2867   18.3053 C   0  0  0  0  0  0  0  0  0  0  0  0
    4.8451    8.3545   19.9316 H   0  0  0  0  0  0  0  0  0  0  0  0
    3.4077    5.2006   12.9550 C   0  0  0  0  0  0  0  0  0  0  0  0
    2.3320    5.8689   12.4280 C   0  0  0  0  0  0  0  0  0  0  0  0
    2.2601    6.1333   11.0796 C   0  0  0  0  0  0  0  0  0  0  0  0
    3.2740    5.7219   10.2719 C   0  0  0  0  0  0  0  0  0  0  0  0
    4.3699    5.0488   10.7630 C   0  0  0  0  0  0  0  0  0  0  0  0
    4.4341    4.7896   12.1033 C   0  0  0  0  0  0  0  0  0  0  0  0
    3.2583    5.9857    8.7863 C   0  0  0  0  0  0  0  0  0  0  0  0
    1.9042    6.0227    8.1892 C   0  0  0  0  0  0  0  0  0  0  0  0
    2.7918    4.8247    7.9867 C   0  0  0  0  0  0  0  0  0  0  0  0
    4.3271    6.8222    8.3599 N   0  0  0  0  0  0  0  0  0  0  0  0
    4.1996    8.2120    8.6180 C   0  0  0  0  0  0  0  0  0  0  0  0
    5.0148    8.9919    7.6156 C   0  0  0  0  0  0  0  0  0  0  0  0
    4.5828    8.6811    6.2930 N   0  0  0  0  0  0  0  0  0  0  0  0
    3.2560    9.1748    6.0683 C   0  0  0  0  0  0  0  0  0  0  0  0
    4.6249    7.2746    5.9733 C   0  0  0  0  0  0  0  0  0  0  0  0
    5.0209    6.4432    7.1799 C   0  0  0  0  0  0  0  0  0  0  0  0
    3.3453    0.3807   17.5079 N   0  0  0  0  0  0  0  0  0  0  0  0
    4.1562   -0.3001   17.5614 H   0  0  0  0  0  0  0  0  0  0  0  0
    2.2448    0.1078   18.3944 C   0  0  0  0  0  0  0  0  0  0  0  0
    2.7648   -0.2804   19.7493 C   0  0  0  0  0  0  0  0  0  0  0  0
    3.5514    0.7286   21.8332 C   0  0  0  0  0  0  0  0  0  0  0  0
    3.5478    0.9044   20.3251 C   0  0  0  0  0  0  0  0  0  0  0  0
 38 39  1  0  0  0
 39 37  1  0  0  0
 37 36  1  0  0  0
 36 34  1  0  0  0
 34  1  1  0  0  0
  1  2  2  0  0  0
  2  3  1  0  0  0
  3  4  2  0  0  0
  4  5  1  0  0  0
  5  6  2  0  0  0
  6  7  1  0  0  0
  7 10  1  0  0  0
 10 11  1  0  0  0
 11 12  1  0  0  0
 12 13  1  0  0  0
 13 14  1  0  0  0
 13 15  1  0  0  0
 15 16  1  0  0  0
  7  8  1  0  0  0
  8  9  2  0  0  0
  5 18  1  0  0  0
 18 19  2  0  0  0
 19 20  1  0  0  0
 20 21  2  0  0  0
 21 22  1  0  0  0
 22 23  2  0  0  0
 21 24  1  0  0  0
 24 25  1  0  0  0
 25 26  1  0  0  0
 24 27  1  0  0  0
 27 28  1  0  0  0
 28 29  1  0  0  0
 29 30  1  0  0  0
 30 31  1  0  0  0
 30 32  1  0  0  0
 32 33  1  0  0  0
  9  1  1  0  0  0
 23 18  1  0  0  0
 26 24  1  0  0  0
 33 27  1  0  0  0
  8  4  1  0  0  0
 16 10  1  0  0  0
 34 35  1  0  0  0
 14 17  1  0  0  0
M  END
> <minimizedAffinity>
-7.31509

> <CNNscore>
0.2701592743

> <CNNaffinity>
6.5697326660

> <CNN_VS>
1.7748742104

> <CNNaffinity_variance>
0.0833441839

$$$$
[H]O[C@]1([H])C([H])([H])C([H])([H])[C@@]([H])(N([H])c2nc(N([H])C([H])([H])C([H])([H])C([H])([H])C([H])([H])[H])nc([H])c2C(=O)N([H])C([H])([H])c2c([H])c([H])c([H])c3c([H])c([H])c([H])c([H])c23)C([H])([H])C1([H])[H]


 37 40  0  0  0  0  0  0  0  0999 V2000
    2.8819    0.2075   18.3546 C   0  0  0  0  0  0  0  0  0  0  0  0
    2.3188   -0.0699   17.1645 N   0  0  0  0  0  0  0  0  0  0  0  0
    2.4301    0.7329   16.1008 C   0  0  0  0  0  0  0  0  0  0  0  0
    3.1702    1.9151   16.2453 C   0  0  0  0  0  0  0  0  0  0  0  0
    3.7580    2.2311   17.4423 C   0  0  0  0  0  0  0  0  0  0  0  0
    3.5743    1.3288   18.4632 N   0  0  0  0  0  0  0  0  0  0  0  0
    3.2827    2.7663   15.0883 C   0  0  0  0  0  0  0  0  0  0  0  0
    4.2537    3.5620   14.9362 O   0  0  0  0  0  0  0  0  0  0  0  0
    2.3353    2.8007   14.0202 N   0  0  0  0  0  0  0  0  0  0  0  0
    1.5104    2.1848   14.0787 H   0  0  0  0  0  0  0  0  0  0  0  0
    2.4925    3.6588   12.8754 C   0  0  0  0  0  0  0  0  0  0  0  0
    1.5707    4.7943   12.7919 C   0  0  0  0  0  0  0  0  0  0  0  0
    0.2142    4.6708   12.6185 C   0  0  0  0  0  0  0  0  0  0  0  0
   -0.6319    5.7727   12.5675 C   0  0  0  0  0  0  0  0  0  0  0  0
   -0.0880    7.0275   12.6962 C   0  0  0  0  0  0  0  0  0  0  0  0
    1.2787    7.1514   12.8718 C   0  0  0  0  0  0  0  0  0  0  0  0
    1.7997    8.4462   13.0011 C   0  0  0  0  0  0  0  0  0  0  0  0
    3.1525    8.6280   13.1789 C   0  0  0  0  0  0  0  0  0  0  0  0
    3.9672    7.5293   13.2260 C   0  0  0  0  0  0  0  0  0  0  0  0
    3.4935    6.2356   13.1026 C   0  0  0  0  0  0  0  0  0  0  0  0
    2.1354    6.0737   12.9250 C   0  0  0  0  0  0  0  0  0  0  0  0
    2.7126   -0.7091   19.4423 N   0  0  0  0  0  0  0  0  0  0  0  0
    2.6104   -1.7324   19.2526 H   0  0  0  0  0  0  0  0  0  0  0  0
    2.6896   -0.1712   20.7832 C   0  0  0  0  0  0  0  0  0  0  0  0
    4.1040   -0.2178   21.3637 C   0  0  0  0  0  0  0  0  0  0  0  0
    5.9063    1.4234   21.3110 C   0  0  0  0  0  0  0  0  0  0  0  0
    4.5116    1.1540   21.8322 C   0  0  0  0  0  0  0  0  0  0  0  0
    4.5265    3.3889   17.7241 N   0  0  0  0  0  0  0  0  0  0  0  0
    5.3298    3.6545   17.1523 H   0  0  0  0  0  0  0  0  0  0  0  0
    4.1745    4.2418   18.8614 C   0  0  0  0  0  0  0  0  0  0  0  0
    5.3294    5.0448   19.3613 C   0  0  0  0  0  0  0  0  0  0  0  0
    4.9073    6.4365   19.8457 C   0  0  0  0  0  0  0  0  0  0  0  0
    4.3173    7.2672   18.7551 C   0  0  0  0  0  0  0  0  0  0  0  0
    3.1666    7.9498   19.2086 O   0  0  0  0  0  0  0  0  0  0  0  0
    3.8118    6.3238   17.6613 C   0  0  0  0  0  0  0  0  0  0  0  0
    3.0919    5.1963   18.4134 C   0  0  0  0  0  0  0  0  0  0  0  0
    2.9421    7.6924   20.1421 H   0  0  0  0  0  0  0  0  0  0  0  0
 26 27  1  0  0  0
 27 25  1  0  0  0
 25 24  1  0  0  0
 24 22  1  0  0  0
 22  1  1  0  0  0
  1  2  2  0  0  0
  2  3  1  0  0  0
  3  4  2  0  0  0
  4  7  1  0  0  0
  7  8  2  0  0  0
  7  9  1  0  0  0
  9 11  1  0  0  0
 11 12  1  0  0  0
 12 13  2  0  0  0
 13 14  1  0  0  0
 14 15  2  0  0  0
 15 16  1  0  0  0
 16 17  2  0  0  0
 17 18  1  0  0  0
 18 19  2  0  0  0
 19 20  1  0  0  0
 20 21  2  0  0  0
  4  5  1  0  0  0
  5 28  1  0  0  0
 28 30  1  0  0  0
 30 31  1  0  0  0
 31 32  1  0  0  0
 32 33  1  0  0  0
 33 34  1  0  0  0
 33 35  1  0  0  0
 35 36  1  0  0  0
  5  6  2  0  0  0
  6  1  1  0  0  0
 21 12  1  0  0  0
 36 30  1  0  0  0
 21 16  1  0  0  0
 22 23  1  0  0  0
  9 10  1  0  0  0
 28 29  1  0  0  0
 34 37  1  0  0  0
M  END
> <minimizedAffinity>
-8.26964

> <CNNscore>
0.8395997882

> <CNNaffinity>
6.9149847031

> <CNN_VS>
5.8058195114

> <CNNaffinity_variance>
0.3416031301

$$$$
[H]O[C@]1([H])C([H])([H])C([H])([H])[C@@]([H])(N([H])c2nc(N([H])C([H])([H])C([H])([H])C([H])([H])C([H])([H])[H])nc([H])c2C(=O)N([H])C([H])([H])c2c([H])c([H])c([H])c3c([H])c([H])c([H])c([H])c23)C([H])([H])C1([H])[H]


 37 40  0  0  0  0  0  0  0  0999 V2000
    3.0234    0.1257   19.0182 C   0  0  0  0  0  0  0  0  0  0  0  0
    2.1881   -0.3408   18.0722 N   0  0  0  0  0  0  0  0  0  0  0  0
    2.0536    0.2326   16.8717 C   0  0  0  0  0  0  0  0  0  0  0  0
    2.8242    1.3719   16.5983 C   0  0  0  0  0  0  0  0  0  0  0  0
    3.6857    1.8760   17.5374 C   0  0  0  0  0  0  0  0  0  0  0  0
    3.7381    1.2014   18.7342 N   0  0  0  0  0  0  0  0  0  0  0  0
    2.6693    1.9746   15.2989 C   0  0  0  0  0  0  0  0  0  0  0  0
    1.5729    1.9337   14.6700 O   0  0  0  0  0  0  0  0  0  0  0  0
    3.7090    2.6629   14.6026 N   0  0  0  0  0  0  0  0  0  0  0  0
    4.6358    2.7291   15.0498 H   0  0  0  0  0  0  0  0  0  0  0  0
    3.5078    3.2615   13.3092 C   0  0  0  0  0  0  0  0  0  0  0  0
    3.5061    4.7259   13.2720 C   0  0  0  0  0  0  0  0  0  0  0  0
    2.7706    5.5146   14.1220 C   0  0  0  0  0  0  0  0  0  0  0  0
    2.8134    6.9032   14.0710 C   0  0  0  0  0  0  0  0  0  0  0  0
    3.6215    7.5037   13.1365 C   0  0  0  0  0  0  0  0  0  0  0  0
    4.3629    6.7085   12.2808 C   0  0  0  0  0  0  0  0  0  0  0  0
    5.1778    7.3542   11.3407 C   0  0  0  0  0  0  0  0  0  0  0  0
    5.9378    6.6121   10.4652 C   0  0  0  0  0  0  0  0  0  0  0  0
    5.8804    5.2463   10.5328 C   0  0  0  0  0  0  0  0  0  0  0  0
    5.0899    4.5707   11.4449 C   0  0  0  0  0  0  0  0  0  0  0  0
    4.3356    5.3314   12.3136 C   0  0  0  0  0  0  0  0  0  0  0  0
    3.1056   -0.5508   20.2782 N   0  0  0  0  0  0  0  0  0  0  0  0
    2.5198   -1.3987   20.4555 H   0  0  0  0  0  0  0  0  0  0  0  0
    4.0125   -0.0232   21.2717 C   0  0  0  0  0  0  0  0  0  0  0  0
    3.2348    0.8870   22.2237 C   0  0  0  0  0  0  0  0  0  0  0  0
    3.9972    3.1794   22.5527 C   0  0  0  0  0  0  0  0  0  0  0  0
    4.1911    1.7487   23.0051 C   0  0  0  0  0  0  0  0  0  0  0  0
    4.5162    3.0162   17.3932 N   0  0  0  0  0  0  0  0  0  0  0  0
    5.5051    2.9351   17.1518 H   0  0  0  0  0  0  0  0  0  0  0  0
    3.9598    4.3564   17.5906 C   0  0  0  0  0  0  0  0  0  0  0  0
    3.7423    4.6861   19.0302 C   0  0  0  0  0  0  0  0  0  0  0  0
    4.0170    6.1621   19.3396 C   0  0  0  0  0  0  0  0  0  0  0  0
    5.4348    6.5475   19.0768 C   0  0  0  0  0  0  0  0  0  0  0  0
    5.5034    7.7945   18.4167 O   0  0  0  0  0  0  0  0  0  0  0  0
    6.0231    5.5420   18.0844 C   0  0  0  0  0  0  0  0  0  0  0  0
    4.9359    5.3576   17.0171 C   0  0  0  0  0  0  0  0  0  0  0  0
    4.5952    8.1365   18.2017 H   0  0  0  0  0  0  0  0  0  0  0  0
 26 27  1  0  0  0
 27 25  1  0  0  0
 25 24  1  0  0  0
 24 22  1  0  0  0
 22  1  1  0  0  0
  1  2  2  0  0  0
  2  3  1  0  0  0
  3  4  2  0  0  0
  4  7  1  0  0  0
  7  8  2  0  0  0
  7  9  1  0  0  0
  9 11  1  0  0  0
 11 12  1  0  0  0
 12 13  2  0  0  0
 13 14  1  0  0  0
 14 15  2  0  0  0
 15 16  1  0  0  0
 16 17  2  0  0  0
 17 18  1  0  0  0
 18 19  2  0  0  0
 19 20  1  0  0  0
 20 21  2  0  0  0
  4  5  1  0  0  0
  5 28  1  0  0  0
 28 30  1  0  0  0
 30 31  1  0  0  0
 31 32  1  0  0  0
 32 33  1  0  0  0
 33 34  1  0  0  0
 33 35  1  0  0  0
 35 36  1  0  0  0
  5  6  2  0  0  0
  6  1  1  0  0  0
 21 12  1  0  0  0
 36 30  1  0  0  0
 21 16  1  0  0  0
 22 23  1  0  0  0
  9 10  1  0  0  0
 28 29  1  0  0  0
 34 37  1  0  0  0
M  END
> <minimizedAffinity>
-7.24969

> <CNNscore>
0.7115665674

> <CNNaffinity>
6.7275342941

> <CNN_VS>
4.7870883942

> <CNNaffinity_variance>
0.4374724329

$$$$
[H]O[C@]1([H])C([H])([H])C([H])([H])[C@@]([H])(N([H])c2nc(N([H])C([H])([H])C([H])([H])C([H])([H])C([H])([H])[H])nc([H])c2C(=O)N([H])C([H])([H])c2c([H])c([H])c([H])c3c([H])c([H])c([H])c([H])c23)C([H])([H])C1([H])[H]


 37 40  0  0  0  0  0  0  0  0999 V2000
    3.7641    1.0900   19.4843 C   0  0  0  0  0  0  0  0  0  0  0  0
    3.3122    0.5840   18.3224 N   0  0  0  0  0  0  0  0  0  0  0  0
    3.2541    1.2951   17.1914 C   0  0  0  0  0  0  0  0  0  0  0  0
    3.6872    2.6283   17.2313 C   0  0  0  0  0  0  0  0  0  0  0  0
    4.1538    3.1781   18.3967 C   0  0  0  0  0  0  0  0  0  0  0  0
    4.1662    2.3496   19.4939 N   0  0  0  0  0  0  0  0  0  0  0  0
    3.6210    3.3784   16.0030 C   0  0  0  0  0  0  0  0  0  0  0  0
    4.4975    4.2369   15.6965 O   0  0  0  0  0  0  0  0  0  0  0  0
    2.5867    3.2359   15.0285 N   0  0  0  0  0  0  0  0  0  0  0  0
    1.8305    2.5599   15.2138 H   0  0  0  0  0  0  0  0  0  0  0  0
    2.5653    3.9980   13.8076 C   0  0  0  0  0  0  0  0  0  0  0  0
    2.5204    3.2216   12.5662 C   0  0  0  0  0  0  0  0  0  0  0  0
    1.5362    2.3131   12.2641 C   0  0  0  0  0  0  0  0  0  0  0  0
    1.5151    1.6119   11.0638 C   0  0  0  0  0  0  0  0  0  0  0  0
    2.5154    1.8392   10.1502 C   0  0  0  0  0  0  0  0  0  0  0  0
    3.5063    2.7554   10.4547 C   0  0  0  0  0  0  0  0  0  0  0  0
    4.5106    2.9639    9.4993 C   0  0  0  0  0  0  0  0  0  0  0  0
    5.5207    3.8649    9.7495 C   0  0  0  0  0  0  0  0  0  0  0  0
    5.5221    4.5442   10.9377 C   0  0  0  0  0  0  0  0  0  0  0  0
    4.5505    4.3678   11.9063 C   0  0  0  0  0  0  0  0  0  0  0  0
    3.5469    3.4609   11.6375 C   0  0  0  0  0  0  0  0  0  0  0  0
    3.7924    0.2570   20.6493 N   0  0  0  0  0  0  0  0  0  0  0  0
    4.3841   -0.6053   20.6613 H   0  0  0  0  0  0  0  0  0  0  0  0
    2.9864    0.6503   21.7822 C   0  0  0  0  0  0  0  0  0  0  0  0
    3.9068    0.9829   22.9578 C   0  0  0  0  0  0  0  0  0  0  0  0
    5.6163    2.7214   22.9539 C   0  0  0  0  0  0  0  0  0  0  0  0
    4.1262    2.4708   23.0324 C   0  0  0  0  0  0  0  0  0  0  0  0
    4.6168    4.5063   18.5757 N   0  0  0  0  0  0  0  0  0  0  0  0
    5.2948    4.9305   17.9406 H   0  0  0  0  0  0  0  0  0  0  0  0
    4.1207    5.3096   19.6952 C   0  0  0  0  0  0  0  0  0  0  0  0
    5.1898    5.6536   20.6787 C   0  0  0  0  0  0  0  0  0  0  0  0
    5.0043    7.0522   21.2779 C   0  0  0  0  0  0  0  0  0  0  0  0
    5.0809    8.1303   20.2486 C   0  0  0  0  0  0  0  0  0  0  0  0
    4.0666    9.0926   20.4511 O   0  0  0  0  0  0  0  0  0  0  0  0
    4.7686    7.5078   18.8859 C   0  0  0  0  0  0  0  0  0  0  0  0
    3.5594    6.5963   19.1355 C   0  0  0  0  0  0  0  0  0  0  0  0
    3.4658    8.8281   21.1975 H   0  0  0  0  0  0  0  0  0  0  0  0
 26 27  1  0  0  0
 27 25  1  0  0  0
 25 24  1  0  0  0
 24 22  1  0  0  0
 22  1  1  0  0  0
  1  2  2  0  0  0
  2  3  1  0  0  0
  3  4  2  0  0  0
  4  7  1  0  0  0
  7  8  2  0  0  0
  7  9  1  0  0  0
  9 11  1  0  0  0
 11 12  1  0  0  0
 12 13  2  0  0  0
 13 14  1  0  0  0
 14 15  2  0  0  0
 15 16  1  0  0  0
 16 17  2  0  0  0
 17 18  1  0  0  0
 18 19  2  0  0  0
 19 20  1  0  0  0
 20 21  2  0  0  0
  4  5  1  0  0  0
  5 28  1  0  0  0
 28 30  1  0  0  0
 30 31  1  0  0  0
 31 32  1  0  0  0
 32 33  1  0  0  0
 33 34  1  0  0  0
 33 35  1  0  0  0
 35 36  1  0  0  0
  5  6  2  0  0  0
  6  1  1  0  0  0
 21 12  1  0  0  0
 36 30  1  0  0  0
 21 16  1  0  0  0
 22 23  1  0  0  0
  9 10  1  0  0  0
 28 29  1  0  0  0
 34 37  1  0  0  0
M  END
> <minimizedAffinity>
-7.75141

> <CNNscore>
0.4778430760

> <CNNaffinity>
6.8190584183

> <CNN_VS>
3.2584397793

> <CNNaffinity_variance>
0.6362154484

$$$$
[H]O[C@]1([H])C([H])([H])C([H])([H])[C@@]([H])(N([H])c2nc(N([H])C([H])([H])C([H])([H])C([H])([H])C([H])([H])[H])nc([H])c2C(=O)N([H])C([H])([H])c2c([H])c([H])c([H])c3c([H])c([H])c([H])c([H])c23)C([H])([H])C1([H])[H]


 37 40  0  0  0  0  0  0  0  0999 V2000
    3.8809    1.8263   17.6165 C   0  0  0  0  0  0  0  0  0  0  0  0
    3.2689    0.9661   16.7824 N   0  0  0  0  0  0  0  0  0  0  0  0
    3.0016    1.2555   15.5045 C   0  0  0  0  0  0  0  0  0  0  0  0
    3.3817    2.5168   15.0238 C   0  0  0  0  0  0  0  0  0  0  0  0
    4.0070    3.4192   15.8441 C   0  0  0  0  0  0  0  0  0  0  0  0
    4.2286    3.0087   17.1374 N   0  0  0  0  0  0  0  0  0  0  0  0
    3.0892    2.8104   13.6440 C   0  0  0  0  0  0  0  0  0  0  0  0
    3.6921    3.7258   13.0134 O   0  0  0  0  0  0  0  0  0  0  0  0
    2.1139    2.1177   12.8638 N   0  0  0  0  0  0  0  0  0  0  0  0
    1.5745    1.3629   13.3137 H   0  0  0  0  0  0  0  0  0  0  0  0
    1.8614    2.4358   11.4829 C   0  0  0  0  0  0  0  0  0  0  0  0
    2.5101    1.5704   10.4950 C   0  0  0  0  0  0  0  0  0  0  0  0
    3.8301    1.6754   10.1315 C   0  0  0  0  0  0  0  0  0  0  0  0
    4.4165    0.8194    9.2062 C   0  0  0  0  0  0  0  0  0  0  0  0
    3.6452   -0.1652    8.6383 C   0  0  0  0  0  0  0  0  0  0  0  0
    2.3155   -0.2712    9.0055 C   0  0  0  0  0  0  0  0  0  0  0  0
    1.5581   -1.2879    8.4077 C   0  0  0  0  0  0  0  0  0  0  0  0
    0.2303   -1.4397    8.7370 C   0  0  0  0  0  0  0  0  0  0  0  0
   -0.3268   -0.5859    9.6502 C   0  0  0  0  0  0  0  0  0  0  0  0
    0.3852    0.4296   10.2626 C   0  0  0  0  0  0  0  0  0  0  0  0
    1.7141    0.5660    9.9197 C   0  0  0  0  0  0  0  0  0  0  0  0
    4.1292    1.4340   18.9717 N   0  0  0  0  0  0  0  0  0  0  0  0
    4.3011    0.4285   19.2018 H   0  0  0  0  0  0  0  0  0  0  0  0
    4.1320    2.4644   19.9847 C   0  0  0  0  0  0  0  0  0  0  0  0
    5.5034    2.4949   20.6615 C   0  0  0  0  0  0  0  0  0  0  0  0
    6.9184    0.6386   21.3663 C   0  0  0  0  0  0  0  0  0  0  0  0
    5.6165    1.3584   21.6428 C   0  0  0  0  0  0  0  0  0  0  0  0
    4.4392    4.7222   15.4892 N   0  0  0  0  0  0  0  0  0  0  0  0
    5.2040    4.8750   14.8298 H   0  0  0  0  0  0  0  0  0  0  0  0
    3.7834    5.8948   16.0718 C   0  0  0  0  0  0  0  0  0  0  0  0
    4.7211    7.0372   16.2817 C   0  0  0  0  0  0  0  0  0  0  0  0
    4.0527    8.3946   16.0353 C   0  0  0  0  0  0  0  0  0  0  0  0
    3.5789    8.5520   14.6288 C   0  0  0  0  0  0  0  0  0  0  0  0
    2.2907    9.1308   14.5933 O   0  0  0  0  0  0  0  0  0  0  0  0
    3.4012    7.1552   14.0293 C   0  0  0  0  0  0  0  0  0  0  0  0
    2.6955    6.3424   15.1231 C   0  0  0  0  0  0  0  0  0  0  0  0
    1.9302    9.2588   15.5107 H   0  0  0  0  0  0  0  0  0  0  0  0
 26 27  1  0  0  0
 27 25  1  0  0  0
 25 24  1  0  0  0
 24 22  1  0  0  0
 22  1  1  0  0  0
  1  2  2  0  0  0
  2  3  1  0  0  0
  3  4  2  0  0  0
  4  7  1  0  0  0
  7  8  2  0  0  0
  7  9  1  0  0  0
  9 11  1  0  0  0
 11 12  1  0  0  0
 12 13  2  0  0  0
 13 14  1  0  0  0
 14 15  2  0  0  0
 15 16  1  0  0  0
 16 17  2  0  0  0
 17 18  1  0  0  0
 18 19  2  0  0  0
 19 20  1  0  0  0
 20 21  2  0  0  0
  4  5  1  0  0  0
  5 28  1  0  0  0
 28 30  1  0  0  0
 30 31  1  0  0  0
 31 32  1  0  0  0
 32 33  1  0  0  0
 33 34  1  0  0  0
 33 35  1  0  0  0
 35 36  1  0  0  0
  5  6  2  0  0  0
  6  1  1  0  0  0
 21 12  1  0  0  0
 36 30  1  0  0  0
 21 16  1  0  0  0
 22 23  1  0  0  0
  9 10  1  0  0  0
 28 29  1  0  0  0
 34 37  1  0  0  0
M  END
> <minimizedAffinity>
-7.22234

> <CNNscore>
0.4254836142

> <CNNaffinity>
6.4535598755

> <CNN_VS>
2.7458839417

> <CNNaffinity_variance>
0.4926398396

$$$$
[H]O[C@]1([H])C([H])([H])C([H])([H])[C@@]([H])(N([H])c2nc(N([H])C([H])([H])C([H])([H])C([H])([H])C([H])([H])[H])nc([H])c2C(=O)N([H])C([H])([H])c2c([H])c([H])c([H])c3c([H])c([H])c([H])c([H])c23)C([H])([H])C1([H])[H]


 37 40  0  0  0  0  0  0  0  0999 V2000
    3.9519    1.3036   20.1947 C   0  0  0  0  0  0  0  0  0  0  0  0
    3.4777    0.6382   19.1257 N   0  0  0  0  0  0  0  0  0  0  0  0
    3.4522    1.1603   17.8949 C   0  0  0  0  0  0  0  0  0  0  0  0
    3.9452    2.4618   17.7235 C   0  0  0  0  0  0  0  0  0  0  0  0
    4.4359    3.1703   18.7891 C   0  0  0  0  0  0  0  0  0  0  0  0
    4.4106    2.5292   20.0050 N   0  0  0  0  0  0  0  0  0  0  0  0
    3.9134    3.0071   16.3903 C   0  0  0  0  0  0  0  0  0  0  0  0
    4.9574    3.4325   15.8175 O   0  0  0  0  0  0  0  0  0  0  0  0
    2.7317    3.1219   15.5966 N   0  0  0  0  0  0  0  0  0  0  0  0
    1.8384    2.8033   16.0012 H   0  0  0  0  0  0  0  0  0  0  0  0
    2.7465    3.6626   14.2627 C   0  0  0  0  0  0  0  0  0  0  0  0
    2.3632    5.0707   14.1357 C   0  0  0  0  0  0  0  0  0  0  0  0
    3.1081    6.1161   14.6234 C   0  0  0  0  0  0  0  0  0  0  0  0
    2.7225    7.4421   14.4626 C   0  0  0  0  0  0  0  0  0  0  0  0
    1.5550    7.7119   13.7909 C   0  0  0  0  0  0  0  0  0  0  0  0
    0.8053    6.6583   13.2990 C   0  0  0  0  0  0  0  0  0  0  0  0
   -0.3794    6.9698   12.6176 C   0  0  0  0  0  0  0  0  0  0  0  0
   -1.1636    5.9607   12.1063 C   0  0  0  0  0  0  0  0  0  0  0  0
   -0.7652    4.6624   12.2763 C   0  0  0  0  0  0  0  0  0  0  0  0
    0.3958    4.3127   12.9419 C   0  0  0  0  0  0  0  0  0  0  0  0
    1.1682    5.3375   13.4471 C   0  0  0  0  0  0  0  0  0  0  0  0
    3.9421    0.6682   21.4785 N   0  0  0  0  0  0  0  0  0  0  0  0
    4.3141   -0.3035   21.5838 H   0  0  0  0  0  0  0  0  0  0  0  0
    3.4083    1.4109   22.5972 C   0  0  0  0  0  0  0  0  0  0  0  0
    4.5566    1.8056   23.5274 C   0  0  0  0  0  0  0  0  0  0  0  0
    3.5183    4.0038   23.3419 C   0  0  0  0  0  0  0  0  0  0  0  0
    4.8446    3.2773   23.3908 C   0  0  0  0  0  0  0  0  0  0  0  0
    4.9586    4.4880   18.7560 N   0  0  0  0  0  0  0  0  0  0  0  0
    5.6517    4.7753   18.0632 H   0  0  0  0  0  0  0  0  0  0  0  0
    4.5045    5.4801   19.7328 C   0  0  0  0  0  0  0  0  0  0  0  0
    5.5643    6.4696   20.0877 C   0  0  0  0  0  0  0  0  0  0  0  0
    4.9963    7.8727   20.3298 C   0  0  0  0  0  0  0  0  0  0  0  0
    4.3428    8.4427   19.1150 C   0  0  0  0  0  0  0  0  0  0  0  0
    3.1221    9.0709   19.4480 O   0  0  0  0  0  0  0  0  0  0  0  0
    3.9525    7.2816   18.1977 C   0  0  0  0  0  0  0  0  0  0  0  0
    3.3382    6.2297   19.1311 C   0  0  0  0  0  0  0  0  0  0  0  0
    2.9099    8.9531   20.4119 H   0  0  0  0  0  0  0  0  0  0  0  0
 26 27  1  0  0  0
 27 25  1  0  0  0
 25 24  1  0  0  0
 24 22  1  0  0  0
 22  1  1  0  0  0
  1  2  2  0  0  0
  2  3  1  0  0  0
  3  4  2  0  0  0
  4  7  1  0  0  0
  7  8  2  0  0  0
  7  9  1  0  0  0
  9 11  1  0  0  0
 11 12  1  0  0  0
 12 13  2  0  0  0
 13 14  1  0  0  0
 14 15  2  0  0  0
 15 16  1  0  0  0
 16 17  2  0  0  0
 17 18  1  0  0  0
 18 19  2  0  0  0
 19 20  1  0  0  0
 20 21  2  0  0  0
  4  5  1  0  0  0
  5 28  1  0  0  0
 28 30  1  0  0  0
 30 31  1  0  0  0
 31 32  1  0  0  0
 32 33  1  0  0  0
 33 34  1  0  0  0
 33 35  1  0  0  0
 35 36  1  0  0  0
  5  6  2  0  0  0
  6  1  1  0  0  0
 21 12  1  0  0  0
 36 30  1  0  0  0
 21 16  1  0  0  0
 22 23  1  0  0  0
  9 10  1  0  0  0
 28 29  1  0  0  0
 34 37  1  0  0  0
M  END
> <minimizedAffinity>
-8.13748

> <CNNscore>
0.4048697650

> <CNNaffinity>
6.4820365906

> <CNN_VS>
2.6243805885

> <CNNaffinity_variance>
0.9291297793

$$$$
[H]O[C@]1([H])C([H])([H])C([H])([H])[C@@]([H])(N([H])c2nc(N([H])C([H])([H])C([H])([H])C([H])([H])C([H])([H])[H])nc([H])c2C(=O)N([H])C([H])([H])c2c([H])c([H])c([H])c3c([H])c([H])c([H])c([H])c23)C([H])([H])C1([H])[H]


 37 40  0  0  0  0  0  0  0  0999 V2000
    3.8266    1.8451   17.8017 C   0  0  0  0  0  0  0  0  0  0  0  0
    3.2709    1.0682   16.8541 N   0  0  0  0  0  0  0  0  0  0  0  0
    3.1342    1.4559   15.5816 C   0  0  0  0  0  0  0  0  0  0  0  0
    3.5951    2.7332   15.2314 C   0  0  0  0  0  0  0  0  0  0  0  0
    4.1665    3.5526   16.1696 C   0  0  0  0  0  0  0  0  0  0  0  0
    4.2527    3.0448   17.4443 N   0  0  0  0  0  0  0  0  0  0  0  0
    3.4431    3.1330   13.8557 C   0  0  0  0  0  0  0  0  0  0  0  0
    4.1698    4.0279   13.3359 O   0  0  0  0  0  0  0  0  0  0  0  0
    2.4817    2.5764   12.9581 N   0  0  0  0  0  0  0  0  0  0  0  0
    1.8464    1.8464   13.3138 H   0  0  0  0  0  0  0  0  0  0  0  0
    2.3715    2.9972   11.5860 C   0  0  0  0  0  0  0  0  0  0  0  0
    2.8422    2.0412   10.5808 C   0  0  0  0  0  0  0  0  0  0  0  0
    2.2211    0.8477   10.3063 C   0  0  0  0  0  0  0  0  0  0  0  0
    2.6851   -0.0236    9.3274 C   0  0  0  0  0  0  0  0  0  0  0  0
    3.8041    0.3256    8.6112 C   0  0  0  0  0  0  0  0  0  0  0  0
    4.4289    1.5287    8.8876 C   0  0  0  0  0  0  0  0  0  0  0  0
    5.5671    1.8541    8.1370 C   0  0  0  0  0  0  0  0  0  0  0  0
    6.2277    3.0391    8.3692 C   0  0  0  0  0  0  0  0  0  0  0  0
    5.7538    3.8820    9.3378 C   0  0  0  0  0  0  0  0  0  0  0  0
    4.6350    3.5986   10.1001 C   0  0  0  0  0  0  0  0  0  0  0  0
    3.9867    2.4066    9.8529 C   0  0  0  0  0  0  0  0  0  0  0  0
    3.9340    1.3502   19.1417 N   0  0  0  0  0  0  0  0  0  0  0  0
    3.8845    0.3218   19.3247 H   0  0  0  0  0  0  0  0  0  0  0  0
    4.1099    2.3115   20.2060 C   0  0  0  0  0  0  0  0  0  0  0  0
    5.5440    2.2186   20.7301 C   0  0  0  0  0  0  0  0  0  0  0  0
    7.0567    0.3771   21.2451 C   0  0  0  0  0  0  0  0  0  0  0  0
    5.7050    0.9765   21.5661 C   0  0  0  0  0  0  0  0  0  0  0  0
    4.6687    4.8607   15.9521 N   0  0  0  0  0  0  0  0  0  0  0  0
    5.5039    5.0304   15.3895 H   0  0  0  0  0  0  0  0  0  0  0  0
    3.9849    6.0143   16.5407 C   0  0  0  0  0  0  0  0  0  0  0  0
    4.9232    7.1122   16.9181 C   0  0  0  0  0  0  0  0  0  0  0  0
    4.3166    8.5020   16.6943 C   0  0  0  0  0  0  0  0  0  0  0  0
    3.9938    8.7612   15.2604 C   0  0  0  0  0  0  0  0  0  0  0  0
    2.7304    9.3802   15.1327 O   0  0  0  0  0  0  0  0  0  0  0  0
    3.8450    7.4106   14.5564 C   0  0  0  0  0  0  0  0  0  0  0  0
    3.0113    6.5532   15.5181 C   0  0  0  0  0  0  0  0  0  0  0  0
    2.2806    9.4618   16.0154 H   0  0  0  0  0  0  0  0  0  0  0  0
 26 27  1  0  0  0
 27 25  1  0  0  0
 25 24  1  0  0  0
 24 22  1  0  0  0
 22  1  1  0  0  0
  1  2  2  0  0  0
  2  3  1  0  0  0
  3  4  2  0  0  0
  4  7  1  0  0  0
  7  8  2  0  0  0
  7  9  1  0  0  0
  9 11  1  0  0  0
 11 12  1  0  0  0
 12 13  2  0  0  0
 13 14  1  0  0  0
 14 15  2  0  0  0
 15 16  1  0  0  0
 16 17  2  0  0  0
 17 18  1  0  0  0
 18 19  2  0  0  0
 19 20  1  0  0  0
 20 21  2  0  0  0
  4  5  1  0  0  0
  5 28  1  0  0  0
 28 30  1  0  0  0
 30 31  1  0  0  0
 31 32  1  0  0  0
 32 33  1  0  0  0
 33 34  1  0  0  0
 33 35  1  0  0  0
 35 36  1  0  0  0
  5  6  2  0  0  0
  6  1  1  0  0  0
 21 12  1  0  0  0
 36 30  1  0  0  0
 21 16  1  0  0  0
 22 23  1  0  0  0
  9 10  1  0  0  0
 28 29  1  0  0  0
 34 37  1  0  0  0
M  END
> <minimizedAffinity>
-7.07383

> <CNNscore>
0.3744171560

> <CNNaffinity>
6.2799463272

> <CNN_VS>
2.3513195515

> <CNNaffinity_variance>
0.4194399416

$$$$
[H]O[C@]1([H])C([H])([H])C([H])([H])[C@@]([H])(N([H])c2nc(N([H])C([H])([H])C([H])([H])C([H])([H])C([H])([H])[H])nc([H])c2C(=O)N([H])C([H])([H])c2c([H])c([H])c([H])c3c([H])c([H])c([H])c([H])c23)C([H])([H])C1([H])[H]


 37 40  0  0  0  0  0  0  0  0999 V2000
    4.5699    1.9859   19.5779 C   0  0  0  0  0  0  0  0  0  0  0  0
    4.2119    1.2696   18.4967 N   0  0  0  0  0  0  0  0  0  0  0  0
    3.6606    1.8182   17.4089 C   0  0  0  0  0  0  0  0  0  0  0  0
    3.4510    3.2048   17.4074 C   0  0  0  0  0  0  0  0  0  0  0  0
    3.8027    3.9669   18.4908 C   0  0  0  0  0  0  0  0  0  0  0  0
    4.3611    3.2914   19.5500 N   0  0  0  0  0  0  0  0  0  0  0  0
    2.8593    3.7793   16.2261 C   0  0  0  0  0  0  0  0  0  0  0  0
    1.9493    4.6549   16.2930 O   0  0  0  0  0  0  0  0  0  0  0  0
    3.2276    3.4302   14.8912 N   0  0  0  0  0  0  0  0  0  0  0  0
    3.9581    2.7149   14.7570 H   0  0  0  0  0  0  0  0  0  0  0  0
    2.6184    4.0383   13.7376 C   0  0  0  0  0  0  0  0  0  0  0  0
    2.5585    3.2101   12.5308 C   0  0  0  0  0  0  0  0  0  0  0  0
    1.5975    2.2565   12.3010 C   0  0  0  0  0  0  0  0  0  0  0  0
    1.5601    1.5059   11.1315 C   0  0  0  0  0  0  0  0  0  0  0  0
    2.5195    1.7294   10.1741 C   0  0  0  0  0  0  0  0  0  0  0  0
    3.4870    2.6909   10.4057 C   0  0  0  0  0  0  0  0  0  0  0  0
    4.4495    2.8940    9.4072 C   0  0  0  0  0  0  0  0  0  0  0  0
    5.4347    3.8387    9.5844 C   0  0  0  0  0  0  0  0  0  0  0  0
    5.4529    4.5664   10.7435 C   0  0  0  0  0  0  0  0  0  0  0  0
    4.5223    4.3970   11.7528 C   0  0  0  0  0  0  0  0  0  0  0  0
    3.5431    3.4458   11.5569 C   0  0  0  0  0  0  0  0  0  0  0  0
    5.1551    1.3170   20.7013 N   0  0  0  0  0  0  0  0  0  0  0  0
    5.3563    0.2920   20.6528 H   0  0  0  0  0  0  0  0  0  0  0  0
    5.4492    2.1018   21.8784 C   0  0  0  0  0  0  0  0  0  0  0  0
    4.2605    2.0262   22.8381 C   0  0  0  0  0  0  0  0  0  0  0  0
    4.2482    4.4622   22.7379 C   0  0  0  0  0  0  0  0  0  0  0  0
    4.1971    3.2759   23.6757 C   0  0  0  0  0  0  0  0  0  0  0  0
    3.6441    5.3699   18.6212 N   0  0  0  0  0  0  0  0  0  0  0  0
    2.7629    5.7863   18.9260 H   0  0  0  0  0  0  0  0  0  0  0  0
    4.7631    6.2643   18.3165 C   0  0  0  0  0  0  0  0  0  0  0  0
    4.5698    7.0194   17.0434 C   0  0  0  0  0  0  0  0  0  0  0  0
    5.1390    8.4409   17.1150 C   0  0  0  0  0  0  0  0  0  0  0  0
    4.4643    9.2757   18.1521 C   0  0  0  0  0  0  0  0  0  0  0  0
    5.4091   10.0248   18.8882 O   0  0  0  0  0  0  0  0  0  0  0  0
    3.8229    8.3348   19.1744 C   0  0  0  0  0  0  0  0  0  0  0  0
    4.8860    7.2616   19.4454 C   0  0  0  0  0  0  0  0  0  0  0  0
    6.3374    9.7997   18.6132 H   0  0  0  0  0  0  0  0  0  0  0  0
 26 27  1  0  0  0
 27 25  1  0  0  0
 25 24  1  0  0  0
 24 22  1  0  0  0
 22  1  1  0  0  0
  1  2  2  0  0  0
  2  3  1  0  0  0
  3  4  2  0  0  0
  4  7  1  0  0  0
  7  8  2  0  0  0
  7  9  1  0  0  0
  9 11  1  0  0  0
 11 12  1  0  0  0
 12 13  2  0  0  0
 13 14  1  0  0  0
 14 15  2  0  0  0
 15 16  1  0  0  0
 16 17  2  0  0  0
 17 18  1  0  0  0
 18 19  2  0  0  0
 19 20  1  0  0  0
 20 21  2  0  0  0
  4  5  1  0  0  0
  5 28  1  0  0  0
 28 30  1  0  0  0
 30 31  1  0  0  0
 31 32  1  0  0  0
 32 33  1  0  0  0
 33 34  1  0  0  0
 33 35  1  0  0  0
 35 36  1  0  0  0
  5  6  2  0  0  0
  6  1  1  0  0  0
 21 12  1  0  0  0
 36 30  1  0  0  0
 21 16  1  0  0  0
 22 23  1  0  0  0
  9 10  1  0  0  0
 28 29  1  0  0  0
 34 37  1  0  0  0
M  END
> <minimizedAffinity>
-7.29760

> <CNNscore>
0.3563458920

> <CNNaffinity>
6.6296973228

> <CNN_VS>
2.3624653816

> <CNNaffinity_variance>
0.6972255111

$$$$
[H]O[C@]1([H])C([H])([H])C([H])([H])[C@@]([H])(N([H])c2nc(N([H])C([H])([H])C([H])([H])C([H])([H])C([H])([H])[H])nc([H])c2C(=O)N([H])C([H])([H])c2c([H])c([H])c([H])c3c([H])c([H])c([H])c([H])c23)C([H])([H])C1([H])[H]


 37 40  0  0  0  0  0  0  0  0999 V2000
    5.6840    3.4563   22.1975 C   0  0  0  0  0  0  0  0  0  0  0  0
    5.4958    2.6519   21.1354 N   0  0  0  0  0  0  0  0  0  0  0  0
    4.9109    3.0622   20.0051 C   0  0  0  0  0  0  0  0  0  0  0  0
    4.4780    4.3943   19.9360 C   0  0  0  0  0  0  0  0  0  0  0  0
    4.6525    5.2429   20.9979 C   0  0  0  0  0  0  0  0  0  0  0  0
    5.2664    4.7076   22.1055 N   0  0  0  0  0  0  0  0  0  0  0  0
    3.8532    4.8201   18.7096 C   0  0  0  0  0  0  0  0  0  0  0  0
    2.7191    5.3795   18.6968 O   0  0  0  0  0  0  0  0  0  0  0  0
    4.4326    4.6598   17.4141 N   0  0  0  0  0  0  0  0  0  0  0  0
    5.3542    4.2026   17.3442 H   0  0  0  0  0  0  0  0  0  0  0  0
    3.7784    5.1110   16.2141 C   0  0  0  0  0  0  0  0  0  0  0  0
    3.2123    4.0653   15.3586 C   0  0  0  0  0  0  0  0  0  0  0  0
    3.6078    2.7507   15.3891 C   0  0  0  0  0  0  0  0  0  0  0  0
    3.0297    1.7816   14.5771 C   0  0  0  0  0  0  0  0  0  0  0  0
    2.0274    2.1561   13.7157 C   0  0  0  0  0  0  0  0  0  0  0  0
    1.6286    3.4806   13.6859 C   0  0  0  0  0  0  0  0  0  0  0  0
    0.6024    3.8275   12.7964 C   0  0  0  0  0  0  0  0  0  0  0  0
    0.1655    5.1309   12.7259 C   0  0  0  0  0  0  0  0  0  0  0  0
    0.7487    6.0688   13.5343 C   0  0  0  0  0  0  0  0  0  0  0  0
    1.7633    5.7681   14.4250 C   0  0  0  0  0  0  0  0  0  0  0  0
    2.1876    4.4570   14.4812 C   0  0  0  0  0  0  0  0  0  0  0  0
    6.3204    2.9343   23.3698 N   0  0  0  0  0  0  0  0  0  0  0  0
    7.2663    3.2815   23.6498 H   0  0  0  0  0  0  0  0  0  0  0  0
    5.6152    1.9296   24.1322 C   0  0  0  0  0  0  0  0  0  0  0  0
    6.2474    1.8223   25.5209 C   0  0  0  0  0  0  0  0  0  0  0  0
    7.1601    0.3046   27.1966 C   0  0  0  0  0  0  0  0  0  0  0  0
    6.3165    0.3785   25.9429 C   0  0  0  0  0  0  0  0  0  0  0  0
    4.2615    6.6043   21.0617 N   0  0  0  0  0  0  0  0  0  0  0  0
    3.4005    6.8962   21.5270 H   0  0  0  0  0  0  0  0  0  0  0  0
    5.1019    7.6364   20.4508 C   0  0  0  0  0  0  0  0  0  0  0  0
    4.6059    9.0189   20.7177 C   0  0  0  0  0  0  0  0  0  0  0  0
    5.7484   10.0244   20.9004 C   0  0  0  0  0  0  0  0  0  0  0  0
    6.6115    9.7026   22.0747 C   0  0  0  0  0  0  0  0  0  0  0  0
    7.9783    9.8546   21.7516 O   0  0  0  0  0  0  0  0  0  0  0  0
    6.4436    8.2151   22.3929 C   0  0  0  0  0  0  0  0  0  0  0  0
    6.4922    7.5114   21.0300 C   0  0  0  0  0  0  0  0  0  0  0  0
    8.0961   10.0827   20.7914 H   0  0  0  0  0  0  0  0  0  0  0  0
 26 27  1  0  0  0
 27 25  1  0  0  0
 25 24  1  0  0  0
 24 22  1  0  0  0
 22  1  1  0  0  0
  1  2  2  0  0  0
  2  3  1  0  0  0
  3  4  2  0  0  0
  4  7  1  0  0  0
  7  8  2  0  0  0
  7  9  1  0  0  0
  9 11  1  0  0  0
 11 12  1  0  0  0
 12 13  2  0  0  0
 13 14  1  0  0  0
 14 15  2  0  0  0
 15 16  1  0  0  0
 16 17  2  0  0  0
 17 18  1  0  0  0
 18 19  2  0  0  0
 19 20  1  0  0  0
 20 21  2  0  0  0
  4  5  1  0  0  0
  5 28  1  0  0  0
 28 30  1  0  0  0
 30 31  1  0  0  0
 31 32  1  0  0  0
 32 33  1  0  0  0
 33 34  1  0  0  0
 33 35  1  0  0  0
 35 36  1  0  0  0
  5  6  2  0  0  0
  6  1  1  0  0  0
 21 12  1  0  0  0
 36 30  1  0  0  0
 21 16  1  0  0  0
 22 23  1  0  0  0
  9 10  1  0  0  0
 28 29  1  0  0  0
 34 37  1  0  0  0
M  END
> <minimizedAffinity>
-7.43225

> <CNNscore>
0.3270111382

> <CNNaffinity>
6.2626314163

> <CNN_VS>
2.0479502678

> <CNNaffinity_variance>
0.7167400122

$$$$
[H]O[C@]1([H])C([H])([H])C([H])([H])[C@@]([H])(N([H])c2nc(N([H])C([H])([H])C([H])([H])C([H])([H])C([H])([H])[H])nc([H])c2C(=O)N([H])C([H])([H])c2c([H])c([H])c([H])c3c([H])c([H])c([H])c([H])c23)C([H])([H])C1([H])[H]


 37 40  0  0  0  0  0  0  0  0999 V2000
    2.8016    2.9267   15.6584 C   0  0  0  0  0  0  0  0  0  0  0  0
    3.0518    4.0978   15.0451 N   0  0  0  0  0  0  0  0  0  0  0  0
    3.8939    5.0127   15.5371 C   0  0  0  0  0  0  0  0  0  0  0  0
    4.5396    4.7265   16.7485 C   0  0  0  0  0  0  0  0  0  0  0  0
    4.3095    3.5440   17.4019 C   0  0  0  0  0  0  0  0  0  0  0  0
    3.4238    2.6823   16.7993 N   0  0  0  0  0  0  0  0  0  0  0  0
    5.4460    5.7217   17.2620 C   0  0  0  0  0  0  0  0  0  0  0  0
    6.6511    5.4513   17.5334 O   0  0  0  0  0  0  0  0  0  0  0  0
    5.0890    7.0818   17.5122 N   0  0  0  0  0  0  0  0  0  0  0  0
    4.1187    7.3750   17.3231 H   0  0  0  0  0  0  0  0  0  0  0  0
    6.0303    8.0476   18.0151 C   0  0  0  0  0  0  0  0  0  0  0  0
    6.0083    8.2733   19.4623 C   0  0  0  0  0  0  0  0  0  0  0  0
    4.9235    8.7641   20.1463 C   0  0  0  0  0  0  0  0  0  0  0  0
    4.9330    8.9428   21.5250 C   0  0  0  0  0  0  0  0  0  0  0  0
    6.0691    8.6151   22.2241 C   0  0  0  0  0  0  0  0  0  0  0  0
    7.1615    8.1198   21.5345 C   0  0  0  0  0  0  0  0  0  0  0  0
    8.3035    7.7943   22.2792 C   0  0  0  0  0  0  0  0  0  0  0  0
    9.4189    7.2966   21.6446 C   0  0  0  0  0  0  0  0  0  0  0  0
    9.3879    7.1288   20.2866 C   0  0  0  0  0  0  0  0  0  0  0  0
    8.2819    7.4375   19.5155 C   0  0  0  0  0  0  0  0  0  0  0  0
    7.1741    7.9350   20.1692 C   0  0  0  0  0  0  0  0  0  0  0  0
    1.8845    2.0028   15.0607 N   0  0  0  0  0  0  0  0  0  0  0  0
    1.5969    1.1418   15.5799 H   0  0  0  0  0  0  0  0  0  0  0  0
    1.3848    2.3046   13.7389 C   0  0  0  0  0  0  0  0  0  0  0  0
    2.4015    1.8276   12.7004 C   0  0  0  0  0  0  0  0  0  0  0  0
    2.2167    3.9675   11.5465 C   0  0  0  0  0  0  0  0  0  0  0  0
    2.1133    2.4685   11.3685 C   0  0  0  0  0  0  0  0  0  0  0  0
    4.8902    3.1319   18.6281 N   0  0  0  0  0  0  0  0  0  0  0  0
    5.8220    2.7161   18.6699 H   0  0  0  0  0  0  0  0  0  0  0  0
    4.1506    3.2996   19.8809 C   0  0  0  0  0  0  0  0  0  0  0  0
    4.6125    2.3704   20.9541 C   0  0  0  0  0  0  0  0  0  0  0  0
    4.5634    3.0134   22.3447 C   0  0  0  0  0  0  0  0  0  0  0  0
    5.4653    4.1969   22.4599 C   0  0  0  0  0  0  0  0  0  0  0  0
    4.8217    5.2562   23.1378 O   0  0  0  0  0  0  0  0  0  0  0  0
    5.7281    4.7317   21.0503 C   0  0  0  0  0  0  0  0  0  0  0  0
    4.3573    4.7179   20.3604 C   0  0  0  0  0  0  0  0  0  0  0  0
    3.8773    5.0266   23.3462 H   0  0  0  0  0  0  0  0  0  0  0  0
 26 27  1  0  0  0
 27 25  1  0  0  0
 25 24  1  0  0  0
 24 22  1  0  0  0
 22  1  1  0  0  0
  1  2  2  0  0  0
  2  3  1  0  0  0
  3  4  2  0  0  0
  4  7  1  0  0  0
  7  8  2  0  0  0
  7  9  1  0  0  0
  9 11  1  0  0  0
 11 12  1  0  0  0
 12 13  2  0  0  0
 13 14  1  0  0  0
 14 15  2  0  0  0
 15 16  1  0  0  0
 16 17  2  0  0  0
 17 18  1  0  0  0
 18 19  2  0  0  0
 19 20  1  0  0  0
 20 21  2  0  0  0
  4  5  1  0  0  0
  5 28  1  0  0  0
 28 30  1  0  0  0
 30 31  1  0  0  0
 31 32  1  0  0  0
 32 33  1  0  0  0
 33 34  1  0  0  0
 33 35  1  0  0  0
 35 36  1  0  0  0
  5  6  2  0  0  0
  6  1  1  0  0  0
 21 12  1  0  0  0
 36 30  1  0  0  0
 21 16  1  0  0  0
 22 23  1  0  0  0
  9 10  1  0  0  0
 28 29  1  0  0  0
 34 37  1  0  0  0
M  END
> <minimizedAffinity>
-7.58655

> <CNNscore>
0.3211558759

> <CNNaffinity>
6.3862700462

> <CNN_VS>
2.0509881973

> <CNNaffinity_variance>
0.2660033703

$$$$
[H]OC1([H])C([H])([H])C([H])([H])C([H])(N([H])c2nc(N([H])C([H])([H])C([H])([H])c3c([H])c([H])c([H])c([H])c3[H])nc([H])c2-c2nc([H])c([H])c([H])c2[H])C([H])([H])C1([H])[H]


 32 35  0  0  0  0  0  0  0  0999 V2000
    4.0622    1.7973   17.6055 C   0  0  0  0  0  0  0  0  0  0  0  0
    3.8985    1.0623   18.7590 N   0  0  0  0  0  0  0  0  0  0  0  0
    2.9567    0.1422   18.9340 C   0  0  0  0  0  0  0  0  0  0  0  0
    2.1189   -0.0789   17.9223 N   0  0  0  0  0  0  0  0  0  0  0  0
    2.2206    0.6004   16.7678 C   0  0  0  0  0  0  0  0  0  0  0  0
    3.2136    1.5789   16.5658 C   0  0  0  0  0  0  0  0  0  0  0  0
    3.2783    2.2969   15.3102 C   0  0  0  0  0  0  0  0  0  0  0  0
    2.7022    1.7505   14.1529 C   0  0  0  0  0  0  0  0  0  0  0  0
    2.7109    2.3923   12.9329 C   0  0  0  0  0  0  0  0  0  0  0  0
    3.2913    3.6132   12.7923 C   0  0  0  0  0  0  0  0  0  0  0  0
    3.8643    4.1591   13.9409 C   0  0  0  0  0  0  0  0  0  0  0  0
    3.8296    3.4961   15.1004 N   0  0  0  0  0  0  0  0  0  0  0  0
    5.0640    2.7953   17.5844 N   0  0  0  0  0  0  0  0  0  0  0  0
    5.8143    2.8562   16.8984 H   0  0  0  0  0  0  0  0  0  0  0  0
    4.2441    7.3186   18.3571 O   0  0  0  0  0  0  0  0  0  0  0  0
    4.4298    6.4913   19.4778 C   0  0  0  0  0  0  0  0  0  0  0  0
    5.8393    5.9494   19.4050 C   0  0  0  0  0  0  0  0  0  0  0  0
    5.8371    4.9951   18.1965 C   0  0  0  0  0  0  0  0  0  0  0  0
    4.9941    3.8346   18.6250 C   0  0  0  0  0  0  0  0  0  0  0  0
    3.5841    4.1845   18.9098 C   0  0  0  0  0  0  0  0  0  0  0  0
    3.3708    5.4680   19.6256 C   0  0  0  0  0  0  0  0  0  0  0  0
    3.8590    8.1974   18.6171 H   0  0  0  0  0  0  0  0  0  0  0  0
    2.8759   -0.5621   20.1710 N   0  0  0  0  0  0  0  0  0  0  0  0
    2.1484   -1.2932   20.3080 H   0  0  0  0  0  0  0  0  0  0  0  0
    3.8327   -0.2176   21.2010 C   0  0  0  0  0  0  0  0  0  0  0  0
    3.1878    0.8472   22.0862 C   0  0  0  0  0  0  0  0  0  0  0  0
    4.1489    1.9618   22.2197 C   0  0  0  0  0  0  0  0  0  0  0  0
    3.7883    3.1906   22.7267 C   0  0  0  0  0  0  0  0  0  0  0  0
    4.7164    4.2141   22.8378 C   0  0  0  0  0  0  0  0  0  0  0  0
    6.0238    4.0245   22.4424 C   0  0  0  0  0  0  0  0  0  0  0  0
    6.3773    2.7928   21.9363 C   0  0  0  0  0  0  0  0  0  0  0  0
    5.4555    1.7586   21.8200 C   0  0  0  0  0  0  0  0  0  0  0  0
 15 16  1  0  0  0
 16 17  1  0  0  0
 17 18  1  0  0  0
 18 19  1  0  0  0
 19 20  1  0  0  0
 20 21  1  0  0  0
 19 13  1  0  0  0
 13  1  1  0  0  0
  1  2  2  0  0  0
  2  3  1  0  0  0
  3 23  1  0  0  0
 23 25  1  0  0  0
 25 26  1  0  0  0
 26 27  1  0  0  0
 27 28  2  0  0  0
 28 29  1  0  0  0
 29 30  2  0  0  0
 30 31  1  0  0  0
 31 32  2  0  0  0
  3  4  2  0  0  0
  4  5  1  0  0  0
  5  6  2  0  0  0
  6  7  1  0  0  0
  7  8  2  0  0  0
  8  9  1  0  0  0
  9 10  2  0  0  0
 10 11  1  0  0  0
 11 12  2  0  0  0
 21 16  1  0  0  0
  6  1  1  0  0  0
 12  7  1  0  0  0
 32 27  1  0  0  0
 15 22  1  0  0  0
 13 14  1  0  0  0
 23 24  1  0  0  0
M  END
> <minimizedAffinity>
-8.89178

> <CNNscore>
0.9613427520

> <CNNaffinity>
7.4539337158

> <CNN_VS>
7.1657853127

> <CNNaffinity_variance>
0.0672833100

$$$$
[H]OC1([H])C([H])([H])C([H])([H])C([H])(N([H])c2nc(N([H])C([H])([H])C([H])([H])c3c([H])c([H])c([H])c([H])c3[H])nc([H])c2-c2nc([H])c([H])c([H])c2[H])C([H])([H])C1([H])[H]


 32 35  0  0  0  0  0  0  0  0999 V2000
    4.3294    2.2320   18.7935 C   0  0  0  0  0  0  0  0  0  0  0  0
    3.7661    1.9102   17.5783 N   0  0  0  0  0  0  0  0  0  0  0  0
    2.9412    0.8878   17.3819 C   0  0  0  0  0  0  0  0  0  0  0  0
    2.6436    0.1281   18.4347 N   0  0  0  0  0  0  0  0  0  0  0  0
    3.1558    0.3841   19.6500 C   0  0  0  0  0  0  0  0  0  0  0  0
    4.0315    1.4642   19.8754 C   0  0  0  0  0  0  0  0  0  0  0  0
    4.5710    1.6954   21.1990 C   0  0  0  0  0  0  0  0  0  0  0  0
    3.7456    1.5818   22.3284 C   0  0  0  0  0  0  0  0  0  0  0  0
    4.2021    1.7680   23.6159 C   0  0  0  0  0  0  0  0  0  0  0  0
    5.5038    2.0770   23.8554 C   0  0  0  0  0  0  0  0  0  0  0  0
    6.3266    2.1900   22.7348 C   0  0  0  0  0  0  0  0  0  0  0  0
    5.8351    2.0001   21.5070 N   0  0  0  0  0  0  0  0  0  0  0  0
    5.2477    3.3065   18.8419 N   0  0  0  0  0  0  0  0  0  0  0  0
    6.1565    3.2787   19.3008 H   0  0  0  0  0  0  0  0  0  0  0  0
    5.1657    7.9540   19.1936 O   0  0  0  0  0  0  0  0  0  0  0  0
    4.7709    7.3881   17.9694 C   0  0  0  0  0  0  0  0  0  0  0  0
    3.5364    6.5577   18.2379 C   0  0  0  0  0  0  0  0  0  0  0  0
    4.0306    5.3728   19.0882 C   0  0  0  0  0  0  0  0  0  0  0  0
    4.8598    4.5486   18.1531 C   0  0  0  0  0  0  0  0  0  0  0  0
    6.0582    5.2457   17.6340 C   0  0  0  0  0  0  0  0  0  0  0  0
    5.8688    6.6751   17.2787 C   0  0  0  0  0  0  0  0  0  0  0  0
    5.3304    8.9302   19.1035 H   0  0  0  0  0  0  0  0  0  0  0  0
    2.4138    0.6433   16.0800 N   0  0  0  0  0  0  0  0  0  0  0  0
    1.6368   -0.0364   15.9516 H   0  0  0  0  0  0  0  0  0  0  0  0
    2.9992    1.3700   14.9736 C   0  0  0  0  0  0  0  0  0  0  0  0
    1.8569    2.0355   14.2083 C   0  0  0  0  0  0  0  0  0  0  0  0
    2.1514    3.4815   14.1308 C   0  0  0  0  0  0  0  0  0  0  0  0
    1.3306    4.3674   13.4686 C   0  0  0  0  0  0  0  0  0  0  0  0
    1.6378    5.7181   13.4159 C   0  0  0  0  0  0  0  0  0  0  0  0
    2.7740    6.2057   14.0263 C   0  0  0  0  0  0  0  0  0  0  0  0
    3.5903    5.3138   14.6869 C   0  0  0  0  0  0  0  0  0  0  0  0
    3.2928    3.9570   14.7467 C   0  0  0  0  0  0  0  0  0  0  0  0
 15 16  1  0  0  0
 16 17  1  0  0  0
 17 18  1  0  0  0
 18 19  1  0  0  0
 19 20  1  0  0  0
 20 21  1  0  0  0
 19 13  1  0  0  0
 13  1  1  0  0  0
  1  2  2  0  0  0
  2  3  1  0  0  0
  3 23  1  0  0  0
 23 25  1  0  0  0
 25 26  1  0  0  0
 26 27  1  0  0  0
 27 28  2  0  0  0
 28 29  1  0  0  0
 29 30  2  0  0  0
 30 31  1  0  0  0
 31 32  2  0  0  0
  3  4  2  0  0  0
  4  5  1  0  0  0
  5  6  2  0  0  0
  6  7  1  0  0  0
  7  8  2  0  0  0
  8  9  1  0  0  0
  9 10  2  0  0  0
 10 11  1  0  0  0
 11 12  2  0  0  0
 21 16  1  0  0  0
  6  1  1  0  0  0
 12  7  1  0  0  0
 32 27  1  0  0  0
 15 22  1  0  0  0
 13 14  1  0  0  0
 23 24  1  0  0  0
M  END
> <minimizedAffinity>
-7.60743

> <CNNscore>
0.8951714635

> <CNNaffinity>
7.1542220116

> <CNN_VS>
6.4042553902

> <CNNaffinity_variance>
0.1672199070

$$$$
[H]OC1([H])C([H])([H])C([H])([H])C([H])(N([H])c2nc(N([H])C([H])([H])C([H])([H])c3c([H])c([H])c([H])c([H])c3[H])nc([H])c2-c2nc([H])c([H])c([H])c2[H])C([H])([H])C1([H])[H]


 32 35  0  0  0  0  0  0  0  0999 V2000
    3.3218    3.0470   17.2629 C   0  0  0  0  0  0  0  0  0  0  0  0
    3.2341    1.9533   18.0958 N   0  0  0  0  0  0  0  0  0  0  0  0
    3.0239    0.7095   17.6799 C   0  0  0  0  0  0  0  0  0  0  0  0
    2.8903    0.5149   16.3689 N   0  0  0  0  0  0  0  0  0  0  0  0
    2.9657    1.5353   15.4983 C   0  0  0  0  0  0  0  0  0  0  0  0
    3.1884    2.8599   15.9227 C   0  0  0  0  0  0  0  0  0  0  0  0
    3.2490    3.9314   14.9509 C   0  0  0  0  0  0  0  0  0  0  0  0
    3.8649    3.7235   13.7070 C   0  0  0  0  0  0  0  0  0  0  0  0
    3.9368    4.6947   12.7312 C   0  0  0  0  0  0  0  0  0  0  0  0
    3.4011    5.9272   12.9344 C   0  0  0  0  0  0  0  0  0  0  0  0
    2.7880    6.1366   14.1697 C   0  0  0  0  0  0  0  0  0  0  0  0
    2.7449    5.1620   15.0826 N   0  0  0  0  0  0  0  0  0  0  0  0
    3.4771    4.3244   17.8496 N   0  0  0  0  0  0  0  0  0  0  0  0
    2.7287    5.0027   17.9805 H   0  0  0  0  0  0  0  0  0  0  0  0
    6.0959    7.8035   19.5133 O   0  0  0  0  0  0  0  0  0  0  0  0
    6.6673    6.5201   19.4776 C   0  0  0  0  0  0  0  0  0  0  0  0
    6.7428    6.1044   18.0259 C   0  0  0  0  0  0  0  0  0  0  0  0
    5.2788    5.9052   17.5920 C   0  0  0  0  0  0  0  0  0  0  0  0
    4.8238    4.6820   18.3254 C   0  0  0  0  0  0  0  0  0  0  0  0
    4.8289    4.8242   19.7990 C   0  0  0  0  0  0  0  0  0  0  0  0
    5.9867    5.5568   20.3717 C   0  0  0  0  0  0  0  0  0  0  0  0
    6.6310    8.4211   20.0793 H   0  0  0  0  0  0  0  0  0  0  0  0
    2.9499   -0.3517   18.6291 N   0  0  0  0  0  0  0  0  0  0  0  0
    3.1597   -1.3279   18.3370 H   0  0  0  0  0  0  0  0  0  0  0  0
    2.5773   -0.0112   19.9857 C   0  0  0  0  0  0  0  0  0  0  0  0
    3.6343   -0.6076   20.9133 C   0  0  0  0  0  0  0  0  0  0  0  0
    4.3831    0.5131   21.5192 C   0  0  0  0  0  0  0  0  0  0  0  0
    5.6658    0.8367   21.1356 C   0  0  0  0  0  0  0  0  0  0  0  0
    6.3387    1.8952   21.7257 C   0  0  0  0  0  0  0  0  0  0  0  0
    5.7380    2.6490   22.7118 C   0  0  0  0  0  0  0  0  0  0  0  0
    4.4549    2.3196   23.0903 C   0  0  0  0  0  0  0  0  0  0  0  0
    3.7697    1.2604   22.5059 C   0  0  0  0  0  0  0  0  0  0  0  0
 15 16  1  0  0  0
 16 17  1  0  0  0
 17 18  1  0  0  0
 18 19  1  0  0  0
 19 20  1  0  0  0
 20 21  1  0  0  0
 19 13  1  0  0  0
 13  1  1  0  0  0
  1  2  2  0  0  0
  2  3  1  0  0  0
  3 23  1  0  0  0
 23 25  1  0  0  0
 25 26  1  0  0  0
 26 27  1  0  0  0
 27 28  2  0  0  0
 28 29  1  0  0  0
 29 30  2  0  0  0
 30 31  1  0  0  0
 31 32  2  0  0  0
  3  4  2  0  0  0
  4  5  1  0  0  0
  5  6  2  0  0  0
  6  7  1  0  0  0
  7  8  2  0  0  0
  8  9  1  0  0  0
  9 10  2  0  0  0
 10 11  1  0  0  0
 11 12  2  0  0  0
 21 16  1  0  0  0
  6  1  1  0  0  0
 12  7  1  0  0  0
 32 27  1  0  0  0
 15 22  1  0  0  0
 13 14  1  0  0  0
 23 24  1  0  0  0
M  END
> <minimizedAffinity>
-7.71853

> <CNNscore>
0.6726567149

> <CNNaffinity>
7.0570135117

> <CNN_VS>
4.7469472885

> <CNNaffinity_variance>
0.3069700599

$$$$
[H]OC1([H])C([H])([H])C([H])([H])C([H])(N([H])c2nc(N([H])C([H])([H])C([H])([H])c3c([H])c([H])c([H])c([H])c3[H])nc([H])c2-c2nc([H])c([H])c([H])c2[H])C([H])([H])C1([H])[H]


 32 35  0  0  0  0  0  0  0  0999 V2000
    3.6681    3.6048   14.3225 C   0  0  0  0  0  0  0  0  0  0  0  0
    3.9084    3.6161   15.6788 N   0  0  0  0  0  0  0  0  0  0  0  0
    3.4658    2.6938   16.5260 C   0  0  0  0  0  0  0  0  0  0  0  0
    2.7424    1.6948   16.0231 N   0  0  0  0  0  0  0  0  0  0  0  0
    2.4701    1.6197   14.7097 C   0  0  0  0  0  0  0  0  0  0  0  0
    2.9320    2.5890   13.7979 C   0  0  0  0  0  0  0  0  0  0  0  0
    2.6034    2.4761   12.3923 C   0  0  0  0  0  0  0  0  0  0  0  0
    1.3732    1.9293   11.9957 C   0  0  0  0  0  0  0  0  0  0  0  0
    0.9914    1.8139   10.6760 C   0  0  0  0  0  0  0  0  0  0  0  0
    1.8088    2.2351    9.6752 C   0  0  0  0  0  0  0  0  0  0  0  0
    3.0320    2.7795   10.0664 C   0  0  0  0  0  0  0  0  0  0  0  0
    3.3552    2.8689   11.3597 N   0  0  0  0  0  0  0  0  0  0  0  0
    4.1410    4.6909   13.5499 N   0  0  0  0  0  0  0  0  0  0  0  0
    5.0973    4.7987   13.2165 H   0  0  0  0  0  0  0  0  0  0  0  0
    2.3720    8.8198   14.7958 O   0  0  0  0  0  0  0  0  0  0  0  0
    1.9553    8.2784   13.5677 C   0  0  0  0  0  0  0  0  0  0  0  0
    1.2284    6.9880   13.8715 C   0  0  0  0  0  0  0  0  0  0  0  0
    2.3178    6.0286   14.3852 C   0  0  0  0  0  0  0  0  0  0  0  0
    3.1618    5.7284   13.1858 C   0  0  0  0  0  0  0  0  0  0  0  0
    3.8502    6.9107   12.6200 C   0  0  0  0  0  0  0  0  0  0  0  0
    3.0532    8.1632   12.5819 C   0  0  0  0  0  0  0  0  0  0  0  0
    2.1259    9.7801   14.8689 H   0  0  0  0  0  0  0  0  0  0  0  0
    3.7729    2.8016   17.9141 N   0  0  0  0  0  0  0  0  0  0  0  0
    3.3972    3.5961   18.4709 H   0  0  0  0  0  0  0  0  0  0  0  0
    4.6126    1.7759   18.4953 C   0  0  0  0  0  0  0  0  0  0  0  0
    3.8182    1.1194   19.6228 C   0  0  0  0  0  0  0  0  0  0  0  0
    4.4651    1.4861   20.8998 C   0  0  0  0  0  0  0  0  0  0  0  0
    5.8053    1.7915   20.9873 C   0  0  0  0  0  0  0  0  0  0  0  0
    6.3793    2.1314   22.2024 C   0  0  0  0  0  0  0  0  0  0  0  0
    5.6199    2.1713   23.3527 C   0  0  0  0  0  0  0  0  0  0  0  0
    4.2801    1.8647   23.2577 C   0  0  0  0  0  0  0  0  0  0  0  0
    3.6930    1.5224   22.0447 C   0  0  0  0  0  0  0  0  0  0  0  0
 15 16  1  0  0  0
 16 17  1  0  0  0
 17 18  1  0  0  0
 18 19  1  0  0  0
 19 20  1  0  0  0
 20 21  1  0  0  0
 19 13  1  0  0  0
 13  1  1  0  0  0
  1  2  2  0  0  0
  2  3  1  0  0  0
  3 23  1  0  0  0
 23 25  1  0  0  0
 25 26  1  0  0  0
 26 27  1  0  0  0
 27 28  2  0  0  0
 28 29  1  0  0  0
 29 30  2  0  0  0
 30 31  1  0  0  0
 31 32  2  0  0  0
  3  4  2  0  0  0
  4  5  1  0  0  0
  5  6  2  0  0  0
  6  7  1  0  0  0
  7  8  2  0  0  0
  8  9  1  0  0  0
  9 10  2  0  0  0
 10 11  1  0  0  0
 11 12  2  0  0  0
 21 16  1  0  0  0
  6  1  1  0  0  0
 12  7  1  0  0  0
 32 27  1  0  0  0
 15 22  1  0  0  0
 13 14  1  0  0  0
 23 24  1  0  0  0
M  END
> <minimizedAffinity>
-7.73659

> <CNNscore>
0.3725586236

> <CNNaffinity>
6.3419075012

> <CNN_VS>
2.3627324104

> <CNNaffinity_variance>
0.2465784997

$$$$
[H]OC1([H])C([H])([H])C([H])([H])C([H])(N([H])c2nc(N([H])C([H])([H])C([H])([H])c3c([H])c([H])c([H])c([H])c3[H])nc([H])c2-c2nc([H])c([H])c([H])c2[H])C([H])([H])C1([H])[H]


 32 35  0  0  0  0  0  0  0  0999 V2000
    3.7770    5.5670   20.1734 C   0  0  0  0  0  0  0  0  0  0  0  0
    3.3368    6.1223   18.9921 N   0  0  0  0  0  0  0  0  0  0  0  0
    3.2209    5.4567   17.8485 C   0  0  0  0  0  0  0  0  0  0  0  0
    3.5541    4.1670   17.8523 N   0  0  0  0  0  0  0  0  0  0  0  0
    3.9901    3.5598   18.9686 C   0  0  0  0  0  0  0  0  0  0  0  0
    4.1185    4.2509   20.1893 C   0  0  0  0  0  0  0  0  0  0  0  0
    4.6055    3.5604   21.3650 C   0  0  0  0  0  0  0  0  0  0  0  0
    5.7456    2.7459   21.2848 C   0  0  0  0  0  0  0  0  0  0  0  0
    6.2721    2.0792   22.3706 C   0  0  0  0  0  0  0  0  0  0  0  0
    5.6972    2.1836   23.5977 C   0  0  0  0  0  0  0  0  0  0  0  0
    4.5641    2.9929   23.6806 C   0  0  0  0  0  0  0  0  0  0  0  0
    4.0929    3.6179   22.5978 N   0  0  0  0  0  0  0  0  0  0  0  0
    3.9191    6.4123   21.2982 N   0  0  0  0  0  0  0  0  0  0  0  0
    3.2576    6.4747   22.0701 H   0  0  0  0  0  0  0  0  0  0  0  0
    6.1099    9.7218   23.7432 O   0  0  0  0  0  0  0  0  0  0  0  0
    6.8017    9.1462   22.6638 C   0  0  0  0  0  0  0  0  0  0  0  0
    6.0281    9.4789   21.4082 C   0  0  0  0  0  0  0  0  0  0  0  0
    4.7195    8.6752   21.5219 C   0  0  0  0  0  0  0  0  0  0  0  0
    5.1317    7.2453   21.3593 C   0  0  0  0  0  0  0  0  0  0  0  0
    6.0412    6.7543   22.4192 C   0  0  0  0  0  0  0  0  0  0  0  0
    7.0906    7.7080   22.8604 C   0  0  0  0  0  0  0  0  0  0  0  0
    6.7228   10.2400   24.3296 H   0  0  0  0  0  0  0  0  0  0  0  0
    2.7542    6.1297   16.6815 N   0  0  0  0  0  0  0  0  0  0  0  0
    2.6530    7.1651   16.6823 H   0  0  0  0  0  0  0  0  0  0  0  0
    2.4361    5.3203   15.5244 C   0  0  0  0  0  0  0  0  0  0  0  0
    2.2697    6.2663   14.3367 C   0  0  0  0  0  0  0  0  0  0  0  0
    0.9374    6.0169   13.7479 C   0  0  0  0  0  0  0  0  0  0  0  0
   -0.1628    6.7846   14.0597 C   0  0  0  0  0  0  0  0  0  0  0  0
   -1.3980    6.5221   13.4881 C   0  0  0  0  0  0  0  0  0  0  0  0
   -1.5531    5.4846   12.5931 C   0  0  0  0  0  0  0  0  0  0  0  0
   -0.4483    4.7210   12.2859 C   0  0  0  0  0  0  0  0  0  0  0  0
    0.7957    4.9745   12.8526 C   0  0  0  0  0  0  0  0  0  0  0  0
 15 16  1  0  0  0
 16 17  1  0  0  0
 17 18  1  0  0  0
 18 19  1  0  0  0
 19 20  1  0  0  0
 20 21  1  0  0  0
 19 13  1  0  0  0
 13  1  1  0  0  0
  1  2  2  0  0  0
  2  3  1  0  0  0
  3 23  1  0  0  0
 23 25  1  0  0  0
 25 26  1  0  0  0
 26 27  1  0  0  0
 27 28  2  0  0  0
 28 29  1  0  0  0
 29 30  2  0  0  0
 30 31  1  0  0  0
 31 32  2  0  0  0
  3  4  2  0  0  0
  4  5  1  0  0  0
  5  6  2  0  0  0
  6  7  1  0  0  0
  7  8  2  0  0  0
  8  9  1  0  0  0
  9 10  2  0  0  0
 10 11  1  0  0  0
 11 12  2  0  0  0
 21 16  1  0  0  0
  6  1  1  0  0  0
 12  7  1  0  0  0
 32 27  1  0  0  0
 15 22  1  0  0  0
 13 14  1  0  0  0
 23 24  1  0  0  0
M  END
> <minimizedAffinity>
-8.87838

> <CNNscore>
0.3107617497

> <CNNaffinity>
6.0441923141

> <CNN_VS>
1.8783037663

> <CNNaffinity_variance>
0.3150169551

$$$$
[H]OC1([H])C([H])([H])C([H])([H])C([H])(N([H])c2nc(N([H])C([H])([H])C([H])([H])c3c([H])c([H])c([H])c([H])c3[H])nc([H])c2-c2nc([H])c([H])c([H])c2[H])C([H])([H])C1([H])[H]


 32 35  0  0  0  0  0  0  0  0999 V2000
    3.6931    3.7947   14.6387 C   0  0  0  0  0  0  0  0  0  0  0  0
    3.9268    3.4571   15.9536 N   0  0  0  0  0  0  0  0  0  0  0  0
    3.4535    2.3645   16.5424 C   0  0  0  0  0  0  0  0  0  0  0  0
    2.7043    1.5458   15.8057 N   0  0  0  0  0  0  0  0  0  0  0  0
    2.4366    1.8117   14.5164 C   0  0  0  0  0  0  0  0  0  0  0  0
    2.9308    2.9655   13.8770 C   0  0  0  0  0  0  0  0  0  0  0  0
    2.6062    3.2199   12.4890 C   0  0  0  0  0  0  0  0  0  0  0  0
    1.2676    3.2368   12.0678 C   0  0  0  0  0  0  0  0  0  0  0  0
    0.8912    3.4937   10.7667 C   0  0  0  0  0  0  0  0  0  0  0  0
    1.8222    3.7489    9.8099 C   0  0  0  0  0  0  0  0  0  0  0  0
    3.1536    3.7332   10.2257 C   0  0  0  0  0  0  0  0  0  0  0  0
    3.4663    3.4784   11.4995 N   0  0  0  0  0  0  0  0  0  0  0  0
    4.2009    5.0261   14.1635 N   0  0  0  0  0  0  0  0  0  0  0  0
    5.0344    5.1317   13.5879 H   0  0  0  0  0  0  0  0  0  0  0  0
    3.9559    9.6377   13.5288 O   0  0  0  0  0  0  0  0  0  0  0  0
    2.9163    9.0249   14.2490 C   0  0  0  0  0  0  0  0  0  0  0  0
    3.5264    8.4351   15.5004 C   0  0  0  0  0  0  0  0  0  0  0  0
    4.4100    7.2757   15.0043 C   0  0  0  0  0  0  0  0  0  0  0  0
    3.4459    6.2404   14.5145 C   0  0  0  0  0  0  0  0  0  0  0  0
    2.6167    6.6805   13.3697 C   0  0  0  0  0  0  0  0  0  0  0  0
    2.1229    8.0796   13.4321 C   0  0  0  0  0  0  0  0  0  0  0  0
    3.7094   10.5608   13.2544 H   0  0  0  0  0  0  0  0  0  0  0  0
    3.7565    2.1104   17.9121 N   0  0  0  0  0  0  0  0  0  0  0  0
    3.6053    1.1620   18.3122 H   0  0  0  0  0  0  0  0  0  0  0  0
    4.2720    3.2106   18.6987 C   0  0  0  0  0  0  0  0  0  0  0  0
    5.1520    2.6151   19.7961 C   0  0  0  0  0  0  0  0  0  0  0  0
    4.7062    3.1822   21.0858 C   0  0  0  0  0  0  0  0  0  0  0  0
    4.7153    2.4540   22.2549 C   0  0  0  0  0  0  0  0  0  0  0  0
    4.2898    3.0183   23.4473 C   0  0  0  0  0  0  0  0  0  0  0  0
    3.8471    4.3235   23.4898 C   0  0  0  0  0  0  0  0  0  0  0  0
    3.8408    5.0459   22.3166 C   0  0  0  0  0  0  0  0  0  0  0  0
    4.2651    4.4910   21.1145 C   0  0  0  0  0  0  0  0  0  0  0  0
 15 16  1  0  0  0
 16 17  1  0  0  0
 17 18  1  0  0  0
 18 19  1  0  0  0
 19 20  1  0  0  0
 20 21  1  0  0  0
 19 13  1  0  0  0
 13  1  1  0  0  0
  1  2  2  0  0  0
  2  3  1  0  0  0
  3 23  1  0  0  0
 23 25  1  0  0  0
 25 26  1  0  0  0
 26 27  1  0  0  0
 27 28  2  0  0  0
 28 29  1  0  0  0
 29 30  2  0  0  0
 30 31  1  0  0  0
 31 32  2  0  0  0
  3  4  2  0  0  0
  4  5  1  0  0  0
  5  6  2  0  0  0
  6  7  1  0  0  0
  7  8  2  0  0  0
  8  9  1  0  0  0
  9 10  2  0  0  0
 10 11  1  0  0  0
 11 12  2  0  0  0
 21 16  1  0  0  0
  6  1  1  0  0  0
 12  7  1  0  0  0
 32 27  1  0  0  0
 15 22  1  0  0  0
 13 14  1  0  0  0
 23 24  1  0  0  0
M  END
> <minimizedAffinity>
-7.06671

> <CNNscore>
0.2951495349

> <CNNaffinity>
6.1321821213

> <CNN_VS>
1.8099106550

> <CNNaffinity_variance>
0.6608640552

$$$$
[H]OC1([H])C([H])([H])C([H])([H])C([H])(N([H])c2nc(N([H])C([H])([H])C([H])([H])c3c([H])c([H])c([H])c([H])c3[H])nc([H])c2-c2nc([H])c([H])c([H])c2[H])C([H])([H])C1([H])[H]


 32 35  0  0  0  0  0  0  0  0999 V2000
    2.6430    4.5871   16.4394 C   0  0  0  0  0  0  0  0  0  0  0  0
    2.9755    3.4073   17.0679 N   0  0  0  0  0  0  0  0  0  0  0  0
    3.0230    2.2246   16.4652 C   0  0  0  0  0  0  0  0  0  0  0  0
    2.7285    2.1851   15.1667 N   0  0  0  0  0  0  0  0  0  0  0  0
    2.3967    3.2970   14.4898 C   0  0  0  0  0  0  0  0  0  0  0  0
    2.3419    4.5588   15.1137 C   0  0  0  0  0  0  0  0  0  0  0  0
    1.9663    5.7294   14.3489 C   0  0  0  0  0  0  0  0  0  0  0  0
    0.7943    5.7232   13.5769 C   0  0  0  0  0  0  0  0  0  0  0  0
    0.3701    6.8111   12.8440 C   0  0  0  0  0  0  0  0  0  0  0  0
    1.0849    7.9671   12.8362 C   0  0  0  0  0  0  0  0  0  0  0  0
    2.2500    7.9764   13.6030 C   0  0  0  0  0  0  0  0  0  0  0  0
    2.6181    6.8948   14.2957 N   0  0  0  0  0  0  0  0  0  0  0  0
    2.5629    5.7627   17.2215 N   0  0  0  0  0  0  0  0  0  0  0  0
    1.7647    6.3947   17.2472 H   0  0  0  0  0  0  0  0  0  0  0  0
    4.1478    8.6471   20.5228 O   0  0  0  0  0  0  0  0  0  0  0  0
    4.9565    7.5519   20.1741 C   0  0  0  0  0  0  0  0  0  0  0  0
    5.3462    7.7274   18.7239 C   0  0  0  0  0  0  0  0  0  0  0  0
    4.0393    7.5303   17.9337 C   0  0  0  0  0  0  0  0  0  0  0  0
    3.7186    6.0752   18.0786 C   0  0  0  0  0  0  0  0  0  0  0  0
    3.4566    5.6501   19.4722 C   0  0  0  0  0  0  0  0  0  0  0  0
    4.3408    6.2473   20.5050 C   0  0  0  0  0  0  0  0  0  0  0  0
    4.4531    9.0654   21.3712 H   0  0  0  0  0  0  0  0  0  0  0  0
    3.3795    1.0633   17.2114 N   0  0  0  0  0  0  0  0  0  0  0  0
    2.9256    0.1505   17.0037 H   0  0  0  0  0  0  0  0  0  0  0  0
    4.3797    1.2142   18.2468 C   0  0  0  0  0  0  0  0  0  0  0  0
    3.7087    0.8924   19.5808 C   0  0  0  0  0  0  0  0  0  0  0  0
    4.5600    1.4436   20.6556 C   0  0  0  0  0  0  0  0  0  0  0  0
    5.8155    0.9482   20.9300 C   0  0  0  0  0  0  0  0  0  0  0  0
    6.5870    1.4898   21.9463 C   0  0  0  0  0  0  0  0  0  0  0  0
    6.1140    2.5384   22.7065 C   0  0  0  0  0  0  0  0  0  0  0  0
    4.8574    3.0289   22.4263 C   0  0  0  0  0  0  0  0  0  0  0  0
    4.0741    2.4941   21.4096 C   0  0  0  0  0  0  0  0  0  0  0  0
 15 16  1  0  0  0
 16 17  1  0  0  0
 17 18  1  0  0  0
 18 19  1  0  0  0
 19 20  1  0  0  0
 20 21  1  0  0  0
 19 13  1  0  0  0
 13  1  1  0  0  0
  1  2  2  0  0  0
  2  3  1  0  0  0
  3 23  1  0  0  0
 23 25  1  0  0  0
 25 26  1  0  0  0
 26 27  1  0  0  0
 27 28  2  0  0  0
 28 29  1  0  0  0
 29 30  2  0  0  0
 30 31  1  0  0  0
 31 32  2  0  0  0
  3  4  2  0  0  0
  4  5  1  0  0  0
  5  6  2  0  0  0
  6  7  1  0  0  0
  7  8  2  0  0  0
  8  9  1  0  0  0
  9 10  2  0  0  0
 10 11  1  0  0  0
 11 12  2  0  0  0
 21 16  1  0  0  0
  6  1  1  0  0  0
 12  7  1  0  0  0
 32 27  1  0  0  0
 15 22  1  0  0  0
 13 14  1  0  0  0
 23 24  1  0  0  0
M  END
> <minimizedAffinity>
-8.15237

> <CNNscore>
0.2723531425

> <CNNaffinity>
6.3072633743

> <CNN_VS>
1.7178030014

> <CNNaffinity_variance>
0.5023299456

$$$$
[H]OC1([H])C([H])([H])C([H])([H])C([H])(N([H])c2nc(N([H])C([H])([H])C([H])([H])c3c([H])c([H])c([H])c([H])c3[H])nc([H])c2-c2nc([H])c([H])c([H])c2[H])C([H])([H])C1([H])[H]


 32 35  0  0  0  0  0  0  0  0999 V2000
    3.8928    3.8310   18.8767 C   0  0  0  0  0  0  0  0  0  0  0  0
    3.7450    3.8747   17.5079 N   0  0  0  0  0  0  0  0  0  0  0  0
    3.9373    2.8382   16.6998 C   0  0  0  0  0  0  0  0  0  0  0  0
    4.2966    1.6832   17.2578 N   0  0  0  0  0  0  0  0  0  0  0  0
    4.4581    1.5678   18.5864 C   0  0  0  0  0  0  0  0  0  0  0  0
    4.2579    2.6568   19.4572 C   0  0  0  0  0  0  0  0  0  0  0  0
    4.4564    2.4913   20.8818 C   0  0  0  0  0  0  0  0  0  0  0  0
    3.6932    1.5561   21.5979 C   0  0  0  0  0  0  0  0  0  0  0  0
    3.8482    1.3353   22.9498 C   0  0  0  0  0  0  0  0  0  0  0  0
    4.7699    2.0299   23.6677 C   0  0  0  0  0  0  0  0  0  0  0  0
    5.5303    2.9597   22.9586 C   0  0  0  0  0  0  0  0  0  0  0  0
    5.3411    3.1365   21.6479 N   0  0  0  0  0  0  0  0  0  0  0  0
    3.7252    5.0307   19.6067 N   0  0  0  0  0  0  0  0  0  0  0  0
    3.0718    5.1599   20.3771 H   0  0  0  0  0  0  0  0  0  0  0  0
    4.6530    9.5146   20.4804 O   0  0  0  0  0  0  0  0  0  0  0  0
    5.5031    8.8368   19.5899 C   0  0  0  0  0  0  0  0  0  0  0  0
    4.6670    8.4248   18.3995 C   0  0  0  0  0  0  0  0  0  0  0  0
    3.7087    7.3472   18.9398 C   0  0  0  0  0  0  0  0  0  0  0  0
    4.5826    6.1670   19.2307 C   0  0  0  0  0  0  0  0  0  0  0  0
    5.6009    6.4124   20.2768 C   0  0  0  0  0  0  0  0  0  0  0  0
    6.2625    7.7412   20.2329 C   0  0  0  0  0  0  0  0  0  0  0  0
    5.0514   10.3766   20.7742 H   0  0  0  0  0  0  0  0  0  0  0  0
    3.7569    2.9930   15.2941 N   0  0  0  0  0  0  0  0  0  0  0  0
    3.6071    2.1575   14.6926 H   0  0  0  0  0  0  0  0  0  0  0  0
    3.7918    4.3375   14.7590 C   0  0  0  0  0  0  0  0  0  0  0  0
    3.4220    4.2503   13.2795 C   0  0  0  0  0  0  0  0  0  0  0  0
    2.3782    5.2631   13.0176 C   0  0  0  0  0  0  0  0  0  0  0  0
    1.5937    5.2388   11.8858 C   0  0  0  0  0  0  0  0  0  0  0  0
    0.6234    6.2055   11.6724 C   0  0  0  0  0  0  0  0  0  0  0  0
    0.4218    7.2148   12.5900 C   0  0  0  0  0  0  0  0  0  0  0  0
    1.2101    7.2328   13.7198 C   0  0  0  0  0  0  0  0  0  0  0  0
    2.1864    6.2688   13.9450 C   0  0  0  0  0  0  0  0  0  0  0  0
 15 16  1  0  0  0
 16 17  1  0  0  0
 17 18  1  0  0  0
 18 19  1  0  0  0
 19 20  1  0  0  0
 20 21  1  0  0  0
 19 13  1  0  0  0
 13  1  1  0  0  0
  1  2  2  0  0  0
  2  3  1  0  0  0
  3 23  1  0  0  0
 23 25  1  0  0  0
 25 26  1  0  0  0
 26 27  1  0  0  0
 27 28  2  0  0  0
 28 29  1  0  0  0
 29 30  2  0  0  0
 30 31  1  0  0  0
 31 32  2  0  0  0
  3  4  2  0  0  0
  4  5  1  0  0  0
  5  6  2  0  0  0
  6  7  1  0  0  0
  7  8  2  0  0  0
  8  9  1  0  0  0
  9 10  2  0  0  0
 10 11  1  0  0  0
 11 12  2  0  0  0
 21 16  1  0  0  0
  6  1  1  0  0  0
 12  7  1  0  0  0
 32 27  1  0  0  0
 15 22  1  0  0  0
 13 14  1  0  0  0
 23 24  1  0  0  0
M  END
> <minimizedAffinity>
-7.47313

> <CNNscore>
0.2633399367

> <CNNaffinity>
6.1422829628

> <CNN_VS>
1.6175084114

> <CNNaffinity_variance>
0.6127384305

$$$$
[H]OC1([H])C([H])([H])C([H])([H])C([H])(N([H])c2nc(N([H])C([H])([H])C([H])([H])c3c([H])c([H])c([H])c([H])c3[H])nc([H])c2-c2nc([H])c([H])c([H])c2[H])C([H])([H])C1([H])[H]


 32 35  0  0  0  0  0  0  0  0999 V2000
    3.8146    5.7652   20.1256 C   0  0  0  0  0  0  0  0  0  0  0  0
    3.4173    6.2929   18.9167 N   0  0  0  0  0  0  0  0  0  0  0  0
    3.2535    5.5825   17.8065 C   0  0  0  0  0  0  0  0  0  0  0  0
    3.4907    4.2735   17.8746 N   0  0  0  0  0  0  0  0  0  0  0  0
    3.8800    3.6912   19.0210 C   0  0  0  0  0  0  0  0  0  0  0  0
    4.0582    4.4299   20.2071 C   0  0  0  0  0  0  0  0  0  0  0  0
    4.4921    3.7638   21.4172 C   0  0  0  0  0  0  0  0  0  0  0  0
    5.6543    2.9770   21.4130 C   0  0  0  0  0  0  0  0  0  0  0  0
    6.1324    2.3348   22.5353 C   0  0  0  0  0  0  0  0  0  0  0  0
    5.4843    2.4375   23.7256 C   0  0  0  0  0  0  0  0  0  0  0  0
    4.3291    3.2192   23.7329 C   0  0  0  0  0  0  0  0  0  0  0  0
    3.9070    3.8212   22.6172 N   0  0  0  0  0  0  0  0  0  0  0  0
    4.0178    6.6518   21.2085 N   0  0  0  0  0  0  0  0  0  0  0  0
    3.4128    6.7267   22.0243 H   0  0  0  0  0  0  0  0  0  0  0  0
    6.4909    9.8374   23.5464 O   0  0  0  0  0  0  0  0  0  0  0  0
    7.0241    9.3606   22.3368 C   0  0  0  0  0  0  0  0  0  0  0  0
    6.0664    9.7609   21.2374 C   0  0  0  0  0  0  0  0  0  0  0  0
    4.8034    8.9144   21.4817 C   0  0  0  0  0  0  0  0  0  0  0  0
    5.2114    7.5121   21.1529 C   0  0  0  0  0  0  0  0  0  0  0  0
    6.2769    6.9720   22.0273 C   0  0  0  0  0  0  0  0  0  0  0  0
    7.3637    7.9207   22.3797 C   0  0  0  0  0  0  0  0  0  0  0  0
    7.1753   10.3291   24.0735 H   0  0  0  0  0  0  0  0  0  0  0  0
    2.8385    6.2301   16.6061 N   0  0  0  0  0  0  0  0  0  0  0  0
    3.0259    7.2443   16.4693 H   0  0  0  0  0  0  0  0  0  0  0  0
    2.1601    5.4259   15.6120 C   0  0  0  0  0  0  0  0  0  0  0  0
    1.9548    6.3021   14.3777 C   0  0  0  0  0  0  0  0  0  0  0  0
    2.9913    5.9359   13.3902 C   0  0  0  0  0  0  0  0  0  0  0  0
    3.6277    6.8727   12.6062 C   0  0  0  0  0  0  0  0  0  0  0  0
    4.5958    6.4933   11.6896 C   0  0  0  0  0  0  0  0  0  0  0  0
    4.9439    5.1672   11.5418 C   0  0  0  0  0  0  0  0  0  0  0  0
    4.3033    4.2358   12.3293 C   0  0  0  0  0  0  0  0  0  0  0  0
    3.3308    4.6040   13.2522 C   0  0  0  0  0  0  0  0  0  0  0  0
 15 16  1  0  0  0
 16 17  1  0  0  0
 17 18  1  0  0  0
 18 19  1  0  0  0
 19 20  1  0  0  0
 20 21  1  0  0  0
 19 13  1  0  0  0
 13  1  1  0  0  0
  1  2  2  0  0  0
  2  3  1  0  0  0
  3 23  1  0  0  0
 23 25  1  0  0  0
 25 26  1  0  0  0
 26 27  1  0  0  0
 27 28  2  0  0  0
 28 29  1  0  0  0
 29 30  2  0  0  0
 30 31  1  0  0  0
 31 32  2  0  0  0
  3  4  2  0  0  0
  4  5  1  0  0  0
  5  6  2  0  0  0
  6  7  1  0  0  0
  7  8  2  0  0  0
  8  9  1  0  0  0
  9 10  2  0  0  0
 10 11  1  0  0  0
 11 12  2  0  0  0
 21 16  1  0  0  0
  6  1  1  0  0  0
 12  7  1  0  0  0
 32 27  1  0  0  0
 15 22  1  0  0  0
 13 14  1  0  0  0
 23 24  1  0  0  0
M  END
> <minimizedAffinity>
-8.06293

> <CNNscore>
0.2421752661

> <CNNaffinity>
5.9397268295

> <CNN_VS>
1.4384548664

> <CNNaffinity_variance>
0.3930084705

$$$$
[H]c1c([H])c([H])c(-c2nn(C([H])([H])C3([H])C([H])([H])C([H])([H])C([H])(N([H])[H])C([H])([H])C3([H])[H])c3nc(N([H])C([H])(C([H])([H])[H])C([H])([H])[H])nc([H])c23)c([H])c1[H]


 30 33  0  0  0  0  0  0  0  0999 V2000
    3.7773    1.5564   18.4460 C   0  0  0  0  0  0  0  0  0  0  0  0
    3.5110    0.8504   17.3414 N   0  0  0  0  0  0  0  0  0  0  0  0
    3.4500    1.4574   16.1418 C   0  0  0  0  0  0  0  0  0  0  0  0
    3.6587    2.8079   16.0265 C   0  0  0  0  0  0  0  0  0  0  0  0
    3.6643    3.6963   14.9719 C   0  0  0  0  0  0  0  0  0  0  0  0
    3.9377    4.8938   15.5222 N   0  0  0  0  0  0  0  0  0  0  0  0
    4.0978    4.7984   16.8275 N   0  0  0  0  0  0  0  0  0  0  0  0
    3.9323    3.5040   17.1976 C   0  0  0  0  0  0  0  0  0  0  0  0
    3.9944    2.9026   18.3983 N   0  0  0  0  0  0  0  0  0  0  0  0
    3.4226    3.3784   13.5649 C   0  0  0  0  0  0  0  0  0  0  0  0
    4.0460    4.1114   12.5596 C   0  0  0  0  0  0  0  0  0  0  0  0
    3.8588    3.8624   11.2251 C   0  0  0  0  0  0  0  0  0  0  0  0
    3.0118    2.8354   10.8348 C   0  0  0  0  0  0  0  0  0  0  0  0
    2.3779    2.0891   11.8035 C   0  0  0  0  0  0  0  0  0  0  0  0
    2.5864    2.3641   13.1483 C   0  0  0  0  0  0  0  0  0  0  0  0
    3.8317    0.8782   19.6846 N   0  0  0  0  0  0  0  0  0  0  0  0
    3.5096   -0.1313   19.7251 H   0  0  0  0  0  0  0  0  0  0  0  0
    3.4219    1.1879   22.0618 C   0  0  0  0  0  0  0  0  0  0  0  0
    4.3165    1.5472   20.8716 C   0  0  0  0  0  0  0  0  0  0  0  0
    5.7055    1.0276   21.1586 C   0  0  0  0  0  0  0  0  0  0  0  0
    4.4027    5.8585   17.7822 C   0  0  0  0  0  0  0  0  0  0  0  0
    5.7859    6.4444   17.5146 C   0  0  0  0  0  0  0  0  0  0  0  0
    5.6076    7.8167   16.9848 C   0  0  0  0  0  0  0  0  0  0  0  0
    6.1271    8.8874   17.9405 C   0  0  0  0  0  0  0  0  0  0  0  0
    7.6098    8.5480   18.0866 C   0  0  0  0  0  0  0  0  0  0  0  0
    8.2613    9.6385   18.7672 N   0  0  0  0  0  0  0  0  0  0  0  0
    7.6906    7.3228   18.9233 C   0  0  0  0  0  0  0  0  0  0  0  0
    6.6454    6.3111   18.7179 C   0  0  0  0  0  0  0  0  0  0  0  0
    8.7135   10.2402   18.0422 H   0  0  0  0  0  0  0  0  0  0  0  0
    7.5430   10.2317   19.2439 H   0  0  0  0  0  0  0  0  0  0  0  0
 18 19  1  0  0  0
 19 20  1  0  0  0
 19 16  1  0  0  0
 16  1  1  0  0  0
  1  2  2  0  0  0
  2  3  1  0  0  0
  3  4  2  0  0  0
  4  5  1  0  0  0
  5  6  2  0  0  0
  6  7  1  0  0  0
  7 21  1  0  0  0
 21 22  1  0  0  0
 22 23  1  0  0  0
 23 24  1  0  0  0
 24 25  1  0  0  0
 25 26  1  0  0  0
 25 27  1  0  0  0
 27 28  1  0  0  0
  7  8  1  0  0  0
  8  9  2  0  0  0
  5 10  1  0  0  0
 10 11  2  0  0  0
 11 12  1  0  0  0
 12 13  2  0  0  0
 13 14  1  0  0  0
 14 15  2  0  0  0
  9  1  1  0  0  0
 15 10  1  0  0  0
  8  4  1  0  0  0
 28 22  1  0  0  0
 16 17  1  0  0  0
 26 29  1  0  0  0
 26 30  1  0  0  0
M  END
> <minimizedAffinity>
-7.48542

> <CNNscore>
0.6146682501

> <CNNaffinity>
6.5464920998

> <CNN_VS>
4.0239210129

> <CNNaffinity_variance>
0.5315914154

$$$$
[H]c1c([H])c([H])c(-c2nn(C([H])([H])C3([H])C([H])([H])C([H])([H])C([H])(N([H])[H])C([H])([H])C3([H])[H])c3nc(N([H])C([H])(C([H])([H])[H])C([H])([H])[H])nc([H])c23)c([H])c1[H]


 30 33  0  0  0  0  0  0  0  0999 V2000
    3.3838    2.3077   15.1669 C   0  0  0  0  0  0  0  0  0  0  0  0
    2.8430    1.4104   15.9986 N   0  0  0  0  0  0  0  0  0  0  0  0
    3.1297    1.4389   17.3133 C   0  0  0  0  0  0  0  0  0  0  0  0
    3.9794    2.3851   17.8266 C   0  0  0  0  0  0  0  0  0  0  0  0
    4.4569    2.6694   19.0885 C   0  0  0  0  0  0  0  0  0  0  0  0
    5.2642    3.7343   18.9274 N   0  0  0  0  0  0  0  0  0  0  0  0
    5.3119    4.1158   17.6661 N   0  0  0  0  0  0  0  0  0  0  0  0
    4.5194    3.2982   16.9290 C   0  0  0  0  0  0  0  0  0  0  0  0
    4.2363    3.2741   15.6150 N   0  0  0  0  0  0  0  0  0  0  0  0
    4.1373    1.9517   20.3221 C   0  0  0  0  0  0  0  0  0  0  0  0
    4.2004    2.6005   21.5516 C   0  0  0  0  0  0  0  0  0  0  0  0
    3.9141    1.9820   22.7405 C   0  0  0  0  0  0  0  0  0  0  0  0
    3.5414    0.6457   22.7422 C   0  0  0  0  0  0  0  0  0  0  0  0
    3.4686   -0.0279   21.5429 C   0  0  0  0  0  0  0  0  0  0  0  0
    3.7644    0.6244   20.3536 C   0  0  0  0  0  0  0  0  0  0  0  0
    3.0551    2.2406   13.7941 N   0  0  0  0  0  0  0  0  0  0  0  0
    2.9649    1.2867   13.3399 H   0  0  0  0  0  0  0  0  0  0  0  0
    2.7015    3.0906   11.5431 C   0  0  0  0  0  0  0  0  0  0  0  0
    2.8461    3.4477   13.0255 C   0  0  0  0  0  0  0  0  0  0  0  0
    1.5474    4.0674   13.4847 C   0  0  0  0  0  0  0  0  0  0  0  0
    6.0655    5.2198   17.0820 C   0  0  0  0  0  0  0  0  0  0  0  0
    5.9238    6.4792   17.9316 C   0  0  0  0  0  0  0  0  0  0  0  0
    4.4793    6.7180   18.1599 C   0  0  0  0  0  0  0  0  0  0  0  0
    4.0805    6.5512   19.6238 C   0  0  0  0  0  0  0  0  0  0  0  0
    4.9268    7.5981   20.3469 C   0  0  0  0  0  0  0  0  0  0  0  0
    4.4535    7.7078   21.7036 N   0  0  0  0  0  0  0  0  0  0  0  0
    6.3248    7.0947   20.3491 C   0  0  0  0  0  0  0  0  0  0  0  0
    6.7737    6.3824   19.1453 C   0  0  0  0  0  0  0  0  0  0  0  0
    3.8159    8.5345   21.7513 H   0  0  0  0  0  0  0  0  0  0  0  0
    3.8748    6.8686   21.9406 H   0  0  0  0  0  0  0  0  0  0  0  0
 18 19  1  0  0  0
 19 20  1  0  0  0
 19 16  1  0  0  0
 16  1  1  0  0  0
  1  2  2  0  0  0
  2  3  1  0  0  0
  3  4  2  0  0  0
  4  5  1  0  0  0
  5  6  2  0  0  0
  6  7  1  0  0  0
  7 21  1  0  0  0
 21 22  1  0  0  0
 22 23  1  0  0  0
 23 24  1  0  0  0
 24 25  1  0  0  0
 25 26  1  0  0  0
 25 27  1  0  0  0
 27 28  1  0  0  0
  7  8  1  0  0  0
  8  9  2  0  0  0
  5 10  1  0  0  0
 10 11  2  0  0  0
 11 12  1  0  0  0
 12 13  2  0  0  0
 13 14  1  0  0  0
 14 15  2  0  0  0
  9  1  1  0  0  0
 15 10  1  0  0  0
  8  4  1  0  0  0
 28 22  1  0  0  0
 16 17  1  0  0  0
 26 29  1  0  0  0
 26 30  1  0  0  0
M  END
> <minimizedAffinity>
-8.13791

> <CNNscore>
0.5292800069

> <CNNaffinity>
6.6435384750

> <CNN_VS>
3.5162920952

> <CNNaffinity_variance>
0.3223003745

$$$$
[H]c1c([H])c([H])c(-c2nn(C([H])([H])C3([H])C([H])([H])C([H])([H])C([H])(N([H])[H])C([H])([H])C3([H])[H])c3nc(N([H])C([H])(C([H])([H])[H])C([H])([H])[H])nc([H])c23)c([H])c1[H]


 30 33  0  0  0  0  0  0  0  0999 V2000
    4.1943    4.0415   16.3622 C   0  0  0  0  0  0  0  0  0  0  0  0
    3.7141    3.1285   17.2138 N   0  0  0  0  0  0  0  0  0  0  0  0
    4.0749    3.1481   18.5103 C   0  0  0  0  0  0  0  0  0  0  0  0
    4.9396    4.1012   18.9843 C   0  0  0  0  0  0  0  0  0  0  0  0
    5.4844    4.3799   20.2200 C   0  0  0  0  0  0  0  0  0  0  0  0
    6.2667    5.4576   20.0245 N   0  0  0  0  0  0  0  0  0  0  0  0
    6.2371    5.8520   18.7667 N   0  0  0  0  0  0  0  0  0  0  0  0
    5.4150    5.0306   18.0672 C   0  0  0  0  0  0  0  0  0  0  0  0
    5.0577    5.0154   16.7713 N   0  0  0  0  0  0  0  0  0  0  0  0
    5.2456    3.6456   21.4621 C   0  0  0  0  0  0  0  0  0  0  0  0
    3.9601    3.5455   21.9857 C   0  0  0  0  0  0  0  0  0  0  0  0
    3.6737    2.8729   23.1448 C   0  0  0  0  0  0  0  0  0  0  0  0
    4.6986    2.2547   23.8462 C   0  0  0  0  0  0  0  0  0  0  0  0
    5.9838    2.3335   23.3568 C   0  0  0  0  0  0  0  0  0  0  0  0
    6.2445    3.0219   22.1797 C   0  0  0  0  0  0  0  0  0  0  0  0
    3.7887    3.9832   15.0097 N   0  0  0  0  0  0  0  0  0  0  0  0
    4.4340    4.3819   14.2688 H   0  0  0  0  0  0  0  0  0  0  0  0
    1.7507    4.3554   13.7359 C   0  0  0  0  0  0  0  0  0  0  0  0
    2.5204    3.3920   14.6445 C   0  0  0  0  0  0  0  0  0  0  0  0
    2.8074    2.1361   13.8558 C   0  0  0  0  0  0  0  0  0  0  0  0
    6.9410    6.9724   18.1523 C   0  0  0  0  0  0  0  0  0  0  0  0
    6.2293    8.2879   18.4541 C   0  0  0  0  0  0  0  0  0  0  0  0
    5.3826    8.6291   17.2869 C   0  0  0  0  0  0  0  0  0  0  0  0
    3.8913    8.5774   17.6078 C   0  0  0  0  0  0  0  0  0  0  0  0
    3.7284    9.6122   18.7203 C   0  0  0  0  0  0  0  0  0  0  0  0
    2.3204    9.8340   18.9329 N   0  0  0  0  0  0  0  0  0  0  0  0
    4.3280    9.0244   19.9462 C   0  0  0  0  0  0  0  0  0  0  0  0
    5.5396    8.2132   19.7668 C   0  0  0  0  0  0  0  0  0  0  0  0
    2.0535   10.6999   18.4122 H   0  0  0  0  0  0  0  0  0  0  0  0
    1.7750    9.0483   18.5080 H   0  0  0  0  0  0  0  0  0  0  0  0
 18 19  1  0  0  0
 19 20  1  0  0  0
 19 16  1  0  0  0
 16  1  1  0  0  0
  1  2  2  0  0  0
  2  3  1  0  0  0
  3  4  2  0  0  0
  4  5  1  0  0  0
  5  6  2  0  0  0
  6  7  1  0  0  0
  7 21  1  0  0  0
 21 22  1  0  0  0
 22 23  1  0  0  0
 23 24  1  0  0  0
 24 25  1  0  0  0
 25 26  1  0  0  0
 25 27  1  0  0  0
 27 28  1  0  0  0
  7  8  1  0  0  0
  8  9  2  0  0  0
  5 10  1  0  0  0
 10 11  2  0  0  0
 11 12  1  0  0  0
 12 13  2  0  0  0
 13 14  1  0  0  0
 14 15  2  0  0  0
  9  1  1  0  0  0
 15 10  1  0  0  0
  8  4  1  0  0  0
 28 22  1  0  0  0
 16 17  1  0  0  0
 26 29  1  0  0  0
 26 30  1  0  0  0
M  END
> <minimizedAffinity>
-7.33792

> <CNNscore>
0.3142776489

> <CNNaffinity>
6.1049304008

> <CNN_VS>
1.9186431170

> <CNNaffinity_variance>
0.3993960023

$$$$
[H]c1c([H])c([H])c(-c2nn(C([H])([H])C3([H])C([H])([H])C([H])([H])C([H])(N([H])[H])C([H])([H])C3([H])[H])c3nc(N([H])C([H])(C([H])([H])[H])C([H])([H])[H])nc([H])c23)c([H])c1[H]


 30 33  0  0  0  0  0  0  0  0999 V2000
    3.7493    5.8570   19.2827 C   0  0  0  0  0  0  0  0  0  0  0  0
    3.5105    6.3022   18.0441 N   0  0  0  0  0  0  0  0  0  0  0  0
    3.4382    5.4417   17.0118 C   0  0  0  0  0  0  0  0  0  0  0  0
    3.6072    4.0948   17.2069 C   0  0  0  0  0  0  0  0  0  0  0  0
    3.5916    2.9912   16.3804 C   0  0  0  0  0  0  0  0  0  0  0  0
    3.8254    1.9419   17.1902 N   0  0  0  0  0  0  0  0  0  0  0  0
    3.9812    2.3254   18.4422 N   0  0  0  0  0  0  0  0  0  0  0  0
    3.8532    3.6741   18.5083 C   0  0  0  0  0  0  0  0  0  0  0  0
    3.9265    4.5294   19.5429 N   0  0  0  0  0  0  0  0  0  0  0  0
    3.3657    2.9892   14.9354 C   0  0  0  0  0  0  0  0  0  0  0  0
    2.5485    2.0263   14.3511 C   0  0  0  0  0  0  0  0  0  0  0  0
    2.2997    1.9719   13.0046 C   0  0  0  0  0  0  0  0  0  0  0  0
    2.8798    2.9117   12.1650 C   0  0  0  0  0  0  0  0  0  0  0  0
    3.6947    3.8796   12.7093 C   0  0  0  0  0  0  0  0  0  0  0  0
    3.9289    3.9103   14.0775 C   0  0  0  0  0  0  0  0  0  0  0  0
    3.8171    6.7959   20.3368 N   0  0  0  0  0  0  0  0  0  0  0  0
    2.9115    7.1665   20.7454 H   0  0  0  0  0  0  0  0  0  0  0  0
    4.9553    8.6612   21.4044 C   0  0  0  0  0  0  0  0  0  0  0  0
    5.0949    7.2413   20.8472 C   0  0  0  0  0  0  0  0  0  0  0  0
    5.4791    6.3285   21.9878 C   0  0  0  0  0  0  0  0  0  0  0  0
    4.2488    1.5005   19.6152 C   0  0  0  0  0  0  0  0  0  0  0  0
    4.5918    2.3710   20.8204 C   0  0  0  0  0  0  0  0  0  0  0  0
    3.6039    2.0863   21.8875 C   0  0  0  0  0  0  0  0  0  0  0  0
    4.2310    1.4086   23.1029 C   0  0  0  0  0  0  0  0  0  0  0  0
    5.2717    2.4208   23.5798 C   0  0  0  0  0  0  0  0  0  0  0  0
    5.7552    2.0022   24.8713 N   0  0  0  0  0  0  0  0  0  0  0  0
    6.3869    2.3865   22.5984 C   0  0  0  0  0  0  0  0  0  0  0  0
    6.0211    2.2061   21.1871 C   0  0  0  0  0  0  0  0  0  0  0  0
    5.2376    2.5488   25.5962 H   0  0  0  0  0  0  0  0  0  0  0  0
    5.5135    0.9957   25.0252 H   0  0  0  0  0  0  0  0  0  0  0  0
 18 19  1  0  0  0
 19 20  1  0  0  0
 19 16  1  0  0  0
 16  1  1  0  0  0
  1  2  2  0  0  0
  2  3  1  0  0  0
  3  4  2  0  0  0
  4  5  1  0  0  0
  5  6  2  0  0  0
  6  7  1  0  0  0
  7 21  1  0  0  0
 21 22  1  0  0  0
 22 23  1  0  0  0
 23 24  1  0  0  0
 24 25  1  0  0  0
 25 26  1  0  0  0
 25 27  1  0  0  0
 27 28  1  0  0  0
  7  8  1  0  0  0
  8  9  2  0  0  0
  5 10  1  0  0  0
 10 11  2  0  0  0
 11 12  1  0  0  0
 12 13  2  0  0  0
 13 14  1  0  0  0
 14 15  2  0  0  0
  9  1  1  0  0  0
 15 10  1  0  0  0
  8  4  1  0  0  0
 28 22  1  0  0  0
 16 17  1  0  0  0
 26 29  1  0  0  0
 26 30  1  0  0  0
M  END
> <minimizedAffinity>
-9.18954

> <CNNscore>
0.2923494279

> <CNNaffinity>
6.5185823441

> <CNN_VS>
1.9057037830

> <CNNaffinity_variance>
0.7933792472

$$$$
[H]c1c([H])c([H])c(-c2nn(C([H])([H])C3([H])C([H])([H])C([H])([H])C([H])(N([H])[H])C([H])([H])C3([H])[H])c3nc(N([H])C([H])(C([H])([H])[H])C([H])([H])[H])nc([H])c23)c([H])c1[H]


 30 33  0  0  0  0  0  0  0  0999 V2000
    6.1470    5.9213   17.9642 C   0  0  0  0  0  0  0  0  0  0  0  0
    5.4891    6.3026   16.8637 N   0  0  0  0  0  0  0  0  0  0  0  0
    4.6292    5.4632   16.2575 C   0  0  0  0  0  0  0  0  0  0  0  0
    4.4099    4.2035   16.7532 C   0  0  0  0  0  0  0  0  0  0  0  0
    3.6163    3.1421   16.3727 C   0  0  0  0  0  0  0  0  0  0  0  0
    3.8544    2.1804   17.2838 N   0  0  0  0  0  0  0  0  0  0  0  0
    4.7304    2.5781   18.1856 N   0  0  0  0  0  0  0  0  0  0  0  0
    5.1131    3.8471   17.8976 C   0  0  0  0  0  0  0  0  0  0  0  0
    5.9730    4.6816   18.5069 N   0  0  0  0  0  0  0  0  0  0  0  0
    2.7161    3.0975   15.2209 C   0  0  0  0  0  0  0  0  0  0  0  0
    2.2720    4.2753   14.6274 C   0  0  0  0  0  0  0  0  0  0  0  0
    1.4280    4.2982   13.5480 C   0  0  0  0  0  0  0  0  0  0  0  0
    0.9824    3.1021   13.0046 C   0  0  0  0  0  0  0  0  0  0  0  0
    1.4019    1.9168   13.5671 C   0  0  0  0  0  0  0  0  0  0  0  0
    2.2574    1.9239   14.6605 C   0  0  0  0  0  0  0  0  0  0  0  0
    7.0404    6.8348   18.5679 N   0  0  0  0  0  0  0  0  0  0  0  0
    8.0374    6.8815   18.2099 H   0  0  0  0  0  0  0  0  0  0  0  0
    5.0845    7.5727   19.8108 C   0  0  0  0  0  0  0  0  0  0  0  0
    6.6035    7.6878   19.6510 C   0  0  0  0  0  0  0  0  0  0  0  0
    7.2456    7.1842   20.9221 C   0  0  0  0  0  0  0  0  0  0  0  0
    5.2514    1.8380   19.3297 C   0  0  0  0  0  0  0  0  0  0  0  0
    4.6570    2.3677   20.6313 C   0  0  0  0  0  0  0  0  0  0  0  0
    5.7335    2.3949   21.6492 C   0  0  0  0  0  0  0  0  0  0  0  0
    6.1013    3.8129   22.0776 C   0  0  0  0  0  0  0  0  0  0  0  0
    4.7960    4.3638   22.6501 C   0  0  0  0  0  0  0  0  0  0  0  0
    5.0814    5.6091   23.3169 N   0  0  0  0  0  0  0  0  0  0  0  0
    3.8924    4.6147   21.4976 C   0  0  0  0  0  0  0  0  0  0  0  0
    3.9470    3.6495   20.3914 C   0  0  0  0  0  0  0  0  0  0  0  0
    5.1691    5.4089   24.3389 H   0  0  0  0  0  0  0  0  0  0  0  0
    6.0117    5.9694   23.0009 H   0  0  0  0  0  0  0  0  0  0  0  0
 18 19  1  0  0  0
 19 20  1  0  0  0
 19 16  1  0  0  0
 16  1  1  0  0  0
  1  2  2  0  0  0
  2  3  1  0  0  0
  3  4  2  0  0  0
  4  5  1  0  0  0
  5  6  2  0  0  0
  6  7  1  0  0  0
  7 21  1  0  0  0
 21 22  1  0  0  0
 22 23  1  0  0  0
 23 24  1  0  0  0
 24 25  1  0  0  0
 25 26  1  0  0  0
 25 27  1  0  0  0
 27 28  1  0  0  0
  7  8  1  0  0  0
  8  9  2  0  0  0
  5 10  1  0  0  0
 10 11  2  0  0  0
 11 12  1  0  0  0
 12 13  2  0  0  0
 13 14  1  0  0  0
 14 15  2  0  0  0
  9  1  1  0  0  0
 15 10  1  0  0  0
  8  4  1  0  0  0
 28 22  1  0  0  0
 16 17  1  0  0  0
 26 29  1  0  0  0
 26 30  1  0  0  0
M  END
> <minimizedAffinity>
-7.12848

> <CNNscore>
0.2574451268

> <CNNaffinity>
6.3043456078

> <CNN_VS>
1.6230230331

> <CNNaffinity_variance>
0.2491396666

$$$$
[H]c1c([H])c([H])c(-c2nn(C([H])([H])C3([H])C([H])([H])C([H])([H])C([H])(N([H])[H])C([H])([H])C3([H])[H])c3nc(N([H])C([H])(C([H])([H])[H])C([H])([H])[H])nc([H])c23)c([H])c1[H]


 30 33  0  0  0  0  0  0  0  0999 V2000
    3.1685    4.0816   16.6343 C   0  0  0  0  0  0  0  0  0  0  0  0
    3.4511    2.9737   17.3286 N   0  0  0  0  0  0  0  0  0  0  0  0
    3.8507    3.0554   18.6112 C   0  0  0  0  0  0  0  0  0  0  0  0
    3.9763    4.2720   19.2316 C   0  0  0  0  0  0  0  0  0  0  0  0
    4.3511    4.6758   20.4956 C   0  0  0  0  0  0  0  0  0  0  0  0
    4.2671    6.0190   20.4752 N   0  0  0  0  0  0  0  0  0  0  0  0
    3.8706    6.4586   19.2970 N   0  0  0  0  0  0  0  0  0  0  0  0
    3.6731    5.3977   18.4753 C   0  0  0  0  0  0  0  0  0  0  0  0
    3.2736    5.3215   17.1939 N   0  0  0  0  0  0  0  0  0  0  0  0
    4.7493    3.8085   21.6040 C   0  0  0  0  0  0  0  0  0  0  0  0
    4.0459    3.8311   22.8045 C   0  0  0  0  0  0  0  0  0  0  0  0
    4.3710    3.0440   23.8781 C   0  0  0  0  0  0  0  0  0  0  0  0
    5.4492    2.1757   23.7861 C   0  0  0  0  0  0  0  0  0  0  0  0
    6.1682    2.1274   22.6123 C   0  0  0  0  0  0  0  0  0  0  0  0
    5.8158    2.9366   21.5406 C   0  0  0  0  0  0  0  0  0  0  0  0
    2.7526    3.9490   15.2902 N   0  0  0  0  0  0  0  0  0  0  0  0
    1.8523    4.4211   14.9887 H   0  0  0  0  0  0  0  0  0  0  0  0
    2.6843    2.0540   13.7675 C   0  0  0  0  0  0  0  0  0  0  0  0
    3.5388    3.1856   14.3464 C   0  0  0  0  0  0  0  0  0  0  0  0
    3.9213    4.1079   13.2129 C   0  0  0  0  0  0  0  0  0  0  0  0
    3.6567    7.8370   18.8700 C   0  0  0  0  0  0  0  0  0  0  0  0
    4.8967    8.6842   19.1394 C   0  0  0  0  0  0  0  0  0  0  0  0
    4.6257    9.5290   20.3261 C   0  0  0  0  0  0  0  0  0  0  0  0
    5.4979    9.1585   21.5226 C   0  0  0  0  0  0  0  0  0  0  0  0
    6.9206    9.3789   21.0103 C   0  0  0  0  0  0  0  0  0  0  0  0
    7.8244    9.3028   22.1302 N   0  0  0  0  0  0  0  0  0  0  0  0
    7.2127    8.2731   20.0618 C   0  0  0  0  0  0  0  0  0  0  0  0
    6.1054    7.8245   19.2070 C   0  0  0  0  0  0  0  0  0  0  0  0
    8.0358   10.2800   22.4343 H   0  0  0  0  0  0  0  0  0  0  0  0
    7.3452    8.8353   22.9347 H   0  0  0  0  0  0  0  0  0  0  0  0
 18 19  1  0  0  0
 19 20  1  0  0  0
 19 16  1  0  0  0
 16  1  1  0  0  0
  1  2  2  0  0  0
  2  3  1  0  0  0
  3  4  2  0  0  0
  4  5  1  0  0  0
  5  6  2  0  0  0
  6  7  1  0  0  0
  7 21  1  0  0  0
 21 22  1  0  0  0
 22 23  1  0  0  0
 23 24  1  0  0  0
 24 25  1  0  0  0
 25 26  1  0  0  0
 25 27  1  0  0  0
 27 28  1  0  0  0
  7  8  1  0  0  0
  8  9  2  0  0  0
  5 10  1  0  0  0
 10 11  2  0  0  0
 11 12  1  0  0  0
 12 13  2  0  0  0
 13 14  1  0  0  0
 14 15  2  0  0  0
  9  1  1  0  0  0
 15 10  1  0  0  0
  8  4  1  0  0  0
 28 22  1  0  0  0
 16 17  1  0  0  0
 26 29  1  0  0  0
 26 30  1  0  0  0
M  END
> <minimizedAffinity>
-8.26028

> <CNNscore>
0.2488162071

> <CNNaffinity>
6.0711026192

> <CNN_VS>
1.5105887651

> <CNNaffinity_variance>
0.5937240124

$$$$
[H]c1c([H])c([H])c(-c2nn(C([H])([H])C3([H])C([H])([H])C([H])([H])C([H])(N([H])[H])C([H])([H])C3([H])[H])c3nc(N([H])C([H])(C([H])([H])[H])C([H])([H])[H])nc([H])c23)c([H])c1[H]


 30 33  0  0  0  0  0  0  0  0999 V2000
    5.7764    4.3316   10.1765 C   0  0  0  0  0  0  0  0  0  0  0  0
    4.8136    3.8750   10.9851 N   0  0  0  0  0  0  0  0  0  0  0  0
    3.7492    4.6437   11.2807 C   0  0  0  0  0  0  0  0  0  0  0  0
    3.6293    5.9072   10.7612 C   0  0  0  0  0  0  0  0  0  0  0  0
    2.6886    6.9095   10.8702 C   0  0  0  0  0  0  0  0  0  0  0  0
    3.1566    7.9155   10.1083 N   0  0  0  0  0  0  0  0  0  0  0  0
    4.3072    7.5993    9.5472 N   0  0  0  0  0  0  0  0  0  0  0  0
    4.6508    6.3430    9.9260 C   0  0  0  0  0  0  0  0  0  0  0  0
    5.7161    5.5792    9.6276 N   0  0  0  0  0  0  0  0  0  0  0  0
    1.4539    6.8629   11.6528 C   0  0  0  0  0  0  0  0  0  0  0  0
    1.4865    7.0437   13.0322 C   0  0  0  0  0  0  0  0  0  0  0  0
    0.3649    7.0099   13.8188 C   0  0  0  0  0  0  0  0  0  0  0  0
   -0.8728    6.7862   13.2333 C   0  0  0  0  0  0  0  0  0  0  0  0
   -0.9422    6.6029   11.8699 C   0  0  0  0  0  0  0  0  0  0  0  0
    0.2110    6.6423   11.0978 C   0  0  0  0  0  0  0  0  0  0  0  0
    6.8762    3.4905    9.8933 N   0  0  0  0  0  0  0  0  0  0  0  0
    7.6215    3.3620   10.6365 H   0  0  0  0  0  0  0  0  0  0  0  0
    8.3532    3.1107    7.9989 C   0  0  0  0  0  0  0  0  0  0  0  0
    6.9823    2.8193    8.6166 C   0  0  0  0  0  0  0  0  0  0  0  0
    6.8908    1.3327    8.8685 C   0  0  0  0  0  0  0  0  0  0  0  0
    5.1331    8.4081    8.6574 C   0  0  0  0  0  0  0  0  0  0  0  0
    4.4549    8.5831    7.3019 C   0  0  0  0  0  0  0  0  0  0  0  0
    5.1245    9.7001    6.5951 C   0  0  0  0  0  0  0  0  0  0  0  0
    5.8816    9.2392    5.3526 C   0  0  0  0  0  0  0  0  0  0  0  0
    4.7924    8.6172    4.4798 C   0  0  0  0  0  0  0  0  0  0  0  0
    5.3429    8.3718    3.1708 N   0  0  0  0  0  0  0  0  0  0  0  0
    4.4207    7.3246    5.1113 C   0  0  0  0  0  0  0  0  0  0  0  0
    4.4007    7.2869    6.5797 C   0  0  0  0  0  0  0  0  0  0  0  0
    5.0556    9.1636    2.5523 H   0  0  0  0  0  0  0  0  0  0  0  0
    6.3880    8.3947    3.2216 H   0  0  0  0  0  0  0  0  0  0  0  0
 18 19  1  0  0  0
 19 20  1  0  0  0
 19 16  1  0  0  0
 16  1  1  0  0  0
  1  2  2  0  0  0
  2  3  1  0  0  0
  3  4  2  0  0  0
  4  5  1  0  0  0
  5  6  2  0  0  0
  6  7  1  0  0  0
  7 21  1  0  0  0
 21 22  1  0  0  0
 22 23  1  0  0  0
 23 24  1  0  0  0
 24 25  1  0  0  0
 25 26  1  0  0  0
 25 27  1  0  0  0
 27 28  1  0  0  0
  7  8  1  0  0  0
  8  9  2  0  0  0
  5 10  1  0  0  0
 10 11  2  0  0  0
 11 12  1  0  0  0
 12 13  2  0  0  0
 13 14  1  0  0  0
 14 15  2  0  0  0
  9  1  1  0  0  0
 15 10  1  0  0  0
  8  4  1  0  0  0
 28 22  1  0  0  0
 16 17  1  0  0  0
 26 29  1  0  0  0
 26 30  1  0  0  0
M  END
> <minimizedAffinity>
-5.34610

> <CNNscore>
0.2374156713

> <CNNaffinity>
5.0130815506

> <CNN_VS>
1.1901841164

> <CNNaffinity_variance>
0.3023574054

$$$$
[H]c1c([H])c([H])c(-c2nn(C([H])([H])C3([H])C([H])([H])C([H])([H])C([H])(N([H])[H])C([H])([H])C3([H])[H])c3nc(N([H])C([H])(C([H])([H])[H])C([H])([H])[H])nc([H])c23)c([H])c1[H]


 30 33  0  0  0  0  0  0  0  0999 V2000
    3.3023    8.0479    9.1622 C   0  0  0  0  0  0  0  0  0  0  0  0
    3.3231    8.9252    8.1526 N   0  0  0  0  0  0  0  0  0  0  0  0
    4.2422    8.8191    7.1752 C   0  0  0  0  0  0  0  0  0  0  0  0
    5.1739    7.8129    7.1933 C   0  0  0  0  0  0  0  0  0  0  0  0
    6.2132    7.4459    6.3647 C   0  0  0  0  0  0  0  0  0  0  0  0
    6.7546    6.3567    6.9408 N   0  0  0  0  0  0  0  0  0  0  0  0
    6.1234    6.0366    8.0534 N   0  0  0  0  0  0  0  0  0  0  0  0
    5.1176    6.9231    8.2592 C   0  0  0  0  0  0  0  0  0  0  0  0
    4.2016    7.0246    9.2379 N   0  0  0  0  0  0  0  0  0  0  0  0
    6.6185    8.1145    5.1287 C   0  0  0  0  0  0  0  0  0  0  0  0
    6.1697    7.6499    3.8961 C   0  0  0  0  0  0  0  0  0  0  0  0
    6.5153    8.2326    2.7049 C   0  0  0  0  0  0  0  0  0  0  0  0
    7.3514    9.3397    2.7039 C   0  0  0  0  0  0  0  0  0  0  0  0
    7.8147    9.8265    3.9062 C   0  0  0  0  0  0  0  0  0  0  0  0
    7.4480    9.2158    5.0979 C   0  0  0  0  0  0  0  0  0  0  0  0
    2.3198    8.1972   10.1669 N   0  0  0  0  0  0  0  0  0  0  0  0
    1.5450    8.9056   10.0178 H   0  0  0  0  0  0  0  0  0  0  0  0
    3.0029    8.2209   12.5009 C   0  0  0  0  0  0  0  0  0  0  0  0
    2.3705    7.4003   11.3728 C   0  0  0  0  0  0  0  0  0  0  0  0
    0.9499    7.0768   11.7714 C   0  0  0  0  0  0  0  0  0  0  0  0
    6.3990    4.9315    8.9650 C   0  0  0  0  0  0  0  0  0  0  0  0
    5.9530    3.6055    8.3561 C   0  0  0  0  0  0  0  0  0  0  0  0
    7.1504    2.7465    8.2014 C   0  0  0  0  0  0  0  0  0  0  0  0
    7.1145    1.5198    9.1089 C   0  0  0  0  0  0  0  0  0  0  0  0
    5.8530    0.7815    8.6632 C   0  0  0  0  0  0  0  0  0  0  0  0
    5.8483   -0.5226    9.2765 N   0  0  0  0  0  0  0  0  0  0  0  0
    4.6952    1.5678    9.1621 C   0  0  0  0  0  0  0  0  0  0  0  0
    4.8282    3.0306    9.1365 C   0  0  0  0  0  0  0  0  0  0  0  0
    6.2107   -1.2052    8.5731 H   0  0  0  0  0  0  0  0  0  0  0  0
    6.5200   -0.5336   10.0790 H   0  0  0  0  0  0  0  0  0  0  0  0
 18 19  1  0  0  0
 19 20  1  0  0  0
 19 16  1  0  0  0
 16  1  1  0  0  0
  1  2  2  0  0  0
  2  3  1  0  0  0
  3  4  2  0  0  0
  4  5  1  0  0  0
  5  6  2  0  0  0
  6  7  1  0  0  0
  7 21  1  0  0  0
 21 22  1  0  0  0
 22 23  1  0  0  0
 23 24  1  0  0  0
 24 25  1  0  0  0
 25 26  1  0  0  0
 25 27  1  0  0  0
 27 28  1  0  0  0
  7  8  1  0  0  0
  8  9  2  0  0  0
  5 10  1  0  0  0
 10 11  2  0  0  0
 11 12  1  0  0  0
 12 13  2  0  0  0
 13 14  1  0  0  0
 14 15  2  0  0  0
  9  1  1  0  0  0
 15 10  1  0  0  0
  8  4  1  0  0  0
 28 22  1  0  0  0
 16 17  1  0  0  0
 26 29  1  0  0  0
 26 30  1  0  0  0
M  END
> <minimizedAffinity>
-5.55797

> <CNNscore>
0.2328301668

> <CNNaffinity>
4.9127473831

> <CNN_VS>
1.1438357830

> <CNNaffinity_variance>
0.4486964345

$$$$
[H]c1c([H])c([H])c(-c2nn(C([H])([H])C3([H])C([H])([H])C([H])([H])C([H])(N([H])[H])C([H])([H])C3([H])[H])c3nc(N([H])C([H])(C([H])([H])[H])C([H])([H])[H])nc([H])c23)c([H])c1[H]


 30 33  0  0  0  0  0  0  0  0999 V2000
    4.5132    1.9480   19.6254 C   0  0  0  0  0  0  0  0  0  0  0  0
    4.5664    1.2204   18.5041 N   0  0  0  0  0  0  0  0  0  0  0  0
    4.1971    1.7551   17.3255 C   0  0  0  0  0  0  0  0  0  0  0  0
    3.7599    3.0527   17.2491 C   0  0  0  0  0  0  0  0  0  0  0  0
    3.3253    3.8650   16.2231 C   0  0  0  0  0  0  0  0  0  0  0  0
    3.0362    5.0434   16.8058 N   0  0  0  0  0  0  0  0  0  0  0  0
    3.2623    5.0065   18.1044 N   0  0  0  0  0  0  0  0  0  0  0  0
    3.7199    3.7736   18.4364 C   0  0  0  0  0  0  0  0  0  0  0  0
    4.0876    3.2443   19.6162 N   0  0  0  0  0  0  0  0  0  0  0  0
    3.2132    3.4994   14.8115 C   0  0  0  0  0  0  0  0  0  0  0  0
    3.8180    4.2801   13.8310 C   0  0  0  0  0  0  0  0  0  0  0  0
    3.7476    3.9901   12.4935 C   0  0  0  0  0  0  0  0  0  0  0  0
    3.0451    2.8696   12.0742 C   0  0  0  0  0  0  0  0  0  0  0  0
    2.4337    2.0741   13.0178 C   0  0  0  0  0  0  0  0  0  0  0  0
    2.5218    2.3924   14.3663 C   0  0  0  0  0  0  0  0  0  0  0  0
    4.9104    1.3462   20.8408 N   0  0  0  0  0  0  0  0  0  0  0  0
    4.2938    0.5914   21.2586 H   0  0  0  0  0  0  0  0  0  0  0  0
    5.8317    2.1030   22.9605 C   0  0  0  0  0  0  0  0  0  0  0  0
    6.1320    1.7515   21.5003 C   0  0  0  0  0  0  0  0  0  0  0  0
    7.0750    0.5715   21.4892 C   0  0  0  0  0  0  0  0  0  0  0  0
    3.0765    6.0693   19.0863 C   0  0  0  0  0  0  0  0  0  0  0  0
    4.4111    6.7217   19.4345 C   0  0  0  0  0  0  0  0  0  0  0  0
    4.3571    8.1368   18.9986 C   0  0  0  0  0  0  0  0  0  0  0  0
    4.3903    9.1141   20.1705 C   0  0  0  0  0  0  0  0  0  0  0  0
    5.7206    8.8057   20.8562 C   0  0  0  0  0  0  0  0  0  0  0  0
    5.9804    9.8360   21.8298 N   0  0  0  0  0  0  0  0  0  0  0  0
    5.5561    7.5009   21.5478 C   0  0  0  0  0  0  0  0  0  0  0  0
    4.7448    6.4861   20.8620 C   0  0  0  0  0  0  0  0  0  0  0  0
    6.6350   10.5251   21.3953 H   0  0  0  0  0  0  0  0  0  0  0  0
    5.0942   10.3530   22.0361 H   0  0  0  0  0  0  0  0  0  0  0  0
 18 19  1  0  0  0
 19 20  1  0  0  0
 19 16  1  0  0  0
 16  1  1  0  0  0
  1  2  2  0  0  0
  2  3  1  0  0  0
  3  4  2  0  0  0
  4  5  1  0  0  0
  5  6  2  0  0  0
  6  7  1  0  0  0
  7 21  1  0  0  0
 21 22  1  0  0  0
 22 23  1  0  0  0
 23 24  1  0  0  0
 24 25  1  0  0  0
 25 26  1  0  0  0
 25 27  1  0  0  0
 27 28  1  0  0  0
  7  8  1  0  0  0
  8  9  2  0  0  0
  5 10  1  0  0  0
 10 11  2  0  0  0
 11 12  1  0  0  0
 12 13  2  0  0  0
 13 14  1  0  0  0
 14 15  2  0  0  0
  9  1  1  0  0  0
 15 10  1  0  0  0
  8  4  1  0  0  0
 28 22  1  0  0  0
 16 17  1  0  0  0
 26 29  1  0  0  0
 26 30  1  0  0  0
M  END
> <minimizedAffinity>
-8.22758

> <CNNscore>
0.2188540697

> <CNNaffinity>
6.2653303146

> <CNN_VS>
1.3711930513

> <CNNaffinity_variance>
0.6168885231

$$$$
[H]O[C@]1([H])C([H])([H])C([H])([H])[C@@]([H])(N([H])c2nc(N([H])C([H])([H])C([H])([H])C([H])([H])C([H])([H])[H])nc([H])c2C(=O)N([H])C2([H])C([H])([H])C([H])([H])N(C([H])([H])C([H])([H])C([H])([H])c3c([H])c([H])c([H])c([H])c3[H])C([H])([H])C2([H])[H])C([H])([H])C1([H])[H]


 41 44  0  0  0  0  0  0  0  0999 V2000
    3.0183    0.1607   18.7877 C   0  0  0  0  0  0  0  0  0  0  0  0
    2.4492   -0.2622   17.6477 N   0  0  0  0  0  0  0  0  0  0  0  0
    2.5345    0.4511   16.5152 C   0  0  0  0  0  0  0  0  0  0  0  0
    3.2368    1.6649   16.5331 C   0  0  0  0  0  0  0  0  0  0  0  0
    3.8184    2.1049   17.6819 C   0  0  0  0  0  0  0  0  0  0  0  0
    3.6863    1.3182   18.7989 N   0  0  0  0  0  0  0  0  0  0  0  0
    3.3052    2.3977   15.3064 C   0  0  0  0  0  0  0  0  0  0  0  0
    4.0212    3.4075   15.1398 O   0  0  0  0  0  0  0  0  0  0  0  0
    2.5439    2.0128   14.1722 N   0  0  0  0  0  0  0  0  0  0  0  0
    1.9005    1.2013   14.1391 H   0  0  0  0  0  0  0  0  0  0  0  0
    2.6153    2.7651   12.9142 C   0  0  0  0  0  0  0  0  0  0  0  0
    2.8341    1.7425   11.8317 C   0  0  0  0  0  0  0  0  0  0  0  0
    2.8984    2.4612   10.5077 C   0  0  0  0  0  0  0  0  0  0  0  0
    1.6279    3.1484   10.2224 N   0  0  0  0  0  0  0  0  0  0  0  0
    0.7223    3.0360   11.3214 C   0  0  0  0  0  0  0  0  0  0  0  0
    1.3283    3.4801   12.6324 C   0  0  0  0  0  0  0  0  0  0  0  0
    1.9556    4.4957    9.9187 C   0  0  0  0  0  0  0  0  0  0  0  0
    0.8843    5.3714    9.3981 C   0  0  0  0  0  0  0  0  0  0  0  0
    0.8115    6.6802   10.1203 C   0  0  0  0  0  0  0  0  0  0  0  0
    0.1532    6.6733   11.4124 C   0  0  0  0  0  0  0  0  0  0  0  0
    0.8046    7.1186   12.5419 C   0  0  0  0  0  0  0  0  0  0  0  0
    0.1772    7.1189   13.7759 C   0  0  0  0  0  0  0  0  0  0  0  0
   -1.1173    6.6682   13.8802 C   0  0  0  0  0  0  0  0  0  0  0  0
   -1.7978    6.2151   12.7660 C   0  0  0  0  0  0  0  0  0  0  0  0
   -1.1360    6.2306   11.5495 C   0  0  0  0  0  0  0  0  0  0  0  0
    2.8852   -0.6463   19.9442 N   0  0  0  0  0  0  0  0  0  0  0  0
    2.2354   -1.4568   19.9702 H   0  0  0  0  0  0  0  0  0  0  0  0
    3.6604   -0.3538   21.1248 C   0  0  0  0  0  0  0  0  0  0  0  0
    3.0682    0.7517   21.9471 C   0  0  0  0  0  0  0  0  0  0  0  0
    5.3061    1.7058   21.8665 C   0  0  0  0  0  0  0  0  0  0  0  0
    4.1210    1.4386   22.7770 C   0  0  0  0  0  0  0  0  0  0  0  0
    4.5418    3.2949   17.8240 N   0  0  0  0  0  0  0  0  0  0  0  0
    5.2239    3.6375   17.1576 H   0  0  0  0  0  0  0  0  0  0  0  0
    4.3412    4.1525   19.0076 C   0  0  0  0  0  0  0  0  0  0  0  0
    5.5023    5.0643   19.2343 C   0  0  0  0  0  0  0  0  0  0  0  0
    5.0772    6.4793   19.5507 C   0  0  0  0  0  0  0  0  0  0  0  0
    4.1625    7.0635   18.5103 C   0  0  0  0  0  0  0  0  0  0  0  0
    3.2923    7.9734   19.1297 O   0  0  0  0  0  0  0  0  0  0  0  0
    3.2988    6.0204   17.8502 C   0  0  0  0  0  0  0  0  0  0  0  0
    3.0679    4.9194   18.8797 C   0  0  0  0  0  0  0  0  0  0  0  0
    3.2506    8.8343   18.6691 H   0  0  0  0  0  0  0  0  0  0  0  0
 30 31  1  0  0  0
 31 29  1  0  0  0
 29 28  1  0  0  0
 28 26  1  0  0  0
 26  1  1  0  0  0
  1  2  2  0  0  0
  2  3  1  0  0  0
  3  4  2  0  0  0
  4  7  1  0  0  0
  7  8  2  0  0  0
  7  9  1  0  0  0
  9 11  1  0  0  0
 11 12  1  0  0  0
 12 13  1  0  0  0
 13 14  1  0  0  0
 14 17  1  0  0  0
 17 18  1  0  0  0
 18 19  1  0  0  0
 19 20  1  0  0  0
 20 21  2  0  0  0
 21 22  1  0  0  0
 22 23  2  0  0  0
 23 24  1  0  0  0
 24 25  2  0  0  0
 14 15  1  0  0  0
 15 16  1  0  0  0
  4  5  1  0  0  0
  5 32  1  0  0  0
 32 34  1  0  0  0
 34 35  1  0  0  0
 35 36  1  0  0  0
 36 37  1  0  0  0
 37 38  1  0  0  0
 37 39  1  0  0  0
 39 40  1  0  0  0
  5  6  2  0  0  0
  6  1  1  0  0  0
 16 11  1  0  0  0
 40 34  1  0  0  0
 25 20  1  0  0  0
 26 27  1  0  0  0
  9 10  1  0  0  0
 32 33  1  0  0  0
 38 41  1  0  0  0
M  END
> <minimizedAffinity>
-8.05563

> <CNNscore>
0.9365801811

> <CNNaffinity>
7.4956102371

> <CNN_VS>
7.0202398300

> <CNNaffinity_variance>
0.3033418655

$$$$
[H]O[C@]1([H])C([H])([H])C([H])([H])[C@@]([H])(N([H])c2nc(N([H])C([H])([H])C([H])([H])C([H])([H])C([H])([H])[H])nc([H])c2C(=O)N([H])C2([H])C([H])([H])C([H])([H])N(C([H])([H])C([H])([H])C([H])([H])c3c([H])c([H])c([H])c([H])c3[H])C([H])([H])C2([H])[H])C([H])([H])C1([H])[H]


 41 44  0  0  0  0  0  0  0  0999 V2000
    3.7812    1.0659   19.7834 C   0  0  0  0  0  0  0  0  0  0  0  0
    3.2260    0.3427   18.7979 N   0  0  0  0  0  0  0  0  0  0  0  0
    3.1494    0.8102   17.5433 C   0  0  0  0  0  0  0  0  0  0  0  0
    3.6643    2.0847   17.2650 C   0  0  0  0  0  0  0  0  0  0  0  0
    4.2299    2.8279   18.2547 C   0  0  0  0  0  0  0  0  0  0  0  0
    4.2704    2.2797   19.5125 N   0  0  0  0  0  0  0  0  0  0  0  0
    3.5635    2.5492   15.9158 C   0  0  0  0  0  0  0  0  0  0  0  0
    4.4570    3.2035   15.3381 O   0  0  0  0  0  0  0  0  0  0  0  0
    2.4118    2.2886   15.1285 N   0  0  0  0  0  0  0  0  0  0  0  0
    1.5808    1.7613   15.4524 H   0  0  0  0  0  0  0  0  0  0  0  0
    2.3098    2.7653   13.7444 C   0  0  0  0  0  0  0  0  0  0  0  0
    1.3384    1.8424   13.0588 C   0  0  0  0  0  0  0  0  0  0  0  0
    1.1807    2.2978   11.6300 C   0  0  0  0  0  0  0  0  0  0  0  0
    0.6204    3.6580   11.5726 N   0  0  0  0  0  0  0  0  0  0  0  0
    0.4794    4.2137   12.8810 C   0  0  0  0  0  0  0  0  0  0  0  0
    1.7567    4.1573   13.6862 C   0  0  0  0  0  0  0  0  0  0  0  0
    1.4877    4.4186   10.7454 C   0  0  0  0  0  0  0  0  0  0  0  0
    2.4476    3.6901    9.8889 C   0  0  0  0  0  0  0  0  0  0  0  0
    3.8692    3.9205   10.2959 C   0  0  0  0  0  0  0  0  0  0  0  0
    4.8734    3.1083    9.6362 C   0  0  0  0  0  0  0  0  0  0  0  0
    4.5842    1.8297    9.2125 C   0  0  0  0  0  0  0  0  0  0  0  0
    5.5386    1.0538    8.5772 C   0  0  0  0  0  0  0  0  0  0  0  0
    6.7970    1.5642    8.3636 C   0  0  0  0  0  0  0  0  0  0  0  0
    7.1183    2.8432    8.7767 C   0  0  0  0  0  0  0  0  0  0  0  0
    6.1363    3.5879    9.4085 C   0  0  0  0  0  0  0  0  0  0  0  0
    3.8257    0.5061   21.0839 N   0  0  0  0  0  0  0  0  0  0  0  0
    4.1431   -0.4700   21.2454 H   0  0  0  0  0  0  0  0  0  0  0  0
    3.4252    1.2922   22.2249 C   0  0  0  0  0  0  0  0  0  0  0  0
    4.5908    1.8967   22.9494 C   0  0  0  0  0  0  0  0  0  0  0  0
    4.5442    4.3301   22.9884 C   0  0  0  0  0  0  0  0  0  0  0  0
    4.1656    3.0855   23.7711 C   0  0  0  0  0  0  0  0  0  0  0  0
    4.7753    4.1079   18.1009 N   0  0  0  0  0  0  0  0  0  0  0  0
    5.0398    4.5185   17.2131 H   0  0  0  0  0  0  0  0  0  0  0  0
    5.0062    4.9663   19.2783 C   0  0  0  0  0  0  0  0  0  0  0  0
    6.0589    5.9933   19.0174 C   0  0  0  0  0  0  0  0  0  0  0  0
    5.6682    7.3656   19.5147 C   0  0  0  0  0  0  0  0  0  0  0  0
    4.3485    7.8340   18.9674 C   0  0  0  0  0  0  0  0  0  0  0  0
    3.7334    8.6661   19.9151 O   0  0  0  0  0  0  0  0  0  0  0  0
    3.3953    6.6967   18.7075 C   0  0  0  0  0  0  0  0  0  0  0  0
    3.7278    5.6003   19.7138 C   0  0  0  0  0  0  0  0  0  0  0  0
    3.4173    9.5087   19.5340 H   0  0  0  0  0  0  0  0  0  0  0  0
 30 31  1  0  0  0
 31 29  1  0  0  0
 29 28  1  0  0  0
 28 26  1  0  0  0
 26  1  1  0  0  0
  1  2  2  0  0  0
  2  3  1  0  0  0
  3  4  2  0  0  0
  4  7  1  0  0  0
  7  8  2  0  0  0
  7  9  1  0  0  0
  9 11  1  0  0  0
 11 12  1  0  0  0
 12 13  1  0  0  0
 13 14  1  0  0  0
 14 17  1  0  0  0
 17 18  1  0  0  0
 18 19  1  0  0  0
 19 20  1  0  0  0
 20 21  2  0  0  0
 21 22  1  0  0  0
 22 23  2  0  0  0
 23 24  1  0  0  0
 24 25  2  0  0  0
 14 15  1  0  0  0
 15 16  1  0  0  0
  4  5  1  0  0  0
  5 32  1  0  0  0
 32 34  1  0  0  0
 34 35  1  0  0  0
 35 36  1  0  0  0
 36 37  1  0  0  0
 37 38  1  0  0  0
 37 39  1  0  0  0
 39 40  1  0  0  0
  5  6  2  0  0  0
  6  1  1  0  0  0
 16 11  1  0  0  0
 40 34  1  0  0  0
 25 20  1  0  0  0
 26 27  1  0  0  0
  9 10  1  0  0  0
 32 33  1  0  0  0
 38 41  1  0  0  0
M  END
> <minimizedAffinity>
-7.50614

> <CNNscore>
0.5178460479

> <CNNaffinity>
7.0693902969

> <CNN_VS>
3.6608557701

> <CNNaffinity_variance>
0.4746573567

$$$$
[H]O[C@]1([H])C([H])([H])C([H])([H])[C@@]([H])(N([H])c2nc(N([H])C([H])([H])C([H])([H])C([H])([H])C([H])([H])[H])nc([H])c2C(=O)N([H])C2([H])C([H])([H])C([H])([H])N(C([H])([H])C([H])([H])C([H])([H])c3c([H])c([H])c([H])c([H])c3[H])C([H])([H])C2([H])[H])C([H])([H])C1([H])[H]


 41 44  0  0  0  0  0  0  0  0999 V2000
    3.9791    1.2085   19.5982 C   0  0  0  0  0  0  0  0  0  0  0  0
    3.2865    0.6930   18.5701 N   0  0  0  0  0  0  0  0  0  0  0  0
    3.1780    1.3431   17.4021 C   0  0  0  0  0  0  0  0  0  0  0  0
    3.8063    2.5891   17.2620 C   0  0  0  0  0  0  0  0  0  0  0  0
    4.5114    3.1228   18.2962 C   0  0  0  0  0  0  0  0  0  0  0  0
    4.5758    2.3962   19.4590 N   0  0  0  0  0  0  0  0  0  0  0  0
    3.6672    3.2524   16.0022 C   0  0  0  0  0  0  0  0  0  0  0  0
    4.2919    2.9240   14.9717 O   0  0  0  0  0  0  0  0  0  0  0  0
    2.7871    4.3540   15.8402 N   0  0  0  0  0  0  0  0  0  0  0  0
    2.1956    4.7541   16.5910 H   0  0  0  0  0  0  0  0  0  0  0  0
    2.6449    5.0334   14.5472 C   0  0  0  0  0  0  0  0  0  0  0  0
    1.5386    4.3159   13.8216 C   0  0  0  0  0  0  0  0  0  0  0  0
    1.3360    4.9859   12.4861 C   0  0  0  0  0  0  0  0  0  0  0  0
    0.9198    6.3873   12.6610 N   0  0  0  0  0  0  0  0  0  0  0  0
    0.9247    6.7588   14.0403 C   0  0  0  0  0  0  0  0  0  0  0  0
    2.2392    6.4654   14.7252 C   0  0  0  0  0  0  0  0  0  0  0  0
    1.8060    7.1735   11.8791 C   0  0  0  0  0  0  0  0  0  0  0  0
    1.7616    7.0174   10.4097 C   0  0  0  0  0  0  0  0  0  0  0  0
    2.6215    8.0160    9.7003 C   0  0  0  0  0  0  0  0  0  0  0  0
    2.2322    8.3634    8.3472 C   0  0  0  0  0  0  0  0  0  0  0  0
    1.6839    7.4220    7.5039 C   0  0  0  0  0  0  0  0  0  0  0  0
    1.3057    7.7516    6.2136 C   0  0  0  0  0  0  0  0  0  0  0  0
    1.4785    9.0386    5.7626 C   0  0  0  0  0  0  0  0  0  0  0  0
    2.0257   10.0058    6.5841 C   0  0  0  0  0  0  0  0  0  0  0  0
    2.3913    9.6369    7.8680 C   0  0  0  0  0  0  0  0  0  0  0  0
    4.0489    0.4640   20.8012 N   0  0  0  0  0  0  0  0  0  0  0  0
    4.6343   -0.3911   20.8786 H   0  0  0  0  0  0  0  0  0  0  0  0
    3.2979    0.8850   21.9583 C   0  0  0  0  0  0  0  0  0  0  0  0
    4.1220    1.6821   22.9249 C   0  0  0  0  0  0  0  0  0  0  0  0
    4.9094    3.9847   22.8716 C   0  0  0  0  0  0  0  0  0  0  0  0
    3.6677    3.1174   22.9753 C   0  0  0  0  0  0  0  0  0  0  0  0
    5.1788    4.3532   18.2773 N   0  0  0  0  0  0  0  0  0  0  0  0
    5.7525    4.6856   17.5112 H   0  0  0  0  0  0  0  0  0  0  0  0
    5.0786    5.2734   19.4261 C   0  0  0  0  0  0  0  0  0  0  0  0
    6.0411    6.4098   19.3113 C   0  0  0  0  0  0  0  0  0  0  0  0
    5.4107    7.7415   19.6461 C   0  0  0  0  0  0  0  0  0  0  0  0
    4.1794    8.0288   18.8326 C   0  0  0  0  0  0  0  0  0  0  0  0
    3.3026    8.8133   19.5971 O   0  0  0  0  0  0  0  0  0  0  0  0
    3.4278    6.7769   18.4620 C   0  0  0  0  0  0  0  0  0  0  0  0
    3.6774    5.7639   19.5741 C   0  0  0  0  0  0  0  0  0  0  0  0
    2.9753    9.5981   19.1154 H   0  0  0  0  0  0  0  0  0  0  0  0
 30 31  1  0  0  0
 31 29  1  0  0  0
 29 28  1  0  0  0
 28 26  1  0  0  0
 26  1  1  0  0  0
  1  2  2  0  0  0
  2  3  1  0  0  0
  3  4  2  0  0  0
  4  7  1  0  0  0
  7  8  2  0  0  0
  7  9  1  0  0  0
  9 11  1  0  0  0
 11 12  1  0  0  0
 12 13  1  0  0  0
 13 14  1  0  0  0
 14 17  1  0  0  0
 17 18  1  0  0  0
 18 19  1  0  0  0
 19 20  1  0  0  0
 20 21  2  0  0  0
 21 22  1  0  0  0
 22 23  2  0  0  0
 23 24  1  0  0  0
 24 25  2  0  0  0
 14 15  1  0  0  0
 15 16  1  0  0  0
  4  5  1  0  0  0
  5 32  1  0  0  0
 32 34  1  0  0  0
 34 35  1  0  0  0
 35 36  1  0  0  0
 36 37  1  0  0  0
 37 38  1  0  0  0
 37 39  1  0  0  0
 39 40  1  0  0  0
  5  6  2  0  0  0
  6  1  1  0  0  0
 16 11  1  0  0  0
 40 34  1  0  0  0
 25 20  1  0  0  0
 26 27  1  0  0  0
  9 10  1  0  0  0
 32 33  1  0  0  0
 38 41  1  0  0  0
M  END
> <minimizedAffinity>
-7.21842

> <CNNscore>
0.4792707264

> <CNNaffinity>
6.6778488159

> <CNN_VS>
3.2004973888

> <CNNaffinity_variance>
0.5428127646

$$$$
[H]O[C@]1([H])C([H])([H])C([H])([H])[C@@]([H])(N([H])c2nc(N([H])C([H])([H])C([H])([H])C([H])([H])C([H])([H])[H])nc([H])c2C(=O)N([H])C2([H])C([H])([H])C([H])([H])N(C([H])([H])C([H])([H])C([H])([H])c3c([H])c([H])c([H])c([H])c3[H])C([H])([H])C2([H])[H])C([H])([H])C1([H])[H]


 41 44  0  0  0  0  0  0  0  0999 V2000
    4.5009    2.0470   19.5211 C   0  0  0  0  0  0  0  0  0  0  0  0
    4.0849    1.1949   18.5706 N   0  0  0  0  0  0  0  0  0  0  0  0
    3.4518    1.6272   17.4702 C   0  0  0  0  0  0  0  0  0  0  0  0
    3.2242    3.0028   17.3187 C   0  0  0  0  0  0  0  0  0  0  0  0
    3.6408    3.8771   18.2746 C   0  0  0  0  0  0  0  0  0  0  0  0
    4.2813    3.3567   19.3715 N   0  0  0  0  0  0  0  0  0  0  0  0
    2.5453    3.4254   16.1327 C   0  0  0  0  0  0  0  0  0  0  0  0
    1.7601    4.3959   16.0904 O   0  0  0  0  0  0  0  0  0  0  0  0
    2.7264    2.7508   14.8972 N   0  0  0  0  0  0  0  0  0  0  0  0
    3.3409    1.9285   14.7567 H   0  0  0  0  0  0  0  0  0  0  0  0
    2.0297    3.1856   13.6811 C   0  0  0  0  0  0  0  0  0  0  0  0
    3.0830    3.7957   12.7958 C   0  0  0  0  0  0  0  0  0  0  0  0
    2.4233    4.2469   11.5172 C   0  0  0  0  0  0  0  0  0  0  0  0
    1.8417    3.1028   10.7958 N   0  0  0  0  0  0  0  0  0  0  0  0
    1.9672    1.8978   11.5525 C   0  0  0  0  0  0  0  0  0  0  0  0
    1.4214    2.0234   12.9558 C   0  0  0  0  0  0  0  0  0  0  0  0
    0.4899    3.4403   10.5240 C   0  0  0  0  0  0  0  0  0  0  0  0
    0.0592    4.8338   10.7654 C   0  0  0  0  0  0  0  0  0  0  0  0
   -1.4287    4.9898   10.7237 C   0  0  0  0  0  0  0  0  0  0  0  0
   -2.0360    5.7202   11.8195 C   0  0  0  0  0  0  0  0  0  0  0  0
   -1.2702    6.2128   12.8534 C   0  0  0  0  0  0  0  0  0  0  0  0
   -1.8459    6.9156   13.8980 C   0  0  0  0  0  0  0  0  0  0  0  0
   -3.2041    7.1274   13.9074 C   0  0  0  0  0  0  0  0  0  0  0  0
   -3.9997    6.6462   12.8851 C   0  0  0  0  0  0  0  0  0  0  0  0
   -3.3864    5.9481   11.8581 C   0  0  0  0  0  0  0  0  0  0  0  0
    5.1621    1.5163   20.6559 N   0  0  0  0  0  0  0  0  0  0  0  0
    6.0823    1.0403   20.5762 H   0  0  0  0  0  0  0  0  0  0  0  0
    4.5615    1.6283   21.9624 C   0  0  0  0  0  0  0  0  0  0  0  0
    5.2595    2.6269   22.8368 C   0  0  0  0  0  0  0  0  0  0  0  0
    3.7839    4.5622   22.7921 C   0  0  0  0  0  0  0  0  0  0  0  0
    4.2739    3.4159   23.6585 C   0  0  0  0  0  0  0  0  0  0  0  0
    3.4716    5.2662   18.2365 N   0  0  0  0  0  0  0  0  0  0  0  0
    2.6227    5.7506   18.5036 H   0  0  0  0  0  0  0  0  0  0  0  0
    4.5711    6.1390   17.7830 C   0  0  0  0  0  0  0  0  0  0  0  0
    4.2304    6.8438   16.5110 C   0  0  0  0  0  0  0  0  0  0  0  0
    4.6018    8.3081   16.5401 C   0  0  0  0  0  0  0  0  0  0  0  0
    4.0039    9.0417   17.7083 C   0  0  0  0  0  0  0  0  0  0  0  0
    4.8693   10.0805   18.0836 O   0  0  0  0  0  0  0  0  0  0  0  0
    3.8363    8.1604   18.9186 C   0  0  0  0  0  0  0  0  0  0  0  0
    4.9379    7.1077   18.8568 C   0  0  0  0  0  0  0  0  0  0  0  0
    4.4129   10.9387   18.1844 H   0  0  0  0  0  0  0  0  0  0  0  0
 30 31  1  0  0  0
 31 29  1  0  0  0
 29 28  1  0  0  0
 28 26  1  0  0  0
 26  1  1  0  0  0
  1  2  2  0  0  0
  2  3  1  0  0  0
  3  4  2  0  0  0
  4  7  1  0  0  0
  7  8  2  0  0  0
  7  9  1  0  0  0
  9 11  1  0  0  0
 11 12  1  0  0  0
 12 13  1  0  0  0
 13 14  1  0  0  0
 14 17  1  0  0  0
 17 18  1  0  0  0
 18 19  1  0  0  0
 19 20  1  0  0  0
 20 21  2  0  0  0
 21 22  1  0  0  0
 22 23  2  0  0  0
 23 24  1  0  0  0
 24 25  2  0  0  0
 14 15  1  0  0  0
 15 16  1  0  0  0
  4  5  1  0  0  0
  5 32  1  0  0  0
 32 34  1  0  0  0
 34 35  1  0  0  0
 35 36  1  0  0  0
 36 37  1  0  0  0
 37 38  1  0  0  0
 37 39  1  0  0  0
 39 40  1  0  0  0
  5  6  2  0  0  0
  6  1  1  0  0  0
 16 11  1  0  0  0
 40 34  1  0  0  0
 25 20  1  0  0  0
 26 27  1  0  0  0
  9 10  1  0  0  0
 32 33  1  0  0  0
 38 41  1  0  0  0
M  END
> <minimizedAffinity>
-7.60533

> <CNNscore>
0.4423827231

> <CNNaffinity>
7.0955367088

> <CNN_VS>
3.1389429569

> <CNNaffinity_variance>
0.8258377910

$$$$
[H]O[C@]1([H])C([H])([H])C([H])([H])[C@@]([H])(N([H])c2nc(N([H])C([H])([H])C([H])([H])C([H])([H])C([H])([H])[H])nc([H])c2C(=O)N([H])C2([H])C([H])([H])C([H])([H])N(C([H])([H])C([H])([H])C([H])([H])c3c([H])c([H])c([H])c([H])c3[H])C([H])([H])C2([H])[H])C([H])([H])C1([H])[H]


 41 44  0  0  0  0  0  0  0  0999 V2000
    4.7307    2.1647   19.6660 C   0  0  0  0  0  0  0  0  0  0  0  0
    4.3577    1.5950   18.5090 N   0  0  0  0  0  0  0  0  0  0  0  0
    3.7896    2.3100   17.5269 C   0  0  0  0  0  0  0  0  0  0  0  0
    3.5851    3.6836   17.7232 C   0  0  0  0  0  0  0  0  0  0  0  0
    3.9586    4.2734   18.8912 C   0  0  0  0  0  0  0  0  0  0  0  0
    4.5334    3.4740   19.8476 N   0  0  0  0  0  0  0  0  0  0  0  0
    2.9757    4.4123   16.6537 C   0  0  0  0  0  0  0  0  0  0  0  0
    1.8847    5.0119   16.7551 O   0  0  0  0  0  0  0  0  0  0  0  0
    3.5890    4.5021   15.3770 N   0  0  0  0  0  0  0  0  0  0  0  0
    4.4932    4.0646   15.1229 H   0  0  0  0  0  0  0  0  0  0  0  0
    2.9631    5.2504   14.2807 C   0  0  0  0  0  0  0  0  0  0  0  0
    3.4757    6.6608   14.3961 C   0  0  0  0  0  0  0  0  0  0  0  0
    2.8756    7.4755   13.2781 C   0  0  0  0  0  0  0  0  0  0  0  0
    3.2949    6.9540   11.9666 N   0  0  0  0  0  0  0  0  0  0  0  0
    4.0657    5.7598   12.1085 C   0  0  0  0  0  0  0  0  0  0  0  0
    3.3749    4.7082   12.9453 C   0  0  0  0  0  0  0  0  0  0  0  0
    2.1090    6.7538   11.2125 C   0  0  0  0  0  0  0  0  0  0  0  0
    0.8159    7.0797   11.8508 C   0  0  0  0  0  0  0  0  0  0  0  0
   -0.0866    5.8907   11.9585 C   0  0  0  0  0  0  0  0  0  0  0  0
   -1.4695    6.1545   12.3064 C   0  0  0  0  0  0  0  0  0  0  0  0
   -2.5001    5.6667   11.5331 C   0  0  0  0  0  0  0  0  0  0  0  0
   -3.8215    5.9116   11.8656 C   0  0  0  0  0  0  0  0  0  0  0  0
   -4.1142    6.6534   12.9853 C   0  0  0  0  0  0  0  0  0  0  0  0
   -3.1030    7.1567   13.7816 C   0  0  0  0  0  0  0  0  0  0  0  0
   -1.7941    6.8900   13.4157 C   0  0  0  0  0  0  0  0  0  0  0  0
    5.3240    1.3451   20.6574 N   0  0  0  0  0  0  0  0  0  0  0  0
    6.3527    1.3247   20.8022 H   0  0  0  0  0  0  0  0  0  0  0  0
    4.4990    0.5114   21.4968 C   0  0  0  0  0  0  0  0  0  0  0  0
    3.6328    1.3051   22.4288 C   0  0  0  0  0  0  0  0  0  0  0  0
    4.2892    3.3771   23.5247 C   0  0  0  0  0  0  0  0  0  0  0  0
    4.4346    1.8667   23.5737 C   0  0  0  0  0  0  0  0  0  0  0  0
    3.8064    5.6295   19.2034 N   0  0  0  0  0  0  0  0  0  0  0  0
    2.9203    6.0790   19.4016 H   0  0  0  0  0  0  0  0  0  0  0  0
    4.9829    6.5177   19.2615 C   0  0  0  0  0  0  0  0  0  0  0  0
    5.5857    6.7280   17.9112 C   0  0  0  0  0  0  0  0  0  0  0  0
    5.9280    8.1757   17.6465 C   0  0  0  0  0  0  0  0  0  0  0  0
    4.7566    9.0992   17.8341 C   0  0  0  0  0  0  0  0  0  0  0  0
    5.2273   10.3476   18.2684 O   0  0  0  0  0  0  0  0  0  0  0  0
    3.7979    8.6085   18.8876 C   0  0  0  0  0  0  0  0  0  0  0  0
    4.6185    7.8162   19.8996 C   0  0  0  0  0  0  0  0  0  0  0  0
    4.8614   11.0930   17.7531 H   0  0  0  0  0  0  0  0  0  0  0  0
 30 31  1  0  0  0
 31 29  1  0  0  0
 29 28  1  0  0  0
 28 26  1  0  0  0
 26  1  1  0  0  0
  1  2  2  0  0  0
  2  3  1  0  0  0
  3  4  2  0  0  0
  4  7  1  0  0  0
  7  8  2  0  0  0
  7  9  1  0  0  0
  9 11  1  0  0  0
 11 12  1  0  0  0
 12 13  1  0  0  0
 13 14  1  0  0  0
 14 17  1  0  0  0
 17 18  1  0  0  0
 18 19  1  0  0  0
 19 20  1  0  0  0
 20 21  2  0  0  0
 21 22  1  0  0  0
 22 23  2  0  0  0
 23 24  1  0  0  0
 24 25  2  0  0  0
 14 15  1  0  0  0
 15 16  1  0  0  0
  4  5  1  0  0  0
  5 32  1  0  0  0
 32 34  1  0  0  0
 34 35  1  0  0  0
 35 36  1  0  0  0
 36 37  1  0  0  0
 37 38  1  0  0  0
 37 39  1  0  0  0
 39 40  1  0  0  0
  5  6  2  0  0  0
  6  1  1  0  0  0
 16 11  1  0  0  0
 40 34  1  0  0  0
 25 20  1  0  0  0
 26 27  1  0  0  0
  9 10  1  0  0  0
 32 33  1  0  0  0
 38 41  1  0  0  0
M  END
> <minimizedAffinity>
-8.07411

> <CNNscore>
0.4200592637

> <CNNaffinity>
7.0303993225

> <CNN_VS>
2.9531843662

> <CNNaffinity_variance>
0.4917143285

$$$$
[H]O[C@]1([H])C([H])([H])C([H])([H])[C@@]([H])(N([H])c2nc(N([H])C([H])([H])C([H])([H])C([H])([H])C([H])([H])[H])nc([H])c2C(=O)N([H])C2([H])C([H])([H])C([H])([H])N(C([H])([H])C([H])([H])C([H])([H])c3c([H])c([H])c([H])c([H])c3[H])C([H])([H])C2([H])[H])C([H])([H])C1([H])[H]


 41 44  0  0  0  0  0  0  0  0999 V2000
    4.7241    2.3257   19.5406 C   0  0  0  0  0  0  0  0  0  0  0  0
    4.4666    1.8642   18.3065 N   0  0  0  0  0  0  0  0  0  0  0  0
    3.8996    2.6411   17.3719 C   0  0  0  0  0  0  0  0  0  0  0  0
    3.5724    3.9645   17.7016 C   0  0  0  0  0  0  0  0  0  0  0  0
    3.8283    4.4447   18.9488 C   0  0  0  0  0  0  0  0  0  0  0  0
    4.4102    3.5875   19.8492 N   0  0  0  0  0  0  0  0  0  0  0  0
    2.9684    4.7618   16.6790 C   0  0  0  0  0  0  0  0  0  0  0  0
    1.7645    5.0949   16.6784 O   0  0  0  0  0  0  0  0  0  0  0  0
    3.7190    5.2370   15.5723 N   0  0  0  0  0  0  0  0  0  0  0  0
    4.7271    5.0533   15.4185 H   0  0  0  0  0  0  0  0  0  0  0  0
    3.0983    6.0553   14.5241 C   0  0  0  0  0  0  0  0  0  0  0  0
    3.3351    7.4875   14.9218 C   0  0  0  0  0  0  0  0  0  0  0  0
    2.7303    8.3781   13.8660 C   0  0  0  0  0  0  0  0  0  0  0  0
    3.3817    8.1630   12.5633 N   0  0  0  0  0  0  0  0  0  0  0  0
    4.3317    7.0983   12.6309 C   0  0  0  0  0  0  0  0  0  0  0  0
    3.7489    5.8230   13.1938 C   0  0  0  0  0  0  0  0  0  0  0  0
    2.3437    7.9119   11.6281 C   0  0  0  0  0  0  0  0  0  0  0  0
    0.9582    7.8201   12.1353 C   0  0  0  0  0  0  0  0  0  0  0  0
    0.1410    6.8100   11.3925 C   0  0  0  0  0  0  0  0  0  0  0  0
    0.5390    5.4226   11.5328 C   0  0  0  0  0  0  0  0  0  0  0  0
    0.2684    4.7211   12.6873 C   0  0  0  0  0  0  0  0  0  0  0  0
    0.6417    3.3948   12.8224 C   0  0  0  0  0  0  0  0  0  0  0  0
    1.2933    2.7637   11.7895 C   0  0  0  0  0  0  0  0  0  0  0  0
    1.5792    3.4399   10.6186 C   0  0  0  0  0  0  0  0  0  0  0  0
    1.1895    4.7654   10.5220 C   0  0  0  0  0  0  0  0  0  0  0  0
    5.3241    1.4460   20.4748 N   0  0  0  0  0  0  0  0  0  0  0  0
    6.1286    0.8421   20.2143 H   0  0  0  0  0  0  0  0  0  0  0  0
    4.8221    1.3709   21.8248 C   0  0  0  0  0  0  0  0  0  0  0  0
    5.7125    2.0634   22.8130 C   0  0  0  0  0  0  0  0  0  0  0  0
    4.0658    3.7138   23.5127 C   0  0  0  0  0  0  0  0  0  0  0  0
    4.9280    2.5624   23.9982 C   0  0  0  0  0  0  0  0  0  0  0  0
    3.5479    5.7415   19.3951 N   0  0  0  0  0  0  0  0  0  0  0  0
    2.7475    5.9950   19.9624 H   0  0  0  0  0  0  0  0  0  0  0  0
    4.4437    6.8603   19.0454 C   0  0  0  0  0  0  0  0  0  0  0  0
    3.7110    8.1608   18.9916 C   0  0  0  0  0  0  0  0  0  0  0  0
    4.4560    9.2769   19.6861 C   0  0  0  0  0  0  0  0  0  0  0  0
    4.8119    8.9479   21.1093 C   0  0  0  0  0  0  0  0  0  0  0  0
    6.0067    9.6039   21.4421 O   0  0  0  0  0  0  0  0  0  0  0  0
    5.0546    7.4757   21.3178 C   0  0  0  0  0  0  0  0  0  0  0  0
    5.5882    6.9232   20.0005 C   0  0  0  0  0  0  0  0  0  0  0  0
    5.9503   10.0931   22.2863 H   0  0  0  0  0  0  0  0  0  0  0  0
 30 31  1  0  0  0
 31 29  1  0  0  0
 29 28  1  0  0  0
 28 26  1  0  0  0
 26  1  1  0  0  0
  1  2  2  0  0  0
  2  3  1  0  0  0
  3  4  2  0  0  0
  4  7  1  0  0  0
  7  8  2  0  0  0
  7  9  1  0  0  0
  9 11  1  0  0  0
 11 12  1  0  0  0
 12 13  1  0  0  0
 13 14  1  0  0  0
 14 17  1  0  0  0
 17 18  1  0  0  0
 18 19  1  0  0  0
 19 20  1  0  0  0
 20 21  2  0  0  0
 21 22  1  0  0  0
 22 23  2  0  0  0
 23 24  1  0  0  0
 24 25  2  0  0  0
 14 15  1  0  0  0
 15 16  1  0  0  0
  4  5  1  0  0  0
  5 32  1  0  0  0
 32 34  1  0  0  0
 34 35  1  0  0  0
 35 36  1  0  0  0
 36 37  1  0  0  0
 37 38  1  0  0  0
 37 39  1  0  0  0
 39 40  1  0  0  0
  5  6  2  0  0  0
  6  1  1  0  0  0
 16 11  1  0  0  0
 40 34  1  0  0  0
 25 20  1  0  0  0
 26 27  1  0  0  0
  9 10  1  0  0  0
 32 33  1  0  0  0
 38 41  1  0  0  0
M  END
> <minimizedAffinity>
-7.75964

> <CNNscore>
0.3967456818

> <CNNaffinity>
6.8954634666

> <CNN_VS>
2.7357454300

> <CNNaffinity_variance>
0.2928249836

$$$$
[H]O[C@]1([H])C([H])([H])C([H])([H])[C@@]([H])(N([H])c2nc(N([H])C([H])([H])C([H])([H])C([H])([H])C([H])([H])[H])nc([H])c2C(=O)N([H])C2([H])C([H])([H])C([H])([H])N(C([H])([H])C([H])([H])C([H])([H])c3c([H])c([H])c([H])c([H])c3[H])C([H])([H])C2([H])[H])C([H])([H])C1([H])[H]


 41 44  0  0  0  0  0  0  0  0999 V2000
    5.0841    3.2207   20.3075 C   0  0  0  0  0  0  0  0  0  0  0  0
    4.8206    2.5190   19.1937 N   0  0  0  0  0  0  0  0  0  0  0  0
    4.1342    3.0548   18.1738 C   0  0  0  0  0  0  0  0  0  0  0  0
    3.6860    4.3793   18.2834 C   0  0  0  0  0  0  0  0  0  0  0  0
    3.9465    5.1015   19.4069 C   0  0  0  0  0  0  0  0  0  0  0  0
    4.6547    4.4824   20.4065 N   0  0  0  0  0  0  0  0  0  0  0  0
    2.9566    4.9155   17.1759 C   0  0  0  0  0  0  0  0  0  0  0  0
    1.7127    5.0263   17.1518 O   0  0  0  0  0  0  0  0  0  0  0  0
    3.6182    5.3673   16.0044 N   0  0  0  0  0  0  0  0  0  0  0  0
    4.6439    5.3471   15.8591 H   0  0  0  0  0  0  0  0  0  0  0  0
    2.8688    5.9176   14.8690 C   0  0  0  0  0  0  0  0  0  0  0  0
    3.5543    7.2076   14.5063 C   0  0  0  0  0  0  0  0  0  0  0  0
    2.8332    7.8116   13.3278 C   0  0  0  0  0  0  0  0  0  0  0  0
    2.9068    6.9224   12.1567 N   0  0  0  0  0  0  0  0  0  0  0  0
    3.5465    5.6882   12.4853 C   0  0  0  0  0  0  0  0  0  0  0  0
    2.9279    5.0039   13.6821 C   0  0  0  0  0  0  0  0  0  0  0  0
    1.5749    6.7439   11.6994 C   0  0  0  0  0  0  0  0  0  0  0  0
    0.4972    7.4812   12.3926 C   0  0  0  0  0  0  0  0  0  0  0  0
   -0.3287    6.5966   13.2731 C   0  0  0  0  0  0  0  0  0  0  0  0
   -1.7159    6.4134   12.8919 C   0  0  0  0  0  0  0  0  0  0  0  0
   -2.0634    5.5510   11.8753 C   0  0  0  0  0  0  0  0  0  0  0  0
   -3.3870    5.3693   11.5127 C   0  0  0  0  0  0  0  0  0  0  0  0
   -4.3740    6.0591   12.1758 C   0  0  0  0  0  0  0  0  0  0  0  0
   -4.0580    6.9315   13.2000 C   0  0  0  0  0  0  0  0  0  0  0  0
   -2.7226    7.0859   13.5331 C   0  0  0  0  0  0  0  0  0  0  0  0
    5.8141    2.5873   21.3432 N   0  0  0  0  0  0  0  0  0  0  0  0
    6.6919    2.9971   21.7191 H   0  0  0  0  0  0  0  0  0  0  0  0
    5.3457    1.3436   21.9034 C   0  0  0  0  0  0  0  0  0  0  0  0
    4.0049    1.4739   22.5624 C   0  0  0  0  0  0  0  0  0  0  0  0
    3.6484   -0.5190   21.2110 C   0  0  0  0  0  0  0  0  0  0  0  0
    2.9553    0.6842   21.8249 C   0  0  0  0  0  0  0  0  0  0  0  0
    3.5529    6.4258   19.6327 N   0  0  0  0  0  0  0  0  0  0  0  0
    2.7075    6.7005   20.1191 H   0  0  0  0  0  0  0  0  0  0  0  0
    4.3861    7.5438   19.1506 C   0  0  0  0  0  0  0  0  0  0  0  0
    3.6551    8.8450   19.2092 C   0  0  0  0  0  0  0  0  0  0  0  0
    4.4984    9.9602   19.7820 C   0  0  0  0  0  0  0  0  0  0  0  0
    5.0668    9.6305   21.1343 C   0  0  0  0  0  0  0  0  0  0  0  0
    6.2991   10.2853   21.2810 O   0  0  0  0  0  0  0  0  0  0  0  0
    5.3370    8.1581   21.3032 C   0  0  0  0  0  0  0  0  0  0  0  0
    5.6629    7.6053   19.9199 C   0  0  0  0  0  0  0  0  0  0  0  0
    6.3725   10.7744   22.1239 H   0  0  0  0  0  0  0  0  0  0  0  0
 30 31  1  0  0  0
 31 29  1  0  0  0
 29 28  1  0  0  0
 28 26  1  0  0  0
 26  1  1  0  0  0
  1  2  2  0  0  0
  2  3  1  0  0  0
  3  4  2  0  0  0
  4  7  1  0  0  0
  7  8  2  0  0  0
  7  9  1  0  0  0
  9 11  1  0  0  0
 11 12  1  0  0  0
 12 13  1  0  0  0
 13 14  1  0  0  0
 14 17  1  0  0  0
 17 18  1  0  0  0
 18 19  1  0  0  0
 19 20  1  0  0  0
 20 21  2  0  0  0
 21 22  1  0  0  0
 22 23  2  0  0  0
 23 24  1  0  0  0
 24 25  2  0  0  0
 14 15  1  0  0  0
 15 16  1  0  0  0
  4  5  1  0  0  0
  5 32  1  0  0  0
 32 34  1  0  0  0
 34 35  1  0  0  0
 35 36  1  0  0  0
 36 37  1  0  0  0
 37 38  1  0  0  0
 37 39  1  0  0  0
 39 40  1  0  0  0
  5  6  2  0  0  0
  6  1  1  0  0  0
 16 11  1  0  0  0
 40 34  1  0  0  0
 25 20  1  0  0  0
 26 27  1  0  0  0
  9 10  1  0  0  0
 32 33  1  0  0  0
 38 41  1  0  0  0
M  END
> <minimizedAffinity>
-8.77036

> <CNNscore>
0.3856449127

> <CNNaffinity>
6.8329401016

> <CNN_VS>
2.6350886822

> <CNNaffinity_variance>
0.1751617640

$$$$
[H]O[C@]1([H])C([H])([H])C([H])([H])[C@@]([H])(N([H])c2nc(N([H])C([H])([H])C([H])([H])C([H])([H])C([H])([H])[H])nc([H])c2C(=O)N([H])C2([H])C([H])([H])C([H])([H])N(C([H])([H])C([H])([H])C([H])([H])c3c([H])c([H])c([H])c([H])c3[H])C([H])([H])C2([H])[H])C([H])([H])C1([H])[H]


 41 44  0  0  0  0  0  0  0  0999 V2000
    3.8938    0.9875   19.6797 C   0  0  0  0  0  0  0  0  0  0  0  0
    3.0085    0.3589   18.8900 N   0  0  0  0  0  0  0  0  0  0  0  0
    2.7939    0.7522   17.6260 C   0  0  0  0  0  0  0  0  0  0  0  0
    3.5161    1.8462   17.1274 C   0  0  0  0  0  0  0  0  0  0  0  0
    4.4165    2.4921   17.9173 C   0  0  0  0  0  0  0  0  0  0  0  0
    4.5792    2.0294   19.1993 N   0  0  0  0  0  0  0  0  0  0  0  0
    3.2592    2.2367   15.7755 C   0  0  0  0  0  0  0  0  0  0  0  0
    3.6201    1.5734   14.7805 O   0  0  0  0  0  0  0  0  0  0  0  0
    2.5593    3.4335   15.4722 N   0  0  0  0  0  0  0  0  0  0  0  0
    2.1909    4.0981   16.1766 H   0  0  0  0  0  0  0  0  0  0  0  0
    2.2959    3.8327   14.0848 C   0  0  0  0  0  0  0  0  0  0  0  0
    1.0702    3.0697   13.6596 C   0  0  0  0  0  0  0  0  0  0  0  0
    0.7412    3.4558   12.2397 C   0  0  0  0  0  0  0  0  0  0  0  0
    0.4280    4.8913   12.1464 N   0  0  0  0  0  0  0  0  0  0  0  0
    0.6242    5.5450   13.4012 C   0  0  0  0  0  0  0  0  0  0  0  0
    1.9952    5.2979   13.9866 C   0  0  0  0  0  0  0  0  0  0  0  0
    1.2528    5.4198   11.1189 C   0  0  0  0  0  0  0  0  0  0  0  0
    2.1307    4.4856   10.3827 C   0  0  0  0  0  0  0  0  0  0  0  0
    3.5835    4.7788   10.5911 C   0  0  0  0  0  0  0  0  0  0  0  0
    4.1689    5.7973    9.7407 C   0  0  0  0  0  0  0  0  0  0  0  0
    4.0508    5.7295    8.3697 C   0  0  0  0  0  0  0  0  0  0  0  0
    4.6033    6.7031    7.5553 C   0  0  0  0  0  0  0  0  0  0  0  0
    5.2819    7.7567    8.1201 C   0  0  0  0  0  0  0  0  0  0  0  0
    5.4177    7.8534    9.4920 C   0  0  0  0  0  0  0  0  0  0  0  0
    4.8510    6.8597   10.2727 C   0  0  0  0  0  0  0  0  0  0  0  0
    4.0661    0.5153   21.0040 N   0  0  0  0  0  0  0  0  0  0  0  0
    4.6216   -0.3385   21.2092 H   0  0  0  0  0  0  0  0  0  0  0  0
    3.4646    1.2211   22.1087 C   0  0  0  0  0  0  0  0  0  0  0  0
    4.4376    2.1064   22.8287 C   0  0  0  0  0  0  0  0  0  0  0  0
    5.3515    4.3217   22.4016 C   0  0  0  0  0  0  0  0  0  0  0  0
    4.0683    3.5590   22.6784 C   0  0  0  0  0  0  0  0  0  0  0  0
    5.1934    3.5918   17.5347 N   0  0  0  0  0  0  0  0  0  0  0  0
    5.7073    3.6591   16.6639 H   0  0  0  0  0  0  0  0  0  0  0  0
    5.3122    4.7653   18.4208 C   0  0  0  0  0  0  0  0  0  0  0  0
    6.3016    5.7554   17.8996 C   0  0  0  0  0  0  0  0  0  0  0  0
    5.7952    7.1770   17.9730 C   0  0  0  0  0  0  0  0  0  0  0  0
    4.4717    7.3646   17.2848 C   0  0  0  0  0  0  0  0  0  0  0  0
    3.7592    8.3807   17.9396 O   0  0  0  0  0  0  0  0  0  0  0  0
    3.6120    6.1287   17.3411 C   0  0  0  0  0  0  0  0  0  0  0  0
    3.9749    5.3940   18.6271 C   0  0  0  0  0  0  0  0  0  0  0  0
    3.4027    9.0522   17.3256 H   0  0  0  0  0  0  0  0  0  0  0  0
 30 31  1  0  0  0
 31 29  1  0  0  0
 29 28  1  0  0  0
 28 26  1  0  0  0
 26  1  1  0  0  0
  1  2  2  0  0  0
  2  3  1  0  0  0
  3  4  2  0  0  0
  4  7  1  0  0  0
  7  8  2  0  0  0
  7  9  1  0  0  0
  9 11  1  0  0  0
 11 12  1  0  0  0
 12 13  1  0  0  0
 13 14  1  0  0  0
 14 17  1  0  0  0
 17 18  1  0  0  0
 18 19  1  0  0  0
 19 20  1  0  0  0
 20 21  2  0  0  0
 21 22  1  0  0  0
 22 23  2  0  0  0
 23 24  1  0  0  0
 24 25  2  0  0  0
 14 15  1  0  0  0
 15 16  1  0  0  0
  4  5  1  0  0  0
  5 32  1  0  0  0
 32 34  1  0  0  0
 34 35  1  0  0  0
 35 36  1  0  0  0
 36 37  1  0  0  0
 37 38  1  0  0  0
 37 39  1  0  0  0
 39 40  1  0  0  0
  5  6  2  0  0  0
  6  1  1  0  0  0
 16 11  1  0  0  0
 40 34  1  0  0  0
 25 20  1  0  0  0
 26 27  1  0  0  0
  9 10  1  0  0  0
 32 33  1  0  0  0
 38 41  1  0  0  0
M  END
> <minimizedAffinity>
-6.51007

> <CNNscore>
0.3623311818

> <CNNaffinity>
6.6958260536

> <CNN_VS>
2.4261064529

> <CNNaffinity_variance>
0.4986871779

$$$$
[H]O[C@]1([H])C([H])([H])C([H])([H])[C@@]([H])(N([H])c2nc(N([H])C([H])([H])C([H])([H])C([H])([H])C([H])([H])[H])nc([H])c2C(=O)N([H])C2([H])C([H])([H])C([H])([H])N(C([H])([H])C([H])([H])C([H])([H])c3c([H])c([H])c([H])c([H])c3[H])C([H])([H])C2([H])[H])C([H])([H])C1([H])[H]


 41 44  0  0  0  0  0  0  0  0999 V2000
    4.7665    1.7949   19.4978 C   0  0  0  0  0  0  0  0  0  0  0  0
    3.8919    1.2377   18.6452 N   0  0  0  0  0  0  0  0  0  0  0  0
    3.3748    1.9300   17.6196 C   0  0  0  0  0  0  0  0  0  0  0  0
    3.7634    3.2660   17.4427 C   0  0  0  0  0  0  0  0  0  0  0  0
    4.6492    3.8427   18.2996 C   0  0  0  0  0  0  0  0  0  0  0  0
    5.1333    3.0683   19.3244 N   0  0  0  0  0  0  0  0  0  0  0  0
    3.1899    3.9719   16.3386 C   0  0  0  0  0  0  0  0  0  0  0  0
    3.0489    5.2125   16.3053 O   0  0  0  0  0  0  0  0  0  0  0  0
    2.7336    3.2888   15.1813 N   0  0  0  0  0  0  0  0  0  0  0  0
    2.7759    2.2625   15.0449 H   0  0  0  0  0  0  0  0  0  0  0  0
    2.1459    4.0142   14.0491 C   0  0  0  0  0  0  0  0  0  0  0  0
    1.5057    5.2449   14.6329 C   0  0  0  0  0  0  0  0  0  0  0  0
    0.8973    6.0416   13.5064 C   0  0  0  0  0  0  0  0  0  0  0  0
    1.9334    6.4842   12.5587 N   0  0  0  0  0  0  0  0  0  0  0  0
    3.2122    5.9505   12.9058 C   0  0  0  0  0  0  0  0  0  0  0  0
    3.1983    4.4490   13.0743 C   0  0  0  0  0  0  0  0  0  0  0  0
    1.5024    6.0779   11.2687 C   0  0  0  0  0  0  0  0  0  0  0  0
    0.1936    6.5679   10.7866 C   0  0  0  0  0  0  0  0  0  0  0  0
   -0.6961    5.4600   10.3167 C   0  0  0  0  0  0  0  0  0  0  0  0
   -2.1232    5.6594   10.4802 C   0  0  0  0  0  0  0  0  0  0  0  0
   -2.9502    5.7914    9.3862 C   0  0  0  0  0  0  0  0  0  0  0  0
   -4.3137    5.9759    9.5385 C   0  0  0  0  0  0  0  0  0  0  0  0
   -4.8554    6.0290   10.8008 C   0  0  0  0  0  0  0  0  0  0  0  0
   -4.0527    5.9000   11.9183 C   0  0  0  0  0  0  0  0  0  0  0  0
   -2.6936    5.7167   11.7245 C   0  0  0  0  0  0  0  0  0  0  0  0
    5.2694    1.0013   20.5579 N   0  0  0  0  0  0  0  0  0  0  0  0
    5.3693   -0.0290   20.4661 H   0  0  0  0  0  0  0  0  0  0  0  0
    5.6580    1.6173   21.8028 C   0  0  0  0  0  0  0  0  0  0  0  0
    4.5306    1.6913   22.7889 C   0  0  0  0  0  0  0  0  0  0  0  0
    3.6627    3.9156   23.2621 C   0  0  0  0  0  0  0  0  0  0  0  0
    4.6815    2.8797   23.7022 C   0  0  0  0  0  0  0  0  0  0  0  0
    5.1108    5.1623   18.2269 N   0  0  0  0  0  0  0  0  0  0  0  0
    5.1795    5.7022   17.3723 H   0  0  0  0  0  0  0  0  0  0  0  0
    5.5433    5.8691   19.4475 C   0  0  0  0  0  0  0  0  0  0  0  0
    6.6316    6.8516   19.1625 C   0  0  0  0  0  0  0  0  0  0  0  0
    6.4066    8.1819   19.8427 C   0  0  0  0  0  0  0  0  0  0  0  0
    5.0702    8.7888   19.5167 C   0  0  0  0  0  0  0  0  0  0  0  0
    4.6359    9.5474   20.6143 O   0  0  0  0  0  0  0  0  0  0  0  0
    4.0104    7.7484   19.2638 C   0  0  0  0  0  0  0  0  0  0  0  0
    4.3767    6.5289   20.1029 C   0  0  0  0  0  0  0  0  0  0  0  0
    4.3409   10.4449   20.3642 H   0  0  0  0  0  0  0  0  0  0  0  0
 30 31  1  0  0  0
 31 29  1  0  0  0
 29 28  1  0  0  0
 28 26  1  0  0  0
 26  1  1  0  0  0
  1  2  2  0  0  0
  2  3  1  0  0  0
  3  4  2  0  0  0
  4  7  1  0  0  0
  7  8  2  0  0  0
  7  9  1  0  0  0
  9 11  1  0  0  0
 11 12  1  0  0  0
 12 13  1  0  0  0
 13 14  1  0  0  0
 14 17  1  0  0  0
 17 18  1  0  0  0
 18 19  1  0  0  0
 19 20  1  0  0  0
 20 21  2  0  0  0
 21 22  1  0  0  0
 22 23  2  0  0  0
 23 24  1  0  0  0
 24 25  2  0  0  0
 14 15  1  0  0  0
 15 16  1  0  0  0
  4  5  1  0  0  0
  5 32  1  0  0  0
 32 34  1  0  0  0
 34 35  1  0  0  0
 35 36  1  0  0  0
 36 37  1  0  0  0
 37 38  1  0  0  0
 37 39  1  0  0  0
 39 40  1  0  0  0
  5  6  2  0  0  0
  6  1  1  0  0  0
 16 11  1  0  0  0
 40 34  1  0  0  0
 25 20  1  0  0  0
 26 27  1  0  0  0
  9 10  1  0  0  0
 32 33  1  0  0  0
 38 41  1  0  0  0
M  END
> <minimizedAffinity>
-7.43500

> <CNNscore>
0.3564939499

> <CNNaffinity>
6.7311048508

> <CNN_VS>
2.3995981216

> <CNNaffinity_variance>
0.6467966437

$$$$
[H]O[C@]1([H])C([H])([H])C([H])([H])[C@@]([H])(N([H])c2nc(N([H])C([H])([H])C([H])([H])C([H])([H])C([H])([H])[H])nc([H])c2-c2nc(N3C([H])([H])C([H])([H])C([H])([H])C3([H])[H])c([H])nc2[H])C([H])([H])C1([H])[H]


 33 36  0  0  0  0  0  0  0  0999 V2000
    3.8323    4.0918   14.4588 C   0  0  0  0  0  0  0  0  0  0  0  0
    2.9720    3.0864   14.4158 N   0  0  0  0  0  0  0  0  0  0  0  0
    2.8105    2.2282   15.4081 C   0  0  0  0  0  0  0  0  0  0  0  0
    3.5831    2.3711   16.5827 C   0  0  0  0  0  0  0  0  0  0  0  0
    4.4775    3.4062   16.6548 C   0  0  0  0  0  0  0  0  0  0  0  0
    4.5688    4.2308   15.5805 N   0  0  0  0  0  0  0  0  0  0  0  0
    3.3159    1.3784   17.5918 C   0  0  0  0  0  0  0  0  0  0  0  0
    2.4432    0.3540   17.4166 C   0  0  0  0  0  0  0  0  0  0  0  0
    2.1946   -0.4716   18.4489 N   0  0  0  0  0  0  0  0  0  0  0  0
    2.7884   -0.3017   19.6422 C   0  0  0  0  0  0  0  0  0  0  0  0
    3.6838    0.7319   19.8632 C   0  0  0  0  0  0  0  0  0  0  0  0
    3.9061    1.5306   18.8146 N   0  0  0  0  0  0  0  0  0  0  0  0
    4.3118    0.9123   21.1254 N   0  0  0  0  0  0  0  0  0  0  0  0
    3.7599    1.1717   22.4140 C   0  0  0  0  0  0  0  0  0  0  0  0
    4.7847    2.0149   23.1485 C   0  0  0  0  0  0  0  0  0  0  0  0
    6.0723    1.9046   22.3407 C   0  0  0  0  0  0  0  0  0  0  0  0
    5.7698    0.8498   21.2940 C   0  0  0  0  0  0  0  0  0  0  0  0
    3.9905    5.0018   13.3788 N   0  0  0  0  0  0  0  0  0  0  0  0
    4.9230    5.0063   12.8809 H   0  0  0  0  0  0  0  0  0  0  0  0
    2.9332    5.8845   12.9713 C   0  0  0  0  0  0  0  0  0  0  0  0
    2.5857    6.9054   13.9989 C   0  0  0  0  0  0  0  0  0  0  0  0
    0.5642    7.1424   12.5440 C   0  0  0  0  0  0  0  0  0  0  0  0
    1.4904    7.8513   13.5086 C   0  0  0  0  0  0  0  0  0  0  0  0
    5.2045    3.7214   17.8045 N   0  0  0  0  0  0  0  0  0  0  0  0
    6.0132    3.1312   18.0930 H   0  0  0  0  0  0  0  0  0  0  0  0
    4.8678    4.8189   18.7002 C   0  0  0  0  0  0  0  0  0  0  0  0
    5.0643    4.5220   20.1451 C   0  0  0  0  0  0  0  0  0  0  0  0
    4.2936    5.5766   20.9333 C   0  0  0  0  0  0  0  0  0  0  0  0
    4.6354    6.9368   20.3818 C   0  0  0  0  0  0  0  0  0  0  0  0
    3.6224    7.4378   19.5653 O   0  0  0  0  0  0  0  0  0  0  0  0
    5.8897    6.8716   19.5713 C   0  0  0  0  0  0  0  0  0  0  0  0
    5.6028    6.0655   18.3182 C   0  0  0  0  0  0  0  0  0  0  0  0
    3.9475    8.2664   19.1386 H   0  0  0  0  0  0  0  0  0  0  0  0
 22 23  1  0  0  0
 23 21  1  0  0  0
 21 20  1  0  0  0
 20 18  1  0  0  0
 18  1  1  0  0  0
  1  2  2  0  0  0
  2  3  1  0  0  0
  3  4  2  0  0  0
  4  5  1  0  0  0
  5 24  1  0  0  0
 24 26  1  0  0  0
 26 27  1  0  0  0
 27 28  1  0  0  0
 28 29  1  0  0  0
 29 30  1  0  0  0
 29 31  1  0  0  0
 31 32  1  0  0  0
  5  6  2  0  0  0
  4  7  1  0  0  0
  7  8  2  0  0  0
  8  9  1  0  0  0
  9 10  2  0  0  0
 10 11  1  0  0  0
 11 12  2  0  0  0
 11 13  1  0  0  0
 13 14  1  0  0  0
 14 15  1  0  0  0
 15 16  1  0  0  0
 16 17  1  0  0  0
  6  1  1  0  0  0
 12  7  1  0  0  0
 17 13  1  0  0  0
 32 26  1  0  0  0
 18 19  1  0  0  0
 24 25  1  0  0  0
 30 33  1  0  0  0
M  END
> <minimizedAffinity>
-8.03638

> <CNNscore>
0.8022490740

> <CNNaffinity>
7.3323163986

> <CNN_VS>
5.8823442459

> <CNNaffinity_variance>
0.2482459247

$$$$
[H]O[C@]1([H])C([H])([H])C([H])([H])[C@@]([H])(N([H])c2nc(N([H])C([H])([H])C([H])([H])C([H])([H])C([H])([H])[H])nc([H])c2-c2nc(N3C([H])([H])C([H])([H])C([H])([H])C3([H])[H])c([H])nc2[H])C([H])([H])C1([H])[H]


 33 36  0  0  0  0  0  0  0  0999 V2000
    3.3165    2.9269   14.4233 C   0  0  0  0  0  0  0  0  0  0  0  0
    2.4880    1.9776   14.8299 N   0  0  0  0  0  0  0  0  0  0  0  0
    2.5307    1.4485   16.0404 C   0  0  0  0  0  0  0  0  0  0  0  0
    3.4999    1.9026   16.9632 C   0  0  0  0  0  0  0  0  0  0  0  0
    4.3665    2.8877   16.5692 C   0  0  0  0  0  0  0  0  0  0  0  0
    4.2407    3.3631   15.3040 N   0  0  0  0  0  0  0  0  0  0  0  0
    3.4451    1.2527   18.2476 C   0  0  0  0  0  0  0  0  0  0  0  0
    2.7835    0.0881   18.4659 C   0  0  0  0  0  0  0  0  0  0  0  0
    2.7152   -0.3955   19.7190 N   0  0  0  0  0  0  0  0  0  0  0  0
    3.2840    0.2488   20.7519 C   0  0  0  0  0  0  0  0  0  0  0  0
    3.9669    1.4406   20.5725 C   0  0  0  0  0  0  0  0  0  0  0  0
    4.0143    1.8893   19.3142 N   0  0  0  0  0  0  0  0  0  0  0  0
    4.5683    2.1226   21.6648 N   0  0  0  0  0  0  0  0  0  0  0  0
    5.6206    1.7321   22.5438 C   0  0  0  0  0  0  0  0  0  0  0  0
    5.3188    2.3869   23.8783 C   0  0  0  0  0  0  0  0  0  0  0  0
    4.2545    3.4403   23.5952 C   0  0  0  0  0  0  0  0  0  0  0  0
    4.1438    3.4653   22.0830 C   0  0  0  0  0  0  0  0  0  0  0  0
    3.2534    3.4803   13.1160 N   0  0  0  0  0  0  0  0  0  0  0  0
    3.9064    4.2821   12.8965 H   0  0  0  0  0  0  0  0  0  0  0  0
    2.3432    2.9787   12.1245 C   0  0  0  0  0  0  0  0  0  0  0  0
    2.9950    2.6849   10.8177 C   0  0  0  0  0  0  0  0  0  0  0  0
    1.6674    0.7851    9.8755 C   0  0  0  0  0  0  0  0  0  0  0  0
    2.9837    1.1895   10.5036 C   0  0  0  0  0  0  0  0  0  0  0  0
    5.2820    3.5009   17.4268 N   0  0  0  0  0  0  0  0  0  0  0  0
    6.1995    3.0489   17.6259 H   0  0  0  0  0  0  0  0  0  0  0  0
    5.0172    4.7419   18.1409 C   0  0  0  0  0  0  0  0  0  0  0  0
    6.0668    5.7847   17.9811 C   0  0  0  0  0  0  0  0  0  0  0  0
    5.8553    6.8137   19.0875 C   0  0  0  0  0  0  0  0  0  0  0  0
    4.3983    7.1976   19.1173 C   0  0  0  0  0  0  0  0  0  0  0  0
    3.7174    6.5784   20.1646 O   0  0  0  0  0  0  0  0  0  0  0  0
    3.7290    6.8074   17.8390 C   0  0  0  0  0  0  0  0  0  0  0  0
    3.6740    5.2923   17.7762 C   0  0  0  0  0  0  0  0  0  0  0  0
    2.7538    6.7671   20.0643 H   0  0  0  0  0  0  0  0  0  0  0  0
 22 23  1  0  0  0
 23 21  1  0  0  0
 21 20  1  0  0  0
 20 18  1  0  0  0
 18  1  1  0  0  0
  1  2  2  0  0  0
  2  3  1  0  0  0
  3  4  2  0  0  0
  4  5  1  0  0  0
  5 24  1  0  0  0
 24 26  1  0  0  0
 26 27  1  0  0  0
 27 28  1  0  0  0
 28 29  1  0  0  0
 29 30  1  0  0  0
 29 31  1  0  0  0
 31 32  1  0  0  0
  5  6  2  0  0  0
  4  7  1  0  0  0
  7  8  2  0  0  0
  8  9  1  0  0  0
  9 10  2  0  0  0
 10 11  1  0  0  0
 11 12  2  0  0  0
 11 13  1  0  0  0
 13 14  1  0  0  0
 14 15  1  0  0  0
 15 16  1  0  0  0
 16 17  1  0  0  0
  6  1  1  0  0  0
 12  7  1  0  0  0
 17 13  1  0  0  0
 32 26  1  0  0  0
 18 19  1  0  0  0
 24 25  1  0  0  0
 30 33  1  0  0  0
M  END
> <minimizedAffinity>
-7.60344

> <CNNscore>
0.7713257074

> <CNNaffinity>
7.3323731422

> <CNN_VS>
5.6556477547

> <CNNaffinity_variance>
0.2468143255

$$$$
[H]O[C@]1([H])C([H])([H])C([H])([H])[C@@]([H])(N([H])c2nc(N([H])C([H])([H])C([H])([H])C([H])([H])C([H])([H])[H])nc([H])c2-c2nc(N3C([H])([H])C([H])([H])C([H])([H])C3([H])[H])c([H])nc2[H])C([H])([H])C1([H])[H]


 33 36  0  0  0  0  0  0  0  0999 V2000
    3.7212    3.9149   14.5687 C   0  0  0  0  0  0  0  0  0  0  0  0
    2.8538    2.9150   14.5978 N   0  0  0  0  0  0  0  0  0  0  0  0
    2.7360    2.0878   15.6221 C   0  0  0  0  0  0  0  0  0  0  0  0
    3.5661    2.2598   16.7528 C   0  0  0  0  0  0  0  0  0  0  0  0
    4.4690    3.2900   16.7502 C   0  0  0  0  0  0  0  0  0  0  0  0
    4.5125    4.0817   15.6485 N   0  0  0  0  0  0  0  0  0  0  0  0
    3.3427    1.2994   17.8030 C   0  0  0  0  0  0  0  0  0  0  0  0
    2.5257    0.2243   17.6682 C   0  0  0  0  0  0  0  0  0  0  0  0
    2.3121   -0.5673   18.7343 N   0  0  0  0  0  0  0  0  0  0  0  0
    2.8868   -0.3149   19.9223 C   0  0  0  0  0  0  0  0  0  0  0  0
    3.7258    0.7726   20.1027 C   0  0  0  0  0  0  0  0  0  0  0  0
    3.9146    1.5353   19.0212 N   0  0  0  0  0  0  0  0  0  0  0  0
    4.3336    1.0403   21.3592 N   0  0  0  0  0  0  0  0  0  0  0  0
    3.7615    1.2342   22.6505 C   0  0  0  0  0  0  0  0  0  0  0  0
    4.6737    2.2071   23.3729 C   0  0  0  0  0  0  0  0  0  0  0  0
    5.9593    2.2590   22.5562 C   0  0  0  0  0  0  0  0  0  0  0  0
    5.7885    1.1676   21.5173 C   0  0  0  0  0  0  0  0  0  0  0  0
    3.8317    4.7913   13.4555 N   0  0  0  0  0  0  0  0  0  0  0  0
    4.1371    4.3705   12.5352 H   0  0  0  0  0  0  0  0  0  0  0  0
    3.5427    6.1941   13.5646 C   0  0  0  0  0  0  0  0  0  0  0  0
    2.2532    6.4806   14.2532 C   0  0  0  0  0  0  0  0  0  0  0  0
   -0.2166    6.7872   13.9964 C   0  0  0  0  0  0  0  0  0  0  0  0
    1.0746    6.4529   13.2809 C   0  0  0  0  0  0  0  0  0  0  0  0
    5.2533    3.6338   17.8531 N   0  0  0  0  0  0  0  0  0  0  0  0
    6.0024    2.9906   18.1860 H   0  0  0  0  0  0  0  0  0  0  0  0
    5.0559    4.8413   18.6424 C   0  0  0  0  0  0  0  0  0  0  0  0
    5.9608    5.9682   18.2877 C   0  0  0  0  0  0  0  0  0  0  0  0
    5.9177    6.9646   19.4422 C   0  0  0  0  0  0  0  0  0  0  0  0
    4.4773    7.2276   19.7991 C   0  0  0  0  0  0  0  0  0  0  0  0
    4.0926    6.5436   20.9515 O   0  0  0  0  0  0  0  0  0  0  0  0
    3.5766    6.7975   18.6865 C   0  0  0  0  0  0  0  0  0  0  0  0
    3.6269    5.2837   18.5944 C   0  0  0  0  0  0  0  0  0  0  0  0
    3.1188    6.6539   21.0686 H   0  0  0  0  0  0  0  0  0  0  0  0
 22 23  1  0  0  0
 23 21  1  0  0  0
 21 20  1  0  0  0
 20 18  1  0  0  0
 18  1  1  0  0  0
  1  2  2  0  0  0
  2  3  1  0  0  0
  3  4  2  0  0  0
  4  5  1  0  0  0
  5 24  1  0  0  0
 24 26  1  0  0  0
 26 27  1  0  0  0
 27 28  1  0  0  0
 28 29  1  0  0  0
 29 30  1  0  0  0
 29 31  1  0  0  0
 31 32  1  0  0  0
  5  6  2  0  0  0
  4  7  1  0  0  0
  7  8  2  0  0  0
  8  9  1  0  0  0
  9 10  2  0  0  0
 10 11  1  0  0  0
 11 12  2  0  0  0
 11 13  1  0  0  0
 13 14  1  0  0  0
 14 15  1  0  0  0
 15 16  1  0  0  0
 16 17  1  0  0  0
  6  1  1  0  0  0
 12  7  1  0  0  0
 17 13  1  0  0  0
 32 26  1  0  0  0
 18 19  1  0  0  0
 24 25  1  0  0  0
 30 33  1  0  0  0
M  END
> <minimizedAffinity>
-8.03363

> <CNNscore>
0.7536041141

> <CNNaffinity>
7.1585335732

> <CNN_VS>
5.3947005272

> <CNNaffinity_variance>
0.2785647511

$$$$
[H]O[C@]1([H])C([H])([H])C([H])([H])[C@@]([H])(N([H])c2nc(N([H])C([H])([H])C([H])([H])C([H])([H])C([H])([H])[H])nc([H])c2-c2nc(N3C([H])([H])C([H])([H])C([H])([H])C3([H])[H])c([H])nc2[H])C([H])([H])C1([H])[H]


 33 36  0  0  0  0  0  0  0  0999 V2000
    3.7432    4.1605   14.2993 C   0  0  0  0  0  0  0  0  0  0  0  0
    3.5994    2.8563   14.1222 N   0  0  0  0  0  0  0  0  0  0  0  0
    3.4375    2.0034   15.1190 C   0  0  0  0  0  0  0  0  0  0  0  0
    3.4133    2.4843   16.4476 C   0  0  0  0  0  0  0  0  0  0  0  0
    3.5551    3.8305   16.6582 C   0  0  0  0  0  0  0  0  0  0  0  0
    3.7178    4.6212   15.5670 N   0  0  0  0  0  0  0  0  0  0  0  0
    3.2289    1.4609   17.4446 C   0  0  0  0  0  0  0  0  0  0  0  0
    2.4107    0.3919   17.2726 C   0  0  0  0  0  0  0  0  0  0  0  0
    2.2361   -0.4639   18.2954 N   0  0  0  0  0  0  0  0  0  0  0  0
    2.8506   -0.2811   19.4762 C   0  0  0  0  0  0  0  0  0  0  0  0
    3.6922    0.7976   19.6935 C   0  0  0  0  0  0  0  0  0  0  0  0
    3.8415    1.6254   18.6546 N   0  0  0  0  0  0  0  0  0  0  0  0
    4.3420    0.9916   20.9425 N   0  0  0  0  0  0  0  0  0  0  0  0
    3.8435    1.4686   22.1900 C   0  0  0  0  0  0  0  0  0  0  0  0
    4.9987    2.1916   22.8559 C   0  0  0  0  0  0  0  0  0  0  0  0
    6.2478    1.7818   22.0848 C   0  0  0  0  0  0  0  0  0  0  0  0
    5.7673    0.6963   21.1412 C   0  0  0  0  0  0  0  0  0  0  0  0
    3.9177    5.0591   13.2124 N   0  0  0  0  0  0  0  0  0  0  0  0
    3.9173    6.0930   13.4328 H   0  0  0  0  0  0  0  0  0  0  0  0
    4.0890    4.5931   11.8645 C   0  0  0  0  0  0  0  0  0  0  0  0
    5.2896    5.1611   11.1902 C   0  0  0  0  0  0  0  0  0  0  0  0
    5.8909    3.2262    9.7226 C   0  0  0  0  0  0  0  0  0  0  0  0
    5.4183    4.6637    9.7511 C   0  0  0  0  0  0  0  0  0  0  0  0
    3.4254    4.4353   17.9100 N   0  0  0  0  0  0  0  0  0  0  0  0
    2.5842    4.2527   18.4971 H   0  0  0  0  0  0  0  0  0  0  0  0
    4.3841    5.3874   18.4527 C   0  0  0  0  0  0  0  0  0  0  0  0
    3.7945    6.6854   18.8794 C   0  0  0  0  0  0  0  0  0  0  0  0
    4.9422    7.6811   19.0169 C   0  0  0  0  0  0  0  0  0  0  0  0
    6.0416    7.0415   19.8252 C   0  0  0  0  0  0  0  0  0  0  0  0
    7.0946    6.6072   19.0211 O   0  0  0  0  0  0  0  0  0  0  0  0
    5.5182    5.8596   20.5758 C   0  0  0  0  0  0  0  0  0  0  0  0
    5.1689    4.7771   19.5714 C   0  0  0  0  0  0  0  0  0  0  0  0
    7.7233    6.0932   19.5821 H   0  0  0  0  0  0  0  0  0  0  0  0
 22 23  1  0  0  0
 23 21  1  0  0  0
 21 20  1  0  0  0
 20 18  1  0  0  0
 18  1  1  0  0  0
  1  2  2  0  0  0
  2  3  1  0  0  0
  3  4  2  0  0  0
  4  5  1  0  0  0
  5 24  1  0  0  0
 24 26  1  0  0  0
 26 27  1  0  0  0
 27 28  1  0  0  0
 28 29  1  0  0  0
 29 30  1  0  0  0
 29 31  1  0  0  0
 31 32  1  0  0  0
  5  6  2  0  0  0
  4  7  1  0  0  0
  7  8  2  0  0  0
  8  9  1  0  0  0
  9 10  2  0  0  0
 10 11  1  0  0  0
 11 12  2  0  0  0
 11 13  1  0  0  0
 13 14  1  0  0  0
 14 15  1  0  0  0
 15 16  1  0  0  0
 16 17  1  0  0  0
  6  1  1  0  0  0
 12  7  1  0  0  0
 17 13  1  0  0  0
 32 26  1  0  0  0
 18 19  1  0  0  0
 24 25  1  0  0  0
 30 33  1  0  0  0
M  END
> <minimizedAffinity>
-7.44984

> <CNNscore>
0.7078400850

> <CNNaffinity>
7.1974706650

> <CNN_VS>
5.0946583748

> <CNNaffinity_variance>
0.3171707392

$$$$
[H]O[C@]1([H])C([H])([H])C([H])([H])[C@@]([H])(N([H])c2nc(N([H])C([H])([H])C([H])([H])C([H])([H])C([H])([H])[H])nc([H])c2-c2nc(N3C([H])([H])C([H])([H])C([H])([H])C3([H])[H])c([H])nc2[H])C([H])([H])C1([H])[H]


 33 36  0  0  0  0  0  0  0  0999 V2000
    3.8890    1.4968   18.0982 C   0  0  0  0  0  0  0  0  0  0  0  0
    3.1611    0.7645   17.2694 N   0  0  0  0  0  0  0  0  0  0  0  0
    2.8503    1.1506   16.0441 C   0  0  0  0  0  0  0  0  0  0  0  0
    3.3062    2.4028   15.5737 C   0  0  0  0  0  0  0  0  0  0  0  0
    4.0654    3.1781   16.4099 C   0  0  0  0  0  0  0  0  0  0  0  0
    4.3270    2.6913   17.6497 N   0  0  0  0  0  0  0  0  0  0  0  0
    2.9055    2.7104   14.2246 C   0  0  0  0  0  0  0  0  0  0  0  0
    1.8127    2.1682   13.6299 C   0  0  0  0  0  0  0  0  0  0  0  0
    1.5699    2.4490   12.3372 N   0  0  0  0  0  0  0  0  0  0  0  0
    2.3836    3.2491   11.6280 C   0  0  0  0  0  0  0  0  0  0  0  0
    3.5099    3.8212   12.1965 C   0  0  0  0  0  0  0  0  0  0  0  0
    3.7179    3.5199   13.4822 N   0  0  0  0  0  0  0  0  0  0  0  0
    4.3712    4.6672   11.4465 N   0  0  0  0  0  0  0  0  0  0  0  0
    5.5845    4.3855   10.7531 C   0  0  0  0  0  0  0  0  0  0  0  0
    6.4219    5.6471   10.8410 C   0  0  0  0  0  0  0  0  0  0  0  0
    5.4723    6.7474   11.2995 C   0  0  0  0  0  0  0  0  0  0  0  0
    4.1016    6.0996   11.2633 C   0  0  0  0  0  0  0  0  0  0  0  0
    4.2097    1.0621   19.4127 N   0  0  0  0  0  0  0  0  0  0  0  0
    5.1386    1.3702   19.8123 H   0  0  0  0  0  0  0  0  0  0  0  0
    3.3157    0.2376   20.1768 C   0  0  0  0  0  0  0  0  0  0  0  0
    3.5872    0.2698   21.6411 C   0  0  0  0  0  0  0  0  0  0  0  0
    4.7215    1.9502   23.1071 C   0  0  0  0  0  0  0  0  0  0  0  0
    3.5424    1.6939   22.1934 C   0  0  0  0  0  0  0  0  0  0  0  0
    4.6729    4.3726   16.0177 N   0  0  0  0  0  0  0  0  0  0  0  0
    5.0597    4.4742   15.0556 H   0  0  0  0  0  0  0  0  0  0  0  0
    4.8701    5.5103   16.9049 C   0  0  0  0  0  0  0  0  0  0  0  0
    3.7536    5.7535   17.8581 C   0  0  0  0  0  0  0  0  0  0  0  0
    3.9179    7.1717   18.3961 C   0  0  0  0  0  0  0  0  0  0  0  0
    5.3477    7.3590   18.8339 C   0  0  0  0  0  0  0  0  0  0  0  0
    6.0846    8.0947   17.9067 O   0  0  0  0  0  0  0  0  0  0  0  0
    6.0185    6.0347   19.0080 C   0  0  0  0  0  0  0  0  0  0  0  0
    6.1690    5.3962   17.6397 C   0  0  0  0  0  0  0  0  0  0  0  0
    7.0324    8.0827   18.1821 H   0  0  0  0  0  0  0  0  0  0  0  0
 22 23  1  0  0  0
 23 21  1  0  0  0
 21 20  1  0  0  0
 20 18  1  0  0  0
 18  1  1  0  0  0
  1  2  2  0  0  0
  2  3  1  0  0  0
  3  4  2  0  0  0
  4  5  1  0  0  0
  5 24  1  0  0  0
 24 26  1  0  0  0
 26 27  1  0  0  0
 27 28  1  0  0  0
 28 29  1  0  0  0
 29 30  1  0  0  0
 29 31  1  0  0  0
 31 32  1  0  0  0
  5  6  2  0  0  0
  4  7  1  0  0  0
  7  8  2  0  0  0
  8  9  1  0  0  0
  9 10  2  0  0  0
 10 11  1  0  0  0
 11 12  2  0  0  0
 11 13  1  0  0  0
 13 14  1  0  0  0
 14 15  1  0  0  0
 15 16  1  0  0  0
 16 17  1  0  0  0
  6  1  1  0  0  0
 12  7  1  0  0  0
 17 13  1  0  0  0
 32 26  1  0  0  0
 18 19  1  0  0  0
 24 25  1  0  0  0
 30 33  1  0  0  0
M  END
> <minimizedAffinity>
-6.98223

> <CNNscore>
0.6961386800

> <CNNaffinity>
6.9830160141

> <CNN_VS>
4.8611474037

> <CNNaffinity_variance>
0.1845254600

$$$$
[H]O[C@]1([H])C([H])([H])C([H])([H])[C@@]([H])(N([H])c2nc(N([H])C([H])([H])C([H])([H])C([H])([H])C([H])([H])[H])nc([H])c2-c2nc(N3C([H])([H])C([H])([H])C([H])([H])C3([H])[H])c([H])nc2[H])C([H])([H])C1([H])[H]


 33 36  0  0  0  0  0  0  0  0999 V2000
    2.9787    0.8030   17.5737 C   0  0  0  0  0  0  0  0  0  0  0  0
    2.2505    0.8751   16.4703 N   0  0  0  0  0  0  0  0  0  0  0  0
    2.3387    1.8731   15.6081 C   0  0  0  0  0  0  0  0  0  0  0  0
    3.2483    2.9261   15.8552 C   0  0  0  0  0  0  0  0  0  0  0  0
    4.0174    2.8733   16.9875 C   0  0  0  0  0  0  0  0  0  0  0  0
    3.8492    1.8063   17.8095 N   0  0  0  0  0  0  0  0  0  0  0  0
    3.2548    3.9525   14.8444 C   0  0  0  0  0  0  0  0  0  0  0  0
    2.5878    5.1275   14.9713 C   0  0  0  0  0  0  0  0  0  0  0  0
    2.5817    5.9864   13.9363 N   0  0  0  0  0  0  0  0  0  0  0  0
    3.2175    5.7045   12.7866 C   0  0  0  0  0  0  0  0  0  0  0  0
    3.9084    4.5160   12.6155 C   0  0  0  0  0  0  0  0  0  0  0  0
    3.8927    3.6887   13.6654 N   0  0  0  0  0  0  0  0  0  0  0  0
    4.5807    4.2173   11.3995 N   0  0  0  0  0  0  0  0  0  0  0  0
    5.8841    4.5702   10.9425 C   0  0  0  0  0  0  0  0  0  0  0  0
    5.7795    4.7037    9.4352 C   0  0  0  0  0  0  0  0  0  0  0  0
    4.4532    4.0593    9.0501 C   0  0  0  0  0  0  0  0  0  0  0  0
    3.9598    3.4197   10.3334 C   0  0  0  0  0  0  0  0  0  0  0  0
    2.8659   -0.2792   18.4878 N   0  0  0  0  0  0  0  0  0  0  0  0
    3.0023   -1.2547   18.1041 H   0  0  0  0  0  0  0  0  0  0  0  0
    2.5787   -0.0682   19.8793 C   0  0  0  0  0  0  0  0  0  0  0  0
    3.6573   -0.5515   20.7859 C   0  0  0  0  0  0  0  0  0  0  0  0
    3.5920    1.7088   21.8566 C   0  0  0  0  0  0  0  0  0  0  0  0
    4.4889    0.6038   21.3415 C   0  0  0  0  0  0  0  0  0  0  0  0
    5.0333    3.7869   17.2758 N   0  0  0  0  0  0  0  0  0  0  0  0
    5.9608    3.7061   16.8082 H   0  0  0  0  0  0  0  0  0  0  0  0
    4.9110    4.8486   18.2648 C   0  0  0  0  0  0  0  0  0  0  0  0
    3.5432    5.4205   18.3940 C   0  0  0  0  0  0  0  0  0  0  0  0
    3.6759    6.7508   19.1289 C   0  0  0  0  0  0  0  0  0  0  0  0
    4.5335    6.5438   20.3506 C   0  0  0  0  0  0  0  0  0  0  0  0
    5.8311    7.0182   20.1632 O   0  0  0  0  0  0  0  0  0  0  0  0
    4.6194    5.0902   20.6883 C   0  0  0  0  0  0  0  0  0  0  0  0
    5.4167    4.3970   19.5991 C   0  0  0  0  0  0  0  0  0  0  0  0
    6.3762    6.7499   20.9410 H   0  0  0  0  0  0  0  0  0  0  0  0
 22 23  1  0  0  0
 23 21  1  0  0  0
 21 20  1  0  0  0
 20 18  1  0  0  0
 18  1  1  0  0  0
  1  2  2  0  0  0
  2  3  1  0  0  0
  3  4  2  0  0  0
  4  5  1  0  0  0
  5 24  1  0  0  0
 24 26  1  0  0  0
 26 27  1  0  0  0
 27 28  1  0  0  0
 28 29  1  0  0  0
 29 30  1  0  0  0
 29 31  1  0  0  0
 31 32  1  0  0  0
  5  6  2  0  0  0
  4  7  1  0  0  0
  7  8  2  0  0  0
  8  9  1  0  0  0
  9 10  2  0  0  0
 10 11  1  0  0  0
 11 12  2  0  0  0
 11 13  1  0  0  0
 13 14  1  0  0  0
 14 15  1  0  0  0
 15 16  1  0  0  0
 16 17  1  0  0  0
  6  1  1  0  0  0
 12  7  1  0  0  0
 17 13  1  0  0  0
 32 26  1  0  0  0
 18 19  1  0  0  0
 24 25  1  0  0  0
 30 33  1  0  0  0
M  END
> <minimizedAffinity>
-6.60012

> <CNNscore>
0.5688632727

> <CNNaffinity>
6.9365530014

> <CNN_VS>
3.9459502697

> <CNNaffinity_variance>
0.1638955176

$$$$
[H]O[C@]1([H])C([H])([H])C([H])([H])[C@@]([H])(N([H])c2nc(N([H])C([H])([H])C([H])([H])C([H])([H])C([H])([H])[H])nc([H])c2-c2nc(N3C([H])([H])C([H])([H])C([H])([H])C3([H])[H])c([H])nc2[H])C([H])([H])C1([H])[H]


 33 36  0  0  0  0  0  0  0  0999 V2000
    4.0036    1.5677   18.2580 C   0  0  0  0  0  0  0  0  0  0  0  0
    3.1510    0.9217   17.4779 N   0  0  0  0  0  0  0  0  0  0  0  0
    2.7707    1.3690   16.2936 C   0  0  0  0  0  0  0  0  0  0  0  0
    3.2866    2.5948   15.8157 C   0  0  0  0  0  0  0  0  0  0  0  0
    4.1745    3.2810   16.6015 C   0  0  0  0  0  0  0  0  0  0  0  0
    4.4987    2.7368   17.8020 N   0  0  0  0  0  0  0  0  0  0  0  0
    2.8002    2.9749   14.5141 C   0  0  0  0  0  0  0  0  0  0  0  0
    2.7365    2.1186   13.4632 C   0  0  0  0  0  0  0  0  0  0  0  0
    2.3508    2.5894   12.2638 N   0  0  0  0  0  0  0  0  0  0  0  0
    2.0312    3.8825   12.0872 C   0  0  0  0  0  0  0  0  0  0  0  0
    2.0844    4.7894   13.1329 C   0  0  0  0  0  0  0  0  0  0  0  0
    2.4710    4.2849   14.3089 N   0  0  0  0  0  0  0  0  0  0  0  0
    1.7468    6.1573   12.9464 N   0  0  0  0  0  0  0  0  0  0  0  0
    1.2572    6.8501   11.8007 C   0  0  0  0  0  0  0  0  0  0  0  0
    1.8120    8.2589   11.8920 C   0  0  0  0  0  0  0  0  0  0  0  0
    2.3295    8.4121   13.3173 C   0  0  0  0  0  0  0  0  0  0  0  0
    1.8688    7.1507   14.0218 C   0  0  0  0  0  0  0  0  0  0  0  0
    4.3972    1.0685   19.5290 N   0  0  0  0  0  0  0  0  0  0  0  0
    4.8380    0.1082   19.5577 H   0  0  0  0  0  0  0  0  0  0  0  0
    4.2088    1.8292   20.7327 C   0  0  0  0  0  0  0  0  0  0  0  0
    5.4855    2.2835   21.3514 C   0  0  0  0  0  0  0  0  0  0  0  0
    4.2437    4.4538   21.4345 C   0  0  0  0  0  0  0  0  0  0  0  0
    5.6086    3.8065   21.3407 C   0  0  0  0  0  0  0  0  0  0  0  0
    4.8427    4.4349   16.1871 N   0  0  0  0  0  0  0  0  0  0  0  0
    5.3551    4.4481   15.2800 H   0  0  0  0  0  0  0  0  0  0  0  0
    4.9335    5.6492   16.9855 C   0  0  0  0  0  0  0  0  0  0  0  0
    3.8463    5.8141   17.9882 C   0  0  0  0  0  0  0  0  0  0  0  0
    3.8488    7.2765   18.4229 C   0  0  0  0  0  0  0  0  0  0  0  0
    5.2621    7.6776   18.7588 C   0  0  0  0  0  0  0  0  0  0  0  0
    5.8448    8.4338   17.7426 O   0  0  0  0  0  0  0  0  0  0  0  0
    6.1111    6.4668   18.9759 C   0  0  0  0  0  0  0  0  0  0  0  0
    6.2729    5.7565   17.6447 C   0  0  0  0  0  0  0  0  0  0  0  0
    6.7989    8.5639   17.9594 H   0  0  0  0  0  0  0  0  0  0  0  0
 22 23  1  0  0  0
 23 21  1  0  0  0
 21 20  1  0  0  0
 20 18  1  0  0  0
 18  1  1  0  0  0
  1  2  2  0  0  0
  2  3  1  0  0  0
  3  4  2  0  0  0
  4  5  1  0  0  0
  5 24  1  0  0  0
 24 26  1  0  0  0
 26 27  1  0  0  0
 27 28  1  0  0  0
 28 29  1  0  0  0
 29 30  1  0  0  0
 29 31  1  0  0  0
 31 32  1  0  0  0
  5  6  2  0  0  0
  4  7  1  0  0  0
  7  8  2  0  0  0
  8  9  1  0  0  0
  9 10  2  0  0  0
 10 11  1  0  0  0
 11 12  2  0  0  0
 11 13  1  0  0  0
 13 14  1  0  0  0
 14 15  1  0  0  0
 15 16  1  0  0  0
 16 17  1  0  0  0
  6  1  1  0  0  0
 12  7  1  0  0  0
 17 13  1  0  0  0
 32 26  1  0  0  0
 18 19  1  0  0  0
 24 25  1  0  0  0
 30 33  1  0  0  0
M  END
> <minimizedAffinity>
-6.86817

> <CNNscore>
0.5448439121

> <CNNaffinity>
6.6532640457

> <CNN_VS>
3.6249904633

> <CNNaffinity_variance>
0.3565169275

$$$$
[H]O[C@]1([H])C([H])([H])C([H])([H])[C@@]([H])(N([H])c2nc(N([H])C([H])([H])C([H])([H])C([H])([H])C([H])([H])[H])nc([H])c2-c2nc(N3C([H])([H])C([H])([H])C([H])([H])C3([H])[H])c([H])nc2[H])C([H])([H])C1([H])[H]


 33 36  0  0  0  0  0  0  0  0999 V2000
    3.7711    1.5479   17.4497 C   0  0  0  0  0  0  0  0  0  0  0  0
    3.0649    1.0969   16.4245 N   0  0  0  0  0  0  0  0  0  0  0  0
    2.8218    1.8139   15.3410 C   0  0  0  0  0  0  0  0  0  0  0  0
    3.3306    3.1291   15.2498 C   0  0  0  0  0  0  0  0  0  0  0  0
    4.0688    3.6183   16.2950 C   0  0  0  0  0  0  0  0  0  0  0  0
    4.2595    2.8024   17.3629 N   0  0  0  0  0  0  0  0  0  0  0  0
    3.0016    3.8077   14.0224 C   0  0  0  0  0  0  0  0  0  0  0  0
    3.8221    3.8328   12.9418 C   0  0  0  0  0  0  0  0  0  0  0  0
    3.4662    4.5669   11.8725 N   0  0  0  0  0  0  0  0  0  0  0  0
    2.3227    5.2722   11.8546 C   0  0  0  0  0  0  0  0  0  0  0  0
    1.4583    5.2749   12.9371 C   0  0  0  0  0  0  0  0  0  0  0  0
    1.8450    4.5337   13.9802 N   0  0  0  0  0  0  0  0  0  0  0  0
    0.2488    6.0211   12.9187 N   0  0  0  0  0  0  0  0  0  0  0  0
   -0.3176    6.9047   13.8834 C   0  0  0  0  0  0  0  0  0  0  0  0
   -1.8221    6.7714   13.7438 C   0  0  0  0  0  0  0  0  0  0  0  0
   -2.0563    6.0496   12.4221 C   0  0  0  0  0  0  0  0  0  0  0  0
   -0.6827    5.9804   11.7835 C   0  0  0  0  0  0  0  0  0  0  0  0
    4.0187    0.7596   18.6059 N   0  0  0  0  0  0  0  0  0  0  0  0
    4.2283   -0.2659   18.4581 H   0  0  0  0  0  0  0  0  0  0  0  0
    3.9882    1.3227   19.9270 C   0  0  0  0  0  0  0  0  0  0  0  0
    5.2905    1.2218   20.6432 C   0  0  0  0  0  0  0  0  0  0  0  0
    3.7629    1.3741   22.6188 C   0  0  0  0  0  0  0  0  0  0  0  0
    5.1635    1.6362   22.1085 C   0  0  0  0  0  0  0  0  0  0  0  0
    4.7238    4.8512   16.2690 N   0  0  0  0  0  0  0  0  0  0  0  0
    5.3209    5.1119   15.4560 H   0  0  0  0  0  0  0  0  0  0  0  0
    4.6842    5.8125   17.3620 C   0  0  0  0  0  0  0  0  0  0  0  0
    6.0034    6.0872   17.9936 C   0  0  0  0  0  0  0  0  0  0  0  0
    5.7318    6.7569   19.3372 C   0  0  0  0  0  0  0  0  0  0  0  0
    4.7400    7.8723   19.1287 C   0  0  0  0  0  0  0  0  0  0  0  0
    3.4580    7.5141   19.5434 O   0  0  0  0  0  0  0  0  0  0  0  0
    4.6687    8.2443   17.6828 C   0  0  0  0  0  0  0  0  0  0  0  0
    4.0370    7.0900   16.9270 C   0  0  0  0  0  0  0  0  0  0  0  0
    2.8327    8.2288   19.2744 H   0  0  0  0  0  0  0  0  0  0  0  0
 22 23  1  0  0  0
 23 21  1  0  0  0
 21 20  1  0  0  0
 20 18  1  0  0  0
 18  1  1  0  0  0
  1  2  2  0  0  0
  2  3  1  0  0  0
  3  4  2  0  0  0
  4  5  1  0  0  0
  5 24  1  0  0  0
 24 26  1  0  0  0
 26 27  1  0  0  0
 27 28  1  0  0  0
 28 29  1  0  0  0
 29 30  1  0  0  0
 29 31  1  0  0  0
 31 32  1  0  0  0
  5  6  2  0  0  0
  4  7  1  0  0  0
  7  8  2  0  0  0
  8  9  1  0  0  0
  9 10  2  0  0  0
 10 11  1  0  0  0
 11 12  2  0  0  0
 11 13  1  0  0  0
 13 14  1  0  0  0
 14 15  1  0  0  0
 15 16  1  0  0  0
 16 17  1  0  0  0
  6  1  1  0  0  0
 12  7  1  0  0  0
 17 13  1  0  0  0
 32 26  1  0  0  0
 18 19  1  0  0  0
 24 25  1  0  0  0
 30 33  1  0  0  0
M  END
> <minimizedAffinity>
-7.40264

> <CNNscore>
0.5341222882

> <CNNaffinity>
6.8370003700

> <CNN_VS>
3.6517941952

> <CNNaffinity_variance>
0.3182719350

$$$$
[H]O[C@]1([H])C([H])([H])C([H])([H])[C@@]([H])(N([H])c2nc(N([H])C([H])([H])C([H])([H])C([H])([H])C([H])([H])[H])nc([H])c2-c2nc(N3C([H])([H])C([H])([H])C([H])([H])C3([H])[H])c([H])nc2[H])C([H])([H])C1([H])[H]


 33 36  0  0  0  0  0  0  0  0999 V2000
    3.7398    4.9536   14.6118 C   0  0  0  0  0  0  0  0  0  0  0  0
    3.8742    3.6762   14.2905 N   0  0  0  0  0  0  0  0  0  0  0  0
    3.7038    2.6903   15.1543 C   0  0  0  0  0  0  0  0  0  0  0  0
    3.3609    2.9903   16.4920 C   0  0  0  0  0  0  0  0  0  0  0  0
    3.2109    4.3042   16.8494 C   0  0  0  0  0  0  0  0  0  0  0  0
    3.4101    5.2413   15.8879 N   0  0  0  0  0  0  0  0  0  0  0  0
    3.2004    1.8338   17.3359 C   0  0  0  0  0  0  0  0  0  0  0  0
    2.4467    0.7591   16.9917 C   0  0  0  0  0  0  0  0  0  0  0  0
    2.2862   -0.2346   17.8838 N   0  0  0  0  0  0  0  0  0  0  0  0
    2.8525   -0.1831   19.1011 C   0  0  0  0  0  0  0  0  0  0  0  0
    3.6277    0.8963   19.4925 C   0  0  0  0  0  0  0  0  0  0  0  0
    3.7650    1.8631   18.5797 N   0  0  0  0  0  0  0  0  0  0  0  0
    4.2266    0.9513   20.7802 N   0  0  0  0  0  0  0  0  0  0  0  0
    3.6491    1.1295   22.0714 C   0  0  0  0  0  0  0  0  0  0  0  0
    4.6838    1.8710   22.8962 C   0  0  0  0  0  0  0  0  0  0  0  0
    5.9884    1.7743   22.1143 C   0  0  0  0  0  0  0  0  0  0  0  0
    5.6760    0.8184   20.9793 C   0  0  0  0  0  0  0  0  0  0  0  0
    3.9296    5.9977   13.6666 N   0  0  0  0  0  0  0  0  0  0  0  0
    4.8116    5.9708   13.0845 H   0  0  0  0  0  0  0  0  0  0  0  0
    2.9685    7.0522   13.5001 C   0  0  0  0  0  0  0  0  0  0  0  0
    3.5880    8.3803   13.2328 C   0  0  0  0  0  0  0  0  0  0  0  0
    3.8025    9.0952   15.6208 C   0  0  0  0  0  0  0  0  0  0  0  0
    3.1791    9.4159   14.2794 C   0  0  0  0  0  0  0  0  0  0  0  0
    2.7562    4.7175   18.1032 N   0  0  0  0  0  0  0  0  0  0  0  0
    1.7499    4.6205   18.3554 H   0  0  0  0  0  0  0  0  0  0  0  0
    3.6023    5.3559   19.1016 C   0  0  0  0  0  0  0  0  0  0  0  0
    5.0261    4.9238   19.0749 C   0  0  0  0  0  0  0  0  0  0  0  0
    5.6527    5.3462   20.4003 C   0  0  0  0  0  0  0  0  0  0  0  0
    5.2988    6.7871   20.6639 C   0  0  0  0  0  0  0  0  0  0  0  0
    4.2806    6.9093   21.6086 O   0  0  0  0  0  0  0  0  0  0  0  0
    4.8409    7.4512   19.4055 C   0  0  0  0  0  0  0  0  0  0  0  0
    3.5068    6.8467   19.0090 C   0  0  0  0  0  0  0  0  0  0  0  0
    4.0082    7.8570   21.6519 H   0  0  0  0  0  0  0  0  0  0  0  0
 22 23  1  0  0  0
 23 21  1  0  0  0
 21 20  1  0  0  0
 20 18  1  0  0  0
 18  1  1  0  0  0
  1  2  2  0  0  0
  2  3  1  0  0  0
  3  4  2  0  0  0
  4  5  1  0  0  0
  5 24  1  0  0  0
 24 26  1  0  0  0
 26 27  1  0  0  0
 27 28  1  0  0  0
 28 29  1  0  0  0
 29 30  1  0  0  0
 29 31  1  0  0  0
 31 32  1  0  0  0
  5  6  2  0  0  0
  4  7  1  0  0  0
  7  8  2  0  0  0
  8  9  1  0  0  0
  9 10  2  0  0  0
 10 11  1  0  0  0
 11 12  2  0  0  0
 11 13  1  0  0  0
 13 14  1  0  0  0
 14 15  1  0  0  0
 15 16  1  0  0  0
 16 17  1  0  0  0
  6  1  1  0  0  0
 12  7  1  0  0  0
 17 13  1  0  0  0
 32 26  1  0  0  0
 18 19  1  0  0  0
 24 25  1  0  0  0
 30 33  1  0  0  0
M  END
> <minimizedAffinity>
-8.11159

> <CNNscore>
0.4575409293

> <CNNaffinity>
6.8177208900

> <CNN_VS>
3.1193864346

> <CNNaffinity_variance>
0.2999013364

$$$$
[H]OC1([H])C([H])([H])C([H])([H])C([H])(n2nc(-c3c([H])c([H])c(N([H])C(=O)N4C([H])([H])C([H])([H])OC([H])([H])C4([H])[H])c([H])c3[H])c3c([H])nc(N([H])C([H])([H])C([H])([H])C([H])([H])C([H])([H])[H])nc32)C([H])([H])C1([H])[H]


 39 43  0  0  0  0  0  0  0  0999 V2000
    3.6693    1.0876   19.1261 C   0  0  0  0  0  0  0  0  0  0  0  0
    3.1016    0.9054   17.9048 N   0  0  0  0  0  0  0  0  0  0  0  0
    3.1096    1.8848   16.9884 C   0  0  0  0  0  0  0  0  0  0  0  0
    3.7179    3.0835   17.3376 C   0  0  0  0  0  0  0  0  0  0  0  0
    3.9130    4.2672   16.6844 C   0  0  0  0  0  0  0  0  0  0  0  0
    4.5756    5.1009   17.5147 N   0  0  0  0  0  0  0  0  0  0  0  0
    4.8179    4.5118   18.6737 N   0  0  0  0  0  0  0  0  0  0  0  0
    4.2949    3.2565   18.5904 C   0  0  0  0  0  0  0  0  0  0  0  0
    4.2580    2.2542   19.4576 N   0  0  0  0  0  0  0  0  0  0  0  0
    5.5096    5.0831   19.8262 C   0  0  0  0  0  0  0  0  0  0  0  0
    4.4827    5.3863   20.8887 C   0  0  0  0  0  0  0  0  0  0  0  0
    5.0550    6.1834   22.0279 C   0  0  0  0  0  0  0  0  0  0  0  0
    5.4483    7.5411   21.5144 C   0  0  0  0  0  0  0  0  0  0  0  0
    4.4494    8.4449   21.8713 O   0  0  0  0  0  0  0  0  0  0  0  0
    5.6374    7.5790   20.0206 C   0  0  0  0  0  0  0  0  0  0  0  0
    6.2672    6.3264   19.4842 C   0  0  0  0  0  0  0  0  0  0  0  0
    3.6170    7.9945   22.1388 H   0  0  0  0  0  0  0  0  0  0  0  0
    3.5023    4.6211   15.3329 C   0  0  0  0  0  0  0  0  0  0  0  0
    2.6742    5.7021   15.1380 C   0  0  0  0  0  0  0  0  0  0  0  0
    2.2499    6.0868   13.8951 C   0  0  0  0  0  0  0  0  0  0  0  0
    2.6515    5.3792   12.7496 C   0  0  0  0  0  0  0  0  0  0  0  0
    3.4776    4.3079   12.9897 C   0  0  0  0  0  0  0  0  0  0  0  0
    3.9071    3.9187   14.2518 C   0  0  0  0  0  0  0  0  0  0  0  0
    2.2047    5.8085   11.4770 N   0  0  0  0  0  0  0  0  0  0  0  0
    2.5927    6.9226   10.7329 C   0  0  0  0  0  0  0  0  0  0  0  0
    3.4548    7.7213   11.1549 O   0  0  0  0  0  0  0  0  0  0  0  0
    1.9708    7.1396    9.4463 N   0  0  0  0  0  0  0  0  0  0  0  0
    2.3675    8.2881    8.6695 C   0  0  0  0  0  0  0  0  0  0  0  0
    2.3112    7.9069    7.2082 C   0  0  0  0  0  0  0  0  0  0  0  0
    1.0862    7.4379    6.8018 O   0  0  0  0  0  0  0  0  0  0  0  0
    0.2510    7.0142    7.8042 C   0  0  0  0  0  0  0  0  0  0  0  0
    0.9698    6.2539    8.9101 C   0  0  0  0  0  0  0  0  0  0  0  0
    1.4558    5.1803   11.0282 H   0  0  0  0  0  0  0  0  0  0  0  0
    3.6119   -0.0067   20.0298 N   0  0  0  0  0  0  0  0  0  0  0  0
    3.1407   -0.9033   19.7781 H   0  0  0  0  0  0  0  0  0  0  0  0
    4.2351    0.1596   21.3298 C   0  0  0  0  0  0  0  0  0  0  0  0
    3.3747    1.0086   22.2296 C   0  0  0  0  0  0  0  0  0  0  0  0
    5.5467    2.0992   22.6897 C   0  0  0  0  0  0  0  0  0  0  0  0
    4.2025    1.7283   23.2763 C   0  0  0  0  0  0  0  0  0  0  0  0
 38 39  1  0  0  0
 39 37  1  0  0  0
 37 36  1  0  0  0
 36 34  1  0  0  0
 34  1  1  0  0  0
  1  2  2  0  0  0
  2  3  1  0  0  0
  3  4  2  0  0  0
  4  5  1  0  0  0
  5  6  2  0  0  0
  6  7  1  0  0  0
  7 10  1  0  0  0
 10 11  1  0  0  0
 11 12  1  0  0  0
 12 13  1  0  0  0
 13 14  1  0  0  0
 13 15  1  0  0  0
 15 16  1  0  0  0
  7  8  1  0  0  0
  8  9  2  0  0  0
  5 18  1  0  0  0
 18 19  2  0  0  0
 19 20  1  0  0  0
 20 21  2  0  0  0
 21 24  1  0  0  0
 24 25  1  0  0  0
 25 26  2  0  0  0
 25 27  1  0  0  0
 27 28  1  0  0  0
 28 29  1  0  0  0
 29 30  1  0  0  0
 30 31  1  0  0  0
 31 32  1  0  0  0
 21 22  1  0  0  0
 22 23  2  0  0  0
  9  1  1  0  0  0
 23 18  1  0  0  0
  8  4  1  0  0  0
 32 27  1  0  0  0
 16 10  1  0  0  0
 34 35  1  0  0  0
 14 17  1  0  0  0
 24 33  1  0  0  0
M  END
> <minimizedAffinity>
-8.46152

> <CNNscore>
0.4984935522

> <CNNaffinity>
7.0114870071

> <CNN_VS>
3.4951810837

> <CNNaffinity_variance>
0.7033301592

$$$$
[H]OC1([H])C([H])([H])C([H])([H])C([H])(n2nc(-c3c([H])c([H])c(N([H])C(=O)N4C([H])([H])C([H])([H])OC([H])([H])C4([H])[H])c([H])c3[H])c3c([H])nc(N([H])C([H])([H])C([H])([H])C([H])([H])C([H])([H])[H])nc32)C([H])([H])C1([H])[H]


 39 43  0  0  0  0  0  0  0  0999 V2000
    4.2883    1.5236   19.7847 C   0  0  0  0  0  0  0  0  0  0  0  0
    3.7297    0.7293   18.8338 N   0  0  0  0  0  0  0  0  0  0  0  0
    3.4749    1.2016   17.6045 C   0  0  0  0  0  0  0  0  0  0  0  0
    3.8035    2.5261   17.3465 C   0  0  0  0  0  0  0  0  0  0  0  0
    3.6939    3.3274   16.2458 C   0  0  0  0  0  0  0  0  0  0  0  0
    4.1787    4.5470   16.5641 N   0  0  0  0  0  0  0  0  0  0  0  0
    4.5965    4.5714   17.8186 N   0  0  0  0  0  0  0  0  0  0  0  0
    4.3744    3.3275   18.3283 C   0  0  0  0  0  0  0  0  0  0  0  0
    4.6045    2.8084   19.5265 N   0  0  0  0  0  0  0  0  0  0  0  0
    5.1831    5.7033   18.5313 C   0  0  0  0  0  0  0  0  0  0  0  0
    4.2528    6.0846   19.6559 C   0  0  0  0  0  0  0  0  0  0  0  0
    4.6485    7.3775   20.3135 C   0  0  0  0  0  0  0  0  0  0  0  0
    4.4815    8.4931   19.3188 C   0  0  0  0  0  0  0  0  0  0  0  0
    3.2831    9.1469   19.5988 O   0  0  0  0  0  0  0  0  0  0  0  0
    4.4616    8.0167   17.8901 C   0  0  0  0  0  0  0  0  0  0  0  0
    5.4155    6.8841   17.6435 C   0  0  0  0  0  0  0  0  0  0  0  0
    2.6974    8.6175   20.1854 H   0  0  0  0  0  0  0  0  0  0  0  0
    3.1590    2.9804   14.9365 C   0  0  0  0  0  0  0  0  0  0  0  0
    2.1021    2.1045   14.8474 C   0  0  0  0  0  0  0  0  0  0  0  0
    1.5540    1.7356   13.6489 C   0  0  0  0  0  0  0  0  0  0  0  0
    2.0592    2.2469   12.4417 C   0  0  0  0  0  0  0  0  0  0  0  0
    3.1135    3.1176   12.5768 C   0  0  0  0  0  0  0  0  0  0  0  0
    3.6687    3.4908   13.7939 C   0  0  0  0  0  0  0  0  0  0  0  0
    1.4636    1.8547   11.2191 N   0  0  0  0  0  0  0  0  0  0  0  0
    2.0073    1.1182   10.1666 C   0  0  0  0  0  0  0  0  0  0  0  0
    3.1797    0.6906   10.2065 O   0  0  0  0  0  0  0  0  0  0  0  0
    1.1780    0.8549    9.0125 N   0  0  0  0  0  0  0  0  0  0  0  0
    1.7315    0.0925    7.9205 C   0  0  0  0  0  0  0  0  0  0  0  0
    0.6217   -0.7391    7.3202 C   0  0  0  0  0  0  0  0  0  0  0  0
   -0.4631   -0.0053    6.9072 O   0  0  0  0  0  0  0  0  0  0  0  0
   -0.5633    1.2555    7.4384 C   0  0  0  0  0  0  0  0  0  0  0  0
   -0.1796    1.3245    8.9101 C   0  0  0  0  0  0  0  0  0  0  0  0
    0.4459    2.1783   11.0907 H   0  0  0  0  0  0  0  0  0  0  0  0
    4.5211    0.9351   21.0563 N   0  0  0  0  0  0  0  0  0  0  0  0
    5.3613    0.3448   21.2432 H   0  0  0  0  0  0  0  0  0  0  0  0
    3.5450    1.1812   22.1016 C   0  0  0  0  0  0  0  0  0  0  0  0
    4.2132    1.7198   23.3401 C   0  0  0  0  0  0  0  0  0  0  0  0
    3.6677    4.1307   23.4340 C   0  0  0  0  0  0  0  0  0  0  0  0
    4.7494    3.1208   23.1202 C   0  0  0  0  0  0  0  0  0  0  0  0
 38 39  1  0  0  0
 39 37  1  0  0  0
 37 36  1  0  0  0
 36 34  1  0  0  0
 34  1  1  0  0  0
  1  2  2  0  0  0
  2  3  1  0  0  0
  3  4  2  0  0  0
  4  5  1  0  0  0
  5  6  2  0  0  0
  6  7  1  0  0  0
  7 10  1  0  0  0
 10 11  1  0  0  0
 11 12  1  0  0  0
 12 13  1  0  0  0
 13 14  1  0  0  0
 13 15  1  0  0  0
 15 16  1  0  0  0
  7  8  1  0  0  0
  8  9  2  0  0  0
  5 18  1  0  0  0
 18 19  2  0  0  0
 19 20  1  0  0  0
 20 21  2  0  0  0
 21 24  1  0  0  0
 24 25  1  0  0  0
 25 26  2  0  0  0
 25 27  1  0  0  0
 27 28  1  0  0  0
 28 29  1  0  0  0
 29 30  1  0  0  0
 30 31  1  0  0  0
 31 32  1  0  0  0
 21 22  1  0  0  0
 22 23  2  0  0  0
  9  1  1  0  0  0
 23 18  1  0  0  0
  8  4  1  0  0  0
 32 27  1  0  0  0
 16 10  1  0  0  0
 34 35  1  0  0  0
 14 17  1  0  0  0
 24 33  1  0  0  0
M  END
> <minimizedAffinity>
-8.65687

> <CNNscore>
0.4707213938

> <CNNaffinity>
7.0580391884

> <CNN_VS>
3.3223700523

> <CNNaffinity_variance>
0.5293842554

$$$$
[H]OC1([H])C([H])([H])C([H])([H])C([H])(n2nc(-c3c([H])c([H])c(N([H])C(=O)N4C([H])([H])C([H])([H])OC([H])([H])C4([H])[H])c([H])c3[H])c3c([H])nc(N([H])C([H])([H])C([H])([H])C([H])([H])C([H])([H])[H])nc32)C([H])([H])C1([H])[H]


 39 43  0  0  0  0  0  0  0  0999 V2000
    4.3003    1.5462   19.4469 C   0  0  0  0  0  0  0  0  0  0  0  0
    3.9273    0.7880   18.3823 N   0  0  0  0  0  0  0  0  0  0  0  0
    3.7297    1.3425   17.1772 C   0  0  0  0  0  0  0  0  0  0  0  0
    3.9210    2.7135   17.0639 C   0  0  0  0  0  0  0  0  0  0  0  0
    3.8165    3.5976   16.0280 C   0  0  0  0  0  0  0  0  0  0  0  0
    4.1230    4.8278   16.4931 N   0  0  0  0  0  0  0  0  0  0  0  0
    4.4207    4.7803   17.7808 N   0  0  0  0  0  0  0  0  0  0  0  0
    4.3027    3.4771   18.1609 C   0  0  0  0  0  0  0  0  0  0  0  0
    4.4841    2.8765   19.3289 N   0  0  0  0  0  0  0  0  0  0  0  0
    4.8028    5.8979   18.6399 C   0  0  0  0  0  0  0  0  0  0  0  0
    6.1215    5.5619   19.2906 C   0  0  0  0  0  0  0  0  0  0  0  0
    6.4964    6.5433   20.3662 C   0  0  0  0  0  0  0  0  0  0  0  0
    5.5040    6.4265   21.4902 C   0  0  0  0  0  0  0  0  0  0  0  0
    6.0835    5.6627   22.5016 O   0  0  0  0  0  0  0  0  0  0  0  0
    4.2056    5.7879   21.0719 C   0  0  0  0  0  0  0  0  0  0  0  0
    3.7797    6.1919   19.6903 C   0  0  0  0  0  0  0  0  0  0  0  0
    6.8716    5.1647   22.1880 H   0  0  0  0  0  0  0  0  0  0  0  0
    3.4461    3.3182   14.6476 C   0  0  0  0  0  0  0  0  0  0  0  0
    3.9886    4.0745   13.6347 C   0  0  0  0  0  0  0  0  0  0  0  0
    3.6814    3.8653   12.3176 C   0  0  0  0  0  0  0  0  0  0  0  0
    2.7837    2.8515   11.9429 C   0  0  0  0  0  0  0  0  0  0  0  0
    2.2662    2.1210   12.9853 C   0  0  0  0  0  0  0  0  0  0  0  0
    2.5789    2.3346   14.3214 C   0  0  0  0  0  0  0  0  0  0  0  0
    2.4947    2.6528   10.5717 N   0  0  0  0  0  0  0  0  0  0  0  0
    2.8589    1.5981    9.7349 C   0  0  0  0  0  0  0  0  0  0  0  0
    3.5348    0.6356   10.1544 O   0  0  0  0  0  0  0  0  0  0  0  0
    2.4343    1.6390    8.3539 N   0  0  0  0  0  0  0  0  0  0  0  0
    2.8049    0.5515    7.4821 C   0  0  0  0  0  0  0  0  0  0  0  0
    1.6808    0.3392    6.4947 C   0  0  0  0  0  0  0  0  0  0  0  0
    1.3558    1.4602    5.7713 O   0  0  0  0  0  0  0  0  0  0  0  0
    1.7847    2.6516    6.2990 C   0  0  0  0  0  0  0  0  0  0  0  0
    1.6558    2.7238    7.8142 C   0  0  0  0  0  0  0  0  0  0  0  0
    1.9122    3.4346   10.1173 H   0  0  0  0  0  0  0  0  0  0  0  0
    4.4862    0.8702   20.6822 N   0  0  0  0  0  0  0  0  0  0  0  0
    5.4347    0.5996   21.0234 H   0  0  0  0  0  0  0  0  0  0  0  0
    3.3045    0.5625   21.4664 C   0  0  0  0  0  0  0  0  0  0  0  0
    3.4243    1.1294   22.8574 C   0  0  0  0  0  0  0  0  0  0  0  0
    5.3143    2.2373   24.0058 C   0  0  0  0  0  0  0  0  0  0  0  0
    4.3076    2.3614   22.8835 C   0  0  0  0  0  0  0  0  0  0  0  0
 38 39  1  0  0  0
 39 37  1  0  0  0
 37 36  1  0  0  0
 36 34  1  0  0  0
 34  1  1  0  0  0
  1  2  2  0  0  0
  2  3  1  0  0  0
  3  4  2  0  0  0
  4  5  1  0  0  0
  5  6  2  0  0  0
  6  7  1  0  0  0
  7 10  1  0  0  0
 10 11  1  0  0  0
 11 12  1  0  0  0
 12 13  1  0  0  0
 13 14  1  0  0  0
 13 15  1  0  0  0
 15 16  1  0  0  0
  7  8  1  0  0  0
  8  9  2  0  0  0
  5 18  1  0  0  0
 18 19  2  0  0  0
 19 20  1  0  0  0
 20 21  2  0  0  0
 21 24  1  0  0  0
 24 25  1  0  0  0
 25 26  2  0  0  0
 25 27  1  0  0  0
 27 28  1  0  0  0
 28 29  1  0  0  0
 29 30  1  0  0  0
 30 31  1  0  0  0
 31 32  1  0  0  0
 21 22  1  0  0  0
 22 23  2  0  0  0
  9  1  1  0  0  0
 23 18  1  0  0  0
  8  4  1  0  0  0
 32 27  1  0  0  0
 16 10  1  0  0  0
 34 35  1  0  0  0
 14 17  1  0  0  0
 24 33  1  0  0  0
M  END
> <minimizedAffinity>
-8.19127

> <CNNscore>
0.3264226913

> <CNNaffinity>
6.8416032791

> <CNN_VS>
2.2332546711

> <CNNaffinity_variance>
0.4085789621

$$$$
[H]OC1([H])C([H])([H])C([H])([H])C([H])(n2nc(-c3c([H])c([H])c(N([H])C(=O)N4C([H])([H])C([H])([H])OC([H])([H])C4([H])[H])c([H])c3[H])c3c([H])nc(N([H])C([H])([H])C([H])([H])C([H])([H])C([H])([H])[H])nc32)C([H])([H])C1([H])[H]


 39 43  0  0  0  0  0  0  0  0999 V2000
    4.0833    1.3101   20.2226 C   0  0  0  0  0  0  0  0  0  0  0  0
    3.5463    0.6320   19.1744 N   0  0  0  0  0  0  0  0  0  0  0  0
    3.4792    1.1883   17.9557 C   0  0  0  0  0  0  0  0  0  0  0  0
    3.9779    2.4764   17.8115 C   0  0  0  0  0  0  0  0  0  0  0  0
    4.0769    3.3363   16.7548 C   0  0  0  0  0  0  0  0  0  0  0  0
    4.6563    4.4749   17.1926 N   0  0  0  0  0  0  0  0  0  0  0  0
    4.9365    4.3912   18.4823 N   0  0  0  0  0  0  0  0  0  0  0  0
    4.5247    3.1587   18.8921 C   0  0  0  0  0  0  0  0  0  0  0  0
    4.5655    2.5603   20.0746 N   0  0  0  0  0  0  0  0  0  0  0  0
    5.5642    5.4123   19.3169 C   0  0  0  0  0  0  0  0  0  0  0  0
    4.5566    5.8656   20.3440 C   0  0  0  0  0  0  0  0  0  0  0  0
    5.0224    7.0725   21.1100 C   0  0  0  0  0  0  0  0  0  0  0  0
    5.1143    8.2368   20.1625 C   0  0  0  0  0  0  0  0  0  0  0  0
    3.9786    9.0259   20.3350 O   0  0  0  0  0  0  0  0  0  0  0  0
    5.2115    7.8208   18.7182 C   0  0  0  0  0  0  0  0  0  0  0  0
    6.0444    6.5868   18.5254 C   0  0  0  0  0  0  0  0  0  0  0  0
    3.2660    8.5529   20.8207 H   0  0  0  0  0  0  0  0  0  0  0  0
    3.6513    3.1162   15.3797 C   0  0  0  0  0  0  0  0  0  0  0  0
    3.9652    4.0468   14.4165 C   0  0  0  0  0  0  0  0  0  0  0  0
    3.5940    3.9015   13.1073 C   0  0  0  0  0  0  0  0  0  0  0  0
    2.8649    2.7756   12.6894 C   0  0  0  0  0  0  0  0  0  0  0  0
    2.5734    1.8721   13.6828 C   0  0  0  0  0  0  0  0  0  0  0  0
    2.9506    2.0212   15.0110 C   0  0  0  0  0  0  0  0  0  0  0  0
    2.5054    2.6487   11.3264 N   0  0  0  0  0  0  0  0  0  0  0  0
    1.3065    2.9770   10.6936 C   0  0  0  0  0  0  0  0  0  0  0  0
    0.3464    3.4635   11.3266 O   0  0  0  0  0  0  0  0  0  0  0  0
    1.1932    2.7411    9.2722 N   0  0  0  0  0  0  0  0  0  0  0  0
   -0.0423    3.0795    8.6096 C   0  0  0  0  0  0  0  0  0  0  0  0
    0.2900    3.5570    7.2149 C   0  0  0  0  0  0  0  0  0  0  0  0
    1.0134    2.6545    6.4748 O   0  0  0  0  0  0  0  0  0  0  0  0
    1.6528    1.6758    7.1927 C   0  0  0  0  0  0  0  0  0  0  0  0
    2.2659    2.1807    8.4915 C   0  0  0  0  0  0  0  0  0  0  0  0
    3.2728    2.2360   10.6957 H   0  0  0  0  0  0  0  0  0  0  0  0
    4.1113    0.6390   21.4742 N   0  0  0  0  0  0  0  0  0  0  0  0
    4.5575   -0.2979   21.5856 H   0  0  0  0  0  0  0  0  0  0  0  0
    3.4937    1.3016   22.6080 C   0  0  0  0  0  0  0  0  0  0  0  0
    4.5322    1.6979   23.6253 C   0  0  0  0  0  0  0  0  0  0  0  0
    3.5037    3.9382   23.4201 C   0  0  0  0  0  0  0  0  0  0  0  0
    4.8066    3.1886   23.5908 C   0  0  0  0  0  0  0  0  0  0  0  0
 38 39  1  0  0  0
 39 37  1  0  0  0
 37 36  1  0  0  0
 36 34  1  0  0  0
 34  1  1  0  0  0
  1  2  2  0  0  0
  2  3  1  0  0  0
  3  4  2  0  0  0
  4  5  1  0  0  0
  5  6  2  0  0  0
  6  7  1  0  0  0
  7 10  1  0  0  0
 10 11  1  0  0  0
 11 12  1  0  0  0
 12 13  1  0  0  0
 13 14  1  0  0  0
 13 15  1  0  0  0
 15 16  1  0  0  0
  7  8  1  0  0  0
  8  9  2  0  0  0
  5 18  1  0  0  0
 18 19  2  0  0  0
 19 20  1  0  0  0
 20 21  2  0  0  0
 21 24  1  0  0  0
 24 25  1  0  0  0
 25 26  2  0  0  0
 25 27  1  0  0  0
 27 28  1  0  0  0
 28 29  1  0  0  0
 29 30  1  0  0  0
 30 31  1  0  0  0
 31 32  1  0  0  0
 21 22  1  0  0  0
 22 23  2  0  0  0
  9  1  1  0  0  0
 23 18  1  0  0  0
  8  4  1  0  0  0
 32 27  1  0  0  0
 16 10  1  0  0  0
 34 35  1  0  0  0
 14 17  1  0  0  0
 24 33  1  0  0  0
M  END
> <minimizedAffinity>
-8.76625

> <CNNscore>
0.3182589412

> <CNNaffinity>
6.8197946548

> <CNN_VS>
2.1704607010

> <CNNaffinity_variance>
0.4772592187

$$$$
[H]OC1([H])C([H])([H])C([H])([H])C([H])(n2nc(-c3c([H])c([H])c(N([H])C(=O)N4C([H])([H])C([H])([H])OC([H])([H])C4([H])[H])c([H])c3[H])c3c([H])nc(N([H])C([H])([H])C([H])([H])C([H])([H])C([H])([H])[H])nc32)C([H])([H])C1([H])[H]


 39 43  0  0  0  0  0  0  0  0999 V2000
    4.0733    1.7631   19.6877 C   0  0  0  0  0  0  0  0  0  0  0  0
    3.8554    1.0396   18.5580 N   0  0  0  0  0  0  0  0  0  0  0  0
    3.7050    1.6449   17.3706 C   0  0  0  0  0  0  0  0  0  0  0  0
    3.7810    3.0315   17.3445 C   0  0  0  0  0  0  0  0  0  0  0  0
    3.6801    3.9627   16.3503 C   0  0  0  0  0  0  0  0  0  0  0  0
    3.8372    5.1851   16.9022 N   0  0  0  0  0  0  0  0  0  0  0  0
    4.0350    5.0877   18.2062 N   0  0  0  0  0  0  0  0  0  0  0  0
    4.0045    3.7593   18.5075 C   0  0  0  0  0  0  0  0  0  0  0  0
    4.1459    3.1088   19.6542 N   0  0  0  0  0  0  0  0  0  0  0  0
    4.2461    6.1816   19.1507 C   0  0  0  0  0  0  0  0  0  0  0  0
    3.7524    7.4562   18.5128 C   0  0  0  0  0  0  0  0  0  0  0  0
    4.1269    8.6768   19.3067 C   0  0  0  0  0  0  0  0  0  0  0  0
    5.6234    8.8235   19.2848 C   0  0  0  0  0  0  0  0  0  0  0  0
    5.9495    9.7937   18.3390 O   0  0  0  0  0  0  0  0  0  0  0  0
    6.3407    7.5432   18.9459 C   0  0  0  0  0  0  0  0  0  0  0  0
    5.6812    6.3340   19.5428 C   0  0  0  0  0  0  0  0  0  0  0  0
    5.2026    9.9853   17.7284 H   0  0  0  0  0  0  0  0  0  0  0  0
    3.4468    3.7341   14.9312 C   0  0  0  0  0  0  0  0  0  0  0  0
    3.6114    4.7711   14.0423 C   0  0  0  0  0  0  0  0  0  0  0  0
    3.4066    4.6239   12.6972 C   0  0  0  0  0  0  0  0  0  0  0  0
    3.0134    3.3854   12.1630 C   0  0  0  0  0  0  0  0  0  0  0  0
    2.8611    2.3782   13.0852 C   0  0  0  0  0  0  0  0  0  0  0  0
    3.0691    2.5293   14.4500 C   0  0  0  0  0  0  0  0  0  0  0  0
    2.8202    3.2622   10.7663 N   0  0  0  0  0  0  0  0  0  0  0  0
    3.7668    3.1208    9.7516 C   0  0  0  0  0  0  0  0  0  0  0  0
    4.9897    3.0817   10.0007 O   0  0  0  0  0  0  0  0  0  0  0  0
    3.3008    3.0188    8.3872 N   0  0  0  0  0  0  0  0  0  0  0  0
    4.2727    2.8705    7.3320 C   0  0  0  0  0  0  0  0  0  0  0  0
    3.6700    1.9915    6.2607 C   0  0  0  0  0  0  0  0  0  0  0  0
    2.4753    2.4549    5.7670 O   0  0  0  0  0  0  0  0  0  0  0  0
    1.8251    3.3728    6.5523 C   0  0  0  0  0  0  0  0  0  0  0  0
    1.9037    3.0601    8.0402 C   0  0  0  0  0  0  0  0  0  0  0  0
    1.7921    3.2849   10.4511 H   0  0  0  0  0  0  0  0  0  0  0  0
    4.2205    1.0342   20.8979 N   0  0  0  0  0  0  0  0  0  0  0  0
    3.4611    0.9968   21.6129 H   0  0  0  0  0  0  0  0  0  0  0  0
    5.4730    0.3339   21.1146 C   0  0  0  0  0  0  0  0  0  0  0  0
    6.5579    1.2952   21.5262 C   0  0  0  0  0  0  0  0  0  0  0  0
    6.3997    3.6174   22.3635 C   0  0  0  0  0  0  0  0  0  0  0  0
    6.1202    2.1664   22.6874 C   0  0  0  0  0  0  0  0  0  0  0  0
 38 39  1  0  0  0
 39 37  1  0  0  0
 37 36  1  0  0  0
 36 34  1  0  0  0
 34  1  1  0  0  0
  1  2  2  0  0  0
  2  3  1  0  0  0
  3  4  2  0  0  0
  4  5  1  0  0  0
  5  6  2  0  0  0
  6  7  1  0  0  0
  7 10  1  0  0  0
 10 11  1  0  0  0
 11 12  1  0  0  0
 12 13  1  0  0  0
 13 14  1  0  0  0
 13 15  1  0  0  0
 15 16  1  0  0  0
  7  8  1  0  0  0
  8  9  2  0  0  0
  5 18  1  0  0  0
 18 19  2  0  0  0
 19 20  1  0  0  0
 20 21  2  0  0  0
 21 24  1  0  0  0
 24 25  1  0  0  0
 25 26  2  0  0  0
 25 27  1  0  0  0
 27 28  1  0  0  0
 28 29  1  0  0  0
 29 30  1  0  0  0
 30 31  1  0  0  0
 31 32  1  0  0  0
 21 22  1  0  0  0
 22 23  2  0  0  0
  9  1  1  0  0  0
 23 18  1  0  0  0
  8  4  1  0  0  0
 32 27  1  0  0  0
 16 10  1  0  0  0
 34 35  1  0  0  0
 14 17  1  0  0  0
 24 33  1  0  0  0
M  END
> <minimizedAffinity>
-7.67592

> <CNNscore>
0.2521384656

> <CNNaffinity>
6.6293067932

> <CNN_VS>
1.6715031862

> <CNNaffinity_variance>
0.5422368646

$$$$
[H]OC1([H])C([H])([H])C([H])([H])C([H])(n2nc(-c3c([H])c([H])c(N([H])C(=O)N4C([H])([H])C([H])([H])OC([H])([H])C4([H])[H])c([H])c3[H])c3c([H])nc(N([H])C([H])([H])C([H])([H])C([H])([H])C([H])([H])[H])nc32)C([H])([H])C1([H])[H]


 39 43  0  0  0  0  0  0  0  0999 V2000
    4.0844    5.8594   20.1359 C   0  0  0  0  0  0  0  0  0  0  0  0
    3.7578    6.2912   18.8893 N   0  0  0  0  0  0  0  0  0  0  0  0
    3.5937    5.4228   17.8804 C   0  0  0  0  0  0  0  0  0  0  0  0
    3.7701    4.0741   18.1614 C   0  0  0  0  0  0  0  0  0  0  0  0
    3.6878    2.9360   17.4105 C   0  0  0  0  0  0  0  0  0  0  0  0
    3.9608    1.8837   18.2116 N   0  0  0  0  0  0  0  0  0  0  0  0
    4.2156    2.2881   19.4446 N   0  0  0  0  0  0  0  0  0  0  0  0
    4.1040    3.6460   19.4410 C   0  0  0  0  0  0  0  0  0  0  0  0
    4.2538    4.5485   20.4008 N   0  0  0  0  0  0  0  0  0  0  0  0
    4.5521    1.4535   20.5951 C   0  0  0  0  0  0  0  0  0  0  0  0
    3.6080    1.7992   21.7196 C   0  0  0  0  0  0  0  0  0  0  0  0
    4.0086    1.1613   23.0208 C   0  0  0  0  0  0  0  0  0  0  0  0
    5.3197    1.7516   23.4616 C   0  0  0  0  0  0  0  0  0  0  0  0
    5.0563    2.7093   24.4392 O   0  0  0  0  0  0  0  0  0  0  0  0
    6.0901    2.3929   22.3375 C   0  0  0  0  0  0  0  0  0  0  0  0
    5.9662    1.6383   21.0457 C   0  0  0  0  0  0  0  0  0  0  0  0
    4.1099    2.9769   24.4539 H   0  0  0  0  0  0  0  0  0  0  0  0
    3.3656    2.8197   15.9952 C   0  0  0  0  0  0  0  0  0  0  0  0
    2.4758    1.8561   15.5803 C   0  0  0  0  0  0  0  0  0  0  0  0
    2.1315    1.6924   14.2660 C   0  0  0  0  0  0  0  0  0  0  0  0
    2.6838    2.5177   13.2720 C   0  0  0  0  0  0  0  0  0  0  0  0
    3.5666    3.4657   13.7300 C   0  0  0  0  0  0  0  0  0  0  0  0
    3.9151    3.6304   15.0642 C   0  0  0  0  0  0  0  0  0  0  0  0
    2.2993    2.3308   11.9227 N   0  0  0  0  0  0  0  0  0  0  0  0
    1.1936    2.8374   11.2398 C   0  0  0  0  0  0  0  0  0  0  0  0
    0.3606    3.5768   11.8041 O   0  0  0  0  0  0  0  0  0  0  0  0
    1.0265    2.4868    9.8476 N   0  0  0  0  0  0  0  0  0  0  0  0
   -0.1129    3.0078    9.1334 C   0  0  0  0  0  0  0  0  0  0  0  0
    0.3061    3.2600    7.7035 C   0  0  0  0  0  0  0  0  0  0  0  0
    0.8196    2.1548    7.0706 O   0  0  0  0  0  0  0  0  0  0  0  0
    1.2416    1.1422    7.8942 C   0  0  0  0  0  0  0  0  0  0  0  0
    1.9533    1.6368    9.1458 C   0  0  0  0  0  0  0  0  0  0  0  0
    2.9595    1.7038   11.3500 H   0  0  0  0  0  0  0  0  0  0  0  0
    4.2366    6.8529   21.1396 N   0  0  0  0  0  0  0  0  0  0  0  0
    3.5831    6.9195   21.9507 H   0  0  0  0  0  0  0  0  0  0  0  0
    5.3407    7.7847   21.0033 C   0  0  0  0  0  0  0  0  0  0  0  0
    4.8964    9.1892   21.3204 C   0  0  0  0  0  0  0  0  0  0  0  0
    3.7274    9.8047   19.2291 C   0  0  0  0  0  0  0  0  0  0  0  0
    4.9388   10.0782   20.0929 C   0  0  0  0  0  0  0  0  0  0  0  0
 38 39  1  0  0  0
 39 37  1  0  0  0
 37 36  1  0  0  0
 36 34  1  0  0  0
 34  1  1  0  0  0
  1  2  2  0  0  0
  2  3  1  0  0  0
  3  4  2  0  0  0
  4  5  1  0  0  0
  5  6  2  0  0  0
  6  7  1  0  0  0
  7 10  1  0  0  0
 10 11  1  0  0  0
 11 12  1  0  0  0
 12 13  1  0  0  0
 13 14  1  0  0  0
 13 15  1  0  0  0
 15 16  1  0  0  0
  7  8  1  0  0  0
  8  9  2  0  0  0
  5 18  1  0  0  0
 18 19  2  0  0  0
 19 20  1  0  0  0
 20 21  2  0  0  0
 21 24  1  0  0  0
 24 25  1  0  0  0
 25 26  2  0  0  0
 25 27  1  0  0  0
 27 28  1  0  0  0
 28 29  1  0  0  0
 29 30  1  0  0  0
 30 31  1  0  0  0
 31 32  1  0  0  0
 21 22  1  0  0  0
 22 23  2  0  0  0
  9  1  1  0  0  0
 23 18  1  0  0  0
  8  4  1  0  0  0
 32 27  1  0  0  0
 16 10  1  0  0  0
 34 35  1  0  0  0
 14 17  1  0  0  0
 24 33  1  0  0  0
M  END
> <minimizedAffinity>
-9.61208

> <CNNscore>
0.2271788418

> <CNNaffinity>
6.6377625465

> <CNN_VS>
1.5079592466

> <CNNaffinity_variance>
0.2304043472

$$$$
[H]OC1([H])C([H])([H])C([H])([H])C([H])(n2nc(-c3c([H])c([H])c(N([H])C(=O)N4C([H])([H])C([H])([H])OC([H])([H])C4([H])[H])c([H])c3[H])c3c([H])nc(N([H])C([H])([H])C([H])([H])C([H])([H])C([H])([H])[H])nc32)C([H])([H])C1([H])[H]


 39 43  0  0  0  0  0  0  0  0999 V2000
    4.0388    5.8686   20.0434 C   0  0  0  0  0  0  0  0  0  0  0  0
    3.6972    6.2782   18.7933 N   0  0  0  0  0  0  0  0  0  0  0  0
    3.5290    5.3925   17.8001 C   0  0  0  0  0  0  0  0  0  0  0  0
    3.7171    4.0498   18.1010 C   0  0  0  0  0  0  0  0  0  0  0  0
    3.6350    2.8992   17.3693 C   0  0  0  0  0  0  0  0  0  0  0  0
    3.9228    1.8617   18.1844 N   0  0  0  0  0  0  0  0  0  0  0  0
    4.1869    2.2876   19.4082 N   0  0  0  0  0  0  0  0  0  0  0  0
    4.0663    3.6445   19.3839 C   0  0  0  0  0  0  0  0  0  0  0  0
    4.2195    4.5633   20.3275 N   0  0  0  0  0  0  0  0  0  0  0  0
    4.5403    1.4739   20.5686 C   0  0  0  0  0  0  0  0  0  0  0  0
    3.5888    1.8133   21.6888 C   0  0  0  0  0  0  0  0  0  0  0  0
    4.0020    1.1992   22.9975 C   0  0  0  0  0  0  0  0  0  0  0  0
    5.3004    1.8218   23.4315 C   0  0  0  0  0  0  0  0  0  0  0  0
    5.0168    2.7853   24.3975 O   0  0  0  0  0  0  0  0  0  0  0  0
    6.0578    2.4655   22.2999 C   0  0  0  0  0  0  0  0  0  0  0  0
    5.9500    1.6933   21.0171 C   0  0  0  0  0  0  0  0  0  0  0  0
    4.0651    3.0334   24.4090 H   0  0  0  0  0  0  0  0  0  0  0  0
    3.2997    2.7580   15.9593 C   0  0  0  0  0  0  0  0  0  0  0  0
    3.8763    3.6017   15.0384 C   0  0  0  0  0  0  0  0  0  0  0  0
    3.6030    3.5236   13.6997 C   0  0  0  0  0  0  0  0  0  0  0  0
    2.7068    2.5609   13.2058 C   0  0  0  0  0  0  0  0  0  0  0  0
    2.1547    1.7396   14.1590 C   0  0  0  0  0  0  0  0  0  0  0  0
    2.4329    1.8203   15.5173 C   0  0  0  0  0  0  0  0  0  0  0  0
    2.4533    2.4982   11.8147 N   0  0  0  0  0  0  0  0  0  0  0  0
    1.4030    3.0499   11.0813 C   0  0  0  0  0  0  0  0  0  0  0  0
    0.5030    3.7180   11.6316 O   0  0  0  0  0  0  0  0  0  0  0  0
    1.3741    2.8319    9.6528 N   0  0  0  0  0  0  0  0  0  0  0  0
    0.2926    3.4004    8.8865 C   0  0  0  0  0  0  0  0  0  0  0  0
    0.8354    3.7955    7.5326 C   0  0  0  0  0  0  0  0  0  0  0  0
    1.4329    2.7648    6.8497 O   0  0  0  0  0  0  0  0  0  0  0  0
    1.8024    1.6847    7.6106 C   0  0  0  0  0  0  0  0  0  0  0  0
    2.3829    2.0685    8.9646 C   0  0  0  0  0  0  0  0  0  0  0  0
    3.1792    1.9399   11.2504 H   0  0  0  0  0  0  0  0  0  0  0  0
    4.1942    6.8792   21.0294 N   0  0  0  0  0  0  0  0  0  0  0  0
    3.3747    7.2958   21.5234 H   0  0  0  0  0  0  0  0  0  0  0  0
    5.5423    7.3215   21.3342 C   0  0  0  0  0  0  0  0  0  0  0  0
    6.1516    6.4698   22.4176 C   0  0  0  0  0  0  0  0  0  0  0  0
    8.2577    7.0576   21.2612 C   0  0  0  0  0  0  0  0  0  0  0  0
    7.5313    5.9754   22.0290 C   0  0  0  0  0  0  0  0  0  0  0  0
 38 39  1  0  0  0
 39 37  1  0  0  0
 37 36  1  0  0  0
 36 34  1  0  0  0
 34  1  1  0  0  0
  1  2  2  0  0  0
  2  3  1  0  0  0
  3  4  2  0  0  0
  4  5  1  0  0  0
  5  6  2  0  0  0
  6  7  1  0  0  0
  7 10  1  0  0  0
 10 11  1  0  0  0
 11 12  1  0  0  0
 12 13  1  0  0  0
 13 14  1  0  0  0
 13 15  1  0  0  0
 15 16  1  0  0  0
  7  8  1  0  0  0
  8  9  2  0  0  0
  5 18  1  0  0  0
 18 19  2  0  0  0
 19 20  1  0  0  0
 20 21  2  0  0  0
 21 24  1  0  0  0
 24 25  1  0  0  0
 25 26  2  0  0  0
 25 27  1  0  0  0
 27 28  1  0  0  0
 28 29  1  0  0  0
 29 30  1  0  0  0
 30 31  1  0  0  0
 31 32  1  0  0  0
 21 22  1  0  0  0
 22 23  2  0  0  0
  9  1  1  0  0  0
 23 18  1  0  0  0
  8  4  1  0  0  0
 32 27  1  0  0  0
 16 10  1  0  0  0
 34 35  1  0  0  0
 14 17  1  0  0  0
 24 33  1  0  0  0
M  END
> <minimizedAffinity>
-9.02827

> <CNNscore>
0.2024296671

> <CNNaffinity>
6.6863341331

> <CNN_VS>
1.3535124063

> <CNNaffinity_variance>
0.3492838442

$$$$
[H]OC1([H])C([H])([H])C([H])([H])C([H])(n2nc(-c3c([H])c([H])c(N([H])C(=O)N4C([H])([H])C([H])([H])OC([H])([H])C4([H])[H])c([H])c3[H])c3c([H])nc(N([H])C([H])([H])C([H])([H])C([H])([H])C([H])([H])[H])nc32)C([H])([H])C1([H])[H]


 39 43  0  0  0  0  0  0  0  0999 V2000
    2.7355    3.7040   14.2352 C   0  0  0  0  0  0  0  0  0  0  0  0
    3.8728    4.1636   13.6499 N   0  0  0  0  0  0  0  0  0  0  0  0
    3.8304    4.8090   12.4748 C   0  0  0  0  0  0  0  0  0  0  0  0
    2.5850    4.9864   11.8862 C   0  0  0  0  0  0  0  0  0  0  0  0
    2.1648    5.5776   10.7288 C   0  0  0  0  0  0  0  0  0  0  0  0
    0.8216    5.4567   10.6589 N   0  0  0  0  0  0  0  0  0  0  0  0
    0.3540    4.8153   11.7167 N   0  0  0  0  0  0  0  0  0  0  0  0
    1.4296    4.5112   12.4959 C   0  0  0  0  0  0  0  0  0  0  0  0
    1.5303    3.8801   13.6576 N   0  0  0  0  0  0  0  0  0  0  0  0
   -1.0400    4.4895   12.0060 C   0  0  0  0  0  0  0  0  0  0  0  0
   -1.7609    4.2994   10.6947 C   0  0  0  0  0  0  0  0  0  0  0  0
   -3.2495    4.1827   10.8708 C   0  0  0  0  0  0  0  0  0  0  0  0
   -3.7773    5.4953   11.3809 C   0  0  0  0  0  0  0  0  0  0  0  0
   -4.3319    6.1863   10.3052 O   0  0  0  0  0  0  0  0  0  0  0  0
   -2.7182    6.3515   12.0242 C   0  0  0  0  0  0  0  0  0  0  0  0
   -1.7231    5.5489   12.8109 C   0  0  0  0  0  0  0  0  0  0  0  0
   -4.0489    5.8169    9.4387 H   0  0  0  0  0  0  0  0  0  0  0  0
    2.9766    6.2369    9.7154 C   0  0  0  0  0  0  0  0  0  0  0  0
    4.2187    5.7315    9.4086 C   0  0  0  0  0  0  0  0  0  0  0  0
    5.0319    6.3038    8.4684 C   0  0  0  0  0  0  0  0  0  0  0  0
    4.6216    7.4505    7.7679 C   0  0  0  0  0  0  0  0  0  0  0  0
    3.3756    7.9212    8.1051 C   0  0  0  0  0  0  0  0  0  0  0  0
    2.5515    7.3392    9.0596 C   0  0  0  0  0  0  0  0  0  0  0  0
    5.4808    8.0127    6.7936 N   0  0  0  0  0  0  0  0  0  0  0  0
    5.6726    7.6405    5.4631 C   0  0  0  0  0  0  0  0  0  0  0  0
    5.0436    6.6894    4.9543 O   0  0  0  0  0  0  0  0  0  0  0  0
    6.6257    8.3856    4.6722 N   0  0  0  0  0  0  0  0  0  0  0  0
    6.8288    8.0087    3.2950 C   0  0  0  0  0  0  0  0  0  0  0  0
    7.1126    9.2641    2.5031 C   0  0  0  0  0  0  0  0  0  0  0  0
    8.1769    9.9920    2.9756 O   0  0  0  0  0  0  0  0  0  0  0  0
    8.5559    9.7193    4.2656 C   0  0  0  0  0  0  0  0  0  0  0  0
    7.3809    9.4896    5.2060 C   0  0  0  0  0  0  0  0  0  0  0  0
    6.0687    8.8444    7.1392 H   0  0  0  0  0  0  0  0  0  0  0  0
    2.8801    3.0332   15.4789 N   0  0  0  0  0  0  0  0  0  0  0  0
    2.8632    3.5484   16.3864 H   0  0  0  0  0  0  0  0  0  0  0  0
    3.0543    1.5928   15.4513 C   0  0  0  0  0  0  0  0  0  0  0  0
    3.4248    1.0736   16.8165 C   0  0  0  0  0  0  0  0  0  0  0  0
    4.5225    1.6462   18.9579 C   0  0  0  0  0  0  0  0  0  0  0  0
    4.4825    1.9381   17.4741 C   0  0  0  0  0  0  0  0  0  0  0  0
 38 39  1  0  0  0
 39 37  1  0  0  0
 37 36  1  0  0  0
 36 34  1  0  0  0
 34  1  1  0  0  0
  1  2  2  0  0  0
  2  3  1  0  0  0
  3  4  2  0  0  0
  4  5  1  0  0  0
  5  6  2  0  0  0
  6  7  1  0  0  0
  7 10  1  0  0  0
 10 11  1  0  0  0
 11 12  1  0  0  0
 12 13  1  0  0  0
 13 14  1  0  0  0
 13 15  1  0  0  0
 15 16  1  0  0  0
  7  8  1  0  0  0
  8  9  2  0  0  0
  5 18  1  0  0  0
 18 19  2  0  0  0
 19 20  1  0  0  0
 20 21  2  0  0  0
 21 24  1  0  0  0
 24 25  1  0  0  0
 25 26  2  0  0  0
 25 27  1  0  0  0
 27 28  1  0  0  0
 28 29  1  0  0  0
 29 30  1  0  0  0
 30 31  1  0  0  0
 31 32  1  0  0  0
 21 22  1  0  0  0
 22 23  2  0  0  0
  9  1  1  0  0  0
 23 18  1  0  0  0
  8  4  1  0  0  0
 32 27  1  0  0  0
 16 10  1  0  0  0
 34 35  1  0  0  0
 14 17  1  0  0  0
 24 33  1  0  0  0
M  END
> <minimizedAffinity>
-6.75749

> <CNNscore>
0.1838348210

> <CNNaffinity>
5.8421168327

> <CNN_VS>
1.0739845037

> <CNNaffinity_variance>
0.3637608290

$$$$
[H]OC1([H])C([H])([H])C([H])([H])C([H])(n2nc(-c3c([H])c([H])c(N([H])C(=O)N4C([H])([H])C([H])([H])OC([H])([H])C4([H])[H])c([H])c3[H])c3c([H])nc(N([H])C([H])([H])C([H])([H])C([H])([H])C([H])([H])[H])nc32)C([H])([H])C1([H])[H]


 39 43  0  0  0  0  0  0  0  0999 V2000
    4.5374    7.0533   20.7562 C   0  0  0  0  0  0  0  0  0  0  0  0
    4.1358    7.6269   19.5914 N   0  0  0  0  0  0  0  0  0  0  0  0
    3.8477    6.8766   18.5175 C   0  0  0  0  0  0  0  0  0  0  0  0
    3.9760    5.4996   18.6454 C   0  0  0  0  0  0  0  0  0  0  0  0
    3.7758    4.4509   17.7933 C   0  0  0  0  0  0  0  0  0  0  0  0
    4.0567    3.3098   18.4585 N   0  0  0  0  0  0  0  0  0  0  0  0
    4.4288    3.5716   19.7002 N   0  0  0  0  0  0  0  0  0  0  0  0
    4.3876    4.9260   19.8428 C   0  0  0  0  0  0  0  0  0  0  0  0
    4.6594    5.7158   20.8725 N   0  0  0  0  0  0  0  0  0  0  0  0
    4.8119    2.6075   20.7283 C   0  0  0  0  0  0  0  0  0  0  0  0
    5.1422    1.3016   20.0495 C   0  0  0  0  0  0  0  0  0  0  0  0
    5.3313    0.1777   21.0301 C   0  0  0  0  0  0  0  0  0  0  0  0
    4.0166   -0.0950   21.7075 C   0  0  0  0  0  0  0  0  0  0  0  0
    3.4424   -1.2123   21.1041 O   0  0  0  0  0  0  0  0  0  0  0  0
    3.0543    1.0605   21.6234 C   0  0  0  0  0  0  0  0  0  0  0  0
    3.7360    2.3924   21.7447 C   0  0  0  0  0  0  0  0  0  0  0  0
    3.8593   -1.4248   20.2390 H   0  0  0  0  0  0  0  0  0  0  0  0
    3.3369    4.4973   16.4056 C   0  0  0  0  0  0  0  0  0  0  0  0
    4.0778    3.8571   15.4394 C   0  0  0  0  0  0  0  0  0  0  0  0
    3.7221    3.8635   14.1179 C   0  0  0  0  0  0  0  0  0  0  0  0
    2.5655    4.5365   13.6898 C   0  0  0  0  0  0  0  0  0  0  0  0
    1.8558    5.1614   14.6867 C   0  0  0  0  0  0  0  0  0  0  0  0
    2.2182    5.1542   16.0274 C   0  0  0  0  0  0  0  0  0  0  0  0
    2.2183    4.5155   12.3178 N   0  0  0  0  0  0  0  0  0  0  0  0
    1.5009    3.5574   11.6016 C   0  0  0  0  0  0  0  0  0  0  0  0
    1.0503    2.5320   12.1536 O   0  0  0  0  0  0  0  0  0  0  0  0
    1.2851    3.7752   10.1892 N   0  0  0  0  0  0  0  0  0  0  0  0
    0.5427    2.7905    9.4414 C   0  0  0  0  0  0  0  0  0  0  0  0
   -0.2510    3.5118    8.3767 C   0  0  0  0  0  0  0  0  0  0  0  0
    0.5143    4.2886    7.5420 O   0  0  0  0  0  0  0  0  0  0  0  0
    1.7617    4.6129    8.0118 C   0  0  0  0  0  0  0  0  0  0  0  0
    1.7830    4.9371    9.4991 C   0  0  0  0  0  0  0  0  0  0  0  0
    2.5645    5.3632   11.7536 H   0  0  0  0  0  0  0  0  0  0  0  0
    4.8197    7.9289   21.8385 N   0  0  0  0  0  0  0  0  0  0  0  0
    4.1628    8.0391   22.6420 H   0  0  0  0  0  0  0  0  0  0  0  0
    6.0634    8.6753   21.7944 C   0  0  0  0  0  0  0  0  0  0  0  0
    7.1031    8.0331   22.6761 C   0  0  0  0  0  0  0  0  0  0  0  0
    8.0199    5.7701   22.2799 C   0  0  0  0  0  0  0  0  0  0  0  0
    8.0975    7.2234   21.8671 C   0  0  0  0  0  0  0  0  0  0  0  0
 38 39  1  0  0  0
 39 37  1  0  0  0
 37 36  1  0  0  0
 36 34  1  0  0  0
 34  1  1  0  0  0
  1  2  2  0  0  0
  2  3  1  0  0  0
  3  4  2  0  0  0
  4  5  1  0  0  0
  5  6  2  0  0  0
  6  7  1  0  0  0
  7 10  1  0  0  0
 10 11  1  0  0  0
 11 12  1  0  0  0
 12 13  1  0  0  0
 13 14  1  0  0  0
 13 15  1  0  0  0
 15 16  1  0  0  0
  7  8  1  0  0  0
  8  9  2  0  0  0
  5 18  1  0  0  0
 18 19  2  0  0  0
 19 20  1  0  0  0
 20 21  2  0  0  0
 21 24  1  0  0  0
 24 25  1  0  0  0
 25 26  2  0  0  0
 25 27  1  0  0  0
 27 28  1  0  0  0
 28 29  1  0  0  0
 29 30  1  0  0  0
 30 31  1  0  0  0
 31 32  1  0  0  0
 21 22  1  0  0  0
 22 23  2  0  0  0
  9  1  1  0  0  0
 23 18  1  0  0  0
  8  4  1  0  0  0
 32 27  1  0  0  0
 16 10  1  0  0  0
 34 35  1  0  0  0
 14 17  1  0  0  0
 24 33  1  0  0  0
M  END
> <minimizedAffinity>
-8.05181

> <CNNscore>
0.1721301228

> <CNNaffinity>
6.0956630707

> <CNN_VS>
1.0492472649

> <CNNaffinity_variance>
0.3127477765

$$$$
[H]c1nc(N([H])[H])c2c(-c3c([H])c([H])c(N([H])C(=O)c4c([H])n(C([H])(C([H])([H])[H])C([H])([H])[H])c(=O)n(-c5nc(C([H])([H])[H])c([H])c([H])c5[H])c4=O)c([H])c3[H])c([H])c(C3([H])C([H])([H])C([H])([H])N(C(=O)C([H])(C([H])([H])[H])C([H])([H])[H])C([H])([H])C3([H])[H])n2n1


 51 56  0  0  0  0  0  0  0  0999 V2000
    2.8347    4.7456   14.8840 C   0  0  0  0  0  0  0  0  0  0  0  0
    1.5169    5.1473   14.6594 C   0  0  0  0  0  0  0  0  0  0  0  0
    1.0592    5.3747   13.3874 C   0  0  0  0  0  0  0  0  0  0  0  0
    1.8632    5.2236   12.2485 C   0  0  0  0  0  0  0  0  0  0  0  0
    3.1527    4.8294   12.4877 C   0  0  0  0  0  0  0  0  0  0  0  0
    3.6388    4.5917   13.7873 C   0  0  0  0  0  0  0  0  0  0  0  0
    4.2082    5.0146   18.2291 C   0  0  0  0  0  0  0  0  0  0  0  0
    3.7653    5.5830   17.0676 C   0  0  0  0  0  0  0  0  0  0  0  0
    3.3362    4.5513   16.2285 C   0  0  0  0  0  0  0  0  0  0  0  0
    3.5193    3.3654   16.8854 C   0  0  0  0  0  0  0  0  0  0  0  0
    3.2728    2.0504   16.5654 C   0  0  0  0  0  0  0  0  0  0  0  0
    2.6994    1.6865   15.3353 N   0  0  0  0  0  0  0  0  0  0  0  0
    3.5592    1.0853   17.4459 N   0  0  0  0  0  0  0  0  0  0  0  0
    4.0852    1.4156   18.6361 C   0  0  0  0  0  0  0  0  0  0  0  0
    4.3247    2.6963   18.9505 N   0  0  0  0  0  0  0  0  0  0  0  0
    4.0529    3.6865   18.1005 N   0  0  0  0  0  0  0  0  0  0  0  0
    1.6761    1.8856   15.1343 H   0  0  0  0  0  0  0  0  0  0  0  0
    3.2138    1.2142   14.5607 H   0  0  0  0  0  0  0  0  0  0  0  0
    5.7596    8.3748   21.6410 C   0  0  0  0  0  0  0  0  0  0  0  0
    4.7631    8.9702   22.1786 O   0  0  0  0  0  0  0  0  0  0  0  0
    5.6573    6.9921   21.4067 N   0  0  0  0  0  0  0  0  0  0  0  0
    6.7078    6.2062   20.8176 C   0  0  0  0  0  0  0  0  0  0  0  0
    6.2609    5.5647   19.5066 C   0  0  0  0  0  0  0  0  0  0  0  0
    4.7591    5.7211   19.4166 C   0  0  0  0  0  0  0  0  0  0  0  0
    4.1653    5.1845   20.7033 C   0  0  0  0  0  0  0  0  0  0  0  0
    4.4400    6.2600   21.7582 C   0  0  0  0  0  0  0  0  0  0  0  0
    6.9209    9.7478   19.9039 C   0  0  0  0  0  0  0  0  0  0  0  0
    6.9353    9.1778   21.3072 C   0  0  0  0  0  0  0  0  0  0  0  0
    7.0578   10.3471   22.2573 C   0  0  0  0  0  0  0  0  0  0  0  0
    1.3276    5.4798   10.9656 N   0  0  0  0  0  0  0  0  0  0  0  0
    0.6781    6.6059   10.4939 C   0  0  0  0  0  0  0  0  0  0  0  0
    0.4344    7.6468   11.1343 O   0  0  0  0  0  0  0  0  0  0  0  0
    1.4419    4.6787   10.2512 H   0  0  0  0  0  0  0  0  0  0  0  0
    0.2005    6.6336    9.0896 C   0  0  0  0  0  0  0  0  0  0  0  0
   -1.1387    6.5610    8.7769 C   0  0  0  0  0  0  0  0  0  0  0  0
   -1.5723    6.5876    7.4880 N   0  0  0  0  0  0  0  0  0  0  0  0
   -0.6503    6.6881    6.5070 C   0  0  0  0  0  0  0  0  0  0  0  0
   -1.0066    6.7169    5.2898 O   0  0  0  0  0  0  0  0  0  0  0  0
    0.6718    6.7625    6.7503 N   0  0  0  0  0  0  0  0  0  0  0  0
    1.0951    6.7349    8.0455 C   0  0  0  0  0  0  0  0  0  0  0  0
    2.3247    6.8028    8.3027 O   0  0  0  0  0  0  0  0  0  0  0  0
    1.5925    6.8667    5.6729 C   0  0  0  0  0  0  0  0  0  0  0  0
    2.0103    8.0806    5.1645 C   0  0  0  0  0  0  0  0  0  0  0  0
    2.9042    8.1745    4.1183 C   0  0  0  0  0  0  0  0  0  0  0  0
    3.4044    7.0165    3.5525 C   0  0  0  0  0  0  0  0  0  0  0  0
    2.9754    5.8150    4.0736 C   0  0  0  0  0  0  0  0  0  0  0  0
    3.4989    4.5561    3.4824 C   0  0  0  0  0  0  0  0  0  0  0  0
    2.0988    5.7630    5.0991 N   0  0  0  0  0  0  0  0  0  0  0  0
   -2.9660    6.5124    7.1724 C   0  0  0  0  0  0  0  0  0  0  0  0
   -3.6119    5.3229    7.8517 C   0  0  0  0  0  0  0  0  0  0  0  0
   -3.7362    7.7604    7.4954 C   0  0  0  0  0  0  0  0  0  0  0  0
 27 28  1  0  0  0
 28 29  1  0  0  0
 28 19  1  0  0  0
 19 20  2  0  0  0
 19 21  1  0  0  0
 21 22  1  0  0  0
 22 23  1  0  0  0
 23 24  1  0  0  0
 24 25  1  0  0  0
 25 26  1  0  0  0
 24  7  1  0  0  0
  7  8  2  0  0  0
  8  9  1  0  0  0
  9  1  1  0  0  0
  1  2  2  0  0  0
  2  3  1  0  0  0
  3  4  2  0  0  0
  4 30  1  0  0  0
 30 31  1  0  0  0
 31 32  2  0  0  0
 31 34  1  0  0  0
 34 35  2  0  0  0
 35 36  1  0  0  0
 36 49  1  0  0  0
 49 50  1  0  0  0
 49 51  1  0  0  0
 36 37  1  0  0  0
 37 38  2  0  0  0
 37 39  1  0  0  0
 39 42  1  0  0  0
 42 43  2  0  0  0
 43 44  1  0  0  0
 44 45  2  0  0  0
 45 46  1  0  0  0
 46 47  1  0  0  0
 46 48  2  0  0  0
 39 40  1  0  0  0
 40 41  2  0  0  0
  4  5  1  0  0  0
  5  6  2  0  0  0
  9 10  2  0  0  0
 10 11  1  0  0  0
 11 12  1  0  0  0
 11 13  2  0  0  0
 13 14  1  0  0  0
 14 15  2  0  0  0
 15 16  1  0  0  0
 26 21  1  0  0  0
 16  7  1  0  0  0
  6  1  1  0  0  0
 16 10  1  0  0  0
 40 34  1  0  0  0
 48 42  1  0  0  0
 30 33  1  0  0  0
 12 17  1  0  0  0
 12 18  1  0  0  0
M  END
> <minimizedAffinity>
-8.19031

> <CNNscore>
0.1778862923

> <CNNaffinity>
6.9129400253

> <CNN_VS>
1.2297172546

> <CNNaffinity_variance>
0.9145467877

$$$$
[H]c1nc(N([H])[H])c2c(-c3c([H])c([H])c(N([H])C(=O)c4c([H])n(C([H])(C([H])([H])[H])C([H])([H])[H])c(=O)n(-c5nc(C([H])([H])[H])c([H])c([H])c5[H])c4=O)c([H])c3[H])c([H])c(C3([H])C([H])([H])C([H])([H])N(C(=O)C([H])(C([H])([H])[H])C([H])([H])[H])C([H])([H])C3([H])[H])n2n1


 51 56  0  0  0  0  0  0  0  0999 V2000
    2.4634    3.3535   12.3222 C   0  0  0  0  0  0  0  0  0  0  0  0
    2.6970    4.5756   12.9549 C   0  0  0  0  0  0  0  0  0  0  0  0
    3.1992    4.6216   14.2297 C   0  0  0  0  0  0  0  0  0  0  0  0
    3.5066    3.4717   14.9709 C   0  0  0  0  0  0  0  0  0  0  0  0
    3.2709    2.2821   14.3347 C   0  0  0  0  0  0  0  0  0  0  0  0
    2.7555    2.2169   13.0263 C   0  0  0  0  0  0  0  0  0  0  0  0
    0.3721    3.0687    9.3735 C   0  0  0  0  0  0  0  0  0  0  0  0
    0.5287    3.1086   10.7308 C   0  0  0  0  0  0  0  0  0  0  0  0
    1.8875    3.2993   10.9946 C   0  0  0  0  0  0  0  0  0  0  0  0
    2.5461    3.3757    9.7980 C   0  0  0  0  0  0  0  0  0  0  0  0
    3.8620    3.5644    9.4442 C   0  0  0  0  0  0  0  0  0  0  0  0
    4.8660    3.7447   10.4107 N   0  0  0  0  0  0  0  0  0  0  0  0
    4.2060    3.6027    8.1524 N   0  0  0  0  0  0  0  0  0  0  0  0
    3.2568    3.4564    7.2143 C   0  0  0  0  0  0  0  0  0  0  0  0
    1.9739    3.2740    7.5567 N   0  0  0  0  0  0  0  0  0  0  0  0
    1.5912    3.2302    8.8328 N   0  0  0  0  0  0  0  0  0  0  0  0
    4.9275    4.6473   10.9663 H   0  0  0  0  0  0  0  0  0  0  0  0
    5.5945    3.0361   10.6447 H   0  0  0  0  0  0  0  0  0  0  0  0
   -4.4014    2.3840    7.9303 C   0  0  0  0  0  0  0  0  0  0  0  0
   -5.1092    3.4161    8.1956 O   0  0  0  0  0  0  0  0  0  0  0  0
   -3.1036    2.5825    7.4267 N   0  0  0  0  0  0  0  0  0  0  0  0
   -2.2123    1.5079    7.0816 C   0  0  0  0  0  0  0  0  0  0  0  0
   -0.9373    1.5452    7.9201 C   0  0  0  0  0  0  0  0  0  0  0  0
   -0.9001    2.8827    8.6256 C   0  0  0  0  0  0  0  0  0  0  0  0
   -1.0860    3.9593    7.5755 C   0  0  0  0  0  0  0  0  0  0  0  0
   -2.5762    3.9324    7.2241 C   0  0  0  0  0  0  0  0  0  0  0  0
   -4.5804    0.4314    9.4815 C   0  0  0  0  0  0  0  0  0  0  0  0
   -4.9946    1.0693    8.1717 C   0  0  0  0  0  0  0  0  0  0  0  0
   -6.5028    1.1702    8.1873 C   0  0  0  0  0  0  0  0  0  0  0  0
    4.0175    3.5918   16.2835 N   0  0  0  0  0  0  0  0  0  0  0  0
    3.6374    2.9317   17.4377 C   0  0  0  0  0  0  0  0  0  0  0  0
    2.7401    2.0732   17.5422 O   0  0  0  0  0  0  0  0  0  0  0  0
    4.8205    4.3035   16.4011 H   0  0  0  0  0  0  0  0  0  0  0  0
    4.3343    3.2366   18.7114 C   0  0  0  0  0  0  0  0  0  0  0  0
    4.6689    2.2482   19.6102 C   0  0  0  0  0  0  0  0  0  0  0  0
    5.3085    2.5321   20.7765 N   0  0  0  0  0  0  0  0  0  0  0  0
    5.6134    3.8208   21.0393 C   0  0  0  0  0  0  0  0  0  0  0  0
    6.2100    4.1344   22.1141 O   0  0  0  0  0  0  0  0  0  0  0  0
    5.3122    4.8297   20.2001 N   0  0  0  0  0  0  0  0  0  0  0  0
    4.6712    4.5338   19.0345 C   0  0  0  0  0  0  0  0  0  0  0  0
    4.3773    5.4564   18.2312 O   0  0  0  0  0  0  0  0  0  0  0  0
    5.6602    6.1662   20.5348 C   0  0  0  0  0  0  0  0  0  0  0  0
    4.7843    7.0292   21.1630 C   0  0  0  0  0  0  0  0  0  0  0  0
    5.1286    8.3255   21.4849 C   0  0  0  0  0  0  0  0  0  0  0  0
    6.3940    8.7851   21.1707 C   0  0  0  0  0  0  0  0  0  0  0  0
    7.2536    7.9090   20.5439 C   0  0  0  0  0  0  0  0  0  0  0  0
    8.6195    8.3796   20.1958 C   0  0  0  0  0  0  0  0  0  0  0  0
    6.8803    6.6465   20.2447 N   0  0  0  0  0  0  0  0  0  0  0  0
    5.6530    1.4987   21.7043 C   0  0  0  0  0  0  0  0  0  0  0  0
    4.5401    0.4776   21.8158 C   0  0  0  0  0  0  0  0  0  0  0  0
    6.9486    0.8047   21.3961 C   0  0  0  0  0  0  0  0  0  0  0  0
 27 28  1  0  0  0
 28 29  1  0  0  0
 28 19  1  0  0  0
 19 20  2  0  0  0
 19 21  1  0  0  0
 21 22  1  0  0  0
 22 23  1  0  0  0
 23 24  1  0  0  0
 24 25  1  0  0  0
 25 26  1  0  0  0
 24  7  1  0  0  0
  7  8  2  0  0  0
  8  9  1  0  0  0
  9  1  1  0  0  0
  1  2  2  0  0  0
  2  3  1  0  0  0
  3  4  2  0  0  0
  4 30  1  0  0  0
 30 31  1  0  0  0
 31 32  2  0  0  0
 31 34  1  0  0  0
 34 35  2  0  0  0
 35 36  1  0  0  0
 36 49  1  0  0  0
 49 50  1  0  0  0
 49 51  1  0  0  0
 36 37  1  0  0  0
 37 38  2  0  0  0
 37 39  1  0  0  0
 39 42  1  0  0  0
 42 43  2  0  0  0
 43 44  1  0  0  0
 44 45  2  0  0  0
 45 46  1  0  0  0
 46 47  1  0  0  0
 46 48  2  0  0  0
 39 40  1  0  0  0
 40 41  2  0  0  0
  4  5  1  0  0  0
  5  6  2  0  0  0
  9 10  2  0  0  0
 10 11  1  0  0  0
 11 12  1  0  0  0
 11 13  2  0  0  0
 13 14  1  0  0  0
 14 15  2  0  0  0
 15 16  1  0  0  0
 26 21  1  0  0  0
 16  7  1  0  0  0
  6  1  1  0  0  0
 16 10  1  0  0  0
 40 34  1  0  0  0
 48 42  1  0  0  0
 30 33  1  0  0  0
 12 17  1  0  0  0
 12 18  1  0  0  0
M  END
> <minimizedAffinity>
-8.55310

> <CNNscore>
0.1296359450

> <CNNaffinity>
6.9658646584

> <CNN_VS>
0.9030264616

> <CNNaffinity_variance>
1.0053970814

$$$$
[H]c1nc(N([H])[H])c2c(-c3c([H])c([H])c(N([H])C(=O)c4c([H])n(C([H])(C([H])([H])[H])C([H])([H])[H])c(=O)n(-c5nc(C([H])([H])[H])c([H])c([H])c5[H])c4=O)c([H])c3[H])c([H])c(C3([H])C([H])([H])C([H])([H])N(C(=O)C([H])(C([H])([H])[H])C([H])([H])[H])C([H])([H])C3([H])[H])n2n1


 51 56  0  0  0  0  0  0  0  0999 V2000
    3.3476    4.6624   15.4826 C   0  0  0  0  0  0  0  0  0  0  0  0
    2.1220    5.3132   15.3309 C   0  0  0  0  0  0  0  0  0  0  0  0
    1.6145    5.5727   14.0841 C   0  0  0  0  0  0  0  0  0  0  0  0
    2.2746    5.2115   12.9009 C   0  0  0  0  0  0  0  0  0  0  0  0
    3.4752    4.5744   13.0689 C   0  0  0  0  0  0  0  0  0  0  0  0
    4.0108    4.3004   14.3416 C   0  0  0  0  0  0  0  0  0  0  0  0
    5.0262    4.7915   18.6943 C   0  0  0  0  0  0  0  0  0  0  0  0
    4.6130    5.3857   17.5347 C   0  0  0  0  0  0  0  0  0  0  0  0
    3.9105    4.4297   16.7964 C   0  0  0  0  0  0  0  0  0  0  0  0
    3.9001    3.2637   17.5118 C   0  0  0  0  0  0  0  0  0  0  0  0
    3.3613    2.0168   17.2947 C   0  0  0  0  0  0  0  0  0  0  0  0
    2.6228    1.7251   16.1354 N   0  0  0  0  0  0  0  0  0  0  0  0
    3.5161    1.0550   18.2111 N   0  0  0  0  0  0  0  0  0  0  0  0
    4.1981    1.3222   19.3362 C   0  0  0  0  0  0  0  0  0  0  0  0
    4.7226    2.5369   19.5505 N   0  0  0  0  0  0  0  0  0  0  0  0
    4.5898    3.5214   18.6617 N   0  0  0  0  0  0  0  0  0  0  0  0
    1.6492    2.1258   15.9979 H   0  0  0  0  0  0  0  0  0  0  0  0
    2.9609    1.1193   15.3567 H   0  0  0  0  0  0  0  0  0  0  0  0
    8.6051    6.5776   21.7503 C   0  0  0  0  0  0  0  0  0  0  0  0
    9.2033    7.5744   21.2162 O   0  0  0  0  0  0  0  0  0  0  0  0
    7.2095    6.4867   21.6040 N   0  0  0  0  0  0  0  0  0  0  0  0
    6.4197    5.4224   22.1624 C   0  0  0  0  0  0  0  0  0  0  0  0
    5.6969    4.6306   21.0760 C   0  0  0  0  0  0  0  0  0  0  0  0
    5.8099    5.4205   19.7910 C   0  0  0  0  0  0  0  0  0  0  0  0
    5.3290    6.8290   20.0759 C   0  0  0  0  0  0  0  0  0  0  0  0
    6.4668    7.4986   20.8517 C   0  0  0  0  0  0  0  0  0  0  0  0
   10.7673    5.3258   21.8439 C   0  0  0  0  0  0  0  0  0  0  0  0
    9.4184    5.6021   22.4751 C   0  0  0  0  0  0  0  0  0  0  0  0
    9.6806    6.0826   23.8842 C   0  0  0  0  0  0  0  0  0  0  0  0
    1.6957    5.5144   11.6473 N   0  0  0  0  0  0  0  0  0  0  0  0
    1.6475    6.7194   10.9704 C   0  0  0  0  0  0  0  0  0  0  0  0
    2.1241    7.8060   11.3515 O   0  0  0  0  0  0  0  0  0  0  0  0
    1.2218    4.6837   11.1468 H   0  0  0  0  0  0  0  0  0  0  0  0
    0.9719    6.7844    9.6513 C   0  0  0  0  0  0  0  0  0  0  0  0
    1.6456    7.1539    8.5083 C   0  0  0  0  0  0  0  0  0  0  0  0
    1.0224    7.2115    7.3007 N   0  0  0  0  0  0  0  0  0  0  0  0
   -0.2887    6.8945    7.2439 C   0  0  0  0  0  0  0  0  0  0  0  0
   -0.9125    6.9333    6.1400 O   0  0  0  0  0  0  0  0  0  0  0  0
   -0.9999    6.5264    8.3261 N   0  0  0  0  0  0  0  0  0  0  0  0
   -0.3655    6.4722    9.5311 C   0  0  0  0  0  0  0  0  0  0  0  0
   -1.0052    6.1314   10.5594 O   0  0  0  0  0  0  0  0  0  0  0  0
   -2.3785    6.2050    8.2004 C   0  0  0  0  0  0  0  0  0  0  0  0
   -2.8305    4.9095    8.0461 C   0  0  0  0  0  0  0  0  0  0  0  0
   -4.1702    4.6046    7.9244 C   0  0  0  0  0  0  0  0  0  0  0  0
   -5.1002    5.6269    7.9570 C   0  0  0  0  0  0  0  0  0  0  0  0
   -4.6295    6.9130    8.1116 C   0  0  0  0  0  0  0  0  0  0  0  0
   -5.6098    8.0292    8.1496 C   0  0  0  0  0  0  0  0  0  0  0  0
   -3.3097    7.1724    8.2276 N   0  0  0  0  0  0  0  0  0  0  0  0
    1.7305    7.5958    6.1181 C   0  0  0  0  0  0  0  0  0  0  0  0
    1.9589    9.0926    6.0857 C   0  0  0  0  0  0  0  0  0  0  0  0
    3.0362    6.8796    5.9250 C   0  0  0  0  0  0  0  0  0  0  0  0
 27 28  1  0  0  0
 28 29  1  0  0  0
 28 19  1  0  0  0
 19 20  2  0  0  0
 19 21  1  0  0  0
 21 22  1  0  0  0
 22 23  1  0  0  0
 23 24  1  0  0  0
 24 25  1  0  0  0
 25 26  1  0  0  0
 24  7  1  0  0  0
  7  8  2  0  0  0
  8  9  1  0  0  0
  9  1  1  0  0  0
  1  2  2  0  0  0
  2  3  1  0  0  0
  3  4  2  0  0  0
  4 30  1  0  0  0
 30 31  1  0  0  0
 31 32  2  0  0  0
 31 34  1  0  0  0
 34 35  2  0  0  0
 35 36  1  0  0  0
 36 49  1  0  0  0
 49 50  1  0  0  0
 49 51  1  0  0  0
 36 37  1  0  0  0
 37 38  2  0  0  0
 37 39  1  0  0  0
 39 42  1  0  0  0
 42 43  2  0  0  0
 43 44  1  0  0  0
 44 45  2  0  0  0
 45 46  1  0  0  0
 46 47  1  0  0  0
 46 48  2  0  0  0
 39 40  1  0  0  0
 40 41  2  0  0  0
  4  5  1  0  0  0
  5  6  2  0  0  0
  9 10  2  0  0  0
 10 11  1  0  0  0
 11 12  1  0  0  0
 11 13  2  0  0  0
 13 14  1  0  0  0
 14 15  2  0  0  0
 15 16  1  0  0  0
 26 21  1  0  0  0
 16  7  1  0  0  0
  6  1  1  0  0  0
 16 10  1  0  0  0
 40 34  1  0  0  0
 48 42  1  0  0  0
 30 33  1  0  0  0
 12 17  1  0  0  0
 12 18  1  0  0  0
M  END
> <minimizedAffinity>
-9.14721

> <CNNscore>
0.1202465966

> <CNNaffinity>
6.7674307823

> <CNN_VS>
0.8137605190

> <CNNaffinity_variance>
0.6363426447

$$$$
[H]c1nc(N([H])[H])c2c(-c3c([H])c([H])c(N([H])C(=O)c4c([H])n(C([H])(C([H])([H])[H])C([H])([H])[H])c(=O)n(-c5nc(C([H])([H])[H])c([H])c([H])c5[H])c4=O)c([H])c3[H])c([H])c(C3([H])C([H])([H])C([H])([H])N(C(=O)C([H])(C([H])([H])[H])C([H])([H])[H])C([H])([H])C3([H])[H])n2n1


 51 56  0  0  0  0  0  0  0  0999 V2000
    3.0543    7.7431   14.5679 C   0  0  0  0  0  0  0  0  0  0  0  0
    2.4687    8.8139   13.8904 C   0  0  0  0  0  0  0  0  0  0  0  0
    1.5506    8.5977   12.8955 C   0  0  0  0  0  0  0  0  0  0  0  0
    1.1442    7.3161   12.4972 C   0  0  0  0  0  0  0  0  0  0  0  0
    1.7291    6.2780   13.1724 C   0  0  0  0  0  0  0  0  0  0  0  0
    2.6734    6.4823   14.1962 C   0  0  0  0  0  0  0  0  0  0  0  0
    5.0029    8.1387   17.6003 C   0  0  0  0  0  0  0  0  0  0  0  0
    3.8478    7.7937   16.9560 C   0  0  0  0  0  0  0  0  0  0  0  0
    4.0602    7.9652   15.5857 C   0  0  0  0  0  0  0  0  0  0  0  0
    5.3411    8.4108   15.4066 C   0  0  0  0  0  0  0  0  0  0  0  0
    6.0926    8.7332   14.3004 C   0  0  0  0  0  0  0  0  0  0  0  0
    5.5738    8.6213   12.9994 N   0  0  0  0  0  0  0  0  0  0  0  0
    7.3570    9.1425   14.4498 N   0  0  0  0  0  0  0  0  0  0  0  0
    7.8778    9.2325   15.6839 C   0  0  0  0  0  0  0  0  0  0  0  0
    7.1479    8.9174   16.7630 N   0  0  0  0  0  0  0  0  0  0  0  0
    5.8847    8.5054   16.6556 N   0  0  0  0  0  0  0  0  0  0  0  0
    5.4105    7.6681   12.5612 H   0  0  0  0  0  0  0  0  0  0  0  0
    5.3210    9.4312   12.3927 H   0  0  0  0  0  0  0  0  0  0  0  0
    6.9682    8.1875   22.2342 C   0  0  0  0  0  0  0  0  0  0  0  0
    7.4224    9.3480   22.5233 O   0  0  0  0  0  0  0  0  0  0  0  0
    5.7456    8.1078   21.5442 N   0  0  0  0  0  0  0  0  0  0  0  0
    5.1246    6.8662   21.1687 C   0  0  0  0  0  0  0  0  0  0  0  0
    4.9728    6.7502   19.6543 C   0  0  0  0  0  0  0  0  0  0  0  0
    5.2492    8.1164   19.0671 C   0  0  0  0  0  0  0  0  0  0  0  0
    4.3658    9.1126   19.7906 C   0  0  0  0  0  0  0  0  0  0  0  0
    5.0216    9.3198   21.1588 C   0  0  0  0  0  0  0  0  0  0  0  0
    8.7250    6.5298   21.5888 C   0  0  0  0  0  0  0  0  0  0  0  0
    7.7561    7.0252   22.6424 C   0  0  0  0  0  0  0  0  0  0  0  0
    8.5712    7.3511   23.8731 C   0  0  0  0  0  0  0  0  0  0  0  0
    0.1959    7.1654   11.4597 N   0  0  0  0  0  0  0  0  0  0  0  0
    0.2670    6.4013   10.3093 C   0  0  0  0  0  0  0  0  0  0  0  0
    1.2152    5.6732    9.9575 O   0  0  0  0  0  0  0  0  0  0  0  0
   -0.7155    7.7301   11.5841 H   0  0  0  0  0  0  0  0  0  0  0  0
   -0.8731    6.4106    9.3601 C   0  0  0  0  0  0  0  0  0  0  0  0
   -0.7342    6.8531    8.0633 C   0  0  0  0  0  0  0  0  0  0  0  0
   -1.7820    6.8592    7.1961 N   0  0  0  0  0  0  0  0  0  0  0  0
   -2.9783    6.4166    7.6382 C   0  0  0  0  0  0  0  0  0  0  0  0
   -3.9847    6.4032    6.8660 O   0  0  0  0  0  0  0  0  0  0  0  0
   -3.1756    5.9723    8.8938 N   0  0  0  0  0  0  0  0  0  0  0  0
   -2.1188    5.9706    9.7543 C   0  0  0  0  0  0  0  0  0  0  0  0
   -2.2738    5.5610   10.9337 O   0  0  0  0  0  0  0  0  0  0  0  0
   -4.4602    5.5192    9.2985 C   0  0  0  0  0  0  0  0  0  0  0  0
   -5.3675    6.3335    9.9467 C   0  0  0  0  0  0  0  0  0  0  0  0
   -6.6129    5.8871   10.3369 C   0  0  0  0  0  0  0  0  0  0  0  0
   -6.9735    4.5788   10.0734 C   0  0  0  0  0  0  0  0  0  0  0  0
   -6.0545    3.7818    9.4258 C   0  0  0  0  0  0  0  0  0  0  0  0
   -6.4187    2.3715    9.1313 C   0  0  0  0  0  0  0  0  0  0  0  0
   -4.8443    4.2548    9.0590 N   0  0  0  0  0  0  0  0  0  0  0  0
   -1.6283    7.3201    5.8502 C   0  0  0  0  0  0  0  0  0  0  0  0
   -0.9632    8.6803    5.8158 C   0  0  0  0  0  0  0  0  0  0  0  0
   -0.8839    6.3692    4.9575 C   0  0  0  0  0  0  0  0  0  0  0  0
 27 28  1  0  0  0
 28 29  1  0  0  0
 28 19  1  0  0  0
 19 20  2  0  0  0
 19 21  1  0  0  0
 21 22  1  0  0  0
 22 23  1  0  0  0
 23 24  1  0  0  0
 24 25  1  0  0  0
 25 26  1  0  0  0
 24  7  1  0  0  0
  7  8  2  0  0  0
  8  9  1  0  0  0
  9  1  1  0  0  0
  1  2  2  0  0  0
  2  3  1  0  0  0
  3  4  2  0  0  0
  4 30  1  0  0  0
 30 31  1  0  0  0
 31 32  2  0  0  0
 31 34  1  0  0  0
 34 35  2  0  0  0
 35 36  1  0  0  0
 36 49  1  0  0  0
 49 50  1  0  0  0
 49 51  1  0  0  0
 36 37  1  0  0  0
 37 38  2  0  0  0
 37 39  1  0  0  0
 39 42  1  0  0  0
 42 43  2  0  0  0
 43 44  1  0  0  0
 44 45  2  0  0  0
 45 46  1  0  0  0
 46 47  1  0  0  0
 46 48  2  0  0  0
 39 40  1  0  0  0
 40 41  2  0  0  0
  4  5  1  0  0  0
  5  6  2  0  0  0
  9 10  2  0  0  0
 10 11  1  0  0  0
 11 12  1  0  0  0
 11 13  2  0  0  0
 13 14  1  0  0  0
 14 15  2  0  0  0
 15 16  1  0  0  0
 26 21  1  0  0  0
 16  7  1  0  0  0
  6  1  1  0  0  0
 16 10  1  0  0  0
 40 34  1  0  0  0
 48 42  1  0  0  0
 30 33  1  0  0  0
 12 17  1  0  0  0
 12 18  1  0  0  0
M  END
> <minimizedAffinity>
-8.44468

> <CNNscore>
0.1031081378

> <CNNaffinity>
6.2052950859

> <CNN_VS>
0.6398164034

> <CNNaffinity_variance>
0.4564359188

$$$$
[H]c1nc(N([H])[H])c2c(-c3c([H])c([H])c(N([H])C(=O)c4c([H])n(C([H])(C([H])([H])[H])C([H])([H])[H])c(=O)n(-c5nc(C([H])([H])[H])c([H])c([H])c5[H])c4=O)c([H])c3[H])c([H])c(C3([H])C([H])([H])C([H])([H])N(C(=O)C([H])(C([H])([H])[H])C([H])([H])[H])C([H])([H])C3([H])[H])n2n1


 51 56  0  0  0  0  0  0  0  0999 V2000
    3.6692    4.6272   16.3086 C   0  0  0  0  0  0  0  0  0  0  0  0
    4.2748    4.1149   15.1600 C   0  0  0  0  0  0  0  0  0  0  0  0
    3.6147    4.1151   13.9585 C   0  0  0  0  0  0  0  0  0  0  0  0
    2.3152    4.6178   13.8017 C   0  0  0  0  0  0  0  0  0  0  0  0
    1.7367    5.1159   14.9387 C   0  0  0  0  0  0  0  0  0  0  0  0
    2.4002    5.1233   16.1803 C   0  0  0  0  0  0  0  0  0  0  0  0
    5.5567    5.2392   19.3437 C   0  0  0  0  0  0  0  0  0  0  0  0
    5.0101    5.6686   18.1668 C   0  0  0  0  0  0  0  0  0  0  0  0
    4.3437    4.5847   17.5894 C   0  0  0  0  0  0  0  0  0  0  0  0
    4.4881    3.5063   18.4186 C   0  0  0  0  0  0  0  0  0  0  0  0
    4.0477    2.2039   18.3745 C   0  0  0  0  0  0  0  0  0  0  0  0
    3.2563    1.7294   17.3147 N   0  0  0  0  0  0  0  0  0  0  0  0
    4.3526    1.3630   19.3688 N   0  0  0  0  0  0  0  0  0  0  0  0
    5.0876    1.8049   20.4017 C   0  0  0  0  0  0  0  0  0  0  0  0
    5.5165    3.0739   20.4475 N   0  0  0  0  0  0  0  0  0  0  0  0
    5.2333    3.9421   19.4765 N   0  0  0  0  0  0  0  0  0  0  0  0
    2.2438    2.0332   17.2162 H   0  0  0  0  0  0  0  0  0  0  0  0
    3.5898    1.0718   16.5771 H   0  0  0  0  0  0  0  0  0  0  0  0
    9.0851    7.1256   22.3982 C   0  0  0  0  0  0  0  0  0  0  0  0
   10.0773    7.5725   21.7255 O   0  0  0  0  0  0  0  0  0  0  0  0
    7.7895    7.3699   21.9092 N   0  0  0  0  0  0  0  0  0  0  0  0
    6.5931    6.9293   22.5744 C   0  0  0  0  0  0  0  0  0  0  0  0
    5.7854    5.9727   21.7012 C   0  0  0  0  0  0  0  0  0  0  0  0
    6.3586    6.0447   20.3033 C   0  0  0  0  0  0  0  0  0  0  0  0
    6.3991    7.5048   19.9000 C   0  0  0  0  0  0  0  0  0  0  0  0
    7.5856    8.1044   20.6601 C   0  0  0  0  0  0  0  0  0  0  0  0
   10.7096    5.6812   23.6333 C   0  0  0  0  0  0  0  0  0  0  0  0
    9.3713    6.3904   23.6295 C   0  0  0  0  0  0  0  0  0  0  0  0
    9.3663    7.3299   24.8137 C   0  0  0  0  0  0  0  0  0  0  0  0
    1.6913    4.5824   12.5337 N   0  0  0  0  0  0  0  0  0  0  0  0
    1.4929    3.5109   11.6822 C   0  0  0  0  0  0  0  0  0  0  0  0
    1.8384    2.3300   11.8800 O   0  0  0  0  0  0  0  0  0  0  0  0
    1.3165    5.5304   12.1789 H   0  0  0  0  0  0  0  0  0  0  0  0
    0.8038    3.7309   10.3870 C   0  0  0  0  0  0  0  0  0  0  0  0
   -0.3235    3.0224   10.0351 C   0  0  0  0  0  0  0  0  0  0  0  0
   -0.9526    3.2279    8.8469 N   0  0  0  0  0  0  0  0  0  0  0  0
   -0.4426    4.1537    8.0069 C   0  0  0  0  0  0  0  0  0  0  0  0
   -0.9949    4.3805    6.8877 O   0  0  0  0  0  0  0  0  0  0  0  0
    0.6558    4.8769    8.2952 N   0  0  0  0  0  0  0  0  0  0  0  0
    1.2782    4.6628    9.4885 C   0  0  0  0  0  0  0  0  0  0  0  0
    2.3067    5.3242    9.7846 O   0  0  0  0  0  0  0  0  0  0  0  0
    1.1435    5.8370    7.3679 C   0  0  0  0  0  0  0  0  0  0  0  0
    2.1020    5.5378    6.4202 C   0  0  0  0  0  0  0  0  0  0  0  0
    2.5711    6.4747    5.5232 C   0  0  0  0  0  0  0  0  0  0  0  0
    2.0687    7.7619    5.5678 C   0  0  0  0  0  0  0  0  0  0  0  0
    1.1129    8.0410    6.5206 C   0  0  0  0  0  0  0  0  0  0  0  0
    0.5574    9.4176    6.5886 C   0  0  0  0  0  0  0  0  0  0  0  0
    0.6782    7.0968    7.3822 N   0  0  0  0  0  0  0  0  0  0  0  0
   -2.1240    2.4876    8.4899 C   0  0  0  0  0  0  0  0  0  0  0  0
   -1.9423    1.0125    8.7810 C   0  0  0  0  0  0  0  0  0  0  0  0
   -3.3838    2.9814    9.1411 C   0  0  0  0  0  0  0  0  0  0  0  0
 27 28  1  0  0  0
 28 29  1  0  0  0
 28 19  1  0  0  0
 19 20  2  0  0  0
 19 21  1  0  0  0
 21 22  1  0  0  0
 22 23  1  0  0  0
 23 24  1  0  0  0
 24 25  1  0  0  0
 25 26  1  0  0  0
 24  7  1  0  0  0
  7  8  2  0  0  0
  8  9  1  0  0  0
  9  1  1  0  0  0
  1  2  2  0  0  0
  2  3  1  0  0  0
  3  4  2  0  0  0
  4 30  1  0  0  0
 30 31  1  0  0  0
 31 32  2  0  0  0
 31 34  1  0  0  0
 34 35  2  0  0  0
 35 36  1  0  0  0
 36 49  1  0  0  0
 49 50  1  0  0  0
 49 51  1  0  0  0
 36 37  1  0  0  0
 37 38  2  0  0  0
 37 39  1  0  0  0
 39 42  1  0  0  0
 42 43  2  0  0  0
 43 44  1  0  0  0
 44 45  2  0  0  0
 45 46  1  0  0  0
 46 47  1  0  0  0
 46 48  2  0  0  0
 39 40  1  0  0  0
 40 41  2  0  0  0
  4  5  1  0  0  0
  5  6  2  0  0  0
  9 10  2  0  0  0
 10 11  1  0  0  0
 11 12  1  0  0  0
 11 13  2  0  0  0
 13 14  1  0  0  0
 14 15  2  0  0  0
 15 16  1  0  0  0
 26 21  1  0  0  0
 16  7  1  0  0  0
  6  1  1  0  0  0
 16 10  1  0  0  0
 40 34  1  0  0  0
 48 42  1  0  0  0
 30 33  1  0  0  0
 12 17  1  0  0  0
 12 18  1  0  0  0
M  END
> <minimizedAffinity>
-8.18976

> <CNNscore>
0.0998705924

> <CNNaffinity>
6.9439773560

> <CNN_VS>
0.6934991479

> <CNNaffinity_variance>
1.0519952774

$$$$
[H]c1nc(N([H])[H])c2c(-c3c([H])c([H])c(N([H])C(=O)c4c([H])n(C([H])(C([H])([H])[H])C([H])([H])[H])c(=O)n(-c5nc(C([H])([H])[H])c([H])c([H])c5[H])c4=O)c([H])c3[H])c([H])c(C3([H])C([H])([H])C([H])([H])N(C(=O)C([H])(C([H])([H])[H])C([H])([H])[H])C([H])([H])C3([H])[H])n2n1


 51 56  0  0  0  0  0  0  0  0999 V2000
    3.6794    4.2773   16.2797 C   0  0  0  0  0  0  0  0  0  0  0  0
    4.2761    3.6292   15.1970 C   0  0  0  0  0  0  0  0  0  0  0  0
    3.6296    3.5347   13.9919 C   0  0  0  0  0  0  0  0  0  0  0  0
    2.3532    4.0698   13.7665 C   0  0  0  0  0  0  0  0  0  0  0  0
    1.7831    4.7016   14.8395 C   0  0  0  0  0  0  0  0  0  0  0  0
    2.4330    4.8074   16.0838 C   0  0  0  0  0  0  0  0  0  0  0  0
    5.5225    5.1323   19.2832 C   0  0  0  0  0  0  0  0  0  0  0  0
    4.9873    5.4674   18.0709 C   0  0  0  0  0  0  0  0  0  0  0  0
    4.3378    4.3371   17.5681 C   0  0  0  0  0  0  0  0  0  0  0  0
    4.4809    3.3250   18.4774 C   0  0  0  0  0  0  0  0  0  0  0  0
    4.0523    2.0188   18.5254 C   0  0  0  0  0  0  0  0  0  0  0  0
    3.2787    1.4590   17.4946 N   0  0  0  0  0  0  0  0  0  0  0  0
    4.3518    1.2575   19.5834 N   0  0  0  0  0  0  0  0  0  0  0  0
    5.0696    1.7822   20.5893 C   0  0  0  0  0  0  0  0  0  0  0  0
    5.4869    3.0552   20.5453 N   0  0  0  0  0  0  0  0  0  0  0  0
    5.2087    3.8457   19.5087 N   0  0  0  0  0  0  0  0  0  0  0  0
    2.2649    1.7448   17.3614 H   0  0  0  0  0  0  0  0  0  0  0  0
    3.6273    0.7513   16.8123 H   0  0  0  0  0  0  0  0  0  0  0  0
    8.9473    7.2236   22.3222 C   0  0  0  0  0  0  0  0  0  0  0  0
   10.0046    7.5323   21.6715 O   0  0  0  0  0  0  0  0  0  0  0  0
    7.7019    7.4650   21.7154 N   0  0  0  0  0  0  0  0  0  0  0  0
    6.4419    7.1714   22.3434 C   0  0  0  0  0  0  0  0  0  0  0  0
    5.6395    6.1505   21.5410 C   0  0  0  0  0  0  0  0  0  0  0  0
    6.3050    6.0149   20.1895 C   0  0  0  0  0  0  0  0  0  0  0  0
    6.4542    7.4075   19.6111 C   0  0  0  0  0  0  0  0  0  0  0  0
    7.6211    8.0421   20.3731 C   0  0  0  0  0  0  0  0  0  0  0  0
   10.3787    5.8282   23.8239 C   0  0  0  0  0  0  0  0  0  0  0  0
    9.1111    6.6396   23.6528 C   0  0  0  0  0  0  0  0  0  0  0  0
    9.1382    7.7271   24.7024 C   0  0  0  0  0  0  0  0  0  0  0  0
    1.7421    3.9318   12.4992 N   0  0  0  0  0  0  0  0  0  0  0  0
    1.1120    2.8337   11.9430 C   0  0  0  0  0  0  0  0  0  0  0  0
    0.9571    1.7170   12.4741 O   0  0  0  0  0  0  0  0  0  0  0  0
    1.7733    4.8122   11.8754 H   0  0  0  0  0  0  0  0  0  0  0  0
    0.5435    2.9379   10.5766 C   0  0  0  0  0  0  0  0  0  0  0  0
    0.7714    1.9734    9.6203 C   0  0  0  0  0  0  0  0  0  0  0  0
    0.2476    2.0726    8.3690 N   0  0  0  0  0  0  0  0  0  0  0  0
   -0.5113    3.1508    8.0789 C   0  0  0  0  0  0  0  0  0  0  0  0
   -1.0215    3.2868    6.9254 O   0  0  0  0  0  0  0  0  0  0  0  0
   -0.7691    4.1255    8.9712 N   0  0  0  0  0  0  0  0  0  0  0  0
   -0.2391    4.0160   10.2220 C   0  0  0  0  0  0  0  0  0  0  0  0
   -0.4633    4.9118   11.0764 O   0  0  0  0  0  0  0  0  0  0  0  0
   -1.5759    5.2362    8.6039 C   0  0  0  0  0  0  0  0  0  0  0  0
   -1.0627    6.3561    7.9804 C   0  0  0  0  0  0  0  0  0  0  0  0
   -1.8516    7.4308    7.6267 C   0  0  0  0  0  0  0  0  0  0  0  0
   -3.2057    7.3934    7.9029 C   0  0  0  0  0  0  0  0  0  0  0  0
   -3.6989    6.2673    8.5257 C   0  0  0  0  0  0  0  0  0  0  0  0
   -5.1513    6.2032    8.8332 C   0  0  0  0  0  0  0  0  0  0  0  0
   -2.8949    5.2344    8.8568 N   0  0  0  0  0  0  0  0  0  0  0  0
    0.4890    1.0653    7.3818 C   0  0  0  0  0  0  0  0  0  0  0  0
    1.9174    1.1275    6.8823 C   0  0  0  0  0  0  0  0  0  0  0  0
    0.1721   -0.3297    7.8386 C   0  0  0  0  0  0  0  0  0  0  0  0
 27 28  1  0  0  0
 28 29  1  0  0  0
 28 19  1  0  0  0
 19 20  2  0  0  0
 19 21  1  0  0  0
 21 22  1  0  0  0
 22 23  1  0  0  0
 23 24  1  0  0  0
 24 25  1  0  0  0
 25 26  1  0  0  0
 24  7  1  0  0  0
  7  8  2  0  0  0
  8  9  1  0  0  0
  9  1  1  0  0  0
  1  2  2  0  0  0
  2  3  1  0  0  0
  3  4  2  0  0  0
  4 30  1  0  0  0
 30 31  1  0  0  0
 31 32  2  0  0  0
 31 34  1  0  0  0
 34 35  2  0  0  0
 35 36  1  0  0  0
 36 49  1  0  0  0
 49 50  1  0  0  0
 49 51  1  0  0  0
 36 37  1  0  0  0
 37 38  2  0  0  0
 37 39  1  0  0  0
 39 42  1  0  0  0
 42 43  2  0  0  0
 43 44  1  0  0  0
 44 45  2  0  0  0
 45 46  1  0  0  0
 46 47  1  0  0  0
 46 48  2  0  0  0
 39 40  1  0  0  0
 40 41  2  0  0  0
  4  5  1  0  0  0
  5  6  2  0  0  0
  9 10  2  0  0  0
 10 11  1  0  0  0
 11 12  1  0  0  0
 11 13  2  0  0  0
 13 14  1  0  0  0
 14 15  2  0  0  0
 15 16  1  0  0  0
 26 21  1  0  0  0
 16  7  1  0  0  0
  6  1  1  0  0  0
 16 10  1  0  0  0
 40 34  1  0  0  0
 48 42  1  0  0  0
 30 33  1  0  0  0
 12 17  1  0  0  0
 12 18  1  0  0  0
M  END
> <minimizedAffinity>
-8.52369

> <CNNscore>
0.0969208255

> <CNNaffinity>
6.9030466080

> <CNN_VS>
0.6690489650

> <CNNaffinity_variance>
1.0244381428

$$$$
[H]c1nc(N([H])[H])c2c(-c3c([H])c([H])c(N([H])C(=O)c4c([H])n(C([H])(C([H])([H])[H])C([H])([H])[H])c(=O)n(-c5nc(C([H])([H])[H])c([H])c([H])c5[H])c4=O)c([H])c3[H])c([H])c(C3([H])C([H])([H])C([H])([H])N(C(=O)C([H])(C([H])([H])[H])C([H])([H])[H])C([H])([H])C3([H])[H])n2n1


 51 56  0  0  0  0  0  0  0  0999 V2000
    3.1461    4.8754   15.4305 C   0  0  0  0  0  0  0  0  0  0  0  0
    1.8480    5.3871   15.4682 C   0  0  0  0  0  0  0  0  0  0  0  0
    1.0975    5.4829   14.3250 C   0  0  0  0  0  0  0  0  0  0  0  0
    1.5692    5.0832   13.0665 C   0  0  0  0  0  0  0  0  0  0  0  0
    2.8444    4.5841   13.0484 C   0  0  0  0  0  0  0  0  0  0  0  0
    3.6287    4.4790   14.2128 C   0  0  0  0  0  0  0  0  0  0  0  0
    5.4138    5.4260   18.2061 C   0  0  0  0  0  0  0  0  0  0  0  0
    4.7676    5.8625   17.0834 C   0  0  0  0  0  0  0  0  0  0  0  0
    3.9599    4.8176   16.6270 C   0  0  0  0  0  0  0  0  0  0  0  0
    4.1191    3.7558   17.4748 C   0  0  0  0  0  0  0  0  0  0  0  0
    3.5809    2.4911   17.5304 C   0  0  0  0  0  0  0  0  0  0  0  0
    2.6387    2.0494   16.5861 N   0  0  0  0  0  0  0  0  0  0  0  0
    3.9359    1.6583   18.5147 N   0  0  0  0  0  0  0  0  0  0  0  0
    4.8167    2.0712   19.4400 C   0  0  0  0  0  0  0  0  0  0  0  0
    5.3412    3.3036   19.3886 N   0  0  0  0  0  0  0  0  0  0  0  0
    5.0125    4.1626   18.4238 N   0  0  0  0  0  0  0  0  0  0  0  0
    1.6469    2.4284   16.5919 H   0  0  0  0  0  0  0  0  0  0  0  0
    2.8344    1.3465   15.8409 H   0  0  0  0  0  0  0  0  0  0  0  0
    9.1167    6.9481   21.2572 C   0  0  0  0  0  0  0  0  0  0  0  0
   10.2594    6.7660   20.7115 O   0  0  0  0  0  0  0  0  0  0  0  0
    8.0679    7.4290   20.4534 N   0  0  0  0  0  0  0  0  0  0  0  0
    6.7412    7.6832   20.9467 C   0  0  0  0  0  0  0  0  0  0  0  0
    5.7036    6.8157   20.2390 C   0  0  0  0  0  0  0  0  0  0  0  0
    6.3794    6.1939   19.0371 C   0  0  0  0  0  0  0  0  0  0  0  0
    7.0226    7.3134   18.2438 C   0  0  0  0  0  0  0  0  0  0  0  0
    8.2776    7.7013   19.0310 C   0  0  0  0  0  0  0  0  0  0  0  0
   10.0176    5.6666   23.2059 C   0  0  0  0  0  0  0  0  0  0  0  0
    8.9837    6.6410   22.6808 C   0  0  0  0  0  0  0  0  0  0  0  0
    9.1094    7.9034   23.5028 C   0  0  0  0  0  0  0  0  0  0  0  0
    0.7430    5.2144   11.9270 N   0  0  0  0  0  0  0  0  0  0  0  0
    0.3319    6.3583   11.2674 C   0  0  0  0  0  0  0  0  0  0  0  0
    0.6243    7.5330   11.5632 O   0  0  0  0  0  0  0  0  0  0  0  0
    0.3797    4.2861   11.5130 H   0  0  0  0  0  0  0  0  0  0  0  0
   -0.5481    6.2345   10.0795 C   0  0  0  0  0  0  0  0  0  0  0  0
   -0.2091    6.7870    8.8644 C   0  0  0  0  0  0  0  0  0  0  0  0
   -1.0186    6.6705    7.7776 N   0  0  0  0  0  0  0  0  0  0  0  0
   -2.1779    5.9926    7.9157 C   0  0  0  0  0  0  0  0  0  0  0  0
   -2.9653    5.8574    6.9302 O   0  0  0  0  0  0  0  0  0  0  0  0
   -2.5632    5.4310    9.0771 N   0  0  0  0  0  0  0  0  0  0  0  0
   -1.7444    5.5540   10.1596 C   0  0  0  0  0  0  0  0  0  0  0  0
   -2.0788    5.0393   11.2578 O   0  0  0  0  0  0  0  0  0  0  0  0
   -3.7966    4.7300    9.1579 C   0  0  0  0  0  0  0  0  0  0  0  0
   -3.9270    3.4062    8.7876 C   0  0  0  0  0  0  0  0  0  0  0  0
   -5.1274    2.7318    8.8684 C   0  0  0  0  0  0  0  0  0  0  0  0
   -6.2451    3.3978    9.3358 C   0  0  0  0  0  0  0  0  0  0  0  0
   -6.0949    4.7183    9.7003 C   0  0  0  0  0  0  0  0  0  0  0  0
   -7.2818    5.4559   10.2058 C   0  0  0  0  0  0  0  0  0  0  0  0
   -4.9027    5.3451    9.6071 N   0  0  0  0  0  0  0  0  0  0  0  0
   -0.6579    7.2472    6.5187 C   0  0  0  0  0  0  0  0  0  0  0  0
   -0.8889    8.7440    6.5223 C   0  0  0  0  0  0  0  0  0  0  0  0
    0.7510    6.9529    6.0904 C   0  0  0  0  0  0  0  0  0  0  0  0
 27 28  1  0  0  0
 28 29  1  0  0  0
 28 19  1  0  0  0
 19 20  2  0  0  0
 19 21  1  0  0  0
 21 22  1  0  0  0
 22 23  1  0  0  0
 23 24  1  0  0  0
 24 25  1  0  0  0
 25 26  1  0  0  0
 24  7  1  0  0  0
  7  8  2  0  0  0
  8  9  1  0  0  0
  9  1  1  0  0  0
  1  2  2  0  0  0
  2  3  1  0  0  0
  3  4  2  0  0  0
  4 30  1  0  0  0
 30 31  1  0  0  0
 31 32  2  0  0  0
 31 34  1  0  0  0
 34 35  2  0  0  0
 35 36  1  0  0  0
 36 49  1  0  0  0
 49 50  1  0  0  0
 49 51  1  0  0  0
 36 37  1  0  0  0
 37 38  2  0  0  0
 37 39  1  0  0  0
 39 42  1  0  0  0
 42 43  2  0  0  0
 43 44  1  0  0  0
 44 45  2  0  0  0
 45 46  1  0  0  0
 46 47  1  0  0  0
 46 48  2  0  0  0
 39 40  1  0  0  0
 40 41  2  0  0  0
  4  5  1  0  0  0
  5  6  2  0  0  0
  9 10  2  0  0  0
 10 11  1  0  0  0
 11 12  1  0  0  0
 11 13  2  0  0  0
 13 14  1  0  0  0
 14 15  2  0  0  0
 15 16  1  0  0  0
 26 21  1  0  0  0
 16  7  1  0  0  0
  6  1  1  0  0  0
 16 10  1  0  0  0
 40 34  1  0  0  0
 48 42  1  0  0  0
 30 33  1  0  0  0
 12 17  1  0  0  0
 12 18  1  0  0  0
M  END
> <minimizedAffinity>
-8.69751

> <CNNscore>
0.0959025100

> <CNNaffinity>
6.5928983688

> <CNN_VS>
0.6322755218

> <CNNaffinity_variance>
0.5367839932

$$$$
[H]c1nc(N([H])[H])c2c(-c3c([H])c([H])c(N([H])C(=O)c4c([H])n(C([H])(C([H])([H])[H])C([H])([H])[H])c(=O)n(-c5nc(C([H])([H])[H])c([H])c([H])c5[H])c4=O)c([H])c3[H])c([H])c(C3([H])C([H])([H])C([H])([H])N(C(=O)C([H])(C([H])([H])[H])C([H])([H])[H])C([H])([H])C3([H])[H])n2n1


 51 56  0  0  0  0  0  0  0  0999 V2000
    2.9558    5.3676   12.2934 C   0  0  0  0  0  0  0  0  0  0  0  0
    3.0522    4.1842   13.0275 C   0  0  0  0  0  0  0  0  0  0  0  0
    3.4270    4.2044   14.3460 C   0  0  0  0  0  0  0  0  0  0  0  0
    3.7329    5.3870   15.0345 C   0  0  0  0  0  0  0  0  0  0  0  0
    3.6333    6.5378   14.2988 C   0  0  0  0  0  0  0  0  0  0  0  0
    3.2501    6.5349   12.9442 C   0  0  0  0  0  0  0  0  0  0  0  0
    1.3810    5.4761    9.0289 C   0  0  0  0  0  0  0  0  0  0  0  0
    1.3389    5.6456   10.3845 C   0  0  0  0  0  0  0  0  0  0  0  0
    2.6077    5.3468   10.8879 C   0  0  0  0  0  0  0  0  0  0  0  0
    3.4112    5.0001    9.8364 C   0  0  0  0  0  0  0  0  0  0  0  0
    4.7311    4.6283    9.7272 C   0  0  0  0  0  0  0  0  0  0  0  0
    5.5705    4.5527   10.8516 N   0  0  0  0  0  0  0  0  0  0  0  0
    5.2483    4.3515    8.5254 N   0  0  0  0  0  0  0  0  0  0  0  0
    4.4679    4.4418    7.4367 C   0  0  0  0  0  0  0  0  0  0  0  0
    3.1820    4.8053    7.5406 N   0  0  0  0  0  0  0  0  0  0  0  0
    2.6299    5.0894    8.7202 N   0  0  0  0  0  0  0  0  0  0  0  0
    5.9009    5.4347   11.3415 H   0  0  0  0  0  0  0  0  0  0  0  0
    5.9169    3.6629   11.2711 H   0  0  0  0  0  0  0  0  0  0  0  0
   -1.5685    6.7231    5.1451 C   0  0  0  0  0  0  0  0  0  0  0  0
   -1.2421    6.0663    4.0970 O   0  0  0  0  0  0  0  0  0  0  0  0
   -1.5769    6.0441    6.3764 N   0  0  0  0  0  0  0  0  0  0  0  0
   -1.9327    6.6651    7.6238 C   0  0  0  0  0  0  0  0  0  0  0  0
   -0.7756    6.6290    8.6187 C   0  0  0  0  0  0  0  0  0  0  0  0
    0.2638    5.6783    8.0677 C   0  0  0  0  0  0  0  0  0  0  0  0
   -0.4343    4.3715    7.7495 C   0  0  0  0  0  0  0  0  0  0  0  0
   -1.2109    4.6294    6.4551 C   0  0  0  0  0  0  0  0  0  0  0  0
   -0.7135    9.0665    4.9756 C   0  0  0  0  0  0  0  0  0  0  0  0
   -1.9090    8.1364    4.9862 C   0  0  0  0  0  0  0  0  0  0  0  0
   -2.6490    8.3539    3.6862 C   0  0  0  0  0  0  0  0  0  0  0  0
    4.1176    5.3347   16.3938 N   0  0  0  0  0  0  0  0  0  0  0  0
    3.3351    5.1707   17.5222 C   0  0  0  0  0  0  0  0  0  0  0  0
    2.0971    5.0314   17.5549 O   0  0  0  0  0  0  0  0  0  0  0  0
    5.1763    5.4392   16.5765 H   0  0  0  0  0  0  0  0  0  0  0  0
    3.9817    5.1506   18.8573 C   0  0  0  0  0  0  0  0  0  0  0  0
    3.9960    4.0175   19.6398 C   0  0  0  0  0  0  0  0  0  0  0  0
    4.5907    4.0033   20.8630 N   0  0  0  0  0  0  0  0  0  0  0  0
    5.1752    5.1386   21.3011 C   0  0  0  0  0  0  0  0  0  0  0  0
    5.7427    5.1738   22.4351 O   0  0  0  0  0  0  0  0  0  0  0  0
    5.1935    6.2767   20.5819 N   0  0  0  0  0  0  0  0  0  0  0  0
    4.5946    6.2796   19.3578 C   0  0  0  0  0  0  0  0  0  0  0  0
    4.5963    7.3289   18.6636 O   0  0  0  0  0  0  0  0  0  0  0  0
    5.8257    7.4395   21.0994 C   0  0  0  0  0  0  0  0  0  0  0  0
    5.1268    8.4488   21.7312 C   0  0  0  0  0  0  0  0  0  0  0  0
    5.7468    9.5750   22.2311 C   0  0  0  0  0  0  0  0  0  0  0  0
    7.1166    9.7058   22.0988 C   0  0  0  0  0  0  0  0  0  0  0  0
    7.7964    8.6880   21.4652 C   0  0  0  0  0  0  0  0  0  0  0  0
    9.2697    8.8053   21.3106 C   0  0  0  0  0  0  0  0  0  0  0  0
    7.1544    7.6000   20.9887 N   0  0  0  0  0  0  0  0  0  0  0  0
    4.6013    2.8210   21.6690 C   0  0  0  0  0  0  0  0  0  0  0  0
    6.0065    2.2740   21.8100 C   0  0  0  0  0  0  0  0  0  0  0  0
    3.9883    2.9998   23.0282 C   0  0  0  0  0  0  0  0  0  0  0  0
 27 28  1  0  0  0
 28 29  1  0  0  0
 28 19  1  0  0  0
 19 20  2  0  0  0
 19 21  1  0  0  0
 21 22  1  0  0  0
 22 23  1  0  0  0
 23 24  1  0  0  0
 24 25  1  0  0  0
 25 26  1  0  0  0
 24  7  1  0  0  0
  7  8  2  0  0  0
  8  9  1  0  0  0
  9  1  1  0  0  0
  1  2  2  0  0  0
  2  3  1  0  0  0
  3  4  2  0  0  0
  4 30  1  0  0  0
 30 31  1  0  0  0
 31 32  2  0  0  0
 31 34  1  0  0  0
 34 35  2  0  0  0
 35 36  1  0  0  0
 36 49  1  0  0  0
 49 50  1  0  0  0
 49 51  1  0  0  0
 36 37  1  0  0  0
 37 38  2  0  0  0
 37 39  1  0  0  0
 39 42  1  0  0  0
 42 43  2  0  0  0
 43 44  1  0  0  0
 44 45  2  0  0  0
 45 46  1  0  0  0
 46 47  1  0  0  0
 46 48  2  0  0  0
 39 40  1  0  0  0
 40 41  2  0  0  0
  4  5  1  0  0  0
  5  6  2  0  0  0
  9 10  2  0  0  0
 10 11  1  0  0  0
 11 12  1  0  0  0
 11 13  2  0  0  0
 13 14  1  0  0  0
 14 15  2  0  0  0
 15 16  1  0  0  0
 26 21  1  0  0  0
 16  7  1  0  0  0
  6  1  1  0  0  0
 16 10  1  0  0  0
 40 34  1  0  0  0
 48 42  1  0  0  0
 30 33  1  0  0  0
 12 17  1  0  0  0
 12 18  1  0  0  0
M  END
> <minimizedAffinity>
-8.31341

> <CNNscore>
0.0906600803

> <CNNaffinity>
6.6042122841

> <CNN_VS>
0.5987384319

> <CNNaffinity_variance>
1.2901843786

$$$$
[H]c1nc(N([H])[H])c2c(-c3c([H])c([H])c(N([H])C(=O)c4c([H])n(C([H])(C([H])([H])[H])C([H])([H])[H])c(=O)n(-c5nc(C([H])([H])[H])c([H])c([H])c5[H])c4=O)c([H])c3[H])c([H])c(C3([H])C([H])([H])C([H])([H])N(C(=O)C([H])(C([H])([H])[H])C([H])([H])[H])C([H])([H])C3([H])[H])n2n1


 51 56  0  0  0  0  0  0  0  0999 V2000
    3.3764    4.9334   15.8535 C   0  0  0  0  0  0  0  0  0  0  0  0
    3.9717    4.6238   14.6295 C   0  0  0  0  0  0  0  0  0  0  0  0
    3.2888    4.7955   13.4532 C   0  0  0  0  0  0  0  0  0  0  0  0
    1.9751    5.2827   13.3975 C   0  0  0  0  0  0  0  0  0  0  0  0
    1.4071    5.5808   14.6074 C   0  0  0  0  0  0  0  0  0  0  0  0
    2.0941    5.4103   15.8243 C   0  0  0  0  0  0  0  0  0  0  0  0
    5.3662    5.0892   18.8810 C   0  0  0  0  0  0  0  0  0  0  0  0
    4.8197    5.6796   17.7760 C   0  0  0  0  0  0  0  0  0  0  0  0
    4.0762    4.7078   17.1011 C   0  0  0  0  0  0  0  0  0  0  0  0
    4.1743    3.5361   17.8004 C   0  0  0  0  0  0  0  0  0  0  0  0
    3.6554    2.2744   17.6242 C   0  0  0  0  0  0  0  0  0  0  0  0
    2.8129    1.9689   16.5419 N   0  0  0  0  0  0  0  0  0  0  0  0
    3.9318    1.3105   18.5092 N   0  0  0  0  0  0  0  0  0  0  0  0
    4.7154    1.5899   19.5629 C   0  0  0  0  0  0  0  0  0  0  0  0
    5.2209    2.8189   19.7372 N   0  0  0  0  0  0  0  0  0  0  0  0
    4.9684    3.8061   18.8779 N   0  0  0  0  0  0  0  0  0  0  0  0
    1.8185    2.3393   16.5078 H   0  0  0  0  0  0  0  0  0  0  0  0
    3.0892    1.3809   15.7261 H   0  0  0  0  0  0  0  0  0  0  0  0
    9.1666    6.6532   21.7878 C   0  0  0  0  0  0  0  0  0  0  0  0
    9.9582    7.4139   21.1310 O   0  0  0  0  0  0  0  0  0  0  0  0
    7.7832    6.8052   21.5867 N   0  0  0  0  0  0  0  0  0  0  0  0
    6.7902    6.0196   22.2685 C   0  0  0  0  0  0  0  0  0  0  0  0
    5.9472    5.2077   21.2886 C   0  0  0  0  0  0  0  0  0  0  0  0
    6.2368    5.7338   19.9004 C   0  0  0  0  0  0  0  0  0  0  0  0
    6.0353    7.2354   19.9290 C   0  0  0  0  0  0  0  0  0  0  0  0
    7.2672    7.7981   20.6437 C   0  0  0  0  0  0  0  0  0  0  0  0
   11.1190    5.1676   22.2697 C   0  0  0  0  0  0  0  0  0  0  0  0
    9.7596    5.6775   22.7014 C   0  0  0  0  0  0  0  0  0  0  0  0
    9.9316    6.2837   24.0754 C   0  0  0  0  0  0  0  0  0  0  0  0
    1.3280    5.4306   12.1494 N   0  0  0  0  0  0  0  0  0  0  0  0
    0.8708    4.4601   11.2767 C   0  0  0  0  0  0  0  0  0  0  0  0
    0.9444    3.2259   11.4323 O   0  0  0  0  0  0  0  0  0  0  0  0
    1.1691    6.4499   11.8317 H   0  0  0  0  0  0  0  0  0  0  0  0
    0.2174    4.8724   10.0102 C   0  0  0  0  0  0  0  0  0  0  0  0
   -0.9714    4.3165    9.5925 C   0  0  0  0  0  0  0  0  0  0  0  0
   -1.5674    4.6981    8.4310 N   0  0  0  0  0  0  0  0  0  0  0  0
   -0.9617    5.6463    7.6848 C   0  0  0  0  0  0  0  0  0  0  0  0
   -1.4798    6.0346    6.5939 O   0  0  0  0  0  0  0  0  0  0  0  0
    0.2002    6.2258    8.0408 N   0  0  0  0  0  0  0  0  0  0  0  0
    0.7887    5.8359    9.2065 C   0  0  0  0  0  0  0  0  0  0  0  0
    1.8748    6.3603    9.5643 O   0  0  0  0  0  0  0  0  0  0  0  0
    0.7877    7.2188    7.2111 C   0  0  0  0  0  0  0  0  0  0  0  0
    1.7503    6.9256    6.2656 C   0  0  0  0  0  0  0  0  0  0  0  0
    2.3166    7.8944    5.4636 C   0  0  0  0  0  0  0  0  0  0  0  0
    1.9115    9.2086    5.6052 C   0  0  0  0  0  0  0  0  0  0  0  0
    0.9500    9.4811    6.5541 C   0  0  0  0  0  0  0  0  0  0  0  0
    0.4980   10.8864    6.7253 C   0  0  0  0  0  0  0  0  0  0  0  0
    0.4185    8.5053    7.3210 N   0  0  0  0  0  0  0  0  0  0  0  0
   -2.8031    4.1156    8.0050 C   0  0  0  0  0  0  0  0  0  0  0  0
   -2.7798    2.6108    8.1749 C   0  0  0  0  0  0  0  0  0  0  0  0
   -4.0155    4.6837    8.6849 C   0  0  0  0  0  0  0  0  0  0  0  0
 27 28  1  0  0  0
 28 29  1  0  0  0
 28 19  1  0  0  0
 19 20  2  0  0  0
 19 21  1  0  0  0
 21 22  1  0  0  0
 22 23  1  0  0  0
 23 24  1  0  0  0
 24 25  1  0  0  0
 25 26  1  0  0  0
 24  7  1  0  0  0
  7  8  2  0  0  0
  8  9  1  0  0  0
  9  1  1  0  0  0
  1  2  2  0  0  0
  2  3  1  0  0  0
  3  4  2  0  0  0
  4 30  1  0  0  0
 30 31  1  0  0  0
 31 32  2  0  0  0
 31 34  1  0  0  0
 34 35  2  0  0  0
 35 36  1  0  0  0
 36 49  1  0  0  0
 49 50  1  0  0  0
 49 51  1  0  0  0
 36 37  1  0  0  0
 37 38  2  0  0  0
 37 39  1  0  0  0
 39 42  1  0  0  0
 42 43  2  0  0  0
 43 44  1  0  0  0
 44 45  2  0  0  0
 45 46  1  0  0  0
 46 47  1  0  0  0
 46 48  2  0  0  0
 39 40  1  0  0  0
 40 41  2  0  0  0
  4  5  1  0  0  0
  5  6  2  0  0  0
  9 10  2  0  0  0
 10 11  1  0  0  0
 11 12  1  0  0  0
 11 13  2  0  0  0
 13 14  1  0  0  0
 14 15  2  0  0  0
 15 16  1  0  0  0
 26 21  1  0  0  0
 16  7  1  0  0  0
  6  1  1  0  0  0
 16 10  1  0  0  0
 40 34  1  0  0  0
 48 42  1  0  0  0
 30 33  1  0  0  0
 12 17  1  0  0  0
 12 18  1  0  0  0
M  END
> <minimizedAffinity>
-8.68270

> <CNNscore>
0.0755297169

> <CNNaffinity>
6.7122459412

> <CNN_VS>
0.5069740415

> <CNNaffinity_variance>
0.7492039204

$$$$
[H]c1nc(N([H])[H])c(C(=O)N([H])[C@@]2([H])C([H])([H])C([H])([H])C([H])([H])[C@]2([H])OC([H])([H])c2c([H])c([H])c(C#CC([H])([H])C([H])([H])N3C([H])([H])C([H])([H])N(C([H])([H])[H])C([H])([H])C3([H])[H])c([H])c2[H])c([H])c1-c1c([H])nn(C([H])([H])[H])c1[H]


 43 47  0  0  0  0  0  0  0  0999 V2000
    6.9101    7.1277   20.4286 C   0  0  0  0  0  0  0  0  0  0  0  0
    8.3109    7.7181   20.6399 C   0  0  0  0  0  0  0  0  0  0  0  0
    8.9620    6.5439   21.3715 C   0  0  0  0  0  0  0  0  0  0  0  0
    7.8963    6.3360   22.4587 C   0  0  0  0  0  0  0  0  0  0  0  0
    6.5712    6.4316   21.6834 C   0  0  0  0  0  0  0  0  0  0  0  0
    6.2048    5.0269   21.4386 N   0  0  0  0  0  0  0  0  0  0  0  0
    4.9619    4.5144   21.8719 C   0  0  0  0  0  0  0  0  0  0  0  0
    4.1556    5.2858   22.4802 O   0  0  0  0  0  0  0  0  0  0  0  0
    6.8644    4.4032   20.9426 H   0  0  0  0  0  0  0  0  0  0  0  0
    4.5597    3.1474   21.6559 C   0  0  0  0  0  0  0  0  0  0  0  0
    4.1489    2.7180   20.4132 C   0  0  0  0  0  0  0  0  0  0  0  0
    3.7688    1.3774   20.2565 C   0  0  0  0  0  0  0  0  0  0  0  0
    3.8207    0.5442   21.3479 C   0  0  0  0  0  0  0  0  0  0  0  0
    4.2199    0.9534   22.5641 N   0  0  0  0  0  0  0  0  0  0  0  0
    4.5831    2.2421   22.7056 C   0  0  0  0  0  0  0  0  0  0  0  0
    5.0084    2.7077   23.9702 N   0  0  0  0  0  0  0  0  0  0  0  0
    4.3334    3.1080   24.6487 H   0  0  0  0  0  0  0  0  0  0  0  0
    6.0132    2.6454   24.2168 H   0  0  0  0  0  0  0  0  0  0  0  0
    3.3339    0.9218   18.9420 C   0  0  0  0  0  0  0  0  0  0  0  0
    2.6619   -0.2267   18.6342 C   0  0  0  0  0  0  0  0  0  0  0  0
    2.4703   -0.2339   17.3093 N   0  0  0  0  0  0  0  0  0  0  0  0
    2.9862    0.8534   16.7512 N   0  0  0  0  0  0  0  0  0  0  0  0
    2.9987    1.2395   15.3481 C   0  0  0  0  0  0  0  0  0  0  0  0
    3.5285    1.5844   17.7563 C   0  0  0  0  0  0  0  0  0  0  0  0
    6.0266    8.0047   19.9209 O   0  0  0  0  0  0  0  0  0  0  0  0
    4.7008    7.6611   19.9162 C   0  0  0  0  0  0  0  0  0  0  0  0
    3.4103    5.8258   16.3064 C   0  0  0  0  0  0  0  0  0  0  0  0
    4.1962    6.9375   16.2638 C   0  0  0  0  0  0  0  0  0  0  0  0
    4.6157    7.5346   17.4626 C   0  0  0  0  0  0  0  0  0  0  0  0
    4.2477    7.0173   18.6766 C   0  0  0  0  0  0  0  0  0  0  0  0
    3.4589    5.9014   18.7107 C   0  0  0  0  0  0  0  0  0  0  0  0
    3.0379    5.3025   17.5329 C   0  0  0  0  0  0  0  0  0  0  0  0
    2.5951    4.6476   14.0626 C   0  0  0  0  0  0  0  0  0  0  0  0
    2.9641    5.1922   15.0742 C   0  0  0  0  0  0  0  0  0  0  0  0
    2.1509    3.9645   12.8479 C   0  0  0  0  0  0  0  0  0  0  0  0
    0.6731    3.6877   12.9335 C   0  0  0  0  0  0  0  0  0  0  0  0
    0.6948    7.6198   12.9552 C   0  0  0  0  0  0  0  0  0  0  0  0
   -0.2506    6.8750   12.1752 N   0  0  0  0  0  0  0  0  0  0  0  0
    0.2594    6.3754   10.9363 C   0  0  0  0  0  0  0  0  0  0  0  0
    0.7806    4.9750   10.9957 C   0  0  0  0  0  0  0  0  0  0  0  0
   -0.0589    4.0804   11.7680 N   0  0  0  0  0  0  0  0  0  0  0  0
   -1.2971    4.7376   12.0491 C   0  0  0  0  0  0  0  0  0  0  0  0
   -1.0396    5.9455   12.9224 C   0  0  0  0  0  0  0  0  0  0  0  0
 37 38  1  0  0  0
 38 39  1  0  0  0
 39 40  1  0  0  0
 40 41  1  0  0  0
 41 36  1  0  0  0
 36 35  1  0  0  0
 35 33  1  0  0  0
 33 34  3  0  0  0
 34 27  1  0  0  0
 27 28  2  0  0  0
 28 29  1  0  0  0
 29 30  2  0  0  0
 30 26  1  0  0  0
 26 25  1  0  0  0
 25  1  1  0  0  0
  1  2  1  0  0  0
  2  3  1  0  0  0
  3  4  1  0  0  0
  4  5  1  0  0  0
  5  6  1  0  0  0
  6  7  1  0  0  0
  7  8  2  0  0  0
  7 10  1  0  0  0
 10 11  2  0  0  0
 11 12  1  0  0  0
 12 13  2  0  0  0
 13 14  1  0  0  0
 14 15  2  0  0  0
 15 16  1  0  0  0
 12 19  1  0  0  0
 19 20  1  0  0  0
 20 21  2  0  0  0
 21 22  1  0  0  0
 22 23  1  0  0  0
 22 24  1  0  0  0
 30 31  1  0  0  0
 31 32  2  0  0  0
 41 42  1  0  0  0
 42 43  1  0  0  0
 43 38  1  0  0  0
 32 27  1  0  0  0
  5  1  1  0  0  0
 15 10  1  0  0  0
 24 19  2  0  0  0
  6  9  1  0  0  0
 16 17  1  0  0  0
 16 18  1  0  0  0
M  END
> <minimizedAffinity>
-8.65247

> <CNNscore>
0.3853318691

> <CNNaffinity>
7.2067284584

> <CNN_VS>
2.7769820690

> <CNNaffinity_variance>
0.3154308200

$$$$
[H]c1nc(N([H])[H])c(C(=O)N([H])[C@@]2([H])C([H])([H])C([H])([H])C([H])([H])[C@]2([H])OC([H])([H])c2c([H])c([H])c(C#CC([H])([H])C([H])([H])N3C([H])([H])C([H])([H])N(C([H])([H])[H])C([H])([H])C3([H])[H])c([H])c2[H])c([H])c1-c1c([H])nn(C([H])([H])[H])c1[H]


 43 47  0  0  0  0  0  0  0  0999 V2000
    3.9446    2.1501   21.6518 C   0  0  0  0  0  0  0  0  0  0  0  0
    4.0508    1.2539   22.8932 C   0  0  0  0  0  0  0  0  0  0  0  0
    4.6967    2.2493   23.8574 C   0  0  0  0  0  0  0  0  0  0  0  0
    5.8647    2.7011   22.9672 C   0  0  0  0  0  0  0  0  0  0  0  0
    5.2066    2.9102   21.5926 C   0  0  0  0  0  0  0  0  0  0  0  0
    4.9603    4.3606   21.5377 N   0  0  0  0  0  0  0  0  0  0  0  0
    5.1875    5.0914   20.3504 C   0  0  0  0  0  0  0  0  0  0  0  0
    5.6100    4.4780   19.3207 O   0  0  0  0  0  0  0  0  0  0  0  0
    4.6159    4.8551   22.3785 H   0  0  0  0  0  0  0  0  0  0  0  0
    4.9616    6.5111   20.2488 C   0  0  0  0  0  0  0  0  0  0  0  0
    5.6255    7.3944   21.0712 C   0  0  0  0  0  0  0  0  0  0  0  0
    5.3702    8.7661   20.9307 C   0  0  0  0  0  0  0  0  0  0  0  0
    4.4682    9.1760   19.9786 C   0  0  0  0  0  0  0  0  0  0  0  0
    3.8155    8.3223   19.1717 N   0  0  0  0  0  0  0  0  0  0  0  0
    4.0666    7.0072   19.3133 C   0  0  0  0  0  0  0  0  0  0  0  0
    3.3986    6.0802   18.4819 N   0  0  0  0  0  0  0  0  0  0  0  0
    2.4942    5.6594   18.7670 H   0  0  0  0  0  0  0  0  0  0  0  0
    3.8255    5.8210   17.5737 H   0  0  0  0  0  0  0  0  0  0  0  0
    6.0721    9.7018   21.8004 C   0  0  0  0  0  0  0  0  0  0  0  0
    6.4005    9.5368   23.1158 C   0  0  0  0  0  0  0  0  0  0  0  0
    7.0373   10.6463   23.5102 N   0  0  0  0  0  0  0  0  0  0  0  0
    7.1339   11.5157   22.5129 N   0  0  0  0  0  0  0  0  0  0  0  0
    7.7463   12.8358   22.5104 C   0  0  0  0  0  0  0  0  0  0  0  0
    6.5367   10.9414   21.4394 C   0  0  0  0  0  0  0  0  0  0  0  0
    3.5343    1.4982   20.5500 O   0  0  0  0  0  0  0  0  0  0  0  0
    4.4600    1.2144   19.5813 C   0  0  0  0  0  0  0  0  0  0  0  0
    3.0616    1.7353   15.6017 C   0  0  0  0  0  0  0  0  0  0  0  0
    3.9470    2.6220   16.1356 C   0  0  0  0  0  0  0  0  0  0  0  0
    4.4012    2.4394   17.4508 C   0  0  0  0  0  0  0  0  0  0  0  0
    3.9687    1.3826   18.2078 C   0  0  0  0  0  0  0  0  0  0  0  0
    3.0802    0.4972   17.6647 C   0  0  0  0  0  0  0  0  0  0  0  0
    2.6239    0.6671   16.3661 C   0  0  0  0  0  0  0  0  0  0  0  0
    2.1569    2.0458   13.1172 C   0  0  0  0  0  0  0  0  0  0  0  0
    2.5780    1.9075   14.2396 C   0  0  0  0  0  0  0  0  0  0  0  0
    1.6232    2.2059   11.7649 C   0  0  0  0  0  0  0  0  0  0  0  0
    1.3697    3.6645   11.4893 C   0  0  0  0  0  0  0  0  0  0  0  0
    1.0753    7.5589   11.9464 C   0  0  0  0  0  0  0  0  0  0  0  0
   -0.0774    6.7063   11.9797 N   0  0  0  0  0  0  0  0  0  0  0  0
   -0.5654    6.3116   10.6949 C   0  0  0  0  0  0  0  0  0  0  0  0
   -0.0448    4.9976   10.2064 C   0  0  0  0  0  0  0  0  0  0  0  0
   -0.0036    3.9764   11.2345 N   0  0  0  0  0  0  0  0  0  0  0  0
   -0.7188    4.4462   12.3800 C   0  0  0  0  0  0  0  0  0  0  0  0
   -0.0163    5.6581   12.9506 C   0  0  0  0  0  0  0  0  0  0  0  0
 37 38  1  0  0  0
 38 39  1  0  0  0
 39 40  1  0  0  0
 40 41  1  0  0  0
 41 36  1  0  0  0
 36 35  1  0  0  0
 35 33  1  0  0  0
 33 34  3  0  0  0
 34 27  1  0  0  0
 27 28  2  0  0  0
 28 29  1  0  0  0
 29 30  2  0  0  0
 30 26  1  0  0  0
 26 25  1  0  0  0
 25  1  1  0  0  0
  1  2  1  0  0  0
  2  3  1  0  0  0
  3  4  1  0  0  0
  4  5  1  0  0  0
  5  6  1  0  0  0
  6  7  1  0  0  0
  7  8  2  0  0  0
  7 10  1  0  0  0
 10 11  2  0  0  0
 11 12  1  0  0  0
 12 13  2  0  0  0
 13 14  1  0  0  0
 14 15  2  0  0  0
 15 16  1  0  0  0
 12 19  1  0  0  0
 19 20  1  0  0  0
 20 21  2  0  0  0
 21 22  1  0  0  0
 22 23  1  0  0  0
 22 24  1  0  0  0
 30 31  1  0  0  0
 31 32  2  0  0  0
 41 42  1  0  0  0
 42 43  1  0  0  0
 43 38  1  0  0  0
 32 27  1  0  0  0
  5  1  1  0  0  0
 15 10  1  0  0  0
 24 19  2  0  0  0
  6  9  1  0  0  0
 16 17  1  0  0  0
 16 18  1  0  0  0
M  END
> <minimizedAffinity>
-10.08419

> <CNNscore>
0.2540000081

> <CNNaffinity>
6.7452497482

> <CNN_VS>
1.7132934332

> <CNNaffinity_variance>
0.1027711406

$$$$
[H]c1nc(N([H])[H])c(C(=O)N([H])[C@@]2([H])C([H])([H])C([H])([H])C([H])([H])[C@]2([H])OC([H])([H])c2c([H])c([H])c(C#CC([H])([H])C([H])([H])N3C([H])([H])C([H])([H])N(C([H])([H])[H])C([H])([H])C3([H])[H])c([H])c2[H])c([H])c1-c1c([H])nn(C([H])([H])[H])c1[H]


 43 47  0  0  0  0  0  0  0  0999 V2000
    4.0889    2.5204   21.6834 C   0  0  0  0  0  0  0  0  0  0  0  0
    4.0836    1.4299   22.7634 C   0  0  0  0  0  0  0  0  0  0  0  0
    4.7832    2.1963   23.8863 C   0  0  0  0  0  0  0  0  0  0  0  0
    6.0102    2.6813   23.0988 C   0  0  0  0  0  0  0  0  0  0  0  0
    5.4117    3.1663   21.7673 C   0  0  0  0  0  0  0  0  0  0  0  0
    5.2902    4.6225   21.9460 N   0  0  0  0  0  0  0  0  0  0  0  0
    5.5108    5.5075   20.8675 C   0  0  0  0  0  0  0  0  0  0  0  0
    5.8175    5.0291   19.7307 O   0  0  0  0  0  0  0  0  0  0  0  0
    5.0399    5.0069   22.8733 H   0  0  0  0  0  0  0  0  0  0  0  0
    5.4043    6.9392   20.9941 C   0  0  0  0  0  0  0  0  0  0  0  0
    6.1972    7.6324   21.8819 C   0  0  0  0  0  0  0  0  0  0  0  0
    6.0546    9.0249   21.9655 C   0  0  0  0  0  0  0  0  0  0  0  0
    5.1300    9.6438   21.1593 C   0  0  0  0  0  0  0  0  0  0  0  0
    4.3519    8.9765   20.2902 N   0  0  0  0  0  0  0  0  0  0  0  0
    4.4954    7.6399   20.2163 C   0  0  0  0  0  0  0  0  0  0  0  0
    3.6940    6.9053   19.3136 N   0  0  0  0  0  0  0  0  0  0  0  0
    2.7774    6.5165   19.6050 H   0  0  0  0  0  0  0  0  0  0  0  0
    4.0343    6.7563   18.3460 H   0  0  0  0  0  0  0  0  0  0  0  0
    6.8930    9.7596   22.9046 C   0  0  0  0  0  0  0  0  0  0  0  0
    7.3178   11.0543   22.8117 C   0  0  0  0  0  0  0  0  0  0  0  0
    8.0634   11.3082   23.8941 N   0  0  0  0  0  0  0  0  0  0  0  0
    8.1384   10.2404   24.6775 N   0  0  0  0  0  0  0  0  0  0  0  0
    8.8416   10.0850   25.9421 C   0  0  0  0  0  0  0  0  0  0  0  0
    7.4136    9.2659   24.0743 C   0  0  0  0  0  0  0  0  0  0  0  0
    3.6567    2.0933   20.4842 O   0  0  0  0  0  0  0  0  0  0  0  0
    4.5884    1.6931   19.5635 C   0  0  0  0  0  0  0  0  0  0  0  0
    3.2761    1.9519   15.5292 C   0  0  0  0  0  0  0  0  0  0  0  0
    2.9390    0.8726   16.2887 C   0  0  0  0  0  0  0  0  0  0  0  0
    3.3786    0.7986   17.6194 C   0  0  0  0  0  0  0  0  0  0  0  0
    4.1419    1.7951   18.1683 C   0  0  0  0  0  0  0  0  0  0  0  0
    4.4758    2.8748   17.3994 C   0  0  0  0  0  0  0  0  0  0  0  0
    4.0476    2.9593   16.0831 C   0  0  0  0  0  0  0  0  0  0  0  0
    2.4612    2.1477   13.0023 C   0  0  0  0  0  0  0  0  0  0  0  0
    2.8307    2.0471   14.1467 C   0  0  0  0  0  0  0  0  0  0  0  0
    2.0113    2.2952   11.6184 C   0  0  0  0  0  0  0  0  0  0  0  0
    1.6845    3.7391   11.3427 C   0  0  0  0  0  0  0  0  0  0  0  0
    1.1982    7.6077   11.8524 C   0  0  0  0  0  0  0  0  0  0  0  0
    0.0906    6.6973   11.8863 N   0  0  0  0  0  0  0  0  0  0  0  0
   -0.3905    6.2942   10.6015 C   0  0  0  0  0  0  0  0  0  0  0  0
    0.1908    5.0143   10.0912 C   0  0  0  0  0  0  0  0  0  0  0  0
    0.2945    3.9841   11.1058 N   0  0  0  0  0  0  0  0  0  0  0  0
   -0.4313    4.4029   12.2642 C   0  0  0  0  0  0  0  0  0  0  0  0
    0.2150    5.6419   12.8431 C   0  0  0  0  0  0  0  0  0  0  0  0
 37 38  1  0  0  0
 38 39  1  0  0  0
 39 40  1  0  0  0
 40 41  1  0  0  0
 41 36  1  0  0  0
 36 35  1  0  0  0
 35 33  1  0  0  0
 33 34  3  0  0  0
 34 27  1  0  0  0
 27 28  2  0  0  0
 28 29  1  0  0  0
 29 30  2  0  0  0
 30 26  1  0  0  0
 26 25  1  0  0  0
 25  1  1  0  0  0
  1  2  1  0  0  0
  2  3  1  0  0  0
  3  4  1  0  0  0
  4  5  1  0  0  0
  5  6  1  0  0  0
  6  7  1  0  0  0
  7  8  2  0  0  0
  7 10  1  0  0  0
 10 11  2  0  0  0
 11 12  1  0  0  0
 12 13  2  0  0  0
 13 14  1  0  0  0
 14 15  2  0  0  0
 15 16  1  0  0  0
 12 19  1  0  0  0
 19 20  1  0  0  0
 20 21  2  0  0  0
 21 22  1  0  0  0
 22 23  1  0  0  0
 22 24  1  0  0  0
 30 31  1  0  0  0
 31 32  2  0  0  0
 41 42  1  0  0  0
 42 43  1  0  0  0
 43 38  1  0  0  0
 32 27  1  0  0  0
  5  1  1  0  0  0
 15 10  1  0  0  0
 24 19  2  0  0  0
  6  9  1  0  0  0
 16 17  1  0  0  0
 16 18  1  0  0  0
M  END
> <minimizedAffinity>
-9.71821

> <CNNscore>
0.2490051836

> <CNNaffinity>
6.6066741943

> <CNN_VS>
1.6450960636

> <CNNaffinity_variance>
0.1044407040

$$$$
[H]c1nc(N([H])[H])c(C(=O)N([H])[C@@]2([H])C([H])([H])C([H])([H])C([H])([H])[C@]2([H])OC([H])([H])c2c([H])c([H])c(C#CC([H])([H])C([H])([H])N3C([H])([H])C([H])([H])N(C([H])([H])[H])C([H])([H])C3([H])[H])c([H])c2[H])c([H])c1-c1c([H])nn(C([H])([H])[H])c1[H]


 43 47  0  0  0  0  0  0  0  0999 V2000
    2.6394    5.9681   10.0917 C   0  0  0  0  0  0  0  0  0  0  0  0
    3.0990    5.2318    8.8260 C   0  0  0  0  0  0  0  0  0  0  0  0
    1.7809    4.5575    8.4446 C   0  0  0  0  0  0  0  0  0  0  0  0
    1.4583    3.9089    9.7996 C   0  0  0  0  0  0  0  0  0  0  0  0
    1.7640    5.0256   10.8124 C   0  0  0  0  0  0  0  0  0  0  0  0
    0.4456    5.6191   11.0900 N   0  0  0  0  0  0  0  0  0  0  0  0
   -0.2743    5.2762   12.2559 C   0  0  0  0  0  0  0  0  0  0  0  0
    0.2329    4.4427   13.0704 O   0  0  0  0  0  0  0  0  0  0  0  0
    0.0374    6.2974   10.4241 H   0  0  0  0  0  0  0  0  0  0  0  0
   -1.5673    5.8299   12.5698 C   0  0  0  0  0  0  0  0  0  0  0  0
   -2.6735    5.5208   11.8095 C   0  0  0  0  0  0  0  0  0  0  0  0
   -3.9086    6.0857   12.1582 C   0  0  0  0  0  0  0  0  0  0  0  0
   -3.9679    6.9254   13.2443 C   0  0  0  0  0  0  0  0  0  0  0  0
   -2.8946    7.2331   13.9922 N   0  0  0  0  0  0  0  0  0  0  0  0
   -1.7127    6.6863   13.6503 C   0  0  0  0  0  0  0  0  0  0  0  0
   -0.5626    6.9874   14.4141 N   0  0  0  0  0  0  0  0  0  0  0  0
    0.0481    7.7896   14.1696 H   0  0  0  0  0  0  0  0  0  0  0  0
   -0.3315    6.3922   15.2305 H   0  0  0  0  0  0  0  0  0  0  0  0
   -5.0800    5.7594   11.3544 C   0  0  0  0  0  0  0  0  0  0  0  0
   -6.0913    4.8942   11.6613 C   0  0  0  0  0  0  0  0  0  0  0  0
   -6.9525    4.9077   10.6366 N   0  0  0  0  0  0  0  0  0  0  0  0
   -6.5442    5.7389    9.6868 N   0  0  0  0  0  0  0  0  0  0  0  0
   -7.1779    6.0514    8.4146 C   0  0  0  0  0  0  0  0  0  0  0  0
   -5.3776    6.2780   10.1194 C   0  0  0  0  0  0  0  0  0  0  0  0
    3.6417    6.5584   10.7657 O   0  0  0  0  0  0  0  0  0  0  0  0
    3.3859    7.7438   11.4023 C   0  0  0  0  0  0  0  0  0  0  0  0
    4.0494    7.6337   15.5990 C   0  0  0  0  0  0  0  0  0  0  0  0
    3.0976    6.8375   15.0373 C   0  0  0  0  0  0  0  0  0  0  0  0
    2.8878    6.8831   13.6505 C   0  0  0  0  0  0  0  0  0  0  0  0
    3.6253    7.7159   12.8508 C   0  0  0  0  0  0  0  0  0  0  0  0
    4.5785    8.5117   13.4223 C   0  0  0  0  0  0  0  0  0  0  0  0
    4.7951    8.4757   14.7916 C   0  0  0  0  0  0  0  0  0  0  0  0
    4.4853    7.5940   18.2250 C   0  0  0  0  0  0  0  0  0  0  0  0
    4.2819    7.6017   17.0356 C   0  0  0  0  0  0  0  0  0  0  0  0
    4.7463    7.6060   19.6641 C   0  0  0  0  0  0  0  0  0  0  0  0
    4.3167    6.2952   20.2682 C   0  0  0  0  0  0  0  0  0  0  0  0
    3.6379    4.0522   23.4258 C   0  0  0  0  0  0  0  0  0  0  0  0
    4.9043    4.0439   22.7529 N   0  0  0  0  0  0  0  0  0  0  0  0
    4.9452    3.2455   21.5673 C   0  0  0  0  0  0  0  0  0  0  0  0
    4.6754    3.9944   20.3013 C   0  0  0  0  0  0  0  0  0  0  0  0
    5.3312    5.2860   20.2454 N   0  0  0  0  0  0  0  0  0  0  0  0
    6.2684    5.3744   21.3215 C   0  0  0  0  0  0  0  0  0  0  0  0
    5.5281    5.3257   22.6397 C   0  0  0  0  0  0  0  0  0  0  0  0
 37 38  1  0  0  0
 38 39  1  0  0  0
 39 40  1  0  0  0
 40 41  1  0  0  0
 41 36  1  0  0  0
 36 35  1  0  0  0
 35 33  1  0  0  0
 33 34  3  0  0  0
 34 27  1  0  0  0
 27 28  2  0  0  0
 28 29  1  0  0  0
 29 30  2  0  0  0
 30 26  1  0  0  0
 26 25  1  0  0  0
 25  1  1  0  0  0
  1  2  1  0  0  0
  2  3  1  0  0  0
  3  4  1  0  0  0
  4  5  1  0  0  0
  5  6  1  0  0  0
  6  7  1  0  0  0
  7  8  2  0  0  0
  7 10  1  0  0  0
 10 11  2  0  0  0
 11 12  1  0  0  0
 12 13  2  0  0  0
 13 14  1  0  0  0
 14 15  2  0  0  0
 15 16  1  0  0  0
 12 19  1  0  0  0
 19 20  1  0  0  0
 20 21  2  0  0  0
 21 22  1  0  0  0
 22 23  1  0  0  0
 22 24  1  0  0  0
 30 31  1  0  0  0
 31 32  2  0  0  0
 41 42  1  0  0  0
 42 43  1  0  0  0
 43 38  1  0  0  0
 32 27  1  0  0  0
  5  1  1  0  0  0
 15 10  1  0  0  0
 24 19  2  0  0  0
  6  9  1  0  0  0
 16 17  1  0  0  0
 16 18  1  0  0  0
M  END
> <minimizedAffinity>
-7.65399

> <CNNscore>
0.2245113999

> <CNNaffinity>
6.1752533913

> <CNN_VS>
1.3864147663

> <CNNaffinity_variance>
0.2933910191

$$$$
[H]c1nc(N([H])[H])c(C(=O)N([H])[C@@]2([H])C([H])([H])C([H])([H])C([H])([H])[C@]2([H])OC([H])([H])c2c([H])c([H])c(C#CC([H])([H])C([H])([H])N3C([H])([H])C([H])([H])N(C([H])([H])[H])C([H])([H])C3([H])[H])c([H])c2[H])c([H])c1-c1c([H])nn(C([H])([H])[H])c1[H]


 43 47  0  0  0  0  0  0  0  0999 V2000
    4.3474    2.3232   20.7069 C   0  0  0  0  0  0  0  0  0  0  0  0
    3.8583    1.3251   21.7652 C   0  0  0  0  0  0  0  0  0  0  0  0
    3.7062    2.2806   22.9490 C   0  0  0  0  0  0  0  0  0  0  0  0
    5.0976    2.9303   22.8954 C   0  0  0  0  0  0  0  0  0  0  0  0
    5.3057    3.2065   21.3965 C   0  0  0  0  0  0  0  0  0  0  0  0
    4.9374    4.6238   21.2455 N   0  0  0  0  0  0  0  0  0  0  0  0
    5.9153    5.6403   21.3201 C   0  0  0  0  0  0  0  0  0  0  0  0
    7.1276    5.3155   21.5202 O   0  0  0  0  0  0  0  0  0  0  0  0
    3.9492    4.8830   21.0824 H   0  0  0  0  0  0  0  0  0  0  0  0
    5.6029    7.0402   21.1793 C   0  0  0  0  0  0  0  0  0  0  0  0
    4.9993    7.5196   20.0378 C   0  0  0  0  0  0  0  0  0  0  0  0
    4.7158    8.8902   19.9517 C   0  0  0  0  0  0  0  0  0  0  0  0
    5.0509    9.7017   21.0087 C   0  0  0  0  0  0  0  0  0  0  0  0
    5.6399    9.2437   22.1264 N   0  0  0  0  0  0  0  0  0  0  0  0
    5.9085    7.9265   22.2006 C   0  0  0  0  0  0  0  0  0  0  0  0
    6.5273    7.4094   23.3609 N   0  0  0  0  0  0  0  0  0  0  0  0
    7.5602    7.3457   23.4342 H   0  0  0  0  0  0  0  0  0  0  0  0
    5.9329    7.0900   24.1477 H   0  0  0  0  0  0  0  0  0  0  0  0
    4.0771    9.3988   18.7442 C   0  0  0  0  0  0  0  0  0  0  0  0
    3.1097   10.3583   18.6495 C   0  0  0  0  0  0  0  0  0  0  0  0
    2.8209   10.5068   17.3509 N   0  0  0  0  0  0  0  0  0  0  0  0
    3.5551    9.6900   16.6069 N   0  0  0  0  0  0  0  0  0  0  0  0
    3.5584    9.5299   15.1605 C   0  0  0  0  0  0  0  0  0  0  0  0
    4.3438    8.9922   17.4611 C   0  0  0  0  0  0  0  0  0  0  0  0
    4.7220    1.7446   19.5527 O   0  0  0  0  0  0  0  0  0  0  0  0
    3.7936    1.0103   18.8637 C   0  0  0  0  0  0  0  0  0  0  0  0
    3.1829    2.2274   14.8375 C   0  0  0  0  0  0  0  0  0  0  0  0
    2.6049    1.0841   15.3001 C   0  0  0  0  0  0  0  0  0  0  0  0
    2.8142    0.6926   16.6314 C   0  0  0  0  0  0  0  0  0  0  0  0
    3.5911    1.4422   17.4749 C   0  0  0  0  0  0  0  0  0  0  0  0
    4.1676    2.5882   17.0030 C   0  0  0  0  0  0  0  0  0  0  0  0
    3.9683    2.9854   15.6893 C   0  0  0  0  0  0  0  0  0  0  0  0
    2.8252    2.9874   12.3113 C   0  0  0  0  0  0  0  0  0  0  0  0
    2.9787    2.6503   13.4597 C   0  0  0  0  0  0  0  0  0  0  0  0
    2.6594    3.3814   10.9125 C   0  0  0  0  0  0  0  0  0  0  0  0
    3.7946    2.8284   10.0920 C   0  0  0  0  0  0  0  0  0  0  0  0
    4.5793   -1.0190    9.8816 C   0  0  0  0  0  0  0  0  0  0  0  0
    4.4007   -0.2201    8.7040 N   0  0  0  0  0  0  0  0  0  0  0  0
    3.0373    0.0356    8.3571 C   0  0  0  0  0  0  0  0  0  0  0  0
    2.4901    1.3230    8.8855 C   0  0  0  0  0  0  0  0  0  0  0  0
    3.4156    2.4328    8.7698 N   0  0  0  0  0  0  0  0  0  0  0  0
    4.5112    2.0352    7.9417 C   0  0  0  0  0  0  0  0  0  0  0  0
    5.2694    0.9122    8.6140 C   0  0  0  0  0  0  0  0  0  0  0  0
 37 38  1  0  0  0
 38 39  1  0  0  0
 39 40  1  0  0  0
 40 41  1  0  0  0
 41 36  1  0  0  0
 36 35  1  0  0  0
 35 33  1  0  0  0
 33 34  3  0  0  0
 34 27  1  0  0  0
 27 28  2  0  0  0
 28 29  1  0  0  0
 29 30  2  0  0  0
 30 26  1  0  0  0
 26 25  1  0  0  0
 25  1  1  0  0  0
  1  2  1  0  0  0
  2  3  1  0  0  0
  3  4  1  0  0  0
  4  5  1  0  0  0
  5  6  1  0  0  0
  6  7  1  0  0  0
  7  8  2  0  0  0
  7 10  1  0  0  0
 10 11  2  0  0  0
 11 12  1  0  0  0
 12 13  2  0  0  0
 13 14  1  0  0  0
 14 15  2  0  0  0
 15 16  1  0  0  0
 12 19  1  0  0  0
 19 20  1  0  0  0
 20 21  2  0  0  0
 21 22  1  0  0  0
 22 23  1  0  0  0
 22 24  1  0  0  0
 30 31  1  0  0  0
 31 32  2  0  0  0
 41 42  1  0  0  0
 42 43  1  0  0  0
 43 38  1  0  0  0
 32 27  1  0  0  0
  5  1  1  0  0  0
 15 10  1  0  0  0
 24 19  2  0  0  0
  6  9  1  0  0  0
 16 17  1  0  0  0
 16 18  1  0  0  0
M  END
> <minimizedAffinity>
-9.35687

> <CNNscore>
0.2141973525

> <CNNaffinity>
6.5968017578

> <CNN_VS>
1.4130175114

> <CNNaffinity_variance>
0.2414592803

$$$$
[H]c1nc(N([H])[H])c(C(=O)N([H])[C@@]2([H])C([H])([H])C([H])([H])C([H])([H])[C@]2([H])OC([H])([H])c2c([H])c([H])c(C#CC([H])([H])C([H])([H])N3C([H])([H])C([H])([H])N(C([H])([H])[H])C([H])([H])C3([H])[H])c([H])c2[H])c([H])c1-c1c([H])nn(C([H])([H])[H])c1[H]


 43 47  0  0  0  0  0  0  0  0999 V2000
    3.4177    5.1412   12.0210 C   0  0  0  0  0  0  0  0  0  0  0  0
    4.3975    5.1319   10.8397 C   0  0  0  0  0  0  0  0  0  0  0  0
    3.4057    5.3625    9.6992 C   0  0  0  0  0  0  0  0  0  0  0  0
    2.3997    4.2543   10.0467 C   0  0  0  0  0  0  0  0  0  0  0  0
    2.2336    4.3871   11.5702 C   0  0  0  0  0  0  0  0  0  0  0  0
    1.0011    5.1778   11.7220 N   0  0  0  0  0  0  0  0  0  0  0  0
   -0.0485    4.7337   12.5564 C   0  0  0  0  0  0  0  0  0  0  0  0
    0.0838    3.6347   13.1809 O   0  0  0  0  0  0  0  0  0  0  0  0
    0.8986    6.0719   11.2119 H   0  0  0  0  0  0  0  0  0  0  0  0
   -1.2730    5.4723   12.7359 C   0  0  0  0  0  0  0  0  0  0  0  0
   -2.3886    5.1881   11.9797 C   0  0  0  0  0  0  0  0  0  0  0  0
   -3.5552    5.9359   12.1945 C   0  0  0  0  0  0  0  0  0  0  0  0
   -3.5405    6.9229   13.1504 C   0  0  0  0  0  0  0  0  0  0  0  0
   -2.4574    7.2078   13.8932 N   0  0  0  0  0  0  0  0  0  0  0  0
   -1.3417    6.4848   13.6804 C   0  0  0  0  0  0  0  0  0  0  0  0
   -0.1835    6.7566   14.4430 N   0  0  0  0  0  0  0  0  0  0  0  0
    0.5254    7.4397   14.1158 H   0  0  0  0  0  0  0  0  0  0  0  0
   -0.0466    6.2610   15.3430 H   0  0  0  0  0  0  0  0  0  0  0  0
   -4.7365    5.6362   11.3949 C   0  0  0  0  0  0  0  0  0  0  0  0
   -5.7525    4.7735   11.6932 C   0  0  0  0  0  0  0  0  0  0  0  0
   -6.6227    4.8154   10.6769 N   0  0  0  0  0  0  0  0  0  0  0  0
   -6.2157    5.6624    9.7406 N   0  0  0  0  0  0  0  0  0  0  0  0
   -6.8580    6.0062    8.4809 C   0  0  0  0  0  0  0  0  0  0  0  0
   -5.0406    6.1826   10.1735 C   0  0  0  0  0  0  0  0  0  0  0  0
    3.9843    4.8078   13.1937 O   0  0  0  0  0  0  0  0  0  0  0  0
    3.3421    3.8961   13.9888 C   0  0  0  0  0  0  0  0  0  0  0  0
    3.6595    4.6724   18.1555 C   0  0  0  0  0  0  0  0  0  0  0  0
    2.5754    5.1146   17.4594 C   0  0  0  0  0  0  0  0  0  0  0  0
    2.4822    4.8523   16.0840 C   0  0  0  0  0  0  0  0  0  0  0  0
    3.4645    4.1576   15.4286 C   0  0  0  0  0  0  0  0  0  0  0  0
    4.5491    3.7172   16.1343 C   0  0  0  0  0  0  0  0  0  0  0  0
    4.6527    3.9704   17.4939 C   0  0  0  0  0  0  0  0  0  0  0  0
    3.8818    5.1338   20.7680 C   0  0  0  0  0  0  0  0  0  0  0  0
    3.7753    4.9349   19.5825 C   0  0  0  0  0  0  0  0  0  0  0  0
    4.0218    5.3515   22.2075 C   0  0  0  0  0  0  0  0  0  0  0  0
    3.6460    4.0958   22.9491 C   0  0  0  0  0  0  0  0  0  0  0  0
    4.7252    1.3793   20.3188 C   0  0  0  0  0  0  0  0  0  0  0  0
    5.1243    1.2983   21.6939 N   0  0  0  0  0  0  0  0  0  0  0  0
    6.2339    2.1296   22.0436 C   0  0  0  0  0  0  0  0  0  0  0  0
    5.8608    3.4677   22.5973 C   0  0  0  0  0  0  0  0  0  0  0  0
    4.7587    3.4149   23.5376 N   0  0  0  0  0  0  0  0  0  0  0  0
    4.4996    2.0482   23.8681 C   0  0  0  0  0  0  0  0  0  0  0  0
    4.0435    1.3081   22.6304 C   0  0  0  0  0  0  0  0  0  0  0  0
 37 38  1  0  0  0
 38 39  1  0  0  0
 39 40  1  0  0  0
 40 41  1  0  0  0
 41 36  1  0  0  0
 36 35  1  0  0  0
 35 33  1  0  0  0
 33 34  3  0  0  0
 34 27  1  0  0  0
 27 28  2  0  0  0
 28 29  1  0  0  0
 29 30  2  0  0  0
 30 26  1  0  0  0
 26 25  1  0  0  0
 25  1  1  0  0  0
  1  2  1  0  0  0
  2  3  1  0  0  0
  3  4  1  0  0  0
  4  5  1  0  0  0
  5  6  1  0  0  0
  6  7  1  0  0  0
  7  8  2  0  0  0
  7 10  1  0  0  0
 10 11  2  0  0  0
 11 12  1  0  0  0
 12 13  2  0  0  0
 13 14  1  0  0  0
 14 15  2  0  0  0
 15 16  1  0  0  0
 12 19  1  0  0  0
 19 20  1  0  0  0
 20 21  2  0  0  0
 21 22  1  0  0  0
 22 23  1  0  0  0
 22 24  1  0  0  0
 30 31  1  0  0  0
 31 32  2  0  0  0
 41 42  1  0  0  0
 42 43  1  0  0  0
 43 38  1  0  0  0
 32 27  1  0  0  0
  5  1  1  0  0  0
 15 10  1  0  0  0
 24 19  2  0  0  0
  6  9  1  0  0  0
 16 17  1  0  0  0
 16 18  1  0  0  0
M  END
> <minimizedAffinity>
-8.80434

> <CNNscore>
0.2120140046

> <CNNaffinity>
6.2413530350

> <CNN_VS>
1.3232542276

> <CNNaffinity_variance>
0.2290008962

$$$$
[H]c1nc(N([H])[H])c(C(=O)N([H])[C@@]2([H])C([H])([H])C([H])([H])C([H])([H])[C@]2([H])OC([H])([H])c2c([H])c([H])c(C#CC([H])([H])C([H])([H])N3C([H])([H])C([H])([H])N(C([H])([H])[H])C([H])([H])C3([H])[H])c([H])c2[H])c([H])c1-c1c([H])nn(C([H])([H])[H])c1[H]


 43 47  0  0  0  0  0  0  0  0999 V2000
    3.9611    2.3330   21.6106 C   0  0  0  0  0  0  0  0  0  0  0  0
    4.0933    1.4766   22.8774 C   0  0  0  0  0  0  0  0  0  0  0  0
    4.6320    2.5401   23.8348 C   0  0  0  0  0  0  0  0  0  0  0  0
    5.7916    3.0570   22.9692 C   0  0  0  0  0  0  0  0  0  0  0  0
    5.1646    3.1838   21.5703 C   0  0  0  0  0  0  0  0  0  0  0  0
    4.8133    4.6100   21.4704 N   0  0  0  0  0  0  0  0  0  0  0  0
    5.7961    5.5812   21.1767 C   0  0  0  0  0  0  0  0  0  0  0  0
    6.9975    5.2074   20.9975 O   0  0  0  0  0  0  0  0  0  0  0  0
    3.8338    4.9090   21.6166 H   0  0  0  0  0  0  0  0  0  0  0  0
    5.5005    6.9876   21.0694 C   0  0  0  0  0  0  0  0  0  0  0  0
    4.9100    7.5027   19.9365 C   0  0  0  0  0  0  0  0  0  0  0  0
    4.6427    8.8782   19.8834 C   0  0  0  0  0  0  0  0  0  0  0  0
    4.9798    9.6588   20.9629 C   0  0  0  0  0  0  0  0  0  0  0  0
    5.5560    9.1660   22.0724 N   0  0  0  0  0  0  0  0  0  0  0  0
    5.8091    7.8443   22.1149 C   0  0  0  0  0  0  0  0  0  0  0  0
    6.4142    7.2909   23.2657 N   0  0  0  0  0  0  0  0  0  0  0  0
    7.4458    7.2135   23.3440 H   0  0  0  0  0  0  0  0  0  0  0  0
    5.8109    6.9585   24.0402 H   0  0  0  0  0  0  0  0  0  0  0  0
    4.0179    9.4245   18.6852 C   0  0  0  0  0  0  0  0  0  0  0  0
    3.0294   10.3640   18.6106 C   0  0  0  0  0  0  0  0  0  0  0  0
    2.7653   10.5631   17.3134 N   0  0  0  0  0  0  0  0  0  0  0  0
    3.5354    9.7977   16.5513 N   0  0  0  0  0  0  0  0  0  0  0  0
    3.5740    9.7020   15.0997 C   0  0  0  0  0  0  0  0  0  0  0  0
    4.3224    9.0816   17.3919 C   0  0  0  0  0  0  0  0  0  0  0  0
    3.6361    1.6264   20.5140 O   0  0  0  0  0  0  0  0  0  0  0  0
    4.6000    1.4257   19.5620 C   0  0  0  0  0  0  0  0  0  0  0  0
    3.2105    1.8466   15.5675 C   0  0  0  0  0  0  0  0  0  0  0  0
    2.8413    0.7648   16.3081 C   0  0  0  0  0  0  0  0  0  0  0  0
    3.3068    0.6369   17.6259 C   0  0  0  0  0  0  0  0  0  0  0  0
    4.1274    1.5833   18.1807 C   0  0  0  0  0  0  0  0  0  0  0  0
    4.4933    2.6660   17.4308 C   0  0  0  0  0  0  0  0  0  0  0  0
    4.0399    2.8034   16.1274 C   0  0  0  0  0  0  0  0  0  0  0  0
    2.3287    2.1281   13.0714 C   0  0  0  0  0  0  0  0  0  0  0  0
    2.7390    1.9972   14.1986 C   0  0  0  0  0  0  0  0  0  0  0  0
    1.8077    2.2918   11.7145 C   0  0  0  0  0  0  0  0  0  0  0  0
    1.6866    3.7576   11.3914 C   0  0  0  0  0  0  0  0  0  0  0  0
    1.5599    7.4955   12.6058 C   0  0  0  0  0  0  0  0  0  0  0  0
    0.3671    6.7193   12.4280 N   0  0  0  0  0  0  0  0  0  0  0  0
   -0.0806    6.6141   11.0741 C   0  0  0  0  0  0  0  0  0  0  0  0
    0.3977    5.3952   10.3518 C   0  0  0  0  0  0  0  0  0  0  0  0
    0.3428    4.1905   11.1563 N   0  0  0  0  0  0  0  0  0  0  0  0
   -0.4000    4.4644   12.3468 C   0  0  0  0  0  0  0  0  0  0  0  0
    0.3335    5.4984   13.1718 C   0  0  0  0  0  0  0  0  0  0  0  0
 37 38  1  0  0  0
 38 39  1  0  0  0
 39 40  1  0  0  0
 40 41  1  0  0  0
 41 36  1  0  0  0
 36 35  1  0  0  0
 35 33  1  0  0  0
 33 34  3  0  0  0
 34 27  1  0  0  0
 27 28  2  0  0  0
 28 29  1  0  0  0
 29 30  2  0  0  0
 30 26  1  0  0  0
 26 25  1  0  0  0
 25  1  1  0  0  0
  1  2  1  0  0  0
  2  3  1  0  0  0
  3  4  1  0  0  0
  4  5  1  0  0  0
  5  6  1  0  0  0
  6  7  1  0  0  0
  7  8  2  0  0  0
  7 10  1  0  0  0
 10 11  2  0  0  0
 11 12  1  0  0  0
 12 13  2  0  0  0
 13 14  1  0  0  0
 14 15  2  0  0  0
 15 16  1  0  0  0
 12 19  1  0  0  0
 19 20  1  0  0  0
 20 21  2  0  0  0
 21 22  1  0  0  0
 22 23  1  0  0  0
 22 24  1  0  0  0
 30 31  1  0  0  0
 31 32  2  0  0  0
 41 42  1  0  0  0
 42 43  1  0  0  0
 43 38  1  0  0  0
 32 27  1  0  0  0
  5  1  1  0  0  0
 15 10  1  0  0  0
 24 19  2  0  0  0
  6  9  1  0  0  0
 16 17  1  0  0  0
 16 18  1  0  0  0
M  END
> <minimizedAffinity>
-10.01435

> <CNNscore>
0.2107108384

> <CNNaffinity>
6.6984915733

> <CNN_VS>
1.4114447832

> <CNNaffinity_variance>
0.3380186558

$$$$
[H]c1nc(N([H])[H])c(C(=O)N([H])[C@@]2([H])C([H])([H])C([H])([H])C([H])([H])[C@]2([H])OC([H])([H])c2c([H])c([H])c(C#CC([H])([H])C([H])([H])N3C([H])([H])C([H])([H])N(C([H])([H])[H])C([H])([H])C3([H])[H])c([H])c2[H])c([H])c1-c1c([H])nn(C([H])([H])[H])c1[H]


 43 47  0  0  0  0  0  0  0  0999 V2000
    4.3259    2.9738   21.4718 C   0  0  0  0  0  0  0  0  0  0  0  0
    3.9247    1.6873   22.2062 C   0  0  0  0  0  0  0  0  0  0  0  0
    4.5287    1.9915   23.5774 C   0  0  0  0  0  0  0  0  0  0  0  0
    5.9475    2.3661   23.1215 C   0  0  0  0  0  0  0  0  0  0  0  0
    5.7037    3.2728   21.9030 C   0  0  0  0  0  0  0  0  0  0  0  0
    5.8136    4.6349   22.4506 N   0  0  0  0  0  0  0  0  0  0  0  0
    6.0612    5.7395   21.6058 C   0  0  0  0  0  0  0  0  0  0  0  0
    6.1887    5.5434   20.3565 O   0  0  0  0  0  0  0  0  0  0  0  0
    5.7086    4.7893   23.4681 H   0  0  0  0  0  0  0  0  0  0  0  0
    6.1774    7.0900   22.0953 C   0  0  0  0  0  0  0  0  0  0  0  0
    7.1063    7.4166   23.0585 C   0  0  0  0  0  0  0  0  0  0  0  0
    7.1790    8.7456   23.4999 C   0  0  0  0  0  0  0  0  0  0  0  0
    6.3212    9.6704   22.9549 C   0  0  0  0  0  0  0  0  0  0  0  0
    5.4117    9.3619   22.0149 N   0  0  0  0  0  0  0  0  0  0  0  0
    5.3488    8.0836   21.5970 C   0  0  0  0  0  0  0  0  0  0  0  0
    4.4045    7.7226   20.6097 N   0  0  0  0  0  0  0  0  0  0  0  0
    3.4545    7.3972   20.8703 H   0  0  0  0  0  0  0  0  0  0  0  0
    4.6727    7.7861   19.6105 H   0  0  0  0  0  0  0  0  0  0  0  0
    8.1616    9.0924   24.5191 C   0  0  0  0  0  0  0  0  0  0  0  0
    8.6929   10.3220   24.7857 C   0  0  0  0  0  0  0  0  0  0  0  0
    9.5523   10.1736   25.8012 N   0  0  0  0  0  0  0  0  0  0  0  0
    9.5991    8.9093   26.2000 N   0  0  0  0  0  0  0  0  0  0  0  0
   10.3953    8.3182   27.2651 C   0  0  0  0  0  0  0  0  0  0  0  0
    8.7372    8.2221   25.4102 C   0  0  0  0  0  0  0  0  0  0  0  0
    4.0552    2.9494   20.1551 O   0  0  0  0  0  0  0  0  0  0  0  0
    4.3764    1.8218   19.4473 C   0  0  0  0  0  0  0  0  0  0  0  0
    3.1946    1.8953   15.3653 C   0  0  0  0  0  0  0  0  0  0  0  0
    2.8339    0.8508   16.1616 C   0  0  0  0  0  0  0  0  0  0  0  0
    3.2304    0.8378   17.5077 C   0  0  0  0  0  0  0  0  0  0  0  0
    3.9751    1.8597   18.0353 C   0  0  0  0  0  0  0  0  0  0  0  0
    4.3329    2.9043   17.2295 C   0  0  0  0  0  0  0  0  0  0  0  0
    3.9472    2.9283   15.8977 C   0  0  0  0  0  0  0  0  0  0  0  0
    2.4412    1.9567   12.8127 C   0  0  0  0  0  0  0  0  0  0  0  0
    2.7939    1.9271   13.9663 C   0  0  0  0  0  0  0  0  0  0  0  0
    1.9891    1.9945   11.4222 C   0  0  0  0  0  0  0  0  0  0  0  0
    3.1485    1.7102   10.5042 C   0  0  0  0  0  0  0  0  0  0  0  0
    6.5750    0.8234    8.7910 C   0  0  0  0  0  0  0  0  0  0  0  0
    5.3267    0.6808    8.0994 N   0  0  0  0  0  0  0  0  0  0  0  0
    4.6001   -0.5088    8.4180 C   0  0  0  0  0  0  0  0  0  0  0  0
    3.5791   -0.3456    9.4985 C   0  0  0  0  0  0  0  0  0  0  0  0
    2.8138    0.8805    9.3871 N   0  0  0  0  0  0  0  0  0  0  0  0
    3.0803    1.4766    8.1152 C   0  0  0  0  0  0  0  0  0  0  0  0
    4.5383    1.8724    8.0398 C   0  0  0  0  0  0  0  0  0  0  0  0
 37 38  1  0  0  0
 38 39  1  0  0  0
 39 40  1  0  0  0
 40 41  1  0  0  0
 41 36  1  0  0  0
 36 35  1  0  0  0
 35 33  1  0  0  0
 33 34  3  0  0  0
 34 27  1  0  0  0
 27 28  2  0  0  0
 28 29  1  0  0  0
 29 30  2  0  0  0
 30 26  1  0  0  0
 26 25  1  0  0  0
 25  1  1  0  0  0
  1  2  1  0  0  0
  2  3  1  0  0  0
  3  4  1  0  0  0
  4  5  1  0  0  0
  5  6  1  0  0  0
  6  7  1  0  0  0
  7  8  2  0  0  0
  7 10  1  0  0  0
 10 11  2  0  0  0
 11 12  1  0  0  0
 12 13  2  0  0  0
 13 14  1  0  0  0
 14 15  2  0  0  0
 15 16  1  0  0  0
 12 19  1  0  0  0
 19 20  1  0  0  0
 20 21  2  0  0  0
 21 22  1  0  0  0
 22 23  1  0  0  0
 22 24  1  0  0  0
 30 31  1  0  0  0
 31 32  2  0  0  0
 41 42  1  0  0  0
 42 43  1  0  0  0
 43 38  1  0  0  0
 32 27  1  0  0  0
  5  1  1  0  0  0
 15 10  1  0  0  0
 24 19  2  0  0  0
  6  9  1  0  0  0
 16 17  1  0  0  0
 16 18  1  0  0  0
M  END
> <minimizedAffinity>
-9.33574

> <CNNscore>
0.2027541846

> <CNNaffinity>
6.2883338928

> <CNN_VS>
1.2749860287

> <CNNaffinity_variance>
0.1946124136

$$$$
[H]c1nc(N([H])[H])c(C(=O)N([H])[C@@]2([H])C([H])([H])C([H])([H])C([H])([H])[C@]2([H])OC([H])([H])c2c([H])c([H])c(C#CC([H])([H])C([H])([H])N3C([H])([H])C([H])([H])N(C([H])([H])[H])C([H])([H])C3([H])[H])c([H])c2[H])c([H])c1-c1c([H])nn(C([H])([H])[H])c1[H]


 43 47  0  0  0  0  0  0  0  0999 V2000
    4.5132    2.3676   20.6994 C   0  0  0  0  0  0  0  0  0  0  0  0
    4.0446    1.3521   21.7504 C   0  0  0  0  0  0  0  0  0  0  0  0
    3.9415    2.2828   22.9590 C   0  0  0  0  0  0  0  0  0  0  0  0
    5.3387    2.9169   22.8759 C   0  0  0  0  0  0  0  0  0  0  0  0
    5.5035    3.2238   21.3776 C   0  0  0  0  0  0  0  0  0  0  0  0
    5.1486    4.6484   21.2693 N   0  0  0  0  0  0  0  0  0  0  0  0
    6.1230    5.6553   21.4483 C   0  0  0  0  0  0  0  0  0  0  0  0
    7.3202    5.3153   21.7055 O   0  0  0  0  0  0  0  0  0  0  0  0
    4.1727    4.9199   21.0593 H   0  0  0  0  0  0  0  0  0  0  0  0
    5.8232    7.0617   21.3526 C   0  0  0  0  0  0  0  0  0  0  0  0
    5.2331    7.5847   20.2232 C   0  0  0  0  0  0  0  0  0  0  0  0
    4.9616    8.9598   20.1815 C   0  0  0  0  0  0  0  0  0  0  0  0
    5.2945    9.7322   21.2681 C   0  0  0  0  0  0  0  0  0  0  0  0
    5.8704    9.2315   22.3743 N   0  0  0  0  0  0  0  0  0  0  0  0
    6.1275    7.9103   22.4059 C   0  0  0  0  0  0  0  0  0  0  0  0
    6.7324    7.3489   23.5529 N   0  0  0  0  0  0  0  0  0  0  0  0
    7.7641    7.2740   23.6323 H   0  0  0  0  0  0  0  0  0  0  0  0
    6.1289    7.0081   24.3236 H   0  0  0  0  0  0  0  0  0  0  0  0
    4.3372    9.5145   18.9869 C   0  0  0  0  0  0  0  0  0  0  0  0
    4.2283    8.9368   17.7541 C   0  0  0  0  0  0  0  0  0  0  0  0
    3.5824    9.8025   16.9635 N   0  0  0  0  0  0  0  0  0  0  0  0
    3.2710   10.9078   17.6277 N   0  0  0  0  0  0  0  0  0  0  0  0
    2.5726   12.0920   17.1505 C   0  0  0  0  0  0  0  0  0  0  0  0
    3.7350   10.7437   18.8913 C   0  0  0  0  0  0  0  0  0  0  0  0
    4.8443    1.8103   19.5216 O   0  0  0  0  0  0  0  0  0  0  0  0
    3.8697    1.1551   18.8168 C   0  0  0  0  0  0  0  0  0  0  0  0
    3.3513    2.4944   14.8166 C   0  0  0  0  0  0  0  0  0  0  0  0
    2.7728    1.3318   15.2275 C   0  0  0  0  0  0  0  0  0  0  0  0
    2.9515    0.8999   16.5508 C   0  0  0  0  0  0  0  0  0  0  0  0
    3.6989    1.6292   17.4376 C   0  0  0  0  0  0  0  0  0  0  0  0
    4.2761    2.7949   17.0174 C   0  0  0  0  0  0  0  0  0  0  0  0
    4.1068    3.2320   15.7122 C   0  0  0  0  0  0  0  0  0  0  0  0
    3.0140    3.3455   12.3167 C   0  0  0  0  0  0  0  0  0  0  0  0
    3.1786    2.9591   13.4480 C   0  0  0  0  0  0  0  0  0  0  0  0
    2.7888    3.8129   10.9492 C   0  0  0  0  0  0  0  0  0  0  0  0
    3.4286    5.1634   10.7632 C   0  0  0  0  0  0  0  0  0  0  0  0
    5.2603    8.1221    8.9321 C   0  0  0  0  0  0  0  0  0  0  0  0
    5.9736    7.1836    9.7490 N   0  0  0  0  0  0  0  0  0  0  0  0
    5.8935    7.4336   11.1546 C   0  0  0  0  0  0  0  0  0  0  0  0
    4.8077    6.6858   11.8603 C   0  0  0  0  0  0  0  0  0  0  0  0
    4.6860    5.3064   11.4315 N   0  0  0  0  0  0  0  0  0  0  0  0
    5.8183    4.9726   10.6248 C   0  0  0  0  0  0  0  0  0  0  0  0
    5.8080    5.8150    9.3686 C   0  0  0  0  0  0  0  0  0  0  0  0
 37 38  1  0  0  0
 38 39  1  0  0  0
 39 40  1  0  0  0
 40 41  1  0  0  0
 41 36  1  0  0  0
 36 35  1  0  0  0
 35 33  1  0  0  0
 33 34  3  0  0  0
 34 27  1  0  0  0
 27 28  2  0  0  0
 28 29  1  0  0  0
 29 30  2  0  0  0
 30 26  1  0  0  0
 26 25  1  0  0  0
 25  1  1  0  0  0
  1  2  1  0  0  0
  2  3  1  0  0  0
  3  4  1  0  0  0
  4  5  1  0  0  0
  5  6  1  0  0  0
  6  7  1  0  0  0
  7  8  2  0  0  0
  7 10  1  0  0  0
 10 11  2  0  0  0
 11 12  1  0  0  0
 12 13  2  0  0  0
 13 14  1  0  0  0
 14 15  2  0  0  0
 15 16  1  0  0  0
 12 19  1  0  0  0
 19 20  1  0  0  0
 20 21  2  0  0  0
 21 22  1  0  0  0
 22 23  1  0  0  0
 22 24  1  0  0  0
 30 31  1  0  0  0
 31 32  2  0  0  0
 41 42  1  0  0  0
 42 43  1  0  0  0
 43 38  1  0  0  0
 32 27  1  0  0  0
  5  1  1  0  0  0
 15 10  1  0  0  0
 24 19  2  0  0  0
  6  9  1  0  0  0
 16 17  1  0  0  0
 16 18  1  0  0  0
M  END
> <minimizedAffinity>
-9.31563

> <CNNscore>
0.1982030571

> <CNNaffinity>
6.7785539627

> <CNN_VS>
1.3435300589

> <CNNaffinity_variance>
0.1479274929

$$$$
[H]O[C@]1([H])C([H])([H])C([H])([H])[C@@]([H])(N([H])C([H])([H])c2c([H])c([H])c([H])c(-c3c([H])nc(N([H])[H])c(C(=O)N([H])[C@@]4([H])C([H])([H])C([H])([H])C([H])([H])[C@]4([H])OC([H])([H])c4c([H])c([H])c(C([H])([H])[H])c(C([H])([H])[H])c4[H])c3[H])c2[H])C([H])([H])C1([H])[H]


 45 49  0  0  0  0  0  0  0  0999 V2000
    3.5327    2.3569   17.0384 C   0  0  0  0  0  0  0  0  0  0  0  0
    4.1144    2.7487   18.2236 C   0  0  0  0  0  0  0  0  0  0  0  0
    4.0886    1.9152   19.3123 C   0  0  0  0  0  0  0  0  0  0  0  0
    3.4761    0.6925   19.1956 C   0  0  0  0  0  0  0  0  0  0  0  0
    2.9054    0.3056   18.0352 N   0  0  0  0  0  0  0  0  0  0  0  0
    2.9246    1.1169   16.9586 C   0  0  0  0  0  0  0  0  0  0  0  0
    2.3188    0.6980   15.7366 N   0  0  0  0  0  0  0  0  0  0  0  0
    1.3086    0.8541   15.5377 H   0  0  0  0  0  0  0  0  0  0  0  0
    2.8853    0.2207   15.0084 H   0  0  0  0  0  0  0  0  0  0  0  0
    4.7162    2.3694   20.5438 C   0  0  0  0  0  0  0  0  0  0  0  0
    5.6290    1.5346   21.1526 C   0  0  0  0  0  0  0  0  0  0  0  0
    6.2717    1.9080   22.3305 C   0  0  0  0  0  0  0  0  0  0  0  0
    5.9740    3.1525   22.8896 C   0  0  0  0  0  0  0  0  0  0  0  0
    5.0653    4.0011   22.2975 C   0  0  0  0  0  0  0  0  0  0  0  0
    4.4626    3.5707   21.1305 C   0  0  0  0  0  0  0  0  0  0  0  0
    4.7314    5.3327   22.8632 C   0  0  0  0  0  0  0  0  0  0  0  0
    4.3447    6.2404   21.8301 N   0  0  0  0  0  0  0  0  0  0  0  0
    3.5155    6.8033   22.0407 H   0  0  0  0  0  0  0  0  0  0  0  0
    5.4284    7.0424   21.3091 C   0  0  0  0  0  0  0  0  0  0  0  0
    5.9508    6.6138   19.9933 C   0  0  0  0  0  0  0  0  0  0  0  0
    5.4734    7.4536   18.8318 C   0  0  0  0  0  0  0  0  0  0  0  0
    4.1168    8.0263   19.1904 C   0  0  0  0  0  0  0  0  0  0  0  0
    3.5837    8.6181   18.0478 O   0  0  0  0  0  0  0  0  0  0  0  0
    4.4021    9.0992   20.2429 C   0  0  0  0  0  0  0  0  0  0  0  0
    5.0216    8.4740   21.4352 C   0  0  0  0  0  0  0  0  0  0  0  0
    2.6939    8.1924   17.9034 H   0  0  0  0  0  0  0  0  0  0  0  0
    2.4364    3.3393   14.9630 N   0  0  0  0  0  0  0  0  0  0  0  0
    3.5327    3.2122   15.8574 C   0  0  0  0  0  0  0  0  0  0  0  0
    4.5751    3.8828   15.6144 O   0  0  0  0  0  0  0  0  0  0  0  0
    1.5812    2.7869   15.1643 H   0  0  0  0  0  0  0  0  0  0  0  0
    1.0964    4.4826   13.3281 C   0  0  0  0  0  0  0  0  0  0  0  0
    0.6927    3.1395   12.7619 C   0  0  0  0  0  0  0  0  0  0  0  0
    1.9242    2.7425   11.9767 C   0  0  0  0  0  0  0  0  0  0  0  0
    3.0888    3.4373   12.6469 C   0  0  0  0  0  0  0  0  0  0  0  0
    2.5018    4.2025   13.8118 C   0  0  0  0  0  0  0  0  0  0  0  0
    1.0617    5.3945   12.2779 O   0  0  0  0  0  0  0  0  0  0  0  0
   -0.2357    5.6673   11.8613 C   0  0  0  0  0  0  0  0  0  0  0  0
   -0.0749    7.5042    6.3870 C   0  0  0  0  0  0  0  0  0  0  0  0
   -0.1278    7.0270    7.8007 C   0  0  0  0  0  0  0  0  0  0  0  0
   -1.2980    6.5836    8.3566 C   0  0  0  0  0  0  0  0  0  0  0  0
   -1.3118    6.1558    9.6473 C   0  0  0  0  0  0  0  0  0  0  0  0
   -0.1686    6.1442   10.4553 C   0  0  0  0  0  0  0  0  0  0  0  0
    0.9824    6.5971    9.8573 C   0  0  0  0  0  0  0  0  0  0  0  0
    1.0295    7.0379    8.5495 C   0  0  0  0  0  0  0  0  0  0  0  0
    2.2991    7.5278    7.9186 C   0  0  0  0  0  0  0  0  0  0  0  0
 38 39  1  0  0  0
 39 40  2  0  0  0
 40 41  1  0  0  0
 41 42  2  0  0  0
 42 37  1  0  0  0
 37 36  1  0  0  0
 36 31  1  0  0  0
 31 32  1  0  0  0
 32 33  1  0  0  0
 33 34  1  0  0  0
 34 35  1  0  0  0
 35 27  1  0  0  0
 27 28  1  0  0  0
 28 29  2  0  0  0
 28  1  1  0  0  0
  1  2  2  0  0  0
  2  3  1  0  0  0
  3  4  2  0  0  0
  4  5  1  0  0  0
  5  6  2  0  0  0
  6  7  1  0  0  0
  3 10  1  0  0  0
 10 11  2  0  0  0
 11 12  1  0  0  0
 12 13  2  0  0  0
 13 14  1  0  0  0
 14 16  1  0  0  0
 16 17  1  0  0  0
 17 19  1  0  0  0
 19 20  1  0  0  0
 20 21  1  0  0  0
 21 22  1  0  0  0
 22 23  1  0  0  0
 22 24  1  0  0  0
 24 25  1  0  0  0
 14 15  2  0  0  0
 42 43  1  0  0  0
 43 44  2  0  0  0
 44 45  1  0  0  0
 44 39  1  0  0  0
 35 31  1  0  0  0
  6  1  1  0  0  0
 15 10  1  0  0  0
 25 19  1  0  0  0
 27 30  1  0  0  0
  7  8  1  0  0  0
  7  9  1  0  0  0
 17 18  1  0  0  0
 23 26  1  0  0  0
M  END
> <minimizedAffinity>
-9.46608

> <CNNscore>
0.6403656602

> <CNNaffinity>
7.0592331886

> <CNN_VS>
4.5204906464

> <CNNaffinity_variance>
0.4631151259

$$$$
[H]O[C@]1([H])C([H])([H])C([H])([H])[C@@]([H])(N([H])C([H])([H])c2c([H])c([H])c([H])c(-c3c([H])nc(N([H])[H])c(C(=O)N([H])[C@@]4([H])C([H])([H])C([H])([H])C([H])([H])[C@]4([H])OC([H])([H])c4c([H])c([H])c(C([H])([H])[H])c(C([H])([H])[H])c4[H])c3[H])c2[H])C([H])([H])C1([H])[H]


 45 49  0  0  0  0  0  0  0  0999 V2000
    3.1128    3.2373   16.9468 C   0  0  0  0  0  0  0  0  0  0  0  0
    3.8577    3.4106   18.0920 C   0  0  0  0  0  0  0  0  0  0  0  0
    4.2416    2.3237   18.8351 C   0  0  0  0  0  0  0  0  0  0  0  0
    3.8708    1.0706   18.4156 C   0  0  0  0  0  0  0  0  0  0  0  0
    3.1410    0.8977   17.2934 N   0  0  0  0  0  0  0  0  0  0  0  0
    2.7579    1.9588   16.5552 C   0  0  0  0  0  0  0  0  0  0  0  0
    1.9870    1.7649   15.3704 N   0  0  0  0  0  0  0  0  0  0  0  0
    0.9475    1.7060   15.3898 H   0  0  0  0  0  0  0  0  0  0  0  0
    2.4576    1.6777   14.4484 H   0  0  0  0  0  0  0  0  0  0  0  0
    5.0284    2.5531   20.0371 C   0  0  0  0  0  0  0  0  0  0  0  0
    5.4736    1.4540   20.7403 C   0  0  0  0  0  0  0  0  0  0  0  0
    6.2363    1.6001   21.8965 C   0  0  0  0  0  0  0  0  0  0  0  0
    6.5456    2.8891   22.3358 C   0  0  0  0  0  0  0  0  0  0  0  0
    6.1107    4.0001   21.6480 C   0  0  0  0  0  0  0  0  0  0  0  0
    5.3579    3.7863   20.5087 C   0  0  0  0  0  0  0  0  0  0  0  0
    6.4273    5.3833   22.0851 C   0  0  0  0  0  0  0  0  0  0  0  0
    5.3908    6.2874   21.6987 N   0  0  0  0  0  0  0  0  0  0  0  0
    4.8539    6.6831   22.4758 H   0  0  0  0  0  0  0  0  0  0  0  0
    5.8081    7.2995   20.7551 C   0  0  0  0  0  0  0  0  0  0  0  0
    4.9091    8.4695   20.6502 C   0  0  0  0  0  0  0  0  0  0  0  0
    5.4008    9.6982   21.3788 C   0  0  0  0  0  0  0  0  0  0  0  0
    6.2607    9.2442   22.5413 C   0  0  0  0  0  0  0  0  0  0  0  0
    6.5351   10.3563   23.3338 O   0  0  0  0  0  0  0  0  0  0  0  0
    7.5540    8.7315   21.9049 C   0  0  0  0  0  0  0  0  0  0  0  0
    7.2507    7.5837   21.0178 C   0  0  0  0  0  0  0  0  0  0  0  0
    6.2290   10.1245   24.2538 H   0  0  0  0  0  0  0  0  0  0  0  0
    3.3106    4.7641   14.9208 N   0  0  0  0  0  0  0  0  0  0  0  0
    2.6791    4.3640   16.1288 C   0  0  0  0  0  0  0  0  0  0  0  0
    1.6774    5.0265   16.5203 O   0  0  0  0  0  0  0  0  0  0  0  0
    4.1336    4.2187   14.6015 H   0  0  0  0  0  0  0  0  0  0  0  0
    1.8115    5.4030   13.1544 C   0  0  0  0  0  0  0  0  0  0  0  0
    2.6797    4.6384   12.1801 C   0  0  0  0  0  0  0  0  0  0  0  0
    3.8502    5.5791   11.9915 C   0  0  0  0  0  0  0  0  0  0  0  0
    3.9408    6.3934   13.2632 C   0  0  0  0  0  0  0  0  0  0  0  0
    2.8318    5.8892   14.1594 C   0  0  0  0  0  0  0  0  0  0  0  0
    1.2200    6.4427   12.4438 O   0  0  0  0  0  0  0  0  0  0  0  0
    0.0064    6.8336   12.9966 C   0  0  0  0  0  0  0  0  0  0  0  0
   -4.1220    5.1165    9.3394 C   0  0  0  0  0  0  0  0  0  0  0  0
   -3.0473    5.5602   10.2759 C   0  0  0  0  0  0  0  0  0  0  0  0
   -1.7597    5.7383    9.8451 C   0  0  0  0  0  0  0  0  0  0  0  0
   -0.8044    6.1432   10.7242 C   0  0  0  0  0  0  0  0  0  0  0  0
   -1.0732    6.3931   12.0752 C   0  0  0  0  0  0  0  0  0  0  0  0
   -2.3771    6.2019   12.4636 C   0  0  0  0  0  0  0  0  0  0  0  0
   -3.3699    5.7917   11.5960 C   0  0  0  0  0  0  0  0  0  0  0  0
   -4.7871    5.5901   12.0441 C   0  0  0  0  0  0  0  0  0  0  0  0
 38 39  1  0  0  0
 39 40  2  0  0  0
 40 41  1  0  0  0
 41 42  2  0  0  0
 42 37  1  0  0  0
 37 36  1  0  0  0
 36 31  1  0  0  0
 31 32  1  0  0  0
 32 33  1  0  0  0
 33 34  1  0  0  0
 34 35  1  0  0  0
 35 27  1  0  0  0
 27 28  1  0  0  0
 28 29  2  0  0  0
 28  1  1  0  0  0
  1  2  2  0  0  0
  2  3  1  0  0  0
  3  4  2  0  0  0
  4  5  1  0  0  0
  5  6  2  0  0  0
  6  7  1  0  0  0
  3 10  1  0  0  0
 10 11  2  0  0  0
 11 12  1  0  0  0
 12 13  2  0  0  0
 13 14  1  0  0  0
 14 16  1  0  0  0
 16 17  1  0  0  0
 17 19  1  0  0  0
 19 20  1  0  0  0
 20 21  1  0  0  0
 21 22  1  0  0  0
 22 23  1  0  0  0
 22 24  1  0  0  0
 24 25  1  0  0  0
 14 15  2  0  0  0
 42 43  1  0  0  0
 43 44  2  0  0  0
 44 45  1  0  0  0
 44 39  1  0  0  0
 35 31  1  0  0  0
  6  1  1  0  0  0
 15 10  1  0  0  0
 25 19  1  0  0  0
 27 30  1  0  0  0
  7  8  1  0  0  0
  7  9  1  0  0  0
 17 18  1  0  0  0
 23 26  1  0  0  0
M  END
> <minimizedAffinity>
-9.85000

> <CNNscore>
0.5575851202

> <CNNaffinity>
7.1242613792

> <CNN_VS>
3.9723820686

> <CNNaffinity_variance>
0.4956918657

$$$$
[H]O[C@]1([H])C([H])([H])C([H])([H])[C@@]([H])(N([H])C([H])([H])c2c([H])c([H])c([H])c(-c3c([H])nc(N([H])[H])c(C(=O)N([H])[C@@]4([H])C([H])([H])C([H])([H])C([H])([H])[C@]4([H])OC([H])([H])c4c([H])c([H])c(C([H])([H])[H])c(C([H])([H])[H])c4[H])c3[H])c2[H])C([H])([H])C1([H])[H]


 45 49  0  0  0  0  0  0  0  0999 V2000
    3.3970    2.1190   16.9348 C   0  0  0  0  0  0  0  0  0  0  0  0
    4.1172    2.6920   17.9592 C   0  0  0  0  0  0  0  0  0  0  0  0
    4.2595    2.0334   19.1537 C   0  0  0  0  0  0  0  0  0  0  0  0
    3.6739    0.8012   19.3041 C   0  0  0  0  0  0  0  0  0  0  0  0
    2.9677    0.2370   18.3018 N   0  0  0  0  0  0  0  0  0  0  0  0
    2.8211    0.8753   17.1234 C   0  0  0  0  0  0  0  0  0  0  0  0
    2.0730    0.2698   16.0702 N   0  0  0  0  0  0  0  0  0  0  0  0
    1.0412    0.3839   15.9875 H   0  0  0  0  0  0  0  0  0  0  0  0
    2.5531   -0.3071   15.3519 H   0  0  0  0  0  0  0  0  0  0  0  0
    5.0294    2.6756   20.2080 C   0  0  0  0  0  0  0  0  0  0  0  0
    5.7271    1.8709   21.0834 C   0  0  0  0  0  0  0  0  0  0  0  0
    6.4892    2.4186   22.1125 C   0  0  0  0  0  0  0  0  0  0  0  0
    6.5356    3.8080   22.2445 C   0  0  0  0  0  0  0  0  0  0  0  0
    5.8459    4.6295   21.3808 C   0  0  0  0  0  0  0  0  0  0  0  0
    5.1085    4.0230   20.3813 C   0  0  0  0  0  0  0  0  0  0  0  0
    5.8792    6.1099   21.4903 C   0  0  0  0  0  0  0  0  0  0  0  0
    6.2086    6.5130   22.8206 N   0  0  0  0  0  0  0  0  0  0  0  0
    6.1102    5.7799   23.5287 H   0  0  0  0  0  0  0  0  0  0  0  0
    7.4685    7.2124   22.9335 C   0  0  0  0  0  0  0  0  0  0  0  0
    8.0848    7.6078   21.6482 C   0  0  0  0  0  0  0  0  0  0  0  0
    7.9104    9.0671   21.2984 C   0  0  0  0  0  0  0  0  0  0  0  0
    6.6299    9.5568   21.9447 C   0  0  0  0  0  0  0  0  0  0  0  0
    6.3580   10.8303   21.4504 O   0  0  0  0  0  0  0  0  0  0  0  0
    6.9435    9.6390   23.4398 C   0  0  0  0  0  0  0  0  0  0  0  0
    7.2879    8.2911   23.9506 C   0  0  0  0  0  0  0  0  0  0  0  0
    5.4379   10.7899   21.0687 H   0  0  0  0  0  0  0  0  0  0  0  0
    2.6709    4.0872   15.4948 N   0  0  0  0  0  0  0  0  0  0  0  0
    3.2164    2.7848   15.6501 C   0  0  0  0  0  0  0  0  0  0  0  0
    3.5677    2.1626   14.6084 O   0  0  0  0  0  0  0  0  0  0  0  0
    2.3824    4.5962   16.3520 H   0  0  0  0  0  0  0  0  0  0  0  0
    3.7870    5.4341   13.8468 C   0  0  0  0  0  0  0  0  0  0  0  0
    3.7287    6.6032   14.8047 C   0  0  0  0  0  0  0  0  0  0  0  0
    2.2852    7.0417   14.6834 C   0  0  0  0  0  0  0  0  0  0  0  0
    1.5068    5.8093   14.2788 C   0  0  0  0  0  0  0  0  0  0  0  0
    2.5182    4.6880   14.1947 C   0  0  0  0  0  0  0  0  0  0  0  0
    3.7644    5.9608   12.5593 O   0  0  0  0  0  0  0  0  0  0  0  0
    4.6363    5.2973   11.7045 C   0  0  0  0  0  0  0  0  0  0  0  0
    1.4443    2.3749    7.8785 C   0  0  0  0  0  0  0  0  0  0  0  0
    2.2677    3.1399    8.8612 C   0  0  0  0  0  0  0  0  0  0  0  0
    2.5136    4.4765    8.6927 C   0  0  0  0  0  0  0  0  0  0  0  0
    3.2677    5.1438    9.6065 C   0  0  0  0  0  0  0  0  0  0  0  0
    3.8179    4.5238   10.7347 C   0  0  0  0  0  0  0  0  0  0  0  0
    3.5460    3.1833   10.8640 C   0  0  0  0  0  0  0  0  0  0  0  0
    2.7840    2.4773    9.9542 C   0  0  0  0  0  0  0  0  0  0  0  0
    2.5008    1.0134   10.1173 C   0  0  0  0  0  0  0  0  0  0  0  0
 38 39  1  0  0  0
 39 40  2  0  0  0
 40 41  1  0  0  0
 41 42  2  0  0  0
 42 37  1  0  0  0
 37 36  1  0  0  0
 36 31  1  0  0  0
 31 32  1  0  0  0
 32 33  1  0  0  0
 33 34  1  0  0  0
 34 35  1  0  0  0
 35 27  1  0  0  0
 27 28  1  0  0  0
 28 29  2  0  0  0
 28  1  1  0  0  0
  1  2  2  0  0  0
  2  3  1  0  0  0
  3  4  2  0  0  0
  4  5  1  0  0  0
  5  6  2  0  0  0
  6  7  1  0  0  0
  3 10  1  0  0  0
 10 11  2  0  0  0
 11 12  1  0  0  0
 12 13  2  0  0  0
 13 14  1  0  0  0
 14 16  1  0  0  0
 16 17  1  0  0  0
 17 19  1  0  0  0
 19 20  1  0  0  0
 20 21  1  0  0  0
 21 22  1  0  0  0
 22 23  1  0  0  0
 22 24  1  0  0  0
 24 25  1  0  0  0
 14 15  2  0  0  0
 42 43  1  0  0  0
 43 44  2  0  0  0
 44 45  1  0  0  0
 44 39  1  0  0  0
 35 31  1  0  0  0
  6  1  1  0  0  0
 15 10  1  0  0  0
 25 19  1  0  0  0
 27 30  1  0  0  0
  7  8  1  0  0  0
  7  9  1  0  0  0
 17 18  1  0  0  0
 23 26  1  0  0  0
M  END
> <minimizedAffinity>
-8.45389

> <CNNscore>
0.5489690900

> <CNNaffinity>
6.9753317833

> <CNN_VS>
3.8292415142

> <CNNaffinity_variance>
0.2563164830

$$$$
[H]O[C@]1([H])C([H])([H])C([H])([H])[C@@]([H])(N([H])C([H])([H])c2c([H])c([H])c([H])c(-c3c([H])nc(N([H])[H])c(C(=O)N([H])[C@@]4([H])C([H])([H])C([H])([H])C([H])([H])[C@]4([H])OC([H])([H])c4c([H])c([H])c(C([H])([H])[H])c(C([H])([H])[H])c4[H])c3[H])c2[H])C([H])([H])C1([H])[H]


 45 49  0  0  0  0  0  0  0  0999 V2000
    3.6796    1.4021   18.5459 C   0  0  0  0  0  0  0  0  0  0  0  0
    4.3391    2.4473   19.1532 C   0  0  0  0  0  0  0  0  0  0  0  0
    4.4308    2.5026   20.5205 C   0  0  0  0  0  0  0  0  0  0  0  0
    3.8563    1.5018   21.2635 C   0  0  0  0  0  0  0  0  0  0  0  0
    3.2095    0.4759   20.6710 N   0  0  0  0  0  0  0  0  0  0  0  0
    3.1130    0.4114   19.3278 C   0  0  0  0  0  0  0  0  0  0  0  0
    2.4275   -0.6776   18.7115 N   0  0  0  0  0  0  0  0  0  0  0  0
    1.3996   -0.6617   18.5453 H   0  0  0  0  0  0  0  0  0  0  0  0
    2.9513   -1.5228   18.4110 H   0  0  0  0  0  0  0  0  0  0  0  0
    5.1375    3.6244   21.1196 C   0  0  0  0  0  0  0  0  0  0  0  0
    6.2431    3.3535   21.8974 C   0  0  0  0  0  0  0  0  0  0  0  0
    6.9701    4.3793   22.4967 C   0  0  0  0  0  0  0  0  0  0  0  0
    6.5575    5.6980   22.2952 C   0  0  0  0  0  0  0  0  0  0  0  0
    5.4559    5.9901   21.5220 C   0  0  0  0  0  0  0  0  0  0  0  0
    4.7784    4.9266   20.9558 C   0  0  0  0  0  0  0  0  0  0  0  0
    4.9949    7.3812   21.2833 C   0  0  0  0  0  0  0  0  0  0  0  0
    4.2120    7.4589   20.0910 N   0  0  0  0  0  0  0  0  0  0  0  0
    3.2729    7.8471   20.2180 H   0  0  0  0  0  0  0  0  0  0  0  0
    4.8995    8.0550   18.9680 C   0  0  0  0  0  0  0  0  0  0  0  0
    6.3173    7.6606   18.8181 C   0  0  0  0  0  0  0  0  0  0  0  0
    6.5647    6.6280   17.7436 C   0  0  0  0  0  0  0  0  0  0  0  0
    5.3103    5.7900   17.5975 C   0  0  0  0  0  0  0  0  0  0  0  0
    5.6077    4.7109   16.7685 O   0  0  0  0  0  0  0  0  0  0  0  0
    4.2963    6.7060   16.9096 C   0  0  0  0  0  0  0  0  0  0  0  0
    4.0251    7.8821   17.7695 C   0  0  0  0  0  0  0  0  0  0  0  0
    5.3688    3.8910   17.2827 H   0  0  0  0  0  0  0  0  0  0  0  0
    3.5194    2.4232   16.2207 N   0  0  0  0  0  0  0  0  0  0  0  0
    3.5540    1.3051   17.0963 C   0  0  0  0  0  0  0  0  0  0  0  0
    3.4704    0.1522   16.5870 O   0  0  0  0  0  0  0  0  0  0  0  0
    3.5876    3.3694   16.6415 H   0  0  0  0  0  0  0  0  0  0  0  0
    3.7238    3.5691   14.1182 C   0  0  0  0  0  0  0  0  0  0  0  0
    2.5344    4.4219   14.5001 C   0  0  0  0  0  0  0  0  0  0  0  0
    1.3764    3.4767   14.2626 C   0  0  0  0  0  0  0  0  0  0  0  0
    1.9326    2.0814   14.4417 C   0  0  0  0  0  0  0  0  0  0  0  0
    3.3923    2.2581   14.7955 C   0  0  0  0  0  0  0  0  0  0  0  0
    3.7260    3.4712   12.7304 O   0  0  0  0  0  0  0  0  0  0  0  0
    4.1001    4.6622   12.1199 C   0  0  0  0  0  0  0  0  0  0  0  0
   -0.3121    6.5499    8.9047 C   0  0  0  0  0  0  0  0  0  0  0  0
    0.8313    6.0730    9.7379 C   0  0  0  0  0  0  0  0  0  0  0  0
    1.6942    6.9558   10.3306 C   0  0  0  0  0  0  0  0  0  0  0  0
    2.7258    6.4883   11.0832 C   0  0  0  0  0  0  0  0  0  0  0  0
    2.9575    5.1230   11.2888 C   0  0  0  0  0  0  0  0  0  0  0  0
    2.0681    4.2738   10.6762 C   0  0  0  0  0  0  0  0  0  0  0  0
    1.0109    4.7166    9.9061 C   0  0  0  0  0  0  0  0  0  0  0  0
    0.0527    3.7692    9.2472 C   0  0  0  0  0  0  0  0  0  0  0  0
 38 39  1  0  0  0
 39 40  2  0  0  0
 40 41  1  0  0  0
 41 42  2  0  0  0
 42 37  1  0  0  0
 37 36  1  0  0  0
 36 31  1  0  0  0
 31 32  1  0  0  0
 32 33  1  0  0  0
 33 34  1  0  0  0
 34 35  1  0  0  0
 35 27  1  0  0  0
 27 28  1  0  0  0
 28 29  2  0  0  0
 28  1  1  0  0  0
  1  2  2  0  0  0
  2  3  1  0  0  0
  3  4  2  0  0  0
  4  5  1  0  0  0
  5  6  2  0  0  0
  6  7  1  0  0  0
  3 10  1  0  0  0
 10 11  2  0  0  0
 11 12  1  0  0  0
 12 13  2  0  0  0
 13 14  1  0  0  0
 14 16  1  0  0  0
 16 17  1  0  0  0
 17 19  1  0  0  0
 19 20  1  0  0  0
 20 21  1  0  0  0
 21 22  1  0  0  0
 22 23  1  0  0  0
 22 24  1  0  0  0
 24 25  1  0  0  0
 14 15  2  0  0  0
 42 43  1  0  0  0
 43 44  2  0  0  0
 44 45  1  0  0  0
 44 39  1  0  0  0
 35 31  1  0  0  0
  6  1  1  0  0  0
 15 10  1  0  0  0
 25 19  1  0  0  0
 27 30  1  0  0  0
  7  8  1  0  0  0
  7  9  1  0  0  0
 17 18  1  0  0  0
 23 26  1  0  0  0
M  END
> <minimizedAffinity>
-8.55140

> <CNNscore>
0.5476883054

> <CNNaffinity>
7.2238488197

> <CNN_VS>
3.9564175606

> <CNNaffinity_variance>
0.8128134608

$$$$
[H]O[C@]1([H])C([H])([H])C([H])([H])[C@@]([H])(N([H])C([H])([H])c2c([H])c([H])c([H])c(-c3c([H])nc(N([H])[H])c(C(=O)N([H])[C@@]4([H])C([H])([H])C([H])([H])C([H])([H])[C@]4([H])OC([H])([H])c4c([H])c([H])c(C([H])([H])[H])c(C([H])([H])[H])c4[H])c3[H])c2[H])C([H])([H])C1([H])[H]


 45 49  0  0  0  0  0  0  0  0999 V2000
    3.8181    1.5222   18.5962 C   0  0  0  0  0  0  0  0  0  0  0  0
    4.4710    2.5727   19.2018 C   0  0  0  0  0  0  0  0  0  0  0  0
    4.5717    2.6254   20.5685 C   0  0  0  0  0  0  0  0  0  0  0  0
    4.0129    1.6166   21.3129 C   0  0  0  0  0  0  0  0  0  0  0  0
    3.3727    0.5856   20.7221 N   0  0  0  0  0  0  0  0  0  0  0  0
    3.2675    0.5236   19.3795 C   0  0  0  0  0  0  0  0  0  0  0  0
    2.5891   -0.5709   18.7651 N   0  0  0  0  0  0  0  0  0  0  0  0
    1.5599   -0.5654   18.6061 H   0  0  0  0  0  0  0  0  0  0  0  0
    3.1195   -1.4098   18.4586 H   0  0  0  0  0  0  0  0  0  0  0  0
    5.2708    3.7529   21.1657 C   0  0  0  0  0  0  0  0  0  0  0  0
    6.4139    3.4960   21.8923 C   0  0  0  0  0  0  0  0  0  0  0  0
    7.1359    4.5282   22.4865 C   0  0  0  0  0  0  0  0  0  0  0  0
    6.6794    5.8389   22.3330 C   0  0  0  0  0  0  0  0  0  0  0  0
    5.5399    6.1170   21.6113 C   0  0  0  0  0  0  0  0  0  0  0  0
    4.8697    5.0478   21.0472 C   0  0  0  0  0  0  0  0  0  0  0  0
    5.0316    7.4995   21.4244 C   0  0  0  0  0  0  0  0  0  0  0  0
    4.1995    7.5819   20.2661 N   0  0  0  0  0  0  0  0  0  0  0  0
    3.2578    7.9456   20.4384 H   0  0  0  0  0  0  0  0  0  0  0  0
    4.8274    8.2154   19.1288 C   0  0  0  0  0  0  0  0  0  0  0  0
    6.2638    7.9090   18.9528 C   0  0  0  0  0  0  0  0  0  0  0  0
    6.5543    6.8898   17.8761 C   0  0  0  0  0  0  0  0  0  0  0  0
    5.3516    5.9754   17.7559 C   0  0  0  0  0  0  0  0  0  0  0  0
    5.6994    4.9138   16.9239 O   0  0  0  0  0  0  0  0  0  0  0  0
    4.2700    6.8245   17.0855 C   0  0  0  0  0  0  0  0  0  0  0  0
    3.9428    7.9846   17.9477 C   0  0  0  0  0  0  0  0  0  0  0  0
    5.5215    4.0826   17.4446 H   0  0  0  0  0  0  0  0  0  0  0  0
    3.5819    2.5478   16.2796 N   0  0  0  0  0  0  0  0  0  0  0  0
    3.6833    1.4277   17.1473 C   0  0  0  0  0  0  0  0  0  0  0  0
    3.6548    0.2751   16.6312 O   0  0  0  0  0  0  0  0  0  0  0  0
    3.6050    3.4937   16.7059 H   0  0  0  0  0  0  0  0  0  0  0  0
    3.8246    3.6834   14.1755 C   0  0  0  0  0  0  0  0  0  0  0  0
    2.6643    4.5758   14.5561 C   0  0  0  0  0  0  0  0  0  0  0  0
    1.4754    3.6695   14.3198 C   0  0  0  0  0  0  0  0  0  0  0  0
    1.9847    2.2566   14.5009 C   0  0  0  0  0  0  0  0  0  0  0  0
    3.4495    2.3850   14.8546 C   0  0  0  0  0  0  0  0  0  0  0  0
    3.8235    3.5834   12.7878 O   0  0  0  0  0  0  0  0  0  0  0  0
    4.2336    4.7616   12.1756 C   0  0  0  0  0  0  0  0  0  0  0  0
    7.1031    3.2593    7.3926 C   0  0  0  0  0  0  0  0  0  0  0  0
    6.3544    3.6384    8.6274 C   0  0  0  0  0  0  0  0  0  0  0  0
    5.2763    2.9105    9.0552 C   0  0  0  0  0  0  0  0  0  0  0  0
    4.6163    3.2830   10.1843 C   0  0  0  0  0  0  0  0  0  0  0  0
    4.9883    4.3952   10.9489 C   0  0  0  0  0  0  0  0  0  0  0  0
    6.0745    5.0958   10.4834 C   0  0  0  0  0  0  0  0  0  0  0  0
    6.7660    4.7436    9.3412 C   0  0  0  0  0  0  0  0  0  0  0  0
    7.9496    5.5250    8.8529 C   0  0  0  0  0  0  0  0  0  0  0  0
 38 39  1  0  0  0
 39 40  2  0  0  0
 40 41  1  0  0  0
 41 42  2  0  0  0
 42 37  1  0  0  0
 37 36  1  0  0  0
 36 31  1  0  0  0
 31 32  1  0  0  0
 32 33  1  0  0  0
 33 34  1  0  0  0
 34 35  1  0  0  0
 35 27  1  0  0  0
 27 28  1  0  0  0
 28 29  2  0  0  0
 28  1  1  0  0  0
  1  2  2  0  0  0
  2  3  1  0  0  0
  3  4  2  0  0  0
  4  5  1  0  0  0
  5  6  2  0  0  0
  6  7  1  0  0  0
  3 10  1  0  0  0
 10 11  2  0  0  0
 11 12  1  0  0  0
 12 13  2  0  0  0
 13 14  1  0  0  0
 14 16  1  0  0  0
 16 17  1  0  0  0
 17 19  1  0  0  0
 19 20  1  0  0  0
 20 21  1  0  0  0
 21 22  1  0  0  0
 22 23  1  0  0  0
 22 24  1  0  0  0
 24 25  1  0  0  0
 14 15  2  0  0  0
 42 43  1  0  0  0
 43 44  2  0  0  0
 44 45  1  0  0  0
 44 39  1  0  0  0
 35 31  1  0  0  0
  6  1  1  0  0  0
 15 10  1  0  0  0
 25 19  1  0  0  0
 27 30  1  0  0  0
  7  8  1  0  0  0
  7  9  1  0  0  0
 17 18  1  0  0  0
 23 26  1  0  0  0
M  END
> <minimizedAffinity>
-8.79475

> <CNNscore>
0.5451574922

> <CNNaffinity>
7.1832823753

> <CNN_VS>
3.9160201550

> <CNNaffinity_variance>
0.8269473314

$$$$
[H]O[C@]1([H])C([H])([H])C([H])([H])[C@@]([H])(N([H])C([H])([H])c2c([H])c([H])c([H])c(-c3c([H])nc(N([H])[H])c(C(=O)N([H])[C@@]4([H])C([H])([H])C([H])([H])C([H])([H])[C@]4([H])OC([H])([H])c4c([H])c([H])c(C([H])([H])[H])c(C([H])([H])[H])c4[H])c3[H])c2[H])C([H])([H])C1([H])[H]


 45 49  0  0  0  0  0  0  0  0999 V2000
    3.1616    3.2661   17.0429 C   0  0  0  0  0  0  0  0  0  0  0  0
    3.8849    3.5307   18.1845 C   0  0  0  0  0  0  0  0  0  0  0  0
    4.3405    2.4998   18.9659 C   0  0  0  0  0  0  0  0  0  0  0  0
    4.0626    1.2099   18.5880 C   0  0  0  0  0  0  0  0  0  0  0  0
    3.3542    0.9475   17.4694 N   0  0  0  0  0  0  0  0  0  0  0  0
    2.9013    1.9530   16.6939 C   0  0  0  0  0  0  0  0  0  0  0  0
    2.1538    1.6646   15.5133 N   0  0  0  0  0  0  0  0  0  0  0  0
    1.1210    1.5323   15.5305 H   0  0  0  0  0  0  0  0  0  0  0  0
    2.6353    1.5800   14.5967 H   0  0  0  0  0  0  0  0  0  0  0  0
    5.1012    2.8253   20.1625 C   0  0  0  0  0  0  0  0  0  0  0  0
    5.6587    1.7876   20.8787 C   0  0  0  0  0  0  0  0  0  0  0  0
    6.4040    2.0272   22.0307 C   0  0  0  0  0  0  0  0  0  0  0  0
    6.5790    3.3470   22.4521 C   0  0  0  0  0  0  0  0  0  0  0  0
    6.0304    4.3978   21.7512 C   0  0  0  0  0  0  0  0  0  0  0  0
    5.3020    4.0922   20.6169 C   0  0  0  0  0  0  0  0  0  0  0  0
    6.2029    5.8121   22.1691 C   0  0  0  0  0  0  0  0  0  0  0  0
    5.2433    6.6521   21.5256 N   0  0  0  0  0  0  0  0  0  0  0  0
    4.4917    6.9902   22.1336 H   0  0  0  0  0  0  0  0  0  0  0  0
    5.8212    7.7141   20.7336 C   0  0  0  0  0  0  0  0  0  0  0  0
    6.4877    7.2770   19.4875 C   0  0  0  0  0  0  0  0  0  0  0  0
    5.6735    7.5030   18.2352 C   0  0  0  0  0  0  0  0  0  0  0  0
    4.2062    7.4546   18.6119 C   0  0  0  0  0  0  0  0  0  0  0  0
    3.4599    7.4472   17.4358 O   0  0  0  0  0  0  0  0  0  0  0  0
    3.9482    8.7526   19.3794 C   0  0  0  0  0  0  0  0  0  0  0  0
    4.7863    8.7828   20.6013 C   0  0  0  0  0  0  0  0  0  0  0  0
    2.8770    6.6398   17.4815 H   0  0  0  0  0  0  0  0  0  0  0  0
    3.0886    4.5579   14.8518 N   0  0  0  0  0  0  0  0  0  0  0  0
    2.6542    4.3306   16.1851 C   0  0  0  0  0  0  0  0  0  0  0  0
    1.7714    5.0999   16.6588 O   0  0  0  0  0  0  0  0  0  0  0  0
    3.8143    3.9249   14.4650 H   0  0  0  0  0  0  0  0  0  0  0  0
    1.2803    5.1494   13.3837 C   0  0  0  0  0  0  0  0  0  0  0  0
    1.8251    4.1722   12.3659 C   0  0  0  0  0  0  0  0  0  0  0  0
    2.9974    4.9356   11.7883 C   0  0  0  0  0  0  0  0  0  0  0  0
    3.4549    5.8834   12.8749 C   0  0  0  0  0  0  0  0  0  0  0  0
    2.5465    5.6298   14.0571 C   0  0  0  0  0  0  0  0  0  0  0  0
    0.6333    6.1570   12.6753 O   0  0  0  0  0  0  0  0  0  0  0  0
   -0.2714    6.8569   13.4646 C   0  0  0  0  0  0  0  0  0  0  0  0
   -5.6159    5.7941   11.5476 C   0  0  0  0  0  0  0  0  0  0  0  0
   -4.2390    6.0750   12.0519 C   0  0  0  0  0  0  0  0  0  0  0  0
   -4.0343    6.8481   13.1635 C   0  0  0  0  0  0  0  0  0  0  0  0
   -2.7671    7.0846   13.5964 C   0  0  0  0  0  0  0  0  0  0  0  0
   -1.6363    6.5687   12.9522 C   0  0  0  0  0  0  0  0  0  0  0  0
   -1.8880    5.7993   11.8422 C   0  0  0  0  0  0  0  0  0  0  0  0
   -3.1622    5.5404   11.3773 C   0  0  0  0  0  0  0  0  0  0  0  0
   -3.4116    4.6966   10.1625 C   0  0  0  0  0  0  0  0  0  0  0  0
 38 39  1  0  0  0
 39 40  2  0  0  0
 40 41  1  0  0  0
 41 42  2  0  0  0
 42 37  1  0  0  0
 37 36  1  0  0  0
 36 31  1  0  0  0
 31 32  1  0  0  0
 32 33  1  0  0  0
 33 34  1  0  0  0
 34 35  1  0  0  0
 35 27  1  0  0  0
 27 28  1  0  0  0
 28 29  2  0  0  0
 28  1  1  0  0  0
  1  2  2  0  0  0
  2  3  1  0  0  0
  3  4  2  0  0  0
  4  5  1  0  0  0
  5  6  2  0  0  0
  6  7  1  0  0  0
  3 10  1  0  0  0
 10 11  2  0  0  0
 11 12  1  0  0  0
 12 13  2  0  0  0
 13 14  1  0  0  0
 14 16  1  0  0  0
 16 17  1  0  0  0
 17 19  1  0  0  0
 19 20  1  0  0  0
 20 21  1  0  0  0
 21 22  1  0  0  0
 22 23  1  0  0  0
 22 24  1  0  0  0
 24 25  1  0  0  0
 14 15  2  0  0  0
 42 43  1  0  0  0
 43 44  2  0  0  0
 44 45  1  0  0  0
 44 39  1  0  0  0
 35 31  1  0  0  0
  6  1  1  0  0  0
 15 10  1  0  0  0
 25 19  1  0  0  0
 27 30  1  0  0  0
  7  8  1  0  0  0
  7  9  1  0  0  0
 17 18  1  0  0  0
 23 26  1  0  0  0
M  END
> <minimizedAffinity>
-10.53356

> <CNNscore>
0.5232489109

> <CNNaffinity>
7.0776305199

> <CNN_VS>
3.7033624649

> <CNNaffinity_variance>
0.6313380003

$$$$
[H]O[C@]1([H])C([H])([H])C([H])([H])[C@@]([H])(N([H])C([H])([H])c2c([H])c([H])c([H])c(-c3c([H])nc(N([H])[H])c(C(=O)N([H])[C@@]4([H])C([H])([H])C([H])([H])C([H])([H])[C@]4([H])OC([H])([H])c4c([H])c([H])c(C([H])([H])[H])c(C([H])([H])[H])c4[H])c3[H])c2[H])C([H])([H])C1([H])[H]


 45 49  0  0  0  0  0  0  0  0999 V2000
    3.7651    1.5516   18.4002 C   0  0  0  0  0  0  0  0  0  0  0  0
    4.4698    2.5978   18.9526 C   0  0  0  0  0  0  0  0  0  0  0  0
    4.6408    2.6721   20.3113 C   0  0  0  0  0  0  0  0  0  0  0  0
    4.0992    1.6890   21.1013 C   0  0  0  0  0  0  0  0  0  0  0  0
    3.4082    0.6622   20.5627 N   0  0  0  0  0  0  0  0  0  0  0  0
    3.2338    0.5792   19.2284 C   0  0  0  0  0  0  0  0  0  0  0  0
    2.5021   -0.5106   18.6693 N   0  0  0  0  0  0  0  0  0  0  0  0
    1.4666   -0.4851   18.5621 H   0  0  0  0  0  0  0  0  0  0  0  0
    2.9986   -1.3662   18.3520 H   0  0  0  0  0  0  0  0  0  0  0  0
    5.3929    3.7941   20.8517 C   0  0  0  0  0  0  0  0  0  0  0  0
    6.2685    3.5489   21.8880 C   0  0  0  0  0  0  0  0  0  0  0  0
    7.0246    4.5752   22.4492 C   0  0  0  0  0  0  0  0  0  0  0  0
    6.8802    5.8677   21.9408 C   0  0  0  0  0  0  0  0  0  0  0  0
    6.0111    6.1339   20.9062 C   0  0  0  0  0  0  0  0  0  0  0  0
    5.2904    5.0715   20.3940 C   0  0  0  0  0  0  0  0  0  0  0  0
    5.8389    7.4954   20.3393 C   0  0  0  0  0  0  0  0  0  0  0  0
    5.4371    7.4279   18.9701 N   0  0  0  0  0  0  0  0  0  0  0  0
    5.4330    6.4855   18.5693 H   0  0  0  0  0  0  0  0  0  0  0  0
    4.2212    8.1505   18.6726 C   0  0  0  0  0  0  0  0  0  0  0  0
    4.0395    9.4110   19.4252 C   0  0  0  0  0  0  0  0  0  0  0  0
    4.3491   10.6586   18.6316 C   0  0  0  0  0  0  0  0  0  0  0  0
    5.3809   10.3040   17.5796 C   0  0  0  0  0  0  0  0  0  0  0  0
    5.8230   11.4880   16.9940 O   0  0  0  0  0  0  0  0  0  0  0  0
    4.6253    9.4670   16.5456 C   0  0  0  0  0  0  0  0  0  0  0  0
    4.1074    8.2349   17.1858 C   0  0  0  0  0  0  0  0  0  0  0  0
    6.8145   11.4960   17.0973 H   0  0  0  0  0  0  0  0  0  0  0  0
    3.4668    2.5411   16.0749 N   0  0  0  0  0  0  0  0  0  0  0  0
    3.5551    1.4349   16.9619 C   0  0  0  0  0  0  0  0  0  0  0  0
    3.4445    0.2752   16.4738 O   0  0  0  0  0  0  0  0  0  0  0  0
    3.5573    3.4930   16.4783 H   0  0  0  0  0  0  0  0  0  0  0  0
    3.7952    3.5624   13.9244 C   0  0  0  0  0  0  0  0  0  0  0  0
    2.7964    4.6304   14.3112 C   0  0  0  0  0  0  0  0  0  0  0  0
    1.4775    3.9063   14.1475 C   0  0  0  0  0  0  0  0  0  0  0  0
    1.7769    2.4391   14.3622 C   0  0  0  0  0  0  0  0  0  0  0  0
    3.2570    2.3566   14.6619 C   0  0  0  0  0  0  0  0  0  0  0  0
    3.7259    3.4214   12.5420 O   0  0  0  0  0  0  0  0  0  0  0  0
    4.3269    4.4819   11.8747 C   0  0  0  0  0  0  0  0  0  0  0  0
    6.9308    2.4250    7.1464 C   0  0  0  0  0  0  0  0  0  0  0  0
    6.2671    2.9633    8.3706 C   0  0  0  0  0  0  0  0  0  0  0  0
    6.8953    3.8760    9.1753 C   0  0  0  0  0  0  0  0  0  0  0  0
    6.2626    4.3464   10.2833 C   0  0  0  0  0  0  0  0  0  0  0  0
    4.9755    3.9384   10.6530 C   0  0  0  0  0  0  0  0  0  0  0  0
    4.3831    3.0225    9.8177 C   0  0  0  0  0  0  0  0  0  0  0  0
    4.9984    2.5258    8.6857 C   0  0  0  0  0  0  0  0  0  0  0  0
    4.3306    1.5259    7.7889 C   0  0  0  0  0  0  0  0  0  0  0  0
 38 39  1  0  0  0
 39 40  2  0  0  0
 40 41  1  0  0  0
 41 42  2  0  0  0
 42 37  1  0  0  0
 37 36  1  0  0  0
 36 31  1  0  0  0
 31 32  1  0  0  0
 32 33  1  0  0  0
 33 34  1  0  0  0
 34 35  1  0  0  0
 35 27  1  0  0  0
 27 28  1  0  0  0
 28 29  2  0  0  0
 28  1  1  0  0  0
  1  2  2  0  0  0
  2  3  1  0  0  0
  3  4  2  0  0  0
  4  5  1  0  0  0
  5  6  2  0  0  0
  6  7  1  0  0  0
  3 10  1  0  0  0
 10 11  2  0  0  0
 11 12  1  0  0  0
 12 13  2  0  0  0
 13 14  1  0  0  0
 14 16  1  0  0  0
 16 17  1  0  0  0
 17 19  1  0  0  0
 19 20  1  0  0  0
 20 21  1  0  0  0
 21 22  1  0  0  0
 22 23  1  0  0  0
 22 24  1  0  0  0
 24 25  1  0  0  0
 14 15  2  0  0  0
 42 43  1  0  0  0
 43 44  2  0  0  0
 44 45  1  0  0  0
 44 39  1  0  0  0
 35 31  1  0  0  0
  6  1  1  0  0  0
 15 10  1  0  0  0
 25 19  1  0  0  0
 27 30  1  0  0  0
  7  8  1  0  0  0
  7  9  1  0  0  0
 17 18  1  0  0  0
 23 26  1  0  0  0
M  END
> <minimizedAffinity>
-8.70772

> <CNNscore>
0.5142789483

> <CNNaffinity>
6.9995903969

> <CNN_VS>
3.5997419357

> <CNNaffinity_variance>
0.8548585176

$$$$
[H]O[C@]1([H])C([H])([H])C([H])([H])[C@@]([H])(N([H])C([H])([H])c2c([H])c([H])c([H])c(-c3c([H])nc(N([H])[H])c(C(=O)N([H])[C@@]4([H])C([H])([H])C([H])([H])C([H])([H])[C@]4([H])OC([H])([H])c4c([H])c([H])c(C([H])([H])[H])c(C([H])([H])[H])c4[H])c3[H])c2[H])C([H])([H])C1([H])[H]


 45 49  0  0  0  0  0  0  0  0999 V2000
    3.3253    1.8570   17.1898 C   0  0  0  0  0  0  0  0  0  0  0  0
    3.9885    2.4235   18.2555 C   0  0  0  0  0  0  0  0  0  0  0  0
    4.0576    1.7616   19.4546 C   0  0  0  0  0  0  0  0  0  0  0  0
    3.4569    0.5327   19.5680 C   0  0  0  0  0  0  0  0  0  0  0  0
    2.8065   -0.0252   18.5252 N   0  0  0  0  0  0  0  0  0  0  0  0
    2.7321    0.6165   17.3418 C   0  0  0  0  0  0  0  0  0  0  0  0
    2.0425    0.0176   16.2457 N   0  0  0  0  0  0  0  0  0  0  0  0
    1.0178    0.1383   16.1039 H   0  0  0  0  0  0  0  0  0  0  0  0
    2.5598   -0.5607   15.5551 H   0  0  0  0  0  0  0  0  0  0  0  0
    4.7691    2.3969   20.5532 C   0  0  0  0  0  0  0  0  0  0  0  0
    5.8832    1.7610   21.0581 C   0  0  0  0  0  0  0  0  0  0  0  0
    6.6151    2.3151   22.1055 C   0  0  0  0  0  0  0  0  0  0  0  0
    6.1987    3.5359   22.6406 C   0  0  0  0  0  0  0  0  0  0  0  0
    5.0886    4.1873   22.1508 C   0  0  0  0  0  0  0  0  0  0  0  0
    4.4065    3.5840   21.1109 C   0  0  0  0  0  0  0  0  0  0  0  0
    4.6233    5.4888   22.6933 C   0  0  0  0  0  0  0  0  0  0  0  0
    4.2586    6.3780   21.6364 N   0  0  0  0  0  0  0  0  0  0  0  0
    3.4259    6.9450   21.8199 H   0  0  0  0  0  0  0  0  0  0  0  0
    5.3535    7.1699   21.1234 C   0  0  0  0  0  0  0  0  0  0  0  0
    5.8596    6.7569   19.7962 C   0  0  0  0  0  0  0  0  0  0  0  0
    5.3903    7.6272   18.6540 C   0  0  0  0  0  0  0  0  0  0  0  0
    4.0467    8.2175   19.0325 C   0  0  0  0  0  0  0  0  0  0  0  0
    3.5172    8.8406   17.9049 O   0  0  0  0  0  0  0  0  0  0  0  0
    4.3583    9.2649   20.1032 C   0  0  0  0  0  0  0  0  0  0  0  0
    4.9739    8.6060   21.2792 C   0  0  0  0  0  0  0  0  0  0  0  0
    2.6189    8.4340   17.7585 H   0  0  0  0  0  0  0  0  0  0  0  0
    2.7151    3.8407   15.7177 N   0  0  0  0  0  0  0  0  0  0  0  0
    3.2232    2.5265   15.8984 C   0  0  0  0  0  0  0  0  0  0  0  0
    3.6116    1.8965   14.8747 O   0  0  0  0  0  0  0  0  0  0  0  0
    2.3961    4.3560   16.5600 H   0  0  0  0  0  0  0  0  0  0  0  0
    3.9089    5.2286   14.1607 C   0  0  0  0  0  0  0  0  0  0  0  0
    3.7473    6.3898   15.1162 C   0  0  0  0  0  0  0  0  0  0  0  0
    2.3044    6.7878   14.8916 C   0  0  0  0  0  0  0  0  0  0  0  0
    1.5935    5.5361   14.4265 C   0  0  0  0  0  0  0  0  0  0  0  0
    2.6402    4.4446   14.4121 C   0  0  0  0  0  0  0  0  0  0  0  0
    3.9650    5.7621   12.8770 O   0  0  0  0  0  0  0  0  0  0  0  0
    4.3693    4.8239   11.9350 C   0  0  0  0  0  0  0  0  0  0  0  0
    0.2595    4.3565    7.9027 C   0  0  0  0  0  0  0  0  0  0  0  0
    1.3271    4.4680    8.9405 C   0  0  0  0  0  0  0  0  0  0  0  0
    2.3546    3.5647    9.0014 C   0  0  0  0  0  0  0  0  0  0  0  0
    3.3109    3.6948    9.9594 C   0  0  0  0  0  0  0  0  0  0  0  0
    3.3007    4.7253   10.9070 C   0  0  0  0  0  0  0  0  0  0  0  0
    2.2526    5.6081   10.8088 C   0  0  0  0  0  0  0  0  0  0  0  0
    1.2662    5.5037    9.8481 C   0  0  0  0  0  0  0  0  0  0  0  0
    0.1313    6.4806    9.7612 C   0  0  0  0  0  0  0  0  0  0  0  0
 38 39  1  0  0  0
 39 40  2  0  0  0
 40 41  1  0  0  0
 41 42  2  0  0  0
 42 37  1  0  0  0
 37 36  1  0  0  0
 36 31  1  0  0  0
 31 32  1  0  0  0
 32 33  1  0  0  0
 33 34  1  0  0  0
 34 35  1  0  0  0
 35 27  1  0  0  0
 27 28  1  0  0  0
 28 29  2  0  0  0
 28  1  1  0  0  0
  1  2  2  0  0  0
  2  3  1  0  0  0
  3  4  2  0  0  0
  4  5  1  0  0  0
  5  6  2  0  0  0
  6  7  1  0  0  0
  3 10  1  0  0  0
 10 11  2  0  0  0
 11 12  1  0  0  0
 12 13  2  0  0  0
 13 14  1  0  0  0
 14 16  1  0  0  0
 16 17  1  0  0  0
 17 19  1  0  0  0
 19 20  1  0  0  0
 20 21  1  0  0  0
 21 22  1  0  0  0
 22 23  1  0  0  0
 22 24  1  0  0  0
 24 25  1  0  0  0
 14 15  2  0  0  0
 42 43  1  0  0  0
 43 44  2  0  0  0
 44 45  1  0  0  0
 44 39  1  0  0  0
 35 31  1  0  0  0
  6  1  1  0  0  0
 15 10  1  0  0  0
 25 19  1  0  0  0
 27 30  1  0  0  0
  7  8  1  0  0  0
  7  9  1  0  0  0
 17 18  1  0  0  0
 23 26  1  0  0  0
M  END
> <minimizedAffinity>
-8.85200

> <CNNscore>
0.5138550401

> <CNNaffinity>
7.1517972946

> <CNN_VS>
3.6749870777

> <CNNaffinity_variance>
0.4941812158

$$$$
[H]O[C@]1([H])C([H])([H])C([H])([H])[C@@]([H])(N([H])C([H])([H])c2c([H])c([H])c([H])c(-c3c([H])nc(N([H])[H])c(C(=O)N([H])[C@@]4([H])C([H])([H])C([H])([H])C([H])([H])[C@]4([H])OC([H])([H])c4c([H])c([H])c(C([H])([H])[H])c(C([H])([H])[H])c4[H])c3[H])c2[H])C([H])([H])C1([H])[H]


 45 49  0  0  0  0  0  0  0  0999 V2000
    3.5007    2.3961   16.8015 C   0  0  0  0  0  0  0  0  0  0  0  0
    4.1776    2.9310   17.8749 C   0  0  0  0  0  0  0  0  0  0  0  0
    4.2670    2.2313   19.0511 C   0  0  0  0  0  0  0  0  0  0  0  0
    3.6727    0.9969   19.1338 C   0  0  0  0  0  0  0  0  0  0  0  0
    3.0089    0.4699   18.0833 N   0  0  0  0  0  0  0  0  0  0  0  0
    2.9145    1.1488   16.9223 C   0  0  0  0  0  0  0  0  0  0  0  0
    2.2109    0.5825   15.8179 N   0  0  0  0  0  0  0  0  0  0  0  0
    1.1838    0.7033   15.6951 H   0  0  0  0  0  0  0  0  0  0  0  0
    2.7201    0.0288   15.1014 H   0  0  0  0  0  0  0  0  0  0  0  0
    4.9923    2.8340   20.1588 C   0  0  0  0  0  0  0  0  0  0  0  0
    5.7507    2.0096   20.9625 C   0  0  0  0  0  0  0  0  0  0  0  0
    6.4751    2.5201   22.0369 C   0  0  0  0  0  0  0  0  0  0  0  0
    6.4203    3.8925   22.2893 C   0  0  0  0  0  0  0  0  0  0  0  0
    5.6688    4.7332   21.4987 C   0  0  0  0  0  0  0  0  0  0  0  0
    4.9736    4.1635   20.4487 C   0  0  0  0  0  0  0  0  0  0  0  0
    5.5944    6.1970   21.7366 C   0  0  0  0  0  0  0  0  0  0  0  0
    4.5092    6.7748   21.0091 N   0  0  0  0  0  0  0  0  0  0  0  0
    3.6728    6.9690   21.5672 H   0  0  0  0  0  0  0  0  0  0  0  0
    4.8826    7.8982   20.1800 C   0  0  0  0  0  0  0  0  0  0  0  0
    6.2939    7.9106   19.7372 C   0  0  0  0  0  0  0  0  0  0  0  0
    6.5008    7.4651   18.3086 C   0  0  0  0  0  0  0  0  0  0  0  0
    5.3858    6.5038   17.9485 C   0  0  0  0  0  0  0  0  0  0  0  0
    5.6926    5.9307   16.7166 O   0  0  0  0  0  0  0  0  0  0  0  0
    4.1351    7.3748   17.8161 C   0  0  0  0  0  0  0  0  0  0  0  0
    3.8443    8.0279   19.1142 C   0  0  0  0  0  0  0  0  0  0  0  0
    5.6800    4.9440   16.8580 H   0  0  0  0  0  0  0  0  0  0  0  0
    3.1504    2.4734   14.2824 N   0  0  0  0  0  0  0  0  0  0  0  0
    3.3769    3.1062   15.5339 C   0  0  0  0  0  0  0  0  0  0  0  0
    3.4779    4.3652   15.5504 O   0  0  0  0  0  0  0  0  0  0  0  0
    3.0684    1.4389   14.2712 H   0  0  0  0  0  0  0  0  0  0  0  0
    1.6956    3.9295   13.0419 C   0  0  0  0  0  0  0  0  0  0  0  0
    0.7507    2.7659   12.8398 C   0  0  0  0  0  0  0  0  0  0  0  0
    1.4483    1.9748   11.7544 C   0  0  0  0  0  0  0  0  0  0  0  0
    2.9222    2.2862   11.8923 C   0  0  0  0  0  0  0  0  0  0  0  0
    3.0387    3.2345   13.0646 C   0  0  0  0  0  0  0  0  0  0  0  0
    1.5453    4.7716   11.9447 O   0  0  0  0  0  0  0  0  0  0  0  0
    1.1260    6.0445   12.3125 C   0  0  0  0  0  0  0  0  0  0  0  0
    5.7242    9.0050   14.1724 C   0  0  0  0  0  0  0  0  0  0  0  0
    4.5300    8.2428   13.7013 C   0  0  0  0  0  0  0  0  0  0  0  0
    3.3968    8.1563   14.4652 C   0  0  0  0  0  0  0  0  0  0  0  0
    2.3264    7.4539   14.0067 C   0  0  0  0  0  0  0  0  0  0  0  0
    2.3214    6.8004   12.7686 C   0  0  0  0  0  0  0  0  0  0  0  0
    3.4781    6.9135   12.0359 C   0  0  0  0  0  0  0  0  0  0  0  0
    4.5816    7.6192   12.4730 C   0  0  0  0  0  0  0  0  0  0  0  0
    5.8337    7.7283   11.6544 C   0  0  0  0  0  0  0  0  0  0  0  0
 38 39  1  0  0  0
 39 40  2  0  0  0
 40 41  1  0  0  0
 41 42  2  0  0  0
 42 37  1  0  0  0
 37 36  1  0  0  0
 36 31  1  0  0  0
 31 32  1  0  0  0
 32 33  1  0  0  0
 33 34  1  0  0  0
 34 35  1  0  0  0
 35 27  1  0  0  0
 27 28  1  0  0  0
 28 29  2  0  0  0
 28  1  1  0  0  0
  1  2  2  0  0  0
  2  3  1  0  0  0
  3  4  2  0  0  0
  4  5  1  0  0  0
  5  6  2  0  0  0
  6  7  1  0  0  0
  3 10  1  0  0  0
 10 11  2  0  0  0
 11 12  1  0  0  0
 12 13  2  0  0  0
 13 14  1  0  0  0
 14 16  1  0  0  0
 16 17  1  0  0  0
 17 19  1  0  0  0
 19 20  1  0  0  0
 20 21  1  0  0  0
 21 22  1  0  0  0
 22 23  1  0  0  0
 22 24  1  0  0  0
 24 25  1  0  0  0
 14 15  2  0  0  0
 42 43  1  0  0  0
 43 44  2  0  0  0
 44 45  1  0  0  0
 44 39  1  0  0  0
 35 31  1  0  0  0
  6  1  1  0  0  0
 15 10  1  0  0  0
 25 19  1  0  0  0
 27 30  1  0  0  0
  7  8  1  0  0  0
  7  9  1  0  0  0
 17 18  1  0  0  0
 23 26  1  0  0  0
M  END
> <minimizedAffinity>
-9.39754

> <CNNscore>
0.4501608014

> <CNNaffinity>
6.8992218971

> <CNN_VS>
3.1057591438

> <CNNaffinity_variance>
0.6614650488

$$$$
[H]OC([H])([H])c1nc(-c2c([H])nc(N([H])C([H])([H])C([H])([H])C([H])([H])C([H])([H])[H])nc2N([H])[C@]2([H])C([H])([H])C([H])([H])[C@@]([H])(O[H])C([H])([H])C2([H])[H])sc1[H]


 30 32  0  0  0  0  0  0  0  0999 V2000
    3.5503    0.9351   18.8622 C   0  0  0  0  0  0  0  0  0  0  0  0
    2.7423    0.3879   17.9333 N   0  0  0  0  0  0  0  0  0  0  0  0
    2.6988    0.9299   16.7141 C   0  0  0  0  0  0  0  0  0  0  0  0
    3.4800    2.0410   16.4213 C   0  0  0  0  0  0  0  0  0  0  0  0
    4.2816    2.5809   17.3491 C   0  0  0  0  0  0  0  0  0  0  0  0
    4.3010    1.9961   18.5947 N   0  0  0  0  0  0  0  0  0  0  0  0
    3.3709    2.5772   15.0471 C   0  0  0  0  0  0  0  0  0  0  0  0
    2.7905    1.9428   14.0209 N   0  0  0  0  0  0  0  0  0  0  0  0
    2.7412    2.4859   12.8585 C   0  0  0  0  0  0  0  0  0  0  0  0
    3.3007    3.7308   12.7069 C   0  0  0  0  0  0  0  0  0  0  0  0
    3.8603    4.0137   14.2885 S   0  0  0  0  0  0  0  0  0  0  0  0
    2.0951    1.8129   11.6536 C   0  0  0  0  0  0  0  0  0  0  0  0
    0.7775    1.5035   11.8931 O   0  0  0  0  0  0  0  0  0  0  0  0
    0.7041    0.5591   12.1382 H   0  0  0  0  0  0  0  0  0  0  0  0
    3.5589    0.3148   20.1531 N   0  0  0  0  0  0  0  0  0  0  0  0
    2.8843   -0.4697   20.3090 H   0  0  0  0  0  0  0  0  0  0  0  0
    4.4454    0.7359   21.1992 C   0  0  0  0  0  0  0  0  0  0  0  0
    3.7507    1.6321   22.1673 C   0  0  0  0  0  0  0  0  0  0  0  0
    6.0756    2.5319   22.4239 C   0  0  0  0  0  0  0  0  0  0  0  0
    4.6716    2.5059   22.9587 C   0  0  0  0  0  0  0  0  0  0  0  0
    5.1110    3.7040   17.1581 N   0  0  0  0  0  0  0  0  0  0  0  0
    6.0601    3.6900   16.7832 H   0  0  0  0  0  0  0  0  0  0  0  0
    4.5784    5.0195   17.5258 C   0  0  0  0  0  0  0  0  0  0  0  0
    3.1436    4.9474   17.9830 C   0  0  0  0  0  0  0  0  0  0  0  0
    3.0172    5.7380   19.2658 C   0  0  0  0  0  0  0  0  0  0  0  0
    3.8810    5.0469   20.3221 C   0  0  0  0  0  0  0  0  0  0  0  0
    3.7297    5.7548   21.5211 O   0  0  0  0  0  0  0  0  0  0  0  0
    5.3272    5.1006   19.9191 C   0  0  0  0  0  0  0  0  0  0  0  0
    5.4490    5.7053   18.5268 C   0  0  0  0  0  0  0  0  0  0  0  0
    3.5255    6.7023   21.2864 H   0  0  0  0  0  0  0  0  0  0  0  0
 19 20  1  0  0  0
 20 18  1  0  0  0
 18 17  1  0  0  0
 17 15  1  0  0  0
 15  1  1  0  0  0
  1  2  2  0  0  0
  2  3  1  0  0  0
  3  4  2  0  0  0
  4  7  1  0  0  0
  7  8  2  0  0  0
  8  9  1  0  0  0
  9 12  1  0  0  0
 12 13  1  0  0  0
  9 10  2  0  0  0
 10 11  1  0  0  0
  4  5  1  0  0  0
  5 21  1  0  0  0
 21 23  1  0  0  0
 23 24  1  0  0  0
 24 25  1  0  0  0
 25 26  1  0  0  0
 26 27  1  0  0  0
 26 28  1  0  0  0
 28 29  1  0  0  0
  5  6  2  0  0  0
  6  1  1  0  0  0
 11  7  1  0  0  0
 29 23  1  0  0  0
 15 16  1  0  0  0
 13 14  1  0  0  0
 21 22  1  0  0  0
 27 30  1  0  0  0
M  END
> <minimizedAffinity>
-7.14354

> <CNNscore>
0.8278521895

> <CNNaffinity>
6.8746786118

> <CNN_VS>
5.6912178993

> <CNNaffinity_variance>
0.1582907587

$$$$
[H]OC([H])([H])c1nc(-c2c([H])nc(N([H])C([H])([H])C([H])([H])C([H])([H])C([H])([H])[H])nc2N([H])[C@]2([H])C([H])([H])C([H])([H])[C@@]([H])(O[H])C([H])([H])C2([H])[H])sc1[H]


 30 32  0  0  0  0  0  0  0  0999 V2000
    4.3324    1.5949   18.9570 C   0  0  0  0  0  0  0  0  0  0  0  0
    3.4580    0.8681   18.2342 N   0  0  0  0  0  0  0  0  0  0  0  0
    3.1499    1.2690   16.9988 C   0  0  0  0  0  0  0  0  0  0  0  0
    3.7293    2.4198   16.4788 C   0  0  0  0  0  0  0  0  0  0  0  0
    4.5982    3.1385   17.2022 C   0  0  0  0  0  0  0  0  0  0  0  0
    4.8924    2.6956   18.4715 N   0  0  0  0  0  0  0  0  0  0  0  0
    3.3324    2.7913   15.1031 C   0  0  0  0  0  0  0  0  0  0  0  0
    4.0632    3.5445   14.2718 N   0  0  0  0  0  0  0  0  0  0  0  0
    3.6388    3.8175   13.0912 C   0  0  0  0  0  0  0  0  0  0  0  0
    2.4182    3.3133   12.7149 C   0  0  0  0  0  0  0  0  0  0  0  0
    1.9815    2.4720   14.1277 S   0  0  0  0  0  0  0  0  0  0  0  0
    4.4250    4.6692   12.1018 C   0  0  0  0  0  0  0  0  0  0  0  0
    4.6273    5.9421   12.5792 O   0  0  0  0  0  0  0  0  0  0  0  0
    3.9677    6.5468   12.1836 H   0  0  0  0  0  0  0  0  0  0  0  0
    4.6278    1.1206   20.2757 N   0  0  0  0  0  0  0  0  0  0  0  0
    4.5106    0.0956   20.4505 H   0  0  0  0  0  0  0  0  0  0  0  0
    5.0660    1.9959   21.3241 C   0  0  0  0  0  0  0  0  0  0  0  0
    4.2719    1.7874   22.5687 C   0  0  0  0  0  0  0  0  0  0  0  0
    3.7242    4.0677   23.4521 C   0  0  0  0  0  0  0  0  0  0  0  0
    4.5247    2.8089   23.6319 C   0  0  0  0  0  0  0  0  0  0  0  0
    5.2399    4.3172   16.7726 N   0  0  0  0  0  0  0  0  0  0  0  0
    6.1195    4.3658   16.2572 H   0  0  0  0  0  0  0  0  0  0  0  0
    4.6003    5.5986   17.0855 C   0  0  0  0  0  0  0  0  0  0  0  0
    3.2704    5.4204   17.7732 C   0  0  0  0  0  0  0  0  0  0  0  0
    3.2326    6.3408   18.9723 C   0  0  0  0  0  0  0  0  0  0  0  0
    4.3256    5.8846   19.9403 C   0  0  0  0  0  0  0  0  0  0  0  0
    4.2618    6.7106   21.0696 O   0  0  0  0  0  0  0  0  0  0  0  0
    5.6769    6.0526   19.3058 C   0  0  0  0  0  0  0  0  0  0  0  0
    5.5119    6.4945   17.8580 C   0  0  0  0  0  0  0  0  0  0  0  0
    3.9032    7.5935   20.7758 H   0  0  0  0  0  0  0  0  0  0  0  0
 19 20  1  0  0  0
 20 18  1  0  0  0
 18 17  1  0  0  0
 17 15  1  0  0  0
 15  1  1  0  0  0
  1  2  2  0  0  0
  2  3  1  0  0  0
  3  4  2  0  0  0
  4  7  1  0  0  0
  7  8  2  0  0  0
  8  9  1  0  0  0
  9 12  1  0  0  0
 12 13  1  0  0  0
  9 10  2  0  0  0
 10 11  1  0  0  0
  4  5  1  0  0  0
  5 21  1  0  0  0
 21 23  1  0  0  0
 23 24  1  0  0  0
 24 25  1  0  0  0
 25 26  1  0  0  0
 26 27  1  0  0  0
 26 28  1  0  0  0
 28 29  1  0  0  0
  5  6  2  0  0  0
  6  1  1  0  0  0
 11  7  1  0  0  0
 29 23  1  0  0  0
 15 16  1  0  0  0
 13 14  1  0  0  0
 21 22  1  0  0  0
 27 30  1  0  0  0
M  END
> <minimizedAffinity>
-7.05773

> <CNNscore>
0.6516520381

> <CNNaffinity>
6.5551576614

> <CNN_VS>
4.2716817856

> <CNNaffinity_variance>
0.2142301500

$$$$
[H]OC([H])([H])c1nc(-c2c([H])nc(N([H])C([H])([H])C([H])([H])C([H])([H])C([H])([H])[H])nc2N([H])[C@]2([H])C([H])([H])C([H])([H])[C@@]([H])(O[H])C([H])([H])C2([H])[H])sc1[H]


 30 32  0  0  0  0  0  0  0  0999 V2000
    3.1171    0.6077   17.9411 C   0  0  0  0  0  0  0  0  0  0  0  0
    2.6555    0.4620   16.6838 N   0  0  0  0  0  0  0  0  0  0  0  0
    2.7987    1.4709   15.8215 C   0  0  0  0  0  0  0  0  0  0  0  0
    3.4160    2.6475   16.2277 C   0  0  0  0  0  0  0  0  0  0  0  0
    3.8730    2.7867   17.4793 C   0  0  0  0  0  0  0  0  0  0  0  0
    3.7083    1.7263   18.3409 N   0  0  0  0  0  0  0  0  0  0  0  0
    3.5331    3.7137   15.2091 C   0  0  0  0  0  0  0  0  0  0  0  0
    3.6493    5.0202   15.4773 N   0  0  0  0  0  0  0  0  0  0  0  0
    3.7461    5.8779   14.5267 C   0  0  0  0  0  0  0  0  0  0  0  0
    3.7262    5.4107   13.2356 C   0  0  0  0  0  0  0  0  0  0  0  0
    3.5662    3.7398   13.5131 S   0  0  0  0  0  0  0  0  0  0  0  0
    3.8800    7.3763   14.7700 C   0  0  0  0  0  0  0  0  0  0  0  0
    5.1727    7.7248   15.0806 O   0  0  0  0  0  0  0  0  0  0  0  0
    5.2606    7.8184   16.0505 H   0  0  0  0  0  0  0  0  0  0  0  0
    2.9380   -0.5048   18.8251 N   0  0  0  0  0  0  0  0  0  0  0  0
    3.1430   -1.4562   18.4409 H   0  0  0  0  0  0  0  0  0  0  0  0
    2.4979   -0.3427   20.1806 C   0  0  0  0  0  0  0  0  0  0  0  0
    3.6341   -0.4762   21.1368 C   0  0  0  0  0  0  0  0  0  0  0  0
    3.8125    1.8926   21.9350 C   0  0  0  0  0  0  0  0  0  0  0  0
    3.5627    0.4575   22.3033 C   0  0  0  0  0  0  0  0  0  0  0  0
    4.5108    3.9336   17.9929 N   0  0  0  0  0  0  0  0  0  0  0  0
    5.2040    4.5018   17.5048 H   0  0  0  0  0  0  0  0  0  0  0  0
    4.1586    4.3639   19.3494 C   0  0  0  0  0  0  0  0  0  0  0  0
    5.3487    4.8958   20.1069 C   0  0  0  0  0  0  0  0  0  0  0  0
    4.9504    6.2039   20.7525 C   0  0  0  0  0  0  0  0  0  0  0  0
    4.6278    7.1936   19.6318 C   0  0  0  0  0  0  0  0  0  0  0  0
    4.3005    8.4172   20.2296 O   0  0  0  0  0  0  0  0  0  0  0  0
    3.4378    6.7146   18.8499 C   0  0  0  0  0  0  0  0  0  0  0  0
    3.0234    5.3342   19.3415 C   0  0  0  0  0  0  0  0  0  0  0  0
    3.9159    8.2188   21.1280 H   0  0  0  0  0  0  0  0  0  0  0  0
 19 20  1  0  0  0
 20 18  1  0  0  0
 18 17  1  0  0  0
 17 15  1  0  0  0
 15  1  1  0  0  0
  1  2  2  0  0  0
  2  3  1  0  0  0
  3  4  2  0  0  0
  4  7  1  0  0  0
  7  8  2  0  0  0
  8  9  1  0  0  0
  9 12  1  0  0  0
 12 13  1  0  0  0
  9 10  2  0  0  0
 10 11  1  0  0  0
  4  5  1  0  0  0
  5 21  1  0  0  0
 21 23  1  0  0  0
 23 24  1  0  0  0
 24 25  1  0  0  0
 25 26  1  0  0  0
 26 27  1  0  0  0
 26 28  1  0  0  0
 28 29  1  0  0  0
  5  6  2  0  0  0
  6  1  1  0  0  0
 11  7  1  0  0  0
 29 23  1  0  0  0
 15 16  1  0  0  0
 13 14  1  0  0  0
 21 22  1  0  0  0
 27 30  1  0  0  0
M  END
> <minimizedAffinity>
-6.68717

> <CNNscore>
0.5911374688

> <CNNaffinity>
6.5689291954

> <CNN_VS>
3.8831400871

> <CNNaffinity_variance>
0.2256283760

$$$$
[H]OC([H])([H])c1nc(-c2c([H])nc(N([H])C([H])([H])C([H])([H])C([H])([H])C([H])([H])[H])nc2N([H])[C@]2([H])C([H])([H])C([H])([H])[C@@]([H])(O[H])C([H])([H])C2([H])[H])sc1[H]


 30 32  0  0  0  0  0  0  0  0999 V2000
    3.6651    2.0565   16.1692 C   0  0  0  0  0  0  0  0  0  0  0  0
    3.5257    1.0083   17.0041 N   0  0  0  0  0  0  0  0  0  0  0  0
    3.8776    1.1499   18.2840 C   0  0  0  0  0  0  0  0  0  0  0  0
    4.3785    2.3650   18.7347 C   0  0  0  0  0  0  0  0  0  0  0  0
    4.5149    3.4038   17.8998 C   0  0  0  0  0  0  0  0  0  0  0  0
    4.1422    3.2218   16.5877 N   0  0  0  0  0  0  0  0  0  0  0  0
    4.7434    2.4348   20.1664 C   0  0  0  0  0  0  0  0  0  0  0  0
    4.2512    3.3218   21.0402 N   0  0  0  0  0  0  0  0  0  0  0  0
    4.6258    3.3086   22.2682 C   0  0  0  0  0  0  0  0  0  0  0  0
    5.5420    2.3597   22.6501 C   0  0  0  0  0  0  0  0  0  0  0  0
    5.7872    1.5533   21.1722 S   0  0  0  0  0  0  0  0  0  0  0  0
    4.1016    4.2922   23.3074 C   0  0  0  0  0  0  0  0  0  0  0  0
    4.8339    5.4554   23.3176 O   0  0  0  0  0  0  0  0  0  0  0  0
    5.4841    5.4244   24.0480 H   0  0  0  0  0  0  0  0  0  0  0  0
    3.2728    1.8507   14.8072 N   0  0  0  0  0  0  0  0  0  0  0  0
    3.6644    1.0113   14.3204 H   0  0  0  0  0  0  0  0  0  0  0  0
    2.3834    2.7442   14.1231 C   0  0  0  0  0  0  0  0  0  0  0  0
    2.9212    3.1214   12.7846 C   0  0  0  0  0  0  0  0  0  0  0  0
    1.2288    1.7170   11.5830 C   0  0  0  0  0  0  0  0  0  0  0  0
    2.6751    2.1011   11.7187 C   0  0  0  0  0  0  0  0  0  0  0  0
    5.0116    4.6747   18.2520 N   0  0  0  0  0  0  0  0  0  0  0  0
    5.9494    4.8747   18.6015 H   0  0  0  0  0  0  0  0  0  0  0  0
    4.1137    5.8248   18.1099 C   0  0  0  0  0  0  0  0  0  0  0  0
    3.9065    6.5523   19.4141 C   0  0  0  0  0  0  0  0  0  0  0  0
    4.0841    8.0326   19.1616 C   0  0  0  0  0  0  0  0  0  0  0  0
    5.5328    8.2569   18.7249 C   0  0  0  0  0  0  0  0  0  0  0  0
    5.7082    9.6330   18.5328 O   0  0  0  0  0  0  0  0  0  0  0  0
    5.7900    7.5593   17.4195 C   0  0  0  0  0  0  0  0  0  0  0  0
    4.5658    6.7448   17.0238 C   0  0  0  0  0  0  0  0  0  0  0  0
    4.8250   10.0143   18.2698 H   0  0  0  0  0  0  0  0  0  0  0  0
 19 20  1  0  0  0
 20 18  1  0  0  0
 18 17  1  0  0  0
 17 15  1  0  0  0
 15  1  1  0  0  0
  1  2  2  0  0  0
  2  3  1  0  0  0
  3  4  2  0  0  0
  4  7  1  0  0  0
  7  8  2  0  0  0
  8  9  1  0  0  0
  9 12  1  0  0  0
 12 13  1  0  0  0
  9 10  2  0  0  0
 10 11  1  0  0  0
  4  5  1  0  0  0
  5 21  1  0  0  0
 21 23  1  0  0  0
 23 24  1  0  0  0
 24 25  1  0  0  0
 25 26  1  0  0  0
 26 27  1  0  0  0
 26 28  1  0  0  0
 28 29  1  0  0  0
  5  6  2  0  0  0
  6  1  1  0  0  0
 11  7  1  0  0  0
 29 23  1  0  0  0
 15 16  1  0  0  0
 13 14  1  0  0  0
 21 22  1  0  0  0
 27 30  1  0  0  0
M  END
> <minimizedAffinity>
-6.70115

> <CNNscore>
0.5666502714

> <CNNaffinity>
6.5169205666

> <CNN_VS>
3.6928148270

> <CNNaffinity_variance>
0.3456999063

$$$$
[H]OC([H])([H])c1nc(-c2c([H])nc(N([H])C([H])([H])C([H])([H])C([H])([H])C([H])([H])[H])nc2N([H])[C@]2([H])C([H])([H])C([H])([H])[C@@]([H])(O[H])C([H])([H])C2([H])[H])sc1[H]


 30 32  0  0  0  0  0  0  0  0999 V2000
    3.4659    1.7901   15.8596 C   0  0  0  0  0  0  0  0  0  0  0  0
    2.7503    0.8360   16.4864 N   0  0  0  0  0  0  0  0  0  0  0  0
    2.8625    0.7089   17.8105 C   0  0  0  0  0  0  0  0  0  0  0  0
    3.7080    1.5540   18.5188 C   0  0  0  0  0  0  0  0  0  0  0  0
    4.4171    2.5008   17.8900 C   0  0  0  0  0  0  0  0  0  0  0  0
    4.2765    2.6031   16.5248 N   0  0  0  0  0  0  0  0  0  0  0  0
    3.7722    1.3441   19.9816 C   0  0  0  0  0  0  0  0  0  0  0  0
    4.0326    2.3000   20.8821 N   0  0  0  0  0  0  0  0  0  0  0  0
    4.0683    2.0264   22.1360 C   0  0  0  0  0  0  0  0  0  0  0  0
    3.8318    0.7285   22.5172 C   0  0  0  0  0  0  0  0  0  0  0  0
    3.5733    0.0023   21.0005 S   0  0  0  0  0  0  0  0  0  0  0  0
    4.3598    3.0711   23.2065 C   0  0  0  0  0  0  0  0  0  0  0  0
    5.4778    2.7478   23.9377 O   0  0  0  0  0  0  0  0  0  0  0  0
    5.2064    2.3312   24.7804 H   0  0  0  0  0  0  0  0  0  0  0  0
    3.3083    1.8833   14.4391 N   0  0  0  0  0  0  0  0  0  0  0  0
    3.2964    0.9858   13.9013 H   0  0  0  0  0  0  0  0  0  0  0  0
    3.1713    3.1419   13.7647 C   0  0  0  0  0  0  0  0  0  0  0  0
    1.9041    3.8261   14.1509 C   0  0  0  0  0  0  0  0  0  0  0  0
    3.5211    5.6281   14.7978 C   0  0  0  0  0  0  0  0  0  0  0  0
    2.1053    5.1285   14.8587 C   0  0  0  0  0  0  0  0  0  0  0  0
    5.3012    3.4060   18.5103 N   0  0  0  0  0  0  0  0  0  0  0  0
    6.1192    3.1567   19.0674 H   0  0  0  0  0  0  0  0  0  0  0  0
    5.0373    4.8393   18.3515 C   0  0  0  0  0  0  0  0  0  0  0  0
    3.6134    5.1991   18.6921 C   0  0  0  0  0  0  0  0  0  0  0  0
    3.6369    6.4059   19.6028 C   0  0  0  0  0  0  0  0  0  0  0  0
    4.3388    5.9944   20.8980 C   0  0  0  0  0  0  0  0  0  0  0  0
    4.3222    7.1001   21.7576 O   0  0  0  0  0  0  0  0  0  0  0  0
    5.7699    5.6352   20.6154 C   0  0  0  0  0  0  0  0  0  0  0  0
    6.0193    5.6673   19.1135 C   0  0  0  0  0  0  0  0  0  0  0  0
    4.3116    7.9206   21.1909 H   0  0  0  0  0  0  0  0  0  0  0  0
 19 20  1  0  0  0
 20 18  1  0  0  0
 18 17  1  0  0  0
 17 15  1  0  0  0
 15  1  1  0  0  0
  1  2  2  0  0  0
  2  3  1  0  0  0
  3  4  2  0  0  0
  4  7  1  0  0  0
  7  8  2  0  0  0
  8  9  1  0  0  0
  9 12  1  0  0  0
 12 13  1  0  0  0
  9 10  2  0  0  0
 10 11  1  0  0  0
  4  5  1  0  0  0
  5 21  1  0  0  0
 21 23  1  0  0  0
 23 24  1  0  0  0
 24 25  1  0  0  0
 25 26  1  0  0  0
 26 27  1  0  0  0
 26 28  1  0  0  0
 28 29  1  0  0  0
  5  6  2  0  0  0
  6  1  1  0  0  0
 11  7  1  0  0  0
 29 23  1  0  0  0
 15 16  1  0  0  0
 13 14  1  0  0  0
 21 22  1  0  0  0
 27 30  1  0  0  0
M  END
> <minimizedAffinity>
-6.95275

> <CNNscore>
0.5466841459

> <CNNaffinity>
6.5852150917

> <CNN_VS>
3.6000328064

> <CNNaffinity_variance>
0.1708040535

$$$$
[H]OC([H])([H])c1nc(-c2c([H])nc(N([H])C([H])([H])C([H])([H])C([H])([H])C([H])([H])[H])nc2N([H])[C@]2([H])C([H])([H])C([H])([H])[C@@]([H])(O[H])C([H])([H])C2([H])[H])sc1[H]


 30 32  0  0  0  0  0  0  0  0999 V2000
    4.1320    1.2878   19.4332 C   0  0  0  0  0  0  0  0  0  0  0  0
    3.3557    0.8496   18.4229 N   0  0  0  0  0  0  0  0  0  0  0  0
    3.2535    1.5912   17.3177 C   0  0  0  0  0  0  0  0  0  0  0  0
    3.9422    2.7943   17.2241 C   0  0  0  0  0  0  0  0  0  0  0  0
    4.7126    3.2249   18.2320 C   0  0  0  0  0  0  0  0  0  0  0  0
    4.7946    2.4348   19.3557 N   0  0  0  0  0  0  0  0  0  0  0  0
    3.7727    3.5522   15.9652 C   0  0  0  0  0  0  0  0  0  0  0  0
    3.8396    4.8851   15.8583 N   0  0  0  0  0  0  0  0  0  0  0  0
    3.6798    5.4599   14.7214 C   0  0  0  0  0  0  0  0  0  0  0  0
    3.4395    4.6649   13.6279 C   0  0  0  0  0  0  0  0  0  0  0  0
    3.4662    3.1255   14.3521 S   0  0  0  0  0  0  0  0  0  0  0  0
    3.7442    6.9714   14.5381 C   0  0  0  0  0  0  0  0  0  0  0  0
    4.8193    7.3419   13.7661 O   0  0  0  0  0  0  0  0  0  0  0  0
    5.5499    7.6376   14.3459 H   0  0  0  0  0  0  0  0  0  0  0  0
    4.2066    0.4540   20.5953 N   0  0  0  0  0  0  0  0  0  0  0  0
    3.7821   -0.4998   20.5252 H   0  0  0  0  0  0  0  0  0  0  0  0
    4.8314    0.8889   21.8110 C   0  0  0  0  0  0  0  0  0  0  0  0
    3.8462    1.5392   22.7217 C   0  0  0  0  0  0  0  0  0  0  0  0
    3.7306    3.9225   23.4879 C   0  0  0  0  0  0  0  0  0  0  0  0
    4.4334    2.5990   23.5990 C   0  0  0  0  0  0  0  0  0  0  0  0
    5.4498    4.4259   18.2407 N   0  0  0  0  0  0  0  0  0  0  0  0
    6.0114    4.7887   17.4696 H   0  0  0  0  0  0  0  0  0  0  0  0
    5.4186    5.2402   19.4593 C   0  0  0  0  0  0  0  0  0  0  0  0
    6.1706    6.5371   19.2991 C   0  0  0  0  0  0  0  0  0  0  0  0
    5.2993    7.6554   19.8252 C   0  0  0  0  0  0  0  0  0  0  0  0
    4.0523    7.7246   18.9422 C   0  0  0  0  0  0  0  0  0  0  0  0
    3.2662    8.7881   19.4034 O   0  0  0  0  0  0  0  0  0  0  0  0
    3.2582    6.4562   19.0739 C   0  0  0  0  0  0  0  0  0  0  0  0
    4.0213    5.4612   19.9378 C   0  0  0  0  0  0  0  0  0  0  0  0
    3.4471    8.8942   20.3784 H   0  0  0  0  0  0  0  0  0  0  0  0
 19 20  1  0  0  0
 20 18  1  0  0  0
 18 17  1  0  0  0
 17 15  1  0  0  0
 15  1  1  0  0  0
  1  2  2  0  0  0
  2  3  1  0  0  0
  3  4  2  0  0  0
  4  7  1  0  0  0
  7  8  2  0  0  0
  8  9  1  0  0  0
  9 12  1  0  0  0
 12 13  1  0  0  0
  9 10  2  0  0  0
 10 11  1  0  0  0
  4  5  1  0  0  0
  5 21  1  0  0  0
 21 23  1  0  0  0
 23 24  1  0  0  0
 24 25  1  0  0  0
 25 26  1  0  0  0
 26 27  1  0  0  0
 26 28  1  0  0  0
 28 29  1  0  0  0
  5  6  2  0  0  0
  6  1  1  0  0  0
 11  7  1  0  0  0
 29 23  1  0  0  0
 15 16  1  0  0  0
 13 14  1  0  0  0
 21 22  1  0  0  0
 27 30  1  0  0  0
M  END
> <minimizedAffinity>
-7.10904

> <CNNscore>
0.4803806543

> <CNNaffinity>
6.3287267685

> <CNN_VS>
3.0401978493

> <CNNaffinity_variance>
0.3356691003

$$$$
[H]OC([H])([H])c1nc(-c2c([H])nc(N([H])C([H])([H])C([H])([H])C([H])([H])C([H])([H])[H])nc2N([H])[C@]2([H])C([H])([H])C([H])([H])[C@@]([H])(O[H])C([H])([H])C2([H])[H])sc1[H]


 30 32  0  0  0  0  0  0  0  0999 V2000
    4.4615    1.8401   20.0733 C   0  0  0  0  0  0  0  0  0  0  0  0
    4.0769    0.8700   19.2213 N   0  0  0  0  0  0  0  0  0  0  0  0
    3.6558    1.2107   18.0012 C   0  0  0  0  0  0  0  0  0  0  0  0
    3.6198    2.5489   17.6290 C   0  0  0  0  0  0  0  0  0  0  0  0
    4.0035    3.5092   18.4806 C   0  0  0  0  0  0  0  0  0  0  0  0
    4.4317    3.1214   19.7296 N   0  0  0  0  0  0  0  0  0  0  0  0
    3.1403    2.8373   16.2597 C   0  0  0  0  0  0  0  0  0  0  0  0
    2.5300    3.9681   15.8839 N   0  0  0  0  0  0  0  0  0  0  0  0
    2.1464    4.1332   14.6698 C   0  0  0  0  0  0  0  0  0  0  0  0
    2.3826    3.1162   13.7777 C   0  0  0  0  0  0  0  0  0  0  0  0
    3.1537    1.9879   14.7912 S   0  0  0  0  0  0  0  0  0  0  0  0
    1.4469    5.3968   14.1838 C   0  0  0  0  0  0  0  0  0  0  0  0
    1.0358    6.1830   15.2335 O   0  0  0  0  0  0  0  0  0  0  0  0
    0.0846    6.0286   15.4030 H   0  0  0  0  0  0  0  0  0  0  0  0
    4.9044    1.4199   21.3689 N   0  0  0  0  0  0  0  0  0  0  0  0
    4.9715    0.3895   21.5383 H   0  0  0  0  0  0  0  0  0  0  0  0
    5.2455    2.3547   22.4021 C   0  0  0  0  0  0  0  0  0  0  0  0
    4.1008    2.5725   23.3323 C   0  0  0  0  0  0  0  0  0  0  0  0
    4.6377    4.9602   22.7926 C   0  0  0  0  0  0  0  0  0  0  0  0
    3.7127    4.0079   23.4964 C   0  0  0  0  0  0  0  0  0  0  0  0
    4.0051    4.8914   18.2058 N   0  0  0  0  0  0  0  0  0  0  0  0
    3.2999    5.3950   17.6665 H   0  0  0  0  0  0  0  0  0  0  0  0
    5.1121    5.6939   18.7345 C   0  0  0  0  0  0  0  0  0  0  0  0
    6.0362    6.1794   17.6466 C   0  0  0  0  0  0  0  0  0  0  0  0
    6.2887    7.6540   17.8659 C   0  0  0  0  0  0  0  0  0  0  0  0
    4.9527    8.3811   17.7050 C   0  0  0  0  0  0  0  0  0  0  0  0
    5.1949    9.7512   17.8657 O   0  0  0  0  0  0  0  0  0  0  0  0
    3.9953    7.9402   18.7755 C   0  0  0  0  0  0  0  0  0  0  0  0
    4.6197    6.8149   19.5895 C   0  0  0  0  0  0  0  0  0  0  0  0
    5.9824    9.8478   18.4699 H   0  0  0  0  0  0  0  0  0  0  0  0
 19 20  1  0  0  0
 20 18  1  0  0  0
 18 17  1  0  0  0
 17 15  1  0  0  0
 15  1  1  0  0  0
  1  2  2  0  0  0
  2  3  1  0  0  0
  3  4  2  0  0  0
  4  7  1  0  0  0
  7  8  2  0  0  0
  8  9  1  0  0  0
  9 12  1  0  0  0
 12 13  1  0  0  0
  9 10  2  0  0  0
 10 11  1  0  0  0
  4  5  1  0  0  0
  5 21  1  0  0  0
 21 23  1  0  0  0
 23 24  1  0  0  0
 24 25  1  0  0  0
 25 26  1  0  0  0
 26 27  1  0  0  0
 26 28  1  0  0  0
 28 29  1  0  0  0
  5  6  2  0  0  0
  6  1  1  0  0  0
 11  7  1  0  0  0
 29 23  1  0  0  0
 15 16  1  0  0  0
 13 14  1  0  0  0
 21 22  1  0  0  0
 27 30  1  0  0  0
M  END
> <minimizedAffinity>
-6.73733

> <CNNscore>
0.4025223553

> <CNNaffinity>
6.3883137703

> <CNN_VS>
2.5714390278

> <CNNaffinity_variance>
0.3247599006

$$$$
[H]OC([H])([H])c1nc(-c2c([H])nc(N([H])C([H])([H])C([H])([H])C([H])([H])C([H])([H])[H])nc2N([H])[C@]2([H])C([H])([H])C([H])([H])[C@@]([H])(O[H])C([H])([H])C2([H])[H])sc1[H]


 30 32  0  0  0  0  0  0  0  0999 V2000
    4.3951    3.1573   17.3467 C   0  0  0  0  0  0  0  0  0  0  0  0
    3.8516    1.9874   16.9579 N   0  0  0  0  0  0  0  0  0  0  0  0
    3.3285    1.8928   15.7333 C   0  0  0  0  0  0  0  0  0  0  0  0
    3.3508    2.9916   14.8833 C   0  0  0  0  0  0  0  0  0  0  0  0
    3.8926    4.1525   15.2755 C   0  0  0  0  0  0  0  0  0  0  0  0
    4.4224    4.2137   16.5441 N   0  0  0  0  0  0  0  0  0  0  0  0
    2.7501    2.7997   13.5454 C   0  0  0  0  0  0  0  0  0  0  0  0
    3.3009    3.2018   12.3933 N   0  0  0  0  0  0  0  0  0  0  0  0
    2.7066    2.9921   11.2747 C   0  0  0  0  0  0  0  0  0  0  0  0
    1.4952    2.3458   11.3023 C   0  0  0  0  0  0  0  0  0  0  0  0
    1.3172    2.0925   12.9753 S   0  0  0  0  0  0  0  0  0  0  0  0
    3.2834    3.4267    9.9329 C   0  0  0  0  0  0  0  0  0  0  0  0
    4.3574    2.6502    9.5685 O   0  0  0  0  0  0  0  0  0  0  0  0
    5.1876    3.1190    9.7883 H   0  0  0  0  0  0  0  0  0  0  0  0
    4.9419    3.2044   18.6695 N   0  0  0  0  0  0  0  0  0  0  0  0
    5.6312    3.9649   18.8732 H   0  0  0  0  0  0  0  0  0  0  0  0
    4.5739    2.2599   19.6844 C   0  0  0  0  0  0  0  0  0  0  0  0
    5.5528    2.2672   20.8091 C   0  0  0  0  0  0  0  0  0  0  0  0
    3.5915    1.3356   22.0604 C   0  0  0  0  0  0  0  0  0  0  0  0
    5.0777    1.5552   22.0359 C   0  0  0  0  0  0  0  0  0  0  0  0
    3.9658    5.3241   14.4958 N   0  0  0  0  0  0  0  0  0  0  0  0
    4.5977    5.4811   13.7099 H   0  0  0  0  0  0  0  0  0  0  0  0
    3.0598    6.4271   14.8298 C   0  0  0  0  0  0  0  0  0  0  0  0
    3.6248    7.7689   14.4382 C   0  0  0  0  0  0  0  0  0  0  0  0
    2.5486    8.5381   13.7057 C   0  0  0  0  0  0  0  0  0  0  0  0
    2.2258    7.7727   12.4213 C   0  0  0  0  0  0  0  0  0  0  0  0
    1.2599    8.5078   11.7226 O   0  0  0  0  0  0  0  0  0  0  0  0
    1.6471    6.4274   12.7563 C   0  0  0  0  0  0  0  0  0  0  0  0
    1.6955    6.2094   14.2626 C   0  0  0  0  0  0  0  0  0  0  0  0
    0.7258    9.0161   12.3941 H   0  0  0  0  0  0  0  0  0  0  0  0
 19 20  1  0  0  0
 20 18  1  0  0  0
 18 17  1  0  0  0
 17 15  1  0  0  0
 15  1  1  0  0  0
  1  2  2  0  0  0
  2  3  1  0  0  0
  3  4  2  0  0  0
  4  7  1  0  0  0
  7  8  2  0  0  0
  8  9  1  0  0  0
  9 12  1  0  0  0
 12 13  1  0  0  0
  9 10  2  0  0  0
 10 11  1  0  0  0
  4  5  1  0  0  0
  5 21  1  0  0  0
 21 23  1  0  0  0
 23 24  1  0  0  0
 24 25  1  0  0  0
 25 26  1  0  0  0
 26 27  1  0  0  0
 26 28  1  0  0  0
 28 29  1  0  0  0
  5  6  2  0  0  0
  6  1  1  0  0  0
 11  7  1  0  0  0
 29 23  1  0  0  0
 15 16  1  0  0  0
 13 14  1  0  0  0
 21 22  1  0  0  0
 27 30  1  0  0  0
M  END
> <minimizedAffinity>
-5.84305

> <CNNscore>
0.2850646377

> <CNNaffinity>
5.8700170517

> <CNN_VS>
1.6733342409

> <CNNaffinity_variance>
0.2246438265

$$$$
[H]OC([H])([H])c1nc(-c2c([H])nc(N([H])C([H])([H])C([H])([H])C([H])([H])C([H])([H])[H])nc2N([H])[C@]2([H])C([H])([H])C([H])([H])[C@@]([H])(O[H])C([H])([H])C2([H])[H])sc1[H]


 30 32  0  0  0  0  0  0  0  0999 V2000
    3.5129    2.6373   16.4977 C   0  0  0  0  0  0  0  0  0  0  0  0
    3.4744    3.8871   15.9960 N   0  0  0  0  0  0  0  0  0  0  0  0
    3.9569    4.8931   16.7290 C   0  0  0  0  0  0  0  0  0  0  0  0
    4.4875    4.6410   17.9881 C   0  0  0  0  0  0  0  0  0  0  0  0
    4.5231    3.3960   18.4818 C   0  0  0  0  0  0  0  0  0  0  0  0
    4.0171    2.3838   17.6987 N   0  0  0  0  0  0  0  0  0  0  0  0
    4.9998    5.8124   18.7319 C   0  0  0  0  0  0  0  0  0  0  0  0
    4.3534    6.9770   18.8668 N   0  0  0  0  0  0  0  0  0  0  0  0
    4.8755    7.9428   19.5324 C   0  0  0  0  0  0  0  0  0  0  0  0
    6.1111    7.7400   20.0963 C   0  0  0  0  0  0  0  0  0  0  0  0
    6.4165    6.1397   19.6060 S   0  0  0  0  0  0  0  0  0  0  0  0
    4.1885    9.2901   19.7195 C   0  0  0  0  0  0  0  0  0  0  0  0
    2.8739    9.2473   19.3204 O   0  0  0  0  0  0  0  0  0  0  0  0
    2.7950    9.6200   18.4192 H   0  0  0  0  0  0  0  0  0  0  0  0
    2.9825    1.5955   15.6704 N   0  0  0  0  0  0  0  0  0  0  0  0
    2.6150    0.7436   16.1542 H   0  0  0  0  0  0  0  0  0  0  0  0
    2.9477    1.6964   14.2399 C   0  0  0  0  0  0  0  0  0  0  0  0
    1.6069    2.1407   13.7626 C   0  0  0  0  0  0  0  0  0  0  0  0
    0.2981    3.7781   12.3891 C   0  0  0  0  0  0  0  0  0  0  0  0
    1.6538    3.2377   12.7466 C   0  0  0  0  0  0  0  0  0  0  0  0
    5.0363    3.0320   19.7427 N   0  0  0  0  0  0  0  0  0  0  0  0
    6.0167    2.8491   19.9595 H   0  0  0  0  0  0  0  0  0  0  0  0
    4.0907    2.8994   20.8551 C   0  0  0  0  0  0  0  0  0  0  0  0
    4.0608    1.5001   21.4156 C   0  0  0  0  0  0  0  0  0  0  0  0
    4.1501    1.5937   22.9222 C   0  0  0  0  0  0  0  0  0  0  0  0
    5.5076    2.2080   23.2678 C   0  0  0  0  0  0  0  0  0  0  0  0
    5.6074    2.2548   24.6640 O   0  0  0  0  0  0  0  0  0  0  0  0
    5.5858    3.6122   22.7396 C   0  0  0  0  0  0  0  0  0  0  0  0
    4.3426    3.9199   21.9159 C   0  0  0  0  0  0  0  0  0  0  0  0
    4.6827    2.3367   25.0283 H   0  0  0  0  0  0  0  0  0  0  0  0
 19 20  1  0  0  0
 20 18  1  0  0  0
 18 17  1  0  0  0
 17 15  1  0  0  0
 15  1  1  0  0  0
  1  2  2  0  0  0
  2  3  1  0  0  0
  3  4  2  0  0  0
  4  7  1  0  0  0
  7  8  2  0  0  0
  8  9  1  0  0  0
  9 12  1  0  0  0
 12 13  1  0  0  0
  9 10  2  0  0  0
 10 11  1  0  0  0
  4  5  1  0  0  0
  5 21  1  0  0  0
 21 23  1  0  0  0
 23 24  1  0  0  0
 24 25  1  0  0  0
 25 26  1  0  0  0
 26 27  1  0  0  0
 26 28  1  0  0  0
 28 29  1  0  0  0
  5  6  2  0  0  0
  6  1  1  0  0  0
 11  7  1  0  0  0
 29 23  1  0  0  0
 15 16  1  0  0  0
 13 14  1  0  0  0
 21 22  1  0  0  0
 27 30  1  0  0  0
M  END
> <minimizedAffinity>
-6.82359

> <CNNscore>
0.2775414884

> <CNNaffinity>
6.2950692177

> <CNN_VS>
1.7471429110

> <CNNaffinity_variance>
0.2366636693

$$$$
