[H]N(C(=O)[C@]([H])(C(=O)C([H])([H])[H])C([H])([H])[H])[C@]([H])(C(=O)N([H])[C@]([H])(C(=O)N([H])[C@]([H])(C(=O)N([H])[C@]([H])(C(=O)N([H])[C@]([H])(C(=O)N([H])[C@]([H])(C(=O)N([H])[C@]([H])(C(=O)N1C([H])([H])C([H])([H])C([H])([H])[C@]1([H])C(=O)N(C([H])([H])[H])C([H])([H])[H])C([H])([H])C([H])(C([H])([H])[H])C([H])([H])[H])C([H])([H])[H])C([H])([H])[H])C([H])([H])[H])C([H])([H])[H])C([H])([H])[H])C([H])([H])[H]


 62 62  0  0  0  0  0  0  0  0999 V2000
    2.9946    7.4072   13.6870 N   0  0  0  0  0  0  0  0  0  0  0  0
    3.2628    8.6873   14.2318 C   0  0  0  0  0  0  0  0  0  0  0  0
    2.4254    9.4552   14.7530 O   0  0  0  0  0  0  0  0  0  0  0  0
    3.7787    6.8597   13.2796 H   0  0  0  0  0  0  0  0  0  0  0  0
    4.6761    9.1890   14.1827 C   0  0  0  0  0  0  0  0  0  0  0  0
    4.6066   10.7278   14.0811 C   0  0  0  0  0  0  0  0  0  0  0  0
    5.3082    8.6645   12.9919 N   0  0  0  0  0  0  0  0  0  0  0  0
    6.7174    8.5662   13.0222 C   0  0  0  0  0  0  0  0  0  0  0  0
    7.3412    8.9235   14.0461 O   0  0  0  0  0  0  0  0  0  0  0  0
    4.7858    8.3728   12.1553 H   0  0  0  0  0  0  0  0  0  0  0  0
    7.4108    8.0296   11.7872 C   0  0  0  0  0  0  0  0  0  0  0  0
    8.8198    8.4371   11.6898 C   0  0  0  0  0  0  0  0  0  0  0  0
    6.5630    8.4603   10.6771 N   0  0  0  0  0  0  0  0  0  0  0  0
    5.5987    7.6317   10.1111 C   0  0  0  0  0  0  0  0  0  0  0  0
    5.4350    6.4424   10.5812 O   0  0  0  0  0  0  0  0  0  0  0  0
    6.7208    9.4277   10.3264 H   0  0  0  0  0  0  0  0  0  0  0  0
    4.6878    7.9659    8.9814 C   0  0  0  0  0  0  0  0  0  0  0  0
    3.6277    6.9566    8.7247 C   0  0  0  0  0  0  0  0  0  0  0  0
    5.5645    8.1843    7.8463 N   0  0  0  0  0  0  0  0  0  0  0  0
    5.3026    9.0242    6.7407 C   0  0  0  0  0  0  0  0  0  0  0  0
    4.2100    9.6513    6.7111 O   0  0  0  0  0  0  0  0  0  0  0  0
    6.4965    7.6598    7.8283 H   0  0  0  0  0  0  0  0  0  0  0  0
    6.3106    9.1609    5.6483 C   0  0  0  0  0  0  0  0  0  0  0  0
    6.8453   10.5948    5.6775 C   0  0  0  0  0  0  0  0  0  0  0  0
    5.6986    8.9576    4.3724 N   0  0  0  0  0  0  0  0  0  0  0  0
    6.3706    8.6863    3.1553 C   0  0  0  0  0  0  0  0  0  0  0  0
    7.6150    8.6001    3.1795 O   0  0  0  0  0  0  0  0  0  0  0  0
    4.6422    9.0147    4.3440 H   0  0  0  0  0  0  0  0  0  0  0  0
    5.5793    8.5159    1.9032 C   0  0  0  0  0  0  0  0  0  0  0  0
    6.5446    8.0662    0.8084 C   0  0  0  0  0  0  0  0  0  0  0  0
    4.6296    7.3894    2.1224 C   0  0  0  0  0  0  0  0  0  0  0  0
    5.1266    6.0210    2.4522 C   0  0  0  0  0  0  0  0  0  0  0  0
    3.4503    7.5590    2.0411 O   0  0  0  0  0  0  0  0  0  0  0  0
    1.6880    6.8470   13.6773 C   0  0  0  0  0  0  0  0  0  0  0  0
    0.8451    7.4925   12.6211 C   0  0  0  0  0  0  0  0  0  0  0  0
    2.2862    4.6743   14.7023 N   0  0  0  0  0  0  0  0  0  0  0  0
    1.7325    5.3524   13.5617 C   0  0  0  0  0  0  0  0  0  0  0  0
    1.3164    4.7806   12.5615 O   0  0  0  0  0  0  0  0  0  0  0  0
    2.6442    5.2255   15.5231 H   0  0  0  0  0  0  0  0  0  0  0  0
    2.4001    3.2436   14.8109 C   0  0  0  0  0  0  0  0  0  0  0  0
    3.3524    2.6088   13.8711 C   0  0  0  0  0  0  0  0  0  0  0  0
    3.5603    3.5574   17.0429 N   0  0  0  0  0  0  0  0  0  0  0  0
    2.6614    2.8808   16.2667 C   0  0  0  0  0  0  0  0  0  0  0  0
    1.9655    1.9196   16.6504 O   0  0  0  0  0  0  0  0  0  0  0  0
    4.0937    4.3694   16.5072 H   0  0  0  0  0  0  0  0  0  0  0  0
    3.9795    3.4648   18.4119 C   0  0  0  0  0  0  0  0  0  0  0  0
    4.9267    4.5237   18.7531 C   0  0  0  0  0  0  0  0  0  0  0  0
    5.9258    4.6675   17.9682 O   0  0  0  0  0  0  0  0  0  0  0  0
    4.8183    5.3871   19.8612 N   0  0  0  0  0  0  0  0  0  0  0  0
    3.7601    5.4460   20.8702 C   0  0  0  0  0  0  0  0  0  0  0  0
    4.5991    5.3840   22.1383 C   0  0  0  0  0  0  0  0  0  0  0  0
    5.9540    5.9664   21.7526 C   0  0  0  0  0  0  0  0  0  0  0  0
    5.7506    6.3884   20.2994 C   0  0  0  0  0  0  0  0  0  0  0  0
    5.2008    7.7352   20.3133 C   0  0  0  0  0  0  0  0  0  0  0  0
    5.1975    8.3990   21.4342 O   0  0  0  0  0  0  0  0  0  0  0  0
    4.6646    8.3992   19.2026 N   0  0  0  0  0  0  0  0  0  0  0  0
    4.5725    7.9512   17.8534 C   0  0  0  0  0  0  0  0  0  0  0  0
    4.1081    9.7584   19.4678 C   0  0  0  0  0  0  0  0  0  0  0  0
    4.4714    2.1431   18.8940 C   0  0  0  0  0  0  0  0  0  0  0  0
    3.6578    0.4219   20.4648 C   0  0  0  0  0  0  0  0  0  0  0  0
    4.3513    1.7984   20.3174 C   0  0  0  0  0  0  0  0  0  0  0  0
    5.7270    1.5645   20.9691 C   0  0  0  0  0  0  0  0  0  0  0  0
 60 61  1  0  0  0
 61 62  1  0  0  0
 61 59  1  0  0  0
 59 46  1  0  0  0
 46 42  1  0  0  0
 42 43  1  0  0  0
 43 44  2  0  0  0
 43 40  1  0  0  0
 40 41  1  0  0  0
 40 36  1  0  0  0
 36 37  1  0  0  0
 37 38  2  0  0  0
 37 34  1  0  0  0
 34 35  1  0  0  0
 34  1  1  0  0  0
  1  2  1  0  0  0
  2  3  2  0  0  0
  2  5  1  0  0  0
  5  6  1  0  0  0
  5  7  1  0  0  0
  7  8  1  0  0  0
  8  9  2  0  0  0
  8 11  1  0  0  0
 11 12  1  0  0  0
 11 13  1  0  0  0
 13 14  1  0  0  0
 14 15  2  0  0  0
 14 17  1  0  0  0
 17 18  1  0  0  0
 17 19  1  0  0  0
 19 20  1  0  0  0
 20 21  2  0  0  0
 20 23  1  0  0  0
 23 24  1  0  0  0
 23 25  1  0  0  0
 25 26  1  0  0  0
 26 27  2  0  0  0
 26 29  1  0  0  0
 29 30  1  0  0  0
 29 31  1  0  0  0
 31 32  1  0  0  0
 31 33  2  0  0  0
 46 47  1  0  0  0
 47 48  2  0  0  0
 47 49  1  0  0  0
 49 50  1  0  0  0
 50 51  1  0  0  0
 51 52  1  0  0  0
 52 53  1  0  0  0
 53 54  1  0  0  0
 54 55  2  0  0  0
 54 56  1  0  0  0
 56 57  1  0  0  0
 56 58  1  0  0  0
 53 49  1  0  0  0
 42 45  1  0  0  0
 36 39  1  0  0  0
  1  4  1  0  0  0
  7 10  1  0  0  0
 13 16  1  0  0  0
 19 22  1  0  0  0
 25 28  1  0  0  0
M  END
> <minimizedAffinity>
-8.58529

> <CNNscore>
0.4201729298

> <CNNaffinity>
6.5972113609

> <CNN_VS>
2.7719695568

> <CNNaffinity_variance>
0.8405661583

$$$$
[H]N(C(=O)[C@]([H])(C(=O)C([H])([H])[H])C([H])([H])[H])[C@]([H])(C(=O)N([H])[C@]([H])(C(=O)N([H])[C@]([H])(C(=O)N([H])[C@]([H])(C(=O)N([H])[C@]([H])(C(=O)N([H])[C@]([H])(C(=O)N([H])[C@]([H])(C(=O)N1C([H])([H])C([H])([H])C([H])([H])[C@]1([H])C(=O)N(C([H])([H])[H])C([H])([H])[H])C([H])([H])C([H])(C([H])([H])[H])C([H])([H])[H])C([H])([H])[H])C([H])([H])[H])C([H])([H])[H])C([H])([H])[H])C([H])([H])[H])C([H])([H])[H]


 62 62  0  0  0  0  0  0  0  0999 V2000
    5.7496    7.6950   12.5076 N   0  0  0  0  0  0  0  0  0  0  0  0
    5.4707    8.7193   13.4458 C   0  0  0  0  0  0  0  0  0  0  0  0
    5.8516    9.9076   13.3727 O   0  0  0  0  0  0  0  0  0  0  0  0
    5.3746    6.7407   12.6787 H   0  0  0  0  0  0  0  0  0  0  0  0
    4.6483    8.3639   14.6495 C   0  0  0  0  0  0  0  0  0  0  0  0
    3.9309    9.6530   15.1040 C   0  0  0  0  0  0  0  0  0  0  0  0
    5.5394    7.9230   15.7003 N   0  0  0  0  0  0  0  0  0  0  0  0
    5.0285    6.9493   16.5875 C   0  0  0  0  0  0  0  0  0  0  0  0
    3.8638    6.5199   16.4318 O   0  0  0  0  0  0  0  0  0  0  0  0
    6.4959    8.2820   15.8192 H   0  0  0  0  0  0  0  0  0  0  0  0
    5.9335    6.4733   17.7049 C   0  0  0  0  0  0  0  0  0  0  0  0
    6.2554    5.0415   17.6205 C   0  0  0  0  0  0  0  0  0  0  0  0
    5.2475    6.8831   18.9289 N   0  0  0  0  0  0  0  0  0  0  0  0
    5.9341    7.3340   20.0523 C   0  0  0  0  0  0  0  0  0  0  0  0
    7.2211    7.4033   20.0188 O   0  0  0  0  0  0  0  0  0  0  0  0
    4.2086    6.8175   18.9179 H   0  0  0  0  0  0  0  0  0  0  0  0
    5.3385    7.7709   21.3454 C   0  0  0  0  0  0  0  0  0  0  0  0
    6.3302    8.0717   22.4107 C   0  0  0  0  0  0  0  0  0  0  0  0
    4.4080    6.7171   21.7034 N   0  0  0  0  0  0  0  0  0  0  0  0
    4.7488    5.4251   22.1624 C   0  0  0  0  0  0  0  0  0  0  0  0
    5.9693    5.1332   22.2771 O   0  0  0  0  0  0  0  0  0  0  0  0
    3.3625    6.9217   21.6076 H   0  0  0  0  0  0  0  0  0  0  0  0
    3.6765    4.4455   22.5076 C   0  0  0  0  0  0  0  0  0  0  0  0
    3.7983    4.1198   23.9982 C   0  0  0  0  0  0  0  0  0  0  0  0
    3.8603    3.2253   21.7859 N   0  0  0  0  0  0  0  0  0  0  0  0
    3.9295    3.0878   20.3777 C   0  0  0  0  0  0  0  0  0  0  0  0
    3.8358    4.1197   19.6830 O   0  0  0  0  0  0  0  0  0  0  0  0
    3.9550    2.3458   22.3670 H   0  0  0  0  0  0  0  0  0  0  0  0
    4.1087    1.7331   19.7813 C   0  0  0  0  0  0  0  0  0  0  0  0
    5.1330    1.8597   18.6555 C   0  0  0  0  0  0  0  0  0  0  0  0
    4.7249    0.8629   20.8215 C   0  0  0  0  0  0  0  0  0  0  0  0
    6.2051    0.8258   21.0114 C   0  0  0  0  0  0  0  0  0  0  0  0
    4.0464    0.1786   21.5269 O   0  0  0  0  0  0  0  0  0  0  0  0
    6.5268    7.9284   11.3403 C   0  0  0  0  0  0  0  0  0  0  0  0
    7.9780    8.0519   11.6887 C   0  0  0  0  0  0  0  0  0  0  0  0
    7.4306    6.4160    9.6010 N   0  0  0  0  0  0  0  0  0  0  0  0
    6.2611    6.8935   10.2880 C   0  0  0  0  0  0  0  0  0  0  0  0
    5.1241    6.5005   10.0572 O   0  0  0  0  0  0  0  0  0  0  0  0
    8.3779    6.8088    9.8333 H   0  0  0  0  0  0  0  0  0  0  0  0
    7.4053    5.4073    8.5746 C   0  0  0  0  0  0  0  0  0  0  0  0
    6.9720    4.0619    9.0163 C   0  0  0  0  0  0  0  0  0  0  0  0
    6.3816    7.2674    7.1896 N   0  0  0  0  0  0  0  0  0  0  0  0
    6.6103    5.9344    7.3874 C   0  0  0  0  0  0  0  0  0  0  0  0
    6.2122    5.0210    6.6374 O   0  0  0  0  0  0  0  0  0  0  0  0
    6.8038    7.9176    7.9832 H   0  0  0  0  0  0  0  0  0  0  0  0
    5.7162    8.0358    6.1770 C   0  0  0  0  0  0  0  0  0  0  0  0
    4.3162    7.6403    6.0403 C   0  0  0  0  0  0  0  0  0  0  0  0
    4.0343    6.8792    5.0522 O   0  0  0  0  0  0  0  0  0  0  0  0
    3.2733    8.0246    6.9061 N   0  0  0  0  0  0  0  0  0  0  0  0
    3.3482    8.8485    8.1132 C   0  0  0  0  0  0  0  0  0  0  0  0
    2.2604    9.8675    7.8066 C   0  0  0  0  0  0  0  0  0  0  0  0
    1.2905    9.1517    6.8737 C   0  0  0  0  0  0  0  0  0  0  0  0
    1.8701    7.7420    6.7840 C   0  0  0  0  0  0  0  0  0  0  0  0
    1.3266    6.9796    7.8973 C   0  0  0  0  0  0  0  0  0  0  0  0
    0.3298    7.4789    8.5713 O   0  0  0  0  0  0  0  0  0  0  0  0
    1.7880    5.7257    8.3180 N   0  0  0  0  0  0  0  0  0  0  0  0
    2.8208    4.9203    7.7575 C   0  0  0  0  0  0  0  0  0  0  0  0
    1.1109    5.1571    9.5205 C   0  0  0  0  0  0  0  0  0  0  0  0
    6.3701    8.1278    4.8409 C   0  0  0  0  0  0  0  0  0  0  0  0
    8.5345    7.9660    3.6656 C   0  0  0  0  0  0  0  0  0  0  0  0
    7.7049    8.7314    4.7256 C   0  0  0  0  0  0  0  0  0  0  0  0
    7.6414   10.1589    4.1508 C   0  0  0  0  0  0  0  0  0  0  0  0
 60 61  1  0  0  0
 61 62  1  0  0  0
 61 59  1  0  0  0
 59 46  1  0  0  0
 46 42  1  0  0  0
 42 43  1  0  0  0
 43 44  2  0  0  0
 43 40  1  0  0  0
 40 41  1  0  0  0
 40 36  1  0  0  0
 36 37  1  0  0  0
 37 38  2  0  0  0
 37 34  1  0  0  0
 34 35  1  0  0  0
 34  1  1  0  0  0
  1  2  1  0  0  0
  2  3  2  0  0  0
  2  5  1  0  0  0
  5  6  1  0  0  0
  5  7  1  0  0  0
  7  8  1  0  0  0
  8  9  2  0  0  0
  8 11  1  0  0  0
 11 12  1  0  0  0
 11 13  1  0  0  0
 13 14  1  0  0  0
 14 15  2  0  0  0
 14 17  1  0  0  0
 17 18  1  0  0  0
 17 19  1  0  0  0
 19 20  1  0  0  0
 20 21  2  0  0  0
 20 23  1  0  0  0
 23 24  1  0  0  0
 23 25  1  0  0  0
 25 26  1  0  0  0
 26 27  2  0  0  0
 26 29  1  0  0  0
 29 30  1  0  0  0
 29 31  1  0  0  0
 31 32  1  0  0  0
 31 33  2  0  0  0
 46 47  1  0  0  0
 47 48  2  0  0  0
 47 49  1  0  0  0
 49 50  1  0  0  0
 50 51  1  0  0  0
 51 52  1  0  0  0
 52 53  1  0  0  0
 53 54  1  0  0  0
 54 55  2  0  0  0
 54 56  1  0  0  0
 56 57  1  0  0  0
 56 58  1  0  0  0
 53 49  1  0  0  0
 42 45  1  0  0  0
 36 39  1  0  0  0
  1  4  1  0  0  0
  7 10  1  0  0  0
 13 16  1  0  0  0
 19 22  1  0  0  0
 25 28  1  0  0  0
M  END
> <minimizedAffinity>
-8.01392

> <CNNscore>
0.3378776014

> <CNNaffinity>
6.4413809776

> <CNN_VS>
2.1763982773

> <CNNaffinity_variance>
0.2925807834

$$$$
[H]N(C(=O)[C@]([H])(C(=O)C([H])([H])[H])C([H])([H])[H])[C@]([H])(C(=O)N([H])[C@]([H])(C(=O)N([H])[C@]([H])(C(=O)N([H])[C@]([H])(C(=O)N([H])[C@]([H])(C(=O)N([H])[C@]([H])(C(=O)N([H])[C@]([H])(C(=O)N1C([H])([H])C([H])([H])C([H])([H])[C@]1([H])C(=O)N(C([H])([H])[H])C([H])([H])[H])C([H])([H])C([H])(C([H])([H])[H])C([H])([H])[H])C([H])([H])[H])C([H])([H])[H])C([H])([H])[H])C([H])([H])[H])C([H])([H])[H])C([H])([H])[H]


 62 62  0  0  0  0  0  0  0  0999 V2000
    5.5828    9.7857   18.4495 N   0  0  0  0  0  0  0  0  0  0  0  0
    6.1447    8.6693   19.1169 C   0  0  0  0  0  0  0  0  0  0  0  0
    5.5096    7.7235   19.6311 O   0  0  0  0  0  0  0  0  0  0  0  0
    6.2178   10.5113   18.0611 H   0  0  0  0  0  0  0  0  0  0  0  0
    7.6390    8.6002   19.2334 C   0  0  0  0  0  0  0  0  0  0  0  0
    7.9568    7.7191   20.4605 C   0  0  0  0  0  0  0  0  0  0  0  0
    8.1434    9.9358   19.4670 N   0  0  0  0  0  0  0  0  0  0  0  0
    7.7011   10.5750   20.6468 C   0  0  0  0  0  0  0  0  0  0  0  0
    6.9178    9.9781   21.4182 O   0  0  0  0  0  0  0  0  0  0  0  0
    8.7880   10.4176   18.8265 H   0  0  0  0  0  0  0  0  0  0  0  0
    8.2036   11.9783   20.9161 C   0  0  0  0  0  0  0  0  0  0  0  0
    8.7693   12.6302   19.7261 C   0  0  0  0  0  0  0  0  0  0  0  0
    9.1287   11.8252   22.0375 N   0  0  0  0  0  0  0  0  0  0  0  0
    8.7628   12.1114   23.3493 C   0  0  0  0  0  0  0  0  0  0  0  0
    7.5647   12.5195   23.5949 O   0  0  0  0  0  0  0  0  0  0  0  0
   10.0857   11.4900   21.8017 H   0  0  0  0  0  0  0  0  0  0  0  0
    9.6218   11.9944   24.5602 C   0  0  0  0  0  0  0  0  0  0  0  0
   10.9243   12.7033   24.4632 C   0  0  0  0  0  0  0  0  0  0  0  0
    9.7561   10.5678   24.7869 N   0  0  0  0  0  0  0  0  0  0  0  0
    8.9469    9.7791   25.6351 C   0  0  0  0  0  0  0  0  0  0  0  0
    8.0160   10.3441   26.2693 O   0  0  0  0  0  0  0  0  0  0  0  0
   10.5429   10.0539   24.2761 H   0  0  0  0  0  0  0  0  0  0  0  0
    9.1966    8.3125   25.7578 C   0  0  0  0  0  0  0  0  0  0  0  0
    9.6381    8.0285   27.1956 C   0  0  0  0  0  0  0  0  0  0  0  0
   10.2633    7.9111   24.8947 N   0  0  0  0  0  0  0  0  0  0  0  0
   10.5429    6.5896   24.4682 C   0  0  0  0  0  0  0  0  0  0  0  0
    9.7910    5.6753   24.8622 O   0  0  0  0  0  0  0  0  0  0  0  0
   10.8984    8.6815   24.5437 H   0  0  0  0  0  0  0  0  0  0  0  0
   11.7107    6.3389   23.5759 C   0  0  0  0  0  0  0  0  0  0  0  0
   11.1866    5.6503   22.3174 C   0  0  0  0  0  0  0  0  0  0  0  0
   12.2403    7.6635   23.1472 C   0  0  0  0  0  0  0  0  0  0  0  0
   11.6128    8.4108   22.0176 C   0  0  0  0  0  0  0  0  0  0  0  0
   13.1769    8.1560   23.7007 O   0  0  0  0  0  0  0  0  0  0  0  0
    4.1789    9.9477   18.2948 C   0  0  0  0  0  0  0  0  0  0  0  0
    3.8002   11.3930   18.3971 C   0  0  0  0  0  0  0  0  0  0  0  0
    3.8027    7.8660   17.0086 N   0  0  0  0  0  0  0  0  0  0  0  0
    3.6870    9.2991   17.0353 C   0  0  0  0  0  0  0  0  0  0  0  0
    3.2223    9.9650   16.1182 O   0  0  0  0  0  0  0  0  0  0  0  0
    4.2294    7.3544   17.8221 H   0  0  0  0  0  0  0  0  0  0  0  0
    3.3695    7.0441   15.9094 C   0  0  0  0  0  0  0  0  0  0  0  0
    4.2606    7.0435   14.7266 C   0  0  0  0  0  0  0  0  0  0  0  0
    3.9885    4.8933   17.0999 N   0  0  0  0  0  0  0  0  0  0  0  0
    3.0641    5.6465   16.4317 C   0  0  0  0  0  0  0  0  0  0  0  0
    1.8946    5.2906   16.1845 O   0  0  0  0  0  0  0  0  0  0  0  0
    4.9788    5.3832   17.1996 H   0  0  0  0  0  0  0  0  0  0  0  0
    3.9766    3.5979   17.7165 C   0  0  0  0  0  0  0  0  0  0  0  0
    4.8707    3.5479   18.8711 C   0  0  0  0  0  0  0  0  0  0  0  0
    5.8651    4.3516   18.8552 O   0  0  0  0  0  0  0  0  0  0  0  0
    4.7168    2.6978   19.9840 N   0  0  0  0  0  0  0  0  0  0  0  0
    3.6528    1.7290   20.2502 C   0  0  0  0  0  0  0  0  0  0  0  0
    4.4885    0.4946   20.5557 C   0  0  0  0  0  0  0  0  0  0  0  0
    5.8157    1.0280   21.0826 C   0  0  0  0  0  0  0  0  0  0  0  0
    5.5984    2.5391   21.1070 C   0  0  0  0  0  0  0  0  0  0  0  0
    4.9850    2.8670   22.3847 C   0  0  0  0  0  0  0  0  0  0  0  0
    5.0546    1.9995   23.3541 O   0  0  0  0  0  0  0  0  0  0  0  0
    4.3127    4.0613   22.6741 N   0  0  0  0  0  0  0  0  0  0  0  0
    4.1156    5.1995   21.8402 C   0  0  0  0  0  0  0  0  0  0  0  0
    3.7159    4.1537   24.0389 C   0  0  0  0  0  0  0  0  0  0  0  0
    4.1867    2.4138   16.8362 C   0  0  0  0  0  0  0  0  0  0  0  0
    3.0146    1.6171   14.8155 C   0  0  0  0  0  0  0  0  0  0  0  0
    3.0269    1.6451   16.3635 C   0  0  0  0  0  0  0  0  0  0  0  0
    3.1361    0.1547   16.7359 C   0  0  0  0  0  0  0  0  0  0  0  0
 60 61  1  0  0  0
 61 62  1  0  0  0
 61 59  1  0  0  0
 59 46  1  0  0  0
 46 42  1  0  0  0
 42 43  1  0  0  0
 43 44  2  0  0  0
 43 40  1  0  0  0
 40 41  1  0  0  0
 40 36  1  0  0  0
 36 37  1  0  0  0
 37 38  2  0  0  0
 37 34  1  0  0  0
 34 35  1  0  0  0
 34  1  1  0  0  0
  1  2  1  0  0  0
  2  3  2  0  0  0
  2  5  1  0  0  0
  5  6  1  0  0  0
  5  7  1  0  0  0
  7  8  1  0  0  0
  8  9  2  0  0  0
  8 11  1  0  0  0
 11 12  1  0  0  0
 11 13  1  0  0  0
 13 14  1  0  0  0
 14 15  2  0  0  0
 14 17  1  0  0  0
 17 18  1  0  0  0
 17 19  1  0  0  0
 19 20  1  0  0  0
 20 21  2  0  0  0
 20 23  1  0  0  0
 23 24  1  0  0  0
 23 25  1  0  0  0
 25 26  1  0  0  0
 26 27  2  0  0  0
 26 29  1  0  0  0
 29 30  1  0  0  0
 29 31  1  0  0  0
 31 32  1  0  0  0
 31 33  2  0  0  0
 46 47  1  0  0  0
 47 48  2  0  0  0
 47 49  1  0  0  0
 49 50  1  0  0  0
 50 51  1  0  0  0
 51 52  1  0  0  0
 52 53  1  0  0  0
 53 54  1  0  0  0
 54 55  2  0  0  0
 54 56  1  0  0  0
 56 57  1  0  0  0
 56 58  1  0  0  0
 53 49  1  0  0  0
 42 45  1  0  0  0
 36 39  1  0  0  0
  1  4  1  0  0  0
  7 10  1  0  0  0
 13 16  1  0  0  0
 19 22  1  0  0  0
 25 28  1  0  0  0
M  END
> <minimizedAffinity>
-8.07885

> <CNNscore>
0.3026391864

> <CNNaffinity>
7.1869993210

> <CNN_VS>
2.1750676632

> <CNNaffinity_variance>
0.3872607350

$$$$
[H]N(C(=O)[C@]([H])(C(=O)C([H])([H])[H])C([H])([H])[H])[C@]([H])(C(=O)N([H])[C@]([H])(C(=O)N([H])[C@]([H])(C(=O)N([H])[C@]([H])(C(=O)N([H])[C@]([H])(C(=O)N([H])[C@]([H])(C(=O)N([H])[C@]([H])(C(=O)N1C([H])([H])C([H])([H])C([H])([H])[C@]1([H])C(=O)N(C([H])([H])[H])C([H])([H])[H])C([H])([H])C([H])(C([H])([H])[H])C([H])([H])[H])C([H])([H])[H])C([H])([H])[H])C([H])([H])[H])C([H])([H])[H])C([H])([H])[H])C([H])([H])[H]


 62 62  0  0  0  0  0  0  0  0999 V2000
    3.6423    8.5818   15.7836 N   0  0  0  0  0  0  0  0  0  0  0  0
    3.5765    7.1885   15.5351 C   0  0  0  0  0  0  0  0  0  0  0  0
    3.6993    6.6331   14.4220 O   0  0  0  0  0  0  0  0  0  0  0  0
    3.5250    8.9249   16.7579 H   0  0  0  0  0  0  0  0  0  0  0  0
    3.3314    6.2780   16.7024 C   0  0  0  0  0  0  0  0  0  0  0  0
    4.0162    6.9196   17.9281 C   0  0  0  0  0  0  0  0  0  0  0  0
    3.9538    5.0014   16.4274 N   0  0  0  0  0  0  0  0  0  0  0  0
    3.1062    3.8715   16.4591 C   0  0  0  0  0  0  0  0  0  0  0  0
    1.8899    4.0166   16.7135 O   0  0  0  0  0  0  0  0  0  0  0  0
    4.9550    4.8930   16.2185 H   0  0  0  0  0  0  0  0  0  0  0  0
    3.7289    2.5183   16.1846 C   0  0  0  0  0  0  0  0  0  0  0  0
    3.1028    1.8092   15.0594 C   0  0  0  0  0  0  0  0  0  0  0  0
    3.6667    1.8215   17.4680 N   0  0  0  0  0  0  0  0  0  0  0  0
    4.4754    2.1708   18.5453 C   0  0  0  0  0  0  0  0  0  0  0  0
    5.3070    3.1479   18.4185 O   0  0  0  0  0  0  0  0  0  0  0  0
    2.9811    1.0409   17.5347 H   0  0  0  0  0  0  0  0  0  0  0  0
    4.4964    1.5296   19.8893 C   0  0  0  0  0  0  0  0  0  0  0  0
    3.4087    0.5435   20.1191 C   0  0  0  0  0  0  0  0  0  0  0  0
    4.4836    2.6336   20.8304 N   0  0  0  0  0  0  0  0  0  0  0  0
    5.4944    2.9402   21.7688 C   0  0  0  0  0  0  0  0  0  0  0  0
    6.5120    2.1985   21.8162 O   0  0  0  0  0  0  0  0  0  0  0  0
    3.6307    3.2790   20.8299 H   0  0  0  0  0  0  0  0  0  0  0  0
    5.3485    4.1231   22.6676 C   0  0  0  0  0  0  0  0  0  0  0  0
    3.8582    4.3094   22.9628 C   0  0  0  0  0  0  0  0  0  0  0  0
    5.8076    5.3091   22.0148 N   0  0  0  0  0  0  0  0  0  0  0  0
    7.1467    5.7673   21.9556 C   0  0  0  0  0  0  0  0  0  0  0  0
    8.0268    5.0779   22.5093 O   0  0  0  0  0  0  0  0  0  0  0  0
    5.0704    5.8936   21.5299 H   0  0  0  0  0  0  0  0  0  0  0  0
    7.4551    7.0407   21.2442 C   0  0  0  0  0  0  0  0  0  0  0  0
    7.1119    6.8371   19.7700 C   0  0  0  0  0  0  0  0  0  0  0  0
    6.5205    8.0801   21.7593 C   0  0  0  0  0  0  0  0  0  0  0  0
    5.5477    8.7545   20.8499 C   0  0  0  0  0  0  0  0  0  0  0  0
    6.5289    8.3932   22.9117 O   0  0  0  0  0  0  0  0  0  0  0  0
    3.8615    9.5268   14.7444 C   0  0  0  0  0  0  0  0  0  0  0  0
    3.6553   10.9220   15.2480 C   0  0  0  0  0  0  0  0  0  0  0  0
    5.1468    8.8505   12.7395 N   0  0  0  0  0  0  0  0  0  0  0  0
    5.1984    9.3281   14.0948 C   0  0  0  0  0  0  0  0  0  0  0  0
    6.2382    9.5679   14.6963 O   0  0  0  0  0  0  0  0  0  0  0  0
    4.2207    8.6449   12.2859 H   0  0  0  0  0  0  0  0  0  0  0  0
    6.3094    8.6154   11.9242 C   0  0  0  0  0  0  0  0  0  0  0  0
    7.5722    8.3968   12.6662 C   0  0  0  0  0  0  0  0  0  0  0  0
    5.8312    6.2021   11.3132 N   0  0  0  0  0  0  0  0  0  0  0  0
    5.9964    7.5040   10.9311 C   0  0  0  0  0  0  0  0  0  0  0  0
    5.9063    7.9231    9.7600 O   0  0  0  0  0  0  0  0  0  0  0  0
    5.9722    6.0323   12.4004 H   0  0  0  0  0  0  0  0  0  0  0  0
    5.5084    4.9842   10.6268 C   0  0  0  0  0  0  0  0  0  0  0  0
    4.4762    4.2300   11.3344 C   0  0  0  0  0  0  0  0  0  0  0  0
    4.5234    4.2623   12.6118 O   0  0  0  0  0  0  0  0  0  0  0  0
    3.4469    3.4874   10.7227 N   0  0  0  0  0  0  0  0  0  0  0  0
    3.1614    3.3296    9.2962 C   0  0  0  0  0  0  0  0  0  0  0  0
    3.0838    1.8124    9.2075 C   0  0  0  0  0  0  0  0  0  0  0  0
    2.6612    1.3497   10.5971 C   0  0  0  0  0  0  0  0  0  0  0  0
    2.4556    2.6604   11.3528 C   0  0  0  0  0  0  0  0  0  0  0  0
    1.0887    3.0922   11.1055 C   0  0  0  0  0  0  0  0  0  0  0  0
    0.3106    2.3302   10.3906 O   0  0  0  0  0  0  0  0  0  0  0  0
    0.5195    4.2806   11.5806 N   0  0  0  0  0  0  0  0  0  0  0  0
    1.1025    5.2796   12.4124 C   0  0  0  0  0  0  0  0  0  0  0  0
   -0.8868    4.5406   11.1535 C   0  0  0  0  0  0  0  0  0  0  0  0
    6.6376    4.0931   10.2369 C   0  0  0  0  0  0  0  0  0  0  0  0
    7.8747    4.0730    8.1012 C   0  0  0  0  0  0  0  0  0  0  0  0
    6.6684    3.5068    8.8898 C   0  0  0  0  0  0  0  0  0  0  0  0
    6.9592    1.9948    8.9287 C   0  0  0  0  0  0  0  0  0  0  0  0
 60 61  1  0  0  0
 61 62  1  0  0  0
 61 59  1  0  0  0
 59 46  1  0  0  0
 46 42  1  0  0  0
 42 43  1  0  0  0
 43 44  2  0  0  0
 43 40  1  0  0  0
 40 41  1  0  0  0
 40 36  1  0  0  0
 36 37  1  0  0  0
 37 38  2  0  0  0
 37 34  1  0  0  0
 34 35  1  0  0  0
 34  1  1  0  0  0
  1  2  1  0  0  0
  2  3  2  0  0  0
  2  5  1  0  0  0
  5  6  1  0  0  0
  5  7  1  0  0  0
  7  8  1  0  0  0
  8  9  2  0  0  0
  8 11  1  0  0  0
 11 12  1  0  0  0
 11 13  1  0  0  0
 13 14  1  0  0  0
 14 15  2  0  0  0
 14 17  1  0  0  0
 17 18  1  0  0  0
 17 19  1  0  0  0
 19 20  1  0  0  0
 20 21  2  0  0  0
 20 23  1  0  0  0
 23 24  1  0  0  0
 23 25  1  0  0  0
 25 26  1  0  0  0
 26 27  2  0  0  0
 26 29  1  0  0  0
 29 30  1  0  0  0
 29 31  1  0  0  0
 31 32  1  0  0  0
 31 33  2  0  0  0
 46 47  1  0  0  0
 47 48  2  0  0  0
 47 49  1  0  0  0
 49 50  1  0  0  0
 50 51  1  0  0  0
 51 52  1  0  0  0
 52 53  1  0  0  0
 53 54  1  0  0  0
 54 55  2  0  0  0
 54 56  1  0  0  0
 56 57  1  0  0  0
 56 58  1  0  0  0
 53 49  1  0  0  0
 42 45  1  0  0  0
 36 39  1  0  0  0
  1  4  1  0  0  0
  7 10  1  0  0  0
 13 16  1  0  0  0
 19 22  1  0  0  0
 25 28  1  0  0  0
M  END
> <minimizedAffinity>
-8.00867

> <CNNscore>
0.2890666425

> <CNNaffinity>
7.2229652405

> <CNN_VS>
2.0879182816

> <CNNaffinity_variance>
0.4006053507

$$$$
[H]N(C(=O)[C@]([H])(C(=O)C([H])([H])[H])C([H])([H])[H])[C@]([H])(C(=O)N([H])[C@]([H])(C(=O)N([H])[C@]([H])(C(=O)N([H])[C@]([H])(C(=O)N([H])[C@]([H])(C(=O)N([H])[C@]([H])(C(=O)N([H])[C@]([H])(C(=O)N1C([H])([H])C([H])([H])C([H])([H])[C@]1([H])C(=O)N(C([H])([H])[H])C([H])([H])[H])C([H])([H])C([H])(C([H])([H])[H])C([H])([H])[H])C([H])([H])[H])C([H])([H])[H])C([H])([H])[H])C([H])([H])[H])C([H])([H])[H])C([H])([H])[H]


 62 62  0  0  0  0  0  0  0  0999 V2000
    2.9520    5.6138   11.2795 N   0  0  0  0  0  0  0  0  0  0  0  0
    4.0900    4.8654   10.8894 C   0  0  0  0  0  0  0  0  0  0  0  0
    5.0138    4.4857   11.6410 O   0  0  0  0  0  0  0  0  0  0  0  0
    2.2480    5.8709   10.5590 H   0  0  0  0  0  0  0  0  0  0  0  0
    4.2203    4.4886    9.4428 C   0  0  0  0  0  0  0  0  0  0  0  0
    2.8481    3.9439    8.9918 C   0  0  0  0  0  0  0  0  0  0  0  0
    5.2071    3.4369    9.3296 N   0  0  0  0  0  0  0  0  0  0  0  0
    6.2298    3.6375    8.3757 C   0  0  0  0  0  0  0  0  0  0  0  0
    6.2413    4.6844    7.6909 O   0  0  0  0  0  0  0  0  0  0  0  0
    5.1889    2.5799    9.8981 H   0  0  0  0  0  0  0  0  0  0  0  0
    7.2736    2.5502    8.2258 C   0  0  0  0  0  0  0  0  0  0  0  0
    7.1571    1.4907    9.2381 C   0  0  0  0  0  0  0  0  0  0  0  0
    8.5479    3.2664    8.2222 N   0  0  0  0  0  0  0  0  0  0  0  0
    9.4046    3.2570    7.1255 C   0  0  0  0  0  0  0  0  0  0  0  0
    9.0670    2.6021    6.0675 O   0  0  0  0  0  0  0  0  0  0  0  0
    8.7852    3.7872    9.0918 H   0  0  0  0  0  0  0  0  0  0  0  0
   10.7206    3.9455    7.0162 C   0  0  0  0  0  0  0  0  0  0  0  0
   11.4879    4.0143    8.2871 C   0  0  0  0  0  0  0  0  0  0  0  0
   10.4157    5.2477    6.4543 N   0  0  0  0  0  0  0  0  0  0  0  0
   11.0810    5.8641    5.3709 C   0  0  0  0  0  0  0  0  0  0  0  0
   12.0354    5.2477    4.8257 O   0  0  0  0  0  0  0  0  0  0  0  0
    9.6199    5.8080    6.8978 H   0  0  0  0  0  0  0  0  0  0  0  0
   10.6448    7.2085    4.8907 C   0  0  0  0  0  0  0  0  0  0  0  0
   11.1511    8.2524    5.8891 C   0  0  0  0  0  0  0  0  0  0  0  0
    9.2180    7.2944    4.8673 N   0  0  0  0  0  0  0  0  0  0  0  0
    8.4329    7.9141    3.8642 C   0  0  0  0  0  0  0  0  0  0  0  0
    9.0230    8.4294    2.8933 O   0  0  0  0  0  0  0  0  0  0  0  0
    8.7074    6.8477    5.6797 H   0  0  0  0  0  0  0  0  0  0  0  0
    6.9483    7.9302    4.0008 C   0  0  0  0  0  0  0  0  0  0  0  0
    6.4984    6.4984    4.2841 C   0  0  0  0  0  0  0  0  0  0  0  0
    6.6180    8.7281    5.2145 C   0  0  0  0  0  0  0  0  0  0  0  0
    6.9545   10.1804    5.2922 C   0  0  0  0  0  0  0  0  0  0  0  0
    6.0746    8.2222    6.1499 O   0  0  0  0  0  0  0  0  0  0  0  0
    2.7414    6.0268   12.6234 C   0  0  0  0  0  0  0  0  0  0  0  0
    2.0425    7.3506   12.6652 C   0  0  0  0  0  0  0  0  0  0  0  0
    2.8918    4.2063   14.2945 N   0  0  0  0  0  0  0  0  0  0  0  0
    2.0407    4.9668   13.4200 C   0  0  0  0  0  0  0  0  0  0  0  0
    0.8331    4.7893   13.3162 O   0  0  0  0  0  0  0  0  0  0  0  0
    3.9258    4.3957   14.3228 H   0  0  0  0  0  0  0  0  0  0  0  0
    2.4227    3.1597   15.1641 C   0  0  0  0  0  0  0  0  0  0  0  0
    2.9007    1.7975   14.8341 C   0  0  0  0  0  0  0  0  0  0  0  0
    3.6001    2.8981   17.3938 N   0  0  0  0  0  0  0  0  0  0  0  0
    2.6988    3.5596   16.6074 C   0  0  0  0  0  0  0  0  0  0  0  0
    2.0219    4.5433   16.9670 O   0  0  0  0  0  0  0  0  0  0  0  0
    4.0849    2.0355   16.8921 H   0  0  0  0  0  0  0  0  0  0  0  0
    4.0771    3.0633   18.7368 C   0  0  0  0  0  0  0  0  0  0  0  0
    4.9028    4.2618   18.8664 C   0  0  0  0  0  0  0  0  0  0  0  0
    5.8021    4.4321   17.9735 O   0  0  0  0  0  0  0  0  0  0  0  0
    4.7787    5.2300   19.8824 N   0  0  0  0  0  0  0  0  0  0  0  0
    3.8140    5.2787   20.9816 C   0  0  0  0  0  0  0  0  0  0  0  0
    4.7610    5.4683   22.1575 C   0  0  0  0  0  0  0  0  0  0  0  0
    5.9887    6.1609   21.5772 C   0  0  0  0  0  0  0  0  0  0  0  0
    5.6056    6.3813   20.1157 C   0  0  0  0  0  0  0  0  0  0  0  0
    4.8868    7.6439   20.0429 C   0  0  0  0  0  0  0  0  0  0  0  0
    4.8481    8.4046   21.0997 O   0  0  0  0  0  0  0  0  0  0  0  0
    4.2189    8.1279   18.9108 N   0  0  0  0  0  0  0  0  0  0  0  0
    4.1246    7.5469   17.6134 C   0  0  0  0  0  0  0  0  0  0  0  0
    3.5031    9.4256   19.0872 C   0  0  0  0  0  0  0  0  0  0  0  0
    4.7407    1.8946   19.3809 C   0  0  0  0  0  0  0  0  0  0  0  0
    4.2505    0.2982   21.1984 C   0  0  0  0  0  0  0  0  0  0  0  0
    4.6842    1.7411   20.8413 C   0  0  0  0  0  0  0  0  0  0  0  0
    6.0793    1.8523   21.4842 C   0  0  0  0  0  0  0  0  0  0  0  0
 60 61  1  0  0  0
 61 62  1  0  0  0
 61 59  1  0  0  0
 59 46  1  0  0  0
 46 42  1  0  0  0
 42 43  1  0  0  0
 43 44  2  0  0  0
 43 40  1  0  0  0
 40 41  1  0  0  0
 40 36  1  0  0  0
 36 37  1  0  0  0
 37 38  2  0  0  0
 37 34  1  0  0  0
 34 35  1  0  0  0
 34  1  1  0  0  0
  1  2  1  0  0  0
  2  3  2  0  0  0
  2  5  1  0  0  0
  5  6  1  0  0  0
  5  7  1  0  0  0
  7  8  1  0  0  0
  8  9  2  0  0  0
  8 11  1  0  0  0
 11 12  1  0  0  0
 11 13  1  0  0  0
 13 14  1  0  0  0
 14 15  2  0  0  0
 14 17  1  0  0  0
 17 18  1  0  0  0
 17 19  1  0  0  0
 19 20  1  0  0  0
 20 21  2  0  0  0
 20 23  1  0  0  0
 23 24  1  0  0  0
 23 25  1  0  0  0
 25 26  1  0  0  0
 26 27  2  0  0  0
 26 29  1  0  0  0
 29 30  1  0  0  0
 29 31  1  0  0  0
 31 32  1  0  0  0
 31 33  2  0  0  0
 46 47  1  0  0  0
 47 48  2  0  0  0
 47 49  1  0  0  0
 49 50  1  0  0  0
 50 51  1  0  0  0
 51 52  1  0  0  0
 52 53  1  0  0  0
 53 54  1  0  0  0
 54 55  2  0  0  0
 54 56  1  0  0  0
 56 57  1  0  0  0
 56 58  1  0  0  0
 53 49  1  0  0  0
 42 45  1  0  0  0
 36 39  1  0  0  0
  1  4  1  0  0  0
  7 10  1  0  0  0
 13 16  1  0  0  0
 19 22  1  0  0  0
 25 28  1  0  0  0
M  END
> <minimizedAffinity>
-7.75901

> <CNNscore>
0.2591508925

> <CNNaffinity>
6.3254704475

> <CNN_VS>
1.6392513514

> <CNNaffinity_variance>
0.4708401561

$$$$
[H]N(C(=O)[C@]([H])(C(=O)C([H])([H])[H])C([H])([H])[H])[C@]([H])(C(=O)N([H])[C@]([H])(C(=O)N([H])[C@]([H])(C(=O)N([H])[C@]([H])(C(=O)N([H])[C@]([H])(C(=O)N([H])[C@]([H])(C(=O)N([H])[C@]([H])(C(=O)N1C([H])([H])C([H])([H])C([H])([H])[C@]1([H])C(=O)N(C([H])([H])[H])C([H])([H])[H])C([H])([H])C([H])(C([H])([H])[H])C([H])([H])[H])C([H])([H])[H])C([H])([H])[H])C([H])([H])[H])C([H])([H])[H])C([H])([H])[H])C([H])([H])[H]


 62 62  0  0  0  0  0  0  0  0999 V2000
    4.4346    1.5951   18.4097 N   0  0  0  0  0  0  0  0  0  0  0  0
    3.7319    0.8862   19.4151 C   0  0  0  0  0  0  0  0  0  0  0  0
    2.6213    0.3280   19.2821 O   0  0  0  0  0  0  0  0  0  0  0  0
    5.3556    2.0172   18.6425 H   0  0  0  0  0  0  0  0  0  0  0  0
    4.3590    0.7899   20.7749 C   0  0  0  0  0  0  0  0  0  0  0  0
    3.7006   -0.4074   21.4930 C   0  0  0  0  0  0  0  0  0  0  0  0
    4.0597    2.0023   21.5052 N   0  0  0  0  0  0  0  0  0  0  0  0
    5.1681    2.7270   21.9974 C   0  0  0  0  0  0  0  0  0  0  0  0
    6.3269    2.3053   21.7864 O   0  0  0  0  0  0  0  0  0  0  0  0
    3.1029    2.3407   21.6726 H   0  0  0  0  0  0  0  0  0  0  0  0
    4.8883    3.9965   22.7747 C   0  0  0  0  0  0  0  0  0  0  0  0
    3.6345    3.9434   23.5403 C   0  0  0  0  0  0  0  0  0  0  0  0
    4.9589    5.0596   21.7740 N   0  0  0  0  0  0  0  0  0  0  0  0
    6.1025    5.8297   21.5846 C   0  0  0  0  0  0  0  0  0  0  0  0
    7.1446    5.5992   22.3081 O   0  0  0  0  0  0  0  0  0  0  0  0
    4.1002    5.2143   21.2061 H   0  0  0  0  0  0  0  0  0  0  0  0
    6.2811    6.9339   20.6015 C   0  0  0  0  0  0  0  0  0  0  0  0
    6.8838    6.5170   19.3087 C   0  0  0  0  0  0  0  0  0  0  0  0
    7.0580    7.9377   21.3040 N   0  0  0  0  0  0  0  0  0  0  0  0
    6.5407    9.0298   22.0361 C   0  0  0  0  0  0  0  0  0  0  0  0
    5.2899    9.1705   22.0975 O   0  0  0  0  0  0  0  0  0  0  0  0
    8.1240    7.8602   21.2651 H   0  0  0  0  0  0  0  0  0  0  0  0
    7.4672    9.9784   22.7219 C   0  0  0  0  0  0  0  0  0  0  0  0
    7.1897   11.3826   22.1797 C   0  0  0  0  0  0  0  0  0  0  0  0
    8.8270    9.6615   22.4153 N   0  0  0  0  0  0  0  0  0  0  0  0
    9.6107    8.6537   23.0292 C   0  0  0  0  0  0  0  0  0  0  0  0
    9.0782    7.9563   23.9160 O   0  0  0  0  0  0  0  0  0  0  0  0
    9.2834   10.2383   21.6542 H   0  0  0  0  0  0  0  0  0  0  0  0
   11.0262    8.4634   22.6013 C   0  0  0  0  0  0  0  0  0  0  0  0
   11.9081    8.6650   23.8318 C   0  0  0  0  0  0  0  0  0  0  0  0
   11.1839    7.0395   22.1933 C   0  0  0  0  0  0  0  0  0  0  0  0
   10.5245    6.5179   20.9598 C   0  0  0  0  0  0  0  0  0  0  0  0
   11.8439    6.2862   22.8439 O   0  0  0  0  0  0  0  0  0  0  0  0
    3.9212    1.7502   17.0931 C   0  0  0  0  0  0  0  0  0  0  0  0
    3.0810    0.5705   16.7122 C   0  0  0  0  0  0  0  0  0  0  0  0
    3.7411    4.1399   17.7145 N   0  0  0  0  0  0  0  0  0  0  0  0
    3.2048    3.0580   16.9338 C   0  0  0  0  0  0  0  0  0  0  0  0
    2.2422    3.1671   16.1841 O   0  0  0  0  0  0  0  0  0  0  0  0
    4.5589    3.9756   18.3547 H   0  0  0  0  0  0  0  0  0  0  0  0
    3.2219    5.4821   17.6934 C   0  0  0  0  0  0  0  0  0  0  0  0
    3.1765    6.1666   19.0058 C   0  0  0  0  0  0  0  0  0  0  0  0
    3.4244    7.3850   16.0309 N   0  0  0  0  0  0  0  0  0  0  0  0
    3.9616    6.2782   16.6264 C   0  0  0  0  0  0  0  0  0  0  0  0
    5.0897    5.8082   16.3779 O   0  0  0  0  0  0  0  0  0  0  0  0
    2.3989    7.6278   16.3775 H   0  0  0  0  0  0  0  0  0  0  0  0
    3.8856    8.3246   15.0495 C   0  0  0  0  0  0  0  0  0  0  0  0
    4.6489    9.4079   15.6648 C   0  0  0  0  0  0  0  0  0  0  0  0
    5.7664    9.6992   15.1158 O   0  0  0  0  0  0  0  0  0  0  0  0
    4.2478   10.1463   16.7957 N   0  0  0  0  0  0  0  0  0  0  0  0
    3.0105   10.0296   17.5682 C   0  0  0  0  0  0  0  0  0  0  0  0
    3.5851    9.9001   18.9713 C   0  0  0  0  0  0  0  0  0  0  0  0
    4.9321   10.6117   18.9212 C   0  0  0  0  0  0  0  0  0  0  0  0
    4.9826   11.1617   17.4977 C   0  0  0  0  0  0  0  0  0  0  0  0
    4.3234   12.4584   17.5118 C   0  0  0  0  0  0  0  0  0  0  0  0
    4.0695   13.0198   18.6596 O   0  0  0  0  0  0  0  0  0  0  0  0
    3.9303   13.1760   16.3748 N   0  0  0  0  0  0  0  0  0  0  0  0
    4.1110   12.8420   15.0017 C   0  0  0  0  0  0  0  0  0  0  0  0
    3.2202   14.4626   16.6351 C   0  0  0  0  0  0  0  0  0  0  0  0
    2.8824    8.8664   14.0896 C   0  0  0  0  0  0  0  0  0  0  0  0
    3.3819    6.9362   12.6346 C   0  0  0  0  0  0  0  0  0  0  0  0
    2.8863    8.4019   12.6955 C   0  0  0  0  0  0  0  0  0  0  0  0
    1.4617    8.3099   12.1175 C   0  0  0  0  0  0  0  0  0  0  0  0
 60 61  1  0  0  0
 61 62  1  0  0  0
 61 59  1  0  0  0
 59 46  1  0  0  0
 46 42  1  0  0  0
 42 43  1  0  0  0
 43 44  2  0  0  0
 43 40  1  0  0  0
 40 41  1  0  0  0
 40 36  1  0  0  0
 36 37  1  0  0  0
 37 38  2  0  0  0
 37 34  1  0  0  0
 34 35  1  0  0  0
 34  1  1  0  0  0
  1  2  1  0  0  0
  2  3  2  0  0  0
  2  5  1  0  0  0
  5  6  1  0  0  0
  5  7  1  0  0  0
  7  8  1  0  0  0
  8  9  2  0  0  0
  8 11  1  0  0  0
 11 12  1  0  0  0
 11 13  1  0  0  0
 13 14  1  0  0  0
 14 15  2  0  0  0
 14 17  1  0  0  0
 17 18  1  0  0  0
 17 19  1  0  0  0
 19 20  1  0  0  0
 20 21  2  0  0  0
 20 23  1  0  0  0
 23 24  1  0  0  0
 23 25  1  0  0  0
 25 26  1  0  0  0
 26 27  2  0  0  0
 26 29  1  0  0  0
 29 30  1  0  0  0
 29 31  1  0  0  0
 31 32  1  0  0  0
 31 33  2  0  0  0
 46 47  1  0  0  0
 47 48  2  0  0  0
 47 49  1  0  0  0
 49 50  1  0  0  0
 50 51  1  0  0  0
 51 52  1  0  0  0
 52 53  1  0  0  0
 53 54  1  0  0  0
 54 55  2  0  0  0
 54 56  1  0  0  0
 56 57  1  0  0  0
 56 58  1  0  0  0
 53 49  1  0  0  0
 42 45  1  0  0  0
 36 39  1  0  0  0
  1  4  1  0  0  0
  7 10  1  0  0  0
 13 16  1  0  0  0
 19 22  1  0  0  0
 25 28  1  0  0  0
M  END
> <minimizedAffinity>
-8.47224

> <CNNscore>
0.2433508039

> <CNNaffinity>
7.4346952438

> <CNN_VS>
1.8092390299

> <CNNaffinity_variance>
0.3308260143

$$$$
[H]N(C(=O)[C@]([H])(C(=O)C([H])([H])[H])C([H])([H])[H])[C@]([H])(C(=O)N([H])[C@]([H])(C(=O)N([H])[C@]([H])(C(=O)N([H])[C@]([H])(C(=O)N([H])[C@]([H])(C(=O)N([H])[C@]([H])(C(=O)N([H])[C@]([H])(C(=O)N1C([H])([H])C([H])([H])C([H])([H])[C@]1([H])C(=O)N(C([H])([H])[H])C([H])([H])[H])C([H])([H])C([H])(C([H])([H])[H])C([H])([H])[H])C([H])([H])[H])C([H])([H])[H])C([H])([H])[H])C([H])([H])[H])C([H])([H])[H])C([H])([H])[H]


 62 62  0  0  0  0  0  0  0  0999 V2000
    4.5717    4.9319   16.4293 N   0  0  0  0  0  0  0  0  0  0  0  0
    3.5673    3.9623   16.6706 C   0  0  0  0  0  0  0  0  0  0  0  0
    2.4071    4.1902   17.0762 O   0  0  0  0  0  0  0  0  0  0  0  0
    5.5030    4.6177   16.0907 H   0  0  0  0  0  0  0  0  0  0  0  0
    3.9097    2.5215   16.4288 C   0  0  0  0  0  0  0  0  0  0  0  0
    2.9612    2.0105   15.3234 C   0  0  0  0  0  0  0  0  0  0  0  0
    3.6606    1.7801   17.6458 N   0  0  0  0  0  0  0  0  0  0  0  0
    4.4953    2.0818   18.7451 C   0  0  0  0  0  0  0  0  0  0  0  0
    5.3862    2.9520   18.6258 O   0  0  0  0  0  0  0  0  0  0  0  0
    2.9247    1.0669   17.7336 H   0  0  0  0  0  0  0  0  0  0  0  0
    4.2665    1.3161   20.0318 C   0  0  0  0  0  0  0  0  0  0  0  0
    3.2080    0.3018   19.9228 C   0  0  0  0  0  0  0  0  0  0  0  0
    4.0308    2.3523   21.0355 N   0  0  0  0  0  0  0  0  0  0  0  0
    4.9031    2.5732   22.0971 C   0  0  0  0  0  0  0  0  0  0  0  0
    5.9637    1.8478   22.2029 O   0  0  0  0  0  0  0  0  0  0  0  0
    3.1669    2.9207   20.9156 H   0  0  0  0  0  0  0  0  0  0  0  0
    4.7589    3.5937   23.1720 C   0  0  0  0  0  0  0  0  0  0  0  0
    3.3542    3.9604   23.4898 C   0  0  0  0  0  0  0  0  0  0  0  0
    5.5636    4.7174   22.7312 N   0  0  0  0  0  0  0  0  0  0  0  0
    5.2601    5.5916   21.6635 C   0  0  0  0  0  0  0  0  0  0  0  0
    4.1979    5.3969   21.0140 O   0  0  0  0  0  0  0  0  0  0  0  0
    6.4796    4.9081   23.2494 H   0  0  0  0  0  0  0  0  0  0  0  0
    6.1813    6.7187   21.3329 C   0  0  0  0  0  0  0  0  0  0  0  0
    7.1117    6.9330   22.5293 C   0  0  0  0  0  0  0  0  0  0  0  0
    5.4448    7.9288   21.1406 N   0  0  0  0  0  0  0  0  0  0  0  0
    5.8710    9.0598   20.4018 C   0  0  0  0  0  0  0  0  0  0  0  0
    6.9877    9.0109   19.8477 O   0  0  0  0  0  0  0  0  0  0  0  0
    4.4901    7.9746   21.5950 H   0  0  0  0  0  0  0  0  0  0  0  0
    4.9835   10.2545   20.3131 C   0  0  0  0  0  0  0  0  0  0  0  0
    5.8606   11.4515   19.9518 C   0  0  0  0  0  0  0  0  0  0  0  0
    4.0590   10.0423   19.1645 C   0  0  0  0  0  0  0  0  0  0  0  0
    4.1045   10.9347   17.9688 C   0  0  0  0  0  0  0  0  0  0  0  0
    3.2637    9.1515   19.1760 O   0  0  0  0  0  0  0  0  0  0  0  0
    4.3491    6.3206   16.6366 C   0  0  0  0  0  0  0  0  0  0  0  0
    5.5056    6.9380   17.3607 C   0  0  0  0  0  0  0  0  0  0  0  0
    5.1297    7.6755   14.7172 N   0  0  0  0  0  0  0  0  0  0  0  0
    4.0181    7.0211   15.3526 C   0  0  0  0  0  0  0  0  0  0  0  0
    2.8793    7.0145   14.9013 O   0  0  0  0  0  0  0  0  0  0  0  0
    6.0801    7.6603   15.1670 H   0  0  0  0  0  0  0  0  0  0  0  0
    5.0394    8.3841   13.4677 C   0  0  0  0  0  0  0  0  0  0  0  0
    6.2483    9.1470   13.0809 C   0  0  0  0  0  0  0  0  0  0  0  0
    5.2795    6.3058   12.0361 N   0  0  0  0  0  0  0  0  0  0  0  0
    4.5681    7.4185   12.3884 C   0  0  0  0  0  0  0  0  0  0  0  0
    3.4785    7.7597   11.8868 O   0  0  0  0  0  0  0  0  0  0  0  0
    6.2351    6.1911   12.5878 H   0  0  0  0  0  0  0  0  0  0  0  0
    5.0745    5.2313   11.1076 C   0  0  0  0  0  0  0  0  0  0  0  0
    4.0648    4.2927   11.5919 C   0  0  0  0  0  0  0  0  0  0  0  0
    4.1131    3.9969   12.8349 O   0  0  0  0  0  0  0  0  0  0  0  0
    3.0556    3.7045   10.8041 N   0  0  0  0  0  0  0  0  0  0  0  0
    2.7723    3.9109    9.3834 C   0  0  0  0  0  0  0  0  0  0  0  0
    2.7368    2.4659    8.9074 C   0  0  0  0  0  0  0  0  0  0  0  0
    2.3294    1.6503   10.1290 C   0  0  0  0  0  0  0  0  0  0  0  0
    2.0887    2.7166   11.1950 C   0  0  0  0  0  0  0  0  0  0  0  0
    0.7098    3.1599   11.0592 C   0  0  0  0  0  0  0  0  0  0  0  0
   -0.0544    2.5709   10.1839 O   0  0  0  0  0  0  0  0  0  0  0  0
    0.1151    4.1858   11.8048 N   0  0  0  0  0  0  0  0  0  0  0  0
    0.6793    4.9720   12.8503 C   0  0  0  0  0  0  0  0  0  0  0  0
   -1.3001    4.5042   11.4535 C   0  0  0  0  0  0  0  0  0  0  0  0
    6.2796    4.5029   10.6198 C   0  0  0  0  0  0  0  0  0  0  0  0
    7.6638    4.8957    8.6144 C   0  0  0  0  0  0  0  0  0  0  0  0
    6.4107    4.1913    9.1897 C   0  0  0  0  0  0  0  0  0  0  0  0
    6.7127    2.6997    8.9529 C   0  0  0  0  0  0  0  0  0  0  0  0
 60 61  1  0  0  0
 61 62  1  0  0  0
 61 59  1  0  0  0
 59 46  1  0  0  0
 46 42  1  0  0  0
 42 43  1  0  0  0
 43 44  2  0  0  0
 43 40  1  0  0  0
 40 41  1  0  0  0
 40 36  1  0  0  0
 36 37  1  0  0  0
 37 38  2  0  0  0
 37 34  1  0  0  0
 34 35  1  0  0  0
 34  1  1  0  0  0
  1  2  1  0  0  0
  2  3  2  0  0  0
  2  5  1  0  0  0
  5  6  1  0  0  0
  5  7  1  0  0  0
  7  8  1  0  0  0
  8  9  2  0  0  0
  8 11  1  0  0  0
 11 12  1  0  0  0
 11 13  1  0  0  0
 13 14  1  0  0  0
 14 15  2  0  0  0
 14 17  1  0  0  0
 17 18  1  0  0  0
 17 19  1  0  0  0
 19 20  1  0  0  0
 20 21  2  0  0  0
 20 23  1  0  0  0
 23 24  1  0  0  0
 23 25  1  0  0  0
 25 26  1  0  0  0
 26 27  2  0  0  0
 26 29  1  0  0  0
 29 30  1  0  0  0
 29 31  1  0  0  0
 31 32  1  0  0  0
 31 33  2  0  0  0
 46 47  1  0  0  0
 47 48  2  0  0  0
 47 49  1  0  0  0
 49 50  1  0  0  0
 50 51  1  0  0  0
 51 52  1  0  0  0
 52 53  1  0  0  0
 53 54  1  0  0  0
 54 55  2  0  0  0
 54 56  1  0  0  0
 56 57  1  0  0  0
 56 58  1  0  0  0
 53 49  1  0  0  0
 42 45  1  0  0  0
 36 39  1  0  0  0
  1  4  1  0  0  0
  7 10  1  0  0  0
 13 16  1  0  0  0
 19 22  1  0  0  0
 25 28  1  0  0  0
M  END
> <minimizedAffinity>
-8.15596

> <CNNscore>
0.2190291584

> <CNNaffinity>
7.0529174805

> <CNN_VS>
1.5447945595

> <CNNaffinity_variance>
0.5520862341

$$$$
[H]N(C(=O)[C@]([H])(C(=O)C([H])([H])[H])C([H])([H])[H])[C@]([H])(C(=O)N([H])[C@]([H])(C(=O)N([H])[C@]([H])(C(=O)N([H])[C@]([H])(C(=O)N([H])[C@]([H])(C(=O)N([H])[C@]([H])(C(=O)N([H])[C@]([H])(C(=O)N1C([H])([H])C([H])([H])C([H])([H])[C@]1([H])C(=O)N(C([H])([H])[H])C([H])([H])[H])C([H])([H])C([H])(C([H])([H])[H])C([H])([H])[H])C([H])([H])[H])C([H])([H])[H])C([H])([H])[H])C([H])([H])[H])C([H])([H])[H])C([H])([H])[H]


 62 62  0  0  0  0  0  0  0  0999 V2000
    4.1612    7.3274   12.6104 N   0  0  0  0  0  0  0  0  0  0  0  0
    5.3737    8.0567   12.5379 C   0  0  0  0  0  0  0  0  0  0  0  0
    5.7545    8.9328   13.3440 O   0  0  0  0  0  0  0  0  0  0  0  0
    3.9551    6.6202   11.8769 H   0  0  0  0  0  0  0  0  0  0  0  0
    6.2978    7.7700   11.3910 C   0  0  0  0  0  0  0  0  0  0  0  0
    7.7331    8.0494   11.8858 C   0  0  0  0  0  0  0  0  0  0  0  0
    5.9845    8.6797   10.3108 N   0  0  0  0  0  0  0  0  0  0  0  0
    5.4085    8.1056    9.1554 C   0  0  0  0  0  0  0  0  0  0  0  0
    5.1975    6.8731    9.1158 O   0  0  0  0  0  0  0  0  0  0  0  0
    6.1615    9.6920   10.3538 H   0  0  0  0  0  0  0  0  0  0  0  0
    5.0772    9.0300    8.0022 C   0  0  0  0  0  0  0  0  0  0  0  0
    3.6328    9.1700    7.7675 C   0  0  0  0  0  0  0  0  0  0  0  0
    5.8391    8.4945    6.8755 N   0  0  0  0  0  0  0  0  0  0  0  0
    6.4388    9.3149    5.9247 C   0  0  0  0  0  0  0  0  0  0  0  0
    6.3302   10.5947    6.0378 O   0  0  0  0  0  0  0  0  0  0  0  0
    5.9087    7.4574    6.8189 H   0  0  0  0  0  0  0  0  0  0  0  0
    7.2307    8.8775    4.7418 C   0  0  0  0  0  0  0  0  0  0  0  0
    6.5337    7.9074    3.8576 C   0  0  0  0  0  0  0  0  0  0  0  0
    8.4734    8.3691    5.2910 N   0  0  0  0  0  0  0  0  0  0  0  0
    9.7711    8.8411    4.9924 C   0  0  0  0  0  0  0  0  0  0  0  0
    9.8887    9.7900    4.1716 O   0  0  0  0  0  0  0  0  0  0  0  0
    8.4165    7.5547    5.9822 H   0  0  0  0  0  0  0  0  0  0  0  0
   10.9620    8.2256    5.6494 C   0  0  0  0  0  0  0  0  0  0  0  0
   11.7105    7.4063    4.5953 C   0  0  0  0  0  0  0  0  0  0  0  0
   10.5556    7.3255    6.6830 N   0  0  0  0  0  0  0  0  0  0  0  0
   11.4115    6.6327    7.5741 C   0  0  0  0  0  0  0  0  0  0  0  0
   12.6404    6.8217    7.4720 O   0  0  0  0  0  0  0  0  0  0  0  0
    9.5140    7.1694    6.7868 H   0  0  0  0  0  0  0  0  0  0  0  0
   10.8232    5.7130    8.5894 C   0  0  0  0  0  0  0  0  0  0  0  0
   10.4517    6.5538    9.8090 C   0  0  0  0  0  0  0  0  0  0  0  0
    9.5469    5.1857    8.0311 C   0  0  0  0  0  0  0  0  0  0  0  0
    9.5208    3.9189    7.2419 C   0  0  0  0  0  0  0  0  0  0  0  0
    8.5172    5.7649    8.2060 O   0  0  0  0  0  0  0  0  0  0  0  0
    3.2157    7.5317   13.6522 C   0  0  0  0  0  0  0  0  0  0  0  0
    2.2963    8.6648   13.3154 C   0  0  0  0  0  0  0  0  0  0  0  0
    3.2896    5.2605   14.6348 N   0  0  0  0  0  0  0  0  0  0  0  0
    2.4879    6.2646   13.9892 C   0  0  0  0  0  0  0  0  0  0  0  0
    1.2993    6.1264   13.7270 O   0  0  0  0  0  0  0  0  0  0  0  0
    4.3109    5.4341   14.8147 H   0  0  0  0  0  0  0  0  0  0  0  0
    2.7861    3.9827   15.0652 C   0  0  0  0  0  0  0  0  0  0  0  0
    2.6956    2.9473   14.0103 C   0  0  0  0  0  0  0  0  0  0  0  0
    3.3237    4.0030   17.5424 N   0  0  0  0  0  0  0  0  0  0  0  0
    3.5763    3.5291   16.2855 C   0  0  0  0  0  0  0  0  0  0  0  0
    4.4532    2.6895   16.0001 O   0  0  0  0  0  0  0  0  0  0  0  0
    2.5145    4.7609   17.5818 H   0  0  0  0  0  0  0  0  0  0  0  0
    3.8658    3.7422   18.8450 C   0  0  0  0  0  0  0  0  0  0  0  0
    4.9736    4.6440   19.1525 C   0  0  0  0  0  0  0  0  0  0  0  0
    5.8942    4.7353   18.2698 O   0  0  0  0  0  0  0  0  0  0  0  0
    5.0965    5.4116   20.3276 N   0  0  0  0  0  0  0  0  0  0  0  0
    4.1678    5.5077   21.4543 C   0  0  0  0  0  0  0  0  0  0  0  0
    5.1210    5.2315   22.6080 C   0  0  0  0  0  0  0  0  0  0  0  0
    6.4917    5.6778   22.1124 C   0  0  0  0  0  0  0  0  0  0  0  0
    6.1923    6.2494   20.7286 C   0  0  0  0  0  0  0  0  0  0  0  0
    5.8273    7.6462   20.9077 C   0  0  0  0  0  0  0  0  0  0  0  0
    6.0784    8.2177   22.0511 O   0  0  0  0  0  0  0  0  0  0  0  0
    5.2182    8.4517   19.9371 N   0  0  0  0  0  0  0  0  0  0  0  0
    4.8664    8.1227   18.5963 C   0  0  0  0  0  0  0  0  0  0  0  0
    4.8861    9.8423   20.3656 C   0  0  0  0  0  0  0  0  0  0  0  0
    4.2273    2.3337   19.1715 C   0  0  0  0  0  0  0  0  0  0  0  0
    3.4752    0.5569   20.7107 C   0  0  0  0  0  0  0  0  0  0  0  0
    4.2434    1.8943   20.5736 C   0  0  0  0  0  0  0  0  0  0  0  0
    5.6634    1.5276   21.0437 C   0  0  0  0  0  0  0  0  0  0  0  0
 60 61  1  0  0  0
 61 62  1  0  0  0
 61 59  1  0  0  0
 59 46  1  0  0  0
 46 42  1  0  0  0
 42 43  1  0  0  0
 43 44  2  0  0  0
 43 40  1  0  0  0
 40 41  1  0  0  0
 40 36  1  0  0  0
 36 37  1  0  0  0
 37 38  2  0  0  0
 37 34  1  0  0  0
 34 35  1  0  0  0
 34  1  1  0  0  0
  1  2  1  0  0  0
  2  3  2  0  0  0
  2  5  1  0  0  0
  5  6  1  0  0  0
  5  7  1  0  0  0
  7  8  1  0  0  0
  8  9  2  0  0  0
  8 11  1  0  0  0
 11 12  1  0  0  0
 11 13  1  0  0  0
 13 14  1  0  0  0
 14 15  2  0  0  0
 14 17  1  0  0  0
 17 18  1  0  0  0
 17 19  1  0  0  0
 19 20  1  0  0  0
 20 21  2  0  0  0
 20 23  1  0  0  0
 23 24  1  0  0  0
 23 25  1  0  0  0
 25 26  1  0  0  0
 26 27  2  0  0  0
 26 29  1  0  0  0
 29 30  1  0  0  0
 29 31  1  0  0  0
 31 32  1  0  0  0
 31 33  2  0  0  0
 46 47  1  0  0  0
 47 48  2  0  0  0
 47 49  1  0  0  0
 49 50  1  0  0  0
 50 51  1  0  0  0
 51 52  1  0  0  0
 52 53  1  0  0  0
 53 54  1  0  0  0
 54 55  2  0  0  0
 54 56  1  0  0  0
 56 57  1  0  0  0
 56 58  1  0  0  0
 53 49  1  0  0  0
 42 45  1  0  0  0
 36 39  1  0  0  0
  1  4  1  0  0  0
  7 10  1  0  0  0
 13 16  1  0  0  0
 19 22  1  0  0  0
 25 28  1  0  0  0
M  END
> <minimizedAffinity>
-8.52498

> <CNNscore>
0.2047042996

> <CNNaffinity>
6.4378905296

> <CNN_VS>
1.3178638220

> <CNNaffinity_variance>
0.2023597062

$$$$
[H]N(C(=O)[C@]([H])(C(=O)C([H])([H])[H])C([H])([H])[H])[C@]([H])(C(=O)N([H])[C@]([H])(C(=O)N([H])[C@]([H])(C(=O)N([H])[C@]([H])(C(=O)N([H])[C@]([H])(C(=O)N([H])[C@]([H])(C(=O)N([H])[C@]([H])(C(=O)N1C([H])([H])C([H])([H])C([H])([H])[C@]1([H])C(=O)N(C([H])([H])[H])C([H])([H])[H])C([H])([H])C([H])(C([H])([H])[H])C([H])([H])[H])C([H])([H])[H])C([H])([H])[H])C([H])([H])[H])C([H])([H])[H])C([H])([H])[H])C([H])([H])[H]


 62 62  0  0  0  0  0  0  0  0999 V2000
    3.1324   10.0142   15.3498 N   0  0  0  0  0  0  0  0  0  0  0  0
    3.5018   11.3733   15.1952 C   0  0  0  0  0  0  0  0  0  0  0  0
    4.3259   11.8223   14.3696 O   0  0  0  0  0  0  0  0  0  0  0  0
    2.4316    9.7630   16.0753 H   0  0  0  0  0  0  0  0  0  0  0  0
    2.8600   12.3826   16.1013 C   0  0  0  0  0  0  0  0  0  0  0  0
    2.7476   13.6995   15.3038 C   0  0  0  0  0  0  0  0  0  0  0  0
    3.7259   12.5924   17.2410 N   0  0  0  0  0  0  0  0  0  0  0  0
    3.4381   11.8299   18.3951 C   0  0  0  0  0  0  0  0  0  0  0  0
    2.4778   11.0281   18.3841 O   0  0  0  0  0  0  0  0  0  0  0  0
    4.5136   13.2538   17.2394 H   0  0  0  0  0  0  0  0  0  0  0  0
    4.3206   12.0330   19.6093 C   0  0  0  0  0  0  0  0  0  0  0  0
    4.6261   13.4463   19.8745 C   0  0  0  0  0  0  0  0  0  0  0  0
    5.4839   11.1836   19.3604 N   0  0  0  0  0  0  0  0  0  0  0  0
    5.5988    9.9030   19.8927 C   0  0  0  0  0  0  0  0  0  0  0  0
    4.6464    9.4376   20.6266 O   0  0  0  0  0  0  0  0  0  0  0  0
    6.2308   11.5910   18.7604 H   0  0  0  0  0  0  0  0  0  0  0  0
    6.7353    8.9587   19.7067 C   0  0  0  0  0  0  0  0  0  0  0  0
    6.7918    8.3179   18.3671 C   0  0  0  0  0  0  0  0  0  0  0  0
    6.6144    8.0090   20.7967 N   0  0  0  0  0  0  0  0  0  0  0  0
    7.5583    7.0176   21.1465 C   0  0  0  0  0  0  0  0  0  0  0  0
    8.6116    6.9256   20.4609 O   0  0  0  0  0  0  0  0  0  0  0  0
    5.7283    8.0467   21.3946 H   0  0  0  0  0  0  0  0  0  0  0  0
    7.3025    6.1161   22.3085 C   0  0  0  0  0  0  0  0  0  0  0  0
    8.6435    5.5252   22.7504 C   0  0  0  0  0  0  0  0  0  0  0  0
    6.4604    5.0271   21.9230 N   0  0  0  0  0  0  0  0  0  0  0  0
    5.0520    5.0687   21.7773 C   0  0  0  0  0  0  0  0  0  0  0  0
    4.4728    6.1532   21.9891 O   0  0  0  0  0  0  0  0  0  0  0  0
    6.9440    4.1062   21.7273 H   0  0  0  0  0  0  0  0  0  0  0  0
    4.3190    3.8320   21.3821 C   0  0  0  0  0  0  0  0  0  0  0  0
    5.1802    3.0962   20.3577 C   0  0  0  0  0  0  0  0  0  0  0  0
    4.2415    2.9535   22.5826 C   0  0  0  0  0  0  0  0  0  0  0  0
    3.8623    1.5152   22.4567 C   0  0  0  0  0  0  0  0  0  0  0  0
    4.4839    3.3818   23.6707 O   0  0  0  0  0  0  0  0  0  0  0  0
    3.6898    8.9819   14.5469 C   0  0  0  0  0  0  0  0  0  0  0  0
    4.6697    9.5476   13.5658 C   0  0  0  0  0  0  0  0  0  0  0  0
    3.3111    7.1640   16.1843 N   0  0  0  0  0  0  0  0  0  0  0  0
    4.2684    7.8838   15.3885 C   0  0  0  0  0  0  0  0  0  0  0  0
    5.4684    7.6384   15.3743 O   0  0  0  0  0  0  0  0  0  0  0  0
    2.2958    7.4373   16.1661 H   0  0  0  0  0  0  0  0  0  0  0  0
    3.6471    6.0593   17.0434 C   0  0  0  0  0  0  0  0  0  0  0  0
    3.3959    6.2773   18.4865 C   0  0  0  0  0  0  0  0  0  0  0  0
    3.6348    3.9265   15.6732 N   0  0  0  0  0  0  0  0  0  0  0  0
    2.9864    4.7980   16.5029 C   0  0  0  0  0  0  0  0  0  0  0  0
    1.8147    4.6630   16.9079 O   0  0  0  0  0  0  0  0  0  0  0  0
    4.6676    4.2381   15.4140 H   0  0  0  0  0  0  0  0  0  0  0  0
    3.2885    2.6803   15.0522 C   0  0  0  0  0  0  0  0  0  0  0  0
    2.4513    2.8861   13.8725 C   0  0  0  0  0  0  0  0  0  0  0  0
    1.3124    2.3049   13.8752 O   0  0  0  0  0  0  0  0  0  0  0  0
    2.7987    3.6695   12.7542 N   0  0  0  0  0  0  0  0  0  0  0  0
    4.0138    4.4545   12.5338 C   0  0  0  0  0  0  0  0  0  0  0  0
    4.4245    3.9291   11.1659 C   0  0  0  0  0  0  0  0  0  0  0  0
    3.1292    3.4705   10.5061 C   0  0  0  0  0  0  0  0  0  0  0  0
    2.0635    3.8464   11.5328 C   0  0  0  0  0  0  0  0  0  0  0  0
    1.6808    5.2257   11.2734 C   0  0  0  0  0  0  0  0  0  0  0  0
    1.9595    5.7453   10.1117 O   0  0  0  0  0  0  0  0  0  0  0  0
    1.0214    6.0644   12.1811 N   0  0  0  0  0  0  0  0  0  0  0  0
    0.5550    5.7677   13.4941 C   0  0  0  0  0  0  0  0  0  0  0  0
    0.7790    7.4608   11.7133 C   0  0  0  0  0  0  0  0  0  0  0  0
    2.7196    1.6119   15.9217 C   0  0  0  0  0  0  0  0  0  0  0  0
    2.6806    0.1310   17.8959 C   0  0  0  0  0  0  0  0  0  0  0  0
    3.2106    1.4574   17.2981 C   0  0  0  0  0  0  0  0  0  0  0  0
    4.7388    1.2719   17.3447 C   0  0  0  0  0  0  0  0  0  0  0  0
 60 61  1  0  0  0
 61 62  1  0  0  0
 61 59  1  0  0  0
 59 46  1  0  0  0
 46 42  1  0  0  0
 42 43  1  0  0  0
 43 44  2  0  0  0
 43 40  1  0  0  0
 40 41  1  0  0  0
 40 36  1  0  0  0
 36 37  1  0  0  0
 37 38  2  0  0  0
 37 34  1  0  0  0
 34 35  1  0  0  0
 34  1  1  0  0  0
  1  2  1  0  0  0
  2  3  2  0  0  0
  2  5  1  0  0  0
  5  6  1  0  0  0
  5  7  1  0  0  0
  7  8  1  0  0  0
  8  9  2  0  0  0
  8 11  1  0  0  0
 11 12  1  0  0  0
 11 13  1  0  0  0
 13 14  1  0  0  0
 14 15  2  0  0  0
 14 17  1  0  0  0
 17 18  1  0  0  0
 17 19  1  0  0  0
 19 20  1  0  0  0
 20 21  2  0  0  0
 20 23  1  0  0  0
 23 24  1  0  0  0
 23 25  1  0  0  0
 25 26  1  0  0  0
 26 27  2  0  0  0
 26 29  1  0  0  0
 29 30  1  0  0  0
 29 31  1  0  0  0
 31 32  1  0  0  0
 31 33  2  0  0  0
 46 47  1  0  0  0
 47 48  2  0  0  0
 47 49  1  0  0  0
 49 50  1  0  0  0
 50 51  1  0  0  0
 51 52  1  0  0  0
 52 53  1  0  0  0
 53 54  1  0  0  0
 54 55  2  0  0  0
 54 56  1  0  0  0
 56 57  1  0  0  0
 56 58  1  0  0  0
 53 49  1  0  0  0
 42 45  1  0  0  0
 36 39  1  0  0  0
  1  4  1  0  0  0
  7 10  1  0  0  0
 13 16  1  0  0  0
 19 22  1  0  0  0
 25 28  1  0  0  0
M  END
> <minimizedAffinity>
-8.44032

> <CNNscore>
0.1939964592

> <CNNaffinity>
6.9874696732

> <CNN_VS>
1.3555443287

> <CNNaffinity_variance>
1.0920646191

$$$$
[H]N(C(=O)[C@@]([H])(N([H])C(=O)[C@@]([H])(N([H])C(=O)[C@@]([H])(C(=O)C([H])([H])[H])C([H])([H])[H])C([H])([H])[H])C([H])([H])[H])[C@]([H])(C(=O)N([H])[C@]([H])(C(=O)N([H])[C@]([H])(C(=O)N([H])[C@]([H])(C(=O)N([H])[C@]([H])(C(=O)N1C([H])([H])C([H])([H])C([H])([H])[C@]1([H])C(=O)N(C([H])([H])[H])C([H])([H])[H])C([H])([H])C([H])(C([H])([H])[H])C([H])([H])[H])C([H])([H])[H])C([H])([H])[H])C([H])([H])[H])C([H])([H])[H]


 62 62  0  0  0  0  0  0  0  0999 V2000
    4.8097    2.3205   19.2616 N   0  0  0  0  0  0  0  0  0  0  0  0
    4.4226    2.1203   17.9650 C   0  0  0  0  0  0  0  0  0  0  0  0
    3.7576    1.2396   17.4210 O   0  0  0  0  0  0  0  0  0  0  0  0
    5.4105    3.1776   19.4724 H   0  0  0  0  0  0  0  0  0  0  0  0
    4.9476    3.1420   16.9489 C   0  0  0  0  0  0  0  0  0  0  0  0
    5.6594    4.2561   17.7095 C   0  0  0  0  0  0  0  0  0  0  0  0
    3.8798    3.4207   16.1503 N   0  0  0  0  0  0  0  0  0  0  0  0
    2.6961    4.0472   15.9645 C   0  0  0  0  0  0  0  0  0  0  0  0
    2.1072    4.6965   16.8702 O   0  0  0  0  0  0  0  0  0  0  0  0
    4.0847    2.8170   15.1373 H   0  0  0  0  0  0  0  0  0  0  0  0
    2.1737    3.8965   14.5281 C   0  0  0  0  0  0  0  0  0  0  0  0
    3.5527    4.0360   13.7457 C   0  0  0  0  0  0  0  0  0  0  0  0
    1.3743    4.9429   14.0944 N   0  0  0  0  0  0  0  0  0  0  0  0
    0.3586    4.6974   13.0851 C   0  0  0  0  0  0  0  0  0  0  0  0
    0.2217    3.5728   12.5735 O   0  0  0  0  0  0  0  0  0  0  0  0
    1.4426    5.9194   14.4964 H   0  0  0  0  0  0  0  0  0  0  0  0
   -0.5750    5.7716   12.6329 C   0  0  0  0  0  0  0  0  0  0  0  0
   -0.8356    6.6991   13.8228 C   0  0  0  0  0  0  0  0  0  0  0  0
   -1.8359    5.0574   12.2729 N   0  0  0  0  0  0  0  0  0  0  0  0
   -2.3177    5.2267   10.9931 C   0  0  0  0  0  0  0  0  0  0  0  0
   -1.6829    6.0285   10.2059 O   0  0  0  0  0  0  0  0  0  0  0  0
   -2.2643    4.4571   13.0183 H   0  0  0  0  0  0  0  0  0  0  0  0
   -3.5209    4.5786   10.3587 C   0  0  0  0  0  0  0  0  0  0  0  0
   -4.3818    3.8459   11.3026 C   0  0  0  0  0  0  0  0  0  0  0  0
   -2.9931    3.7646    9.3249 N   0  0  0  0  0  0  0  0  0  0  0  0
   -2.4866    2.9849    8.3340 C   0  0  0  0  0  0  0  0  0  0  0  0
   -1.3784    3.1628    7.7344 O   0  0  0  0  0  0  0  0  0  0  0  0
   -1.8316    4.4439    9.3803 H   0  0  0  0  0  0  0  0  0  0  0  0
   -3.2674    1.7557    7.8024 C   0  0  0  0  0  0  0  0  0  0  0  0
   -4.7093    2.1172    7.8423 C   0  0  0  0  0  0  0  0  0  0  0  0
   -3.0345    0.7736    8.9159 C   0  0  0  0  0  0  0  0  0  0  0  0
   -1.7866    0.0002    9.0698 C   0  0  0  0  0  0  0  0  0  0  0  0
   -3.9055    0.5788    9.7277 O   0  0  0  0  0  0  0  0  0  0  0  0
    4.5028    1.4859   20.3211 C   0  0  0  0  0  0  0  0  0  0  0  0
    5.6757    0.7050   20.8736 C   0  0  0  0  0  0  0  0  0  0  0  0
    3.9682    3.5967   21.3255 N   0  0  0  0  0  0  0  0  0  0  0  0
    3.8259    2.2564   21.4793 C   0  0  0  0  0  0  0  0  0  0  0  0
    3.2904    1.5190   22.3186 O   0  0  0  0  0  0  0  0  0  0  0  0
    4.3327    4.0608   20.4531 H   0  0  0  0  0  0  0  0  0  0  0  0
    3.6154    4.6978   22.3210 C   0  0  0  0  0  0  0  0  0  0  0  0
    4.3150    4.5007   23.5957 C   0  0  0  0  0  0  0  0  0  0  0  0
    4.4079    7.1082   21.7085 N   0  0  0  0  0  0  0  0  0  0  0  0
    4.4276    5.7611   21.5611 C   0  0  0  0  0  0  0  0  0  0  0  0
    5.2186    5.1787   20.7418 O   0  0  0  0  0  0  0  0  0  0  0  0
    3.5841    7.5147   22.2623 H   0  0  0  0  0  0  0  0  0  0  0  0
    5.3121    8.0677   21.1718 C   0  0  0  0  0  0  0  0  0  0  0  0
    6.3614    8.6286   21.9351 C   0  0  0  0  0  0  0  0  0  0  0  0
    6.2290    9.6702   22.6636 O   0  0  0  0  0  0  0  0  0  0  0  0
    7.6737    8.0003   21.8904 N   0  0  0  0  0  0  0  0  0  0  0  0
    8.0484    6.7812   21.3034 C   0  0  0  0  0  0  0  0  0  0  0  0
    9.3456    7.1541   20.5598 C   0  0  0  0  0  0  0  0  0  0  0  0
    9.8622    8.3534   21.2901 C   0  0  0  0  0  0  0  0  0  0  0  0
    8.8474    8.6061   22.3993 C   0  0  0  0  0  0  0  0  0  0  0  0
    9.3765    8.0112   23.6124 C   0  0  0  0  0  0  0  0  0  0  0  0
   10.5046    7.3066   23.4633 O   0  0  0  0  0  0  0  0  0  0  0  0
    8.8921    8.0865   24.9256 N   0  0  0  0  0  0  0  0  0  0  0  0
    7.7315    8.7010   25.4397 C   0  0  0  0  0  0  0  0  0  0  0  0
    9.8097    7.4597   25.9469 C   0  0  0  0  0  0  0  0  0  0  0  0
    4.4943    9.2551   20.6149 C   0  0  0  0  0  0  0  0  0  0  0  0
    3.9751    7.9043   18.5882 C   0  0  0  0  0  0  0  0  0  0  0  0
    4.2955    9.2734   19.1519 C   0  0  0  0  0  0  0  0  0  0  0  0
    3.2415   10.2713   18.6555 C   0  0  0  0  0  0  0  0  0  0  0  0
 60 61  1  0  0  0
 61 62  1  0  0  0
 61 59  1  0  0  0
 59 46  1  0  0  0
 46 42  1  0  0  0
 42 43  1  0  0  0
 43 44  2  0  0  0
 43 40  1  0  0  0
 40 41  1  0  0  0
 40 36  1  0  0  0
 36 37  1  0  0  0
 37 38  2  0  0  0
 37 34  1  0  0  0
 34 35  1  0  0  0
 34  1  1  0  0  0
  1  2  1  0  0  0
  2  3  2  0  0  0
  2  5  1  0  0  0
  5  6  1  0  0  0
  5  7  1  0  0  0
  7  8  1  0  0  0
  8  9  2  0  0  0
  8 11  1  0  0  0
 11 12  1  0  0  0
 11 13  1  0  0  0
 13 14  1  0  0  0
 14 15  2  0  0  0
 14 17  1  0  0  0
 17 18  1  0  0  0
 17 19  1  0  0  0
 19 20  1  0  0  0
 20 21  2  0  0  0
 20 23  1  0  0  0
 23 24  1  0  0  0
 23 25  1  0  0  0
 25 26  1  0  0  0
 26 27  2  0  0  0
 26 29  1  0  0  0
 29 30  1  0  0  0
 29 31  1  0  0  0
 31 32  1  0  0  0
 31 33  2  0  0  0
 46 47  1  0  0  0
 47 48  2  0  0  0
 47 49  1  0  0  0
 49 50  1  0  0  0
 50 51  1  0  0  0
 51 52  1  0  0  0
 52 53  1  0  0  0
 53 54  1  0  0  0
 54 55  2  0  0  0
 54 56  1  0  0  0
 56 57  1  0  0  0
 56 58  1  0  0  0
 53 49  1  0  0  0
 42 45  1  0  0  0
 36 39  1  0  0  0
  1  4  1  0  0  0
  7 10  1  0  0  0
 13 16  1  0  0  0
 19 22  1  0  0  0
 25 28  1  0  0  0
M  END
> <minimizedAffinity>
-8.68073

> <CNNscore>
0.4679194987

> <CNNaffinity>
6.9842061996

> <CNN_VS>
3.2680463791

> <CNNaffinity_variance>
0.3163847923

$$$$
[H]N(C(=O)[C@@]([H])(N([H])C(=O)[C@@]([H])(N([H])C(=O)[C@@]([H])(C(=O)C([H])([H])[H])C([H])([H])[H])C([H])([H])[H])C([H])([H])[H])[C@]([H])(C(=O)N([H])[C@]([H])(C(=O)N([H])[C@]([H])(C(=O)N([H])[C@]([H])(C(=O)N([H])[C@]([H])(C(=O)N1C([H])([H])C([H])([H])C([H])([H])[C@]1([H])C(=O)N(C([H])([H])[H])C([H])([H])[H])C([H])([H])C([H])(C([H])([H])[H])C([H])([H])[H])C([H])([H])[H])C([H])([H])[H])C([H])([H])[H])C([H])([H])[H]


 62 62  0  0  0  0  0  0  0  0999 V2000
    4.2362    1.7606   19.2137 N   0  0  0  0  0  0  0  0  0  0  0  0
    3.2931    1.1997   18.3969 C   0  0  0  0  0  0  0  0  0  0  0  0
    2.5511    0.2268   18.5271 O   0  0  0  0  0  0  0  0  0  0  0  0
    4.7633    2.6143   18.8484 H   0  0  0  0  0  0  0  0  0  0  0  0
    3.1396    1.8475   17.0154 C   0  0  0  0  0  0  0  0  0  0  0  0
    3.8024    0.9421   15.9822 C   0  0  0  0  0  0  0  0  0  0  0  0
    3.5611    3.1319   17.1832 N   0  0  0  0  0  0  0  0  0  0  0  0
    4.5742    4.0201   17.2968 C   0  0  0  0  0  0  0  0  0  0  0  0
    5.7880    3.6834   17.3415 O   0  0  0  0  0  0  0  0  0  0  0  0
    2.5577    3.7760   17.2881 H   0  0  0  0  0  0  0  0  0  0  0  0
    4.0767    5.4726   17.3385 C   0  0  0  0  0  0  0  0  0  0  0  0
    2.7371    5.2532   18.1696 C   0  0  0  0  0  0  0  0  0  0  0  0
    3.6908    5.9837   16.1089 N   0  0  0  0  0  0  0  0  0  0  0  0
    4.2212    7.2618   15.6663 C   0  0  0  0  0  0  0  0  0  0  0  0
    4.9837    7.9249   16.3903 O   0  0  0  0  0  0  0  0  0  0  0  0
    3.0485    5.4624   15.4490 H   0  0  0  0  0  0  0  0  0  0  0  0
    3.8936    7.8251   14.3227 C   0  0  0  0  0  0  0  0  0  0  0  0
    3.2155    9.1814   14.5344 C   0  0  0  0  0  0  0  0  0  0  0  0
    2.9135    6.8653   13.7330 N   0  0  0  0  0  0  0  0  0  0  0  0
    3.2940    6.1895   12.5940 C   0  0  0  0  0  0  0  0  0  0  0  0
    4.4454    6.4646   12.0803 O   0  0  0  0  0  0  0  0  0  0  0  0
    2.0012    6.7565   14.2384 H   0  0  0  0  0  0  0  0  0  0  0  0
    2.5300    5.1313   11.8411 C   0  0  0  0  0  0  0  0  0  0  0  0
    3.0758    4.8238   10.5082 C   0  0  0  0  0  0  0  0  0  0  0  0
    1.1925    5.6005   11.8107 N   0  0  0  0  0  0  0  0  0  0  0  0
   -0.0892    6.0508   11.7811 C   0  0  0  0  0  0  0  0  0  0  0  0
   -0.5185    7.0426   11.1094 O   0  0  0  0  0  0  0  0  0  0  0  0
    1.5117    6.4521   10.8175 H   0  0  0  0  0  0  0  0  0  0  0  0
   -1.1972    5.3724   12.6268 C   0  0  0  0  0  0  0  0  0  0  0  0
   -2.4074    5.3020   11.7655 C   0  0  0  0  0  0  0  0  0  0  0  0
   -1.4565    6.4380   13.6545 C   0  0  0  0  0  0  0  0  0  0  0  0
   -2.7178    7.2007   13.7339 C   0  0  0  0  0  0  0  0  0  0  0  0
   -0.5968    6.7125   14.4551 O   0  0  0  0  0  0  0  0  0  0  0  0
    4.5788    1.2945   20.4701 C   0  0  0  0  0  0  0  0  0  0  0  0
    6.0600    1.3336   20.7789 C   0  0  0  0  0  0  0  0  0  0  0  0
    3.9644    3.3884   21.4641 N   0  0  0  0  0  0  0  0  0  0  0  0
    3.8160    2.0456   21.5868 C   0  0  0  0  0  0  0  0  0  0  0  0
    3.2229    1.2942   22.3734 O   0  0  0  0  0  0  0  0  0  0  0  0
    4.3903    3.8666   20.6280 H   0  0  0  0  0  0  0  0  0  0  0  0
    3.5355    4.4734   22.4474 C   0  0  0  0  0  0  0  0  0  0  0  0
    4.1566    4.2702   23.7612 C   0  0  0  0  0  0  0  0  0  0  0  0
    4.5007    6.8684   22.0655 N   0  0  0  0  0  0  0  0  0  0  0  0
    4.3795    5.5556   21.7514 C   0  0  0  0  0  0  0  0  0  0  0  0
    5.0405    5.0218   20.7954 O   0  0  0  0  0  0  0  0  0  0  0  0
    3.7683    7.2661   22.7408 H   0  0  0  0  0  0  0  0  0  0  0  0
    5.4445    7.8109   21.5685 C   0  0  0  0  0  0  0  0  0  0  0  0
    6.5718    8.2197   22.3171 C   0  0  0  0  0  0  0  0  0  0  0  0
    6.5362    9.1352   23.2082 O   0  0  0  0  0  0  0  0  0  0  0  0
    7.8529    7.5773   22.0622 N   0  0  0  0  0  0  0  0  0  0  0  0
    8.1349    6.4589   21.2618 C   0  0  0  0  0  0  0  0  0  0  0  0
    9.3799    6.9160   20.4771 C   0  0  0  0  0  0  0  0  0  0  0  0
    9.9965    7.9723   21.3388 C   0  0  0  0  0  0  0  0  0  0  0  0
    9.0849    8.0682   22.5569 C   0  0  0  0  0  0  0  0  0  0  0  0
    9.6892    7.2766   23.6120 C   0  0  0  0  0  0  0  0  0  0  0  0
   10.5167    6.3075   23.2025 O   0  0  0  0  0  0  0  0  0  0  0  0
    9.5529    7.3933   25.0022 N   0  0  0  0  0  0  0  0  0  0  0  0
    8.7526    8.2608   25.7742 C   0  0  0  0  0  0  0  0  0  0  0  0
   10.4685    6.4796   25.7799 C   0  0  0  0  0  0  0  0  0  0  0  0
    4.6897    9.1012   21.1758 C   0  0  0  0  0  0  0  0  0  0  0  0
    5.0982   11.2097   19.9153 C   0  0  0  0  0  0  0  0  0  0  0  0
    5.0591    9.6959   19.8758 C   0  0  0  0  0  0  0  0  0  0  0  0
    6.3771    9.1828   19.2819 C   0  0  0  0  0  0  0  0  0  0  0  0
 60 61  1  0  0  0
 61 62  1  0  0  0
 61 59  1  0  0  0
 59 46  1  0  0  0
 46 42  1  0  0  0
 42 43  1  0  0  0
 43 44  2  0  0  0
 43 40  1  0  0  0
 40 41  1  0  0  0
 40 36  1  0  0  0
 36 37  1  0  0  0
 37 38  2  0  0  0
 37 34  1  0  0  0
 34 35  1  0  0  0
 34  1  1  0  0  0
  1  2  1  0  0  0
  2  3  2  0  0  0
  2  5  1  0  0  0
  5  6  1  0  0  0
  5  7  1  0  0  0
  7  8  1  0  0  0
  8  9  2  0  0  0
  8 11  1  0  0  0
 11 12  1  0  0  0
 11 13  1  0  0  0
 13 14  1  0  0  0
 14 15  2  0  0  0
 14 17  1  0  0  0
 17 18  1  0  0  0
 17 19  1  0  0  0
 19 20  1  0  0  0
 20 21  2  0  0  0
 20 23  1  0  0  0
 23 24  1  0  0  0
 23 25  1  0  0  0
 25 26  1  0  0  0
 26 27  2  0  0  0
 26 29  1  0  0  0
 29 30  1  0  0  0
 29 31  1  0  0  0
 31 32  1  0  0  0
 31 33  2  0  0  0
 46 47  1  0  0  0
 47 48  2  0  0  0
 47 49  1  0  0  0
 49 50  1  0  0  0
 50 51  1  0  0  0
 51 52  1  0  0  0
 52 53  1  0  0  0
 53 54  1  0  0  0
 54 55  2  0  0  0
 54 56  1  0  0  0
 56 57  1  0  0  0
 56 58  1  0  0  0
 53 49  1  0  0  0
 42 45  1  0  0  0
 36 39  1  0  0  0
  1  4  1  0  0  0
  7 10  1  0  0  0
 13 16  1  0  0  0
 19 22  1  0  0  0
 25 28  1  0  0  0
M  END
> <minimizedAffinity>
-8.59379

> <CNNscore>
0.4526916742

> <CNNaffinity>
7.4920630455

> <CNN_VS>
3.3915946484

> <CNNaffinity_variance>
0.1426157057

$$$$
[H]N(C(=O)[C@@]([H])(N([H])C(=O)[C@@]([H])(N([H])C(=O)[C@@]([H])(C(=O)C([H])([H])[H])C([H])([H])[H])C([H])([H])[H])C([H])([H])[H])[C@]([H])(C(=O)N([H])[C@]([H])(C(=O)N([H])[C@]([H])(C(=O)N([H])[C@]([H])(C(=O)N([H])[C@]([H])(C(=O)N1C([H])([H])C([H])([H])C([H])([H])[C@]1([H])C(=O)N(C([H])([H])[H])C([H])([H])[H])C([H])([H])C([H])(C([H])([H])[H])C([H])([H])[H])C([H])([H])[H])C([H])([H])[H])C([H])([H])[H])C([H])([H])[H]


 62 62  0  0  0  0  0  0  0  0999 V2000
    4.9390    2.2267   19.2399 N   0  0  0  0  0  0  0  0  0  0  0  0
    4.3631    2.1441   18.0018 C   0  0  0  0  0  0  0  0  0  0  0  0
    3.4921    1.4106   17.5358 O   0  0  0  0  0  0  0  0  0  0  0  0
    5.7012    2.9605   19.3836 H   0  0  0  0  0  0  0  0  0  0  0  0
    4.9255    3.0990   16.9417 C   0  0  0  0  0  0  0  0  0  0  0  0
    5.5801    4.2782   17.6539 C   0  0  0  0  0  0  0  0  0  0  0  0
    3.8969    3.2993   16.0714 N   0  0  0  0  0  0  0  0  0  0  0  0
    3.4017    3.9176   14.9756 C   0  0  0  0  0  0  0  0  0  0  0  0
    4.0256    4.8131   14.3450 O   0  0  0  0  0  0  0  0  0  0  0  0
    3.0098    2.6045   16.4749 H   0  0  0  0  0  0  0  0  0  0  0  0
    2.0158    3.3865   14.5805 C   0  0  0  0  0  0  0  0  0  0  0  0
    2.3983    1.8639   14.3178 C   0  0  0  0  0  0  0  0  0  0  0  0
    1.5333    3.8781   13.3774 N   0  0  0  0  0  0  0  0  0  0  0  0
    0.8554    5.1627   13.3490 C   0  0  0  0  0  0  0  0  0  0  0  0
    0.6643    5.8100   14.3929 O   0  0  0  0  0  0  0  0  0  0  0  0
    1.6703    3.3736   12.4573 H   0  0  0  0  0  0  0  0  0  0  0  0
    0.3780    5.7707   12.0714 C   0  0  0  0  0  0  0  0  0  0  0  0
    0.0424    7.2390   12.3463 C   0  0  0  0  0  0  0  0  0  0  0  0
   -0.8736    5.0281   11.7373 N   0  0  0  0  0  0  0  0  0  0  0  0
   -1.2250    4.9427   10.4076 C   0  0  0  0  0  0  0  0  0  0  0  0
   -0.4843    5.5507    9.5432 O   0  0  0  0  0  0  0  0  0  0  0  0
   -1.3961    4.6037   12.5413 H   0  0  0  0  0  0  0  0  0  0  0  0
   -2.3904    4.2071    9.7988 C   0  0  0  0  0  0  0  0  0  0  0  0
   -2.1044    3.5989    8.4883 C   0  0  0  0  0  0  0  0  0  0  0  0
   -3.4425    5.1567    9.7647 N   0  0  0  0  0  0  0  0  0  0  0  0
   -4.4507    6.0671    9.7312 C   0  0  0  0  0  0  0  0  0  0  0  0
   -4.7581    6.8072    8.7428 O   0  0  0  0  0  0  0  0  0  0  0  0
   -3.2402    5.3364    8.4454 H   0  0  0  0  0  0  0  0  0  0  0  0
   -5.3501    6.3135   10.9695 C   0  0  0  0  0  0  0  0  0  0  0  0
   -4.6059    5.7925   12.1469 C   0  0  0  0  0  0  0  0  0  0  0  0
   -6.4686    5.3466   10.6996 C   0  0  0  0  0  0  0  0  0  0  0  0
   -6.2735    3.8872   10.5937 C   0  0  0  0  0  0  0  0  0  0  0  0
   -7.5893    5.7643   10.5411 O   0  0  0  0  0  0  0  0  0  0  0  0
    4.6276    1.4173   20.3174 C   0  0  0  0  0  0  0  0  0  0  0  0
    5.8131    0.7233   20.9528 C   0  0  0  0  0  0  0  0  0  0  0  0
    3.9908    3.5331   21.2492 N   0  0  0  0  0  0  0  0  0  0  0  0
    3.8576    2.1930   21.4122 C   0  0  0  0  0  0  0  0  0  0  0  0
    3.2737    1.4589   22.2218 O   0  0  0  0  0  0  0  0  0  0  0  0
    4.4105    3.9908   20.3985 H   0  0  0  0  0  0  0  0  0  0  0  0
    3.5508    4.6421   22.2002 C   0  0  0  0  0  0  0  0  0  0  0  0
    4.0597    4.4071   23.5563 C   0  0  0  0  0  0  0  0  0  0  0  0
    4.4842    7.0246   21.6846 N   0  0  0  0  0  0  0  0  0  0  0  0
    4.5035    5.6742   21.5717 C   0  0  0  0  0  0  0  0  0  0  0  0
    5.4141    5.0601   20.9162 O   0  0  0  0  0  0  0  0  0  0  0  0
    3.5842    7.4569   22.0769 H   0  0  0  0  0  0  0  0  0  0  0  0
    5.4864    7.9570   21.2941 C   0  0  0  0  0  0  0  0  0  0  0  0
    5.5162    8.5415   20.0074 C   0  0  0  0  0  0  0  0  0  0  0  0
    5.1709    7.9262   18.9418 O   0  0  0  0  0  0  0  0  0  0  0  0
    5.9726    9.9172   19.8730 N   0  0  0  0  0  0  0  0  0  0  0  0
    6.2591   10.8536   20.8790 C   0  0  0  0  0  0  0  0  0  0  0  0
    7.5960   11.4550   20.4038 C   0  0  0  0  0  0  0  0  0  0  0  0
    7.6009   11.2302   18.9246 C   0  0  0  0  0  0  0  0  0  0  0  0
    6.2852   10.5185   18.6303 C   0  0  0  0  0  0  0  0  0  0  0  0
    5.3435   11.5232   18.1732 C   0  0  0  0  0  0  0  0  0  0  0  0
    5.8857   12.6769   17.7651 O   0  0  0  0  0  0  0  0  0  0  0  0
    3.9471   11.4546   18.0724 N   0  0  0  0  0  0  0  0  0  0  0  0
    3.0521   10.4278   18.4379 C   0  0  0  0  0  0  0  0  0  0  0  0
    3.3280   12.6561   17.4010 C   0  0  0  0  0  0  0  0  0  0  0  0
    6.8721    7.3078   21.5111 C   0  0  0  0  0  0  0  0  0  0  0  0
    7.3984    7.9049   23.8708 C   0  0  0  0  0  0  0  0  0  0  0  0
    7.7906    8.0310   22.4131 C   0  0  0  0  0  0  0  0  0  0  0  0
    9.2704    7.6551   22.2651 C   0  0  0  0  0  0  0  0  0  0  0  0
 60 61  1  0  0  0
 61 62  1  0  0  0
 61 59  1  0  0  0
 59 46  1  0  0  0
 46 42  1  0  0  0
 42 43  1  0  0  0
 43 44  2  0  0  0
 43 40  1  0  0  0
 40 41  1  0  0  0
 40 36  1  0  0  0
 36 37  1  0  0  0
 37 38  2  0  0  0
 37 34  1  0  0  0
 34 35  1  0  0  0
 34  1  1  0  0  0
  1  2  1  0  0  0
  2  3  2  0  0  0
  2  5  1  0  0  0
  5  6  1  0  0  0
  5  7  1  0  0  0
  7  8  1  0  0  0
  8  9  2  0  0  0
  8 11  1  0  0  0
 11 12  1  0  0  0
 11 13  1  0  0  0
 13 14  1  0  0  0
 14 15  2  0  0  0
 14 17  1  0  0  0
 17 18  1  0  0  0
 17 19  1  0  0  0
 19 20  1  0  0  0
 20 21  2  0  0  0
 20 23  1  0  0  0
 23 24  1  0  0  0
 23 25  1  0  0  0
 25 26  1  0  0  0
 26 27  2  0  0  0
 26 29  1  0  0  0
 29 30  1  0  0  0
 29 31  1  0  0  0
 31 32  1  0  0  0
 31 33  2  0  0  0
 46 47  1  0  0  0
 47 48  2  0  0  0
 47 49  1  0  0  0
 49 50  1  0  0  0
 50 51  1  0  0  0
 51 52  1  0  0  0
 52 53  1  0  0  0
 53 54  1  0  0  0
 54 55  2  0  0  0
 54 56  1  0  0  0
 56 57  1  0  0  0
 56 58  1  0  0  0
 53 49  1  0  0  0
 42 45  1  0  0  0
 36 39  1  0  0  0
  1  4  1  0  0  0
  7 10  1  0  0  0
 13 16  1  0  0  0
 19 22  1  0  0  0
 25 28  1  0  0  0
M  END
> <minimizedAffinity>
-8.46061

> <CNNscore>
0.4370036423

> <CNNaffinity>
6.9859628677

> <CNN_VS>
3.0528912544

> <CNNaffinity_variance>
0.3176863790

$$$$
[H]N(C(=O)[C@@]([H])(N([H])C(=O)[C@@]([H])(N([H])C(=O)[C@@]([H])(C(=O)C([H])([H])[H])C([H])([H])[H])C([H])([H])[H])C([H])([H])[H])[C@]([H])(C(=O)N([H])[C@]([H])(C(=O)N([H])[C@]([H])(C(=O)N([H])[C@]([H])(C(=O)N([H])[C@]([H])(C(=O)N1C([H])([H])C([H])([H])C([H])([H])[C@]1([H])C(=O)N(C([H])([H])[H])C([H])([H])[H])C([H])([H])C([H])(C([H])([H])[H])C([H])([H])[H])C([H])([H])[H])C([H])([H])[H])C([H])([H])[H])C([H])([H])[H]


 62 62  0  0  0  0  0  0  0  0999 V2000
    4.7655    2.2103   19.2934 N   0  0  0  0  0  0  0  0  0  0  0  0
    4.4550    1.8680   18.0059 C   0  0  0  0  0  0  0  0  0  0  0  0
    3.9312    0.8698   17.5128 O   0  0  0  0  0  0  0  0  0  0  0  0
    5.2408    3.1528   19.4544 H   0  0  0  0  0  0  0  0  0  0  0  0
    4.8778    2.8753   16.9295 C   0  0  0  0  0  0  0  0  0  0  0  0
    5.5720    4.0486   17.6135 C   0  0  0  0  0  0  0  0  0  0  0  0
    3.7588    3.0743   16.1787 N   0  0  0  0  0  0  0  0  0  0  0  0
    2.5770    3.7046   15.9935 C   0  0  0  0  0  0  0  0  0  0  0  0
    2.0705    4.4884   16.8408 O   0  0  0  0  0  0  0  0  0  0  0  0
    3.8752    2.3325   15.2466 H   0  0  0  0  0  0  0  0  0  0  0  0
    1.9454    3.3754   14.6327 C   0  0  0  0  0  0  0  0  0  0  0  0
    3.2380    2.8245   13.8851 C   0  0  0  0  0  0  0  0  0  0  0  0
    1.5229    4.4820   13.9122 N   0  0  0  0  0  0  0  0  0  0  0  0
    2.4531    5.5683   13.6572 C   0  0  0  0  0  0  0  0  0  0  0  0
    3.6105    5.5409   14.1098 O   0  0  0  0  0  0  0  0  0  0  0  0
    0.5516    4.5585   13.4992 H   0  0  0  0  0  0  0  0  0  0  0  0
    2.0716    6.7506   12.8286 C   0  0  0  0  0  0  0  0  0  0  0  0
    0.9782    7.5166   13.5781 C   0  0  0  0  0  0  0  0  0  0  0  0
    1.5038    6.1727   11.5742 N   0  0  0  0  0  0  0  0  0  0  0  0
    1.5112    6.9682   10.4491 C   0  0  0  0  0  0  0  0  0  0  0  0
    1.9568    8.1742   10.5605 O   0  0  0  0  0  0  0  0  0  0  0  0
    1.1504    5.1871   11.6298 H   0  0  0  0  0  0  0  0  0  0  0  0
    1.0623    6.6127    9.0554 C   0  0  0  0  0  0  0  0  0  0  0  0
    0.9103    5.1669    8.8189 C   0  0  0  0  0  0  0  0  0  0  0  0
    2.0092    7.2299    8.1996 N   0  0  0  0  0  0  0  0  0  0  0  0
    2.9168    7.8207    7.3790 C   0  0  0  0  0  0  0  0  0  0  0  0
    3.6221    7.2336    6.4974 O   0  0  0  0  0  0  0  0  0  0  0  0
    2.1435    6.0782    7.5144 H   0  0  0  0  0  0  0  0  0  0  0  0
    3.2048    9.3415    7.4646 C   0  0  0  0  0  0  0  0  0  0  0  0
    2.9143    9.9064    6.1201 C   0  0  0  0  0  0  0  0  0  0  0  0
    4.6998    9.3347    7.6194 C   0  0  0  0  0  0  0  0  0  0  0  0
    5.6209    9.9464    6.6414 C   0  0  0  0  0  0  0  0  0  0  0  0
    5.1952    8.7919    8.5762 O   0  0  0  0  0  0  0  0  0  0  0  0
    4.5328    1.4202   20.4046 C   0  0  0  0  0  0  0  0  0  0  0  0
    5.7587    0.7252   20.9566 C   0  0  0  0  0  0  0  0  0  0  0  0
    3.9603    3.5554   21.3336 N   0  0  0  0  0  0  0  0  0  0  0  0
    3.8565    2.2192   21.5436 C   0  0  0  0  0  0  0  0  0  0  0  0
    3.3559    1.5028   22.4218 O   0  0  0  0  0  0  0  0  0  0  0  0
    4.2966    3.9930   20.4366 H   0  0  0  0  0  0  0  0  0  0  0  0
    3.5961    4.6865   22.2908 C   0  0  0  0  0  0  0  0  0  0  0  0
    4.3014    4.5432   23.5695 C   0  0  0  0  0  0  0  0  0  0  0  0
    4.3848    7.0818   21.6170 N   0  0  0  0  0  0  0  0  0  0  0  0
    4.3930    5.7324   21.4914 C   0  0  0  0  0  0  0  0  0  0  0  0
    5.1578    5.1319   20.6604 O   0  0  0  0  0  0  0  0  0  0  0  0
    3.5788    7.5022   22.1866 H   0  0  0  0  0  0  0  0  0  0  0  0
    5.2791    8.0269   21.0400 C   0  0  0  0  0  0  0  0  0  0  0  0
    6.2798    8.6806   21.7948 C   0  0  0  0  0  0  0  0  0  0  0  0
    6.0938    9.7838   22.4126 O   0  0  0  0  0  0  0  0  0  0  0  0
    7.6033    8.0796   21.8730 N   0  0  0  0  0  0  0  0  0  0  0  0
    8.0273    6.8187   21.4244 C   0  0  0  0  0  0  0  0  0  0  0  0
    9.3530    7.1472   20.7108 C   0  0  0  0  0  0  0  0  0  0  0  0
    9.8124    8.4216   21.3460 C   0  0  0  0  0  0  0  0  0  0  0  0
    8.7399    8.7566   22.3765 C   0  0  0  0  0  0  0  0  0  0  0  0
    9.2186    8.2916   23.6648 C   0  0  0  0  0  0  0  0  0  0  0  0
   10.4182    7.6982   23.6531 O   0  0  0  0  0  0  0  0  0  0  0  0
    8.6190    8.3946   24.9276 N   0  0  0  0  0  0  0  0  0  0  0  0
    7.3647    8.9168   25.3059 C   0  0  0  0  0  0  0  0  0  0  0  0
    9.5023    7.9261   26.0581 C   0  0  0  0  0  0  0  0  0  0  0  0
    4.4474    9.1391   20.3617 C   0  0  0  0  0  0  0  0  0  0  0  0
    5.5957    9.6761   18.2181 C   0  0  0  0  0  0  0  0  0  0  0  0
    4.3733    9.0831   18.8880 C   0  0  0  0  0  0  0  0  0  0  0  0
    4.1198    7.6864   18.3066 C   0  0  0  0  0  0  0  0  0  0  0  0
 60 61  1  0  0  0
 61 62  1  0  0  0
 61 59  1  0  0  0
 59 46  1  0  0  0
 46 42  1  0  0  0
 42 43  1  0  0  0
 43 44  2  0  0  0
 43 40  1  0  0  0
 40 41  1  0  0  0
 40 36  1  0  0  0
 36 37  1  0  0  0
 37 38  2  0  0  0
 37 34  1  0  0  0
 34 35  1  0  0  0
 34  1  1  0  0  0
  1  2  1  0  0  0
  2  3  2  0  0  0
  2  5  1  0  0  0
  5  6  1  0  0  0
  5  7  1  0  0  0
  7  8  1  0  0  0
  8  9  2  0  0  0
  8 11  1  0  0  0
 11 12  1  0  0  0
 11 13  1  0  0  0
 13 14  1  0  0  0
 14 15  2  0  0  0
 14 17  1  0  0  0
 17 18  1  0  0  0
 17 19  1  0  0  0
 19 20  1  0  0  0
 20 21  2  0  0  0
 20 23  1  0  0  0
 23 24  1  0  0  0
 23 25  1  0  0  0
 25 26  1  0  0  0
 26 27  2  0  0  0
 26 29  1  0  0  0
 29 30  1  0  0  0
 29 31  1  0  0  0
 31 32  1  0  0  0
 31 33  2  0  0  0
 46 47  1  0  0  0
 47 48  2  0  0  0
 47 49  1  0  0  0
 49 50  1  0  0  0
 50 51  1  0  0  0
 51 52  1  0  0  0
 52 53  1  0  0  0
 53 54  1  0  0  0
 54 55  2  0  0  0
 54 56  1  0  0  0
 56 57  1  0  0  0
 56 58  1  0  0  0
 53 49  1  0  0  0
 42 45  1  0  0  0
 36 39  1  0  0  0
  1  4  1  0  0  0
  7 10  1  0  0  0
 13 16  1  0  0  0
 19 22  1  0  0  0
 25 28  1  0  0  0
M  END
> <minimizedAffinity>
-8.62377

> <CNNscore>
0.3503121436

> <CNNaffinity>
6.8072099686

> <CNN_VS>
2.3846483231

> <CNNaffinity_variance>
0.3415895104

$$$$
[H]N(C(=O)[C@@]([H])(N([H])C(=O)[C@@]([H])(N([H])C(=O)[C@@]([H])(C(=O)C([H])([H])[H])C([H])([H])[H])C([H])([H])[H])C([H])([H])[H])[C@]([H])(C(=O)N([H])[C@]([H])(C(=O)N([H])[C@]([H])(C(=O)N([H])[C@]([H])(C(=O)N([H])[C@]([H])(C(=O)N1C([H])([H])C([H])([H])C([H])([H])[C@]1([H])C(=O)N(C([H])([H])[H])C([H])([H])[H])C([H])([H])C([H])(C([H])([H])[H])C([H])([H])[H])C([H])([H])[H])C([H])([H])[H])C([H])([H])[H])C([H])([H])[H]


 62 62  0  0  0  0  0  0  0  0999 V2000
    4.8164    2.2082   19.1867 N   0  0  0  0  0  0  0  0  0  0  0  0
    4.3052    1.9417   17.9461 C   0  0  0  0  0  0  0  0  0  0  0  0
    3.5849    1.0406   17.5183 O   0  0  0  0  0  0  0  0  0  0  0  0
    5.4406    3.0681   19.2909 H   0  0  0  0  0  0  0  0  0  0  0  0
    4.7374    2.8993   16.8290 C   0  0  0  0  0  0  0  0  0  0  0  0
    5.6234    3.9814   17.4377 C   0  0  0  0  0  0  0  0  0  0  0  0
    3.5828    3.2296   16.1861 N   0  0  0  0  0  0  0  0  0  0  0  0
    2.4475    3.9621   16.1329 C   0  0  0  0  0  0  0  0  0  0  0  0
    2.0785    4.7348   17.0579 O   0  0  0  0  0  0  0  0  0  0  0  0
    3.5611    2.5349   15.2117 H   0  0  0  0  0  0  0  0  0  0  0  0
    1.6836    3.7623   14.8156 C   0  0  0  0  0  0  0  0  0  0  0  0
    2.4249    2.4539   14.2939 C   0  0  0  0  0  0  0  0  0  0  0  0
    1.9129    4.7435   13.8634 N   0  0  0  0  0  0  0  0  0  0  0  0
    1.0495    5.9109   13.8158 C   0  0  0  0  0  0  0  0  0  0  0  0
    0.0825    6.0251   14.5886 O   0  0  0  0  0  0  0  0  0  0  0  0
    2.7225    4.7021   13.1831 H   0  0  0  0  0  0  0  0  0  0  0  0
    1.2934    7.0295   12.8571 C   0  0  0  0  0  0  0  0  0  0  0  0
    0.9863    6.5158   11.4479 C   0  0  0  0  0  0  0  0  0  0  0  0
    2.7529    7.3226   12.9730 N   0  0  0  0  0  0  0  0  0  0  0  0
    3.1234    8.4082   13.7365 C   0  0  0  0  0  0  0  0  0  0  0  0
    2.1902    9.1313   14.2577 O   0  0  0  0  0  0  0  0  0  0  0  0
    3.4038    6.6680   12.4758 H   0  0  0  0  0  0  0  0  0  0  0  0
    4.5150    8.8825   14.0658 C   0  0  0  0  0  0  0  0  0  0  0  0
    4.6143   10.3272   14.3345 C   0  0  0  0  0  0  0  0  0  0  0  0
    5.3133    8.4533   12.9757 N   0  0  0  0  0  0  0  0  0  0  0  0
    6.0788    8.0426   11.9308 C   0  0  0  0  0  0  0  0  0  0  0  0
    7.0634    8.6747   11.4306 O   0  0  0  0  0  0  0  0  0  0  0  0
    6.1600    9.4786   13.1894 H   0  0  0  0  0  0  0  0  0  0  0  0
    5.7903    6.7050   11.2023 C   0  0  0  0  0  0  0  0  0  0  0  0
    7.1023    6.1813   10.7378 C   0  0  0  0  0  0  0  0  0  0  0  0
    5.0644    7.2014    9.9835 C   0  0  0  0  0  0  0  0  0  0  0  0
    5.6169    7.1159    8.6173 C   0  0  0  0  0  0  0  0  0  0  0  0
    3.9798    7.7155   10.1066 O   0  0  0  0  0  0  0  0  0  0  0  0
    4.6068    1.4370   20.3157 C   0  0  0  0  0  0  0  0  0  0  0  0
    5.8569    0.8155   20.9002 C   0  0  0  0  0  0  0  0  0  0  0  0
    4.0121    3.5693   21.2376 N   0  0  0  0  0  0  0  0  0  0  0  0
    3.8789    2.2324   21.4251 C   0  0  0  0  0  0  0  0  0  0  0  0
    3.3208    1.5131   22.2655 O   0  0  0  0  0  0  0  0  0  0  0  0
    4.4036    4.0124   20.3659 H   0  0  0  0  0  0  0  0  0  0  0  0
    3.6105    4.6944   22.1867 C   0  0  0  0  0  0  0  0  0  0  0  0
    4.3107    4.5765   23.4708 C   0  0  0  0  0  0  0  0  0  0  0  0
    4.4228    7.0993   21.5785 N   0  0  0  0  0  0  0  0  0  0  0  0
    4.3837    5.7581   21.3876 C   0  0  0  0  0  0  0  0  0  0  0  0
    5.0751    5.1805   20.4797 O   0  0  0  0  0  0  0  0  0  0  0  0
    3.6681    7.5113   22.2200 H   0  0  0  0  0  0  0  0  0  0  0  0
    5.3048    8.0488   20.9897 C   0  0  0  0  0  0  0  0  0  0  0  0
    6.3030    8.7178   21.7342 C   0  0  0  0  0  0  0  0  0  0  0  0
    6.1245    9.8486   22.3023 O   0  0  0  0  0  0  0  0  0  0  0  0
    7.6150    8.1001   21.8606 N   0  0  0  0  0  0  0  0  0  0  0  0
    8.0259    6.8150   21.4723 C   0  0  0  0  0  0  0  0  0  0  0  0
    9.3688    7.0927   20.7691 C   0  0  0  0  0  0  0  0  0  0  0  0
    9.8380    8.3852   21.3588 C   0  0  0  0  0  0  0  0  0  0  0  0
    8.7539    8.7797   22.3554 C   0  0  0  0  0  0  0  0  0  0  0  0
    9.2030    8.3616   23.6702 C   0  0  0  0  0  0  0  0  0  0  0  0
   10.4317    7.8329   23.7175 O   0  0  0  0  0  0  0  0  0  0  0  0
    8.5473    8.4526   24.9058 N   0  0  0  0  0  0  0  0  0  0  0  0
    7.2528    8.9131   25.2238 C   0  0  0  0  0  0  0  0  0  0  0  0
    9.4070    8.0501   26.0792 C   0  0  0  0  0  0  0  0  0  0  0  0
    4.4585    9.1477   20.3077 C   0  0  0  0  0  0  0  0  0  0  0  0
    5.7524    9.6446   18.2386 C   0  0  0  0  0  0  0  0  0  0  0  0
    4.4540    9.1369   18.8312 C   0  0  0  0  0  0  0  0  0  0  0  0
    4.1175    7.7816   18.1962 C   0  0  0  0  0  0  0  0  0  0  0  0
 60 61  1  0  0  0
 61 62  1  0  0  0
 61 59  1  0  0  0
 59 46  1  0  0  0
 46 42  1  0  0  0
 42 43  1  0  0  0
 43 44  2  0  0  0
 43 40  1  0  0  0
 40 41  1  0  0  0
 40 36  1  0  0  0
 36 37  1  0  0  0
 37 38  2  0  0  0
 37 34  1  0  0  0
 34 35  1  0  0  0
 34  1  1  0  0  0
  1  2  1  0  0  0
  2  3  2  0  0  0
  2  5  1  0  0  0
  5  6  1  0  0  0
  5  7  1  0  0  0
  7  8  1  0  0  0
  8  9  2  0  0  0
  8 11  1  0  0  0
 11 12  1  0  0  0
 11 13  1  0  0  0
 13 14  1  0  0  0
 14 15  2  0  0  0
 14 17  1  0  0  0
 17 18  1  0  0  0
 17 19  1  0  0  0
 19 20  1  0  0  0
 20 21  2  0  0  0
 20 23  1  0  0  0
 23 24  1  0  0  0
 23 25  1  0  0  0
 25 26  1  0  0  0
 26 27  2  0  0  0
 26 29  1  0  0  0
 29 30  1  0  0  0
 29 31  1  0  0  0
 31 32  1  0  0  0
 31 33  2  0  0  0
 46 47  1  0  0  0
 47 48  2  0  0  0
 47 49  1  0  0  0
 49 50  1  0  0  0
 50 51  1  0  0  0
 51 52  1  0  0  0
 52 53  1  0  0  0
 53 54  1  0  0  0
 54 55  2  0  0  0
 54 56  1  0  0  0
 56 57  1  0  0  0
 56 58  1  0  0  0
 53 49  1  0  0  0
 42 45  1  0  0  0
 36 39  1  0  0  0
  1  4  1  0  0  0
  7 10  1  0  0  0
 13 16  1  0  0  0
 19 22  1  0  0  0
 25 28  1  0  0  0
M  END
> <minimizedAffinity>
-8.67957

> <CNNscore>
0.3485697508

> <CNNaffinity>
7.1914153099

> <CNN_VS>
2.5067098141

> <CNNaffinity_variance>
0.3959269822

$$$$
[H]N(C(=O)[C@@]([H])(N([H])C(=O)[C@@]([H])(N([H])C(=O)[C@@]([H])(C(=O)C([H])([H])[H])C([H])([H])[H])C([H])([H])[H])C([H])([H])[H])[C@]([H])(C(=O)N([H])[C@]([H])(C(=O)N([H])[C@]([H])(C(=O)N([H])[C@]([H])(C(=O)N([H])[C@]([H])(C(=O)N1C([H])([H])C([H])([H])C([H])([H])[C@]1([H])C(=O)N(C([H])([H])[H])C([H])([H])[H])C([H])([H])C([H])(C([H])([H])[H])C([H])([H])[H])C([H])([H])[H])C([H])([H])[H])C([H])([H])[H])C([H])([H])[H]


 62 62  0  0  0  0  0  0  0  0999 V2000
    4.0230    1.5883   19.0310 N   0  0  0  0  0  0  0  0  0  0  0  0
    4.1001    2.8759   18.5755 C   0  0  0  0  0  0  0  0  0  0  0  0
    3.6949    3.9453   19.0293 O   0  0  0  0  0  0  0  0  0  0  0  0
    4.4545    0.8221   18.4254 H   0  0  0  0  0  0  0  0  0  0  0  0
    4.7656    3.0581   17.2059 C   0  0  0  0  0  0  0  0  0  0  0  0
    5.7681    4.2033   17.3058 C   0  0  0  0  0  0  0  0  0  0  0  0
    3.7321    3.1171   16.3206 N   0  0  0  0  0  0  0  0  0  0  0  0
    2.5693    3.6811   15.9232 C   0  0  0  0  0  0  0  0  0  0  0  0
    1.9637    4.5621   16.5909 O   0  0  0  0  0  0  0  0  0  0  0  0
    3.9585    2.2546   15.5222 H   0  0  0  0  0  0  0  0  0  0  0  0
    2.0933    3.1450   14.5649 C   0  0  0  0  0  0  0  0  0  0  0  0
    3.5091    2.9483   13.8649 C   0  0  0  0  0  0  0  0  0  0  0  0
    1.4036    4.0669   13.7926 N   0  0  0  0  0  0  0  0  0  0  0  0
    0.7594    3.6333   12.5647 C   0  0  0  0  0  0  0  0  0  0  0  0
    0.8510    2.4571   12.1735 O   0  0  0  0  0  0  0  0  0  0  0  0
    1.2889    5.0796   14.0775 H   0  0  0  0  0  0  0  0  0  0  0  0
   -0.0538    4.5688   11.7320 C   0  0  0  0  0  0  0  0  0  0  0  0
   -0.8512    5.4691   12.6794 C   0  0  0  0  0  0  0  0  0  0  0  0
   -0.9924    3.6896   10.9731 N   0  0  0  0  0  0  0  0  0  0  0  0
   -1.2173    3.9954    9.6485 C   0  0  0  0  0  0  0  0  0  0  0  0
   -0.6481    5.0467    9.1625 O   0  0  0  0  0  0  0  0  0  0  0  0
   -1.4074    2.8825   11.4984 H   0  0  0  0  0  0  0  0  0  0  0  0
   -2.0592    3.2439    8.6502 C   0  0  0  0  0  0  0  0  0  0  0  0
   -1.6023    3.3710    7.2558 C   0  0  0  0  0  0  0  0  0  0  0  0
   -3.3795    3.7164    8.8587 N   0  0  0  0  0  0  0  0  0  0  0  0
   -4.6448    4.1698    9.0579 C   0  0  0  0  0  0  0  0  0  0  0  0
   -5.2393    5.0572    8.3663 O   0  0  0  0  0  0  0  0  0  0  0  0
   -3.3148    4.4112    7.7068 H   0  0  0  0  0  0  0  0  0  0  0  0
   -5.5152    3.6324   10.2227 C   0  0  0  0  0  0  0  0  0  0  0  0
   -6.8588    3.3460    9.6535 C   0  0  0  0  0  0  0  0  0  0  0  0
   -5.6539    4.8710   11.0626 C   0  0  0  0  0  0  0  0  0  0  0  0
   -4.5182    5.5215   11.7453 C   0  0  0  0  0  0  0  0  0  0  0  0
   -6.7434    5.3665   11.2144 O   0  0  0  0  0  0  0  0  0  0  0  0
    3.4083    1.1959   20.2063 C   0  0  0  0  0  0  0  0  0  0  0  0
    3.2687   -0.3011   20.3799 C   0  0  0  0  0  0  0  0  0  0  0  0
    3.4867    2.8843   21.9073 N   0  0  0  0  0  0  0  0  0  0  0  0
    4.1237    1.7780   21.4483 C   0  0  0  0  0  0  0  0  0  0  0  0
    5.1292    1.1379   21.7863 O   0  0  0  0  0  0  0  0  0  0  0  0
    2.5393    3.2057   21.5781 H   0  0  0  0  0  0  0  0  0  0  0  0
    3.9555    3.8575   22.9848 C   0  0  0  0  0  0  0  0  0  0  0  0
    5.0548    3.2854   23.7704 C   0  0  0  0  0  0  0  0  0  0  0  0
    4.0681    5.8287   21.2775 N   0  0  0  0  0  0  0  0  0  0  0  0
    4.6195    4.7988   21.9645 C   0  0  0  0  0  0  0  0  0  0  0  0
    5.8598    4.5027   21.8657 O   0  0  0  0  0  0  0  0  0  0  0  0
    2.9965    5.8753   21.2678 H   0  0  0  0  0  0  0  0  0  0  0  0
    4.7271    6.8320   20.5125 C   0  0  0  0  0  0  0  0  0  0  0  0
    5.3238    7.9673   21.1071 C   0  0  0  0  0  0  0  0  0  0  0  0
    4.7336    8.7115   21.9622 O   0  0  0  0  0  0  0  0  0  0  0  0
    6.6822    8.3256   20.7260 N   0  0  0  0  0  0  0  0  0  0  0  0
    7.5961    7.6068   19.9392 C   0  0  0  0  0  0  0  0  0  0  0  0
    8.1505    8.6926   18.9965 C   0  0  0  0  0  0  0  0  0  0  0  0
    7.9414    9.9739   19.7402 C   0  0  0  0  0  0  0  0  0  0  0  0
    7.2842    9.5641   21.0533 C   0  0  0  0  0  0  0  0  0  0  0  0
    8.3293    9.4995   22.0577 C   0  0  0  0  0  0  0  0  0  0  0  0
    9.5117   10.0087   21.6915 O   0  0  0  0  0  0  0  0  0  0  0  0
    8.2761    9.0033   23.3676 N   0  0  0  0  0  0  0  0  0  0  0  0
    7.2254    8.3730   24.0660 C   0  0  0  0  0  0  0  0  0  0  0  0
    9.5345    9.2537   24.1622 C   0  0  0  0  0  0  0  0  0  0  0  0
    3.7413    7.3641   19.4476 C   0  0  0  0  0  0  0  0  0  0  0  0
    4.1685    7.5906   17.0047 C   0  0  0  0  0  0  0  0  0  0  0  0
    4.3300    8.1999   18.3822 C   0  0  0  0  0  0  0  0  0  0  0  0
    3.8256    9.6481   18.3443 C   0  0  0  0  0  0  0  0  0  0  0  0
 60 61  1  0  0  0
 61 62  1  0  0  0
 61 59  1  0  0  0
 59 46  1  0  0  0
 46 42  1  0  0  0
 42 43  1  0  0  0
 43 44  2  0  0  0
 43 40  1  0  0  0
 40 41  1  0  0  0
 40 36  1  0  0  0
 36 37  1  0  0  0
 37 38  2  0  0  0
 37 34  1  0  0  0
 34 35  1  0  0  0
 34  1  1  0  0  0
  1  2  1  0  0  0
  2  3  2  0  0  0
  2  5  1  0  0  0
  5  6  1  0  0  0
  5  7  1  0  0  0
  7  8  1  0  0  0
  8  9  2  0  0  0
  8 11  1  0  0  0
 11 12  1  0  0  0
 11 13  1  0  0  0
 13 14  1  0  0  0
 14 15  2  0  0  0
 14 17  1  0  0  0
 17 18  1  0  0  0
 17 19  1  0  0  0
 19 20  1  0  0  0
 20 21  2  0  0  0
 20 23  1  0  0  0
 23 24  1  0  0  0
 23 25  1  0  0  0
 25 26  1  0  0  0
 26 27  2  0  0  0
 26 29  1  0  0  0
 29 30  1  0  0  0
 29 31  1  0  0  0
 31 32  1  0  0  0
 31 33  2  0  0  0
 46 47  1  0  0  0
 47 48  2  0  0  0
 47 49  1  0  0  0
 49 50  1  0  0  0
 50 51  1  0  0  0
 51 52  1  0  0  0
 52 53  1  0  0  0
 53 54  1  0  0  0
 54 55  2  0  0  0
 54 56  1  0  0  0
 56 57  1  0  0  0
 56 58  1  0  0  0
 53 49  1  0  0  0
 42 45  1  0  0  0
 36 39  1  0  0  0
  1  4  1  0  0  0
  7 10  1  0  0  0
 13 16  1  0  0  0
 19 22  1  0  0  0
 25 28  1  0  0  0
M  END
> <minimizedAffinity>
-7.87952

> <CNNscore>
0.3174560070

> <CNNaffinity>
6.9770760536

> <CNN_VS>
2.2149147987

> <CNNaffinity_variance>
0.4129270911

$$$$
[H]N(C(=O)[C@@]([H])(N([H])C(=O)[C@@]([H])(N([H])C(=O)[C@@]([H])(C(=O)C([H])([H])[H])C([H])([H])[H])C([H])([H])[H])C([H])([H])[H])[C@]([H])(C(=O)N([H])[C@]([H])(C(=O)N([H])[C@]([H])(C(=O)N([H])[C@]([H])(C(=O)N([H])[C@]([H])(C(=O)N1C([H])([H])C([H])([H])C([H])([H])[C@]1([H])C(=O)N(C([H])([H])[H])C([H])([H])[H])C([H])([H])C([H])(C([H])([H])[H])C([H])([H])[H])C([H])([H])[H])C([H])([H])[H])C([H])([H])[H])C([H])([H])[H]


 62 62  0  0  0  0  0  0  0  0999 V2000
    4.8942    2.3296   19.1817 N   0  0  0  0  0  0  0  0  0  0  0  0
    4.4591    1.9912   17.9298 C   0  0  0  0  0  0  0  0  0  0  0  0
    3.8365    1.0216   17.4984 O   0  0  0  0  0  0  0  0  0  0  0  0
    5.4380    3.2424   19.2872 H   0  0  0  0  0  0  0  0  0  0  0  0
    4.8536    2.9563   16.8051 C   0  0  0  0  0  0  0  0  0  0  0  0
    5.5786    4.1470   17.4240 C   0  0  0  0  0  0  0  0  0  0  0  0
    3.7119    3.1384   16.0847 N   0  0  0  0  0  0  0  0  0  0  0  0
    2.5148    3.7483   15.9332 C   0  0  0  0  0  0  0  0  0  0  0  0
    2.0170    4.5199   16.7967 O   0  0  0  0  0  0  0  0  0  0  0  0
    3.8168    2.4022   15.1467 H   0  0  0  0  0  0  0  0  0  0  0  0
    1.8536    3.4132   14.5881 C   0  0  0  0  0  0  0  0  0  0  0  0
    2.5941    2.0379   14.2824 C   0  0  0  0  0  0  0  0  0  0  0  0
    2.1886    4.2723   13.5528 N   0  0  0  0  0  0  0  0  0  0  0  0
    1.1938    4.6044   12.5475 C   0  0  0  0  0  0  0  0  0  0  0  0
    0.0588    4.0983   12.5769 O   0  0  0  0  0  0  0  0  0  0  0  0
    3.1369    4.7360   13.4788 H   0  0  0  0  0  0  0  0  0  0  0  0
    1.4795    5.5775   11.4514 C   0  0  0  0  0  0  0  0  0  0  0  0
    0.9783    4.9679   10.1394 C   0  0  0  0  0  0  0  0  0  0  0  0
    2.9683    5.6860   11.4132 N   0  0  0  0  0  0  0  0  0  0  0  0
    3.5075    6.9267   11.1511 C   0  0  0  0  0  0  0  0  0  0  0  0
    2.6982    7.9010   10.9040 O   0  0  0  0  0  0  0  0  0  0  0  0
    3.5077    4.8079   11.6066 H   0  0  0  0  0  0  0  0  0  0  0  0
    4.9613    7.3210   11.1180 C   0  0  0  0  0  0  0  0  0  0  0  0
    5.8939    6.1863   11.0095 C   0  0  0  0  0  0  0  0  0  0  0  0
    5.1532    8.1019   12.2856 N   0  0  0  0  0  0  0  0  0  0  0  0
    5.3379    8.8501   13.4047 C   0  0  0  0  0  0  0  0  0  0  0  0
    6.4290    8.9795   14.0467 O   0  0  0  0  0  0  0  0  0  0  0  0
    6.4804    7.8843   12.2154 H   0  0  0  0  0  0  0  0  0  0  0  0
    4.1662    9.6371   14.0456 C   0  0  0  0  0  0  0  0  0  0  0  0
    4.6626   10.1541   15.3486 C   0  0  0  0  0  0  0  0  0  0  0  0
    3.2141    8.5167   14.3570 C   0  0  0  0  0  0  0  0  0  0  0  0
    3.6315    7.2444   14.9784 C   0  0  0  0  0  0  0  0  0  0  0  0
    2.0464    8.6348   14.0776 O   0  0  0  0  0  0  0  0  0  0  0  0
    4.7050    1.5698   20.3219 C   0  0  0  0  0  0  0  0  0  0  0  0
    5.9728    1.0044   20.9250 C   0  0  0  0  0  0  0  0  0  0  0  0
    4.0761    3.6942   21.2392 N   0  0  0  0  0  0  0  0  0  0  0  0
    3.9403    2.3557   21.4131 C   0  0  0  0  0  0  0  0  0  0  0  0
    3.3575    1.6293   22.2303 O   0  0  0  0  0  0  0  0  0  0  0  0
    4.4940    4.1443   20.3836 H   0  0  0  0  0  0  0  0  0  0  0  0
    3.6417    4.8116   22.1830 C   0  0  0  0  0  0  0  0  0  0  0  0
    4.3080    4.6916   23.4848 C   0  0  0  0  0  0  0  0  0  0  0  0
    4.5360    7.2100   21.6717 N   0  0  0  0  0  0  0  0  0  0  0  0
    4.4290    5.8845   21.4103 C   0  0  0  0  0  0  0  0  0  0  0  0
    5.0566    5.3297   20.4437 O   0  0  0  0  0  0  0  0  0  0  0  0
    3.8270    7.6172   22.3661 H   0  0  0  0  0  0  0  0  0  0  0  0
    5.4352    8.1526   21.0980 C   0  0  0  0  0  0  0  0  0  0  0  0
    6.4744    8.7568   21.8418 C   0  0  0  0  0  0  0  0  0  0  0  0
    6.3640    9.8908   22.4209 O   0  0  0  0  0  0  0  0  0  0  0  0
    7.7497    8.0643   21.9544 N   0  0  0  0  0  0  0  0  0  0  0  0
    8.0844    6.7615   21.5523 C   0  0  0  0  0  0  0  0  0  0  0  0
    9.4367    6.9686   20.8429 C   0  0  0  0  0  0  0  0  0  0  0  0
    9.9823    8.2269   21.4408 C   0  0  0  0  0  0  0  0  0  0  0  0
    8.9284    8.6734   22.4477 C   0  0  0  0  0  0  0  0  0  0  0  0
    9.3607    8.2185   23.7559 C   0  0  0  0  0  0  0  0  0  0  0  0
   10.5700    7.6463   23.7956 O   0  0  0  0  0  0  0  0  0  0  0  0
    8.7070    8.3125   24.9923 N   0  0  0  0  0  0  0  0  0  0  0  0
    7.4290    8.8130   25.3167 C   0  0  0  0  0  0  0  0  0  0  0  0
    9.5503    7.8611   26.1597 C   0  0  0  0  0  0  0  0  0  0  0  0
    4.6106    9.3061   20.4828 C   0  0  0  0  0  0  0  0  0  0  0  0
    3.1370   10.1574   18.6647 C   0  0  0  0  0  0  0  0  0  0  0  0
    3.7514    8.9469   19.3370 C   0  0  0  0  0  0  0  0  0  0  0  0
    4.4287    8.0789   18.2688 C   0  0  0  0  0  0  0  0  0  0  0  0
 60 61  1  0  0  0
 61 62  1  0  0  0
 61 59  1  0  0  0
 59 46  1  0  0  0
 46 42  1  0  0  0
 42 43  1  0  0  0
 43 44  2  0  0  0
 43 40  1  0  0  0
 40 41  1  0  0  0
 40 36  1  0  0  0
 36 37  1  0  0  0
 37 38  2  0  0  0
 37 34  1  0  0  0
 34 35  1  0  0  0
 34  1  1  0  0  0
  1  2  1  0  0  0
  2  3  2  0  0  0
  2  5  1  0  0  0
  5  6  1  0  0  0
  5  7  1  0  0  0
  7  8  1  0  0  0
  8  9  2  0  0  0
  8 11  1  0  0  0
 11 12  1  0  0  0
 11 13  1  0  0  0
 13 14  1  0  0  0
 14 15  2  0  0  0
 14 17  1  0  0  0
 17 18  1  0  0  0
 17 19  1  0  0  0
 19 20  1  0  0  0
 20 21  2  0  0  0
 20 23  1  0  0  0
 23 24  1  0  0  0
 23 25  1  0  0  0
 25 26  1  0  0  0
 26 27  2  0  0  0
 26 29  1  0  0  0
 29 30  1  0  0  0
 29 31  1  0  0  0
 31 32  1  0  0  0
 31 33  2  0  0  0
 46 47  1  0  0  0
 47 48  2  0  0  0
 47 49  1  0  0  0
 49 50  1  0  0  0
 50 51  1  0  0  0
 51 52  1  0  0  0
 52 53  1  0  0  0
 53 54  1  0  0  0
 54 55  2  0  0  0
 54 56  1  0  0  0
 56 57  1  0  0  0
 56 58  1  0  0  0
 53 49  1  0  0  0
 42 45  1  0  0  0
 36 39  1  0  0  0
  1  4  1  0  0  0
  7 10  1  0  0  0
 13 16  1  0  0  0
 19 22  1  0  0  0
 25 28  1  0  0  0
M  END
> <minimizedAffinity>
-8.95670

> <CNNscore>
0.3052813113

> <CNNaffinity>
7.1611013412

> <CNN_VS>
2.1861503124

> <CNNaffinity_variance>
0.4449277818

$$$$
[H]N(C(=O)[C@@]([H])(N([H])C(=O)[C@@]([H])(N([H])C(=O)[C@@]([H])(C(=O)C([H])([H])[H])C([H])([H])[H])C([H])([H])[H])C([H])([H])[H])[C@]([H])(C(=O)N([H])[C@]([H])(C(=O)N([H])[C@]([H])(C(=O)N([H])[C@]([H])(C(=O)N([H])[C@]([H])(C(=O)N1C([H])([H])C([H])([H])C([H])([H])[C@]1([H])C(=O)N(C([H])([H])[H])C([H])([H])[H])C([H])([H])C([H])(C([H])([H])[H])C([H])([H])[H])C([H])([H])[H])C([H])([H])[H])C([H])([H])[H])C([H])([H])[H]


 62 62  0  0  0  0  0  0  0  0999 V2000
    4.4318    5.4180   17.0119 N   0  0  0  0  0  0  0  0  0  0  0  0
    3.5436    4.3810   16.9286 C   0  0  0  0  0  0  0  0  0  0  0  0
    2.3174    4.3258   17.0149 O   0  0  0  0  0  0  0  0  0  0  0  0
    5.4702    5.1898   16.9136 H   0  0  0  0  0  0  0  0  0  0  0  0
    4.1614    2.9889   16.7490 C   0  0  0  0  0  0  0  0  0  0  0  0
    3.4064    2.2662   15.6382 C   0  0  0  0  0  0  0  0  0  0  0  0
    4.2138    2.4654   18.0055 N   0  0  0  0  0  0  0  0  0  0  0  0
    3.9220    1.4608   18.8621 C   0  0  0  0  0  0  0  0  0  0  0  0
    3.2281    0.4583   18.5423 O   0  0  0  0  0  0  0  0  0  0  0  0
    4.7785    3.2916   18.6621 H   0  0  0  0  0  0  0  0  0  0  0  0
    4.5508    1.6719   20.2473 C   0  0  0  0  0  0  0  0  0  0  0  0
    3.5317    0.8126   21.1170 C   0  0  0  0  0  0  0  0  0  0  0  0
    4.4681    2.9710   20.7244 N   0  0  0  0  0  0  0  0  0  0  0  0
    5.4986    3.4730   21.6169 C   0  0  0  0  0  0  0  0  0  0  0  0
    6.4321    2.7435   21.9931 O   0  0  0  0  0  0  0  0  0  0  0  0
    3.6994    3.6384   20.4354 H   0  0  0  0  0  0  0  0  0  0  0  0
    5.4957    4.8845   22.1045 C   0  0  0  0  0  0  0  0  0  0  0  0
    4.0627    5.4138   22.0028 C   0  0  0  0  0  0  0  0  0  0  0  0
    6.3686    5.6236   21.1446 N   0  0  0  0  0  0  0  0  0  0  0  0
    7.0876    6.6923   21.6343 C   0  0  0  0  0  0  0  0  0  0  0  0
    6.9231    7.0193   22.8718 O   0  0  0  0  0  0  0  0  0  0  0  0
    6.3892    5.2669   20.1588 H   0  0  0  0  0  0  0  0  0  0  0  0
    8.0796    7.5594   20.9033 C   0  0  0  0  0  0  0  0  0  0  0  0
    8.3825    7.1101   19.5338 C   0  0  0  0  0  0  0  0  0  0  0  0
    9.2166    7.6039   21.7490 N   0  0  0  0  0  0  0  0  0  0  0  0
   10.3061    7.6474   22.5598 C   0  0  0  0  0  0  0  0  0  0  0  0
   10.6073    8.5910   23.3586 O   0  0  0  0  0  0  0  0  0  0  0  0
    8.7341    8.7123   22.3426 H   0  0  0  0  0  0  0  0  0  0  0  0
   11.3467    6.4984   22.5670 C   0  0  0  0  0  0  0  0  0  0  0  0
   10.7456    5.3745   21.8009 C   0  0  0  0  0  0  0  0  0  0  0  0
   11.3157    6.1020   24.0164 C   0  0  0  0  0  0  0  0  0  0  0  0
   12.4685    6.2548   24.9256 C   0  0  0  0  0  0  0  0  0  0  0  0
   10.3124    5.6161   24.4777 O   0  0  0  0  0  0  0  0  0  0  0  0
    4.0923    6.7398   17.2370 C   0  0  0  0  0  0  0  0  0  0  0  0
    4.5796    7.3044   18.5540 C   0  0  0  0  0  0  0  0  0  0  0  0
    3.5381    8.0716   15.3214 N   0  0  0  0  0  0  0  0  0  0  0  0
    4.5766    7.6584   16.0903 C   0  0  0  0  0  0  0  0  0  0  0  0
    5.8019    7.8415   16.0860 O   0  0  0  0  0  0  0  0  0  0  0  0
    2.5233    7.9349   15.5677 H   0  0  0  0  0  0  0  0  0  0  0  0
    3.5938    8.8291   13.9981 C   0  0  0  0  0  0  0  0  0  0  0  0
    2.2733    8.8739   13.3598 C   0  0  0  0  0  0  0  0  0  0  0  0
    3.0805   10.7047   15.7393 N   0  0  0  0  0  0  0  0  0  0  0  0
    3.7679   10.1927   14.6895 C   0  0  0  0  0  0  0  0  0  0  0  0
    4.7426   10.8175   14.1458 O   0  0  0  0  0  0  0  0  0  0  0  0
    2.1644   10.2091   15.9961 H   0  0  0  0  0  0  0  0  0  0  0  0
    3.3863   11.8576   16.5162 C   0  0  0  0  0  0  0  0  0  0  0  0
    3.6461   11.7880   17.9040 C   0  0  0  0  0  0  0  0  0  0  0  0
    2.8977   11.1686   18.7344 O   0  0  0  0  0  0  0  0  0  0  0  0
    4.8229   12.4631   18.4314 N   0  0  0  0  0  0  0  0  0  0  0  0
    5.8757   13.0752   17.7329 C   0  0  0  0  0  0  0  0  0  0  0  0
    6.0486   14.4062   18.4899 C   0  0  0  0  0  0  0  0  0  0  0  0
    5.5019   14.1321   19.8554 C   0  0  0  0  0  0  0  0  0  0  0  0
    5.0468   12.6778   19.8125 C   0  0  0  0  0  0  0  0  0  0  0  0
    6.1038   11.8769   20.4013 C   0  0  0  0  0  0  0  0  0  0  0  0
    6.2833   10.6687   19.8540 O   0  0  0  0  0  0  0  0  0  0  0  0
    6.9836   12.1927   21.4458 N   0  0  0  0  0  0  0  0  0  0  0  0
    7.0610   13.3397   22.2627 C   0  0  0  0  0  0  0  0  0  0  0  0
    8.0540   11.1530   21.6719 C   0  0  0  0  0  0  0  0  0  0  0  0
    2.2476   12.8871   16.3361 C   0  0  0  0  0  0  0  0  0  0  0  0
    1.8361   14.8781   14.8979 C   0  0  0  0  0  0  0  0  0  0  0  0
    2.6671   14.2636   16.0055 C   0  0  0  0  0  0  0  0  0  0  0  0
    2.6996   15.2323   17.1945 C   0  0  0  0  0  0  0  0  0  0  0  0
 60 61  1  0  0  0
 61 62  1  0  0  0
 61 59  1  0  0  0
 59 46  1  0  0  0
 46 42  1  0  0  0
 42 43  1  0  0  0
 43 44  2  0  0  0
 43 40  1  0  0  0
 40 41  1  0  0  0
 40 36  1  0  0  0
 36 37  1  0  0  0
 37 38  2  0  0  0
 37 34  1  0  0  0
 34 35  1  0  0  0
 34  1  1  0  0  0
  1  2  1  0  0  0
  2  3  2  0  0  0
  2  5  1  0  0  0
  5  6  1  0  0  0
  5  7  1  0  0  0
  7  8  1  0  0  0
  8  9  2  0  0  0
  8 11  1  0  0  0
 11 12  1  0  0  0
 11 13  1  0  0  0
 13 14  1  0  0  0
 14 15  2  0  0  0
 14 17  1  0  0  0
 17 18  1  0  0  0
 17 19  1  0  0  0
 19 20  1  0  0  0
 20 21  2  0  0  0
 20 23  1  0  0  0
 23 24  1  0  0  0
 23 25  1  0  0  0
 25 26  1  0  0  0
 26 27  2  0  0  0
 26 29  1  0  0  0
 29 30  1  0  0  0
 29 31  1  0  0  0
 31 32  1  0  0  0
 31 33  2  0  0  0
 46 47  1  0  0  0
 47 48  2  0  0  0
 47 49  1  0  0  0
 49 50  1  0  0  0
 50 51  1  0  0  0
 51 52  1  0  0  0
 52 53  1  0  0  0
 53 54  1  0  0  0
 54 55  2  0  0  0
 54 56  1  0  0  0
 56 57  1  0  0  0
 56 58  1  0  0  0
 53 49  1  0  0  0
 42 45  1  0  0  0
 36 39  1  0  0  0
  1  4  1  0  0  0
  7 10  1  0  0  0
 13 16  1  0  0  0
 19 22  1  0  0  0
 25 28  1  0  0  0
M  END
> <minimizedAffinity>
-8.63451

> <CNNscore>
0.2766505778

> <CNNaffinity>
7.1021032333

> <CNN_VS>
1.9648009539

> <CNNaffinity_variance>
0.5801229477

$$$$
[H]N(C(=O)[C@@]([H])(N([H])C(=O)[C@@]([H])(N([H])C(=O)[C@@]([H])(C(=O)C([H])([H])[H])C([H])([H])[H])C([H])([H])[H])C([H])([H])[H])[C@]([H])(C(=O)N([H])[C@]([H])(C(=O)N([H])[C@]([H])(C(=O)N([H])[C@]([H])(C(=O)N([H])[C@]([H])(C(=O)N1C([H])([H])C([H])([H])C([H])([H])[C@]1([H])C(=O)N(C([H])([H])[H])C([H])([H])[H])C([H])([H])C([H])(C([H])([H])[H])C([H])([H])[H])C([H])([H])[H])C([H])([H])[H])C([H])([H])[H])C([H])([H])[H]


 62 62  0  0  0  0  0  0  0  0999 V2000
    4.7553   10.0140   16.9393 N   0  0  0  0  0  0  0  0  0  0  0  0
    3.6707   10.8264   16.7530 C   0  0  0  0  0  0  0  0  0  0  0  0
    2.4653   10.6613   16.9366 O   0  0  0  0  0  0  0  0  0  0  0  0
    5.7158   10.4035   16.6829 H   0  0  0  0  0  0  0  0  0  0  0  0
    3.9671   12.2024   16.1441 C   0  0  0  0  0  0  0  0  0  0  0  0
    4.2536   12.0198   14.6572 C   0  0  0  0  0  0  0  0  0  0  0  0
    4.9016   12.7545   16.9672 N   0  0  0  0  0  0  0  0  0  0  0  0
    5.9524   13.5868   17.1438 C   0  0  0  0  0  0  0  0  0  0  0  0
    6.5143   14.2023   16.1982 O   0  0  0  0  0  0  0  0  0  0  0  0
    4.7007   12.2610   18.0390 H   0  0  0  0  0  0  0  0  0  0  0  0
    6.3584   13.7113   18.6198 C   0  0  0  0  0  0  0  0  0  0  0  0
    7.5862   14.7110   18.4569 C   0  0  0  0  0  0  0  0  0  0  0  0
    6.8747   12.5501   19.1740 N   0  0  0  0  0  0  0  0  0  0  0  0
    5.9847   11.6219   19.8499 C   0  0  0  0  0  0  0  0  0  0  0  0
    4.7735   11.8715   19.9758 O   0  0  0  0  0  0  0  0  0  0  0  0
    7.8957   12.2834   19.0943 H   0  0  0  0  0  0  0  0  0  0  0  0
    6.4759   10.3248   20.4032 C   0  0  0  0  0  0  0  0  0  0  0  0
    5.3821    9.7572   21.3117 C   0  0  0  0  0  0  0  0  0  0  0  0
    7.6686   10.6857   21.2259 N   0  0  0  0  0  0  0  0  0  0  0  0
    8.7705    9.8627   21.1410 C   0  0  0  0  0  0  0  0  0  0  0  0
    8.6860    8.8085   20.4016 O   0  0  0  0  0  0  0  0  0  0  0  0
    7.5933   11.5571   21.8043 H   0  0  0  0  0  0  0  0  0  0  0  0
   10.1107   10.0306   21.8089 C   0  0  0  0  0  0  0  0  0  0  0  0
   10.3555    9.0936   22.9185 C   0  0  0  0  0  0  0  0  0  0  0  0
   10.1552   11.3931   22.1981 N   0  0  0  0  0  0  0  0  0  0  0  0
   10.1985   12.6991   22.5706 C   0  0  0  0  0  0  0  0  0  0  0  0
   10.9038   13.6089   22.0283 O   0  0  0  0  0  0  0  0  0  0  0  0
   10.8986   11.6809   21.1126 H   0  0  0  0  0  0  0  0  0  0  0  0
    9.3638   13.2194   23.7688 C   0  0  0  0  0  0  0  0  0  0  0  0
    9.3214   12.1190   24.7681 C   0  0  0  0  0  0  0  0  0  0  0  0
    7.9978   13.2941   23.1464 C   0  0  0  0  0  0  0  0  0  0  0  0
    7.5758   14.3805   22.2404 C   0  0  0  0  0  0  0  0  0  0  0  0
    7.1823   12.4419   23.3999 O   0  0  0  0  0  0  0  0  0  0  0  0
    4.7044    8.7155   17.4133 C   0  0  0  0  0  0  0  0  0  0  0  0
    3.6231    8.4572   18.4403 C   0  0  0  0  0  0  0  0  0  0  0  0
    3.2715    7.6241   15.8303 N   0  0  0  0  0  0  0  0  0  0  0  0
    4.5553    7.6917   16.2631 C   0  0  0  0  0  0  0  0  0  0  0  0
    5.6176    7.1320   15.9573 O   0  0  0  0  0  0  0  0  0  0  0  0
    2.5119    8.2973   16.1115 H   0  0  0  0  0  0  0  0  0  0  0  0
    2.6630    6.6248   14.8509 C   0  0  0  0  0  0  0  0  0  0  0  0
    3.5937    6.3250   13.7567 C   0  0  0  0  0  0  0  0  0  0  0  0
    3.8425    4.6204   16.0359 N   0  0  0  0  0  0  0  0  0  0  0  0
    2.7905    5.4516   15.8383 C   0  0  0  0  0  0  0  0  0  0  0  0
    1.7224    5.3738   16.5376 O   0  0  0  0  0  0  0  0  0  0  0  0
    4.6036    4.6275   15.2799 H   0  0  0  0  0  0  0  0  0  0  0  0
    4.0447    3.6892   17.0932 C   0  0  0  0  0  0  0  0  0  0  0  0
    5.1084    3.8114   18.0163 C   0  0  0  0  0  0  0  0  0  0  0  0
    6.2529    4.2956   17.7180 O   0  0  0  0  0  0  0  0  0  0  0  0
    4.9055    3.3552   19.3836 N   0  0  0  0  0  0  0  0  0  0  0  0
    3.7201    2.9322   20.0055 C   0  0  0  0  0  0  0  0  0  0  0  0
    4.1684    1.6563   20.7444 C   0  0  0  0  0  0  0  0  0  0  0  0
    5.6398    1.8389   20.9444 C   0  0  0  0  0  0  0  0  0  0  0  0
    5.9575    3.1912   20.3164 C   0  0  0  0  0  0  0  0  0  0  0  0
    5.9934    4.1678   21.3889 C   0  0  0  0  0  0  0  0  0  0  0  0
    5.8657    3.6702   22.6249 O   0  0  0  0  0  0  0  0  0  0  0  0
    6.1672    5.5571   21.3227 N   0  0  0  0  0  0  0  0  0  0  0  0
    6.2946    6.4119   20.2082 C   0  0  0  0  0  0  0  0  0  0  0  0
    6.3040    6.2159   22.6737 C   0  0  0  0  0  0  0  0  0  0  0  0
    4.1546    2.2724   16.4854 C   0  0  0  0  0  0  0  0  0  0  0  0
    2.4501    1.4800   14.8518 C   0  0  0  0  0  0  0  0  0  0  0  0
    2.8816    1.5470   16.3024 C   0  0  0  0  0  0  0  0  0  0  0  0
    2.8542    0.1312   16.8921 C   0  0  0  0  0  0  0  0  0  0  0  0
 60 61  1  0  0  0
 61 62  1  0  0  0
 61 59  1  0  0  0
 59 46  1  0  0  0
 46 42  1  0  0  0
 42 43  1  0  0  0
 43 44  2  0  0  0
 43 40  1  0  0  0
 40 41  1  0  0  0
 40 36  1  0  0  0
 36 37  1  0  0  0
 37 38  2  0  0  0
 37 34  1  0  0  0
 34 35  1  0  0  0
 34  1  1  0  0  0
  1  2  1  0  0  0
  2  3  2  0  0  0
  2  5  1  0  0  0
  5  6  1  0  0  0
  5  7  1  0  0  0
  7  8  1  0  0  0
  8  9  2  0  0  0
  8 11  1  0  0  0
 11 12  1  0  0  0
 11 13  1  0  0  0
 13 14  1  0  0  0
 14 15  2  0  0  0
 14 17  1  0  0  0
 17 18  1  0  0  0
 17 19  1  0  0  0
 19 20  1  0  0  0
 20 21  2  0  0  0
 20 23  1  0  0  0
 23 24  1  0  0  0
 23 25  1  0  0  0
 25 26  1  0  0  0
 26 27  2  0  0  0
 26 29  1  0  0  0
 29 30  1  0  0  0
 29 31  1  0  0  0
 31 32  1  0  0  0
 31 33  2  0  0  0
 46 47  1  0  0  0
 47 48  2  0  0  0
 47 49  1  0  0  0
 49 50  1  0  0  0
 50 51  1  0  0  0
 51 52  1  0  0  0
 52 53  1  0  0  0
 53 54  1  0  0  0
 54 55  2  0  0  0
 54 56  1  0  0  0
 56 57  1  0  0  0
 56 58  1  0  0  0
 53 49  1  0  0  0
 42 45  1  0  0  0
 36 39  1  0  0  0
  1  4  1  0  0  0
  7 10  1  0  0  0
 13 16  1  0  0  0
 19 22  1  0  0  0
 25 28  1  0  0  0
M  END
> <minimizedAffinity>
-7.19615

> <CNNscore>
0.2739210725

> <CNNaffinity>
6.6577177048

> <CNN_VS>
1.8236892223

> <CNNaffinity_variance>
0.4962753654

$$$$
[H]N(C(=O)[C@]([H])(C(=O)C([H])([H])[H])C([H])([H])[H])[C@]([H])(C(=O)N([H])[C@]([H])(C(=O)N([H])[C@]([H])(C(=O)N([H])[C@]([H])(C(=O)N([H])[C@]([H])(C(=O)N([H])[C@]([H])(C(=O)N([H])[C@]([H])(C(=O)N1C([H])([H])C([H])([H])C([H])([H])[C@@]1([H])C(=O)N(C([H])([H])[H])C([H])([H])[H])C([H])([H])C([H])(C([H])([H])[H])C([H])([H])[H])C([H])([H])[H])C([H])([H])[H])C([H])([H])[H])C([H])([H])[H])C([H])([H])[H])C([H])([H])[H]


 62 62  0  0  0  0  0  0  0  0999 V2000
   -0.5494    7.3166   12.8676 N   0  0  0  0  0  0  0  0  0  0  0  0
    0.7649    7.1944   13.4399 C   0  0  0  0  0  0  0  0  0  0  0  0
    1.0400    6.2284   14.2212 O   0  0  0  0  0  0  0  0  0  0  0  0
   -0.7501    8.1194   12.2524 H   0  0  0  0  0  0  0  0  0  0  0  0
    1.7857    8.2017   13.1093 C   0  0  0  0  0  0  0  0  0  0  0  0
    2.3644    7.8387   11.7060 C   0  0  0  0  0  0  0  0  0  0  0  0
    2.9367    8.1765   13.9855 N   0  0  0  0  0  0  0  0  0  0  0  0
    3.2752    9.3935   14.6607 C   0  0  0  0  0  0  0  0  0  0  0  0
    2.5905   10.4455   14.4642 O   0  0  0  0  0  0  0  0  0  0  0  0
    3.5056    7.3203   14.1309 H   0  0  0  0  0  0  0  0  0  0  0  0
    4.4025    9.4985   15.5939 C   0  0  0  0  0  0  0  0  0  0  0  0
    5.6433    8.7884   14.9882 C   0  0  0  0  0  0  0  0  0  0  0  0
    4.1218    8.7000   16.7952 N   0  0  0  0  0  0  0  0  0  0  0  0
    4.5283    9.1137   18.0804 C   0  0  0  0  0  0  0  0  0  0  0  0
    5.1589   10.2072   18.1580 O   0  0  0  0  0  0  0  0  0  0  0  0
    3.6021    7.8114   16.6404 H   0  0  0  0  0  0  0  0  0  0  0  0
    4.2391    8.3134   19.2928 C   0  0  0  0  0  0  0  0  0  0  0  0
    4.5688    9.1620   20.5131 C   0  0  0  0  0  0  0  0  0  0  0  0
    5.1025    7.1430   19.2528 N   0  0  0  0  0  0  0  0  0  0  0  0
    4.5618    5.8587   19.3570 C   0  0  0  0  0  0  0  0  0  0  0  0
    3.2870    5.7556   19.5027 O   0  0  0  0  0  0  0  0  0  0  0  0
    6.1341    7.3254   19.1451 H   0  0  0  0  0  0  0  0  0  0  0  0
    5.4176    4.6663   19.2993 C   0  0  0  0  0  0  0  0  0  0  0  0
    5.2107    4.0229   17.9196 C   0  0  0  0  0  0  0  0  0  0  0  0
    5.0038    3.7535   20.3389 N   0  0  0  0  0  0  0  0  0  0  0  0
    5.5992    3.7753   21.6195 C   0  0  0  0  0  0  0  0  0  0  0  0
    6.5139    4.6162   21.8410 O   0  0  0  0  0  0  0  0  0  0  0  0
    4.2553    3.0833   20.1233 H   0  0  0  0  0  0  0  0  0  0  0  0
    5.1878    2.8617   22.6834 C   0  0  0  0  0  0  0  0  0  0  0  0
    4.1041    3.5328   23.5140 C   0  0  0  0  0  0  0  0  0  0  0  0
    4.6189    1.6015   22.1599 C   0  0  0  0  0  0  0  0  0  0  0  0
    3.2370    1.1189   22.5047 C   0  0  0  0  0  0  0  0  0  0  0  0
    5.2620    0.8791   21.4031 O   0  0  0  0  0  0  0  0  0  0  0  0
   -1.5168    6.2753   13.1950 C   0  0  0  0  0  0  0  0  0  0  0  0
   -2.7333    7.0283   13.7839 C   0  0  0  0  0  0  0  0  0  0  0  0
   -3.3647    5.2330   11.8679 N   0  0  0  0  0  0  0  0  0  0  0  0
   -1.9883    5.6823   11.9438 C   0  0  0  0  0  0  0  0  0  0  0  0
   -1.2569    5.5441   10.9411 O   0  0  0  0  0  0  0  0  0  0  0  0
   -3.9710    5.3203   12.6754 H   0  0  0  0  0  0  0  0  0  0  0  0
   -3.8026    4.6683   10.6041 C   0  0  0  0  0  0  0  0  0  0  0  0
   -4.4282    3.3006   10.9621 C   0  0  0  0  0  0  0  0  0  0  0  0
   -5.3555    4.9873    8.7172 N   0  0  0  0  0  0  0  0  0  0  0  0
   -4.7925    5.4889    9.8896 C   0  0  0  0  0  0  0  0  0  0  0  0
   -5.0776    6.5962   10.3823 O   0  0  0  0  0  0  0  0  0  0  0  0
   -5.0714    4.0727    8.3195 H   0  0  0  0  0  0  0  0  0  0  0  0
   -6.4064    5.7112    7.9260 C   0  0  0  0  0  0  0  0  0  0  0  0
   -7.5953    4.8595    7.9900 C   0  0  0  0  0  0  0  0  0  0  0  0
   -7.9665    4.5810    6.7179 O   0  0  0  0  0  0  0  0  0  0  0  0
   -8.3744    4.3236    8.9875 N   0  0  0  0  0  0  0  0  0  0  0  0
   -8.3219    4.7189   10.4189 C   0  0  0  0  0  0  0  0  0  0  0  0
   -9.8274    4.9245   10.6974 C   0  0  0  0  0  0  0  0  0  0  0  0
  -10.5444    4.2525    9.5130 C   0  0  0  0  0  0  0  0  0  0  0  0
   -9.3752    3.3102    9.0559 C   0  0  0  0  0  0  0  0  0  0  0  0
   -9.7640    2.4439    7.9981 C   0  0  0  0  0  0  0  0  0  0  0  0
  -10.7790    2.5979    7.2865 O   0  0  0  0  0  0  0  0  0  0  0  0
   -8.9970    1.2693    7.6341 N   0  0  0  0  0  0  0  0  0  0  0  0
   -9.4751    0.4420    6.5603 C   0  0  0  0  0  0  0  0  0  0  0  0
   -7.7794    0.9394    8.3149 C   0  0  0  0  0  0  0  0  0  0  0  0
   -5.9389    6.3508    6.7266 C   0  0  0  0  0  0  0  0  0  0  0  0
   -5.7260    8.3719    5.2947 C   0  0  0  0  0  0  0  0  0  0  0  0
   -6.2878    7.8087    6.6011 C   0  0  0  0  0  0  0  0  0  0  0  0
   -5.4495    8.5829    7.6930 C   0  0  0  0  0  0  0  0  0  0  0  0
 60 61  1  0  0  0
 61 62  1  0  0  0
 61 59  1  0  0  0
 59 46  1  0  0  0
 46 42  1  0  0  0
 42 43  1  0  0  0
 43 44  2  0  0  0
 43 40  1  0  0  0
 40 41  1  0  0  0
 40 36  1  0  0  0
 36 37  1  0  0  0
 37 38  2  0  0  0
 37 34  1  0  0  0
 34 35  1  0  0  0
 34  1  1  0  0  0
  1  2  1  0  0  0
  2  3  2  0  0  0
  2  5  1  0  0  0
  5  6  1  0  0  0
  5  7  1  0  0  0
  7  8  1  0  0  0
  8  9  2  0  0  0
  8 11  1  0  0  0
 11 12  1  0  0  0
 11 13  1  0  0  0
 13 14  1  0  0  0
 14 15  2  0  0  0
 14 17  1  0  0  0
 17 18  1  0  0  0
 17 19  1  0  0  0
 19 20  1  0  0  0
 20 21  2  0  0  0
 20 23  1  0  0  0
 23 24  1  0  0  0
 23 25  1  0  0  0
 25 26  1  0  0  0
 26 27  2  0  0  0
 26 29  1  0  0  0
 29 30  1  0  0  0
 29 31  1  0  0  0
 31 32  1  0  0  0
 31 33  2  0  0  0
 46 47  1  0  0  0
 47 48  2  0  0  0
 47 49  1  0  0  0
 49 50  1  0  0  0
 50 51  1  0  0  0
 51 52  1  0  0  0
 52 53  1  0  0  0
 53 54  1  0  0  0
 54 55  2  0  0  0
 54 56  1  0  0  0
 56 57  1  0  0  0
 56 58  1  0  0  0
 53 49  1  0  0  0
 42 45  1  0  0  0
 36 39  1  0  0  0
  1  4  1  0  0  0
  7 10  1  0  0  0
 13 16  1  0  0  0
 19 22  1  0  0  0
 25 28  1  0  0  0
M  END
> <minimizedAffinity>
-7.94612

> <CNNscore>
0.6365391016

> <CNNaffinity>
6.6715493202

> <CNN_VS>
4.2467021942

> <CNNaffinity_variance>
0.4427923560

$$$$
[H]N(C(=O)[C@]([H])(C(=O)C([H])([H])[H])C([H])([H])[H])[C@]([H])(C(=O)N([H])[C@]([H])(C(=O)N([H])[C@]([H])(C(=O)N([H])[C@]([H])(C(=O)N([H])[C@]([H])(C(=O)N([H])[C@]([H])(C(=O)N([H])[C@]([H])(C(=O)N1C([H])([H])C([H])([H])C([H])([H])[C@@]1([H])C(=O)N(C([H])([H])[H])C([H])([H])[H])C([H])([H])C([H])(C([H])([H])[H])C([H])([H])[H])C([H])([H])[H])C([H])([H])[H])C([H])([H])[H])C([H])([H])[H])C([H])([H])[H])C([H])([H])[H]


 62 62  0  0  0  0  0  0  0  0999 V2000
    1.8763    6.3259   14.5209 N   0  0  0  0  0  0  0  0  0  0  0  0
    1.2837    5.8877   13.2852 C   0  0  0  0  0  0  0  0  0  0  0  0
    1.8300    4.9647   12.6004 O   0  0  0  0  0  0  0  0  0  0  0  0
    1.4224    7.0882   15.0461 H   0  0  0  0  0  0  0  0  0  0  0  0
    0.0379    6.5218   12.8250 C   0  0  0  0  0  0  0  0  0  0  0  0
   -0.8620    6.7510   14.0794 C   0  0  0  0  0  0  0  0  0  0  0  0
   -0.7625    5.6795   11.9629 N   0  0  0  0  0  0  0  0  0  0  0  0
   -0.8274    6.0322   10.5762 C   0  0  0  0  0  0  0  0  0  0  0  0
   -0.2166    7.0608   10.1486 O   0  0  0  0  0  0  0  0  0  0  0  0
   -1.2753    4.8495   12.3176 H   0  0  0  0  0  0  0  0  0  0  0  0
   -1.5831    5.2503    9.5910 C   0  0  0  0  0  0  0  0  0  0  0  0
   -0.8678    5.3224    8.2148 C   0  0  0  0  0  0  0  0  0  0  0  0
   -2.8708    5.9067    9.3259 N   0  0  0  0  0  0  0  0  0  0  0  0
   -3.9710    5.7754   10.1980 C   0  0  0  0  0  0  0  0  0  0  0  0
   -3.8064    5.0549   11.2242 O   0  0  0  0  0  0  0  0  0  0  0  0
   -2.9209    6.4771    8.4566 H   0  0  0  0  0  0  0  0  0  0  0  0
   -5.2670    6.4430    9.9357 C   0  0  0  0  0  0  0  0  0  0  0  0
   -6.3015    5.8668   10.8926 C   0  0  0  0  0  0  0  0  0  0  0  0
   -5.6375    6.1403    8.5616 N   0  0  0  0  0  0  0  0  0  0  0  0
   -5.9530    7.1682    7.6691 C   0  0  0  0  0  0  0  0  0  0  0  0
   -5.9172    8.3769    8.1107 O   0  0  0  0  0  0  0  0  0  0  0  0
   -5.6531    5.1218    8.2942 H   0  0  0  0  0  0  0  0  0  0  0  0
   -6.3105    6.8807    6.2737 C   0  0  0  0  0  0  0  0  0  0  0  0
   -5.9476    8.1225    5.4451 C   0  0  0  0  0  0  0  0  0  0  0  0
   -7.7322    6.6371    6.2048 N   0  0  0  0  0  0  0  0  0  0  0  0
   -8.2794    5.3720    6.5128 C   0  0  0  0  0  0  0  0  0  0  0  0
   -7.4926    4.4448    6.8511 O   0  0  0  0  0  0  0  0  0  0  0  0
   -8.3426    7.4156    5.9271 H   0  0  0  0  0  0  0  0  0  0  0  0
   -9.7162    5.1113    6.4529 C   0  0  0  0  0  0  0  0  0  0  0  0
  -10.2138    5.4288    5.0507 C   0  0  0  0  0  0  0  0  0  0  0  0
  -10.0472    3.6961    6.7235 C   0  0  0  0  0  0  0  0  0  0  0  0
   -9.9216    2.6113    5.6896 C   0  0  0  0  0  0  0  0  0  0  0  0
  -10.4456    3.3357    7.8278 O   0  0  0  0  0  0  0  0  0  0  0  0
    3.0903    5.6438   14.9548 C   0  0  0  0  0  0  0  0  0  0  0  0
    3.9004    6.7154   15.7223 C   0  0  0  0  0  0  0  0  0  0  0  0
    3.3752    3.3501   15.9142 N   0  0  0  0  0  0  0  0  0  0  0  0
    2.7174    4.6416   15.9530 C   0  0  0  0  0  0  0  0  0  0  0  0
    1.8568    4.8494   16.8335 O   0  0  0  0  0  0  0  0  0  0  0  0
    4.0646    3.1544   15.1976 H   0  0  0  0  0  0  0  0  0  0  0  0
    2.9941    2.3881   16.9327 C   0  0  0  0  0  0  0  0  0  0  0  0
    3.1223    1.0038   16.2563 C   0  0  0  0  0  0  0  0  0  0  0  0
    3.7406    3.5277   18.9864 N   0  0  0  0  0  0  0  0  0  0  0  0
    3.8349    2.4248   18.1391 C   0  0  0  0  0  0  0  0  0  0  0  0
    4.5884    1.4539   18.3388 O   0  0  0  0  0  0  0  0  0  0  0  0
    3.1235    4.3331   18.7723 H   0  0  0  0  0  0  0  0  0  0  0  0
    4.5133    3.6580   20.2672 C   0  0  0  0  0  0  0  0  0  0  0  0
    5.4375    4.7724   20.0508 C   0  0  0  0  0  0  0  0  0  0  0  0
    5.9139    4.6679   18.7876 O   0  0  0  0  0  0  0  0  0  0  0  0
    5.9074    5.8260   20.7982 N   0  0  0  0  0  0  0  0  0  0  0  0
    5.7415    5.9730   22.2675 C   0  0  0  0  0  0  0  0  0  0  0  0
    7.1937    6.3119   22.6704 C   0  0  0  0  0  0  0  0  0  0  0  0
    7.8934    6.6860   21.3517 C   0  0  0  0  0  0  0  0  0  0  0  0
    6.6115    7.0332   20.5151 C   0  0  0  0  0  0  0  0  0  0  0  0
    6.9306    7.5338   19.2236 C   0  0  0  0  0  0  0  0  0  0  0  0
    8.0027    7.3181   18.6198 O   0  0  0  0  0  0  0  0  0  0  0  0
    6.0161    8.3625   18.4637 N   0  0  0  0  0  0  0  0  0  0  0  0
    6.4305    8.8368   17.1716 C   0  0  0  0  0  0  0  0  0  0  0  0
    4.7191    8.6956   18.9751 C   0  0  0  0  0  0  0  0  0  0  0  0
    4.8828    2.4161   20.8896 C   0  0  0  0  0  0  0  0  0  0  0  0
    6.9015    1.1159   21.5336 C   0  0  0  0  0  0  0  0  0  0  0  0
    6.1665    2.4500   21.6730 C   0  0  0  0  0  0  0  0  0  0  0  0
    5.7768    2.4646   23.2035 C   0  0  0  0  0  0  0  0  0  0  0  0
 60 61  1  0  0  0
 61 62  1  0  0  0
 61 59  1  0  0  0
 59 46  1  0  0  0
 46 42  1  0  0  0
 42 43  1  0  0  0
 43 44  2  0  0  0
 43 40  1  0  0  0
 40 41  1  0  0  0
 40 36  1  0  0  0
 36 37  1  0  0  0
 37 38  2  0  0  0
 37 34  1  0  0  0
 34 35  1  0  0  0
 34  1  1  0  0  0
  1  2  1  0  0  0
  2  3  2  0  0  0
  2  5  1  0  0  0
  5  6  1  0  0  0
  5  7  1  0  0  0
  7  8  1  0  0  0
  8  9  2  0  0  0
  8 11  1  0  0  0
 11 12  1  0  0  0
 11 13  1  0  0  0
 13 14  1  0  0  0
 14 15  2  0  0  0
 14 17  1  0  0  0
 17 18  1  0  0  0
 17 19  1  0  0  0
 19 20  1  0  0  0
 20 21  2  0  0  0
 20 23  1  0  0  0
 23 24  1  0  0  0
 23 25  1  0  0  0
 25 26  1  0  0  0
 26 27  2  0  0  0
 26 29  1  0  0  0
 29 30  1  0  0  0
 29 31  1  0  0  0
 31 32  1  0  0  0
 31 33  2  0  0  0
 46 47  1  0  0  0
 47 48  2  0  0  0
 47 49  1  0  0  0
 49 50  1  0  0  0
 50 51  1  0  0  0
 51 52  1  0  0  0
 52 53  1  0  0  0
 53 54  1  0  0  0
 54 55  2  0  0  0
 54 56  1  0  0  0
 56 57  1  0  0  0
 56 58  1  0  0  0
 53 49  1  0  0  0
 42 45  1  0  0  0
 36 39  1  0  0  0
  1  4  1  0  0  0
  7 10  1  0  0  0
 13 16  1  0  0  0
 19 22  1  0  0  0
 25 28  1  0  0  0
M  END
> <minimizedAffinity>
-7.85035

> <CNNscore>
0.6281499267

> <CNNaffinity>
6.5463700294

> <CNN_VS>
4.1121020317

> <CNNaffinity_variance>
0.6077838540

$$$$
[H]N(C(=O)[C@]([H])(C(=O)C([H])([H])[H])C([H])([H])[H])[C@]([H])(C(=O)N([H])[C@]([H])(C(=O)N([H])[C@]([H])(C(=O)N([H])[C@]([H])(C(=O)N([H])[C@]([H])(C(=O)N([H])[C@]([H])(C(=O)N([H])[C@]([H])(C(=O)N1C([H])([H])C([H])([H])C([H])([H])[C@@]1([H])C(=O)N(C([H])([H])[H])C([H])([H])[H])C([H])([H])C([H])(C([H])([H])[H])C([H])([H])[H])C([H])([H])[H])C([H])([H])[H])C([H])([H])[H])C([H])([H])[H])C([H])([H])[H])C([H])([H])[H]


 62 62  0  0  0  0  0  0  0  0999 V2000
    2.9846    7.6896   14.3392 N   0  0  0  0  0  0  0  0  0  0  0  0
    2.6872    8.9886   13.7971 C   0  0  0  0  0  0  0  0  0  0  0  0
    2.0717    9.0987   12.6889 O   0  0  0  0  0  0  0  0  0  0  0  0
    3.5007    7.6297   15.2299 H   0  0  0  0  0  0  0  0  0  0  0  0
    3.1049   10.1873   14.5420 C   0  0  0  0  0  0  0  0  0  0  0  0
    4.6026   10.4559   14.1949 C   0  0  0  0  0  0  0  0  0  0  0  0
    3.0987   10.0142   15.9784 N   0  0  0  0  0  0  0  0  0  0  0  0
    3.2409   11.1910   16.7825 C   0  0  0  0  0  0  0  0  0  0  0  0
    3.3878   12.3270   16.2331 O   0  0  0  0  0  0  0  0  0  0  0  0
    2.9964    9.0828   16.4253 H   0  0  0  0  0  0  0  0  0  0  0  0
    3.2273   11.1586   18.2493 C   0  0  0  0  0  0  0  0  0  0  0  0
    2.4093   12.3644   18.7857 C   0  0  0  0  0  0  0  0  0  0  0  0
    4.5791   11.4266   18.7593 N   0  0  0  0  0  0  0  0  0  0  0  0
    5.1431   10.6786   19.8131 C   0  0  0  0  0  0  0  0  0  0  0  0
    4.4280    9.7634   20.3134 O   0  0  0  0  0  0  0  0  0  0  0  0
    5.0964   12.2005   18.2935 H   0  0  0  0  0  0  0  0  0  0  0  0
    6.5087   10.9429   20.3226 C   0  0  0  0  0  0  0  0  0  0  0  0
    7.4959   10.6897   19.1916 C   0  0  0  0  0  0  0  0  0  0  0  0
    6.7504   10.0093   21.4120 N   0  0  0  0  0  0  0  0  0  0  0  0
    7.9582   10.0360   22.1142 C   0  0  0  0  0  0  0  0  0  0  0  0
    8.8422   10.8991   21.7528 O   0  0  0  0  0  0  0  0  0  0  0  0
    5.9751    9.3299   21.6275 H   0  0  0  0  0  0  0  0  0  0  0  0
    8.2105    9.1131   23.2288 C   0  0  0  0  0  0  0  0  0  0  0  0
    7.9174    9.8775   24.5289 C   0  0  0  0  0  0  0  0  0  0  0  0
    9.5980    8.7149   23.1901 N   0  0  0  0  0  0  0  0  0  0  0  0
   10.0236    7.4730   23.7111 C   0  0  0  0  0  0  0  0  0  0  0  0
    9.1583    6.7084   24.2206 O   0  0  0  0  0  0  0  0  0  0  0  0
   10.2745    9.3620   22.7667 H   0  0  0  0  0  0  0  0  0  0  0  0
   11.4232    7.0536   23.6746 C   0  0  0  0  0  0  0  0  0  0  0  0
   11.9731    7.0573   25.0932 C   0  0  0  0  0  0  0  0  0  0  0  0
   11.5906    5.6834   23.1451 C   0  0  0  0  0  0  0  0  0  0  0  0
   10.9267    5.2039   21.8839 C   0  0  0  0  0  0  0  0  0  0  0  0
   12.2952    4.8598   23.7225 O   0  0  0  0  0  0  0  0  0  0  0  0
    2.5194    6.5316   13.5843 C   0  0  0  0  0  0  0  0  0  0  0  0
    3.7976    5.9125   12.9706 C   0  0  0  0  0  0  0  0  0  0  0  0
    2.9424    4.5477   15.0498 N   0  0  0  0  0  0  0  0  0  0  0  0
    2.0184    5.5394   14.5352 C   0  0  0  0  0  0  0  0  0  0  0  0
    0.8309    5.5084   14.9199 O   0  0  0  0  0  0  0  0  0  0  0  0
    3.9068    4.5443   14.7381 H   0  0  0  0  0  0  0  0  0  0  0  0
    2.4144    3.5920   16.0067 C   0  0  0  0  0  0  0  0  0  0  0  0
    2.9334    2.2135   15.5370 C   0  0  0  0  0  0  0  0  0  0  0  0
    3.7642    2.9579   17.9688 N   0  0  0  0  0  0  0  0  0  0  0  0
    2.8420    3.8309   17.3937 C   0  0  0  0  0  0  0  0  0  0  0  0
    2.3529    4.8145   17.9799 O   0  0  0  0  0  0  0  0  0  0  0  0
    4.1277    2.1306   17.4603 H   0  0  0  0  0  0  0  0  0  0  0  0
    4.3084    3.1238   19.3583 C   0  0  0  0  0  0  0  0  0  0  0  0
    5.1581    4.3146   19.3024 C   0  0  0  0  0  0  0  0  0  0  0  0
    5.8801    4.2471   18.1589 O   0  0  0  0  0  0  0  0  0  0  0  0
    5.3801    5.4087   20.1042 N   0  0  0  0  0  0  0  0  0  0  0  0
    4.9172    5.5468   21.5094 C   0  0  0  0  0  0  0  0  0  0  0  0
    6.2276    6.0143   22.1805 C   0  0  0  0  0  0  0  0  0  0  0  0
    7.1377    6.4431   21.0158 C   0  0  0  0  0  0  0  0  0  0  0  0
    6.0198    6.6722   19.9380 C   0  0  0  0  0  0  0  0  0  0  0  0
    6.5419    7.1934   18.7231 C   0  0  0  0  0  0  0  0  0  0  0  0
    7.7577    7.3112   18.4615 O   0  0  0  0  0  0  0  0  0  0  0  0
    5.6894    7.6478   17.6427 N   0  0  0  0  0  0  0  0  0  0  0  0
    6.3059    8.1751   16.4561 C   0  0  0  0  0  0  0  0  0  0  0  0
    4.2618    7.5642   17.7403 C   0  0  0  0  0  0  0  0  0  0  0  0
    4.6770    1.9034   20.0223 C   0  0  0  0  0  0  0  0  0  0  0  0
    6.5188    0.8591   21.3253 C   0  0  0  0  0  0  0  0  0  0  0  0
    5.5912    2.0694   21.2053 C   0  0  0  0  0  0  0  0  0  0  0  0
    4.6997    1.9439   22.5030 C   0  0  0  0  0  0  0  0  0  0  0  0
 60 61  1  0  0  0
 61 62  1  0  0  0
 61 59  1  0  0  0
 59 46  1  0  0  0
 46 42  1  0  0  0
 42 43  1  0  0  0
 43 44  2  0  0  0
 43 40  1  0  0  0
 40 41  1  0  0  0
 40 36  1  0  0  0
 36 37  1  0  0  0
 37 38  2  0  0  0
 37 34  1  0  0  0
 34 35  1  0  0  0
 34  1  1  0  0  0
  1  2  1  0  0  0
  2  3  2  0  0  0
  2  5  1  0  0  0
  5  6  1  0  0  0
  5  7  1  0  0  0
  7  8  1  0  0  0
  8  9  2  0  0  0
  8 11  1  0  0  0
 11 12  1  0  0  0
 11 13  1  0  0  0
 13 14  1  0  0  0
 14 15  2  0  0  0
 14 17  1  0  0  0
 17 18  1  0  0  0
 17 19  1  0  0  0
 19 20  1  0  0  0
 20 21  2  0  0  0
 20 23  1  0  0  0
 23 24  1  0  0  0
 23 25  1  0  0  0
 25 26  1  0  0  0
 26 27  2  0  0  0
 26 29  1  0  0  0
 29 30  1  0  0  0
 29 31  1  0  0  0
 31 32  1  0  0  0
 31 33  2  0  0  0
 46 47  1  0  0  0
 47 48  2  0  0  0
 47 49  1  0  0  0
 49 50  1  0  0  0
 50 51  1  0  0  0
 51 52  1  0  0  0
 52 53  1  0  0  0
 53 54  1  0  0  0
 54 55  2  0  0  0
 54 56  1  0  0  0
 56 57  1  0  0  0
 56 58  1  0  0  0
 53 49  1  0  0  0
 42 45  1  0  0  0
 36 39  1  0  0  0
  1  4  1  0  0  0
  7 10  1  0  0  0
 13 16  1  0  0  0
 19 22  1  0  0  0
 25 28  1  0  0  0
M  END
> <minimizedAffinity>
-8.28965

> <CNNscore>
0.3785651624

> <CNNaffinity>
7.2789063454

> <CNN_VS>
2.7555403709

> <CNNaffinity_variance>
0.4060610831

$$$$
[H]N(C(=O)[C@]([H])(C(=O)C([H])([H])[H])C([H])([H])[H])[C@]([H])(C(=O)N([H])[C@]([H])(C(=O)N([H])[C@]([H])(C(=O)N([H])[C@]([H])(C(=O)N([H])[C@]([H])(C(=O)N([H])[C@]([H])(C(=O)N([H])[C@]([H])(C(=O)N1C([H])([H])C([H])([H])C([H])([H])[C@@]1([H])C(=O)N(C([H])([H])[H])C([H])([H])[H])C([H])([H])C([H])(C([H])([H])[H])C([H])([H])[H])C([H])([H])[H])C([H])([H])[H])C([H])([H])[H])C([H])([H])[H])C([H])([H])[H])C([H])([H])[H]


 62 62  0  0  0  0  0  0  0  0999 V2000
    0.8406    7.7695   13.8407 N   0  0  0  0  0  0  0  0  0  0  0  0
    2.2368    7.5893   14.1375 C   0  0  0  0  0  0  0  0  0  0  0  0
    2.7172    6.4210   14.2911 O   0  0  0  0  0  0  0  0  0  0  0  0
    0.4744    8.7280   13.7395 H   0  0  0  0  0  0  0  0  0  0  0  0
    3.1007    8.7744   14.2608 C   0  0  0  0  0  0  0  0  0  0  0  0
    4.4503    8.4461   13.5492 C   0  0  0  0  0  0  0  0  0  0  0  0
    3.4823    9.0800   15.6225 N   0  0  0  0  0  0  0  0  0  0  0  0
    3.3987   10.4485   16.0368 C   0  0  0  0  0  0  0  0  0  0  0  0
    3.0234   11.3432   15.2166 O   0  0  0  0  0  0  0  0  0  0  0  0
    3.8057    8.3499   16.2860 H   0  0  0  0  0  0  0  0  0  0  0  0
    3.7329   10.8902   17.3955 C   0  0  0  0  0  0  0  0  0  0  0  0
    4.8827   11.9318   17.3326 C   0  0  0  0  0  0  0  0  0  0  0  0
    4.3394    9.7771   18.1388 N   0  0  0  0  0  0  0  0  0  0  0  0
    4.6939    9.8907   19.4988 C   0  0  0  0  0  0  0  0  0  0  0  0
    4.4750   11.0041   20.0573 O   0  0  0  0  0  0  0  0  0  0  0  0
    4.4889    8.8983   17.6013 H   0  0  0  0  0  0  0  0  0  0  0  0
    5.2980    8.7667   20.2510 C   0  0  0  0  0  0  0  0  0  0  0  0
    6.8011    8.9975   20.3261 C   0  0  0  0  0  0  0  0  0  0  0  0
    5.0185    7.5492   19.5050 N   0  0  0  0  0  0  0  0  0  0  0  0
    4.6475    6.3784   20.1715 C   0  0  0  0  0  0  0  0  0  0  0  0
    4.5784    6.4168   21.4564 O   0  0  0  0  0  0  0  0  0  0  0  0
    5.1144    7.6090   18.4580 H   0  0  0  0  0  0  0  0  0  0  0  0
    4.3435    5.1462   19.4320 C   0  0  0  0  0  0  0  0  0  0  0  0
    3.0028    5.3643   18.7141 C   0  0  0  0  0  0  0  0  0  0  0  0
    4.2287    4.0602   20.3769 N   0  0  0  0  0  0  0  0  0  0  0  0
    4.6430    2.7504   20.0488 C   0  0  0  0  0  0  0  0  0  0  0  0
    5.1191    2.5427   18.8985 O   0  0  0  0  0  0  0  0  0  0  0  0
    3.8377    4.2664   21.3044 H   0  0  0  0  0  0  0  0  0  0  0  0
    4.5382    1.6421   20.9957 C   0  0  0  0  0  0  0  0  0  0  0  0
    3.8533    2.1404   22.2596 C   0  0  0  0  0  0  0  0  0  0  0  0
    3.7262    0.5235   20.4713 C   0  0  0  0  0  0  0  0  0  0  0  0
    3.4902   -0.7492   21.2369 C   0  0  0  0  0  0  0  0  0  0  0  0
    3.1959    0.5859   19.3655 O   0  0  0  0  0  0  0  0  0  0  0  0
    0.0315    6.5651   13.6920 C   0  0  0  0  0  0  0  0  0  0  0  0
   -1.3167    6.9005   14.3729 C   0  0  0  0  0  0  0  0  0  0  0  0
   -1.0314    5.2274   11.8636 N   0  0  0  0  0  0  0  0  0  0  0  0
   -0.2756    6.3953   12.2720 C   0  0  0  0  0  0  0  0  0  0  0  0
    0.0869    7.2101   11.3979 O   0  0  0  0  0  0  0  0  0  0  0  0
   -1.3211    4.5448   12.5544 H   0  0  0  0  0  0  0  0  0  0  0  0
   -1.3347    5.1028   10.4492 C   0  0  0  0  0  0  0  0  0  0  0  0
   -1.1009    3.6126   10.1104 C   0  0  0  0  0  0  0  0  0  0  0  0
   -3.0982    5.4152    8.7563 N   0  0  0  0  0  0  0  0  0  0  0  0
   -2.7124    5.4766   10.0944 C   0  0  0  0  0  0  0  0  0  0  0  0
   -3.4654    5.8262   11.0224 O   0  0  0  0  0  0  0  0  0  0  0  0
   -2.4347    5.1484    8.0054 H   0  0  0  0  0  0  0  0  0  0  0  0
   -4.4866    5.7287    8.2782 C   0  0  0  0  0  0  0  0  0  0  0  0
   -5.1874    4.4437    8.2529 C   0  0  0  0  0  0  0  0  0  0  0  0
   -5.0160    3.9098    7.0205 O   0  0  0  0  0  0  0  0  0  0  0  0
   -5.9404    3.7112    9.1394 N   0  0  0  0  0  0  0  0  0  0  0  0
   -6.4820    4.2205   10.4259 C   0  0  0  0  0  0  0  0  0  0  0  0
   -7.9492    3.7526   10.3051 C   0  0  0  0  0  0  0  0  0  0  0  0
   -7.9432    2.7219    9.1621 C   0  0  0  0  0  0  0  0  0  0  0  0
   -6.4144    2.3675    9.1957 C   0  0  0  0  0  0  0  0  0  0  0  0
   -6.0836    1.3238    8.2893 C   0  0  0  0  0  0  0  0  0  0  0  0
   -6.7696    0.9955    7.2983 O   0  0  0  0  0  0  0  0  0  0  0  0
   -4.8850    0.5215    8.4321 N   0  0  0  0  0  0  0  0  0  0  0  0
   -4.6398   -0.5236    7.4762 C   0  0  0  0  0  0  0  0  0  0  0  0
   -3.9515    0.7666    9.4918 C   0  0  0  0  0  0  0  0  0  0  0  0
   -4.5676    6.7096    7.2306 C   0  0  0  0  0  0  0  0  0  0  0  0
   -6.1713    7.8762    5.7314 C   0  0  0  0  0  0  0  0  0  0  0  0
   -5.8573    7.4820    7.1755 C   0  0  0  0  0  0  0  0  0  0  0  0
   -5.5909    8.8807    7.8590 C   0  0  0  0  0  0  0  0  0  0  0  0
 60 61  1  0  0  0
 61 62  1  0  0  0
 61 59  1  0  0  0
 59 46  1  0  0  0
 46 42  1  0  0  0
 42 43  1  0  0  0
 43 44  2  0  0  0
 43 40  1  0  0  0
 40 41  1  0  0  0
 40 36  1  0  0  0
 36 37  1  0  0  0
 37 38  2  0  0  0
 37 34  1  0  0  0
 34 35  1  0  0  0
 34  1  1  0  0  0
  1  2  1  0  0  0
  2  3  2  0  0  0
  2  5  1  0  0  0
  5  6  1  0  0  0
  5  7  1  0  0  0
  7  8  1  0  0  0
  8  9  2  0  0  0
  8 11  1  0  0  0
 11 12  1  0  0  0
 11 13  1  0  0  0
 13 14  1  0  0  0
 14 15  2  0  0  0
 14 17  1  0  0  0
 17 18  1  0  0  0
 17 19  1  0  0  0
 19 20  1  0  0  0
 20 21  2  0  0  0
 20 23  1  0  0  0
 23 24  1  0  0  0
 23 25  1  0  0  0
 25 26  1  0  0  0
 26 27  2  0  0  0
 26 29  1  0  0  0
 29 30  1  0  0  0
 29 31  1  0  0  0
 31 32  1  0  0  0
 31 33  2  0  0  0
 46 47  1  0  0  0
 47 48  2  0  0  0
 47 49  1  0  0  0
 49 50  1  0  0  0
 50 51  1  0  0  0
 51 52  1  0  0  0
 52 53  1  0  0  0
 53 54  1  0  0  0
 54 55  2  0  0  0
 54 56  1  0  0  0
 56 57  1  0  0  0
 56 58  1  0  0  0
 53 49  1  0  0  0
 42 45  1  0  0  0
 36 39  1  0  0  0
  1  4  1  0  0  0
  7 10  1  0  0  0
 13 16  1  0  0  0
 19 22  1  0  0  0
 25 28  1  0  0  0
M  END
> <minimizedAffinity>
-7.65254

> <CNNscore>
0.3532595038

> <CNNaffinity>
6.6250505447

> <CNN_VS>
2.3403620720

> <CNNaffinity_variance>
0.4595814645

$$$$
[H]N(C(=O)[C@]([H])(C(=O)C([H])([H])[H])C([H])([H])[H])[C@]([H])(C(=O)N([H])[C@]([H])(C(=O)N([H])[C@]([H])(C(=O)N([H])[C@]([H])(C(=O)N([H])[C@]([H])(C(=O)N([H])[C@]([H])(C(=O)N([H])[C@]([H])(C(=O)N1C([H])([H])C([H])([H])C([H])([H])[C@@]1([H])C(=O)N(C([H])([H])[H])C([H])([H])[H])C([H])([H])C([H])(C([H])([H])[H])C([H])([H])[H])C([H])([H])[H])C([H])([H])[H])C([H])([H])[H])C([H])([H])[H])C([H])([H])[H])C([H])([H])[H]


 62 62  0  0  0  0  0  0  0  0999 V2000
    4.2817    7.5196   12.6365 N   0  0  0  0  0  0  0  0  0  0  0  0
    5.5769    8.1444   12.5924 C   0  0  0  0  0  0  0  0  0  0  0  0
    5.9255    8.9690   13.4968 O   0  0  0  0  0  0  0  0  0  0  0  0
    4.0183    6.8695   11.8808 H   0  0  0  0  0  0  0  0  0  0  0  0
    6.4920    7.8167   11.4873 C   0  0  0  0  0  0  0  0  0  0  0  0
    7.9213    8.2793   11.9102 C   0  0  0  0  0  0  0  0  0  0  0  0
    6.2258    8.5530   10.2706 N   0  0  0  0  0  0  0  0  0  0  0  0
    5.3835    7.9278    9.2954 C   0  0  0  0  0  0  0  0  0  0  0  0
    4.9191    6.7637    9.5035 O   0  0  0  0  0  0  0  0  0  0  0  0
    6.6207    9.4969   10.0948 H   0  0  0  0  0  0  0  0  0  0  0  0
    5.0156    8.5741    8.0305 C   0  0  0  0  0  0  0  0  0  0  0  0
    3.7738    7.8627    7.4282 C   0  0  0  0  0  0  0  0  0  0  0  0
    6.0583    8.3190    7.0270 N   0  0  0  0  0  0  0  0  0  0  0  0
    6.4444    9.2944    6.0848 C   0  0  0  0  0  0  0  0  0  0  0  0
    5.8447   10.4068    6.1325 O   0  0  0  0  0  0  0  0  0  0  0  0
    6.4969    7.3755    7.0555 H   0  0  0  0  0  0  0  0  0  0  0  0
    7.5009    9.0410    5.0779 C   0  0  0  0  0  0  0  0  0  0  0  0
    7.3602   10.0755    3.9697 C   0  0  0  0  0  0  0  0  0  0  0  0
    7.2760    7.7064    4.5438 N   0  0  0  0  0  0  0  0  0  0  0  0
    8.3525    6.8495    4.2997 C   0  0  0  0  0  0  0  0  0  0  0  0
    9.5364    7.2888    4.5495 O   0  0  0  0  0  0  0  0  0  0  0  0
    6.2747    7.4391    4.3572 H   0  0  0  0  0  0  0  0  0  0  0  0
    8.1412    5.4924    3.7787 C   0  0  0  0  0  0  0  0  0  0  0  0
    6.8121    5.5017    3.0082 C   0  0  0  0  0  0  0  0  0  0  0  0
    8.0607    4.5795    4.8947 N   0  0  0  0  0  0  0  0  0  0  0  0
    9.1403    3.7353    5.2362 C   0  0  0  0  0  0  0  0  0  0  0  0
   10.1897    3.7917    4.5373 O   0  0  0  0  0  0  0  0  0  0  0  0
    7.1914    4.5616    5.4421 H   0  0  0  0  0  0  0  0  0  0  0  0
    9.0761    2.8101    6.3657 C   0  0  0  0  0  0  0  0  0  0  0  0
    9.5200    3.5410    7.6240 C   0  0  0  0  0  0  0  0  0  0  0  0
    7.7067    2.3100    6.6115 C   0  0  0  0  0  0  0  0  0  0  0  0
    7.1028    2.2119    7.9853 C   0  0  0  0  0  0  0  0  0  0  0  0
    6.9862    1.9469    5.6858 O   0  0  0  0  0  0  0  0  0  0  0  0
    3.4235    7.8472   13.7695 C   0  0  0  0  0  0  0  0  0  0  0  0
    2.3036    8.7374   13.1805 C   0  0  0  0  0  0  0  0  0  0  0  0
    3.5427    5.6318   14.9271 N   0  0  0  0  0  0  0  0  0  0  0  0
    2.7610    6.6193   14.2089 C   0  0  0  0  0  0  0  0  0  0  0  0
    1.5543    6.3845   13.9899 O   0  0  0  0  0  0  0  0  0  0  0  0
    4.5278    5.7946   15.1009 H   0  0  0  0  0  0  0  0  0  0  0  0
    2.8468    4.4351   15.3650 C   0  0  0  0  0  0  0  0  0  0  0  0
    3.5598    3.2633   14.6519 C   0  0  0  0  0  0  0  0  0  0  0  0
    3.9015    3.4346   17.3550 N   0  0  0  0  0  0  0  0  0  0  0  0
    2.8805    4.2182   16.8195 C   0  0  0  0  0  0  0  0  0  0  0  0
    1.9864    4.7578   17.4974 O   0  0  0  0  0  0  0  0  0  0  0  0
    4.6127    2.9754   16.7561 H   0  0  0  0  0  0  0  0  0  0  0  0
    4.0663    3.1788   18.8254 C   0  0  0  0  0  0  0  0  0  0  0  0
    4.7622    4.3558   19.3481 C   0  0  0  0  0  0  0  0  0  0  0  0
    5.7678    4.6497   18.4902 O   0  0  0  0  0  0  0  0  0  0  0  0
    4.6379    5.1694   20.4490 N   0  0  0  0  0  0  0  0  0  0  0  0
    3.8022    4.8728   21.6413 C   0  0  0  0  0  0  0  0  0  0  0  0
    4.8240    5.1568   22.7644 C   0  0  0  0  0  0  0  0  0  0  0  0
    5.9601    5.9360   22.0783 C   0  0  0  0  0  0  0  0  0  0  0  0
    5.1545    6.4427   20.8299 C   0  0  0  0  0  0  0  0  0  0  0  0
    5.9226    7.3143   20.0110 C   0  0  0  0  0  0  0  0  0  0  0  0
    7.1681    7.4065   20.0390 O   0  0  0  0  0  0  0  0  0  0  0  0
    5.3166    8.2010   19.0378 N   0  0  0  0  0  0  0  0  0  0  0  0
    6.1715    9.0594   18.2642 C   0  0  0  0  0  0  0  0  0  0  0  0
    3.8979    8.2186   18.8342 C   0  0  0  0  0  0  0  0  0  0  0  0
    4.3978    1.8256   19.1790 C   0  0  0  0  0  0  0  0  0  0  0  0
    5.8164    1.1998   21.1224 C   0  0  0  0  0  0  0  0  0  0  0  0
    4.3985    1.5315   20.6543 C   0  0  0  0  0  0  0  0  0  0  0  0
    3.6447    0.1582   20.8548 C   0  0  0  0  0  0  0  0  0  0  0  0
 60 61  1  0  0  0
 61 62  1  0  0  0
 61 59  1  0  0  0
 59 46  1  0  0  0
 46 42  1  0  0  0
 42 43  1  0  0  0
 43 44  2  0  0  0
 43 40  1  0  0  0
 40 41  1  0  0  0
 40 36  1  0  0  0
 36 37  1  0  0  0
 37 38  2  0  0  0
 37 34  1  0  0  0
 34 35  1  0  0  0
 34  1  1  0  0  0
  1  2  1  0  0  0
  2  3  2  0  0  0
  2  5  1  0  0  0
  5  6  1  0  0  0
  5  7  1  0  0  0
  7  8  1  0  0  0
  8  9  2  0  0  0
  8 11  1  0  0  0
 11 12  1  0  0  0
 11 13  1  0  0  0
 13 14  1  0  0  0
 14 15  2  0  0  0
 14 17  1  0  0  0
 17 18  1  0  0  0
 17 19  1  0  0  0
 19 20  1  0  0  0
 20 21  2  0  0  0
 20 23  1  0  0  0
 23 24  1  0  0  0
 23 25  1  0  0  0
 25 26  1  0  0  0
 26 27  2  0  0  0
 26 29  1  0  0  0
 29 30  1  0  0  0
 29 31  1  0  0  0
 31 32  1  0  0  0
 31 33  2  0  0  0
 46 47  1  0  0  0
 47 48  2  0  0  0
 47 49  1  0  0  0
 49 50  1  0  0  0
 50 51  1  0  0  0
 51 52  1  0  0  0
 52 53  1  0  0  0
 53 54  1  0  0  0
 54 55  2  0  0  0
 54 56  1  0  0  0
 56 57  1  0  0  0
 56 58  1  0  0  0
 53 49  1  0  0  0
 42 45  1  0  0  0
 36 39  1  0  0  0
  1  4  1  0  0  0
  7 10  1  0  0  0
 13 16  1  0  0  0
 19 22  1  0  0  0
 25 28  1  0  0  0
M  END
> <minimizedAffinity>
-8.22051

> <CNNscore>
0.3316026628

> <CNNaffinity>
6.4339675903

> <CNN_VS>
2.1335208416

> <CNNaffinity_variance>
0.5650813580

$$$$
[H]N(C(=O)[C@]([H])(C(=O)C([H])([H])[H])C([H])([H])[H])[C@]([H])(C(=O)N([H])[C@]([H])(C(=O)N([H])[C@]([H])(C(=O)N([H])[C@]([H])(C(=O)N([H])[C@]([H])(C(=O)N([H])[C@]([H])(C(=O)N([H])[C@]([H])(C(=O)N1C([H])([H])C([H])([H])C([H])([H])[C@@]1([H])C(=O)N(C([H])([H])[H])C([H])([H])[H])C([H])([H])C([H])(C([H])([H])[H])C([H])([H])[H])C([H])([H])[H])C([H])([H])[H])C([H])([H])[H])C([H])([H])[H])C([H])([H])[H])C([H])([H])[H]


 62 62  0  0  0  0  0  0  0  0999 V2000
   -0.4385    7.1794   12.8173 N   0  0  0  0  0  0  0  0  0  0  0  0
    0.7974    7.1756   13.5538 C   0  0  0  0  0  0  0  0  0  0  0  0
    0.9800    6.3462   14.5015 O   0  0  0  0  0  0  0  0  0  0  0  0
   -0.5667    7.8745   12.0666 H   0  0  0  0  0  0  0  0  0  0  0  0
    1.8464    8.1439   13.1960 C   0  0  0  0  0  0  0  0  0  0  0  0
    2.4146    7.7254   11.8040 C   0  0  0  0  0  0  0  0  0  0  0  0
    2.9962    8.1105   14.0735 N   0  0  0  0  0  0  0  0  0  0  0  0
    3.3341    9.3214   14.7599 C   0  0  0  0  0  0  0  0  0  0  0  0
    2.6501   10.3754   14.5718 O   0  0  0  0  0  0  0  0  0  0  0  0
    3.5646    7.2529   14.2122 H   0  0  0  0  0  0  0  0  0  0  0  0
    4.4601    9.4178   15.6957 C   0  0  0  0  0  0  0  0  0  0  0  0
    5.6910    8.6811   15.1014 C   0  0  0  0  0  0  0  0  0  0  0  0
    4.1627    8.6368   16.9044 N   0  0  0  0  0  0  0  0  0  0  0  0
    4.5697    9.0589   18.1867 C   0  0  0  0  0  0  0  0  0  0  0  0
    5.2159   10.1439   18.2550 O   0  0  0  0  0  0  0  0  0  0  0  0
    3.6307    7.7543   16.7571 H   0  0  0  0  0  0  0  0  0  0  0  0
    4.2636    8.2763   19.4066 C   0  0  0  0  0  0  0  0  0  0  0  0
    4.6578    9.1098   20.6182 C   0  0  0  0  0  0  0  0  0  0  0  0
    5.0669    7.0644   19.3541 N   0  0  0  0  0  0  0  0  0  0  0  0
    4.4667    5.8254   19.1146 C   0  0  0  0  0  0  0  0  0  0  0  0
    3.1891    5.7988   18.9591 O   0  0  0  0  0  0  0  0  0  0  0  0
    6.1022    7.1816   19.5067 H   0  0  0  0  0  0  0  0  0  0  0  0
    5.2656    4.5951   19.0396 C   0  0  0  0  0  0  0  0  0  0  0  0
    4.8862    3.8841   17.7316 C   0  0  0  0  0  0  0  0  0  0  0  0
    4.9328    3.7618   20.1711 N   0  0  0  0  0  0  0  0  0  0  0  0
    5.4863    3.9979   21.4489 C   0  0  0  0  0  0  0  0  0  0  0  0
    6.2901    4.9614   21.5853 O   0  0  0  0  0  0  0  0  0  0  0  0
    4.2740    2.9874   20.0233 H   0  0  0  0  0  0  0  0  0  0  0  0
    5.1553    3.1670   22.6047 C   0  0  0  0  0  0  0  0  0  0  0  0
    3.9537    3.7718   23.3153 C   0  0  0  0  0  0  0  0  0  0  0  0
    4.7879    1.7865   22.2237 C   0  0  0  0  0  0  0  0  0  0  0  0
    3.4865    1.1446   22.6187 C   0  0  0  0  0  0  0  0  0  0  0  0
    5.5435    1.0892   21.5523 O   0  0  0  0  0  0  0  0  0  0  0  0
   -1.4340    6.1783   13.1836 C   0  0  0  0  0  0  0  0  0  0  0  0
   -2.6883    6.9887   13.5879 C   0  0  0  0  0  0  0  0  0  0  0  0
   -3.2114    5.1421   11.7590 N   0  0  0  0  0  0  0  0  0  0  0  0
   -1.8103    5.4468   11.9741 C   0  0  0  0  0  0  0  0  0  0  0  0
   -0.9781    5.0719   11.1220 O   0  0  0  0  0  0  0  0  0  0  0  0
   -3.9017    5.4222   12.4461 H   0  0  0  0  0  0  0  0  0  0  0  0
   -3.5494    4.4327   10.5382 C   0  0  0  0  0  0  0  0  0  0  0  0
   -4.4123    3.2316   10.9885 C   0  0  0  0  0  0  0  0  0  0  0  0
   -4.9876    4.5828    8.5425 N   0  0  0  0  0  0  0  0  0  0  0  0
   -4.3002    5.2382    9.5629 C   0  0  0  0  0  0  0  0  0  0  0  0
   -4.2820    6.4745    9.7098 O   0  0  0  0  0  0  0  0  0  0  0  0
   -4.9555    3.5522    8.4331 H   0  0  0  0  0  0  0  0  0  0  0  0
   -5.8233    5.2925    7.5166 C   0  0  0  0  0  0  0  0  0  0  0  0
   -7.1137    4.6014    7.5221 C   0  0  0  0  0  0  0  0  0  0  0  0
   -7.5083    4.4844    8.8121 O   0  0  0  0  0  0  0  0  0  0  0  0
   -7.9540    4.0697    6.5731 N   0  0  0  0  0  0  0  0  0  0  0  0
   -7.5980    3.8386    5.1491 C   0  0  0  0  0  0  0  0  0  0  0  0
   -8.0834    2.3816    4.9827 C   0  0  0  0  0  0  0  0  0  0  0  0
   -8.9851    2.1230    6.2028 C   0  0  0  0  0  0  0  0  0  0  0  0
   -9.3064    3.6179    6.5578 C   0  0  0  0  0  0  0  0  0  0  0  0
  -10.2390    3.7295    7.6245 C   0  0  0  0  0  0  0  0  0  0  0  0
  -10.5542    2.7997    8.3969 O   0  0  0  0  0  0  0  0  0  0  0  0
  -10.9297    4.9675    7.9264 N   0  0  0  0  0  0  0  0  0  0  0  0
  -11.8683    4.9829    9.0150 C   0  0  0  0  0  0  0  0  0  0  0  0
  -10.6784    6.1592    7.1705 C   0  0  0  0  0  0  0  0  0  0  0  0
   -5.1260    5.6845    6.3223 C   0  0  0  0  0  0  0  0  0  0  0  0
   -6.6100    7.5037    5.5045 C   0  0  0  0  0  0  0  0  0  0  0  0
   -5.2028    7.1491    5.9879 C   0  0  0  0  0  0  0  0  0  0  0  0
   -4.3309    7.3761    4.6907 C   0  0  0  0  0  0  0  0  0  0  0  0
 60 61  1  0  0  0
 61 62  1  0  0  0
 61 59  1  0  0  0
 59 46  1  0  0  0
 46 42  1  0  0  0
 42 43  1  0  0  0
 43 44  2  0  0  0
 43 40  1  0  0  0
 40 41  1  0  0  0
 40 36  1  0  0  0
 36 37  1  0  0  0
 37 38  2  0  0  0
 37 34  1  0  0  0
 34 35  1  0  0  0
 34  1  1  0  0  0
  1  2  1  0  0  0
  2  3  2  0  0  0
  2  5  1  0  0  0
  5  6  1  0  0  0
  5  7  1  0  0  0
  7  8  1  0  0  0
  8  9  2  0  0  0
  8 11  1  0  0  0
 11 12  1  0  0  0
 11 13  1  0  0  0
 13 14  1  0  0  0
 14 15  2  0  0  0
 14 17  1  0  0  0
 17 18  1  0  0  0
 17 19  1  0  0  0
 19 20  1  0  0  0
 20 21  2  0  0  0
 20 23  1  0  0  0
 23 24  1  0  0  0
 23 25  1  0  0  0
 25 26  1  0  0  0
 26 27  2  0  0  0
 26 29  1  0  0  0
 29 30  1  0  0  0
 29 31  1  0  0  0
 31 32  1  0  0  0
 31 33  2  0  0  0
 46 47  1  0  0  0
 47 48  2  0  0  0
 47 49  1  0  0  0
 49 50  1  0  0  0
 50 51  1  0  0  0
 51 52  1  0  0  0
 52 53  1  0  0  0
 53 54  1  0  0  0
 54 55  2  0  0  0
 54 56  1  0  0  0
 56 57  1  0  0  0
 56 58  1  0  0  0
 53 49  1  0  0  0
 42 45  1  0  0  0
 36 39  1  0  0  0
  1  4  1  0  0  0
  7 10  1  0  0  0
 13 16  1  0  0  0
 19 22  1  0  0  0
 25 28  1  0  0  0
M  END
> <minimizedAffinity>
-7.33665

> <CNNscore>
0.2920007706

> <CNNaffinity>
6.1565494537

> <CNN_VS>
1.7977172136

> <CNNaffinity_variance>
0.4380227029

$$$$
[H]N(C(=O)[C@]([H])(C(=O)C([H])([H])[H])C([H])([H])[H])[C@]([H])(C(=O)N([H])[C@]([H])(C(=O)N([H])[C@]([H])(C(=O)N([H])[C@]([H])(C(=O)N([H])[C@]([H])(C(=O)N([H])[C@]([H])(C(=O)N([H])[C@]([H])(C(=O)N1C([H])([H])C([H])([H])C([H])([H])[C@@]1([H])C(=O)N(C([H])([H])[H])C([H])([H])[H])C([H])([H])C([H])(C([H])([H])[H])C([H])([H])[H])C([H])([H])[H])C([H])([H])[H])C([H])([H])[H])C([H])([H])[H])C([H])([H])[H])C([H])([H])[H]


 62 62  0  0  0  0  0  0  0  0999 V2000
    4.1408    7.5088   12.6361 N   0  0  0  0  0  0  0  0  0  0  0  0
    5.4400    8.1135   12.5082 C   0  0  0  0  0  0  0  0  0  0  0  0
    5.8703    8.9109   13.4017 O   0  0  0  0  0  0  0  0  0  0  0  0
    3.8098    6.8809   11.8882 H   0  0  0  0  0  0  0  0  0  0  0  0
    6.2635    7.7970   11.3301 C   0  0  0  0  0  0  0  0  0  0  0  0
    7.7540    8.0459   11.7202 C   0  0  0  0  0  0  0  0  0  0  0  0
    6.0385    8.6795   10.2059 N   0  0  0  0  0  0  0  0  0  0  0  0
    5.3206    8.1475    9.0865 C   0  0  0  0  0  0  0  0  0  0  0  0
    4.9273    6.9395    9.0946 O   0  0  0  0  0  0  0  0  0  0  0  0
    6.3763    9.6611   10.1939 H   0  0  0  0  0  0  0  0  0  0  0  0
    5.0047    8.9416    7.8938 C   0  0  0  0  0  0  0  0  0  0  0  0
    3.5836    8.5727    7.3884 C   0  0  0  0  0  0  0  0  0  0  0  0
    5.8676    8.5216    6.7810 N   0  0  0  0  0  0  0  0  0  0  0  0
    6.4309    9.4484    5.8800 C   0  0  0  0  0  0  0  0  0  0  0  0
    6.1535   10.6684    6.0644 O   0  0  0  0  0  0  0  0  0  0  0  0
    6.0404    7.4983    6.6998 H   0  0  0  0  0  0  0  0  0  0  0  0
    7.3072    9.0267    4.7627 C   0  0  0  0  0  0  0  0  0  0  0  0
    6.5746    7.9611    3.9593 C   0  0  0  0  0  0  0  0  0  0  0  0
    8.5140    8.4648    5.3500 N   0  0  0  0  0  0  0  0  0  0  0  0
    9.7738    8.9301    4.9639 C   0  0  0  0  0  0  0  0  0  0  0  0
    9.8226    9.8537    4.0685 O   0  0  0  0  0  0  0  0  0  0  0  0
    8.3766    7.7033    6.0643 H   0  0  0  0  0  0  0  0  0  0  0  0
   11.0010    8.3867    5.5609 C   0  0  0  0  0  0  0  0  0  0  0  0
   11.8578    7.8295    4.4139 C   0  0  0  0  0  0  0  0  0  0  0  0
   10.6382    7.3247    6.4696 N   0  0  0  0  0  0  0  0  0  0  0  0
   11.3194    7.1356    7.6924 C   0  0  0  0  0  0  0  0  0  0  0  0
   12.2654    7.9203    7.9791 O   0  0  0  0  0  0  0  0  0  0  0  0
    9.8622    6.7059    6.2040 H   0  0  0  0  0  0  0  0  0  0  0  0
   10.9607    6.0689    8.6248 C   0  0  0  0  0  0  0  0  0  0  0  0
   10.7419    6.6755   10.0028 C   0  0  0  0  0  0  0  0  0  0  0  0
    9.7072    5.3826    8.2459 C   0  0  0  0  0  0  0  0  0  0  0  0
    8.3733    5.7133    8.8564 C   0  0  0  0  0  0  0  0  0  0  0  0
    9.6992    4.4953    7.3971 O   0  0  0  0  0  0  0  0  0  0  0  0
    3.3762    7.8236   13.8376 C   0  0  0  0  0  0  0  0  0  0  0  0
    2.2385    8.7554   13.3568 C   0  0  0  0  0  0  0  0  0  0  0  0
    3.5378    5.5343   14.8352 N   0  0  0  0  0  0  0  0  0  0  0  0
    2.7174    6.5992   14.2919 C   0  0  0  0  0  0  0  0  0  0  0  0
    1.4817    6.4310   14.2295 O   0  0  0  0  0  0  0  0  0  0  0  0
    4.5445    5.6430   14.8795 H   0  0  0  0  0  0  0  0  0  0  0  0
    2.8474    4.3425   15.2944 C   0  0  0  0  0  0  0  0  0  0  0  0
    3.5774    3.1601   14.6167 C   0  0  0  0  0  0  0  0  0  0  0  0
    3.8917    3.4012   17.3186 N   0  0  0  0  0  0  0  0  0  0  0  0
    2.8680    4.1604   16.7540 C   0  0  0  0  0  0  0  0  0  0  0  0
    1.9609    4.7060   17.4095 O   0  0  0  0  0  0  0  0  0  0  0  0
    4.6141    2.9359   16.7382 H   0  0  0  0  0  0  0  0  0  0  0  0
    4.0437    3.1822   18.7962 C   0  0  0  0  0  0  0  0  0  0  0  0
    4.7694    4.3540   19.2893 C   0  0  0  0  0  0  0  0  0  0  0  0
    5.8118    4.5701   18.4525 O   0  0  0  0  0  0  0  0  0  0  0  0
    4.6437    5.2205   20.3489 N   0  0  0  0  0  0  0  0  0  0  0  0
    3.7605    5.0102   21.5251 C   0  0  0  0  0  0  0  0  0  0  0  0
    4.7577    5.3051   22.6674 C   0  0  0  0  0  0  0  0  0  0  0  0
    5.9445    6.0084   21.9852 C   0  0  0  0  0  0  0  0  0  0  0  0
    5.1986    6.4889   20.6903 C   0  0  0  0  0  0  0  0  0  0  0  0
    6.0257    7.2926   19.8594 C   0  0  0  0  0  0  0  0  0  0  0  0
    7.1200    6.9304   19.3781 O   0  0  0  0  0  0  0  0  0  0  0  0
    5.6662    8.6444   19.4800 N   0  0  0  0  0  0  0  0  0  0  0  0
    6.5723    9.3888   18.6487 C   0  0  0  0  0  0  0  0  0  0  0  0
    4.4298    9.2299   19.9078 C   0  0  0  0  0  0  0  0  0  0  0  0
    4.3366    1.8309   19.1889 C   0  0  0  0  0  0  0  0  0  0  0  0
    5.7574    1.2121   21.1329 C   0  0  0  0  0  0  0  0  0  0  0  0
    4.3469    1.5836   20.6727 C   0  0  0  0  0  0  0  0  0  0  0  0
    3.5439    0.2474   20.9268 C   0  0  0  0  0  0  0  0  0  0  0  0
 60 61  1  0  0  0
 61 62  1  0  0  0
 61 59  1  0  0  0
 59 46  1  0  0  0
 46 42  1  0  0  0
 42 43  1  0  0  0
 43 44  2  0  0  0
 43 40  1  0  0  0
 40 41  1  0  0  0
 40 36  1  0  0  0
 36 37  1  0  0  0
 37 38  2  0  0  0
 37 34  1  0  0  0
 34 35  1  0  0  0
 34  1  1  0  0  0
  1  2  1  0  0  0
  2  3  2  0  0  0
  2  5  1  0  0  0
  5  6  1  0  0  0
  5  7  1  0  0  0
  7  8  1  0  0  0
  8  9  2  0  0  0
  8 11  1  0  0  0
 11 12  1  0  0  0
 11 13  1  0  0  0
 13 14  1  0  0  0
 14 15  2  0  0  0
 14 17  1  0  0  0
 17 18  1  0  0  0
 17 19  1  0  0  0
 19 20  1  0  0  0
 20 21  2  0  0  0
 20 23  1  0  0  0
 23 24  1  0  0  0
 23 25  1  0  0  0
 25 26  1  0  0  0
 26 27  2  0  0  0
 26 29  1  0  0  0
 29 30  1  0  0  0
 29 31  1  0  0  0
 31 32  1  0  0  0
 31 33  2  0  0  0
 46 47  1  0  0  0
 47 48  2  0  0  0
 47 49  1  0  0  0
 49 50  1  0  0  0
 50 51  1  0  0  0
 51 52  1  0  0  0
 52 53  1  0  0  0
 53 54  1  0  0  0
 54 55  2  0  0  0
 54 56  1  0  0  0
 56 57  1  0  0  0
 56 58  1  0  0  0
 53 49  1  0  0  0
 42 45  1  0  0  0
 36 39  1  0  0  0
  1  4  1  0  0  0
  7 10  1  0  0  0
 13 16  1  0  0  0
 19 22  1  0  0  0
 25 28  1  0  0  0
M  END
> <minimizedAffinity>
-8.77495

> <CNNscore>
0.2919854820

> <CNNaffinity>
6.5393280983

> <CNN_VS>
1.9093888998

> <CNNaffinity_variance>
0.2087253034

$$$$
[H]N(C(=O)[C@]([H])(C(=O)C([H])([H])[H])C([H])([H])[H])[C@]([H])(C(=O)N([H])[C@]([H])(C(=O)N([H])[C@]([H])(C(=O)N([H])[C@]([H])(C(=O)N([H])[C@]([H])(C(=O)N([H])[C@]([H])(C(=O)N([H])[C@]([H])(C(=O)N1C([H])([H])C([H])([H])C([H])([H])[C@@]1([H])C(=O)N(C([H])([H])[H])C([H])([H])[H])C([H])([H])C([H])(C([H])([H])[H])C([H])([H])[H])C([H])([H])[H])C([H])([H])[H])C([H])([H])[H])C([H])([H])[H])C([H])([H])[H])C([H])([H])[H]


 62 62  0  0  0  0  0  0  0  0999 V2000
    3.8779    6.3493   15.6195 N   0  0  0  0  0  0  0  0  0  0  0  0
    3.4545    7.6418   15.1505 C   0  0  0  0  0  0  0  0  0  0  0  0
    2.5023    7.7430   14.3125 O   0  0  0  0  0  0  0  0  0  0  0  0
    4.6641    6.2956   16.2843 H   0  0  0  0  0  0  0  0  0  0  0  0
    4.1381    8.8444   15.6532 C   0  0  0  0  0  0  0  0  0  0  0  0
    5.0712    8.3983   16.8220 C   0  0  0  0  0  0  0  0  0  0  0  0
    3.2488    9.8120   16.2582 N   0  0  0  0  0  0  0  0  0  0  0  0
    3.6282   11.1910   16.1813 C   0  0  0  0  0  0  0  0  0  0  0  0
    4.7177   11.5241   15.6191 O   0  0  0  0  0  0  0  0  0  0  0  0
    2.3676    9.5361   16.7327 H   0  0  0  0  0  0  0  0  0  0  0  0
    2.8060   12.2742   16.7323 C   0  0  0  0  0  0  0  0  0  0  0  0
    2.0057   12.9503   15.5863 C   0  0  0  0  0  0  0  0  0  0  0  0
    3.6764   13.3584   17.2081 N   0  0  0  0  0  0  0  0  0  0  0  0
    3.6927   13.7671   18.5575 C   0  0  0  0  0  0  0  0  0  0  0  0
    2.9132   13.1629   19.3491 O   0  0  0  0  0  0  0  0  0  0  0  0
    4.2826   13.8046   16.4891 H   0  0  0  0  0  0  0  0  0  0  0  0
    4.5754   14.8546   19.0396 C   0  0  0  0  0  0  0  0  0  0  0  0
    5.4198   15.3369   17.8681 C   0  0  0  0  0  0  0  0  0  0  0  0
    5.4321   14.2890   20.0707 N   0  0  0  0  0  0  0  0  0  0  0  0
    5.6418   14.9716   21.2718 C   0  0  0  0  0  0  0  0  0  0  0  0
    5.0652   16.1129   21.4207 O   0  0  0  0  0  0  0  0  0  0  0  0
    5.8726   13.3572   19.8546 H   0  0  0  0  0  0  0  0  0  0  0  0
    6.4884   14.4057   22.3304 C   0  0  0  0  0  0  0  0  0  0  0  0
    7.2771   15.5677   22.9533 C   0  0  0  0  0  0  0  0  0  0  0  0
    7.3962   13.4547   21.7330 N   0  0  0  0  0  0  0  0  0  0  0  0
    7.7340   12.2480   22.3847 C   0  0  0  0  0  0  0  0  0  0  0  0
    7.2237   12.0140   23.5151 O   0  0  0  0  0  0  0  0  0  0  0  0
    7.7914   13.6777   20.8112 H   0  0  0  0  0  0  0  0  0  0  0  0
    8.6468   11.2733   21.7909 C   0  0  0  0  0  0  0  0  0  0  0  0
    9.2778   11.8856   20.5493 C   0  0  0  0  0  0  0  0  0  0  0  0
    9.7495   10.9008   22.7025 C   0  0  0  0  0  0  0  0  0  0  0  0
    9.8393    9.5600   23.3775 C   0  0  0  0  0  0  0  0  0  0  0  0
   10.6607   11.6851   22.9526 O   0  0  0  0  0  0  0  0  0  0  0  0
    3.1474    5.1892   15.1215 C   0  0  0  0  0  0  0  0  0  0  0  0
    4.1661    4.4175   14.2495 C   0  0  0  0  0  0  0  0  0  0  0  0
    3.9323    3.5092   16.8020 N   0  0  0  0  0  0  0  0  0  0  0  0
    2.8563    4.3131   16.2561 C   0  0  0  0  0  0  0  0  0  0  0  0
    1.7224    4.2259   16.7718 O   0  0  0  0  0  0  0  0  0  0  0  0
    4.8564    3.5519   16.3879 H   0  0  0  0  0  0  0  0  0  0  0  0
    3.6109    2.6671   17.9401 C   0  0  0  0  0  0  0  0  0  0  0  0
    3.8335    1.2171   17.4520 C   0  0  0  0  0  0  0  0  0  0  0  0
    4.4637    4.2030   19.6685 N   0  0  0  0  0  0  0  0  0  0  0  0
    4.4417    2.9183   19.1277 C   0  0  0  0  0  0  0  0  0  0  0  0
    5.0816    1.9555   19.5900 O   0  0  0  0  0  0  0  0  0  0  0  0
    3.9411    4.9886   19.2385 H   0  0  0  0  0  0  0  0  0  0  0  0
    5.2367    4.5702   20.9023 C   0  0  0  0  0  0  0  0  0  0  0  0
    5.9738    5.7851   20.5508 C   0  0  0  0  0  0  0  0  0  0  0  0
    5.4400    6.2687   19.4041 O   0  0  0  0  0  0  0  0  0  0  0  0
    7.0250    6.4923   21.0839 N   0  0  0  0  0  0  0  0  0  0  0  0
    7.9268    6.0032   22.1588 C   0  0  0  0  0  0  0  0  0  0  0  0
    9.2989    6.3327   21.5305 C   0  0  0  0  0  0  0  0  0  0  0  0
    8.9837    7.3002   20.3760 C   0  0  0  0  0  0  0  0  0  0  0  0
    7.5795    7.7899   20.8786 C   0  0  0  0  0  0  0  0  0  0  0  0
    7.0378    8.8113   20.0518 C   0  0  0  0  0  0  0  0  0  0  0  0
    7.5094    9.1617   18.9494 O   0  0  0  0  0  0  0  0  0  0  0  0
    5.8534    9.5615   20.4189 N   0  0  0  0  0  0  0  0  0  0  0  0
    5.3861   10.5877   19.5274 C   0  0  0  0  0  0  0  0  0  0  0  0
    5.1483    9.2839   21.6356 C   0  0  0  0  0  0  0  0  0  0  0  0
    5.8066    3.4635   21.6210 C   0  0  0  0  0  0  0  0  0  0  0  0
    4.7771    1.8797   23.2373 C   0  0  0  0  0  0  0  0  0  0  0  0
    5.3157    3.2966   23.0332 C   0  0  0  0  0  0  0  0  0  0  0  0
    4.0141    4.1792   23.1802 C   0  0  0  0  0  0  0  0  0  0  0  0
 60 61  1  0  0  0
 61 62  1  0  0  0
 61 59  1  0  0  0
 59 46  1  0  0  0
 46 42  1  0  0  0
 42 43  1  0  0  0
 43 44  2  0  0  0
 43 40  1  0  0  0
 40 41  1  0  0  0
 40 36  1  0  0  0
 36 37  1  0  0  0
 37 38  2  0  0  0
 37 34  1  0  0  0
 34 35  1  0  0  0
 34  1  1  0  0  0
  1  2  1  0  0  0
  2  3  2  0  0  0
  2  5  1  0  0  0
  5  6  1  0  0  0
  5  7  1  0  0  0
  7  8  1  0  0  0
  8  9  2  0  0  0
  8 11  1  0  0  0
 11 12  1  0  0  0
 11 13  1  0  0  0
 13 14  1  0  0  0
 14 15  2  0  0  0
 14 17  1  0  0  0
 17 18  1  0  0  0
 17 19  1  0  0  0
 19 20  1  0  0  0
 20 21  2  0  0  0
 20 23  1  0  0  0
 23 24  1  0  0  0
 23 25  1  0  0  0
 25 26  1  0  0  0
 26 27  2  0  0  0
 26 29  1  0  0  0
 29 30  1  0  0  0
 29 31  1  0  0  0
 31 32  1  0  0  0
 31 33  2  0  0  0
 46 47  1  0  0  0
 47 48  2  0  0  0
 47 49  1  0  0  0
 49 50  1  0  0  0
 50 51  1  0  0  0
 51 52  1  0  0  0
 52 53  1  0  0  0
 53 54  1  0  0  0
 54 55  2  0  0  0
 54 56  1  0  0  0
 56 57  1  0  0  0
 56 58  1  0  0  0
 53 49  1  0  0  0
 42 45  1  0  0  0
 36 39  1  0  0  0
  1  4  1  0  0  0
  7 10  1  0  0  0
 13 16  1  0  0  0
 19 22  1  0  0  0
 25 28  1  0  0  0
M  END
> <minimizedAffinity>
-7.85843

> <CNNscore>
0.2891351581

> <CNNaffinity>
6.9388375282

> <CNN_VS>
2.0062618256

> <CNNaffinity_variance>
0.5464056730

$$$$
[H]N(C(=O)[C@]([H])(C(=O)C([H])([H])[H])C([H])([H])[H])[C@]([H])(C(=O)N([H])[C@]([H])(C(=O)N([H])[C@]([H])(C(=O)N([H])[C@]([H])(C(=O)N([H])[C@]([H])(C(=O)N([H])[C@]([H])(C(=O)N([H])[C@]([H])(C(=O)N1C([H])([H])C([H])([H])C([H])([H])[C@@]1([H])C(=O)N(C([H])([H])[H])C([H])([H])[H])C([H])([H])C([H])(C([H])([H])[H])C([H])([H])[H])C([H])([H])[H])C([H])([H])[H])C([H])([H])[H])C([H])([H])[H])C([H])([H])[H])C([H])([H])[H]


 62 62  0  0  0  0  0  0  0  0999 V2000
    4.2632    3.6545   12.4627 N   0  0  0  0  0  0  0  0  0  0  0  0
    3.7514    3.8739   13.7893 C   0  0  0  0  0  0  0  0  0  0  0  0
    3.5575    5.0563   14.2176 O   0  0  0  0  0  0  0  0  0  0  0  0
    4.4281    2.6866   12.1481 H   0  0  0  0  0  0  0  0  0  0  0  0
    3.4557    2.7121   14.6431 C   0  0  0  0  0  0  0  0  0  0  0  0
    1.9047    2.5434   14.6832 C   0  0  0  0  0  0  0  0  0  0  0  0
    3.8290    2.8955   16.0289 N   0  0  0  0  0  0  0  0  0  0  0  0
    3.8659    1.7289   16.8591 C   0  0  0  0  0  0  0  0  0  0  0  0
    3.5571    0.5933   16.3805 O   0  0  0  0  0  0  0  0  0  0  0  0
    4.0637    3.8270   16.4224 H   0  0  0  0  0  0  0  0  0  0  0  0
    4.2506    1.7716   18.2744 C   0  0  0  0  0  0  0  0  0  0  0  0
    3.3243    0.8302   19.0908 C   0  0  0  0  0  0  0  0  0  0  0  0
    3.9408    3.0971   18.8280 N   0  0  0  0  0  0  0  0  0  0  0  0
    4.7534    3.7084   19.8049 C   0  0  0  0  0  0  0  0  0  0  0  0
    5.7658    3.0595   20.1964 O   0  0  0  0  0  0  0  0  0  0  0  0
    3.0866    3.5590   18.4533 H   0  0  0  0  0  0  0  0  0  0  0  0
    4.4464    5.0479   20.3578 C   0  0  0  0  0  0  0  0  0  0  0  0
    3.2204    5.5909   19.6366 C   0  0  0  0  0  0  0  0  0  0  0  0
    5.5968    5.8980   20.0920 N   0  0  0  0  0  0  0  0  0  0  0  0
    6.2140    6.6013   21.1298 C   0  0  0  0  0  0  0  0  0  0  0  0
    5.7204    6.4793   22.3125 O   0  0  0  0  0  0  0  0  0  0  0  0
    5.9219    5.9470   19.0915 H   0  0  0  0  0  0  0  0  0  0  0  0
    7.3879    7.4486   20.8815 C   0  0  0  0  0  0  0  0  0  0  0  0
    8.0702    6.9211   19.6101 C   0  0  0  0  0  0  0  0  0  0  0  0
    8.2835    7.3341   22.0085 N   0  0  0  0  0  0  0  0  0  0  0  0
    9.0852    8.4191   22.4266 C   0  0  0  0  0  0  0  0  0  0  0  0
    9.0059    9.5044   21.7872 O   0  0  0  0  0  0  0  0  0  0  0  0
    8.3209    6.4360   22.5062 H   0  0  0  0  0  0  0  0  0  0  0  0
    9.9924    8.3205   23.5682 C   0  0  0  0  0  0  0  0  0  0  0  0
   10.4785    9.7160   23.9300 C   0  0  0  0  0  0  0  0  0  0  0  0
    9.3341    7.7626   24.7687 C   0  0  0  0  0  0  0  0  0  0  0  0
   10.0315    6.8471   25.7367 C   0  0  0  0  0  0  0  0  0  0  0  0
    8.1653    8.0290   25.0352 O   0  0  0  0  0  0  0  0  0  0  0  0
    4.5071    4.8343   11.6405 C   0  0  0  0  0  0  0  0  0  0  0  0
    5.6488    4.4252   10.6799 C   0  0  0  0  0  0  0  0  0  0  0  0
    2.8676    3.9482    9.9704 N   0  0  0  0  0  0  0  0  0  0  0  0
    3.3352    5.0478   10.7916 C   0  0  0  0  0  0  0  0  0  0  0  0
    2.7231    6.1351   10.7419 O   0  0  0  0  0  0  0  0  0  0  0  0
    3.3596    3.0622    9.9827 H   0  0  0  0  0  0  0  0  0  0  0  0
    1.6902    4.1908    9.1564 C   0  0  0  0  0  0  0  0  0  0  0  0
    1.8160    3.2239    7.9566 C   0  0  0  0  0  0  0  0  0  0  0  0
   -0.2230    5.0195   10.4704 N   0  0  0  0  0  0  0  0  0  0  0  0
    0.4173    3.9467    9.8521 C   0  0  0  0  0  0  0  0  0  0  0  0
   -0.0226    2.7819    9.8444 O   0  0  0  0  0  0  0  0  0  0  0  0
    0.1884    5.9713   10.4825 H   0  0  0  0  0  0  0  0  0  0  0  0
   -1.5457    4.9036   11.1715 C   0  0  0  0  0  0  0  0  0  0  0  0
   -2.5271    5.4691   10.2442 C   0  0  0  0  0  0  0  0  0  0  0  0
   -1.8652    6.3050    9.4096 O   0  0  0  0  0  0  0  0  0  0  0  0
   -3.8834    5.3568   10.0510 N   0  0  0  0  0  0  0  0  0  0  0  0
   -4.8336    4.7287   11.0052 C   0  0  0  0  0  0  0  0  0  0  0  0
   -5.9210    5.8243   11.0636 C   0  0  0  0  0  0  0  0  0  0  0  0
   -5.6309    6.7347    9.8571 C   0  0  0  0  0  0  0  0  0  0  0  0
   -4.7905    5.7143    9.0106 C   0  0  0  0  0  0  0  0  0  0  0  0
   -4.4395    6.2335    7.7348 C   0  0  0  0  0  0  0  0  0  0  0  0
   -4.3761    7.4486    7.4519 O   0  0  0  0  0  0  0  0  0  0  0  0
   -4.1109    5.3785    6.6117 N   0  0  0  0  0  0  0  0  0  0  0  0
   -3.7830    5.9920    5.3538 C   0  0  0  0  0  0  0  0  0  0  0  0
   -4.0968    3.9515    6.7463 C   0  0  0  0  0  0  0  0  0  0  0  0
   -1.5187    5.1812   12.5816 C   0  0  0  0  0  0  0  0  0  0  0  0
   -0.3131    6.7738   14.0617 C   0  0  0  0  0  0  0  0  0  0  0  0
   -1.3487    6.6310   12.9452 C   0  0  0  0  0  0  0  0  0  0  0  0
   -2.6813    7.0910   13.6573 C   0  0  0  0  0  0  0  0  0  0  0  0
 60 61  1  0  0  0
 61 62  1  0  0  0
 61 59  1  0  0  0
 59 46  1  0  0  0
 46 42  1  0  0  0
 42 43  1  0  0  0
 43 44  2  0  0  0
 43 40  1  0  0  0
 40 41  1  0  0  0
 40 36  1  0  0  0
 36 37  1  0  0  0
 37 38  2  0  0  0
 37 34  1  0  0  0
 34 35  1  0  0  0
 34  1  1  0  0  0
  1  2  1  0  0  0
  2  3  2  0  0  0
  2  5  1  0  0  0
  5  6  1  0  0  0
  5  7  1  0  0  0
  7  8  1  0  0  0
  8  9  2  0  0  0
  8 11  1  0  0  0
 11 12  1  0  0  0
 11 13  1  0  0  0
 13 14  1  0  0  0
 14 15  2  0  0  0
 14 17  1  0  0  0
 17 18  1  0  0  0
 17 19  1  0  0  0
 19 20  1  0  0  0
 20 21  2  0  0  0
 20 23  1  0  0  0
 23 24  1  0  0  0
 23 25  1  0  0  0
 25 26  1  0  0  0
 26 27  2  0  0  0
 26 29  1  0  0  0
 29 30  1  0  0  0
 29 31  1  0  0  0
 31 32  1  0  0  0
 31 33  2  0  0  0
 46 47  1  0  0  0
 47 48  2  0  0  0
 47 49  1  0  0  0
 49 50  1  0  0  0
 50 51  1  0  0  0
 51 52  1  0  0  0
 52 53  1  0  0  0
 53 54  1  0  0  0
 54 55  2  0  0  0
 54 56  1  0  0  0
 56 57  1  0  0  0
 56 58  1  0  0  0
 53 49  1  0  0  0
 42 45  1  0  0  0
 36 39  1  0  0  0
  1  4  1  0  0  0
  7 10  1  0  0  0
 13 16  1  0  0  0
 19 22  1  0  0  0
 25 28  1  0  0  0
M  END
> <minimizedAffinity>
-6.96520

> <CNNscore>
0.2726074159

> <CNNaffinity>
6.3152570724

> <CNN_VS>
1.7215858698

> <CNNaffinity_variance>
0.4619149268

$$$$
[H]N(C(=O)[C@]([H])(C(=O)C([H])([H])[H])C([H])([H])[H])[C@]([H])(C(=O)N([H])[C@]([H])(C(=O)N([H])[C@]([H])(C(=O)N([H])[C@]([H])(C(=O)N([H])[C@]([H])(C(=O)N([H])[C@]([H])(C(=O)N([H])[C@]([H])(C(=O)N1C([H])([H])C([H])([H])C([H])([H])[C@]1([H])C(=O)N1C(=O)C([H])([H])C([H])([H])C1([H])[H])C([H])([H])C([H])(C([H])([H])[H])C([H])([H])[H])C([H])([H])[H])C([H])([H])[H])C([H])([H])[H])C([H])([H])[H])C([H])([H])[H])C([H])([H])[H]


 65 66  0  0  0  0  0  0  0  0999 V2000
    5.7650    6.0155   11.6764 N   0  0  0  0  0  0  0  0  0  0  0  0
    6.4765    7.1361   11.2084 C   0  0  0  0  0  0  0  0  0  0  0  0
    6.0259    7.9342   10.3401 O   0  0  0  0  0  0  0  0  0  0  0  0
    6.2197    5.3947   12.3819 H   0  0  0  0  0  0  0  0  0  0  0  0
    7.8230    7.4359   11.7316 C   0  0  0  0  0  0  0  0  0  0  0  0
    7.8484    8.9159   12.2140 C   0  0  0  0  0  0  0  0  0  0  0  0
    8.7877    7.2892   10.6699 N   0  0  0  0  0  0  0  0  0  0  0  0
   10.1078    6.8466   11.0179 C   0  0  0  0  0  0  0  0  0  0  0  0
   10.3057    6.6250   12.2589 O   0  0  0  0  0  0  0  0  0  0  0  0
    8.5548    7.4916    9.7006 H   0  0  0  0  0  0  0  0  0  0  0  0
   11.1866    6.6461   10.0431 C   0  0  0  0  0  0  0  0  0  0  0  0
   12.3558    7.5895   10.3481 C   0  0  0  0  0  0  0  0  0  0  0  0
   10.6929    6.8677    8.6801 N   0  0  0  0  0  0  0  0  0  0  0  0
   11.0559    6.1200    7.5522 C   0  0  0  0  0  0  0  0  0  0  0  0
   11.8832    5.1693    7.6228 O   0  0  0  0  0  0  0  0  0  0  0  0
    9.9987    7.6707    8.5363 H   0  0  0  0  0  0  0  0  0  0  0  0
   10.4442    6.4697    6.2528 C   0  0  0  0  0  0  0  0  0  0  0  0
   10.9465    7.8553    5.8436 C   0  0  0  0  0  0  0  0  0  0  0  0
    8.9821    6.5323    6.4332 N   0  0  0  0  0  0  0  0  0  0  0  0
    8.1871    5.3888    6.2076 C   0  0  0  0  0  0  0  0  0  0  0  0
    8.7891    4.3218    5.8410 O   0  0  0  0  0  0  0  0  0  0  0  0
    8.5097    7.4135    6.7278 H   0  0  0  0  0  0  0  0  0  0  0  0
    6.7199    5.4512    6.3952 C   0  0  0  0  0  0  0  0  0  0  0  0
    5.9954    4.4347    5.5201 C   0  0  0  0  0  0  0  0  0  0  0  0
    6.3223    6.8005    6.0354 N   0  0  0  0  0  0  0  0  0  0  0  0
    5.2591    7.4000    6.7362 C   0  0  0  0  0  0  0  0  0  0  0  0
    4.6390    6.7930    7.6659 O   0  0  0  0  0  0  0  0  0  0  0  0
    6.8250    7.2801    5.2773 H   0  0  0  0  0  0  0  0  0  0  0  0
    4.8010    8.7771    6.4294 C   0  0  0  0  0  0  0  0  0  0  0  0
    4.9140    9.7011    7.6305 C   0  0  0  0  0  0  0  0  0  0  0  0
    5.6283    9.2853    5.2921 C   0  0  0  0  0  0  0  0  0  0  0  0
    6.6147   10.3435    5.5541 C   0  0  0  0  0  0  0  0  0  0  0  0
    5.4586    8.8112    4.2018 O   0  0  0  0  0  0  0  0  0  0  0  0
    4.4201    5.6965   11.2186 C   0  0  0  0  0  0  0  0  0  0  0  0
    4.4966    4.1920   10.7395 C   0  0  0  0  0  0  0  0  0  0  0  0
    3.4671    6.8612   13.2210 N   0  0  0  0  0  0  0  0  0  0  0  0
    3.5014    5.7508   12.3558 C   0  0  0  0  0  0  0  0  0  0  0  0
    2.7399    4.7330   12.5053 O   0  0  0  0  0  0  0  0  0  0  0  0
    4.1219    7.6447   13.0784 H   0  0  0  0  0  0  0  0  0  0  0  0
    2.5246    6.9512   14.3322 C   0  0  0  0  0  0  0  0  0  0  0  0
    1.1142    6.6945   13.7476 C   0  0  0  0  0  0  0  0  0  0  0  0
    4.0518    5.6431   15.9194 N   0  0  0  0  0  0  0  0  0  0  0  0
    2.7975    5.9712   15.3842 C   0  0  0  0  0  0  0  0  0  0  0  0
    1.7757    5.3612   15.8524 O   0  0  0  0  0  0  0  0  0  0  0  0
    4.9083    6.0761   15.5626 H   0  0  0  0  0  0  0  0  0  0  0  0
    4.1262    4.6296   17.0399 C   0  0  0  0  0  0  0  0  0  0  0  0
    5.2184    5.0746   17.8873 C   0  0  0  0  0  0  0  0  0  0  0  0
    6.3060    5.4530   17.2681 O   0  0  0  0  0  0  0  0  0  0  0  0
    5.2559    5.1707   19.2942 N   0  0  0  0  0  0  0  0  0  0  0  0
    6.4453    5.5311   20.0859 C   0  0  0  0  0  0  0  0  0  0  0  0
    5.9276    6.7850   20.8019 C   0  0  0  0  0  0  0  0  0  0  0  0
    4.4048    6.7273   20.6540 C   0  0  0  0  0  0  0  0  0  0  0  0
    4.1736    5.2157   20.2057 C   0  0  0  0  0  0  0  0  0  0  0  0
    4.0526    4.4240   21.3727 C   0  0  0  0  0  0  0  0  0  0  0  0
    3.7196    5.1533   22.4429 O   0  0  0  0  0  0  0  0  0  0  0  0
    4.1943    3.0706   21.6859 N   0  0  0  0  0  0  0  0  0  0  0  0
    4.5097    1.9599   20.8011 C   0  0  0  0  0  0  0  0  0  0  0  0
    3.9115    0.7458   21.4348 C   0  0  0  0  0  0  0  0  0  0  0  0
    3.5075    1.1163   22.8245 C   0  0  0  0  0  0  0  0  0  0  0  0
    4.0589    2.4761   23.0087 C   0  0  0  0  0  0  0  0  0  0  0  0
    4.3572    3.0266   24.0689 O   0  0  0  0  0  0  0  0  0  0  0  0
    4.4543    3.3381   16.2980 C   0  0  0  0  0  0  0  0  0  0  0  0
    3.7081    1.0917   17.0872 C   0  0  0  0  0  0  0  0  0  0  0  0
    3.4697    2.2848   16.1565 C   0  0  0  0  0  0  0  0  0  0  0  0
    3.0352    1.8322   14.8193 C   0  0  0  0  0  0  0  0  0  0  0  0
 63 64  1  0  0  0
 64 65  1  0  0  0
 64 62  1  0  0  0
 62 46  1  0  0  0
 46 42  1  0  0  0
 42 43  1  0  0  0
 43 44  2  0  0  0
 43 40  1  0  0  0
 40 41  1  0  0  0
 40 36  1  0  0  0
 36 37  1  0  0  0
 37 38  2  0  0  0
 37 34  1  0  0  0
 34 35  1  0  0  0
 34  1  1  0  0  0
  1  2  1  0  0  0
  2  3  2  0  0  0
  2  5  1  0  0  0
  5  6  1  0  0  0
  5  7  1  0  0  0
  7  8  1  0  0  0
  8  9  2  0  0  0
  8 11  1  0  0  0
 11 12  1  0  0  0
 11 13  1  0  0  0
 13 14  1  0  0  0
 14 15  2  0  0  0
 14 17  1  0  0  0
 17 18  1  0  0  0
 17 19  1  0  0  0
 19 20  1  0  0  0
 20 21  2  0  0  0
 20 23  1  0  0  0
 23 24  1  0  0  0
 23 25  1  0  0  0
 25 26  1  0  0  0
 26 27  2  0  0  0
 26 29  1  0  0  0
 29 30  1  0  0  0
 29 31  1  0  0  0
 31 32  1  0  0  0
 31 33  2  0  0  0
 46 47  1  0  0  0
 47 48  2  0  0  0
 47 49  1  0  0  0
 49 50  1  0  0  0
 50 51  1  0  0  0
 51 52  1  0  0  0
 52 53  1  0  0  0
 53 54  1  0  0  0
 54 55  2  0  0  0
 54 56  1  0  0  0
 56 57  1  0  0  0
 57 58  1  0  0  0
 58 59  1  0  0  0
 59 60  1  0  0  0
 60 61  2  0  0  0
 53 49  1  0  0  0
 60 56  1  0  0  0
 42 45  1  0  0  0
 36 39  1  0  0  0
  1  4  1  0  0  0
  7 10  1  0  0  0
 13 16  1  0  0  0
 19 22  1  0  0  0
 25 28  1  0  0  0
M  END
> <minimizedAffinity>
-8.57199

> <CNNscore>
0.4172568023

> <CNNaffinity>
6.9512877464

> <CNN_VS>
2.9004721642

> <CNNaffinity_variance>
0.5039500594

$$$$
[H]N(C(=O)[C@]([H])(C(=O)C([H])([H])[H])C([H])([H])[H])[C@]([H])(C(=O)N([H])[C@]([H])(C(=O)N([H])[C@]([H])(C(=O)N([H])[C@]([H])(C(=O)N([H])[C@]([H])(C(=O)N([H])[C@]([H])(C(=O)N([H])[C@]([H])(C(=O)N1C([H])([H])C([H])([H])C([H])([H])[C@]1([H])C(=O)N1C(=O)C([H])([H])C([H])([H])C1([H])[H])C([H])([H])C([H])(C([H])([H])[H])C([H])([H])[H])C([H])([H])[H])C([H])([H])[H])C([H])([H])[H])C([H])([H])[H])C([H])([H])[H])C([H])([H])[H]


 65 66  0  0  0  0  0  0  0  0999 V2000
    1.9280    6.0887   14.4331 N   0  0  0  0  0  0  0  0  0  0  0  0
    2.3962    5.8600   15.7405 C   0  0  0  0  0  0  0  0  0  0  0  0
    1.7837    5.1491   16.5851 O   0  0  0  0  0  0  0  0  0  0  0  0
    2.4869    6.7066   13.8039 H   0  0  0  0  0  0  0  0  0  0  0  0
    3.6657    6.4601   16.1934 C   0  0  0  0  0  0  0  0  0  0  0  0
    4.7743    5.3681   16.1456 C   0  0  0  0  0  0  0  0  0  0  0  0
    3.5217    6.8995   17.5593 N   0  0  0  0  0  0  0  0  0  0  0  0
    4.3666    7.9666   18.0145 C   0  0  0  0  0  0  0  0  0  0  0  0
    5.1832    8.4301   17.1503 O   0  0  0  0  0  0  0  0  0  0  0  0
    2.8485    6.4744   18.1923 H   0  0  0  0  0  0  0  0  0  0  0  0
    4.3250    8.5198   19.3733 C   0  0  0  0  0  0  0  0  0  0  0  0
    5.6082    9.3072   19.6623 C   0  0  0  0  0  0  0  0  0  0  0  0
    4.1508    7.4469   20.3578 N   0  0  0  0  0  0  0  0  0  0  0  0
    4.8837    6.2535   20.3982 C   0  0  0  0  0  0  0  0  0  0  0  0
    5.7758    5.9919   19.5444 O   0  0  0  0  0  0  0  0  0  0  0  0
    3.3979    7.5882   21.1065 H   0  0  0  0  0  0  0  0  0  0  0  0
    4.5891    5.2861   21.4763 C   0  0  0  0  0  0  0  0  0  0  0  0
    5.2941    5.7574   22.7493 C   0  0  0  0  0  0  0  0  0  0  0  0
    5.1449    3.9772   21.0863 N   0  0  0  0  0  0  0  0  0  0  0  0
    4.5959    2.7866   21.6074 C   0  0  0  0  0  0  0  0  0  0  0  0
    3.6167    2.9023   22.4217 O   0  0  0  0  0  0  0  0  0  0  0  0
    5.9470    3.9045   20.4247 H   0  0  0  0  0  0  0  0  0  0  0  0
    5.1506    1.4727   21.2101 C   0  0  0  0  0  0  0  0  0  0  0  0
    6.6164    1.3361   21.6060 C   0  0  0  0  0  0  0  0  0  0  0  0
    5.0084    1.3922   19.7673 N   0  0  0  0  0  0  0  0  0  0  0  0
    3.8735    0.7513   19.2362 C   0  0  0  0  0  0  0  0  0  0  0  0
    2.9788    0.2402   19.9816 O   0  0  0  0  0  0  0  0  0  0  0  0
    5.7408    1.8019   19.1732 H   0  0  0  0  0  0  0  0  0  0  0  0
    3.6563    0.6358   17.7733 C   0  0  0  0  0  0  0  0  0  0  0  0
    2.4303   -0.1973   17.4386 C   0  0  0  0  0  0  0  0  0  0  0  0
    3.5193    2.0208   17.2264 C   0  0  0  0  0  0  0  0  0  0  0  0
    3.4008    2.1970   15.7716 C   0  0  0  0  0  0  0  0  0  0  0  0
    3.5105    2.9435   17.9952 O   0  0  0  0  0  0  0  0  0  0  0  0
    0.7007    5.4911   13.9266 C   0  0  0  0  0  0  0  0  0  0  0  0
   -0.3689    6.6544   13.9684 C   0  0  0  0  0  0  0  0  0  0  0  0
    0.4715    3.8681   12.0325 N   0  0  0  0  0  0  0  0  0  0  0  0
    0.8921    5.1184   12.5249 C   0  0  0  0  0  0  0  0  0  0  0  0
    1.4588    5.9978   11.7875 O   0  0  0  0  0  0  0  0  0  0  0  0
    0.0473    3.1797   12.6721 H   0  0  0  0  0  0  0  0  0  0  0  0
    0.6129    3.4992   10.6271 C   0  0  0  0  0  0  0  0  0  0  0  0
    0.9354    1.9854   10.5898 C   0  0  0  0  0  0  0  0  0  0  0  0
   -1.8303    3.0881    9.9760 N   0  0  0  0  0  0  0  0  0  0  0  0
   -0.6020    3.7538    9.8520 C   0  0  0  0  0  0  0  0  0  0  0  0
   -0.5170    4.6823    8.9767 O   0  0  0  0  0  0  0  0  0  0  0  0
   -1.9485    2.3159   10.6379 H   0  0  0  0  0  0  0  0  0  0  0  0
   -2.9903    3.5268    9.1100 C   0  0  0  0  0  0  0  0  0  0  0  0
   -4.0033    3.9997   10.0368 C   0  0  0  0  0  0  0  0  0  0  0  0
   -3.7664    3.7820   11.3041 O   0  0  0  0  0  0  0  0  0  0  0  0
   -5.2050    4.6817    9.7522 N   0  0  0  0  0  0  0  0  0  0  0  0
   -6.2343    5.0325   10.7466 C   0  0  0  0  0  0  0  0  0  0  0  0
   -6.2542    6.5586   10.5928 C   0  0  0  0  0  0  0  0  0  0  0  0
   -5.5569    6.8329    9.2577 C   0  0  0  0  0  0  0  0  0  0  0  0
   -5.5620    5.3907    8.5800 C   0  0  0  0  0  0  0  0  0  0  0  0
   -6.7780    5.2414    7.8713 C   0  0  0  0  0  0  0  0  0  0  0  0
   -7.1571    6.3783    7.2780 O   0  0  0  0  0  0  0  0  0  0  0  0
   -7.6815    4.2030    7.6369 N   0  0  0  0  0  0  0  0  0  0  0  0
   -7.6089    2.8174    8.0740 C   0  0  0  0  0  0  0  0  0  0  0  0
   -8.3854    2.0277    7.0705 C   0  0  0  0  0  0  0  0  0  0  0  0
   -9.1435    2.9973    6.2239 C   0  0  0  0  0  0  0  0  0  0  0  0
   -8.9274    4.3006    6.8887 C   0  0  0  0  0  0  0  0  0  0  0  0
   -9.6490    5.2969    6.8371 O   0  0  0  0  0  0  0  0  0  0  0  0
   -3.3958    2.2303    8.4166 C   0  0  0  0  0  0  0  0  0  0  0  0
   -2.5325   -0.0616    8.8945 C   0  0  0  0  0  0  0  0  0  0  0  0
   -3.5937    1.0084    9.1696 C   0  0  0  0  0  0  0  0  0  0  0  0
   -4.9357    0.4026    9.2867 C   0  0  0  0  0  0  0  0  0  0  0  0
 63 64  1  0  0  0
 64 65  1  0  0  0
 64 62  1  0  0  0
 62 46  1  0  0  0
 46 42  1  0  0  0
 42 43  1  0  0  0
 43 44  2  0  0  0
 43 40  1  0  0  0
 40 41  1  0  0  0
 40 36  1  0  0  0
 36 37  1  0  0  0
 37 38  2  0  0  0
 37 34  1  0  0  0
 34 35  1  0  0  0
 34  1  1  0  0  0
  1  2  1  0  0  0
  2  3  2  0  0  0
  2  5  1  0  0  0
  5  6  1  0  0  0
  5  7  1  0  0  0
  7  8  1  0  0  0
  8  9  2  0  0  0
  8 11  1  0  0  0
 11 12  1  0  0  0
 11 13  1  0  0  0
 13 14  1  0  0  0
 14 15  2  0  0  0
 14 17  1  0  0  0
 17 18  1  0  0  0
 17 19  1  0  0  0
 19 20  1  0  0  0
 20 21  2  0  0  0
 20 23  1  0  0  0
 23 24  1  0  0  0
 23 25  1  0  0  0
 25 26  1  0  0  0
 26 27  2  0  0  0
 26 29  1  0  0  0
 29 30  1  0  0  0
 29 31  1  0  0  0
 31 32  1  0  0  0
 31 33  2  0  0  0
 46 47  1  0  0  0
 47 48  2  0  0  0
 47 49  1  0  0  0
 49 50  1  0  0  0
 50 51  1  0  0  0
 51 52  1  0  0  0
 52 53  1  0  0  0
 53 54  1  0  0  0
 54 55  2  0  0  0
 54 56  1  0  0  0
 56 57  1  0  0  0
 57 58  1  0  0  0
 58 59  1  0  0  0
 59 60  1  0  0  0
 60 61  2  0  0  0
 53 49  1  0  0  0
 60 56  1  0  0  0
 42 45  1  0  0  0
 36 39  1  0  0  0
  1  4  1  0  0  0
  7 10  1  0  0  0
 13 16  1  0  0  0
 19 22  1  0  0  0
 25 28  1  0  0  0
M  END
> <minimizedAffinity>
-8.11320

> <CNNscore>
0.4172376096

> <CNNaffinity>
7.0772337914

> <CNN_VS>
2.9528880119

> <CNNaffinity_variance>
0.1482396126

$$$$
[H]N(C(=O)[C@]([H])(C(=O)C([H])([H])[H])C([H])([H])[H])[C@]([H])(C(=O)N([H])[C@]([H])(C(=O)N([H])[C@]([H])(C(=O)N([H])[C@]([H])(C(=O)N([H])[C@]([H])(C(=O)N([H])[C@]([H])(C(=O)N([H])[C@]([H])(C(=O)N1C([H])([H])C([H])([H])C([H])([H])[C@]1([H])C(=O)N1C(=O)C([H])([H])C([H])([H])C1([H])[H])C([H])([H])C([H])(C([H])([H])[H])C([H])([H])[H])C([H])([H])[H])C([H])([H])[H])C([H])([H])[H])C([H])([H])[H])C([H])([H])[H])C([H])([H])[H]


 65 66  0  0  0  0  0  0  0  0999 V2000
    3.5106    9.3172   16.2465 N   0  0  0  0  0  0  0  0  0  0  0  0
    3.2923    9.3149   14.8561 C   0  0  0  0  0  0  0  0  0  0  0  0
    3.4186   10.3397   14.1296 O   0  0  0  0  0  0  0  0  0  0  0  0
    3.3643    8.4294   16.7760 H   0  0  0  0  0  0  0  0  0  0  0  0
    2.8950    8.0729   14.1659 C   0  0  0  0  0  0  0  0  0  0  0  0
    3.0071    6.8899   15.1719 C   0  0  0  0  0  0  0  0  0  0  0  0
    3.8036    7.8258   13.0737 N   0  0  0  0  0  0  0  0  0  0  0  0
    3.2481    7.4012   11.8204 C   0  0  0  0  0  0  0  0  0  0  0  0
    1.9783    7.2766   11.7942 O   0  0  0  0  0  0  0  0  0  0  0  0
    4.8090    7.9426   13.1744 H   0  0  0  0  0  0  0  0  0  0  0  0
    4.0499    7.1213   10.6234 C   0  0  0  0  0  0  0  0  0  0  0  0
    5.5318    7.0000   10.9970 C   0  0  0  0  0  0  0  0  0  0  0  0
    3.8598    8.1754    9.6217 N   0  0  0  0  0  0  0  0  0  0  0  0
    2.9678    8.1203    8.5426 C   0  0  0  0  0  0  0  0  0  0  0  0
    2.2413    7.1100    8.3315 O   0  0  0  0  0  0  0  0  0  0  0  0
    4.4556    9.0597    9.7237 H   0  0  0  0  0  0  0  0  0  0  0  0
    2.8905    9.2860    7.6370 C   0  0  0  0  0  0  0  0  0  0  0  0
    1.4495    9.4121    7.1396 C   0  0  0  0  0  0  0  0  0  0  0  0
    3.7681    9.0304    6.4800 N   0  0  0  0  0  0  0  0  0  0  0  0
    5.1318    9.3893    6.5277 C   0  0  0  0  0  0  0  0  0  0  0  0
    5.5535    9.9408    7.6016 O   0  0  0  0  0  0  0  0  0  0  0  0
    3.4037    8.5841    5.6115 H   0  0  0  0  0  0  0  0  0  0  0  0
    6.0136    9.1263    5.3679 C   0  0  0  0  0  0  0  0  0  0  0  0
    7.0123   10.2573    5.1505 C   0  0  0  0  0  0  0  0  0  0  0  0
    5.1396    8.9969    4.2155 N   0  0  0  0  0  0  0  0  0  0  0  0
    5.0730    7.7555    3.5557 C   0  0  0  0  0  0  0  0  0  0  0  0
    5.7571    6.7534    3.9366 O   0  0  0  0  0  0  0  0  0  0  0  0
    4.5963    9.8150    3.9108 H   0  0  0  0  0  0  0  0  0  0  0  0
    4.1986    7.5454    2.3759 C   0  0  0  0  0  0  0  0  0  0  0  0
    4.5629    6.2859    1.6077 C   0  0  0  0  0  0  0  0  0  0  0  0
    2.7876    7.4756    2.8663 C   0  0  0  0  0  0  0  0  0  0  0  0
    1.7957    6.7474    2.0617 C   0  0  0  0  0  0  0  0  0  0  0  0
    2.5123    8.0173    3.9022 O   0  0  0  0  0  0  0  0  0  0  0  0
    3.9381   10.5071   16.9686 C   0  0  0  0  0  0  0  0  0  0  0  0
    2.7773   10.7985   18.0014 C   0  0  0  0  0  0  0  0  0  0  0  0
    6.4105   10.1373   17.1255 N   0  0  0  0  0  0  0  0  0  0  0  0
    5.1433   10.1943   17.7367 C   0  0  0  0  0  0  0  0  0  0  0  0
    4.9673    9.9815   18.9864 O   0  0  0  0  0  0  0  0  0  0  0  0
    6.4984   10.2857   16.1090 H   0  0  0  0  0  0  0  0  0  0  0  0
    7.6283    9.8725   17.8857 C   0  0  0  0  0  0  0  0  0  0  0  0
    7.8512   11.0897   18.8161 C   0  0  0  0  0  0  0  0  0  0  0  0
    7.4673    8.5836   20.0936 N   0  0  0  0  0  0  0  0  0  0  0  0
    7.5352    8.6565   18.6946 C   0  0  0  0  0  0  0  0  0  0  0  0
    7.5142    7.5568   18.0423 O   0  0  0  0  0  0  0  0  0  0  0  0
    7.5112    9.4289   20.6697 H   0  0  0  0  0  0  0  0  0  0  0  0
    7.3295    7.2274   20.7493 C   0  0  0  0  0  0  0  0  0  0  0  0
    5.9008    7.0232   20.9110 C   0  0  0  0  0  0  0  0  0  0  0  0
    5.2608    7.9522   21.5718 O   0  0  0  0  0  0  0  0  0  0  0  0
    5.1054    5.9610   20.4325 N   0  0  0  0  0  0  0  0  0  0  0  0
    3.6752    5.7730   20.7336 C   0  0  0  0  0  0  0  0  0  0  0  0
    3.0905    5.8061   19.3159 C   0  0  0  0  0  0  0  0  0  0  0  0
    4.2869    5.5836   18.3869 C   0  0  0  0  0  0  0  0  0  0  0  0
    5.3926    5.0391   19.3971 C   0  0  0  0  0  0  0  0  0  0  0  0
    5.2508    3.6339   19.4894 C   0  0  0  0  0  0  0  0  0  0  0  0
    4.8013    3.0978   18.3498 O   0  0  0  0  0  0  0  0  0  0  0  0
    5.4631    2.6668   20.4739 N   0  0  0  0  0  0  0  0  0  0  0  0
    5.9771    2.8398   21.8238 C   0  0  0  0  0  0  0  0  0  0  0  0
    6.6120    1.5381   22.1927 C   0  0  0  0  0  0  0  0  0  0  0  0
    6.2042    0.5318   21.1667 C   0  0  0  0  0  0  0  0  0  0  0  0
    5.1962    1.2404   20.3489 C   0  0  0  0  0  0  0  0  0  0  0  0
    4.2904    0.7431   19.6793 O   0  0  0  0  0  0  0  0  0  0  0  0
    8.0430    7.4289   22.0821 C   0  0  0  0  0  0  0  0  0  0  0  0
   10.3187    8.4322   21.8795 C   0  0  0  0  0  0  0  0  0  0  0  0
    8.8622    8.5993   22.3236 C   0  0  0  0  0  0  0  0  0  0  0  0
    8.7821    9.3249   23.6077 C   0  0  0  0  0  0  0  0  0  0  0  0
 63 64  1  0  0  0
 64 65  1  0  0  0
 64 62  1  0  0  0
 62 46  1  0  0  0
 46 42  1  0  0  0
 42 43  1  0  0  0
 43 44  2  0  0  0
 43 40  1  0  0  0
 40 41  1  0  0  0
 40 36  1  0  0  0
 36 37  1  0  0  0
 37 38  2  0  0  0
 37 34  1  0  0  0
 34 35  1  0  0  0
 34  1  1  0  0  0
  1  2  1  0  0  0
  2  3  2  0  0  0
  2  5  1  0  0  0
  5  6  1  0  0  0
  5  7  1  0  0  0
  7  8  1  0  0  0
  8  9  2  0  0  0
  8 11  1  0  0  0
 11 12  1  0  0  0
 11 13  1  0  0  0
 13 14  1  0  0  0
 14 15  2  0  0  0
 14 17  1  0  0  0
 17 18  1  0  0  0
 17 19  1  0  0  0
 19 20  1  0  0  0
 20 21  2  0  0  0
 20 23  1  0  0  0
 23 24  1  0  0  0
 23 25  1  0  0  0
 25 26  1  0  0  0
 26 27  2  0  0  0
 26 29  1  0  0  0
 29 30  1  0  0  0
 29 31  1  0  0  0
 31 32  1  0  0  0
 31 33  2  0  0  0
 46 47  1  0  0  0
 47 48  2  0  0  0
 47 49  1  0  0  0
 49 50  1  0  0  0
 50 51  1  0  0  0
 51 52  1  0  0  0
 52 53  1  0  0  0
 53 54  1  0  0  0
 54 55  2  0  0  0
 54 56  1  0  0  0
 56 57  1  0  0  0
 57 58  1  0  0  0
 58 59  1  0  0  0
 59 60  1  0  0  0
 60 61  2  0  0  0
 53 49  1  0  0  0
 60 56  1  0  0  0
 42 45  1  0  0  0
 36 39  1  0  0  0
  1  4  1  0  0  0
  7 10  1  0  0  0
 13 16  1  0  0  0
 19 22  1  0  0  0
 25 28  1  0  0  0
M  END
> <minimizedAffinity>
-7.69690

> <CNNscore>
0.3721541464

> <CNNaffinity>
6.3276357651

> <CNN_VS>
2.3548557758

> <CNNaffinity_variance>
0.5246341228

$$$$
[H]N(C(=O)[C@]([H])(C(=O)C([H])([H])[H])C([H])([H])[H])[C@]([H])(C(=O)N([H])[C@]([H])(C(=O)N([H])[C@]([H])(C(=O)N([H])[C@]([H])(C(=O)N([H])[C@]([H])(C(=O)N([H])[C@]([H])(C(=O)N([H])[C@]([H])(C(=O)N1C([H])([H])C([H])([H])C([H])([H])[C@]1([H])C(=O)N1C(=O)C([H])([H])C([H])([H])C1([H])[H])C([H])([H])C([H])(C([H])([H])[H])C([H])([H])[H])C([H])([H])[H])C([H])([H])[H])C([H])([H])[H])C([H])([H])[H])C([H])([H])[H])C([H])([H])[H]


 65 66  0  0  0  0  0  0  0  0999 V2000
    3.9137    3.0028   18.2820 N   0  0  0  0  0  0  0  0  0  0  0  0
    4.0956    1.6457   18.6075 C   0  0  0  0  0  0  0  0  0  0  0  0
    4.1260    0.7214   17.7481 O   0  0  0  0  0  0  0  0  0  0  0  0
    3.8810    3.7018   19.0568 H   0  0  0  0  0  0  0  0  0  0  0  0
    4.2656    1.2327   20.0137 C   0  0  0  0  0  0  0  0  0  0  0  0
    3.0945    0.2803   20.3950 C   0  0  0  0  0  0  0  0  0  0  0  0
    4.1963    2.3971   20.8616 N   0  0  0  0  0  0  0  0  0  0  0  0
    5.2427    2.5904   21.8245 C   0  0  0  0  0  0  0  0  0  0  0  0
    6.1496    1.6927   21.8408 O   0  0  0  0  0  0  0  0  0  0  0  0
    3.4347    3.0677   20.7921 H   0  0  0  0  0  0  0  0  0  0  0  0
    5.3059    3.7311   22.7458 C   0  0  0  0  0  0  0  0  0  0  0  0
    3.9286    4.3947   22.8596 C   0  0  0  0  0  0  0  0  0  0  0  0
    6.3054    4.7027   22.2900 N   0  0  0  0  0  0  0  0  0  0  0  0
    6.3188    5.3282   21.0363 C   0  0  0  0  0  0  0  0  0  0  0  0
    5.4445    5.0803   20.1604 O   0  0  0  0  0  0  0  0  0  0  0  0
    7.0919    4.9517   22.9732 H   0  0  0  0  0  0  0  0  0  0  0  0
    7.3945    6.3006   20.7496 C   0  0  0  0  0  0  0  0  0  0  0  0
    8.3009    6.3892   21.9785 C   0  0  0  0  0  0  0  0  0  0  0  0
    6.7756    7.6198   20.5239 N   0  0  0  0  0  0  0  0  0  0  0  0
    6.0903    8.2733   21.5698 C   0  0  0  0  0  0  0  0  0  0  0  0
    6.0316    7.6703   22.6960 O   0  0  0  0  0  0  0  0  0  0  0  0
    6.8304    8.0926   19.5966 H   0  0  0  0  0  0  0  0  0  0  0  0
    5.4749    9.6007   21.3438 C   0  0  0  0  0  0  0  0  0  0  0  0
    4.5763    9.6038   20.1124 C   0  0  0  0  0  0  0  0  0  0  0  0
    6.5745   10.5325   21.1680 N   0  0  0  0  0  0  0  0  0  0  0  0
    7.1976   11.0642   22.3125 C   0  0  0  0  0  0  0  0  0  0  0  0
    6.8219   10.7558   23.4877 O   0  0  0  0  0  0  0  0  0  0  0  0
    6.8659   10.7813   20.2138 H   0  0  0  0  0  0  0  0  0  0  0  0
    8.3307   12.0163   22.2123 C   0  0  0  0  0  0  0  0  0  0  0  0
    8.7712   12.5303   23.5728 C   0  0  0  0  0  0  0  0  0  0  0  0
    9.4551   11.3094   21.5251 C   0  0  0  0  0  0  0  0  0  0  0  0
   10.5243   12.1116   20.9129 C   0  0  0  0  0  0  0  0  0  0  0  0
    9.4466   10.1088   21.4968 O   0  0  0  0  0  0  0  0  0  0  0  0
    3.7773    3.4656   16.9082 C   0  0  0  0  0  0  0  0  0  0  0  0
    2.3958    2.8776   16.4133 C   0  0  0  0  0  0  0  0  0  0  0  0
    4.7665    5.7471   16.6080 N   0  0  0  0  0  0  0  0  0  0  0  0
    3.6628    4.9240   16.9030 C   0  0  0  0  0  0  0  0  0  0  0  0
    2.5041    5.3924   17.1792 O   0  0  0  0  0  0  0  0  0  0  0  0
    5.6882    5.3244   16.4219 H   0  0  0  0  0  0  0  0  0  0  0  0
    4.6579    7.2019   16.5531 C   0  0  0  0  0  0  0  0  0  0  0  0
    6.0349    7.7718   16.9726 C   0  0  0  0  0  0  0  0  0  0  0  0
    4.8519    7.2441   13.9991 N   0  0  0  0  0  0  0  0  0  0  0  0
    4.3188    7.6922   15.2165 C   0  0  0  0  0  0  0  0  0  0  0  0
    3.4444    8.6244   15.1732 O   0  0  0  0  0  0  0  0  0  0  0  0
    5.5774    6.5221   13.9736 H   0  0  0  0  0  0  0  0  0  0  0  0
    4.3395    7.8478   12.7102 C   0  0  0  0  0  0  0  0  0  0  0  0
    3.8952    6.7210   11.9092 C   0  0  0  0  0  0  0  0  0  0  0  0
    4.2070    5.5359   12.3651 O   0  0  0  0  0  0  0  0  0  0  0  0
    3.1532    6.7340   10.7095 N   0  0  0  0  0  0  0  0  0  0  0  0
    2.8346    5.5453    9.8990 C   0  0  0  0  0  0  0  0  0  0  0  0
    1.3018    5.6003    9.9237 C   0  0  0  0  0  0  0  0  0  0  0  0
    0.9621    7.0232   10.3751 C   0  0  0  0  0  0  0  0  0  0  0  0
    2.3537    7.7738   10.1765 C   0  0  0  0  0  0  0  0  0  0  0  0
    2.4110    8.2501    8.8450 C   0  0  0  0  0  0  0  0  0  0  0  0
    1.1934    8.4440    8.3273 O   0  0  0  0  0  0  0  0  0  0  0  0
    3.4221    8.5682    7.9360 N   0  0  0  0  0  0  0  0  0  0  0  0
    4.8636    8.5280    8.1273 C   0  0  0  0  0  0  0  0  0  0  0  0
    5.4331    9.5339    7.1800 C   0  0  0  0  0  0  0  0  0  0  0  0
    4.3418    9.9381    6.2434 C   0  0  0  0  0  0  0  0  0  0  0  0
    3.2335    9.0122    6.5617 C   0  0  0  0  0  0  0  0  0  0  0  0
    2.3121    8.6642    5.8227 O   0  0  0  0  0  0  0  0  0  0  0  0
    5.5861    8.5138   12.1369 C   0  0  0  0  0  0  0  0  0  0  0  0
    8.0365    8.5257   12.6075 C   0  0  0  0  0  0  0  0  0  0  0  0
    6.8334    7.7872   12.0127 C   0  0  0  0  0  0  0  0  0  0  0  0
    7.1967    7.1223   10.7447 C   0  0  0  0  0  0  0  0  0  0  0  0
 63 64  1  0  0  0
 64 65  1  0  0  0
 64 62  1  0  0  0
 62 46  1  0  0  0
 46 42  1  0  0  0
 42 43  1  0  0  0
 43 44  2  0  0  0
 43 40  1  0  0  0
 40 41  1  0  0  0
 40 36  1  0  0  0
 36 37  1  0  0  0
 37 38  2  0  0  0
 37 34  1  0  0  0
 34 35  1  0  0  0
 34  1  1  0  0  0
  1  2  1  0  0  0
  2  3  2  0  0  0
  2  5  1  0  0  0
  5  6  1  0  0  0
  5  7  1  0  0  0
  7  8  1  0  0  0
  8  9  2  0  0  0
  8 11  1  0  0  0
 11 12  1  0  0  0
 11 13  1  0  0  0
 13 14  1  0  0  0
 14 15  2  0  0  0
 14 17  1  0  0  0
 17 18  1  0  0  0
 17 19  1  0  0  0
 19 20  1  0  0  0
 20 21  2  0  0  0
 20 23  1  0  0  0
 23 24  1  0  0  0
 23 25  1  0  0  0
 25 26  1  0  0  0
 26 27  2  0  0  0
 26 29  1  0  0  0
 29 30  1  0  0  0
 29 31  1  0  0  0
 31 32  1  0  0  0
 31 33  2  0  0  0
 46 47  1  0  0  0
 47 48  2  0  0  0
 47 49  1  0  0  0
 49 50  1  0  0  0
 50 51  1  0  0  0
 51 52  1  0  0  0
 52 53  1  0  0  0
 53 54  1  0  0  0
 54 55  2  0  0  0
 54 56  1  0  0  0
 56 57  1  0  0  0
 57 58  1  0  0  0
 58 59  1  0  0  0
 59 60  1  0  0  0
 60 61  2  0  0  0
 53 49  1  0  0  0
 60 56  1  0  0  0
 42 45  1  0  0  0
 36 39  1  0  0  0
  1  4  1  0  0  0
  7 10  1  0  0  0
 13 16  1  0  0  0
 19 22  1  0  0  0
 25 28  1  0  0  0
M  END
> <minimizedAffinity>
-8.13474

> <CNNscore>
0.2858655751

> <CNNaffinity>
6.9052276611

> <CNN_VS>
1.9739668369

> <CNNaffinity_variance>
0.3558853269

$$$$
[H]N(C(=O)[C@]([H])(C(=O)C([H])([H])[H])C([H])([H])[H])[C@]([H])(C(=O)N([H])[C@]([H])(C(=O)N([H])[C@]([H])(C(=O)N([H])[C@]([H])(C(=O)N([H])[C@]([H])(C(=O)N([H])[C@]([H])(C(=O)N([H])[C@]([H])(C(=O)N1C([H])([H])C([H])([H])C([H])([H])[C@]1([H])C(=O)N1C(=O)C([H])([H])C([H])([H])C1([H])[H])C([H])([H])C([H])(C([H])([H])[H])C([H])([H])[H])C([H])([H])[H])C([H])([H])[H])C([H])([H])[H])C([H])([H])[H])C([H])([H])[H])C([H])([H])[H]


 65 66  0  0  0  0  0  0  0  0999 V2000
    5.0107    7.5824   13.3930 N   0  0  0  0  0  0  0  0  0  0  0  0
    6.0673    8.3200   12.8269 C   0  0  0  0  0  0  0  0  0  0  0  0
    6.5308    9.3772   13.3382 O   0  0  0  0  0  0  0  0  0  0  0  0
    4.6743    6.7293   12.8940 H   0  0  0  0  0  0  0  0  0  0  0  0
    6.6996    7.8730   11.5712 C   0  0  0  0  0  0  0  0  0  0  0  0
    8.2377    8.0835   11.6891 C   0  0  0  0  0  0  0  0  0  0  0  0
    6.2142    8.6828   10.4812 N   0  0  0  0  0  0  0  0  0  0  0  0
    5.5900    8.0157    9.3745 C   0  0  0  0  0  0  0  0  0  0  0  0
    5.5272    6.7441    9.4615 O   0  0  0  0  0  0  0  0  0  0  0  0
    6.3064    9.6958   10.4821 H   0  0  0  0  0  0  0  0  0  0  0  0
    5.0441    8.7109    8.2028 C   0  0  0  0  0  0  0  0  0  0  0  0
    3.6240    8.2142    7.9083 C   0  0  0  0  0  0  0  0  0  0  0  0
    5.9095    8.5062    7.0367 N   0  0  0  0  0  0  0  0  0  0  0  0
    6.1601    9.4522    6.0340 C   0  0  0  0  0  0  0  0  0  0  0  0
    5.6244   10.5950    6.0493 O   0  0  0  0  0  0  0  0  0  0  0  0
    6.3872    7.5519    6.9441 H   0  0  0  0  0  0  0  0  0  0  0  0
    7.0782    9.0832    4.9359 C   0  0  0  0  0  0  0  0  0  0  0  0
    6.3855    8.0351    4.0634 C   0  0  0  0  0  0  0  0  0  0  0  0
    8.2866    8.4802    5.5278 N   0  0  0  0  0  0  0  0  0  0  0  0
    9.5649    8.8163    5.0344 C   0  0  0  0  0  0  0  0  0  0  0  0
    9.6166    9.6483    4.0647 O   0  0  0  0  0  0  0  0  0  0  0  0
    8.2228    7.7998    6.3148 H   0  0  0  0  0  0  0  0  0  0  0  0
   10.7778    8.2151    5.6337 C   0  0  0  0  0  0  0  0  0  0  0  0
   11.7891    7.8047    4.5693 C   0  0  0  0  0  0  0  0  0  0  0  0
   10.3284    7.0519    6.3774 N   0  0  0  0  0  0  0  0  0  0  0  0
   10.8778    6.8119    7.6509 C   0  0  0  0  0  0  0  0  0  0  0  0
   11.7547    7.5788    8.1608 O   0  0  0  0  0  0  0  0  0  0  0  0
    9.6246    6.4337    5.9534 H   0  0  0  0  0  0  0  0  0  0  0  0
   10.4636    5.6481    8.4721 C   0  0  0  0  0  0  0  0  0  0  0  0
    8.9528    5.5407    8.5957 C   0  0  0  0  0  0  0  0  0  0  0  0
   11.0300    4.4203    7.8335 C   0  0  0  0  0  0  0  0  0  0  0  0
   12.2279    3.8057    8.4241 C   0  0  0  0  0  0  0  0  0  0  0  0
   10.4864    3.9772    6.8585 O   0  0  0  0  0  0  0  0  0  0  0  0
    4.3774    7.9613   14.6481 C   0  0  0  0  0  0  0  0  0  0  0  0
    3.1244    8.8294   14.2289 C   0  0  0  0  0  0  0  0  0  0  0  0
    4.6502    6.0736   16.2718 N   0  0  0  0  0  0  0  0  0  0  0  0
    3.8775    6.7588   15.3147 C   0  0  0  0  0  0  0  0  0  0  0  0
    2.7035    6.3803   14.9731 O   0  0  0  0  0  0  0  0  0  0  0  0
    5.6035    6.3990   16.4918 H   0  0  0  0  0  0  0  0  0  0  0  0
    4.1481    4.8998   16.9797 C   0  0  0  0  0  0  0  0  0  0  0  0
    5.1425    3.7465   16.7000 C   0  0  0  0  0  0  0  0  0  0  0  0
    5.1095    5.1615   19.3397 N   0  0  0  0  0  0  0  0  0  0  0  0
    4.0480    5.1121   18.4242 C   0  0  0  0  0  0  0  0  0  0  0  0
    2.8637    5.2671   18.8812 O   0  0  0  0  0  0  0  0  0  0  0  0
    6.0762    5.0133   19.0366 H   0  0  0  0  0  0  0  0  0  0  0  0
    4.8067    5.4366   20.7960 C   0  0  0  0  0  0  0  0  0  0  0  0
    5.7366    6.4800   21.1904 C   0  0  0  0  0  0  0  0  0  0  0  0
    6.1246    6.4593   22.4388 O   0  0  0  0  0  0  0  0  0  0  0  0
    6.2934    7.5060   20.3984 N   0  0  0  0  0  0  0  0  0  0  0  0
    7.1491    8.5942   20.9032 C   0  0  0  0  0  0  0  0  0  0  0  0
    8.4189    8.3487   20.0784 C   0  0  0  0  0  0  0  0  0  0  0  0
    7.9772    7.4378   18.9299 C   0  0  0  0  0  0  0  0  0  0  0  0
    6.3910    7.5788   18.9879 C   0  0  0  0  0  0  0  0  0  0  0  0
    6.0188    8.6926   18.1979 C   0  0  0  0  0  0  0  0  0  0  0  0
    6.8117    8.8402   17.1312 O   0  0  0  0  0  0  0  0  0  0  0  0
    5.0298    9.6767   18.2541 N   0  0  0  0  0  0  0  0  0  0  0  0
    3.9620    9.8393   19.2286 C   0  0  0  0  0  0  0  0  0  0  0  0
    2.8622   10.5598   18.5181 C   0  0  0  0  0  0  0  0  0  0  0  0
    3.4163   11.0651   17.2261 C   0  0  0  0  0  0  0  0  0  0  0  0
    4.8650   10.7835   17.3217 C   0  0  0  0  0  0  0  0  0  0  0  0
    5.7809   11.3609   16.7353 O   0  0  0  0  0  0  0  0  0  0  0  0
    5.1184    4.0986   21.4583 C   0  0  0  0  0  0  0  0  0  0  0  0
    3.6606    4.0196   23.4819 C   0  0  0  0  0  0  0  0  0  0  0  0
    4.0959    3.3590   22.1701 C   0  0  0  0  0  0  0  0  0  0  0  0
    4.1939    1.8933   22.3246 C   0  0  0  0  0  0  0  0  0  0  0  0
 63 64  1  0  0  0
 64 65  1  0  0  0
 64 62  1  0  0  0
 62 46  1  0  0  0
 46 42  1  0  0  0
 42 43  1  0  0  0
 43 44  2  0  0  0
 43 40  1  0  0  0
 40 41  1  0  0  0
 40 36  1  0  0  0
 36 37  1  0  0  0
 37 38  2  0  0  0
 37 34  1  0  0  0
 34 35  1  0  0  0
 34  1  1  0  0  0
  1  2  1  0  0  0
  2  3  2  0  0  0
  2  5  1  0  0  0
  5  6  1  0  0  0
  5  7  1  0  0  0
  7  8  1  0  0  0
  8  9  2  0  0  0
  8 11  1  0  0  0
 11 12  1  0  0  0
 11 13  1  0  0  0
 13 14  1  0  0  0
 14 15  2  0  0  0
 14 17  1  0  0  0
 17 18  1  0  0  0
 17 19  1  0  0  0
 19 20  1  0  0  0
 20 21  2  0  0  0
 20 23  1  0  0  0
 23 24  1  0  0  0
 23 25  1  0  0  0
 25 26  1  0  0  0
 26 27  2  0  0  0
 26 29  1  0  0  0
 29 30  1  0  0  0
 29 31  1  0  0  0
 31 32  1  0  0  0
 31 33  2  0  0  0
 46 47  1  0  0  0
 47 48  2  0  0  0
 47 49  1  0  0  0
 49 50  1  0  0  0
 50 51  1  0  0  0
 51 52  1  0  0  0
 52 53  1  0  0  0
 53 54  1  0  0  0
 54 55  2  0  0  0
 54 56  1  0  0  0
 56 57  1  0  0  0
 57 58  1  0  0  0
 58 59  1  0  0  0
 59 60  1  0  0  0
 60 61  2  0  0  0
 53 49  1  0  0  0
 60 56  1  0  0  0
 42 45  1  0  0  0
 36 39  1  0  0  0
  1  4  1  0  0  0
  7 10  1  0  0  0
 13 16  1  0  0  0
 19 22  1  0  0  0
 25 28  1  0  0  0
M  END
> <minimizedAffinity>
-8.98224

> <CNNscore>
0.2687153518

> <CNNaffinity>
6.7912406921

> <CNN_VS>
1.8249106407

> <CNNaffinity_variance>
0.2803491950

$$$$
[H]N(C(=O)[C@]([H])(C(=O)C([H])([H])[H])C([H])([H])[H])[C@]([H])(C(=O)N([H])[C@]([H])(C(=O)N([H])[C@]([H])(C(=O)N([H])[C@]([H])(C(=O)N([H])[C@]([H])(C(=O)N([H])[C@]([H])(C(=O)N([H])[C@]([H])(C(=O)N1C([H])([H])C([H])([H])C([H])([H])[C@]1([H])C(=O)N1C(=O)C([H])([H])C([H])([H])C1([H])[H])C([H])([H])C([H])(C([H])([H])[H])C([H])([H])[H])C([H])([H])[H])C([H])([H])[H])C([H])([H])[H])C([H])([H])[H])C([H])([H])[H])C([H])([H])[H]


 65 66  0  0  0  0  0  0  0  0999 V2000
    4.0275    3.3257   18.3079 N   0  0  0  0  0  0  0  0  0  0  0  0
    4.2419    1.9465   18.4886 C   0  0  0  0  0  0  0  0  0  0  0  0
    4.2462    1.1124   17.5409 O   0  0  0  0  0  0  0  0  0  0  0  0
    4.0201    3.9440   19.1491 H   0  0  0  0  0  0  0  0  0  0  0  0
    4.4803    1.3997   19.8380 C   0  0  0  0  0  0  0  0  0  0  0  0
    3.3452    0.3870   20.1694 C   0  0  0  0  0  0  0  0  0  0  0  0
    4.4254    2.4720   20.8007 N   0  0  0  0  0  0  0  0  0  0  0  0
    5.5241    2.6127   21.7132 C   0  0  0  0  0  0  0  0  0  0  0  0
    6.4606    1.7554   21.5848 O   0  0  0  0  0  0  0  0  0  0  0  0
    3.6382    3.1146   20.8447 H   0  0  0  0  0  0  0  0  0  0  0  0
    5.6069    3.6597   22.7383 C   0  0  0  0  0  0  0  0  0  0  0  0
    4.2253    4.2827   22.9694 C   0  0  0  0  0  0  0  0  0  0  0  0
    6.5723    4.6898   22.3415 N   0  0  0  0  0  0  0  0  0  0  0  0
    6.5717    5.3779   21.1210 C   0  0  0  0  0  0  0  0  0  0  0  0
    5.7142    5.1420   20.2253 O   0  0  0  0  0  0  0  0  0  0  0  0
    7.3436    4.9333   23.0439 H   0  0  0  0  0  0  0  0  0  0  0  0
    7.6119    6.4032   20.8938 C   0  0  0  0  0  0  0  0  0  0  0  0
    8.4564    6.5192   22.1638 C   0  0  0  0  0  0  0  0  0  0  0  0
    6.9421    7.6945   20.6531 N   0  0  0  0  0  0  0  0  0  0  0  0
    6.1819    8.3035   21.6738 C   0  0  0  0  0  0  0  0  0  0  0  0
    6.1026    7.6859   22.7907 O   0  0  0  0  0  0  0  0  0  0  0  0
    7.0149    8.1797   19.7335 H   0  0  0  0  0  0  0  0  0  0  0  0
    5.5150    9.6032   21.4331 C   0  0  0  0  0  0  0  0  0  0  0  0
    4.5852    9.5455   20.2265 C   0  0  0  0  0  0  0  0  0  0  0  0
    6.5767   10.5674   21.2060 N   0  0  0  0  0  0  0  0  0  0  0  0
    7.2118   11.1464   22.3206 C   0  0  0  0  0  0  0  0  0  0  0  0
    6.8789   10.8530   23.5124 O   0  0  0  0  0  0  0  0  0  0  0  0
    6.8334   10.8036   20.2387 H   0  0  0  0  0  0  0  0  0  0  0  0
    8.3082   12.1338   22.1676 C   0  0  0  0  0  0  0  0  0  0  0  0
    8.7675   12.6940   23.5034 C   0  0  0  0  0  0  0  0  0  0  0  0
    9.4374   11.4495   21.4654 C   0  0  0  0  0  0  0  0  0  0  0  0
   10.4786   12.2730   20.8335 C   0  0  0  0  0  0  0  0  0  0  0  0
    9.4554   10.2489   21.4414 O   0  0  0  0  0  0  0  0  0  0  0  0
    3.8234    3.9195   16.9941 C   0  0  0  0  0  0  0  0  0  0  0  0
    2.3328    3.5600   16.6094 C   0  0  0  0  0  0  0  0  0  0  0  0
    4.7566    6.1287   16.2712 N   0  0  0  0  0  0  0  0  0  0  0  0
    3.9105    5.3754   17.1076 C   0  0  0  0  0  0  0  0  0  0  0  0
    3.1719    5.9089   18.0064 O   0  0  0  0  0  0  0  0  0  0  0  0
    5.3565    5.6512   15.5820 H   0  0  0  0  0  0  0  0  0  0  0  0
    4.8204    7.5855   16.3401 C   0  0  0  0  0  0  0  0  0  0  0  0
    6.1381    7.9439   17.0698 C   0  0  0  0  0  0  0  0  0  0  0  0
    5.2479    7.6390   13.8149 N   0  0  0  0  0  0  0  0  0  0  0  0
    4.8136    8.2137   15.0184 C   0  0  0  0  0  0  0  0  0  0  0  0
    4.3613    9.4091   14.9748 O   0  0  0  0  0  0  0  0  0  0  0  0
    5.6481    6.6968   13.7933 H   0  0  0  0  0  0  0  0  0  0  0  0
    5.1195    8.4362   12.5358 C   0  0  0  0  0  0  0  0  0  0  0  0
    4.8980    7.4518   11.4913 C   0  0  0  0  0  0  0  0  0  0  0  0
    5.5419    7.6510   10.3709 O   0  0  0  0  0  0  0  0  0  0  0  0
    4.0917    6.2950   11.5308 N   0  0  0  0  0  0  0  0  0  0  0  0
    3.8357    5.4029   10.3863 C   0  0  0  0  0  0  0  0  0  0  0  0
    4.3836    4.0819   10.9412 C   0  0  0  0  0  0  0  0  0  0  0  0
    4.4848    4.2973   12.4535 C   0  0  0  0  0  0  0  0  0  0  0  0
    3.5948    5.6028   12.6615 C   0  0  0  0  0  0  0  0  0  0  0  0
    2.2522    5.1954   12.8471 C   0  0  0  0  0  0  0  0  0  0  0  0
    2.1670    3.9761   13.3896 O   0  0  0  0  0  0  0  0  0  0  0  0
    0.9933    5.7489   12.6051 N   0  0  0  0  0  0  0  0  0  0  0  0
    0.6637    7.0582   12.0635 C   0  0  0  0  0  0  0  0  0  0  0  0
   -0.6858    7.4008   12.6069 C   0  0  0  0  0  0  0  0  0  0  0  0
   -1.2506    6.1625   13.2225 C   0  0  0  0  0  0  0  0  0  0  0  0
   -0.2899    5.1032   12.8456 C   0  0  0  0  0  0  0  0  0  0  0  0
   -0.5073    3.8954   12.7455 O   0  0  0  0  0  0  0  0  0  0  0  0
    6.4849    9.1063   12.4238 C   0  0  0  0  0  0  0  0  0  0  0  0
    8.3815    8.9590   14.0386 C   0  0  0  0  0  0  0  0  0  0  0  0
    7.6974    8.4010   12.7867 C   0  0  0  0  0  0  0  0  0  0  0  0
    8.6940    8.0350   11.7598 C   0  0  0  0  0  0  0  0  0  0  0  0
 63 64  1  0  0  0
 64 65  1  0  0  0
 64 62  1  0  0  0
 62 46  1  0  0  0
 46 42  1  0  0  0
 42 43  1  0  0  0
 43 44  2  0  0  0
 43 40  1  0  0  0
 40 41  1  0  0  0
 40 36  1  0  0  0
 36 37  1  0  0  0
 37 38  2  0  0  0
 37 34  1  0  0  0
 34 35  1  0  0  0
 34  1  1  0  0  0
  1  2  1  0  0  0
  2  3  2  0  0  0
  2  5  1  0  0  0
  5  6  1  0  0  0
  5  7  1  0  0  0
  7  8  1  0  0  0
  8  9  2  0  0  0
  8 11  1  0  0  0
 11 12  1  0  0  0
 11 13  1  0  0  0
 13 14  1  0  0  0
 14 15  2  0  0  0
 14 17  1  0  0  0
 17 18  1  0  0  0
 17 19  1  0  0  0
 19 20  1  0  0  0
 20 21  2  0  0  0
 20 23  1  0  0  0
 23 24  1  0  0  0
 23 25  1  0  0  0
 25 26  1  0  0  0
 26 27  2  0  0  0
 26 29  1  0  0  0
 29 30  1  0  0  0
 29 31  1  0  0  0
 31 32  1  0  0  0
 31 33  2  0  0  0
 46 47  1  0  0  0
 47 48  2  0  0  0
 47 49  1  0  0  0
 49 50  1  0  0  0
 50 51  1  0  0  0
 51 52  1  0  0  0
 52 53  1  0  0  0
 53 54  1  0  0  0
 54 55  2  0  0  0
 54 56  1  0  0  0
 56 57  1  0  0  0
 57 58  1  0  0  0
 58 59  1  0  0  0
 59 60  1  0  0  0
 60 61  2  0  0  0
 53 49  1  0  0  0
 60 56  1  0  0  0
 42 45  1  0  0  0
 36 39  1  0  0  0
  1  4  1  0  0  0
  7 10  1  0  0  0
 13 16  1  0  0  0
 19 22  1  0  0  0
 25 28  1  0  0  0
M  END
> <minimizedAffinity>
-8.03959

> <CNNscore>
0.2506108284

> <CNNaffinity>
7.2707662582

> <CNN_VS>
1.8221327066

> <CNNaffinity_variance>
0.4953007102

$$$$
[H]N(C(=O)[C@]([H])(C(=O)C([H])([H])[H])C([H])([H])[H])[C@]([H])(C(=O)N([H])[C@]([H])(C(=O)N([H])[C@]([H])(C(=O)N([H])[C@]([H])(C(=O)N([H])[C@]([H])(C(=O)N([H])[C@]([H])(C(=O)N([H])[C@]([H])(C(=O)N1C([H])([H])C([H])([H])C([H])([H])[C@]1([H])C(=O)N1C(=O)C([H])([H])C([H])([H])C1([H])[H])C([H])([H])C([H])(C([H])([H])[H])C([H])([H])[H])C([H])([H])[H])C([H])([H])[H])C([H])([H])[H])C([H])([H])[H])C([H])([H])[H])C([H])([H])[H]


 65 66  0  0  0  0  0  0  0  0999 V2000
    2.7180    6.1589   13.6067 N   0  0  0  0  0  0  0  0  0  0  0  0
    3.1087    7.1817   14.4910 C   0  0  0  0  0  0  0  0  0  0  0  0
    2.8801    8.4060   14.2843 O   0  0  0  0  0  0  0  0  0  0  0  0
    2.9646    5.1727   13.8443 H   0  0  0  0  0  0  0  0  0  0  0  0
    3.8242    6.8550   15.7392 C   0  0  0  0  0  0  0  0  0  0  0  0
    5.0285    7.8302   15.8893 C   0  0  0  0  0  0  0  0  0  0  0  0
    4.3385    5.5106   15.6530 N   0  0  0  0  0  0  0  0  0  0  0  0
    3.5100    4.4420   16.1341 C   0  0  0  0  0  0  0  0  0  0  0  0
    2.3769    4.7922   16.6052 O   0  0  0  0  0  0  0  0  0  0  0  0
    5.2585    5.3110   15.2678 H   0  0  0  0  0  0  0  0  0  0  0  0
    3.8995    3.0273   16.1023 C   0  0  0  0  0  0  0  0  0  0  0  0
    2.8425    2.2053   15.3558 C   0  0  0  0  0  0  0  0  0  0  0  0
    4.0777    2.5146   17.4647 N   0  0  0  0  0  0  0  0  0  0  0  0
    4.9084    3.0768   18.4429 C   0  0  0  0  0  0  0  0  0  0  0  0
    5.6092    4.1008   18.2115 O   0  0  0  0  0  0  0  0  0  0  0  0
    3.5279    1.6349   17.7316 H   0  0  0  0  0  0  0  0  0  0  0  0
    4.9531    2.4388   19.7756 C   0  0  0  0  0  0  0  0  0  0  0  0
    4.0863    1.1792   19.7336 C   0  0  0  0  0  0  0  0  0  0  0  0
    4.3752    3.3766   20.7557 N   0  0  0  0  0  0  0  0  0  0  0  0
    5.1874    3.9512   21.7561 C   0  0  0  0  0  0  0  0  0  0  0  0
    6.4217    3.6174   21.7696 O   0  0  0  0  0  0  0  0  0  0  0  0
    3.3650    3.6322   20.7308 H   0  0  0  0  0  0  0  0  0  0  0  0
    4.6074    4.8977   22.7357 C   0  0  0  0  0  0  0  0  0  0  0  0
    3.3760    4.3164   23.4211 C   0  0  0  0  0  0  0  0  0  0  0  0
    4.2519    6.0894   21.9863 N   0  0  0  0  0  0  0  0  0  0  0  0
    5.1661    7.1588   21.9463 C   0  0  0  0  0  0  0  0  0  0  0  0
    6.2848    7.1106   22.5493 O   0  0  0  0  0  0  0  0  0  0  0  0
    3.3420    6.1216   21.5084 H   0  0  0  0  0  0  0  0  0  0  0  0
    4.8758    8.4053   21.1964 C   0  0  0  0  0  0  0  0  0  0  0  0
    6.0507    9.3690   21.2070 C   0  0  0  0  0  0  0  0  0  0  0  0
    4.5228    8.0179   19.7958 C   0  0  0  0  0  0  0  0  0  0  0  0
    3.6408    8.9018   19.0198 C   0  0  0  0  0  0  0  0  0  0  0  0
    4.9725    6.9966   19.3519 O   0  0  0  0  0  0  0  0  0  0  0  0
    1.9792    6.4256   12.3807 C   0  0  0  0  0  0  0  0  0  0  0  0
    2.8983    5.8715   11.2199 C   0  0  0  0  0  0  0  0  0  0  0  0
   -0.5174    6.2473   12.2835 N   0  0  0  0  0  0  0  0  0  0  0  0
    0.7473    5.6363   12.3823 C   0  0  0  0  0  0  0  0  0  0  0  0
    0.8984    4.3688   12.4761 O   0  0  0  0  0  0  0  0  0  0  0  0
   -0.5904    7.2749   12.2412 H   0  0  0  0  0  0  0  0  0  0  0  0
   -1.7533    5.4716   12.2370 C   0  0  0  0  0  0  0  0  0  0  0  0
   -2.8818    6.3918   12.7630 C   0  0  0  0  0  0  0  0  0  0  0  0
   -2.7345    3.8289   10.5337 N   0  0  0  0  0  0  0  0  0  0  0  0
   -2.0868    5.0225   10.8847 C   0  0  0  0  0  0  0  0  0  0  0  0
   -1.7459    5.8120    9.9382 O   0  0  0  0  0  0  0  0  0  0  0  0
   -3.0031    3.1441   11.2460 H   0  0  0  0  0  0  0  0  0  0  0  0
   -3.0328    3.5605    9.0752 C   0  0  0  0  0  0  0  0  0  0  0  0
   -4.4747    3.6805    8.9505 C   0  0  0  0  0  0  0  0  0  0  0  0
   -5.1642    2.6021    9.2168 O   0  0  0  0  0  0  0  0  0  0  0  0
   -5.2345    4.8152    8.5966 N   0  0  0  0  0  0  0  0  0  0  0  0
   -6.6930    4.8246    8.3870 C   0  0  0  0  0  0  0  0  0  0  0  0
   -7.1151    5.8495    9.4473 C   0  0  0  0  0  0  0  0  0  0  0  0
   -5.8276    6.5893    9.8201 C   0  0  0  0  0  0  0  0  0  0  0  0
   -4.8536    6.1783    8.6277 C   0  0  0  0  0  0  0  0  0  0  0  0
   -5.0350    7.1035    7.5721 C   0  0  0  0  0  0  0  0  0  0  0  0
   -5.1861    8.3544    8.0200 O   0  0  0  0  0  0  0  0  0  0  0  0
   -5.0959    7.0363    6.1787 N   0  0  0  0  0  0  0  0  0  0  0  0
   -4.9416    5.8752    5.3159 C   0  0  0  0  0  0  0  0  0  0  0  0
   -4.4416    6.3976    4.0080 C   0  0  0  0  0  0  0  0  0  0  0  0
   -4.5884    7.8840    4.0314 C   0  0  0  0  0  0  0  0  0  0  0  0
   -5.3432    8.1513    5.2747 C   0  0  0  0  0  0  0  0  0  0  0  0
   -6.0548    9.1244    5.5249 O   0  0  0  0  0  0  0  0  0  0  0  0
   -2.5508    2.1246    8.8967 C   0  0  0  0  0  0  0  0  0  0  0  0
   -1.0881    1.2769    7.0614 C   0  0  0  0  0  0  0  0  0  0  0  0
   -1.1924    1.8364    8.4836 C   0  0  0  0  0  0  0  0  0  0  0  0
   -0.2577    1.1429    9.3932 C   0  0  0  0  0  0  0  0  0  0  0  0
 63 64  1  0  0  0
 64 65  1  0  0  0
 64 62  1  0  0  0
 62 46  1  0  0  0
 46 42  1  0  0  0
 42 43  1  0  0  0
 43 44  2  0  0  0
 43 40  1  0  0  0
 40 41  1  0  0  0
 40 36  1  0  0  0
 36 37  1  0  0  0
 37 38  2  0  0  0
 37 34  1  0  0  0
 34 35  1  0  0  0
 34  1  1  0  0  0
  1  2  1  0  0  0
  2  3  2  0  0  0
  2  5  1  0  0  0
  5  6  1  0  0  0
  5  7  1  0  0  0
  7  8  1  0  0  0
  8  9  2  0  0  0
  8 11  1  0  0  0
 11 12  1  0  0  0
 11 13  1  0  0  0
 13 14  1  0  0  0
 14 15  2  0  0  0
 14 17  1  0  0  0
 17 18  1  0  0  0
 17 19  1  0  0  0
 19 20  1  0  0  0
 20 21  2  0  0  0
 20 23  1  0  0  0
 23 24  1  0  0  0
 23 25  1  0  0  0
 25 26  1  0  0  0
 26 27  2  0  0  0
 26 29  1  0  0  0
 29 30  1  0  0  0
 29 31  1  0  0  0
 31 32  1  0  0  0
 31 33  2  0  0  0
 46 47  1  0  0  0
 47 48  2  0  0  0
 47 49  1  0  0  0
 49 50  1  0  0  0
 50 51  1  0  0  0
 51 52  1  0  0  0
 52 53  1  0  0  0
 53 54  1  0  0  0
 54 55  2  0  0  0
 54 56  1  0  0  0
 56 57  1  0  0  0
 57 58  1  0  0  0
 58 59  1  0  0  0
 59 60  1  0  0  0
 60 61  2  0  0  0
 53 49  1  0  0  0
 60 56  1  0  0  0
 42 45  1  0  0  0
 36 39  1  0  0  0
  1  4  1  0  0  0
  7 10  1  0  0  0
 13 16  1  0  0  0
 19 22  1  0  0  0
 25 28  1  0  0  0
M  END
> <minimizedAffinity>
-8.36754

> <CNNscore>
0.2346096933

> <CNNaffinity>
6.6894502640

> <CNN_VS>
1.5694098473

> <CNNaffinity_variance>
0.4015561044

$$$$
[H]N(C(=O)[C@]([H])(C(=O)C([H])([H])[H])C([H])([H])[H])[C@]([H])(C(=O)N([H])[C@]([H])(C(=O)N([H])[C@]([H])(C(=O)N([H])[C@]([H])(C(=O)N([H])[C@]([H])(C(=O)N([H])[C@]([H])(C(=O)N([H])[C@]([H])(C(=O)N1C([H])([H])C([H])([H])C([H])([H])[C@]1([H])C(=O)N1C(=O)C([H])([H])C([H])([H])C1([H])[H])C([H])([H])C([H])(C([H])([H])[H])C([H])([H])[H])C([H])([H])[H])C([H])([H])[H])C([H])([H])[H])C([H])([H])[H])C([H])([H])[H])C([H])([H])[H]


 65 66  0  0  0  0  0  0  0  0999 V2000
    3.9335    3.0110   18.5023 N   0  0  0  0  0  0  0  0  0  0  0  0
    4.1685    1.6613   18.8245 C   0  0  0  0  0  0  0  0  0  0  0  0
    4.3349    0.7574   17.9588 O   0  0  0  0  0  0  0  0  0  0  0  0
    3.7865    3.6914   19.2804 H   0  0  0  0  0  0  0  0  0  0  0  0
    4.2339    1.2319   20.2345 C   0  0  0  0  0  0  0  0  0  0  0  0
    3.0464    0.2644   20.5130 C   0  0  0  0  0  0  0  0  0  0  0  0
    4.0884    2.3847   21.0885 N   0  0  0  0  0  0  0  0  0  0  0  0
    5.0670    2.5855   22.1188 C   0  0  0  0  0  0  0  0  0  0  0  0
    5.9878    1.7044   22.1839 O   0  0  0  0  0  0  0  0  0  0  0  0
    3.3203    3.0421   20.9773 H   0  0  0  0  0  0  0  0  0  0  0  0
    5.0494    3.7163   23.0543 C   0  0  0  0  0  0  0  0  0  0  0  0
    3.6869    4.4176   23.0093 C   0  0  0  0  0  0  0  0  0  0  0  0
    6.1225    4.6630   22.7336 N   0  0  0  0  0  0  0  0  0  0  0  0
    6.3229    5.2737   21.4887 C   0  0  0  0  0  0  0  0  0  0  0  0
    5.5738    5.0329   20.5018 O   0  0  0  0  0  0  0  0  0  0  0  0
    6.8115    4.9045   23.5174 H   0  0  0  0  0  0  0  0  0  0  0  0
    7.4479    6.2218   21.3460 C   0  0  0  0  0  0  0  0  0  0  0  0
    8.5018    5.8774   22.3997 C   0  0  0  0  0  0  0  0  0  0  0  0
    6.9422    7.5812   21.6114 N   0  0  0  0  0  0  0  0  0  0  0  0
    7.4424    8.6817   20.8839 C   0  0  0  0  0  0  0  0  0  0  0  0
    8.3415    8.4421   20.0067 O   0  0  0  0  0  0  0  0  0  0  0  0
    6.2123    7.7563   22.3346 H   0  0  0  0  0  0  0  0  0  0  0  0
    6.9293   10.0453   21.1468 C   0  0  0  0  0  0  0  0  0  0  0  0
    6.8270   10.3315   22.6406 C   0  0  0  0  0  0  0  0  0  0  0  0
    5.6165   10.1102   20.5299 N   0  0  0  0  0  0  0  0  0  0  0  0
    5.5150   10.5828   19.2080 C   0  0  0  0  0  0  0  0  0  0  0  0
    6.5351   10.9565   18.5469 O   0  0  0  0  0  0  0  0  0  0  0  0
    4.7970    9.8129   21.0753 H   0  0  0  0  0  0  0  0  0  0  0  0
    4.2093   10.6716   18.5097 C   0  0  0  0  0  0  0  0  0  0  0  0
    3.2484    9.5786   18.9470 C   0  0  0  0  0  0  0  0  0  0  0  0
    3.6363   12.0234   18.7936 C   0  0  0  0  0  0  0  0  0  0  0  0
    2.6795   12.5996   17.8377 C   0  0  0  0  0  0  0  0  0  0  0  0
    3.9777   12.5931   19.7942 O   0  0  0  0  0  0  0  0  0  0  0  0
    3.8953    3.4914   17.1284 C   0  0  0  0  0  0  0  0  0  0  0  0
    2.5442    2.9254   16.5340 C   0  0  0  0  0  0  0  0  0  0  0  0
    4.6794    5.7500   16.3813 N   0  0  0  0  0  0  0  0  0  0  0  0
    3.7973    4.9511   17.1337 C   0  0  0  0  0  0  0  0  0  0  0  0
    2.8644    5.4437   17.8586 O   0  0  0  0  0  0  0  0  0  0  0  0
    5.4353    5.3087   15.8364 H   0  0  0  0  0  0  0  0  0  0  0  0
    4.5658    7.2048   16.3391 C   0  0  0  0  0  0  0  0  0  0  0  0
    5.9070    7.7760   16.8606 C   0  0  0  0  0  0  0  0  0  0  0  0
    4.9664    7.3155   13.8113 N   0  0  0  0  0  0  0  0  0  0  0  0
    4.3167    7.7124   14.9893 C   0  0  0  0  0  0  0  0  0  0  0  0
    3.4097    8.6087   14.8924 O   0  0  0  0  0  0  0  0  0  0  0  0
    5.7219    6.6246   13.8315 H   0  0  0  0  0  0  0  0  0  0  0  0
    4.5360    7.9280   12.4969 C   0  0  0  0  0  0  0  0  0  0  0  0
    4.0710    6.8144   11.6891 C   0  0  0  0  0  0  0  0  0  0  0  0
    4.3665    5.6212   12.1345 O   0  0  0  0  0  0  0  0  0  0  0  0
    3.3244    6.8482   10.4927 N   0  0  0  0  0  0  0  0  0  0  0  0
    2.9841    5.6710    9.6745 C   0  0  0  0  0  0  0  0  0  0  0  0
    1.4525    5.7493    9.7061 C   0  0  0  0  0  0  0  0  0  0  0  0
    1.1367    7.1738   10.1699 C   0  0  0  0  0  0  0  0  0  0  0  0
    2.5389    7.9043    9.9712 C   0  0  0  0  0  0  0  0  0  0  0  0
    2.5980    8.3901    8.6432 C   0  0  0  0  0  0  0  0  0  0  0  0
    1.3978    8.7712    8.1931 O   0  0  0  0  0  0  0  0  0  0  0  0
    3.5972    8.5708    7.6847 N   0  0  0  0  0  0  0  0  0  0  0  0
    5.0246    8.3142    7.7984 C   0  0  0  0  0  0  0  0  0  0  0  0
    5.6880    9.2410    6.8318 C   0  0  0  0  0  0  0  0  0  0  0  0
    4.6224    9.8187    5.9587 C   0  0  0  0  0  0  0  0  0  0  0  0
    3.4065    9.0617    6.3267 C   0  0  0  0  0  0  0  0  0  0  0  0
    2.4069    8.8669    5.6346 O   0  0  0  0  0  0  0  0  0  0  0  0
    5.8352    8.5275   11.9688 C   0  0  0  0  0  0  0  0  0  0  0  0
    8.2320    8.5890   12.6600 C   0  0  0  0  0  0  0  0  0  0  0  0
    7.0815    7.7920   12.0371 C   0  0  0  0  0  0  0  0  0  0  0  0
    7.5535    6.9975   10.8848 C   0  0  0  0  0  0  0  0  0  0  0  0
 63 64  1  0  0  0
 64 65  1  0  0  0
 64 62  1  0  0  0
 62 46  1  0  0  0
 46 42  1  0  0  0
 42 43  1  0  0  0
 43 44  2  0  0  0
 43 40  1  0  0  0
 40 41  1  0  0  0
 40 36  1  0  0  0
 36 37  1  0  0  0
 37 38  2  0  0  0
 37 34  1  0  0  0
 34 35  1  0  0  0
 34  1  1  0  0  0
  1  2  1  0  0  0
  2  3  2  0  0  0
  2  5  1  0  0  0
  5  6  1  0  0  0
  5  7  1  0  0  0
  7  8  1  0  0  0
  8  9  2  0  0  0
  8 11  1  0  0  0
 11 12  1  0  0  0
 11 13  1  0  0  0
 13 14  1  0  0  0
 14 15  2  0  0  0
 14 17  1  0  0  0
 17 18  1  0  0  0
 17 19  1  0  0  0
 19 20  1  0  0  0
 20 21  2  0  0  0
 20 23  1  0  0  0
 23 24  1  0  0  0
 23 25  1  0  0  0
 25 26  1  0  0  0
 26 27  2  0  0  0
 26 29  1  0  0  0
 29 30  1  0  0  0
 29 31  1  0  0  0
 31 32  1  0  0  0
 31 33  2  0  0  0
 46 47  1  0  0  0
 47 48  2  0  0  0
 47 49  1  0  0  0
 49 50  1  0  0  0
 50 51  1  0  0  0
 51 52  1  0  0  0
 52 53  1  0  0  0
 53 54  1  0  0  0
 54 55  2  0  0  0
 54 56  1  0  0  0
 56 57  1  0  0  0
 57 58  1  0  0  0
 58 59  1  0  0  0
 59 60  1  0  0  0
 60 61  2  0  0  0
 53 49  1  0  0  0
 60 56  1  0  0  0
 42 45  1  0  0  0
 36 39  1  0  0  0
  1  4  1  0  0  0
  7 10  1  0  0  0
 13 16  1  0  0  0
 19 22  1  0  0  0
 25 28  1  0  0  0
M  END
> <minimizedAffinity>
-8.45828

> <CNNscore>
0.2320611775

> <CNNaffinity>
6.8822517395

> <CNN_VS>
1.5971034765

> <CNNaffinity_variance>
0.3741019666

$$$$
[H]N(C(=O)[C@]([H])(C(=O)C([H])([H])[H])C([H])([H])[H])[C@]([H])(C(=O)N([H])[C@]([H])(C(=O)N([H])[C@]([H])(C(=O)N([H])[C@]([H])(C(=O)N([H])[C@]([H])(C(=O)N([H])[C@]([H])(C(=O)N([H])[C@]([H])(C(=O)N1C([H])([H])C([H])([H])C([H])([H])[C@]1([H])C(=O)N1C(=O)C([H])([H])C([H])([H])C1([H])[H])C([H])([H])C([H])(C([H])([H])[H])C([H])([H])[H])C([H])([H])[H])C([H])([H])[H])C([H])([H])[H])C([H])([H])[H])C([H])([H])[H])C([H])([H])[H]


 65 66  0  0  0  0  0  0  0  0999 V2000
    6.2654   10.6354   20.7690 N   0  0  0  0  0  0  0  0  0  0  0  0
    5.7977   11.2764   19.6066 C   0  0  0  0  0  0  0  0  0  0  0  0
    6.4627   12.1432   18.9738 O   0  0  0  0  0  0  0  0  0  0  0  0
    5.6424    9.9444   21.2427 H   0  0  0  0  0  0  0  0  0  0  0  0
    4.4669   10.9501   19.0595 C   0  0  0  0  0  0  0  0  0  0  0  0
    4.1499    9.4608   19.3837 C   0  0  0  0  0  0  0  0  0  0  0  0
    4.4923   11.1058   17.6261 N   0  0  0  0  0  0  0  0  0  0  0  0
    3.3650   11.7342   16.9984 C   0  0  0  0  0  0  0  0  0  0  0  0
    2.4281   12.0982   17.7847 O   0  0  0  0  0  0  0  0  0  0  0  0
    5.2766   10.7833   17.0645 H   0  0  0  0  0  0  0  0  0  0  0  0
    3.2575   11.9652   15.5530 C   0  0  0  0  0  0  0  0  0  0  0  0
    2.4156   13.2169   15.2795 C   0  0  0  0  0  0  0  0  0  0  0  0
    2.6677   10.7975   14.8903 N   0  0  0  0  0  0  0  0  0  0  0  0
    3.3839    9.7815   14.2438 C   0  0  0  0  0  0  0  0  0  0  0  0
    4.6434    9.8031   14.1644 O   0  0  0  0  0  0  0  0  0  0  0  0
    1.5996   10.7177   14.9000 H   0  0  0  0  0  0  0  0  0  0  0  0
    2.6266    8.6630   13.6434 C   0  0  0  0  0  0  0  0  0  0  0  0
    2.7687    7.4434   14.5555 C   0  0  0  0  0  0  0  0  0  0  0  0
    3.2298    8.3469   12.3356 N   0  0  0  0  0  0  0  0  0  0  0  0
    2.4102    8.0415   11.2285 C   0  0  0  0  0  0  0  0  0  0  0  0
    1.1456    8.0480   11.4184 O   0  0  0  0  0  0  0  0  0  0  0  0
    4.2635    8.3421   12.2026 H   0  0  0  0  0  0  0  0  0  0  0  0
    3.0168    7.7306    9.9143 C   0  0  0  0  0  0  0  0  0  0  0  0
    2.4177    8.5820    8.8006 C   0  0  0  0  0  0  0  0  0  0  0  0
    2.7547    6.3235    9.6698 N   0  0  0  0  0  0  0  0  0  0  0  0
    3.7430    5.3832   10.0163 C   0  0  0  0  0  0  0  0  0  0  0  0
    4.8532    5.7319   10.5292 O   0  0  0  0  0  0  0  0  0  0  0  0
    1.8571    6.0523    9.2477 H   0  0  0  0  0  0  0  0  0  0  0  0
    3.5447    3.9287    9.8023 C   0  0  0  0  0  0  0  0  0  0  0  0
    4.8621    3.1807    9.6829 C   0  0  0  0  0  0  0  0  0  0  0  0
    2.7439    3.4081   10.9529 C   0  0  0  0  0  0  0  0  0  0  0  0
    2.7136    1.9580   11.1933 C   0  0  0  0  0  0  0  0  0  0  0  0
    2.1521    4.1933   11.6426 O   0  0  0  0  0  0  0  0  0  0  0  0
    7.5843   10.8956   21.3282 C   0  0  0  0  0  0  0  0  0  0  0  0
    7.3085   11.5746   22.7290 C   0  0  0  0  0  0  0  0  0  0  0  0
    8.0179    8.8837   22.7559 N   0  0  0  0  0  0  0  0  0  0  0  0
    8.2575    9.6216   21.5808 C   0  0  0  0  0  0  0  0  0  0  0  0
    9.0665    9.2293   20.6699 O   0  0  0  0  0  0  0  0  0  0  0  0
    7.3805    9.2556   23.4758 H   0  0  0  0  0  0  0  0  0  0  0  0
    8.6459    7.5889   23.0016 C   0  0  0  0  0  0  0  0  0  0  0  0
    8.6526    7.3762   24.5352 C   0  0  0  0  0  0  0  0  0  0  0  0
    6.6564    6.0026   22.7046 N   0  0  0  0  0  0  0  0  0  0  0  0
    7.9289    6.4840   22.3637 C   0  0  0  0  0  0  0  0  0  0  0  0
    8.5402    5.9106   21.3978 O   0  0  0  0  0  0  0  0  0  0  0  0
    6.1329    6.4019   23.4887 H   0  0  0  0  0  0  0  0  0  0  0  0
    6.0607    4.8731   21.8938 C   0  0  0  0  0  0  0  0  0  0  0  0
    5.0118    5.4848   21.0972 C   0  0  0  0  0  0  0  0  0  0  0  0
    4.5118    6.5980   21.5664 O   0  0  0  0  0  0  0  0  0  0  0  0
    4.4711    5.0459   19.8704 N   0  0  0  0  0  0  0  0  0  0  0  0
    3.3291    5.6689   19.1782 C   0  0  0  0  0  0  0  0  0  0  0  0
    3.9903    6.0491   17.8473 C   0  0  0  0  0  0  0  0  0  0  0  0
    5.2799    5.2256   17.7943 C   0  0  0  0  0  0  0  0  0  0  0  0
    5.0261    4.1409   18.9337 C   0  0  0  0  0  0  0  0  0  0  0  0
    4.3460    3.0436   18.3534 C   0  0  0  0  0  0  0  0  0  0  0  0
    3.8913    2.1889   19.2759 O   0  0  0  0  0  0  0  0  0  0  0  0
    4.0312    2.6302   17.0574 N   0  0  0  0  0  0  0  0  0  0  0  0
    4.3140    3.2966   15.7956 C   0  0  0  0  0  0  0  0  0  0  0  0
    3.2575    2.8394   14.8425 C   0  0  0  0  0  0  0  0  0  0  0  0
    2.5457    1.6897   15.4774 C   0  0  0  0  0  0  0  0  0  0  0  0
    3.3393    1.4017   16.6916 C   0  0  0  0  0  0  0  0  0  0  0  0
    3.4191    0.3336   17.2990 O   0  0  0  0  0  0  0  0  0  0  0  0
    5.5075    3.9466   22.9716 C   0  0  0  0  0  0  0  0  0  0  0  0
    6.5077    2.0445   21.7036 C   0  0  0  0  0  0  0  0  0  0  0  0
    5.5770    2.5065   22.8293 C   0  0  0  0  0  0  0  0  0  0  0  0
    4.3511    1.6836   22.8713 C   0  0  0  0  0  0  0  0  0  0  0  0
 63 64  1  0  0  0
 64 65  1  0  0  0
 64 62  1  0  0  0
 62 46  1  0  0  0
 46 42  1  0  0  0
 42 43  1  0  0  0
 43 44  2  0  0  0
 43 40  1  0  0  0
 40 41  1  0  0  0
 40 36  1  0  0  0
 36 37  1  0  0  0
 37 38  2  0  0  0
 37 34  1  0  0  0
 34 35  1  0  0  0
 34  1  1  0  0  0
  1  2  1  0  0  0
  2  3  2  0  0  0
  2  5  1  0  0  0
  5  6  1  0  0  0
  5  7  1  0  0  0
  7  8  1  0  0  0
  8  9  2  0  0  0
  8 11  1  0  0  0
 11 12  1  0  0  0
 11 13  1  0  0  0
 13 14  1  0  0  0
 14 15  2  0  0  0
 14 17  1  0  0  0
 17 18  1  0  0  0
 17 19  1  0  0  0
 19 20  1  0  0  0
 20 21  2  0  0  0
 20 23  1  0  0  0
 23 24  1  0  0  0
 23 25  1  0  0  0
 25 26  1  0  0  0
 26 27  2  0  0  0
 26 29  1  0  0  0
 29 30  1  0  0  0
 29 31  1  0  0  0
 31 32  1  0  0  0
 31 33  2  0  0  0
 46 47  1  0  0  0
 47 48  2  0  0  0
 47 49  1  0  0  0
 49 50  1  0  0  0
 50 51  1  0  0  0
 51 52  1  0  0  0
 52 53  1  0  0  0
 53 54  1  0  0  0
 54 55  2  0  0  0
 54 56  1  0  0  0
 56 57  1  0  0  0
 57 58  1  0  0  0
 58 59  1  0  0  0
 59 60  1  0  0  0
 60 61  2  0  0  0
 53 49  1  0  0  0
 60 56  1  0  0  0
 42 45  1  0  0  0
 36 39  1  0  0  0
  1  4  1  0  0  0
  7 10  1  0  0  0
 13 16  1  0  0  0
 19 22  1  0  0  0
 25 28  1  0  0  0
M  END
> <minimizedAffinity>
-8.66767

> <CNNscore>
0.1843106598

> <CNNaffinity>
7.1683511734

> <CNN_VS>
1.3212035894

> <CNNaffinity_variance>
0.4752979875

$$$$
[H]N(C(=O)[C@@]([H])(N([H])C(=O)[C@@]([H])(N([H])C(=O)[C@@]([H])(C(=O)C([H])([H])[H])C([H])([H])[H])C([H])([H])[H])C([H])([H])[H])[C@]([H])(C(=O)N([H])[C@]([H])(C(=O)N([H])[C@]([H])(C(=O)N([H])[C@]([H])(C(=O)N([H])[C@]([H])(C(=O)N1C([H])([H])C([H])([H])C([H])([H])[C@@]1([H])C(=O)N(C([H])([H])[H])C([H])([H])[H])C([H])([H])C([H])(C([H])([H])[H])C([H])([H])[H])C([H])([H])[H])C([H])([H])[H])C([H])([H])[H])C([H])([H])[H]


 62 62  0  0  0  0  0  0  0  0999 V2000
    4.3549    8.1672   19.0520 N   0  0  0  0  0  0  0  0  0  0  0  0
    4.4038    7.0184   18.2412 C   0  0  0  0  0  0  0  0  0  0  0  0
    4.5611    7.0229   17.0047 O   0  0  0  0  0  0  0  0  0  0  0  0
    4.2831    7.9667   20.1316 H   0  0  0  0  0  0  0  0  0  0  0  0
    4.2625    5.7475   18.9540 C   0  0  0  0  0  0  0  0  0  0  0  0
    2.8170    5.2591   18.7206 C   0  0  0  0  0  0  0  0  0  0  0  0
    4.2819    6.0073   20.4399 N   0  0  0  0  0  0  0  0  0  0  0  0
    5.4988    6.0531   21.0363 C   0  0  0  0  0  0  0  0  0  0  0  0
    6.5920    5.9499   20.2631 O   0  0  0  0  0  0  0  0  0  0  0  0
    3.3595    6.1514   20.8835 H   0  0  0  0  0  0  0  0  0  0  0  0
    5.8745    6.1637   22.5049 C   0  0  0  0  0  0  0  0  0  0  0  0
    7.3069    6.4870   22.6799 C   0  0  0  0  0  0  0  0  0  0  0  0
    5.6783    4.7387   22.8695 N   0  0  0  0  0  0  0  0  0  0  0  0
    4.4686    4.0905   23.1022 C   0  0  0  0  0  0  0  0  0  0  0  0
    3.3490    4.5904   23.1265 O   0  0  0  0  0  0  0  0  0  0  0  0
    6.5994    4.2200   22.9718 H   0  0  0  0  0  0  0  0  0  0  0  0
    4.6237    2.5878   23.3122 C   0  0  0  0  0  0  0  0  0  0  0  0
    6.1467    2.3097   23.1723 C   0  0  0  0  0  0  0  0  0  0  0  0
    3.9203    1.7987   22.4076 N   0  0  0  0  0  0  0  0  0  0  0  0
    4.1594    1.9245   21.0313 C   0  0  0  0  0  0  0  0  0  0  0  0
    5.0462    2.7579   20.6232 O   0  0  0  0  0  0  0  0  0  0  0  0
    3.1901    1.0938   22.7618 H   0  0  0  0  0  0  0  0  0  0  0  0
    3.4119    1.1206   20.0097 C   0  0  0  0  0  0  0  0  0  0  0  0
    3.4650   -0.3219   20.2869 C   0  0  0  0  0  0  0  0  0  0  0  0
    3.8256    1.6385   18.7412 N   0  0  0  0  0  0  0  0  0  0  0  0
    3.2356    1.3475   17.5116 C   0  0  0  0  0  0  0  0  0  0  0  0
    2.2606    0.6241   17.3427 O   0  0  0  0  0  0  0  0  0  0  0  0
    4.6677    2.3271   18.7356 H   0  0  0  0  0  0  0  0  0  0  0  0
    3.8651    1.9725   16.2943 C   0  0  0  0  0  0  0  0  0  0  0  0
    4.9368    2.9008   16.8153 C   0  0  0  0  0  0  0  0  0  0  0  0
    2.8616    2.6086   15.4365 C   0  0  0  0  0  0  0  0  0  0  0  0
    2.3480    1.8499   14.2388 C   0  0  0  0  0  0  0  0  0  0  0  0
    2.4353    3.7135   15.6597 O   0  0  0  0  0  0  0  0  0  0  0  0
    4.4309    9.5230   18.6810 C   0  0  0  0  0  0  0  0  0  0  0  0
    5.7987   10.0887   18.6826 C   0  0  0  0  0  0  0  0  0  0  0  0
    4.0121    9.6760   16.1946 N   0  0  0  0  0  0  0  0  0  0  0  0
    3.6360    9.9511   17.5315 C   0  0  0  0  0  0  0  0  0  0  0  0
    2.5790   10.5669   17.7429 O   0  0  0  0  0  0  0  0  0  0  0  0
    4.8577    9.0916   15.9965 H   0  0  0  0  0  0  0  0  0  0  0  0
    3.2168   10.1699   15.0732 C   0  0  0  0  0  0  0  0  0  0  0  0
    3.9130   11.3309   14.4608 C   0  0  0  0  0  0  0  0  0  0  0  0
    1.7800    8.3211   14.2622 N   0  0  0  0  0  0  0  0  0  0  0  0
    2.9753    9.0802   14.0448 C   0  0  0  0  0  0  0  0  0  0  0  0
    3.7305    8.8453   13.1350 O   0  0  0  0  0  0  0  0  0  0  0  0
    1.2273    8.6899   15.1010 H   0  0  0  0  0  0  0  0  0  0  0  0
    1.2644    7.2109   13.5476 C   0  0  0  0  0  0  0  0  0  0  0  0
    1.4079    7.2765   12.0651 C   0  0  0  0  0  0  0  0  0  0  0  0
    0.7745    8.2336   11.4646 O   0  0  0  0  0  0  0  0  0  0  0  0
    2.1693    6.3554   11.3537 N   0  0  0  0  0  0  0  0  0  0  0  0
    2.6602    5.0784   11.9594 C   0  0  0  0  0  0  0  0  0  0  0  0
    1.7112    4.2065   11.0526 C   0  0  0  0  0  0  0  0  0  0  0  0
    1.7261    4.9655    9.6864 C   0  0  0  0  0  0  0  0  0  0  0  0
    2.6720    6.1317   10.0419 C   0  0  0  0  0  0  0  0  0  0  0  0
    2.9221    7.1346    9.0812 C   0  0  0  0  0  0  0  0  0  0  0  0
    1.9482    7.3727    8.2429 O   0  0  0  0  0  0  0  0  0  0  0  0
    4.0419    7.9365    8.8833 N   0  0  0  0  0  0  0  0  0  0  0  0
    4.0069    9.0219    7.8958 C   0  0  0  0  0  0  0  0  0  0  0  0
    5.2996    7.7837    9.5586 C   0  0  0  0  0  0  0  0  0  0  0  0
   -0.0312    6.7063   14.0620 C   0  0  0  0  0  0  0  0  0  0  0  0
   -2.4742    7.0951   13.6860 C   0  0  0  0  0  0  0  0  0  0  0  0
   -1.1550    6.6783   13.0504 C   0  0  0  0  0  0  0  0  0  0  0  0
   -1.3548    5.2466   12.5614 C   0  0  0  0  0  0  0  0  0  0  0  0
 60 61  1  0  0  0
 61 62  1  0  0  0
 61 59  1  0  0  0
 59 46  1  0  0  0
 46 42  1  0  0  0
 42 43  1  0  0  0
 43 44  2  0  0  0
 43 40  1  0  0  0
 40 41  1  0  0  0
 40 36  1  0  0  0
 36 37  1  0  0  0
 37 38  2  0  0  0
 37 34  1  0  0  0
 34 35  1  0  0  0
 34  1  1  0  0  0
  1  2  1  0  0  0
  2  3  2  0  0  0
  2  5  1  0  0  0
  5  6  1  0  0  0
  5  7  1  0  0  0
  7  8  1  0  0  0
  8  9  2  0  0  0
  8 11  1  0  0  0
 11 12  1  0  0  0
 11 13  1  0  0  0
 13 14  1  0  0  0
 14 15  2  0  0  0
 14 17  1  0  0  0
 17 18  1  0  0  0
 17 19  1  0  0  0
 19 20  1  0  0  0
 20 21  2  0  0  0
 20 23  1  0  0  0
 23 24  1  0  0  0
 23 25  1  0  0  0
 25 26  1  0  0  0
 26 27  2  0  0  0
 26 29  1  0  0  0
 29 30  1  0  0  0
 29 31  1  0  0  0
 31 32  1  0  0  0
 31 33  2  0  0  0
 46 47  1  0  0  0
 47 48  2  0  0  0
 47 49  1  0  0  0
 49 50  1  0  0  0
 50 51  1  0  0  0
 51 52  1  0  0  0
 52 53  1  0  0  0
 53 54  1  0  0  0
 54 55  2  0  0  0
 54 56  1  0  0  0
 56 57  1  0  0  0
 56 58  1  0  0  0
 53 49  1  0  0  0
 42 45  1  0  0  0
 36 39  1  0  0  0
  1  4  1  0  0  0
  7 10  1  0  0  0
 13 16  1  0  0  0
 19 22  1  0  0  0
 25 28  1  0  0  0
M  END
> <minimizedAffinity>
-8.76398

> <CNNscore>
0.5545640588

> <CNNaffinity>
7.8748731613

> <CNN_VS>
4.3671216965

> <CNNaffinity_variance>
0.0989072174

$$$$
[H]N(C(=O)[C@@]([H])(N([H])C(=O)[C@@]([H])(N([H])C(=O)[C@@]([H])(C(=O)C([H])([H])[H])C([H])([H])[H])C([H])([H])[H])C([H])([H])[H])[C@]([H])(C(=O)N([H])[C@]([H])(C(=O)N([H])[C@]([H])(C(=O)N([H])[C@]([H])(C(=O)N([H])[C@]([H])(C(=O)N1C([H])([H])C([H])([H])C([H])([H])[C@@]1([H])C(=O)N(C([H])([H])[H])C([H])([H])[H])C([H])([H])C([H])(C([H])([H])[H])C([H])([H])[H])C([H])([H])[H])C([H])([H])[H])C([H])([H])[H])C([H])([H])[H]


 62 62  0  0  0  0  0  0  0  0999 V2000
    5.0701    8.3371   13.1651 N   0  0  0  0  0  0  0  0  0  0  0  0
    6.2440    8.6423   12.4523 C   0  0  0  0  0  0  0  0  0  0  0  0
    6.8067    9.7545   12.4451 O   0  0  0  0  0  0  0  0  0  0  0  0
    4.7588    7.2831   13.1110 H   0  0  0  0  0  0  0  0  0  0  0  0
    6.8113    7.5328   11.6839 C   0  0  0  0  0  0  0  0  0  0  0  0
    8.3200    7.8191   11.5272 C   0  0  0  0  0  0  0  0  0  0  0  0
    6.3162    7.6106   10.2610 N   0  0  0  0  0  0  0  0  0  0  0  0
    5.2656    6.8177    9.9355 C   0  0  0  0  0  0  0  0  0  0  0  0
    4.6908    6.0902   10.9072 O   0  0  0  0  0  0  0  0  0  0  0  0
    6.8085    8.2829    9.6495 H   0  0  0  0  0  0  0  0  0  0  0  0
    4.6079    6.5534    8.5910 C   0  0  0  0  0  0  0  0  0  0  0  0
    4.8163    7.6754    7.6504 C   0  0  0  0  0  0  0  0  0  0  0  0
    3.1965    6.5939    9.0474 N   0  0  0  0  0  0  0  0  0  0  0  0
    2.1348    5.8361    8.5614 C   0  0  0  0  0  0  0  0  0  0  0  0
    2.1498    5.0536    7.6172 O   0  0  0  0  0  0  0  0  0  0  0  0
    3.0420    7.3160    9.8108 H   0  0  0  0  0  0  0  0  0  0  0  0
    0.8478    6.0260    9.3576 C   0  0  0  0  0  0  0  0  0  0  0  0
    1.3069    6.4044   10.7938 C   0  0  0  0  0  0  0  0  0  0  0  0
    0.0262    4.9045    9.4107 N   0  0  0  0  0  0  0  0  0  0  0  0
   -1.2399    4.9320    8.8079 C   0  0  0  0  0  0  0  0  0  0  0  0
   -1.6178    5.9932    8.1924 O   0  0  0  0  0  0  0  0  0  0  0  0
    0.3589    4.0164    9.9166 H   0  0  0  0  0  0  0  0  0  0  0  0
   -2.1784    3.7635    8.8573 C   0  0  0  0  0  0  0  0  0  0  0  0
   -2.2780    3.0728    7.5637 C   0  0  0  0  0  0  0  0  0  0  0  0
   -3.3504    4.2447    9.5229 N   0  0  0  0  0  0  0  0  0  0  0  0
   -4.3092    3.4546   10.1562 C   0  0  0  0  0  0  0  0  0  0  0  0
   -4.2734    2.2333   10.2553 O   0  0  0  0  0  0  0  0  0  0  0  0
   -3.5028    5.3216    9.5458 H   0  0  0  0  0  0  0  0  0  0  0  0
   -5.4893    4.1731   10.7562 C   0  0  0  0  0  0  0  0  0  0  0  0
   -6.5681    4.1474    9.6991 C   0  0  0  0  0  0  0  0  0  0  0  0
   -5.1210    5.5101   11.2294 C   0  0  0  0  0  0  0  0  0  0  0  0
   -6.0765    6.6516   10.9880 C   0  0  0  0  0  0  0  0  0  0  0  0
   -4.0837    5.7233   11.8046 O   0  0  0  0  0  0  0  0  0  0  0  0
    4.2722    9.1746   13.9675 C   0  0  0  0  0  0  0  0  0  0  0  0
    2.8139    8.9868   13.7977 C   0  0  0  0  0  0  0  0  0  0  0  0
    3.7517    9.2441   16.4383 N   0  0  0  0  0  0  0  0  0  0  0  0
    4.6685    9.3444   15.3641 C   0  0  0  0  0  0  0  0  0  0  0  0
    5.8635    9.5693   15.6140 O   0  0  0  0  0  0  0  0  0  0  0  0
    2.7558    8.9785   16.2559 H   0  0  0  0  0  0  0  0  0  0  0  0
    4.1797    9.4751   17.8157 C   0  0  0  0  0  0  0  0  0  0  0  0
    3.1238   10.2397   18.5286 C   0  0  0  0  0  0  0  0  0  0  0  0
    3.7050    7.0555   18.0609 N   0  0  0  0  0  0  0  0  0  0  0  0
    4.4759    8.1685   18.5288 C   0  0  0  0  0  0  0  0  0  0  0  0
    5.2687    8.0684   19.4314 O   0  0  0  0  0  0  0  0  0  0  0  0
    3.0744    7.3309   17.2413 H   0  0  0  0  0  0  0  0  0  0  0  0
    3.6752    5.7135   18.5161 C   0  0  0  0  0  0  0  0  0  0  0  0
    3.0675    4.7283   17.5765 C   0  0  0  0  0  0  0  0  0  0  0  0
    1.8072    4.8776   17.3174 O   0  0  0  0  0  0  0  0  0  0  0  0
    3.8039    3.6920   17.0124 N   0  0  0  0  0  0  0  0  0  0  0  0
    5.1608    3.3053   17.5102 C   0  0  0  0  0  0  0  0  0  0  0  0
    4.6360    1.9283   18.0684 C   0  0  0  0  0  0  0  0  0  0  0  0
    3.5835    1.4876   17.0004 C   0  0  0  0  0  0  0  0  0  0  0  0
    3.6846    2.6772   16.0227 C   0  0  0  0  0  0  0  0  0  0  0  0
    2.8268    2.7251   14.9033 C   0  0  0  0  0  0  0  0  0  0  0  0
    2.1094    1.6533   14.6920 O   0  0  0  0  0  0  0  0  0  0  0  0
    2.6002    3.7428   13.9819 N   0  0  0  0  0  0  0  0  0  0  0  0
    1.5388    3.6060   12.9775 C   0  0  0  0  0  0  0  0  0  0  0  0
    3.3559    4.9601   13.8903 C   0  0  0  0  0  0  0  0  0  0  0  0
    3.3175    5.5655   19.9472 C   0  0  0  0  0  0  0  0  0  0  0  0
    3.8876    4.6926   22.2218 C   0  0  0  0  0  0  0  0  0  0  0  0
    4.1973    4.6190   20.7328 C   0  0  0  0  0  0  0  0  0  0  0  0
    5.6545    5.0462   20.5822 C   0  0  0  0  0  0  0  0  0  0  0  0
 60 61  1  0  0  0
 61 62  1  0  0  0
 61 59  1  0  0  0
 59 46  1  0  0  0
 46 42  1  0  0  0
 42 43  1  0  0  0
 43 44  2  0  0  0
 43 40  1  0  0  0
 40 41  1  0  0  0
 40 36  1  0  0  0
 36 37  1  0  0  0
 37 38  2  0  0  0
 37 34  1  0  0  0
 34 35  1  0  0  0
 34  1  1  0  0  0
  1  2  1  0  0  0
  2  3  2  0  0  0
  2  5  1  0  0  0
  5  6  1  0  0  0
  5  7  1  0  0  0
  7  8  1  0  0  0
  8  9  2  0  0  0
  8 11  1  0  0  0
 11 12  1  0  0  0
 11 13  1  0  0  0
 13 14  1  0  0  0
 14 15  2  0  0  0
 14 17  1  0  0  0
 17 18  1  0  0  0
 17 19  1  0  0  0
 19 20  1  0  0  0
 20 21  2  0  0  0
 20 23  1  0  0  0
 23 24  1  0  0  0
 23 25  1  0  0  0
 25 26  1  0  0  0
 26 27  2  0  0  0
 26 29  1  0  0  0
 29 30  1  0  0  0
 29 31  1  0  0  0
 31 32  1  0  0  0
 31 33  2  0  0  0
 46 47  1  0  0  0
 47 48  2  0  0  0
 47 49  1  0  0  0
 49 50  1  0  0  0
 50 51  1  0  0  0
 51 52  1  0  0  0
 52 53  1  0  0  0
 53 54  1  0  0  0
 54 55  2  0  0  0
 54 56  1  0  0  0
 56 57  1  0  0  0
 56 58  1  0  0  0
 53 49  1  0  0  0
 42 45  1  0  0  0
 36 39  1  0  0  0
  1  4  1  0  0  0
  7 10  1  0  0  0
 13 16  1  0  0  0
 19 22  1  0  0  0
 25 28  1  0  0  0
M  END
> <minimizedAffinity>
-7.73054

> <CNNscore>
0.3238188028

> <CNNaffinity>
6.8412957191

> <CNN_VS>
2.2153401375

> <CNNaffinity_variance>
0.8840532303

$$$$
[H]N(C(=O)[C@@]([H])(N([H])C(=O)[C@@]([H])(N([H])C(=O)[C@@]([H])(C(=O)C([H])([H])[H])C([H])([H])[H])C([H])([H])[H])C([H])([H])[H])[C@]([H])(C(=O)N([H])[C@]([H])(C(=O)N([H])[C@]([H])(C(=O)N([H])[C@]([H])(C(=O)N([H])[C@]([H])(C(=O)N1C([H])([H])C([H])([H])C([H])([H])[C@@]1([H])C(=O)N(C([H])([H])[H])C([H])([H])[H])C([H])([H])C([H])(C([H])([H])[H])C([H])([H])[H])C([H])([H])[H])C([H])([H])[H])C([H])([H])[H])C([H])([H])[H]


 62 62  0  0  0  0  0  0  0  0999 V2000
    3.7437    6.8554   13.7076 N   0  0  0  0  0  0  0  0  0  0  0  0
    4.4805    8.0022   13.3594 C   0  0  0  0  0  0  0  0  0  0  0  0
    4.2518    9.1532   13.7796 O   0  0  0  0  0  0  0  0  0  0  0  0
    4.1359    5.9130   13.2966 H   0  0  0  0  0  0  0  0  0  0  0  0
    5.5941    7.7699   12.4379 C   0  0  0  0  0  0  0  0  0  0  0  0
    6.4322    9.0658   12.4093 C   0  0  0  0  0  0  0  0  0  0  0  0
    5.0637    7.6947   11.0277 N   0  0  0  0  0  0  0  0  0  0  0  0
    4.9629    6.4593   10.4779 C   0  0  0  0  0  0  0  0  0  0  0  0
    5.2575    5.3952   11.2425 O   0  0  0  0  0  0  0  0  0  0  0  0
    4.7979    8.5965   10.5983 H   0  0  0  0  0  0  0  0  0  0  0  0
    4.5981    6.0347    9.0648 C   0  0  0  0  0  0  0  0  0  0  0  0
    3.3215    6.6379    8.6251 C   0  0  0  0  0  0  0  0  0  0  0  0
    4.3541    4.5979    9.3445 N   0  0  0  0  0  0  0  0  0  0  0  0
    4.7328    3.5134    8.5583 C   0  0  0  0  0  0  0  0  0  0  0  0
    5.2670    3.5446    7.4549 O   0  0  0  0  0  0  0  0  0  0  0  0
    3.8061    4.4512   10.2424 H   0  0  0  0  0  0  0  0  0  0  0  0
    4.4504    2.1670    9.2171 C   0  0  0  0  0  0  0  0  0  0  0  0
    5.4298    1.1669    8.5410 C   0  0  0  0  0  0  0  0  0  0  0  0
    3.1439    1.7113    9.0716 N   0  0  0  0  0  0  0  0  0  0  0  0
    2.3392    1.5123   10.2029 C   0  0  0  0  0  0  0  0  0  0  0  0
    2.8162    1.7756   11.3652 O   0  0  0  0  0  0  0  0  0  0  0  0
    2.7503    1.5077    8.0923 H   0  0  0  0  0  0  0  0  0  0  0  0
    0.9342    0.9968   10.1084 C   0  0  0  0  0  0  0  0  0  0  0  0
    0.7016    0.2342    8.8736 C   0  0  0  0  0  0  0  0  0  0  0  0
    0.0980    2.1061   10.4526 N   0  0  0  0  0  0  0  0  0  0  0  0
    0.0969    3.3507    9.8237 C   0  0  0  0  0  0  0  0  0  0  0  0
    0.7962    3.6664    8.8677 O   0  0  0  0  0  0  0  0  0  0  0  0
   -0.6056    1.9640   11.2701 H   0  0  0  0  0  0  0  0  0  0  0  0
   -0.8394    4.3902   10.3818 C   0  0  0  0  0  0  0  0  0  0  0  0
   -0.6596    5.6143    9.5152 C   0  0  0  0  0  0  0  0  0  0  0  0
   -0.6096    4.6082   11.8126 C   0  0  0  0  0  0  0  0  0  0  0  0
   -1.5829    5.4682   12.5787 C   0  0  0  0  0  0  0  0  0  0  0  0
    0.3279    4.1215   12.3926 O   0  0  0  0  0  0  0  0  0  0  0  0
    2.6126    6.7416   14.5380 C   0  0  0  0  0  0  0  0  0  0  0  0
    1.3439    7.1864   13.9188 C   0  0  0  0  0  0  0  0  0  0  0  0
    3.1050    4.2992   14.9537 N   0  0  0  0  0  0  0  0  0  0  0  0
    2.4699    5.5119   15.3150 C   0  0  0  0  0  0  0  0  0  0  0  0
    1.7750    5.5422   16.3432 O   0  0  0  0  0  0  0  0  0  0  0  0
    3.7569    4.2712   14.1352 H   0  0  0  0  0  0  0  0  0  0  0  0
    2.8914    3.0791   15.7281 C   0  0  0  0  0  0  0  0  0  0  0  0
    2.9170    1.9120   14.8089 C   0  0  0  0  0  0  0  0  0  0  0  0
    3.4987    3.3727   18.1125 N   0  0  0  0  0  0  0  0  0  0  0  0
    3.9333    2.9292   16.8215 C   0  0  0  0  0  0  0  0  0  0  0  0
    5.0436    2.5015   16.6278 O   0  0  0  0  0  0  0  0  0  0  0  0
    2.4787    3.6959   18.0943 H   0  0  0  0  0  0  0  0  0  0  0  0
    4.2051    3.4314   19.3400 C   0  0  0  0  0  0  0  0  0  0  0  0
    4.9892    4.6778   19.5726 C   0  0  0  0  0  0  0  0  0  0  0  0
    5.9801    4.8964   18.7675 O   0  0  0  0  0  0  0  0  0  0  0  0
    4.6884    5.5595   20.6052 N   0  0  0  0  0  0  0  0  0  0  0  0
    3.7629    5.2017   21.7251 C   0  0  0  0  0  0  0  0  0  0  0  0
    4.9351    5.1911   22.7782 C   0  0  0  0  0  0  0  0  0  0  0  0
    5.8462    6.3717   22.3106 C   0  0  0  0  0  0  0  0  0  0  0  0
    5.0473    6.8514   21.0806 C   0  0  0  0  0  0  0  0  0  0  0  0
    5.5634    7.8988   20.2883 C   0  0  0  0  0  0  0  0  0  0  0  0
    6.6469    8.4720   20.7414 O   0  0  0  0  0  0  0  0  0  0  0  0
    5.1157    8.4213   19.0789 N   0  0  0  0  0  0  0  0  0  0  0  0
    5.9152    9.4263   18.3682 C   0  0  0  0  0  0  0  0  0  0  0  0
    3.8759    8.0828   18.4390 C   0  0  0  0  0  0  0  0  0  0  0  0
    4.8619    2.1589   19.7239 C   0  0  0  0  0  0  0  0  0  0  0  0
    6.3727    1.1799   21.4616 C   0  0  0  0  0  0  0  0  0  0  0  0
    5.1065    1.9860   21.2062 C   0  0  0  0  0  0  0  0  0  0  0  0
    3.9620    1.1797   21.8133 C   0  0  0  0  0  0  0  0  0  0  0  0
 60 61  1  0  0  0
 61 62  1  0  0  0
 61 59  1  0  0  0
 59 46  1  0  0  0
 46 42  1  0  0  0
 42 43  1  0  0  0
 43 44  2  0  0  0
 43 40  1  0  0  0
 40 41  1  0  0  0
 40 36  1  0  0  0
 36 37  1  0  0  0
 37 38  2  0  0  0
 37 34  1  0  0  0
 34 35  1  0  0  0
 34  1  1  0  0  0
  1  2  1  0  0  0
  2  3  2  0  0  0
  2  5  1  0  0  0
  5  6  1  0  0  0
  5  7  1  0  0  0
  7  8  1  0  0  0
  8  9  2  0  0  0
  8 11  1  0  0  0
 11 12  1  0  0  0
 11 13  1  0  0  0
 13 14  1  0  0  0
 14 15  2  0  0  0
 14 17  1  0  0  0
 17 18  1  0  0  0
 17 19  1  0  0  0
 19 20  1  0  0  0
 20 21  2  0  0  0
 20 23  1  0  0  0
 23 24  1  0  0  0
 23 25  1  0  0  0
 25 26  1  0  0  0
 26 27  2  0  0  0
 26 29  1  0  0  0
 29 30  1  0  0  0
 29 31  1  0  0  0
 31 32  1  0  0  0
 31 33  2  0  0  0
 46 47  1  0  0  0
 47 48  2  0  0  0
 47 49  1  0  0  0
 49 50  1  0  0  0
 50 51  1  0  0  0
 51 52  1  0  0  0
 52 53  1  0  0  0
 53 54  1  0  0  0
 54 55  2  0  0  0
 54 56  1  0  0  0
 56 57  1  0  0  0
 56 58  1  0  0  0
 53 49  1  0  0  0
 42 45  1  0  0  0
 36 39  1  0  0  0
  1  4  1  0  0  0
  7 10  1  0  0  0
 13 16  1  0  0  0
 19 22  1  0  0  0
 25 28  1  0  0  0
M  END
> <minimizedAffinity>
-7.24440

> <CNNscore>
0.2897222042

> <CNNaffinity>
7.1166944504

> <CNN_VS>
2.0618643761

> <CNNaffinity_variance>
0.4682502151

$$$$
[H]N(C(=O)[C@@]([H])(N([H])C(=O)[C@@]([H])(N([H])C(=O)[C@@]([H])(C(=O)C([H])([H])[H])C([H])([H])[H])C([H])([H])[H])C([H])([H])[H])[C@]([H])(C(=O)N([H])[C@]([H])(C(=O)N([H])[C@]([H])(C(=O)N([H])[C@]([H])(C(=O)N([H])[C@]([H])(C(=O)N1C([H])([H])C([H])([H])C([H])([H])[C@@]1([H])C(=O)N(C([H])([H])[H])C([H])([H])[H])C([H])([H])C([H])(C([H])([H])[H])C([H])([H])[H])C([H])([H])[H])C([H])([H])[H])C([H])([H])[H])C([H])([H])[H]


 62 62  0  0  0  0  0  0  0  0999 V2000
    4.2841    3.2264   21.5011 N   0  0  0  0  0  0  0  0  0  0  0  0
    5.0097    2.1272   21.9955 C   0  0  0  0  0  0  0  0  0  0  0  0
    5.5853    2.0898   23.1005 O   0  0  0  0  0  0  0  0  0  0  0  0
    3.7827    3.0519   20.5372 H   0  0  0  0  0  0  0  0  0  0  0  0
    5.0545    0.9623   21.1100 C   0  0  0  0  0  0  0  0  0  0  0  0
    6.5413    0.5857   20.9368 C   0  0  0  0  0  0  0  0  0  0  0  0
    4.6613    1.3835   19.7159 N   0  0  0  0  0  0  0  0  0  0  0  0
    3.5192    0.8505   19.2158 C   0  0  0  0  0  0  0  0  0  0  0  0
    2.7813    0.0614   20.0136 O   0  0  0  0  0  0  0  0  0  0  0  0
    5.2883    2.0661   19.2585 H   0  0  0  0  0  0  0  0  0  0  0  0
    2.9071    0.9530   17.8283 C   0  0  0  0  0  0  0  0  0  0  0  0
    3.1713   -0.2591   17.0233 C   0  0  0  0  0  0  0  0  0  0  0  0
    3.7686    2.0444   17.3099 N   0  0  0  0  0  0  0  0  0  0  0  0
    3.3586    3.2973   16.8628 C   0  0  0  0  0  0  0  0  0  0  0  0
    2.2081    3.7039   16.7404 O   0  0  0  0  0  0  0  0  0  0  0  0
    4.7934    1.7671   17.2798 H   0  0  0  0  0  0  0  0  0  0  0  0
    4.5218    4.2278   16.5352 C   0  0  0  0  0  0  0  0  0  0  0  0
    5.4787    4.1329   17.7566 C   0  0  0  0  0  0  0  0  0  0  0  0
    4.1629    5.5556   16.3256 N   0  0  0  0  0  0  0  0  0  0  0  0
    3.8258    5.9974   15.0379 C   0  0  0  0  0  0  0  0  0  0  0  0
    3.8329    5.1589   14.0661 O   0  0  0  0  0  0  0  0  0  0  0  0
    4.1467    6.2457   17.1496 H   0  0  0  0  0  0  0  0  0  0  0  0
    3.4583    7.4222   14.7484 C   0  0  0  0  0  0  0  0  0  0  0  0
    3.9421    7.8670   13.4337 C   0  0  0  0  0  0  0  0  0  0  0  0
    3.7901    8.1494   15.9355 N   0  0  0  0  0  0  0  0  0  0  0  0
    3.4561    9.4780   16.1963 C   0  0  0  0  0  0  0  0  0  0  0  0
    2.8078   10.2082   15.4553 O   0  0  0  0  0  0  0  0  0  0  0  0
    4.3427    7.6174   16.7068 H   0  0  0  0  0  0  0  0  0  0  0  0
    3.9481   10.0566   17.4970 C   0  0  0  0  0  0  0  0  0  0  0  0
    2.8591   10.9904   17.9705 C   0  0  0  0  0  0  0  0  0  0  0  0
    5.2680   10.6749   17.3454 C   0  0  0  0  0  0  0  0  0  0  0  0
    5.6986   11.7158   18.3479 C   0  0  0  0  0  0  0  0  0  0  0  0
    6.0165   10.3763   16.4494 O   0  0  0  0  0  0  0  0  0  0  0  0
    4.0745    4.4904   22.0844 C   0  0  0  0  0  0  0  0  0  0  0  0
    3.8190    4.4638   23.5421 C   0  0  0  0  0  0  0  0  0  0  0  0
    4.6584    6.9400   21.8873 N   0  0  0  0  0  0  0  0  0  0  0  0
    4.9679    5.5741   21.6797 C   0  0  0  0  0  0  0  0  0  0  0  0
    6.0495    5.2780   21.1473 O   0  0  0  0  0  0  0  0  0  0  0  0
    3.7886    7.2090   22.4038 H   0  0  0  0  0  0  0  0  0  0  0  0
    5.5550    7.9935   21.4180 C   0  0  0  0  0  0  0  0  0  0  0  0
    4.7435    9.1504   20.9590 C   0  0  0  0  0  0  0  0  0  0  0  0
    7.7173    7.6144   22.5673 N   0  0  0  0  0  0  0  0  0  0  0  0
    6.5300    8.4133   22.5028 C   0  0  0  0  0  0  0  0  0  0  0  0
    6.3223    9.3209   23.2685 O   0  0  0  0  0  0  0  0  0  0  0  0
    7.7356    6.8743   21.7946 H   0  0  0  0  0  0  0  0  0  0  0  0
    8.8089    7.6778   23.4692 C   0  0  0  0  0  0  0  0  0  0  0  0
    9.6604    8.8971   23.3647 C   0  0  0  0  0  0  0  0  0  0  0  0
   10.0103    9.2575   22.1707 O   0  0  0  0  0  0  0  0  0  0  0  0
   10.0733    9.6099   24.4853 N   0  0  0  0  0  0  0  0  0  0  0  0
    9.9504    9.0674   25.8743 C   0  0  0  0  0  0  0  0  0  0  0  0
   11.5127    8.9338   26.0311 C   0  0  0  0  0  0  0  0  0  0  0  0
   12.0559   10.1939   25.2830 C   0  0  0  0  0  0  0  0  0  0  0  0
   10.7238   10.8272   24.8296 C   0  0  0  0  0  0  0  0  0  0  0  0
   10.7493   11.9927   24.0344 C   0  0  0  0  0  0  0  0  0  0  0  0
   11.9319   12.5033   23.8139 O   0  0  0  0  0  0  0  0  0  0  0  0
    9.7132   12.6913   23.4224 N   0  0  0  0  0  0  0  0  0  0  0  0
   10.0100   13.8061   22.5150 C   0  0  0  0  0  0  0  0  0  0  0  0
    8.3138   12.4395   23.6214 C   0  0  0  0  0  0  0  0  0  0  0  0
    9.5216    6.3906   23.6513 C   0  0  0  0  0  0  0  0  0  0  0  0
   10.8864    5.3161   21.8503 C   0  0  0  0  0  0  0  0  0  0  0  0
   10.8841    6.3150   22.9995 C   0  0  0  0  0  0  0  0  0  0  0  0
   11.8980    5.7947   24.0143 C   0  0  0  0  0  0  0  0  0  0  0  0
 60 61  1  0  0  0
 61 62  1  0  0  0
 61 59  1  0  0  0
 59 46  1  0  0  0
 46 42  1  0  0  0
 42 43  1  0  0  0
 43 44  2  0  0  0
 43 40  1  0  0  0
 40 41  1  0  0  0
 40 36  1  0  0  0
 36 37  1  0  0  0
 37 38  2  0  0  0
 37 34  1  0  0  0
 34 35  1  0  0  0
 34  1  1  0  0  0
  1  2  1  0  0  0
  2  3  2  0  0  0
  2  5  1  0  0  0
  5  6  1  0  0  0
  5  7  1  0  0  0
  7  8  1  0  0  0
  8  9  2  0  0  0
  8 11  1  0  0  0
 11 12  1  0  0  0
 11 13  1  0  0  0
 13 14  1  0  0  0
 14 15  2  0  0  0
 14 17  1  0  0  0
 17 18  1  0  0  0
 17 19  1  0  0  0
 19 20  1  0  0  0
 20 21  2  0  0  0
 20 23  1  0  0  0
 23 24  1  0  0  0
 23 25  1  0  0  0
 25 26  1  0  0  0
 26 27  2  0  0  0
 26 29  1  0  0  0
 29 30  1  0  0  0
 29 31  1  0  0  0
 31 32  1  0  0  0
 31 33  2  0  0  0
 46 47  1  0  0  0
 47 48  2  0  0  0
 47 49  1  0  0  0
 49 50  1  0  0  0
 50 51  1  0  0  0
 51 52  1  0  0  0
 52 53  1  0  0  0
 53 54  1  0  0  0
 54 55  2  0  0  0
 54 56  1  0  0  0
 56 57  1  0  0  0
 56 58  1  0  0  0
 53 49  1  0  0  0
 42 45  1  0  0  0
 36 39  1  0  0  0
  1  4  1  0  0  0
  7 10  1  0  0  0
 13 16  1  0  0  0
 19 22  1  0  0  0
 25 28  1  0  0  0
M  END
> <minimizedAffinity>
-8.37874

> <CNNscore>
0.2369369864

> <CNNaffinity>
7.2295389175

> <CNN_VS>
1.7129452229

> <CNNaffinity_variance>
0.3545323014

$$$$
[H]N(C(=O)[C@@]([H])(N([H])C(=O)[C@@]([H])(N([H])C(=O)[C@@]([H])(C(=O)C([H])([H])[H])C([H])([H])[H])C([H])([H])[H])C([H])([H])[H])[C@]([H])(C(=O)N([H])[C@]([H])(C(=O)N([H])[C@]([H])(C(=O)N([H])[C@]([H])(C(=O)N([H])[C@]([H])(C(=O)N1C([H])([H])C([H])([H])C([H])([H])[C@@]1([H])C(=O)N(C([H])([H])[H])C([H])([H])[H])C([H])([H])C([H])(C([H])([H])[H])C([H])([H])[H])C([H])([H])[H])C([H])([H])[H])C([H])([H])[H])C([H])([H])[H]


 62 62  0  0  0  0  0  0  0  0999 V2000
    3.4402    3.9109   15.0848 N   0  0  0  0  0  0  0  0  0  0  0  0
    3.5859    2.7576   15.8772 C   0  0  0  0  0  0  0  0  0  0  0  0
    3.4446    1.5882   15.4697 O   0  0  0  0  0  0  0  0  0  0  0  0
    3.6745    4.8557   15.5981 H   0  0  0  0  0  0  0  0  0  0  0  0
    3.9384    3.0049   17.2765 C   0  0  0  0  0  0  0  0  0  0  0  0
    5.3564    3.6145   17.2822 C   0  0  0  0  0  0  0  0  0  0  0  0
    4.1493    1.6849   17.9756 N   0  0  0  0  0  0  0  0  0  0  0  0
    4.1276    1.7012   19.3313 C   0  0  0  0  0  0  0  0  0  0  0  0
    3.8404    2.8578   19.9504 O   0  0  0  0  0  0  0  0  0  0  0  0
    4.2736    0.8643   17.3596 H   0  0  0  0  0  0  0  0  0  0  0  0
    4.4260    0.6008   20.3364 C   0  0  0  0  0  0  0  0  0  0  0  0
    3.2168   -0.1865   20.6603 C   0  0  0  0  0  0  0  0  0  0  0  0
    4.7323    1.4701   21.4995 N   0  0  0  0  0  0  0  0  0  0  0  0
    5.9892    1.7620   22.0216 C   0  0  0  0  0  0  0  0  0  0  0  0
    7.0677    1.2965   21.6695 O   0  0  0  0  0  0  0  0  0  0  0  0
    3.8538    1.8600   21.9515 H   0  0  0  0  0  0  0  0  0  0  0  0
    5.9499    2.8078   23.1312 C   0  0  0  0  0  0  0  0  0  0  0  0
    5.3410    2.0774   24.3610 C   0  0  0  0  0  0  0  0  0  0  0  0
    5.1936    3.9382   22.8382 N   0  0  0  0  0  0  0  0  0  0  0  0
    5.8025    5.0592   22.2554 C   0  0  0  0  0  0  0  0  0  0  0  0
    7.0553    5.0187   21.9788 O   0  0  0  0  0  0  0  0  0  0  0  0
    4.1422    3.9555   23.0611 H   0  0  0  0  0  0  0  0  0  0  0  0
    5.0432    6.3142   21.9435 C   0  0  0  0  0  0  0  0  0  0  0  0
    4.4367    6.2812   20.6051 C   0  0  0  0  0  0  0  0  0  0  0  0
    5.9073    7.3876   22.3299 N   0  0  0  0  0  0  0  0  0  0  0  0
    5.7107    8.7367   22.0366 C   0  0  0  0  0  0  0  0  0  0  0  0
    4.7549    9.2009   21.4255 O   0  0  0  0  0  0  0  0  0  0  0  0
    6.7900    7.1310   22.9116 H   0  0  0  0  0  0  0  0  0  0  0  0
    6.7749    9.6934   22.5066 C   0  0  0  0  0  0  0  0  0  0  0  0
    6.7660   10.8367   21.5193 C   0  0  0  0  0  0  0  0  0  0  0  0
    8.0689    9.0238   22.6634 C   0  0  0  0  0  0  0  0  0  0  0  0
    9.0662    9.1037   21.5351 C   0  0  0  0  0  0  0  0  0  0  0  0
    8.3591    8.4160   23.6626 O   0  0  0  0  0  0  0  0  0  0  0  0
    3.0845    4.0195   13.7270 C   0  0  0  0  0  0  0  0  0  0  0  0
    1.8541    3.2880   13.3500 C   0  0  0  0  0  0  0  0  0  0  0  0
    2.7767    6.5261   13.7787 N   0  0  0  0  0  0  0  0  0  0  0  0
    3.1749    5.3423   13.1120 C   0  0  0  0  0  0  0  0  0  0  0  0
    3.6367    5.4272   11.9628 O   0  0  0  0  0  0  0  0  0  0  0  0
    2.4579    6.4861   14.7749 H   0  0  0  0  0  0  0  0  0  0  0  0
    2.8326    7.8221   13.1070 C   0  0  0  0  0  0  0  0  0  0  0  0
    1.5921    8.0080   12.3104 C   0  0  0  0  0  0  0  0  0  0  0  0
    4.1522    8.8116   14.9563 N   0  0  0  0  0  0  0  0  0  0  0  0
    3.0103    8.9535   14.1029 C   0  0  0  0  0  0  0  0  0  0  0  0
    2.2480    9.8826   14.1968 O   0  0  0  0  0  0  0  0  0  0  0  0
    4.7216    7.9399   14.7092 H   0  0  0  0  0  0  0  0  0  0  0  0
    4.5998    9.6324   16.0216 C   0  0  0  0  0  0  0  0  0  0  0  0
    4.1273   11.0460   15.9875 C   0  0  0  0  0  0  0  0  0  0  0  0
    4.5714   11.7809   15.0177 O   0  0  0  0  0  0  0  0  0  0  0  0
    3.2651   11.5616   16.9492 N   0  0  0  0  0  0  0  0  0  0  0  0
    2.9742   10.8508   18.2332 C   0  0  0  0  0  0  0  0  0  0  0  0
    3.7325   11.9389   19.0840 C   0  0  0  0  0  0  0  0  0  0  0  0
    3.3827   13.2738   18.3503 C   0  0  0  0  0  0  0  0  0  0  0  0
    2.4927   12.7262   17.2149 C   0  0  0  0  0  0  0  0  0  0  0  0
    1.9940   13.6155   16.2392 C   0  0  0  0  0  0  0  0  0  0  0  0
    0.7671   13.3963   15.8460 O   0  0  0  0  0  0  0  0  0  0  0  0
    2.5918   14.7133   15.6280 N   0  0  0  0  0  0  0  0  0  0  0  0
    1.8089   15.5797   14.7388 C   0  0  0  0  0  0  0  0  0  0  0  0
    3.9719   15.0856   15.7615 C   0  0  0  0  0  0  0  0  0  0  0  0
    6.0187    9.4212   16.3960 C   0  0  0  0  0  0  0  0  0  0  0  0
    7.6186    8.9319   18.2565 C   0  0  0  0  0  0  0  0  0  0  0  0
    6.2346    8.6582   17.6837 C   0  0  0  0  0  0  0  0  0  0  0  0
    6.1852    7.1607   17.3943 C   0  0  0  0  0  0  0  0  0  0  0  0
 60 61  1  0  0  0
 61 62  1  0  0  0
 61 59  1  0  0  0
 59 46  1  0  0  0
 46 42  1  0  0  0
 42 43  1  0  0  0
 43 44  2  0  0  0
 43 40  1  0  0  0
 40 41  1  0  0  0
 40 36  1  0  0  0
 36 37  1  0  0  0
 37 38  2  0  0  0
 37 34  1  0  0  0
 34 35  1  0  0  0
 34  1  1  0  0  0
  1  2  1  0  0  0
  2  3  2  0  0  0
  2  5  1  0  0  0
  5  6  1  0  0  0
  5  7  1  0  0  0
  7  8  1  0  0  0
  8  9  2  0  0  0
  8 11  1  0  0  0
 11 12  1  0  0  0
 11 13  1  0  0  0
 13 14  1  0  0  0
 14 15  2  0  0  0
 14 17  1  0  0  0
 17 18  1  0  0  0
 17 19  1  0  0  0
 19 20  1  0  0  0
 20 21  2  0  0  0
 20 23  1  0  0  0
 23 24  1  0  0  0
 23 25  1  0  0  0
 25 26  1  0  0  0
 26 27  2  0  0  0
 26 29  1  0  0  0
 29 30  1  0  0  0
 29 31  1  0  0  0
 31 32  1  0  0  0
 31 33  2  0  0  0
 46 47  1  0  0  0
 47 48  2  0  0  0
 47 49  1  0  0  0
 49 50  1  0  0  0
 50 51  1  0  0  0
 51 52  1  0  0  0
 52 53  1  0  0  0
 53 54  1  0  0  0
 54 55  2  0  0  0
 54 56  1  0  0  0
 56 57  1  0  0  0
 56 58  1  0  0  0
 53 49  1  0  0  0
 42 45  1  0  0  0
 36 39  1  0  0  0
  1  4  1  0  0  0
  7 10  1  0  0  0
 13 16  1  0  0  0
 19 22  1  0  0  0
 25 28  1  0  0  0
M  END
> <minimizedAffinity>
-9.14772

> <CNNscore>
0.2236883789

> <CNNaffinity>
7.2085390091

> <CNN_VS>
1.6124664545

> <CNNaffinity_variance>
0.5409541130

$$$$
[H]N(C(=O)[C@@]([H])(N([H])C(=O)[C@@]([H])(N([H])C(=O)[C@@]([H])(C(=O)C([H])([H])[H])C([H])([H])[H])C([H])([H])[H])C([H])([H])[H])[C@]([H])(C(=O)N([H])[C@]([H])(C(=O)N([H])[C@]([H])(C(=O)N([H])[C@]([H])(C(=O)N([H])[C@]([H])(C(=O)N1C([H])([H])C([H])([H])C([H])([H])[C@@]1([H])C(=O)N(C([H])([H])[H])C([H])([H])[H])C([H])([H])C([H])(C([H])([H])[H])C([H])([H])[H])C([H])([H])[H])C([H])([H])[H])C([H])([H])[H])C([H])([H])[H]


 62 62  0  0  0  0  0  0  0  0999 V2000
    5.1538    8.1145   13.3980 N   0  0  0  0  0  0  0  0  0  0  0  0
    6.2002    8.7503   12.7052 C   0  0  0  0  0  0  0  0  0  0  0  0
    6.3637    9.9839   12.6335 O   0  0  0  0  0  0  0  0  0  0  0  0
    5.2115    7.0157   13.4130 H   0  0  0  0  0  0  0  0  0  0  0  0
    7.1452    7.8495   12.0428 C   0  0  0  0  0  0  0  0  0  0  0  0
    8.5495    8.4676   12.2116 C   0  0  0  0  0  0  0  0  0  0  0  0
    6.9359    7.9209   10.5506 N   0  0  0  0  0  0  0  0  0  0  0  0
    5.9989    7.0937   10.0248 C   0  0  0  0  0  0  0  0  0  0  0  0
    5.2719    6.3384   10.8644 O   0  0  0  0  0  0  0  0  0  0  0  0
    7.5135    8.6151   10.0479 H   0  0  0  0  0  0  0  0  0  0  0  0
    5.6274    6.8168    8.5772 C   0  0  0  0  0  0  0  0  0  0  0  0
    5.2389    8.0540    7.8663 C   0  0  0  0  0  0  0  0  0  0  0  0
    4.3959    6.0297    8.8339 N   0  0  0  0  0  0  0  0  0  0  0  0
    4.0816    4.7726    8.3252 C   0  0  0  0  0  0  0  0  0  0  0  0
    4.7240    4.1171    7.5118 O   0  0  0  0  0  0  0  0  0  0  0  0
    3.7119    6.5472    9.4602 H   0  0  0  0  0  0  0  0  0  0  0  0
    2.7984    4.1920    8.9105 C   0  0  0  0  0  0  0  0  0  0  0  0
    1.6479    4.8058    8.0642 C   0  0  0  0  0  0  0  0  0  0  0  0
    2.5917    4.4783   10.2563 N   0  0  0  0  0  0  0  0  0  0  0  0
    2.1221    3.4804   11.1227 C   0  0  0  0  0  0  0  0  0  0  0  0
    1.9076    2.3014   10.6627 O   0  0  0  0  0  0  0  0  0  0  0  0
    2.7883    5.4655   10.6334 H   0  0  0  0  0  0  0  0  0  0  0  0
    1.8550    3.7389   12.5755 C   0  0  0  0  0  0  0  0  0  0  0  0
    1.3888    2.5359   13.2798 C   0  0  0  0  0  0  0  0  0  0  0  0
    1.0942    4.9505   12.6127 N   0  0  0  0  0  0  0  0  0  0  0  0
   -0.2343    5.0901   12.2123 C   0  0  0  0  0  0  0  0  0  0  0  0
   -0.9505    4.1879   11.7929 O   0  0  0  0  0  0  0  0  0  0  0  0
    1.5916    5.8389   12.9957 H   0  0  0  0  0  0  0  0  0  0  0  0
   -0.8249    6.4731   12.2969 C   0  0  0  0  0  0  0  0  0  0  0  0
    0.2492    7.4108   11.7981 C   0  0  0  0  0  0  0  0  0  0  0  0
   -1.3211    6.7645   13.6445 C   0  0  0  0  0  0  0  0  0  0  0  0
   -2.7675    7.1558   13.8140 C   0  0  0  0  0  0  0  0  0  0  0  0
   -0.6119    6.6992   14.6167 O   0  0  0  0  0  0  0  0  0  0  0  0
    4.0793    8.6845   14.1068 C   0  0  0  0  0  0  0  0  0  0  0  0
    2.8383    7.8778   14.1019 C   0  0  0  0  0  0  0  0  0  0  0  0
    3.4179    9.3401   16.4549 N   0  0  0  0  0  0  0  0  0  0  0  0
    4.3723    9.2758   15.4109 C   0  0  0  0  0  0  0  0  0  0  0  0
    5.5124    9.7237   15.6118 O   0  0  0  0  0  0  0  0  0  0  0  0
    2.4764    8.8991   16.3337 H   0  0  0  0  0  0  0  0  0  0  0  0
    3.7355    9.9890   17.7245 C   0  0  0  0  0  0  0  0  0  0  0  0
    2.6781   10.9852   18.0363 C   0  0  0  0  0  0  0  0  0  0  0  0
    3.7544    7.6110   18.4209 N   0  0  0  0  0  0  0  0  0  0  0  0
    3.8700    8.9744   18.8452 C   0  0  0  0  0  0  0  0  0  0  0  0
    4.0322    9.2775   20.0006 O   0  0  0  0  0  0  0  0  0  0  0  0
    3.6381    7.5382   17.3597 H   0  0  0  0  0  0  0  0  0  0  0  0
    3.7767    6.4159   19.1826 C   0  0  0  0  0  0  0  0  0  0  0  0
    5.0663    6.1120   19.8661 C   0  0  0  0  0  0  0  0  0  0  0  0
    6.1400    6.2203   19.1497 O   0  0  0  0  0  0  0  0  0  0  0  0
    5.1230    5.7196   21.1992 N   0  0  0  0  0  0  0  0  0  0  0  0
    3.9102    5.2936   21.9649 C   0  0  0  0  0  0  0  0  0  0  0  0
    4.4065    3.8004   22.0485 C   0  0  0  0  0  0  0  0  0  0  0  0
    5.9507    3.9472   22.2393 C   0  0  0  0  0  0  0  0  0  0  0  0
    6.0732    5.4855   22.2316 C   0  0  0  0  0  0  0  0  0  0  0  0
    7.3520    6.0762   22.3137 C   0  0  0  0  0  0  0  0  0  0  0  0
    8.3572    5.2446   22.3917 O   0  0  0  0  0  0  0  0  0  0  0  0
    7.7304    7.4152   22.3090 N   0  0  0  0  0  0  0  0  0  0  0  0
    9.1511    7.7804   22.2577 C   0  0  0  0  0  0  0  0  0  0  0  0
    6.8293    8.5305   22.3830 C   0  0  0  0  0  0  0  0  0  0  0  0
    3.0875    5.2723   18.5383 C   0  0  0  0  0  0  0  0  0  0  0  0
    2.2729    4.7837   16.2235 C   0  0  0  0  0  0  0  0  0  0  0  0
    3.4936    5.0039   17.1065 C   0  0  0  0  0  0  0  0  0  0  0  0
    4.2978    3.7084   17.0471 C   0  0  0  0  0  0  0  0  0  0  0  0
 60 61  1  0  0  0
 61 62  1  0  0  0
 61 59  1  0  0  0
 59 46  1  0  0  0
 46 42  1  0  0  0
 42 43  1  0  0  0
 43 44  2  0  0  0
 43 40  1  0  0  0
 40 41  1  0  0  0
 40 36  1  0  0  0
 36 37  1  0  0  0
 37 38  2  0  0  0
 37 34  1  0  0  0
 34 35  1  0  0  0
 34  1  1  0  0  0
  1  2  1  0  0  0
  2  3  2  0  0  0
  2  5  1  0  0  0
  5  6  1  0  0  0
  5  7  1  0  0  0
  7  8  1  0  0  0
  8  9  2  0  0  0
  8 11  1  0  0  0
 11 12  1  0  0  0
 11 13  1  0  0  0
 13 14  1  0  0  0
 14 15  2  0  0  0
 14 17  1  0  0  0
 17 18  1  0  0  0
 17 19  1  0  0  0
 19 20  1  0  0  0
 20 21  2  0  0  0
 20 23  1  0  0  0
 23 24  1  0  0  0
 23 25  1  0  0  0
 25 26  1  0  0  0
 26 27  2  0  0  0
 26 29  1  0  0  0
 29 30  1  0  0  0
 29 31  1  0  0  0
 31 32  1  0  0  0
 31 33  2  0  0  0
 46 47  1  0  0  0
 47 48  2  0  0  0
 47 49  1  0  0  0
 49 50  1  0  0  0
 50 51  1  0  0  0
 51 52  1  0  0  0
 52 53  1  0  0  0
 53 54  1  0  0  0
 54 55  2  0  0  0
 54 56  1  0  0  0
 56 57  1  0  0  0
 56 58  1  0  0  0
 53 49  1  0  0  0
 42 45  1  0  0  0
 36 39  1  0  0  0
  1  4  1  0  0  0
  7 10  1  0  0  0
 13 16  1  0  0  0
 19 22  1  0  0  0
 25 28  1  0  0  0
M  END
> <minimizedAffinity>
-8.20697

> <CNNscore>
0.2076580226

> <CNNaffinity>
6.7410888672

> <CNN_VS>
1.3998411894

> <CNNaffinity_variance>
0.6997357011

$$$$
[H]N(C(=O)[C@@]([H])(N([H])C(=O)[C@@]([H])(N([H])C(=O)[C@@]([H])(C(=O)C([H])([H])[H])C([H])([H])[H])C([H])([H])[H])C([H])([H])[H])[C@]([H])(C(=O)N([H])[C@]([H])(C(=O)N([H])[C@]([H])(C(=O)N([H])[C@]([H])(C(=O)N([H])[C@]([H])(C(=O)N1C([H])([H])C([H])([H])C([H])([H])[C@@]1([H])C(=O)N(C([H])([H])[H])C([H])([H])[H])C([H])([H])C([H])(C([H])([H])[H])C([H])([H])[H])C([H])([H])[H])C([H])([H])[H])C([H])([H])[H])C([H])([H])[H]


 62 62  0  0  0  0  0  0  0  0999 V2000
    2.8822   11.5110   16.2611 N   0  0  0  0  0  0  0  0  0  0  0  0
    3.5003   12.7746   16.2869 C   0  0  0  0  0  0  0  0  0  0  0  0
    4.6949   12.9914   16.0051 O   0  0  0  0  0  0  0  0  0  0  0  0
    1.8018   11.5219   16.4695 H   0  0  0  0  0  0  0  0  0  0  0  0
    2.6284   13.8857   16.6723 C   0  0  0  0  0  0  0  0  0  0  0  0
    2.8029   14.9859   15.6038 C   0  0  0  0  0  0  0  0  0  0  0  0
    3.1827   14.5446   17.9109 N   0  0  0  0  0  0  0  0  0  0  0  0
    2.8068   14.0190   19.1029 C   0  0  0  0  0  0  0  0  0  0  0  0
    2.0458   12.9123   19.1001 O   0  0  0  0  0  0  0  0  0  0  0  0
    3.8262   15.3372   17.7492 H   0  0  0  0  0  0  0  0  0  0  0  0
    3.0671   14.5016   20.5205 C   0  0  0  0  0  0  0  0  0  0  0  0
    2.2232   15.6660   20.8652 C   0  0  0  0  0  0  0  0  0  0  0  0
    4.4547   14.9858   20.3152 N   0  0  0  0  0  0  0  0  0  0  0  0
    5.4084   15.2419   21.2963 C   0  0  0  0  0  0  0  0  0  0  0  0
    5.2574   15.1909   22.5123 O   0  0  0  0  0  0  0  0  0  0  0  0
    4.6719   15.1591   19.2901 H   0  0  0  0  0  0  0  0  0  0  0  0
    6.7793   15.5888   20.7247 C   0  0  0  0  0  0  0  0  0  0  0  0
    6.4900   16.4000   19.4306 C   0  0  0  0  0  0  0  0  0  0  0  0
    7.5764   14.4904   20.4185 N   0  0  0  0  0  0  0  0  0  0  0  0
    8.5305   14.0359   21.3406 C   0  0  0  0  0  0  0  0  0  0  0  0
    8.6415   14.6316   22.4721 O   0  0  0  0  0  0  0  0  0  0  0  0
    7.4647   13.9905   19.4735 H   0  0  0  0  0  0  0  0  0  0  0  0
    9.4354   12.8751   21.0534 C   0  0  0  0  0  0  0  0  0  0  0  0
    9.5966   12.6366   19.6120 C   0  0  0  0  0  0  0  0  0  0  0  0
    8.9983   11.8273   21.9248 N   0  0  0  0  0  0  0  0  0  0  0  0
    7.7043   11.3119   21.9929 C   0  0  0  0  0  0  0  0  0  0  0  0
    6.7590   11.6660   21.2976 O   0  0  0  0  0  0  0  0  0  0  0  0
    9.7419   11.3870   22.5855 H   0  0  0  0  0  0  0  0  0  0  0  0
    7.4572   10.2370   23.0186 C   0  0  0  0  0  0  0  0  0  0  0  0
    8.3132   10.5992   24.2093 C   0  0  0  0  0  0  0  0  0  0  0  0
    7.7007    8.9013   22.4673 C   0  0  0  0  0  0  0  0  0  0  0  0
    7.1470    7.7046   23.1991 C   0  0  0  0  0  0  0  0  0  0  0  0
    8.3253    8.7316   21.4507 O   0  0  0  0  0  0  0  0  0  0  0  0
    3.4394   10.2529   15.9635 C   0  0  0  0  0  0  0  0  0  0  0  0
    3.8121   10.0621   14.5438 C   0  0  0  0  0  0  0  0  0  0  0  0
    4.0867    9.1192   18.1260 N   0  0  0  0  0  0  0  0  0  0  0  0
    4.4346    9.7214   16.8928 C   0  0  0  0  0  0  0  0  0  0  0  0
    5.6326    9.7885   16.5745 O   0  0  0  0  0  0  0  0  0  0  0  0
    3.0801    8.9823   18.3783 H   0  0  0  0  0  0  0  0  0  0  0  0
    5.1163    8.6503   19.0502 C   0  0  0  0  0  0  0  0  0  0  0  0
    4.6848    8.9399   20.4423 C   0  0  0  0  0  0  0  0  0  0  0  0
    4.2342    6.3351   19.0046 N   0  0  0  0  0  0  0  0  0  0  0  0
    5.3908    7.1690   18.8663 C   0  0  0  0  0  0  0  0  0  0  0  0
    6.4875    6.7178   18.6499 O   0  0  0  0  0  0  0  0  0  0  0  0
    3.3497    6.9142   19.1702 H   0  0  0  0  0  0  0  0  0  0  0  0
    4.1182    4.9235   18.9498 C   0  0  0  0  0  0  0  0  0  0  0  0
    3.2798    4.3891   17.8389 C   0  0  0  0  0  0  0  0  0  0  0  0
    2.0880    4.8834   17.7245 O   0  0  0  0  0  0  0  0  0  0  0  0
    3.7395    3.4024   16.9733 N   0  0  0  0  0  0  0  0  0  0  0  0
    4.9718    2.6000   17.2495 C   0  0  0  0  0  0  0  0  0  0  0  0
    4.1415    1.2799   17.4751 C   0  0  0  0  0  0  0  0  0  0  0  0
    2.9992    1.3905   16.4142 C   0  0  0  0  0  0  0  0  0  0  0  0
    3.3674    2.7430   15.7690 C   0  0  0  0  0  0  0  0  0  0  0  0
    2.5300    3.2809   14.7686 C   0  0  0  0  0  0  0  0  0  0  0  0
    1.6176    2.4726   14.2974 O   0  0  0  0  0  0  0  0  0  0  0  0
    2.5008    4.5516   14.2023 N   0  0  0  0  0  0  0  0  0  0  0  0
    1.4284    4.9195   13.2702 C   0  0  0  0  0  0  0  0  0  0  0  0
    3.4776    5.5799   14.4249 C   0  0  0  0  0  0  0  0  0  0  0  0
    3.9486    4.2764   20.2728 C   0  0  0  0  0  0  0  0  0  0  0  0
    6.0020    4.4154   21.6957 C   0  0  0  0  0  0  0  0  0  0  0  0
    4.6182    4.9902   21.4256 C   0  0  0  0  0  0  0  0  0  0  0  0
    3.8083    4.7587   22.6981 C   0  0  0  0  0  0  0  0  0  0  0  0
 60 61  1  0  0  0
 61 62  1  0  0  0
 61 59  1  0  0  0
 59 46  1  0  0  0
 46 42  1  0  0  0
 42 43  1  0  0  0
 43 44  2  0  0  0
 43 40  1  0  0  0
 40 41  1  0  0  0
 40 36  1  0  0  0
 36 37  1  0  0  0
 37 38  2  0  0  0
 37 34  1  0  0  0
 34 35  1  0  0  0
 34  1  1  0  0  0
  1  2  1  0  0  0
  2  3  2  0  0  0
  2  5  1  0  0  0
  5  6  1  0  0  0
  5  7  1  0  0  0
  7  8  1  0  0  0
  8  9  2  0  0  0
  8 11  1  0  0  0
 11 12  1  0  0  0
 11 13  1  0  0  0
 13 14  1  0  0  0
 14 15  2  0  0  0
 14 17  1  0  0  0
 17 18  1  0  0  0
 17 19  1  0  0  0
 19 20  1  0  0  0
 20 21  2  0  0  0
 20 23  1  0  0  0
 23 24  1  0  0  0
 23 25  1  0  0  0
 25 26  1  0  0  0
 26 27  2  0  0  0
 26 29  1  0  0  0
 29 30  1  0  0  0
 29 31  1  0  0  0
 31 32  1  0  0  0
 31 33  2  0  0  0
 46 47  1  0  0  0
 47 48  2  0  0  0
 47 49  1  0  0  0
 49 50  1  0  0  0
 50 51  1  0  0  0
 51 52  1  0  0  0
 52 53  1  0  0  0
 53 54  1  0  0  0
 54 55  2  0  0  0
 54 56  1  0  0  0
 56 57  1  0  0  0
 56 58  1  0  0  0
 53 49  1  0  0  0
 42 45  1  0  0  0
 36 39  1  0  0  0
  1  4  1  0  0  0
  7 10  1  0  0  0
 13 16  1  0  0  0
 19 22  1  0  0  0
 25 28  1  0  0  0
M  END
> <minimizedAffinity>
-7.86921

> <CNNscore>
0.2022310793

> <CNNaffinity>
6.6505479813

> <CNN_VS>
1.3449474573

> <CNNaffinity_variance>
0.5461704135

$$$$
[H]N(C(=O)[C@@]([H])(N([H])C(=O)[C@@]([H])(N([H])C(=O)[C@@]([H])(C(=O)C([H])([H])[H])C([H])([H])[H])C([H])([H])[H])C([H])([H])[H])[C@]([H])(C(=O)N([H])[C@]([H])(C(=O)N([H])[C@]([H])(C(=O)N([H])[C@]([H])(C(=O)N([H])[C@]([H])(C(=O)N1C([H])([H])C([H])([H])C([H])([H])[C@@]1([H])C(=O)N(C([H])([H])[H])C([H])([H])[H])C([H])([H])C([H])(C([H])([H])[H])C([H])([H])[H])C([H])([H])[H])C([H])([H])[H])C([H])([H])[H])C([H])([H])[H]


 62 62  0  0  0  0  0  0  0  0999 V2000
    3.6710    1.3179   17.7306 N   0  0  0  0  0  0  0  0  0  0  0  0
    4.4182    1.8349   18.8047 C   0  0  0  0  0  0  0  0  0  0  0  0
    5.0091    2.9324   18.8011 O   0  0  0  0  0  0  0  0  0  0  0  0
    3.1590    0.3668   17.9407 H   0  0  0  0  0  0  0  0  0  0  0  0
    4.4667    0.9842   19.9951 C   0  0  0  0  0  0  0  0  0  0  0  0
    3.0975    0.2796   20.1006 C   0  0  0  0  0  0  0  0  0  0  0  0
    4.4800    1.8549   21.2269 N   0  0  0  0  0  0  0  0  0  0  0  0
    5.6393    1.9033   21.9285 C   0  0  0  0  0  0  0  0  0  0  0  0
    6.7070    1.2502   21.4414 O   0  0  0  0  0  0  0  0  0  0  0  0
    3.6035    2.3650   21.4268 H   0  0  0  0  0  0  0  0  0  0  0  0
    5.9603    2.5621   23.2601 C   0  0  0  0  0  0  0  0  0  0  0  0
    5.0634    2.0869   24.3356 C   0  0  0  0  0  0  0  0  0  0  0  0
    5.5548    3.9441   22.9023 N   0  0  0  0  0  0  0  0  0  0  0  0
    6.3749    4.9630   22.4260 C   0  0  0  0  0  0  0  0  0  0  0  0
    7.5931    4.9345   22.2877 O   0  0  0  0  0  0  0  0  0  0  0  0
    4.5209    4.1163   23.0741 H   0  0  0  0  0  0  0  0  0  0  0  0
    5.6031    6.2147   22.0210 C   0  0  0  0  0  0  0  0  0  0  0  0
    4.5216    5.7225   21.0187 C   0  0  0  0  0  0  0  0  0  0  0  0
    6.3755    7.2063   21.4243 N   0  0  0  0  0  0  0  0  0  0  0  0
    5.9472    8.5415   21.4508 C   0  0  0  0  0  0  0  0  0  0  0  0
    4.8499    8.8357   22.0483 O   0  0  0  0  0  0  0  0  0  0  0  0
    7.2999    6.9501   20.9392 H   0  0  0  0  0  0  0  0  0  0  0  0
    6.7244    9.6471   20.8007 C   0  0  0  0  0  0  0  0  0  0  0  0
    7.7025   10.2538   21.7149 C   0  0  0  0  0  0  0  0  0  0  0  0
    5.7505   10.4532   20.1300 N   0  0  0  0  0  0  0  0  0  0  0  0
    5.4821   10.4357   18.7617 C   0  0  0  0  0  0  0  0  0  0  0  0
    6.0259    9.7083   17.9384 O   0  0  0  0  0  0  0  0  0  0  0  0
    5.1605   11.1326   20.7414 H   0  0  0  0  0  0  0  0  0  0  0  0
    4.4418   11.4043   18.2636 C   0  0  0  0  0  0  0  0  0  0  0  0
    4.7593   12.7253   18.9239 C   0  0  0  0  0  0  0  0  0  0  0  0
    3.0847   10.9058   18.5023 C   0  0  0  0  0  0  0  0  0  0  0  0
    1.9159   11.7857   18.1366 C   0  0  0  0  0  0  0  0  0  0  0  0
    2.8757    9.8184   18.9779 O   0  0  0  0  0  0  0  0  0  0  0  0
    3.4522    1.8660   16.4525 C   0  0  0  0  0  0  0  0  0  0  0  0
    2.5700    1.0613   15.5776 C   0  0  0  0  0  0  0  0  0  0  0  0
    4.1867    4.2532   16.0752 N   0  0  0  0  0  0  0  0  0  0  0  0
    3.1827    3.3003   16.3730 C   0  0  0  0  0  0  0  0  0  0  0  0
    2.0196    3.6922   16.5589 O   0  0  0  0  0  0  0  0  0  0  0  0
    5.1564    3.9381   15.8387 H   0  0  0  0  0  0  0  0  0  0  0  0
    3.8854    5.6825   16.0596 C   0  0  0  0  0  0  0  0  0  0  0  0
    4.9047    6.4005   16.8678 C   0  0  0  0  0  0  0  0  0  0  0  0
    3.9030    5.2138   13.6264 N   0  0  0  0  0  0  0  0  0  0  0  0
    3.8408    6.2224   14.6418 C   0  0  0  0  0  0  0  0  0  0  0  0
    3.7861    7.3977   14.3793 O   0  0  0  0  0  0  0  0  0  0  0  0
    3.9229    4.2310   14.0494 H   0  0  0  0  0  0  0  0  0  0  0  0
    3.9360    5.3438   12.2154 C   0  0  0  0  0  0  0  0  0  0  0  0
    2.6106    5.3047   11.5341 C   0  0  0  0  0  0  0  0  0  0  0  0
    2.0539    4.1408   11.4185 O   0  0  0  0  0  0  0  0  0  0  0  0
    2.0013    6.4505   11.0339 N   0  0  0  0  0  0  0  0  0  0  0  0
    2.7319    7.7466   10.8756 C   0  0  0  0  0  0  0  0  0  0  0  0
    2.6744    7.6628    9.3031 C   0  0  0  0  0  0  0  0  0  0  0  0
    1.2661    7.0426    9.0296 C   0  0  0  0  0  0  0  0  0  0  0  0
    0.7633    6.8784   10.4792 C   0  0  0  0  0  0  0  0  0  0  0  0
   -0.4888    6.2701   10.7104 C   0  0  0  0  0  0  0  0  0  0  0  0
   -1.0918    5.7934    9.6535 O   0  0  0  0  0  0  0  0  0  0  0  0
   -1.1930    6.0744   11.8945 N   0  0  0  0  0  0  0  0  0  0  0  0
   -2.4245    5.2759   11.8972 C   0  0  0  0  0  0  0  0  0  0  0  0
   -0.8361    6.6263   13.1709 C   0  0  0  0  0  0  0  0  0  0  0  0
    5.0347    4.5929   11.5620 C   0  0  0  0  0  0  0  0  0  0  0  0
    6.5117    4.2508    9.5715 C   0  0  0  0  0  0  0  0  0  0  0  0
    5.5414    5.1936   10.2700 C   0  0  0  0  0  0  0  0  0  0  0  0
    6.3330    6.4604   10.5817 C   0  0  0  0  0  0  0  0  0  0  0  0
 60 61  1  0  0  0
 61 62  1  0  0  0
 61 59  1  0  0  0
 59 46  1  0  0  0
 46 42  1  0  0  0
 42 43  1  0  0  0
 43 44  2  0  0  0
 43 40  1  0  0  0
 40 41  1  0  0  0
 40 36  1  0  0  0
 36 37  1  0  0  0
 37 38  2  0  0  0
 37 34  1  0  0  0
 34 35  1  0  0  0
 34  1  1  0  0  0
  1  2  1  0  0  0
  2  3  2  0  0  0
  2  5  1  0  0  0
  5  6  1  0  0  0
  5  7  1  0  0  0
  7  8  1  0  0  0
  8  9  2  0  0  0
  8 11  1  0  0  0
 11 12  1  0  0  0
 11 13  1  0  0  0
 13 14  1  0  0  0
 14 15  2  0  0  0
 14 17  1  0  0  0
 17 18  1  0  0  0
 17 19  1  0  0  0
 19 20  1  0  0  0
 20 21  2  0  0  0
 20 23  1  0  0  0
 23 24  1  0  0  0
 23 25  1  0  0  0
 25 26  1  0  0  0
 26 27  2  0  0  0
 26 29  1  0  0  0
 29 30  1  0  0  0
 29 31  1  0  0  0
 31 32  1  0  0  0
 31 33  2  0  0  0
 46 47  1  0  0  0
 47 48  2  0  0  0
 47 49  1  0  0  0
 49 50  1  0  0  0
 50 51  1  0  0  0
 51 52  1  0  0  0
 52 53  1  0  0  0
 53 54  1  0  0  0
 54 55  2  0  0  0
 54 56  1  0  0  0
 56 57  1  0  0  0
 56 58  1  0  0  0
 53 49  1  0  0  0
 42 45  1  0  0  0
 36 39  1  0  0  0
  1  4  1  0  0  0
  7 10  1  0  0  0
 13 16  1  0  0  0
 19 22  1  0  0  0
 25 28  1  0  0  0
M  END
> <minimizedAffinity>
-8.13381

> <CNNscore>
0.1933765560

> <CNNaffinity>
6.8709144592

> <CNN_VS>
1.3286737204

> <CNNaffinity_variance>
0.8009095192

$$$$
[H]N(C(=O)[C@@]([H])(N([H])C(=O)[C@@]([H])(N([H])C(=O)[C@@]([H])(C(=O)C([H])([H])[H])C([H])([H])[H])C([H])([H])[H])C([H])([H])[H])[C@]([H])(C(=O)N([H])[C@]([H])(C(=O)N([H])[C@]([H])(C(=O)N([H])[C@]([H])(C(=O)N([H])[C@]([H])(C(=O)N1C([H])([H])C([H])([H])C([H])([H])[C@@]1([H])C(=O)N(C([H])([H])[H])C([H])([H])[H])C([H])([H])C([H])(C([H])([H])[H])C([H])([H])[H])C([H])([H])[H])C([H])([H])[H])C([H])([H])[H])C([H])([H])[H]


 62 62  0  0  0  0  0  0  0  0999 V2000
    5.3429    8.1471   18.3150 N   0  0  0  0  0  0  0  0  0  0  0  0
    5.8469    9.4594   18.3712 C   0  0  0  0  0  0  0  0  0  0  0  0
    6.6445    9.9541   17.5510 O   0  0  0  0  0  0  0  0  0  0  0  0
    4.5924    7.9082   19.0835 H   0  0  0  0  0  0  0  0  0  0  0  0
    5.3599   10.2653   19.4923 C   0  0  0  0  0  0  0  0  0  0  0  0
    4.5120    9.3319   20.3824 C   0  0  0  0  0  0  0  0  0  0  0  0
    4.3359   11.2510   18.9868 N   0  0  0  0  0  0  0  0  0  0  0  0
    4.5959   12.5648   19.1985 C   0  0  0  0  0  0  0  0  0  0  0  0
    5.7690   12.9001   19.7600 O   0  0  0  0  0  0  0  0  0  0  0  0
    3.5221   10.8430   18.4972 H   0  0  0  0  0  0  0  0  0  0  0  0
    3.7398   13.7941   18.9420 C   0  0  0  0  0  0  0  0  0  0  0  0
    2.6747   13.9403   19.9575 C   0  0  0  0  0  0  0  0  0  0  0  0
    3.1090   13.3384   17.6785 N   0  0  0  0  0  0  0  0  0  0  0  0
    3.0345   14.0378   16.4772 C   0  0  0  0  0  0  0  0  0  0  0  0
    3.4049   15.1867   16.2609 O   0  0  0  0  0  0  0  0  0  0  0  0
    2.6639   12.3789   17.7753 H   0  0  0  0  0  0  0  0  0  0  0  0
    2.4443   13.2130   15.3381 C   0  0  0  0  0  0  0  0  0  0  0  0
    0.9348   13.5829   15.3040 C   0  0  0  0  0  0  0  0  0  0  0  0
    2.5843   11.8365   15.4839 N   0  0  0  0  0  0  0  0  0  0  0  0
    3.6566   11.1707   14.8724 C   0  0  0  0  0  0  0  0  0  0  0  0
    4.5128   11.8490   14.1984 O   0  0  0  0  0  0  0  0  0  0  0  0
    1.8691   11.2806   16.0626 H   0  0  0  0  0  0  0  0  0  0  0  0
    3.8419    9.6859   14.9722 C   0  0  0  0  0  0  0  0  0  0  0  0
    5.1119    9.2412   14.3808 C   0  0  0  0  0  0  0  0  0  0  0  0
    2.5983    9.1180   14.5491 N   0  0  0  0  0  0  0  0  0  0  0  0
    2.4118    7.8123   14.0962 C   0  0  0  0  0  0  0  0  0  0  0  0
    3.2835    6.9541   14.0183 O   0  0  0  0  0  0  0  0  0  0  0  0
    1.7189    9.7568   14.5935 H   0  0  0  0  0  0  0  0  0  0  0  0
    1.0194    7.4402   13.6587 C   0  0  0  0  0  0  0  0  0  0  0  0
    0.8111    6.0154   14.1155 C   0  0  0  0  0  0  0  0  0  0  0  0
    0.8298    7.6615   12.2226 C   0  0  0  0  0  0  0  0  0  0  0  0
   -0.0623    6.7173   11.4567 C   0  0  0  0  0  0  0  0  0  0  0  0
    1.3612    8.5720   11.6387 O   0  0  0  0  0  0  0  0  0  0  0  0
    5.6285    7.1221   17.3933 C   0  0  0  0  0  0  0  0  0  0  0  0
    6.9332    6.4534   17.5971 C   0  0  0  0  0  0  0  0  0  0  0  0
    4.7401    5.0581   16.2395 N   0  0  0  0  0  0  0  0  0  0  0  0
    4.5512    6.1884   17.0709 C   0  0  0  0  0  0  0  0  0  0  0  0
    3.4296    6.3906   17.5631 O   0  0  0  0  0  0  0  0  0  0  0  0
    5.6944    4.8258   15.8776 H   0  0  0  0  0  0  0  0  0  0  0  0
    3.6230    4.1809   15.8984 C   0  0  0  0  0  0  0  0  0  0  0  0
    3.9222    3.4929   14.6159 C   0  0  0  0  0  0  0  0  0  0  0  0
    4.1387    3.3737   18.1838 N   0  0  0  0  0  0  0  0  0  0  0  0
    3.3540    3.1743   17.0020 C   0  0  0  0  0  0  0  0  0  0  0  0
    2.5706    2.2642   16.8955 O   0  0  0  0  0  0  0  0  0  0  0  0
    4.7578    4.2428   18.1024 H   0  0  0  0  0  0  0  0  0  0  0  0
    4.1941    2.6132   19.3786 C   0  0  0  0  0  0  0  0  0  0  0  0
    5.1351    3.1169   20.4193 C   0  0  0  0  0  0  0  0  0  0  0  0
    6.0884    2.3147   20.7740 O   0  0  0  0  0  0  0  0  0  0  0  0
    4.9977    4.3756   20.9947 N   0  0  0  0  0  0  0  0  0  0  0  0
    3.7584    5.1996   20.8410 C   0  0  0  0  0  0  0  0  0  0  0  0
    3.3837    5.0394   22.3632 C   0  0  0  0  0  0  0  0  0  0  0  0
    4.7717    5.0891   23.0799 C   0  0  0  0  0  0  0  0  0  0  0  0
    5.6951    5.2670   21.8564 C   0  0  0  0  0  0  0  0  0  0  0  0
    7.0932    5.2938   22.0453 C   0  0  0  0  0  0  0  0  0  0  0  0
    7.6068    4.2441   22.6304 O   0  0  0  0  0  0  0  0  0  0  0  0
    8.0339    6.2568   21.6935 N   0  0  0  0  0  0  0  0  0  0  0  0
    9.4661    5.9878   21.8684 C   0  0  0  0  0  0  0  0  0  0  0  0
    7.7298    7.5624   21.1794 C   0  0  0  0  0  0  0  0  0  0  0  0
    4.1712    1.1461   19.1661 C   0  0  0  0  0  0  0  0  0  0  0  0
    3.7075   -0.4908   21.0008 C   0  0  0  0  0  0  0  0  0  0  0  0
    3.0978    0.4048   19.9310 C   0  0  0  0  0  0  0  0  0  0  0  0
    2.3518   -0.5237   18.9769 C   0  0  0  0  0  0  0  0  0  0  0  0
 60 61  1  0  0  0
 61 62  1  0  0  0
 61 59  1  0  0  0
 59 46  1  0  0  0
 46 42  1  0  0  0
 42 43  1  0  0  0
 43 44  2  0  0  0
 43 40  1  0  0  0
 40 41  1  0  0  0
 40 36  1  0  0  0
 36 37  1  0  0  0
 37 38  2  0  0  0
 37 34  1  0  0  0
 34 35  1  0  0  0
 34  1  1  0  0  0
  1  2  1  0  0  0
  2  3  2  0  0  0
  2  5  1  0  0  0
  5  6  1  0  0  0
  5  7  1  0  0  0
  7  8  1  0  0  0
  8  9  2  0  0  0
  8 11  1  0  0  0
 11 12  1  0  0  0
 11 13  1  0  0  0
 13 14  1  0  0  0
 14 15  2  0  0  0
 14 17  1  0  0  0
 17 18  1  0  0  0
 17 19  1  0  0  0
 19 20  1  0  0  0
 20 21  2  0  0  0
 20 23  1  0  0  0
 23 24  1  0  0  0
 23 25  1  0  0  0
 25 26  1  0  0  0
 26 27  2  0  0  0
 26 29  1  0  0  0
 29 30  1  0  0  0
 29 31  1  0  0  0
 31 32  1  0  0  0
 31 33  2  0  0  0
 46 47  1  0  0  0
 47 48  2  0  0  0
 47 49  1  0  0  0
 49 50  1  0  0  0
 50 51  1  0  0  0
 51 52  1  0  0  0
 52 53  1  0  0  0
 53 54  1  0  0  0
 54 55  2  0  0  0
 54 56  1  0  0  0
 56 57  1  0  0  0
 56 58  1  0  0  0
 53 49  1  0  0  0
 42 45  1  0  0  0
 36 39  1  0  0  0
  1  4  1  0  0  0
  7 10  1  0  0  0
 13 16  1  0  0  0
 19 22  1  0  0  0
 25 28  1  0  0  0
M  END
> <minimizedAffinity>
-8.85618

> <CNNscore>
0.1708576679

> <CNNaffinity>
6.9547705650

> <CNN_VS>
1.1882759333

> <CNNaffinity_variance>
0.4236158729

$$$$
[H]N(C(=O)[C@]([H])(C(=O)C([H])([H])[H])C([H])([H])[H])[C@]([H])(C(=O)N([H])[C@]([H])(C(=O)N([H])[C@]([H])(C(=O)N([H])[C@]([H])(C(=O)N([H])[C@]([H])(C(=O)N([H])[C@]([H])(C(=O)N([H])[C@]([H])(C(=O)N1C([H])([H])C([H])([H])C([H])([H])[C@@]1([H])C(=O)N1C(=O)C([H])([H])C([H])([H])C1([H])[H])C([H])([H])C([H])(C([H])([H])[H])C([H])([H])[H])C([H])([H])[H])C([H])([H])[H])C([H])([H])[H])C([H])([H])[H])C([H])([H])[H])C([H])([H])[H]


 65 66  0  0  0  0  0  0  0  0999 V2000
    3.9870    5.7784   18.1402 N   0  0  0  0  0  0  0  0  0  0  0  0
    3.2351    4.8855   17.3513 C   0  0  0  0  0  0  0  0  0  0  0  0
    2.2114    5.2518   16.7035 O   0  0  0  0  0  0  0  0  0  0  0  0
    4.8055    5.4426   18.6661 H   0  0  0  0  0  0  0  0  0  0  0  0
    3.6260    3.4769   17.2575 C   0  0  0  0  0  0  0  0  0  0  0  0
    2.5244    2.6951   16.4656 C   0  0  0  0  0  0  0  0  0  0  0  0
    3.6258    2.8919   18.5896 N   0  0  0  0  0  0  0  0  0  0  0  0
    4.2358    1.6245   18.7652 C   0  0  0  0  0  0  0  0  0  0  0  0
    4.7253    1.0775   17.7084 O   0  0  0  0  0  0  0  0  0  0  0  0
    3.1862    3.4152   19.3591 H   0  0  0  0  0  0  0  0  0  0  0  0
    4.3299    0.9278   20.0668 C   0  0  0  0  0  0  0  0  0  0  0  0
    3.0732    0.0478   20.1779 C   0  0  0  0  0  0  0  0  0  0  0  0
    4.3565    1.8709   21.1724 N   0  0  0  0  0  0  0  0  0  0  0  0
    5.4899    2.0298   22.0330 C   0  0  0  0  0  0  0  0  0  0  0  0
    6.5140    1.3172   21.8584 O   0  0  0  0  0  0  0  0  0  0  0  0
    3.5079    2.4630   21.3473 H   0  0  0  0  0  0  0  0  0  0  0  0
    5.4642    3.0182   23.1162 C   0  0  0  0  0  0  0  0  0  0  0  0
    4.1105    3.7457   22.9667 C   0  0  0  0  0  0  0  0  0  0  0  0
    6.5351    4.0107   22.9401 N   0  0  0  0  0  0  0  0  0  0  0  0
    6.5285    4.8511   21.7980 C   0  0  0  0  0  0  0  0  0  0  0  0
    5.6198    4.7634   20.9192 O   0  0  0  0  0  0  0  0  0  0  0  0
    7.2955    4.1094   23.6318 H   0  0  0  0  0  0  0  0  0  0  0  0
    7.5859    5.8539   21.6062 C   0  0  0  0  0  0  0  0  0  0  0  0
    8.7125    5.5146   22.5937 C   0  0  0  0  0  0  0  0  0  0  0  0
    7.0834    7.1953   21.9372 N   0  0  0  0  0  0  0  0  0  0  0  0
    7.5132    8.3690   21.2801 C   0  0  0  0  0  0  0  0  0  0  0  0
    8.3814    8.2288   20.3689 O   0  0  0  0  0  0  0  0  0  0  0  0
    6.3643    7.1803   22.7154 H   0  0  0  0  0  0  0  0  0  0  0  0
    6.9559    9.6863   21.6609 C   0  0  0  0  0  0  0  0  0  0  0  0
    5.5004    9.5752   22.1231 C   0  0  0  0  0  0  0  0  0  0  0  0
    7.6950   10.2286   22.8447 C   0  0  0  0  0  0  0  0  0  0  0  0
    9.1431    9.9364   23.0542 C   0  0  0  0  0  0  0  0  0  0  0  0
    7.0735   10.9161   23.6316 O   0  0  0  0  0  0  0  0  0  0  0  0
    3.6254    7.1803   18.2246 C   0  0  0  0  0  0  0  0  0  0  0  0
    4.3592    7.6444   19.5332 C   0  0  0  0  0  0  0  0  0  0  0  0
    3.3269    8.4543   16.0885 N   0  0  0  0  0  0  0  0  0  0  0  0
    4.1619    7.9151   17.0996 C   0  0  0  0  0  0  0  0  0  0  0  0
    5.3992    8.0884   17.0071 O   0  0  0  0  0  0  0  0  0  0  0  0
    2.3050    8.2835   16.1533 H   0  0  0  0  0  0  0  0  0  0  0  0
    3.9107    9.2306   14.9879 C   0  0  0  0  0  0  0  0  0  0  0  0
    2.8348    9.0670   13.8617 C   0  0  0  0  0  0  0  0  0  0  0  0
    3.0680   11.6537   15.1606 N   0  0  0  0  0  0  0  0  0  0  0  0
    4.0471   10.6612   15.2969 C   0  0  0  0  0  0  0  0  0  0  0  0
    5.2029   11.0101   15.7364 O   0  0  0  0  0  0  0  0  0  0  0  0
    2.1246   11.4690   14.7955 H   0  0  0  0  0  0  0  0  0  0  0  0
    3.3986   13.0756   15.5667 C   0  0  0  0  0  0  0  0  0  0  0  0
    3.0332   13.2199   16.9677 C   0  0  0  0  0  0  0  0  0  0  0  0
    1.7960   13.1510   17.2895 O   0  0  0  0  0  0  0  0  0  0  0  0
    3.9792   13.4175   18.0477 N   0  0  0  0  0  0  0  0  0  0  0  0
    5.3942   13.6071   17.9923 C   0  0  0  0  0  0  0  0  0  0  0  0
    5.9155   12.4991   18.9210 C   0  0  0  0  0  0  0  0  0  0  0  0
    4.8458   12.4004   19.9619 C   0  0  0  0  0  0  0  0  0  0  0  0
    3.6670   13.2636   19.4347 C   0  0  0  0  0  0  0  0  0  0  0  0
    3.3530   14.3041   20.3469 C   0  0  0  0  0  0  0  0  0  0  0  0
    2.0493   14.3256   20.6195 O   0  0  0  0  0  0  0  0  0  0  0  0
    4.0434   15.3157   21.0429 N   0  0  0  0  0  0  0  0  0  0  0  0
    5.4295   15.7131   21.1013 C   0  0  0  0  0  0  0  0  0  0  0  0
    5.6190   15.8332   22.6271 C   0  0  0  0  0  0  0  0  0  0  0  0
    4.3439   16.5765   23.0466 C   0  0  0  0  0  0  0  0  0  0  0  0
    3.4075   16.2782   21.9443 C   0  0  0  0  0  0  0  0  0  0  0  0
    2.2484   16.7626   21.7910 O   0  0  0  0  0  0  0  0  0  0  0  0
    2.7002   13.9044   14.5546 C   0  0  0  0  0  0  0  0  0  0  0  0
    1.6702   16.1602   14.7099 C   0  0  0  0  0  0  0  0  0  0  0  0
    2.9230   15.3477   14.4312 C   0  0  0  0  0  0  0  0  0  0  0  0
    3.6561   15.8560   13.2545 C   0  0  0  0  0  0  0  0  0  0  0  0
 63 64  1  0  0  0
 64 65  1  0  0  0
 64 62  1  0  0  0
 62 46  1  0  0  0
 46 42  1  0  0  0
 42 43  1  0  0  0
 43 44  2  0  0  0
 43 40  1  0  0  0
 40 41  1  0  0  0
 40 36  1  0  0  0
 36 37  1  0  0  0
 37 38  2  0  0  0
 37 34  1  0  0  0
 34 35  1  0  0  0
 34  1  1  0  0  0
  1  2  1  0  0  0
  2  3  2  0  0  0
  2  5  1  0  0  0
  5  6  1  0  0  0
  5  7  1  0  0  0
  7  8  1  0  0  0
  8  9  2  0  0  0
  8 11  1  0  0  0
 11 12  1  0  0  0
 11 13  1  0  0  0
 13 14  1  0  0  0
 14 15  2  0  0  0
 14 17  1  0  0  0
 17 18  1  0  0  0
 17 19  1  0  0  0
 19 20  1  0  0  0
 20 21  2  0  0  0
 20 23  1  0  0  0
 23 24  1  0  0  0
 23 25  1  0  0  0
 25 26  1  0  0  0
 26 27  2  0  0  0
 26 29  1  0  0  0
 29 30  1  0  0  0
 29 31  1  0  0  0
 31 32  1  0  0  0
 31 33  2  0  0  0
 46 47  1  0  0  0
 47 48  2  0  0  0
 47 49  1  0  0  0
 49 50  1  0  0  0
 50 51  1  0  0  0
 51 52  1  0  0  0
 52 53  1  0  0  0
 53 54  1  0  0  0
 54 55  2  0  0  0
 54 56  1  0  0  0
 56 57  1  0  0  0
 57 58  1  0  0  0
 58 59  1  0  0  0
 59 60  1  0  0  0
 60 61  2  0  0  0
 53 49  1  0  0  0
 60 56  1  0  0  0
 42 45  1  0  0  0
 36 39  1  0  0  0
  1  4  1  0  0  0
  7 10  1  0  0  0
 13 16  1  0  0  0
 19 22  1  0  0  0
 25 28  1  0  0  0
M  END
> <minimizedAffinity>
-9.45318

> <CNNscore>
0.3682664633

> <CNNaffinity>
7.2483887672

> <CNN_VS>
2.6693384647

> <CNNaffinity_variance>
0.3089146316

$$$$
[H]N(C(=O)[C@]([H])(C(=O)C([H])([H])[H])C([H])([H])[H])[C@]([H])(C(=O)N([H])[C@]([H])(C(=O)N([H])[C@]([H])(C(=O)N([H])[C@]([H])(C(=O)N([H])[C@]([H])(C(=O)N([H])[C@]([H])(C(=O)N([H])[C@]([H])(C(=O)N1C([H])([H])C([H])([H])C([H])([H])[C@@]1([H])C(=O)N1C(=O)C([H])([H])C([H])([H])C1([H])[H])C([H])([H])C([H])(C([H])([H])[H])C([H])([H])[H])C([H])([H])[H])C([H])([H])[H])C([H])([H])[H])C([H])([H])[H])C([H])([H])[H])C([H])([H])[H]


 65 66  0  0  0  0  0  0  0  0999 V2000
    5.7635    8.4492   10.0193 N   0  0  0  0  0  0  0  0  0  0  0  0
    5.2775    8.0652    8.7539 C   0  0  0  0  0  0  0  0  0  0  0  0
    5.0532    6.8566    8.4531 O   0  0  0  0  0  0  0  0  0  0  0  0
    5.9493    9.4404   10.2245 H   0  0  0  0  0  0  0  0  0  0  0  0
    5.0132    9.0771    7.7283 C   0  0  0  0  0  0  0  0  0  0  0  0
    3.4893    9.4364    7.7490 C   0  0  0  0  0  0  0  0  0  0  0  0
    5.2507    8.4985    6.4146 N   0  0  0  0  0  0  0  0  0  0  0  0
    6.0528    9.2235    5.4979 C   0  0  0  0  0  0  0  0  0  0  0  0
    6.4907   10.3636    5.9031 O   0  0  0  0  0  0  0  0  0  0  0  0
    4.8322    7.5844    6.1942 H   0  0  0  0  0  0  0  0  0  0  0  0
    6.3955    8.7419    4.1418 C   0  0  0  0  0  0  0  0  0  0  0  0
    5.4077    7.6066    3.8238 C   0  0  0  0  0  0  0  0  0  0  0  0
    7.7537    8.2272    4.0893 N   0  0  0  0  0  0  0  0  0  0  0  0
    8.8451    8.9659    3.5293 C   0  0  0  0  0  0  0  0  0  0  0  0
    8.6414   10.1063    3.0342 O   0  0  0  0  0  0  0  0  0  0  0  0
    7.9437    7.2720    4.4804 H   0  0  0  0  0  0  0  0  0  0  0  0
   10.1988    8.4013    3.5297 C   0  0  0  0  0  0  0  0  0  0  0  0
   10.0210    6.9264    3.1091 C   0  0  0  0  0  0  0  0  0  0  0  0
   10.7702    8.4214    4.8847 N   0  0  0  0  0  0  0  0  0  0  0  0
   12.1314    8.7758    5.0643 C   0  0  0  0  0  0  0  0  0  0  0  0
   12.8716    9.0725    4.0795 O   0  0  0  0  0  0  0  0  0  0  0  0
   10.2004    8.1815    5.7119 H   0  0  0  0  0  0  0  0  0  0  0  0
   12.7203    8.8082    6.4107 C   0  0  0  0  0  0  0  0  0  0  0  0
   13.9580    9.7150    6.3389 C   0  0  0  0  0  0  0  0  0  0  0  0
   13.1670    7.4641    6.8048 N   0  0  0  0  0  0  0  0  0  0  0  0
   12.3431    6.5413    7.4858 C   0  0  0  0  0  0  0  0  0  0  0  0
   11.1676    6.9211    7.7641 O   0  0  0  0  0  0  0  0  0  0  0  0
   14.1677    7.2669    6.5176 H   0  0  0  0  0  0  0  0  0  0  0  0
   12.8582    5.2005    7.8431 C   0  0  0  0  0  0  0  0  0  0  0  0
   11.8060    4.3648    8.5773 C   0  0  0  0  0  0  0  0  0  0  0  0
   13.1657    4.4254    6.5996 C   0  0  0  0  0  0  0  0  0  0  0  0
   12.3340    3.2562    6.1900 C   0  0  0  0  0  0  0  0  0  0  0  0
   14.1188    4.7813    5.9339 O   0  0  0  0  0  0  0  0  0  0  0  0
    6.0083    7.4609   11.0521 C   0  0  0  0  0  0  0  0  0  0  0  0
    7.3804    7.9294   11.6553 C   0  0  0  0  0  0  0  0  0  0  0  0
    5.2619    8.0791   13.3621 N   0  0  0  0  0  0  0  0  0  0  0  0
    4.9934    7.5346   12.0808 C   0  0  0  0  0  0  0  0  0  0  0  0
    3.8391    7.1101   11.8427 O   0  0  0  0  0  0  0  0  0  0  0  0
    6.2272    8.4029   13.5652 H   0  0  0  0  0  0  0  0  0  0  0  0
    4.1905    8.1742   14.3610 C   0  0  0  0  0  0  0  0  0  0  0  0
    3.0539    8.8930   13.5583 C   0  0  0  0  0  0  0  0  0  0  0  0
    4.4521    5.7738   15.2446 N   0  0  0  0  0  0  0  0  0  0  0  0
    3.6917    6.8637   14.8017 C   0  0  0  0  0  0  0  0  0  0  0  0
    2.4142    6.7323   14.7635 O   0  0  0  0  0  0  0  0  0  0  0  0
    5.4797    5.7824   15.2856 H   0  0  0  0  0  0  0  0  0  0  0  0
    3.7416    4.5116   15.6893 C   0  0  0  0  0  0  0  0  0  0  0  0
    4.3035    4.1310   16.9763 C   0  0  0  0  0  0  0  0  0  0  0  0
    5.1680    3.1874   17.0136 O   0  0  0  0  0  0  0  0  0  0  0  0
    3.9708    4.7624   18.2376 N   0  0  0  0  0  0  0  0  0  0  0  0
    3.0018    5.7740   18.5191 C   0  0  0  0  0  0  0  0  0  0  0  0
    3.8432    6.8580   19.2110 C   0  0  0  0  0  0  0  0  0  0  0  0
    4.8714    6.0647   19.9530 C   0  0  0  0  0  0  0  0  0  0  0  0
    4.7219    4.6047   19.4442 C   0  0  0  0  0  0  0  0  0  0  0  0
    4.4198    3.7233   20.5143 C   0  0  0  0  0  0  0  0  0  0  0  0
    4.1722    4.3979   21.6359 O   0  0  0  0  0  0  0  0  0  0  0  0
    4.3080    2.3331   20.7119 N   0  0  0  0  0  0  0  0  0  0  0  0
    4.4689    1.1902   19.8455 C   0  0  0  0  0  0  0  0  0  0  0  0
    3.1929    0.3970   20.1938 C   0  0  0  0  0  0  0  0  0  0  0  0
    3.1651    0.4992   21.7245 C   0  0  0  0  0  0  0  0  0  0  0  0
    3.9730    1.7061   21.9918 C   0  0  0  0  0  0  0  0  0  0  0  0
    4.3238    2.1393   23.1280 O   0  0  0  0  0  0  0  0  0  0  0  0
    3.9003    3.5913   14.5374 C   0  0  0  0  0  0  0  0  0  0  0  0
    2.5556    1.5577   15.0173 C   0  0  0  0  0  0  0  0  0  0  0  0
    2.8180    2.7187   14.0735 C   0  0  0  0  0  0  0  0  0  0  0  0
    2.8059    2.2906   12.6604 C   0  0  0  0  0  0  0  0  0  0  0  0
 63 64  1  0  0  0
 64 65  1  0  0  0
 64 62  1  0  0  0
 62 46  1  0  0  0
 46 42  1  0  0  0
 42 43  1  0  0  0
 43 44  2  0  0  0
 43 40  1  0  0  0
 40 41  1  0  0  0
 40 36  1  0  0  0
 36 37  1  0  0  0
 37 38  2  0  0  0
 37 34  1  0  0  0
 34 35  1  0  0  0
 34  1  1  0  0  0
  1  2  1  0  0  0
  2  3  2  0  0  0
  2  5  1  0  0  0
  5  6  1  0  0  0
  5  7  1  0  0  0
  7  8  1  0  0  0
  8  9  2  0  0  0
  8 11  1  0  0  0
 11 12  1  0  0  0
 11 13  1  0  0  0
 13 14  1  0  0  0
 14 15  2  0  0  0
 14 17  1  0  0  0
 17 18  1  0  0  0
 17 19  1  0  0  0
 19 20  1  0  0  0
 20 21  2  0  0  0
 20 23  1  0  0  0
 23 24  1  0  0  0
 23 25  1  0  0  0
 25 26  1  0  0  0
 26 27  2  0  0  0
 26 29  1  0  0  0
 29 30  1  0  0  0
 29 31  1  0  0  0
 31 32  1  0  0  0
 31 33  2  0  0  0
 46 47  1  0  0  0
 47 48  2  0  0  0
 47 49  1  0  0  0
 49 50  1  0  0  0
 50 51  1  0  0  0
 51 52  1  0  0  0
 52 53  1  0  0  0
 53 54  1  0  0  0
 54 55  2  0  0  0
 54 56  1  0  0  0
 56 57  1  0  0  0
 57 58  1  0  0  0
 58 59  1  0  0  0
 59 60  1  0  0  0
 60 61  2  0  0  0
 53 49  1  0  0  0
 60 56  1  0  0  0
 42 45  1  0  0  0
 36 39  1  0  0  0
  1  4  1  0  0  0
  7 10  1  0  0  0
 13 16  1  0  0  0
 19 22  1  0  0  0
 25 28  1  0  0  0
M  END
> <minimizedAffinity>
-8.59156

> <CNNscore>
0.3581955433

> <CNNaffinity>
6.4192152023

> <CNN_VS>
2.2993342876

> <CNNaffinity_variance>
0.1704900712

$$$$
[H]N(C(=O)[C@]([H])(C(=O)C([H])([H])[H])C([H])([H])[H])[C@]([H])(C(=O)N([H])[C@]([H])(C(=O)N([H])[C@]([H])(C(=O)N([H])[C@]([H])(C(=O)N([H])[C@]([H])(C(=O)N([H])[C@]([H])(C(=O)N([H])[C@]([H])(C(=O)N1C([H])([H])C([H])([H])C([H])([H])[C@@]1([H])C(=O)N1C(=O)C([H])([H])C([H])([H])C1([H])[H])C([H])([H])C([H])(C([H])([H])[H])C([H])([H])[H])C([H])([H])[H])C([H])([H])[H])C([H])([H])[H])C([H])([H])[H])C([H])([H])[H])C([H])([H])[H]


 65 66  0  0  0  0  0  0  0  0999 V2000
    3.5661    6.7796   13.4751 N   0  0  0  0  0  0  0  0  0  0  0  0
    3.2002    7.6680   12.4446 C   0  0  0  0  0  0  0  0  0  0  0  0
    2.3824    8.6165   12.6272 O   0  0  0  0  0  0  0  0  0  0  0  0
    4.2227    6.0097   13.2871 H   0  0  0  0  0  0  0  0  0  0  0  0
    3.7685    7.5145   11.1033 C   0  0  0  0  0  0  0  0  0  0  0  0
    2.7103    6.8235   10.1787 C   0  0  0  0  0  0  0  0  0  0  0  0
    4.8873    6.5862   11.1624 N   0  0  0  0  0  0  0  0  0  0  0  0
    6.1837    7.0796   10.8706 C   0  0  0  0  0  0  0  0  0  0  0  0
    6.2599    8.3230   10.5484 O   0  0  0  0  0  0  0  0  0  0  0  0
    4.7030    5.6056   11.4148 H   0  0  0  0  0  0  0  0  0  0  0  0
    7.4103    6.2540   10.9186 C   0  0  0  0  0  0  0  0  0  0  0  0
    8.5607    7.2095   11.2787 C   0  0  0  0  0  0  0  0  0  0  0  0
    7.6834    5.6348    9.6323 N   0  0  0  0  0  0  0  0  0  0  0  0
    7.0304    4.4400    9.1891 C   0  0  0  0  0  0  0  0  0  0  0  0
    6.1935    3.8687    9.9377 O   0  0  0  0  0  0  0  0  0  0  0  0
    8.3898    6.0839    8.9992 H   0  0  0  0  0  0  0  0  0  0  0  0
    7.3310    3.8785    7.8680 C   0  0  0  0  0  0  0  0  0  0  0  0
    7.7708    5.0831    7.0080 C   0  0  0  0  0  0  0  0  0  0  0  0
    6.1216    3.3038    7.2598 N   0  0  0  0  0  0  0  0  0  0  0  0
    5.9069    1.9034    7.3194 C   0  0  0  0  0  0  0  0  0  0  0  0
    6.7390    1.1314    7.8829 O   0  0  0  0  0  0  0  0  0  0  0  0
    5.4224    3.8993    6.7876 H   0  0  0  0  0  0  0  0  0  0  0  0
    4.7016    1.3095    6.7234 C   0  0  0  0  0  0  0  0  0  0  0  0
    4.2115    2.2795    5.6379 C   0  0  0  0  0  0  0  0  0  0  0  0
    3.6401    1.1874    7.7331 N   0  0  0  0  0  0  0  0  0  0  0  0
    3.4148    0.0128    8.4840 C   0  0  0  0  0  0  0  0  0  0  0  0
    4.1767   -0.9710    8.2490 O   0  0  0  0  0  0  0  0  0  0  0  0
    3.0712    2.0755    7.8356 H   0  0  0  0  0  0  0  0  0  0  0  0
    2.3316   -0.0346    9.4916 C   0  0  0  0  0  0  0  0  0  0  0  0
    2.3380    1.2043   10.3914 C   0  0  0  0  0  0  0  0  0  0  0  0
    0.9996   -0.0069    8.8085 C   0  0  0  0  0  0  0  0  0  0  0  0
   -0.2476    0.3275    9.5563 C   0  0  0  0  0  0  0  0  0  0  0  0
    0.9685   -0.2675    7.6214 O   0  0  0  0  0  0  0  0  0  0  0  0
    3.0292    6.9330   14.8135 C   0  0  0  0  0  0  0  0  0  0  0  0
    2.9955    5.4538   15.3399 C   0  0  0  0  0  0  0  0  0  0  0  0
    3.4766    8.4325   16.7697 N   0  0  0  0  0  0  0  0  0  0  0  0
    3.9309    7.7053   15.6405 C   0  0  0  0  0  0  0  0  0  0  0  0
    5.1518    7.7377   15.3615 O   0  0  0  0  0  0  0  0  0  0  0  0
    2.4600    8.4269   16.9804 H   0  0  0  0  0  0  0  0  0  0  0  0
    4.4334    9.1670   17.6062 C   0  0  0  0  0  0  0  0  0  0  0  0
    3.4876    9.9985   18.5371 C   0  0  0  0  0  0  0  0  0  0  0  0
    4.8346    7.1772   19.1844 N   0  0  0  0  0  0  0  0  0  0  0  0
    5.2603    8.2896   18.4471 C   0  0  0  0  0  0  0  0  0  0  0  0
    6.5053    8.6036   18.4931 O   0  0  0  0  0  0  0  0  0  0  0  0
    3.8546    6.8680   19.2240 H   0  0  0  0  0  0  0  0  0  0  0  0
    5.8559    6.3781   19.9683 C   0  0  0  0  0  0  0  0  0  0  0  0
    5.6949    4.9826   19.5889 C   0  0  0  0  0  0  0  0  0  0  0  0
    6.0859    4.6135   18.4271 O   0  0  0  0  0  0  0  0  0  0  0  0
    5.1366    3.9567   20.4469 N   0  0  0  0  0  0  0  0  0  0  0  0
    4.5552    4.0770   21.7465 C   0  0  0  0  0  0  0  0  0  0  0  0
    5.3776    3.0761   22.5734 C   0  0  0  0  0  0  0  0  0  0  0  0
    5.6833    1.9942   21.5868 C   0  0  0  0  0  0  0  0  0  0  0  0
    5.2461    2.5517   20.2044 C   0  0  0  0  0  0  0  0  0  0  0  0
    4.2605    1.7209   19.6114 C   0  0  0  0  0  0  0  0  0  0  0  0
    3.4273    1.2345   20.5300 O   0  0  0  0  0  0  0  0  0  0  0  0
    3.9228    1.2741   18.3189 N   0  0  0  0  0  0  0  0  0  0  0  0
    4.4860    1.5024   17.0099 C   0  0  0  0  0  0  0  0  0  0  0  0
    3.2080    1.8334   16.2126 C   0  0  0  0  0  0  0  0  0  0  0  0
    2.2357    0.7567   16.7124 C   0  0  0  0  0  0  0  0  0  0  0  0
    2.8036    0.3782   18.0220 C   0  0  0  0  0  0  0  0  0  0  0  0
    2.4019   -0.5579   18.7731 O   0  0  0  0  0  0  0  0  0  0  0  0
    5.6083    6.7714   21.3765 C   0  0  0  0  0  0  0  0  0  0  0  0
    6.9726    7.6522   23.2571 C   0  0  0  0  0  0  0  0  0  0  0  0
    6.2142    7.9626   21.9781 C   0  0  0  0  0  0  0  0  0  0  0  0
    5.3990    9.1869   22.1070 C   0  0  0  0  0  0  0  0  0  0  0  0
 63 64  1  0  0  0
 64 65  1  0  0  0
 64 62  1  0  0  0
 62 46  1  0  0  0
 46 42  1  0  0  0
 42 43  1  0  0  0
 43 44  2  0  0  0
 43 40  1  0  0  0
 40 41  1  0  0  0
 40 36  1  0  0  0
 36 37  1  0  0  0
 37 38  2  0  0  0
 37 34  1  0  0  0
 34 35  1  0  0  0
 34  1  1  0  0  0
  1  2  1  0  0  0
  2  3  2  0  0  0
  2  5  1  0  0  0
  5  6  1  0  0  0
  5  7  1  0  0  0
  7  8  1  0  0  0
  8  9  2  0  0  0
  8 11  1  0  0  0
 11 12  1  0  0  0
 11 13  1  0  0  0
 13 14  1  0  0  0
 14 15  2  0  0  0
 14 17  1  0  0  0
 17 18  1  0  0  0
 17 19  1  0  0  0
 19 20  1  0  0  0
 20 21  2  0  0  0
 20 23  1  0  0  0
 23 24  1  0  0  0
 23 25  1  0  0  0
 25 26  1  0  0  0
 26 27  2  0  0  0
 26 29  1  0  0  0
 29 30  1  0  0  0
 29 31  1  0  0  0
 31 32  1  0  0  0
 31 33  2  0  0  0
 46 47  1  0  0  0
 47 48  2  0  0  0
 47 49  1  0  0  0
 49 50  1  0  0  0
 50 51  1  0  0  0
 51 52  1  0  0  0
 52 53  1  0  0  0
 53 54  1  0  0  0
 54 55  2  0  0  0
 54 56  1  0  0  0
 56 57  1  0  0  0
 57 58  1  0  0  0
 58 59  1  0  0  0
 59 60  1  0  0  0
 60 61  2  0  0  0
 53 49  1  0  0  0
 60 56  1  0  0  0
 42 45  1  0  0  0
 36 39  1  0  0  0
  1  4  1  0  0  0
  7 10  1  0  0  0
 13 16  1  0  0  0
 19 22  1  0  0  0
 25 28  1  0  0  0
M  END
> <minimizedAffinity>
-7.69156

> <CNNscore>
0.3419903517

> <CNNaffinity>
7.2318334579

> <CNN_VS>
2.4732172489

> <CNNaffinity_variance>
0.5624178648

$$$$
[H]N(C(=O)[C@]([H])(C(=O)C([H])([H])[H])C([H])([H])[H])[C@]([H])(C(=O)N([H])[C@]([H])(C(=O)N([H])[C@]([H])(C(=O)N([H])[C@]([H])(C(=O)N([H])[C@]([H])(C(=O)N([H])[C@]([H])(C(=O)N([H])[C@]([H])(C(=O)N1C([H])([H])C([H])([H])C([H])([H])[C@@]1([H])C(=O)N1C(=O)C([H])([H])C([H])([H])C1([H])[H])C([H])([H])C([H])(C([H])([H])[H])C([H])([H])[H])C([H])([H])[H])C([H])([H])[H])C([H])([H])[H])C([H])([H])[H])C([H])([H])[H])C([H])([H])[H]


 65 66  0  0  0  0  0  0  0  0999 V2000
    4.5869    2.8704   18.6138 N   0  0  0  0  0  0  0  0  0  0  0  0
    4.2572    1.5474   18.9684 C   0  0  0  0  0  0  0  0  0  0  0  0
    3.7697    0.7256   18.1385 O   0  0  0  0  0  0  0  0  0  0  0  0
    4.9675    3.5166   19.3186 H   0  0  0  0  0  0  0  0  0  0  0  0
    4.4737    1.0762   20.3384 C   0  0  0  0  0  0  0  0  0  0  0  0
    3.3914   -0.0019   20.6824 C   0  0  0  0  0  0  0  0  0  0  0  0
    4.2285    2.1716   21.2641 N   0  0  0  0  0  0  0  0  0  0  0  0
    5.2705    2.5476   22.1485 C   0  0  0  0  0  0  0  0  0  0  0  0
    6.3557    1.8604   22.0739 O   0  0  0  0  0  0  0  0  0  0  0  0
    3.3111    2.6379   21.2462 H   0  0  0  0  0  0  0  0  0  0  0  0
    5.1665    3.6578   23.1207 C   0  0  0  0  0  0  0  0  0  0  0  0
    3.7404    4.2183   22.9858 C   0  0  0  0  0  0  0  0  0  0  0  0
    6.1266    4.7094   22.8295 N   0  0  0  0  0  0  0  0  0  0  0  0
    6.1830    5.3846   21.5681 C   0  0  0  0  0  0  0  0  0  0  0  0
    5.3901    5.0565   20.6457 O   0  0  0  0  0  0  0  0  0  0  0  0
    6.8084    4.9874   23.5774 H   0  0  0  0  0  0  0  0  0  0  0  0
    7.1591    6.4564   21.3449 C   0  0  0  0  0  0  0  0  0  0  0  0
    7.1850    6.6666   19.8155 C   0  0  0  0  0  0  0  0  0  0  0  0
    8.5024    6.0326   21.7680 N   0  0  0  0  0  0  0  0  0  0  0  0
    9.4901    7.0121   22.0433 C   0  0  0  0  0  0  0  0  0  0  0  0
    9.2426    8.2496   21.9284 O   0  0  0  0  0  0  0  0  0  0  0  0
    8.7440    5.0337   21.8687 H   0  0  0  0  0  0  0  0  0  0  0  0
   10.8369    6.6100   22.4735 C   0  0  0  0  0  0  0  0  0  0  0  0
   11.0176    5.1388   22.0707 C   0  0  0  0  0  0  0  0  0  0  0  0
   10.9521    6.6955   23.9366 N   0  0  0  0  0  0  0  0  0  0  0  0
   12.1023    7.1797   24.5974 C   0  0  0  0  0  0  0  0  0  0  0  0
   13.0702    7.5448   23.8671 O   0  0  0  0  0  0  0  0  0  0  0  0
   10.0790    6.3596   24.4343 H   0  0  0  0  0  0  0  0  0  0  0  0
   12.1437    7.2457   26.0755 C   0  0  0  0  0  0  0  0  0  0  0  0
   10.7411    7.3630   26.6785 C   0  0  0  0  0  0  0  0  0  0  0  0
   12.6935    5.9668   26.6269 C   0  0  0  0  0  0  0  0  0  0  0  0
   14.0348    5.4590   26.2149 C   0  0  0  0  0  0  0  0  0  0  0  0
   12.0082    5.3545   27.4228 O   0  0  0  0  0  0  0  0  0  0  0  0
    4.3994    3.3442   17.2559 C   0  0  0  0  0  0  0  0  0  0  0  0
    2.8371    3.4620   17.1477 C   0  0  0  0  0  0  0  0  0  0  0  0
    4.1948    5.7927   16.7681 N   0  0  0  0  0  0  0  0  0  0  0  0
    4.9822    4.6579   17.0879 C   0  0  0  0  0  0  0  0  0  0  0  0
    6.2176    4.8092   17.2294 O   0  0  0  0  0  0  0  0  0  0  0  0
    3.1757    5.6578   16.6229 H   0  0  0  0  0  0  0  0  0  0  0  0
    4.8222    7.1146   16.6500 C   0  0  0  0  0  0  0  0  0  0  0  0
    4.1629    7.6775   15.3458 C   0  0  0  0  0  0  0  0  0  0  0  0
    4.9727    9.3126   17.9756 N   0  0  0  0  0  0  0  0  0  0  0  0
    4.4913    8.0142   17.7644 C   0  0  0  0  0  0  0  0  0  0  0  0
    3.6697    7.5279   18.6242 O   0  0  0  0  0  0  0  0  0  0  0  0
    5.6497    9.7716   17.3523 H   0  0  0  0  0  0  0  0  0  0  0  0
    4.4818   10.0941   19.1773 C   0  0  0  0  0  0  0  0  0  0  0  0
    3.5743   11.1189   18.6839 C   0  0  0  0  0  0  0  0  0  0  0  0
    2.4084   10.7675   18.2885 O   0  0  0  0  0  0  0  0  0  0  0  0
    3.8855   12.5331   18.6246 N   0  0  0  0  0  0  0  0  0  0  0  0
    5.1104   13.2066   18.9203 C   0  0  0  0  0  0  0  0  0  0  0  0
    4.6742   14.2495   19.9615 C   0  0  0  0  0  0  0  0  0  0  0  0
    3.2875   14.6020   19.5255 C   0  0  0  0  0  0  0  0  0  0  0  0
    2.9173   13.5669   18.4281 C   0  0  0  0  0  0  0  0  0  0  0  0
    2.6144   14.2141   17.2023 C   0  0  0  0  0  0  0  0  0  0  0  0
    1.5428   13.6721   16.6257 O   0  0  0  0  0  0  0  0  0  0  0  0
    3.1355   15.2728   16.4329 N   0  0  0  0  0  0  0  0  0  0  0  0
    4.2541   16.1685   16.6037 C   0  0  0  0  0  0  0  0  0  0  0  0
    3.5766   17.5193   16.2954 C   0  0  0  0  0  0  0  0  0  0  0  0
    2.7447   17.1792   15.0517 C   0  0  0  0  0  0  0  0  0  0  0  0
    2.5773   15.7155   15.1539 C   0  0  0  0  0  0  0  0  0  0  0  0
    2.0431   14.9582   14.2919 O   0  0  0  0  0  0  0  0  0  0  0  0
    5.7291   10.5107   19.8626 C   0  0  0  0  0  0  0  0  0  0  0  0
    5.0332    9.1472   21.8197 C   0  0  0  0  0  0  0  0  0  0  0  0
    6.1301    9.9682   21.1636 C   0  0  0  0  0  0  0  0  0  0  0  0
    6.8000   10.8608   22.1304 C   0  0  0  0  0  0  0  0  0  0  0  0
 63 64  1  0  0  0
 64 65  1  0  0  0
 64 62  1  0  0  0
 62 46  1  0  0  0
 46 42  1  0  0  0
 42 43  1  0  0  0
 43 44  2  0  0  0
 43 40  1  0  0  0
 40 41  1  0  0  0
 40 36  1  0  0  0
 36 37  1  0  0  0
 37 38  2  0  0  0
 37 34  1  0  0  0
 34 35  1  0  0  0
 34  1  1  0  0  0
  1  2  1  0  0  0
  2  3  2  0  0  0
  2  5  1  0  0  0
  5  6  1  0  0  0
  5  7  1  0  0  0
  7  8  1  0  0  0
  8  9  2  0  0  0
  8 11  1  0  0  0
 11 12  1  0  0  0
 11 13  1  0  0  0
 13 14  1  0  0  0
 14 15  2  0  0  0
 14 17  1  0  0  0
 17 18  1  0  0  0
 17 19  1  0  0  0
 19 20  1  0  0  0
 20 21  2  0  0  0
 20 23  1  0  0  0
 23 24  1  0  0  0
 23 25  1  0  0  0
 25 26  1  0  0  0
 26 27  2  0  0  0
 26 29  1  0  0  0
 29 30  1  0  0  0
 29 31  1  0  0  0
 31 32  1  0  0  0
 31 33  2  0  0  0
 46 47  1  0  0  0
 47 48  2  0  0  0
 47 49  1  0  0  0
 49 50  1  0  0  0
 50 51  1  0  0  0
 51 52  1  0  0  0
 52 53  1  0  0  0
 53 54  1  0  0  0
 54 55  2  0  0  0
 54 56  1  0  0  0
 56 57  1  0  0  0
 57 58  1  0  0  0
 58 59  1  0  0  0
 59 60  1  0  0  0
 60 61  2  0  0  0
 53 49  1  0  0  0
 60 56  1  0  0  0
 42 45  1  0  0  0
 36 39  1  0  0  0
  1  4  1  0  0  0
  7 10  1  0  0  0
 13 16  1  0  0  0
 19 22  1  0  0  0
 25 28  1  0  0  0
M  END
> <minimizedAffinity>
-9.19946

> <CNNscore>
0.3121007085

> <CNNaffinity>
7.0037469864

> <CNN_VS>
2.1858744621

> <CNNaffinity_variance>
0.7108603120

$$$$
[H]N(C(=O)[C@]([H])(C(=O)C([H])([H])[H])C([H])([H])[H])[C@]([H])(C(=O)N([H])[C@]([H])(C(=O)N([H])[C@]([H])(C(=O)N([H])[C@]([H])(C(=O)N([H])[C@]([H])(C(=O)N([H])[C@]([H])(C(=O)N([H])[C@]([H])(C(=O)N1C([H])([H])C([H])([H])C([H])([H])[C@@]1([H])C(=O)N1C(=O)C([H])([H])C([H])([H])C1([H])[H])C([H])([H])C([H])(C([H])([H])[H])C([H])([H])[H])C([H])([H])[H])C([H])([H])[H])C([H])([H])[H])C([H])([H])[H])C([H])([H])[H])C([H])([H])[H]


 65 66  0  0  0  0  0  0  0  0999 V2000
    3.1047   11.9547   18.1284 N   0  0  0  0  0  0  0  0  0  0  0  0
    3.5652   13.0211   18.9257 C   0  0  0  0  0  0  0  0  0  0  0  0
    4.6557   12.9661   19.5655 O   0  0  0  0  0  0  0  0  0  0  0  0
    2.2052   12.0279   17.6337 H   0  0  0  0  0  0  0  0  0  0  0  0
    2.7763   14.2501   19.0391 C   0  0  0  0  0  0  0  0  0  0  0  0
    2.8821   15.0481   17.6960 C   0  0  0  0  0  0  0  0  0  0  0  0
    3.3789   15.1129   20.0439 N   0  0  0  0  0  0  0  0  0  0  0  0
    2.6057   15.4600   21.1801 C   0  0  0  0  0  0  0  0  0  0  0  0
    1.4066   14.9947   21.2159 O   0  0  0  0  0  0  0  0  0  0  0  0
    4.3436   15.4409   19.8992 H   0  0  0  0  0  0  0  0  0  0  0  0
    3.1016   16.3057   22.2879 C   0  0  0  0  0  0  0  0  0  0  0  0
    3.3778   17.6926   21.6827 C   0  0  0  0  0  0  0  0  0  0  0  0
    4.3306   15.7733   22.8524 N   0  0  0  0  0  0  0  0  0  0  0  0
    5.2724   16.5805   23.5677 C   0  0  0  0  0  0  0  0  0  0  0  0
    5.0601   17.8142   23.7095 O   0  0  0  0  0  0  0  0  0  0  0  0
    4.5366   14.7514   22.7316 H   0  0  0  0  0  0  0  0  0  0  0  0
    6.4826   15.9779   24.1364 C   0  0  0  0  0  0  0  0  0  0  0  0
    7.1858   17.1241   24.8952 C   0  0  0  0  0  0  0  0  0  0  0  0
    7.3851   15.5185   23.0699 N   0  0  0  0  0  0  0  0  0  0  0  0
    7.7397   14.1476   22.9963 C   0  0  0  0  0  0  0  0  0  0  0  0
    7.2987   13.3058   23.8347 O   0  0  0  0  0  0  0  0  0  0  0  0
    7.7689   16.1746   22.3708 H   0  0  0  0  0  0  0  0  0  0  0  0
    8.6352   13.6667   21.9346 C   0  0  0  0  0  0  0  0  0  0  0  0
    9.9046   14.5299   21.9912 C   0  0  0  0  0  0  0  0  0  0  0  0
    8.0145   13.8616   20.6162 N   0  0  0  0  0  0  0  0  0  0  0  0
    8.1660   15.0406   19.8539 C   0  0  0  0  0  0  0  0  0  0  0  0
    8.8717   15.9621   20.3602 O   0  0  0  0  0  0  0  0  0  0  0  0
    7.4492   13.0215   20.3039 H   0  0  0  0  0  0  0  0  0  0  0  0
    7.5182   15.1629   18.5287 C   0  0  0  0  0  0  0  0  0  0  0  0
    6.3312   16.1295   18.5636 C   0  0  0  0  0  0  0  0  0  0  0  0
    8.4758   15.7652   17.5478 C   0  0  0  0  0  0  0  0  0  0  0  0
    8.3310   17.1785   17.0919 C   0  0  0  0  0  0  0  0  0  0  0  0
    9.3768   15.0616   17.1338 O   0  0  0  0  0  0  0  0  0  0  0  0
    3.8857   10.7407   17.9884 C   0  0  0  0  0  0  0  0  0  0  0  0
    3.2969    9.8232   19.1188 C   0  0  0  0  0  0  0  0  0  0  0  0
    4.3235    8.9473   16.2951 N   0  0  0  0  0  0  0  0  0  0  0  0
    3.6403   10.1203   16.7045 C   0  0  0  0  0  0  0  0  0  0  0  0
    2.7997   10.6243   15.9244 O   0  0  0  0  0  0  0  0  0  0  0  0
    5.0404    8.5494   16.9320 H   0  0  0  0  0  0  0  0  0  0  0  0
    4.0112    8.3268   15.0020 C   0  0  0  0  0  0  0  0  0  0  0  0
    5.4076    8.3214   14.2928 C   0  0  0  0  0  0  0  0  0  0  0  0
    4.3153    5.8120   15.4427 N   0  0  0  0  0  0  0  0  0  0  0  0
    3.5455    6.9380   15.1235 C   0  0  0  0  0  0  0  0  0  0  0  0
    2.2907    6.7690   14.9052 O   0  0  0  0  0  0  0  0  0  0  0  0
    5.3292    5.8507   15.6100 H   0  0  0  0  0  0  0  0  0  0  0  0
    3.6362    4.4618   15.5512 C   0  0  0  0  0  0  0  0  0  0  0  0
    4.1626    3.8087   16.7401 C   0  0  0  0  0  0  0  0  0  0  0  0
    4.8875    2.7633   16.5959 O   0  0  0  0  0  0  0  0  0  0  0  0
    3.9441    4.2701   18.0964 N   0  0  0  0  0  0  0  0  0  0  0  0
    3.1310    5.3453   18.5700 C   0  0  0  0  0  0  0  0  0  0  0  0
    4.1278    6.1817   19.3878 C   0  0  0  0  0  0  0  0  0  0  0  0
    5.0485    5.1488   19.9560 C   0  0  0  0  0  0  0  0  0  0  0  0
    4.6874    3.8223   19.2329 C   0  0  0  0  0  0  0  0  0  0  0  0
    4.2846    2.8306   20.1644 C   0  0  0  0  0  0  0  0  0  0  0  0
    4.1288    1.6489   19.5695 O   0  0  0  0  0  0  0  0  0  0  0  0
    4.0081    2.7555   21.5436 N   0  0  0  0  0  0  0  0  0  0  0  0
    4.0278    3.7220   22.6151 C   0  0  0  0  0  0  0  0  0  0  0  0
    4.8150    2.9356   23.6829 C   0  0  0  0  0  0  0  0  0  0  0  0
    4.1663    1.5478   23.5957 C   0  0  0  0  0  0  0  0  0  0  0  0
    3.5906    1.5349   22.2359 C   0  0  0  0  0  0  0  0  0  0  0  0
    2.8597    0.6297   21.7378 O   0  0  0  0  0  0  0  0  0  0  0  0
    3.8731    3.8387   14.2266 C   0  0  0  0  0  0  0  0  0  0  0  0
    2.3690    1.8625   14.1479 C   0  0  0  0  0  0  0  0  0  0  0  0
    2.8150    3.1520   13.4804 C   0  0  0  0  0  0  0  0  0  0  0  0
    2.9645    2.9908   12.0203 C   0  0  0  0  0  0  0  0  0  0  0  0
 63 64  1  0  0  0
 64 65  1  0  0  0
 64 62  1  0  0  0
 62 46  1  0  0  0
 46 42  1  0  0  0
 42 43  1  0  0  0
 43 44  2  0  0  0
 43 40  1  0  0  0
 40 41  1  0  0  0
 40 36  1  0  0  0
 36 37  1  0  0  0
 37 38  2  0  0  0
 37 34  1  0  0  0
 34 35  1  0  0  0
 34  1  1  0  0  0
  1  2  1  0  0  0
  2  3  2  0  0  0
  2  5  1  0  0  0
  5  6  1  0  0  0
  5  7  1  0  0  0
  7  8  1  0  0  0
  8  9  2  0  0  0
  8 11  1  0  0  0
 11 12  1  0  0  0
 11 13  1  0  0  0
 13 14  1  0  0  0
 14 15  2  0  0  0
 14 17  1  0  0  0
 17 18  1  0  0  0
 17 19  1  0  0  0
 19 20  1  0  0  0
 20 21  2  0  0  0
 20 23  1  0  0  0
 23 24  1  0  0  0
 23 25  1  0  0  0
 25 26  1  0  0  0
 26 27  2  0  0  0
 26 29  1  0  0  0
 29 30  1  0  0  0
 29 31  1  0  0  0
 31 32  1  0  0  0
 31 33  2  0  0  0
 46 47  1  0  0  0
 47 48  2  0  0  0
 47 49  1  0  0  0
 49 50  1  0  0  0
 50 51  1  0  0  0
 51 52  1  0  0  0
 52 53  1  0  0  0
 53 54  1  0  0  0
 54 55  2  0  0  0
 54 56  1  0  0  0
 56 57  1  0  0  0
 57 58  1  0  0  0
 58 59  1  0  0  0
 59 60  1  0  0  0
 60 61  2  0  0  0
 53 49  1  0  0  0
 60 56  1  0  0  0
 42 45  1  0  0  0
 36 39  1  0  0  0
  1  4  1  0  0  0
  7 10  1  0  0  0
 13 16  1  0  0  0
 19 22  1  0  0  0
 25 28  1  0  0  0
M  END
> <minimizedAffinity>
-8.66653

> <CNNscore>
0.2968552113

> <CNNaffinity>
6.6403074265

> <CNN_VS>
1.9712098837

> <CNNaffinity_variance>
0.5401994586

$$$$
[H]N(C(=O)[C@]([H])(C(=O)C([H])([H])[H])C([H])([H])[H])[C@]([H])(C(=O)N([H])[C@]([H])(C(=O)N([H])[C@]([H])(C(=O)N([H])[C@]([H])(C(=O)N([H])[C@]([H])(C(=O)N([H])[C@]([H])(C(=O)N([H])[C@]([H])(C(=O)N1C([H])([H])C([H])([H])C([H])([H])[C@@]1([H])C(=O)N1C(=O)C([H])([H])C([H])([H])C1([H])[H])C([H])([H])C([H])(C([H])([H])[H])C([H])([H])[H])C([H])([H])[H])C([H])([H])[H])C([H])([H])[H])C([H])([H])[H])C([H])([H])[H])C([H])([H])[H]


 65 66  0  0  0  0  0  0  0  0999 V2000
    3.9218    7.6162   19.1712 N   0  0  0  0  0  0  0  0  0  0  0  0
    4.1191    8.9887   19.4201 C   0  0  0  0  0  0  0  0  0  0  0  0
    4.4291    9.4314   20.5645 O   0  0  0  0  0  0  0  0  0  0  0  0
    3.6553    7.2927   18.2313 H   0  0  0  0  0  0  0  0  0  0  0  0
    3.9667    9.9631   18.3371 C   0  0  0  0  0  0  0  0  0  0  0  0
    2.5569   10.6348   18.4518 C   0  0  0  0  0  0  0  0  0  0  0  0
    3.9523    9.2615   17.0625 N   0  0  0  0  0  0  0  0  0  0  0  0
    5.1442    9.2400   16.2957 C   0  0  0  0  0  0  0  0  0  0  0  0
    6.1492    9.8748   16.7884 O   0  0  0  0  0  0  0  0  0  0  0  0
    3.0814    8.8036   16.7603 H   0  0  0  0  0  0  0  0  0  0  0  0
    5.2770    8.5434   14.9974 C   0  0  0  0  0  0  0  0  0  0  0  0
    4.7730    9.5255   13.9262 C   0  0  0  0  0  0  0  0  0  0  0  0
    4.4712    7.3343   14.9595 N   0  0  0  0  0  0  0  0  0  0  0  0
    4.6120    6.2747   15.9121 C   0  0  0  0  0  0  0  0  0  0  0  0
    5.4805    6.3602   16.8208 O   0  0  0  0  0  0  0  0  0  0  0  0
    3.7531    7.2338   14.2008 H   0  0  0  0  0  0  0  0  0  0  0  0
    3.7500    5.0906   15.8353 C   0  0  0  0  0  0  0  0  0  0  0  0
    2.3314    5.6019   16.1673 C   0  0  0  0  0  0  0  0  0  0  0  0
    4.1284    4.1046   16.8588 N   0  0  0  0  0  0  0  0  0  0  0  0
    3.9859    2.7210   16.5832 C   0  0  0  0  0  0  0  0  0  0  0  0
    3.5336    2.3124   15.4723 O   0  0  0  0  0  0  0  0  0  0  0  0
    4.4964    4.3982   17.7780 H   0  0  0  0  0  0  0  0  0  0  0  0
    4.3642    1.7191   17.5901 C   0  0  0  0  0  0  0  0  0  0  0  0
    3.7451    0.3837   17.1509 C   0  0  0  0  0  0  0  0  0  0  0  0
    3.7962    2.0717   18.8994 N   0  0  0  0  0  0  0  0  0  0  0  0
    4.3463    1.6388   20.1259 C   0  0  0  0  0  0  0  0  0  0  0  0
    5.3765    0.9052   20.0632 O   0  0  0  0  0  0  0  0  0  0  0  0
    2.9369    2.6866   18.8186 H   0  0  0  0  0  0  0  0  0  0  0  0
    3.7252    2.0412   21.4078 C   0  0  0  0  0  0  0  0  0  0  0  0
    3.3383    0.8275   22.2573 C   0  0  0  0  0  0  0  0  0  0  0  0
    4.7173    2.7927   22.2402 C   0  0  0  0  0  0  0  0  0  0  0  0
    6.0182    2.1791   22.6370 C   0  0  0  0  0  0  0  0  0  0  0  0
    4.4258    3.9221   22.5832 O   0  0  0  0  0  0  0  0  0  0  0  0
    4.0913    6.6377   20.2282 C   0  0  0  0  0  0  0  0  0  0  0  0
    3.3156    5.3922   19.6687 C   0  0  0  0  0  0  0  0  0  0  0  0
    6.4171    7.1731   20.9892 N   0  0  0  0  0  0  0  0  0  0  0  0
    5.4873    6.2904   20.3841 C   0  0  0  0  0  0  0  0  0  0  0  0
    5.8971    5.1783   19.9782 O   0  0  0  0  0  0  0  0  0  0  0  0
    6.0797    8.1052   21.2977 H   0  0  0  0  0  0  0  0  0  0  0  0
    7.8150    6.7618   21.1663 C   0  0  0  0  0  0  0  0  0  0  0  0
    8.4977    7.3531   19.8869 C   0  0  0  0  0  0  0  0  0  0  0  0
    9.5496    8.2254   22.3748 N   0  0  0  0  0  0  0  0  0  0  0  0
    8.4489    7.3592   22.3503 C   0  0  0  0  0  0  0  0  0  0  0  0
    7.9144    7.0309   23.4716 O   0  0  0  0  0  0  0  0  0  0  0  0
   10.0529    8.5221   21.5285 H   0  0  0  0  0  0  0  0  0  0  0  0
   10.0360    8.7614   23.7060 C   0  0  0  0  0  0  0  0  0  0  0  0
    9.9596   10.2129   23.6402 C   0  0  0  0  0  0  0  0  0  0  0  0
   10.9997   10.8964   23.9403 O   0  0  0  0  0  0  0  0  0  0  0  0
    8.7840   10.9566   23.2339 N   0  0  0  0  0  0  0  0  0  0  0  0
    7.4736   10.4826   22.9184 C   0  0  0  0  0  0  0  0  0  0  0  0
    7.2388   11.0616   21.5143 C   0  0  0  0  0  0  0  0  0  0  0  0
    7.9690   12.3662   21.5610 C   0  0  0  0  0  0  0  0  0  0  0  0
    8.7851   12.3428   22.8824 C   0  0  0  0  0  0  0  0  0  0  0  0
    8.4183   13.4245   23.7241 C   0  0  0  0  0  0  0  0  0  0  0  0
    8.0393   12.9906   24.9251 O   0  0  0  0  0  0  0  0  0  0  0  0
    8.3487   14.8287   23.6361 N   0  0  0  0  0  0  0  0  0  0  0  0
    8.6422   15.7744   22.5862 C   0  0  0  0  0  0  0  0  0  0  0  0
    9.4879   16.8010   23.3667 C   0  0  0  0  0  0  0  0  0  0  0  0
    8.6789   16.9583   24.6610 C   0  0  0  0  0  0  0  0  0  0  0  0
    7.9048   15.7023   24.7239 C   0  0  0  0  0  0  0  0  0  0  0  0
    7.0077   15.4139   25.5687 O   0  0  0  0  0  0  0  0  0  0  0  0
   11.3615    8.1206   23.8829 C   0  0  0  0  0  0  0  0  0  0  0  0
   12.3332    6.5906   25.5825 C   0  0  0  0  0  0  0  0  0  0  0  0
   11.5100    6.7275   24.3133 C   0  0  0  0  0  0  0  0  0  0  0  0
   11.8758    5.7083   23.3094 C   0  0  0  0  0  0  0  0  0  0  0  0
 63 64  1  0  0  0
 64 65  1  0  0  0
 64 62  1  0  0  0
 62 46  1  0  0  0
 46 42  1  0  0  0
 42 43  1  0  0  0
 43 44  2  0  0  0
 43 40  1  0  0  0
 40 41  1  0  0  0
 40 36  1  0  0  0
 36 37  1  0  0  0
 37 38  2  0  0  0
 37 34  1  0  0  0
 34 35  1  0  0  0
 34  1  1  0  0  0
  1  2  1  0  0  0
  2  3  2  0  0  0
  2  5  1  0  0  0
  5  6  1  0  0  0
  5  7  1  0  0  0
  7  8  1  0  0  0
  8  9  2  0  0  0
  8 11  1  0  0  0
 11 12  1  0  0  0
 11 13  1  0  0  0
 13 14  1  0  0  0
 14 15  2  0  0  0
 14 17  1  0  0  0
 17 18  1  0  0  0
 17 19  1  0  0  0
 19 20  1  0  0  0
 20 21  2  0  0  0
 20 23  1  0  0  0
 23 24  1  0  0  0
 23 25  1  0  0  0
 25 26  1  0  0  0
 26 27  2  0  0  0
 26 29  1  0  0  0
 29 30  1  0  0  0
 29 31  1  0  0  0
 31 32  1  0  0  0
 31 33  2  0  0  0
 46 47  1  0  0  0
 47 48  2  0  0  0
 47 49  1  0  0  0
 49 50  1  0  0  0
 50 51  1  0  0  0
 51 52  1  0  0  0
 52 53  1  0  0  0
 53 54  1  0  0  0
 54 55  2  0  0  0
 54 56  1  0  0  0
 56 57  1  0  0  0
 57 58  1  0  0  0
 58 59  1  0  0  0
 59 60  1  0  0  0
 60 61  2  0  0  0
 53 49  1  0  0  0
 60 56  1  0  0  0
 42 45  1  0  0  0
 36 39  1  0  0  0
  1  4  1  0  0  0
  7 10  1  0  0  0
 13 16  1  0  0  0
 19 22  1  0  0  0
 25 28  1  0  0  0
M  END
> <minimizedAffinity>
-8.23413

> <CNNscore>
0.2830999792

> <CNNaffinity>
7.2855787277

> <CNN_VS>
2.0625472069

> <CNNaffinity_variance>
0.2486862242

$$$$
[H]N(C(=O)[C@]([H])(C(=O)C([H])([H])[H])C([H])([H])[H])[C@]([H])(C(=O)N([H])[C@]([H])(C(=O)N([H])[C@]([H])(C(=O)N([H])[C@]([H])(C(=O)N([H])[C@]([H])(C(=O)N([H])[C@]([H])(C(=O)N([H])[C@]([H])(C(=O)N1C([H])([H])C([H])([H])C([H])([H])[C@@]1([H])C(=O)N1C(=O)C([H])([H])C([H])([H])C1([H])[H])C([H])([H])C([H])(C([H])([H])[H])C([H])([H])[H])C([H])([H])[H])C([H])([H])[H])C([H])([H])[H])C([H])([H])[H])C([H])([H])[H])C([H])([H])[H]


 65 66  0  0  0  0  0  0  0  0999 V2000
    3.0884    9.8820   16.5076 N   0  0  0  0  0  0  0  0  0  0  0  0
    3.2782    9.7158   15.1215 C   0  0  0  0  0  0  0  0  0  0  0  0
    3.6205   10.6715   14.3658 O   0  0  0  0  0  0  0  0  0  0  0  0
    2.7949    9.0858   17.0900 H   0  0  0  0  0  0  0  0  0  0  0  0
    3.0793    8.4029   14.5030 C   0  0  0  0  0  0  0  0  0  0  0  0
    4.2351    8.1428   13.4791 C   0  0  0  0  0  0  0  0  0  0  0  0
    1.8625    8.4304   13.7058 N   0  0  0  0  0  0  0  0  0  0  0  0
    1.0061    7.3018   13.7507 C   0  0  0  0  0  0  0  0  0  0  0  0
    1.3960    6.3208   14.4865 O   0  0  0  0  0  0  0  0  0  0  0  0
    1.6622    9.2654   13.1384 H   0  0  0  0  0  0  0  0  0  0  0  0
   -0.2724    7.2069   13.0126 C   0  0  0  0  0  0  0  0  0  0  0  0
   -1.3219    6.7205   14.0266 C   0  0  0  0  0  0  0  0  0  0  0  0
   -0.1833    6.2550   11.9178 N   0  0  0  0  0  0  0  0  0  0  0  0
    0.5075    6.5367   10.6956 C   0  0  0  0  0  0  0  0  0  0  0  0
    1.0525    7.6601   10.5284 O   0  0  0  0  0  0  0  0  0  0  0  0
   -0.6447    5.3189   12.0282 H   0  0  0  0  0  0  0  0  0  0  0  0
    0.5838    5.5235    9.6379 C   0  0  0  0  0  0  0  0  0  0  0  0
   -0.6843    5.7362    8.7830 C   0  0  0  0  0  0  0  0  0  0  0  0
    0.5244    4.1697   10.2093 N   0  0  0  0  0  0  0  0  0  0  0  0
    1.4410    3.1828    9.7659 C   0  0  0  0  0  0  0  0  0  0  0  0
    2.3112    3.4400    8.8814 O   0  0  0  0  0  0  0  0  0  0  0  0
   -0.1732    3.9200   10.9287 H   0  0  0  0  0  0  0  0  0  0  0  0
    1.4027    1.8255   10.3287 C   0  0  0  0  0  0  0  0  0  0  0  0
    1.9281    1.9203   11.7690 C   0  0  0  0  0  0  0  0  0  0  0  0
    2.3006    0.9360    9.5777 N   0  0  0  0  0  0  0  0  0  0  0  0
    1.9485   -0.3758    9.1913 C   0  0  0  0  0  0  0  0  0  0  0  0
    0.7976   -0.7819    9.5291 O   0  0  0  0  0  0  0  0  0  0  0  0
    3.2325    1.3897    9.3571 H   0  0  0  0  0  0  0  0  0  0  0  0
    2.9016   -1.2119    8.4276 C   0  0  0  0  0  0  0  0  0  0  0  0
    3.8882   -0.3596    7.6247 C   0  0  0  0  0  0  0  0  0  0  0  0
    3.7549   -2.0018    9.3708 C   0  0  0  0  0  0  0  0  0  0  0  0
    4.8563   -1.3571   10.1440 C   0  0  0  0  0  0  0  0  0  0  0  0
    3.5200   -3.1892    9.4850 O   0  0  0  0  0  0  0  0  0  0  0  0
    3.3037   11.1705   17.1376 C   0  0  0  0  0  0  0  0  0  0  0  0
    2.3490   11.1059   18.3828 C   0  0  0  0  0  0  0  0  0  0  0  0
    5.0722   10.8376   18.8801 N   0  0  0  0  0  0  0  0  0  0  0  0
    4.6697   11.2921   17.5989 C   0  0  0  0  0  0  0  0  0  0  0  0
    5.5312   11.8103   16.8515 O   0  0  0  0  0  0  0  0  0  0  0  0
    4.3495   10.4356   19.5076 H   0  0  0  0  0  0  0  0  0  0  0  0
    6.4780   10.9412   19.2899 C   0  0  0  0  0  0  0  0  0  0  0  0
    6.3722   11.7388   20.6335 C   0  0  0  0  0  0  0  0  0  0  0  0
    6.9960    8.8887   20.7493 N   0  0  0  0  0  0  0  0  0  0  0  0
    7.0971    9.6378   19.5700 C   0  0  0  0  0  0  0  0  0  0  0  0
    7.8043    9.1593   18.6099 O   0  0  0  0  0  0  0  0  0  0  0  0
    6.4711    9.2048   21.5752 H   0  0  0  0  0  0  0  0  0  0  0  0
    7.6882    7.5432   20.8292 C   0  0  0  0  0  0  0  0  0  0  0  0
    6.6536    6.5360   21.0090 C   0  0  0  0  0  0  0  0  0  0  0  0
    6.4179    6.1024   22.1903 O   0  0  0  0  0  0  0  0  0  0  0  0
    5.8410    5.9923   19.9393 N   0  0  0  0  0  0  0  0  0  0  0  0
    5.9210    6.2220   18.5313 C   0  0  0  0  0  0  0  0  0  0  0  0
    4.4953    6.6811   18.1871 C   0  0  0  0  0  0  0  0  0  0  0  0
    3.6494    5.8985   19.1407 C   0  0  0  0  0  0  0  0  0  0  0  0
    4.6417    5.2390   20.1373 C   0  0  0  0  0  0  0  0  0  0  0  0
    4.5220    3.8254   20.1112 C   0  0  0  0  0  0  0  0  0  0  0  0
    3.8476    3.4210   19.0360 O   0  0  0  0  0  0  0  0  0  0  0  0
    4.9236    2.7364   20.9093 N   0  0  0  0  0  0  0  0  0  0  0  0
    5.6607    2.6289   22.1454 C   0  0  0  0  0  0  0  0  0  0  0  0
    6.6655    1.5197   21.7729 C   0  0  0  0  0  0  0  0  0  0  0  0
    5.7662    0.5082   21.0501 C   0  0  0  0  0  0  0  0  0  0  0  0
    4.6277    1.3357   20.6028 C   0  0  0  0  0  0  0  0  0  0  0  0
    3.5696    0.9205   20.0465 O   0  0  0  0  0  0  0  0  0  0  0  0
    8.7012    7.7288   21.8962 C   0  0  0  0  0  0  0  0  0  0  0  0
   10.4356    6.4824   20.6266 C   0  0  0  0  0  0  0  0  0  0  0  0
    9.9071    6.9010   21.9878 C   0  0  0  0  0  0  0  0  0  0  0  0
    9.9310    5.7837   22.9529 C   0  0  0  0  0  0  0  0  0  0  0  0
 63 64  1  0  0  0
 64 65  1  0  0  0
 64 62  1  0  0  0
 62 46  1  0  0  0
 46 42  1  0  0  0
 42 43  1  0  0  0
 43 44  2  0  0  0
 43 40  1  0  0  0
 40 41  1  0  0  0
 40 36  1  0  0  0
 36 37  1  0  0  0
 37 38  2  0  0  0
 37 34  1  0  0  0
 34 35  1  0  0  0
 34  1  1  0  0  0
  1  2  1  0  0  0
  2  3  2  0  0  0
  2  5  1  0  0  0
  5  6  1  0  0  0
  5  7  1  0  0  0
  7  8  1  0  0  0
  8  9  2  0  0  0
  8 11  1  0  0  0
 11 12  1  0  0  0
 11 13  1  0  0  0
 13 14  1  0  0  0
 14 15  2  0  0  0
 14 17  1  0  0  0
 17 18  1  0  0  0
 17 19  1  0  0  0
 19 20  1  0  0  0
 20 21  2  0  0  0
 20 23  1  0  0  0
 23 24  1  0  0  0
 23 25  1  0  0  0
 25 26  1  0  0  0
 26 27  2  0  0  0
 26 29  1  0  0  0
 29 30  1  0  0  0
 29 31  1  0  0  0
 31 32  1  0  0  0
 31 33  2  0  0  0
 46 47  1  0  0  0
 47 48  2  0  0  0
 47 49  1  0  0  0
 49 50  1  0  0  0
 50 51  1  0  0  0
 51 52  1  0  0  0
 52 53  1  0  0  0
 53 54  1  0  0  0
 54 55  2  0  0  0
 54 56  1  0  0  0
 56 57  1  0  0  0
 57 58  1  0  0  0
 58 59  1  0  0  0
 59 60  1  0  0  0
 60 61  2  0  0  0
 53 49  1  0  0  0
 60 56  1  0  0  0
 42 45  1  0  0  0
 36 39  1  0  0  0
  1  4  1  0  0  0
  7 10  1  0  0  0
 13 16  1  0  0  0
 19 22  1  0  0  0
 25 28  1  0  0  0
M  END
> <minimizedAffinity>
-8.59142

> <CNNscore>
0.2756889462

> <CNNaffinity>
6.9327445030

> <CNN_VS>
1.9112809896

> <CNNaffinity_variance>
0.4986796379

$$$$
[H]N(C(=O)[C@]([H])(C(=O)C([H])([H])[H])C([H])([H])[H])[C@]([H])(C(=O)N([H])[C@]([H])(C(=O)N([H])[C@]([H])(C(=O)N([H])[C@]([H])(C(=O)N([H])[C@]([H])(C(=O)N([H])[C@]([H])(C(=O)N([H])[C@]([H])(C(=O)N1C([H])([H])C([H])([H])C([H])([H])[C@@]1([H])C(=O)N1C(=O)C([H])([H])C([H])([H])C1([H])[H])C([H])([H])C([H])(C([H])([H])[H])C([H])([H])[H])C([H])([H])[H])C([H])([H])[H])C([H])([H])[H])C([H])([H])[H])C([H])([H])[H])C([H])([H])[H]


 65 66  0  0  0  0  0  0  0  0999 V2000
    4.4222    7.8133   20.2158 N   0  0  0  0  0  0  0  0  0  0  0  0
    4.6105    9.2068   20.1288 C   0  0  0  0  0  0  0  0  0  0  0  0
    4.9508    9.9074   21.1263 O   0  0  0  0  0  0  0  0  0  0  0  0
    4.1303    7.2768   19.3875 H   0  0  0  0  0  0  0  0  0  0  0  0
    4.4125    9.8986   18.8529 C   0  0  0  0  0  0  0  0  0  0  0  0
    2.9482   10.4504   18.7955 C   0  0  0  0  0  0  0  0  0  0  0  0
    4.4990    8.9330   17.7680 N   0  0  0  0  0  0  0  0  0  0  0  0
    5.6944    8.8841   17.0079 C   0  0  0  0  0  0  0  0  0  0  0  0
    6.6090    9.7294   17.3312 O   0  0  0  0  0  0  0  0  0  0  0  0
    3.6937    8.3175   17.5888 H   0  0  0  0  0  0  0  0  0  0  0  0
    5.9268    7.9357   15.8967 C   0  0  0  0  0  0  0  0  0  0  0  0
    5.6450    8.7125   14.5993 C   0  0  0  0  0  0  0  0  0  0  0  0
    5.0315    6.7936   15.9781 N   0  0  0  0  0  0  0  0  0  0  0  0
    5.0622    5.8560   17.0599 C   0  0  0  0  0  0  0  0  0  0  0  0
    5.9078    5.9926   17.9837 O   0  0  0  0  0  0  0  0  0  0  0  0
    4.3302    6.6502   15.2107 H   0  0  0  0  0  0  0  0  0  0  0  0
    4.1140    4.7377   17.0976 C   0  0  0  0  0  0  0  0  0  0  0  0
    2.7974    5.3428   17.6309 C   0  0  0  0  0  0  0  0  0  0  0  0
    4.5599    3.7097   18.0501 N   0  0  0  0  0  0  0  0  0  0  0  0
    4.0749    2.3831   17.9248 C   0  0  0  0  0  0  0  0  0  0  0  0
    3.2590    2.0622   17.0099 O   0  0  0  0  0  0  0  0  0  0  0  0
    5.2203    3.9331   18.8119 H   0  0  0  0  0  0  0  0  0  0  0  0
    4.5129    1.3393   18.8625 C   0  0  0  0  0  0  0  0  0  0  0  0
    3.3308    0.3762   19.0482 C   0  0  0  0  0  0  0  0  0  0  0  0
    4.8258    1.9287   20.1725 N   0  0  0  0  0  0  0  0  0  0  0  0
    5.6396    1.2923   21.1352 C   0  0  0  0  0  0  0  0  0  0  0  0
    6.1033    0.1542   20.8297 O   0  0  0  0  0  0  0  0  0  0  0  0
    4.3787    2.8797   20.3086 H   0  0  0  0  0  0  0  0  0  0  0  0
    5.9195    1.9507   22.4310 C   0  0  0  0  0  0  0  0  0  0  0  0
    6.5280    3.3429   22.2412 C   0  0  0  0  0  0  0  0  0  0  0  0
    4.6383    2.1883   23.1684 C   0  0  0  0  0  0  0  0  0  0  0  0
    3.4864    1.2483   23.0426 C   0  0  0  0  0  0  0  0  0  0  0  0
    4.5679    3.1759   23.8740 O   0  0  0  0  0  0  0  0  0  0  0  0
    4.6366    7.1114   21.4667 C   0  0  0  0  0  0  0  0  0  0  0  0
    4.2287    5.6383   21.1065 C   0  0  0  0  0  0  0  0  0  0  0  0
    6.5238    7.9545   22.8818 N   0  0  0  0  0  0  0  0  0  0  0  0
    6.0363    7.1351   21.8326 C   0  0  0  0  0  0  0  0  0  0  0  0
    6.8501    6.4122   21.2125 O   0  0  0  0  0  0  0  0  0  0  0  0
    5.8513    8.5738   23.3738 H   0  0  0  0  0  0  0  0  0  0  0  0
    7.9448    7.9141   23.2480 C   0  0  0  0  0  0  0  0  0  0  0  0
    8.5897    8.8517   22.1720 C   0  0  0  0  0  0  0  0  0  0  0  0
    9.3093    8.1979   25.4087 N   0  0  0  0  0  0  0  0  0  0  0  0
    8.2161    8.4770   24.5785 C   0  0  0  0  0  0  0  0  0  0  0  0
    7.3355    9.3119   25.0006 O   0  0  0  0  0  0  0  0  0  0  0  0
   10.0482    7.5266   25.1620 H   0  0  0  0  0  0  0  0  0  0  0  0
    9.4246    8.9119   26.7402 C   0  0  0  0  0  0  0  0  0  0  0  0
   10.3460   10.0228   26.5555 C   0  0  0  0  0  0  0  0  0  0  0  0
   11.5154    9.7800   26.0944 O   0  0  0  0  0  0  0  0  0  0  0  0
   10.0297   11.4087   26.8376 N   0  0  0  0  0  0  0  0  0  0  0  0
    8.8529   11.9711   27.4209 C   0  0  0  0  0  0  0  0  0  0  0  0
    8.4237   13.0083   26.3713 C   0  0  0  0  0  0  0  0  0  0  0  0
    9.7278   13.4859   25.8160 C   0  0  0  0  0  0  0  0  0  0  0  0
   10.8045   12.5230   26.3874 C   0  0  0  0  0  0  0  0  0  0  0  0
   11.7720   13.2351   27.1425 C   0  0  0  0  0  0  0  0  0  0  0  0
   11.5108   14.5413   27.1466 O   0  0  0  0  0  0  0  0  0  0  0  0
   12.9287   12.9368   27.8891 N   0  0  0  0  0  0  0  0  0  0  0  0
   13.6250   11.7104   28.1953 C   0  0  0  0  0  0  0  0  0  0  0  0
   13.8224   11.8764   29.7158 C   0  0  0  0  0  0  0  0  0  0  0  0
   14.2748   13.3390   29.8181 C   0  0  0  0  0  0  0  0  0  0  0  0
   13.7486   13.9374   28.5748 C   0  0  0  0  0  0  0  0  0  0  0  0
   13.9600   15.1139   28.1589 O   0  0  0  0  0  0  0  0  0  0  0  0
    9.7847    7.8323   27.6910 C   0  0  0  0  0  0  0  0  0  0  0  0
    9.9042    5.3676   27.9816 C   0  0  0  0  0  0  0  0  0  0  0  0
   10.4399    6.5935   27.2622 C   0  0  0  0  0  0  0  0  0  0  0  0
   11.9125    6.5677   27.1564 C   0  0  0  0  0  0  0  0  0  0  0  0
 63 64  1  0  0  0
 64 65  1  0  0  0
 64 62  1  0  0  0
 62 46  1  0  0  0
 46 42  1  0  0  0
 42 43  1  0  0  0
 43 44  2  0  0  0
 43 40  1  0  0  0
 40 41  1  0  0  0
 40 36  1  0  0  0
 36 37  1  0  0  0
 37 38  2  0  0  0
 37 34  1  0  0  0
 34 35  1  0  0  0
 34  1  1  0  0  0
  1  2  1  0  0  0
  2  3  2  0  0  0
  2  5  1  0  0  0
  5  6  1  0  0  0
  5  7  1  0  0  0
  7  8  1  0  0  0
  8  9  2  0  0  0
  8 11  1  0  0  0
 11 12  1  0  0  0
 11 13  1  0  0  0
 13 14  1  0  0  0
 14 15  2  0  0  0
 14 17  1  0  0  0
 17 18  1  0  0  0
 17 19  1  0  0  0
 19 20  1  0  0  0
 20 21  2  0  0  0
 20 23  1  0  0  0
 23 24  1  0  0  0
 23 25  1  0  0  0
 25 26  1  0  0  0
 26 27  2  0  0  0
 26 29  1  0  0  0
 29 30  1  0  0  0
 29 31  1  0  0  0
 31 32  1  0  0  0
 31 33  2  0  0  0
 46 47  1  0  0  0
 47 48  2  0  0  0
 47 49  1  0  0  0
 49 50  1  0  0  0
 50 51  1  0  0  0
 51 52  1  0  0  0
 52 53  1  0  0  0
 53 54  1  0  0  0
 54 55  2  0  0  0
 54 56  1  0  0  0
 56 57  1  0  0  0
 57 58  1  0  0  0
 58 59  1  0  0  0
 59 60  1  0  0  0
 60 61  2  0  0  0
 53 49  1  0  0  0
 60 56  1  0  0  0
 42 45  1  0  0  0
 36 39  1  0  0  0
  1  4  1  0  0  0
  7 10  1  0  0  0
 13 16  1  0  0  0
 19 22  1  0  0  0
 25 28  1  0  0  0
M  END
> <minimizedAffinity>
-7.59632

> <CNNscore>
0.2527603507

> <CNNaffinity>
7.1366157532

> <CNN_VS>
1.8038535118

> <CNNaffinity_variance>
0.0920204744

$$$$
[H]N(C(=O)[C@]([H])(C(=O)C([H])([H])[H])C([H])([H])[H])[C@]([H])(C(=O)N([H])[C@]([H])(C(=O)N([H])[C@]([H])(C(=O)N([H])[C@]([H])(C(=O)N([H])[C@]([H])(C(=O)N([H])[C@]([H])(C(=O)N([H])[C@]([H])(C(=O)N1C([H])([H])C([H])([H])C([H])([H])[C@@]1([H])C(=O)N1C(=O)C([H])([H])C([H])([H])C1([H])[H])C([H])([H])C([H])(C([H])([H])[H])C([H])([H])[H])C([H])([H])[H])C([H])([H])[H])C([H])([H])[H])C([H])([H])[H])C([H])([H])[H])C([H])([H])[H]


 65 66  0  0  0  0  0  0  0  0999 V2000
    4.0545    7.6028   19.2538 N   0  0  0  0  0  0  0  0  0  0  0  0
    4.2342    8.9846   19.4620 C   0  0  0  0  0  0  0  0  0  0  0  0
    4.5281    9.4659   20.5950 O   0  0  0  0  0  0  0  0  0  0  0  0
    3.8008    7.2475   18.3218 H   0  0  0  0  0  0  0  0  0  0  0  0
    4.0817    9.9233   18.3479 C   0  0  0  0  0  0  0  0  0  0  0  0
    2.6770   10.6080   18.4483 C   0  0  0  0  0  0  0  0  0  0  0  0
    4.0549    9.1797   17.0976 N   0  0  0  0  0  0  0  0  0  0  0  0
    5.1935    9.2430   16.2556 C   0  0  0  0  0  0  0  0  0  0  0  0
    6.1621    9.9854   16.6634 O   0  0  0  0  0  0  0  0  0  0  0  0
    3.2146    8.6324   16.8660 H   0  0  0  0  0  0  0  0  0  0  0  0
    5.3111    8.5172   14.9719 C   0  0  0  0  0  0  0  0  0  0  0  0
    4.7935    9.4746   13.8850 C   0  0  0  0  0  0  0  0  0  0  0  0
    4.5058    7.3073   14.9710 N   0  0  0  0  0  0  0  0  0  0  0  0
    4.6451    6.2787   15.9574 C   0  0  0  0  0  0  0  0  0  0  0  0
    5.5117    6.3936   16.8645 O   0  0  0  0  0  0  0  0  0  0  0  0
    3.7892    7.1822   14.2146 H   0  0  0  0  0  0  0  0  0  0  0  0
    3.7837    5.0924   15.9167 C   0  0  0  0  0  0  0  0  0  0  0  0
    2.3669    5.6110   16.2449 C   0  0  0  0  0  0  0  0  0  0  0  0
    4.1697    4.1333   16.9627 N   0  0  0  0  0  0  0  0  0  0  0  0
    4.0202    2.7432   16.7263 C   0  0  0  0  0  0  0  0  0  0  0  0
    3.5553    2.3060   15.6315 O   0  0  0  0  0  0  0  0  0  0  0  0
    4.5480    4.4506   17.8697 H   0  0  0  0  0  0  0  0  0  0  0  0
    4.4060    1.7677   17.7560 C   0  0  0  0  0  0  0  0  0  0  0  0
    3.7600    0.4282   17.3717 C   0  0  0  0  0  0  0  0  0  0  0  0
    3.8703    2.1688   19.0651 N   0  0  0  0  0  0  0  0  0  0  0  0
    4.3724    1.6809   20.2915 C   0  0  0  0  0  0  0  0  0  0  0  0
    5.3277    0.8520   20.2290 O   0  0  0  0  0  0  0  0  0  0  0  0
    3.0743    2.8635   18.9840 H   0  0  0  0  0  0  0  0  0  0  0  0
    3.7888    2.1367   21.5731 C   0  0  0  0  0  0  0  0  0  0  0  0
    3.4949    0.9638   22.5125 C   0  0  0  0  0  0  0  0  0  0  0  0
    4.7797    2.9819   22.3116 C   0  0  0  0  0  0  0  0  0  0  0  0
    4.3371    4.0885   23.2094 C   0  0  0  0  0  0  0  0  0  0  0  0
    5.9599    2.7361   22.1538 O   0  0  0  0  0  0  0  0  0  0  0  0
    4.2245    6.6594   20.3421 C   0  0  0  0  0  0  0  0  0  0  0  0
    3.3212    5.4552   19.8948 C   0  0  0  0  0  0  0  0  0  0  0  0
    6.6174    7.0156   20.9916 N   0  0  0  0  0  0  0  0  0  0  0  0
    5.5982    6.2121   20.4209 C   0  0  0  0  0  0  0  0  0  0  0  0
    5.9074    5.0821   19.9772 O   0  0  0  0  0  0  0  0  0  0  0  0
    6.3628    7.9630   21.3316 H   0  0  0  0  0  0  0  0  0  0  0  0
    7.9897    6.5039   21.0905 C   0  0  0  0  0  0  0  0  0  0  0  0
    8.7719    7.4708   20.1386 C   0  0  0  0  0  0  0  0  0  0  0  0
    9.2213    7.7281   22.9868 N   0  0  0  0  0  0  0  0  0  0  0  0
    8.5560    6.6224   22.4418 C   0  0  0  0  0  0  0  0  0  0  0  0
    8.4114    5.5810   23.1803 O   0  0  0  0  0  0  0  0  0  0  0  0
    9.4018    8.5933   22.4610 H   0  0  0  0  0  0  0  0  0  0  0  0
    9.7058    7.6633   24.4210 C   0  0  0  0  0  0  0  0  0  0  0  0
    9.1021    8.7806   25.1310 C   0  0  0  0  0  0  0  0  0  0  0  0
    7.8262    8.8311   25.2243 O   0  0  0  0  0  0  0  0  0  0  0  0
    9.8465    9.8473   25.7700 N   0  0  0  0  0  0  0  0  0  0  0  0
   11.2530   10.0986   25.7716 C   0  0  0  0  0  0  0  0  0  0  0  0
   11.5769   10.1710   27.2721 C   0  0  0  0  0  0  0  0  0  0  0  0
   10.3383   10.7727   27.8560 C   0  0  0  0  0  0  0  0  0  0  0  0
    9.2909   10.7717   26.7090 C   0  0  0  0  0  0  0  0  0  0  0  0
    8.8442   12.0890   26.4291 C   0  0  0  0  0  0  0  0  0  0  0  0
    7.6805   12.3381   27.0277 O   0  0  0  0  0  0  0  0  0  0  0  0
    9.2967   13.2028   25.6950 N   0  0  0  0  0  0  0  0  0  0  0  0
   10.4673   13.4524   24.8886 C   0  0  0  0  0  0  0  0  0  0  0  0
   10.9001   14.8237   25.4458 C   0  0  0  0  0  0  0  0  0  0  0  0
    9.5611   15.5686   25.5278 C   0  0  0  0  0  0  0  0  0  0  0  0
    8.5741   14.4719   25.5923 C   0  0  0  0  0  0  0  0  0  0  0  0
    7.3145   14.5920   25.5657 O   0  0  0  0  0  0  0  0  0  0  0  0
   11.1822    7.6081   24.2940 C   0  0  0  0  0  0  0  0  0  0  0  0
   13.1813    6.8368   25.5519 C   0  0  0  0  0  0  0  0  0  0  0  0
   11.9657    6.4481   24.7281 C   0  0  0  0  0  0  0  0  0  0  0  0
   12.2845    5.3962   23.7422 C   0  0  0  0  0  0  0  0  0  0  0  0
 63 64  1  0  0  0
 64 65  1  0  0  0
 64 62  1  0  0  0
 62 46  1  0  0  0
 46 42  1  0  0  0
 42 43  1  0  0  0
 43 44  2  0  0  0
 43 40  1  0  0  0
 40 41  1  0  0  0
 40 36  1  0  0  0
 36 37  1  0  0  0
 37 38  2  0  0  0
 37 34  1  0  0  0
 34 35  1  0  0  0
 34  1  1  0  0  0
  1  2  1  0  0  0
  2  3  2  0  0  0
  2  5  1  0  0  0
  5  6  1  0  0  0
  5  7  1  0  0  0
  7  8  1  0  0  0
  8  9  2  0  0  0
  8 11  1  0  0  0
 11 12  1  0  0  0
 11 13  1  0  0  0
 13 14  1  0  0  0
 14 15  2  0  0  0
 14 17  1  0  0  0
 17 18  1  0  0  0
 17 19  1  0  0  0
 19 20  1  0  0  0
 20 21  2  0  0  0
 20 23  1  0  0  0
 23 24  1  0  0  0
 23 25  1  0  0  0
 25 26  1  0  0  0
 26 27  2  0  0  0
 26 29  1  0  0  0
 29 30  1  0  0  0
 29 31  1  0  0  0
 31 32  1  0  0  0
 31 33  2  0  0  0
 46 47  1  0  0  0
 47 48  2  0  0  0
 47 49  1  0  0  0
 49 50  1  0  0  0
 50 51  1  0  0  0
 51 52  1  0  0  0
 52 53  1  0  0  0
 53 54  1  0  0  0
 54 55  2  0  0  0
 54 56  1  0  0  0
 56 57  1  0  0  0
 57 58  1  0  0  0
 58 59  1  0  0  0
 59 60  1  0  0  0
 60 61  2  0  0  0
 53 49  1  0  0  0
 60 56  1  0  0  0
 42 45  1  0  0  0
 36 39  1  0  0  0
  1  4  1  0  0  0
  7 10  1  0  0  0
 13 16  1  0  0  0
 19 22  1  0  0  0
 25 28  1  0  0  0
M  END
> <minimizedAffinity>
-8.45959

> <CNNscore>
0.2345622480

> <CNNaffinity>
7.3029975891

> <CNN_VS>
1.7130075693

> <CNNaffinity_variance>
0.1659196466

$$$$
[H]N(C(=O)[C@@]([H])(N([H])C(=O)[C@@]([H])(N([H])C(=O)[C@@]([H])(N([H])C(=O)[C@@]([H])(C(=O)C([H])([H])[H])C([H])([H])[H])C([H])([H])[H])C([H])([H])[H])C([H])([H])[H])[C@]([H])(C(=O)N([H])[C@]([H])(C(=O)N([H])[C@]([H])(C(=O)N([H])[C@]([H])(C(=O)N([H])[C@]([H])(C(=O)N1C([H])([H])C([H])([H])C([H])([H])[C@]1([H])C(=O)N1C(=O)C([H])([H])C([H])([H])C1([H])[H])C([H])([H])C([H])(C([H])([H])[H])C([H])([H])[H])C([H])([H])[H])C([H])([H])[H])C([H])([H])[H])C([H])([H])[H]


 71 72  0  0  0  0  0  0  0  0999 V2000
    3.1301    8.5152   15.0793 N   0  0  0  0  0  0  0  0  0  0  0  0
    3.5466    9.7586   15.5742 C   0  0  0  0  0  0  0  0  0  0  0  0
    3.8649   10.6629   14.7459 O   0  0  0  0  0  0  0  0  0  0  0  0
    2.8638    7.7254   15.7040 H   0  0  0  0  0  0  0  0  0  0  0  0
    3.6207   10.0595   17.0067 C   0  0  0  0  0  0  0  0  0  0  0  0
    4.0155   11.5218   17.2456 C   0  0  0  0  0  0  0  0  0  0  0  0
    4.6463    9.2602   17.6242 N   0  0  0  0  0  0  0  0  0  0  0  0
    4.5924    7.9435   18.0569 C   0  0  0  0  0  0  0  0  0  0  0  0
    3.5082    7.2851   17.9301 O   0  0  0  0  0  0  0  0  0  0  0  0
    5.5743    9.7735   17.7656 H   0  0  0  0  0  0  0  0  0  0  0  0
    5.7373    7.2547   18.6629 C   0  0  0  0  0  0  0  0  0  0  0  0
    6.0174    5.9285   17.9346 C   0  0  0  0  0  0  0  0  0  0  0  0
    5.6011    6.9718   20.0466 N   0  0  0  0  0  0  0  0  0  0  0  0
    6.6968    6.9725   20.9517 C   0  0  0  0  0  0  0  0  0  0  0  0
    7.8441    7.2091   20.4842 O   0  0  0  0  0  0  0  0  0  0  0  0
    4.6218    6.7464   20.4048 H   0  0  0  0  0  0  0  0  0  0  0  0
    6.4696    6.7073   22.3745 C   0  0  0  0  0  0  0  0  0  0  0  0
    7.8548    6.9687   23.0493 C   0  0  0  0  0  0  0  0  0  0  0  0
    6.2109    5.3046   22.6643 N   0  0  0  0  0  0  0  0  0  0  0  0
    4.9088    4.7574   22.5702 C   0  0  0  0  0  0  0  0  0  0  0  0
    3.9142    5.4644   22.2454 O   0  0  0  0  0  0  0  0  0  0  0  0
    7.0244    4.7242   22.9421 H   0  0  0  0  0  0  0  0  0  0  0  0
    4.7052    3.3253   22.8631 C   0  0  0  0  0  0  0  0  0  0  0  0
    6.1000    2.7605   23.1609 C   0  0  0  0  0  0  0  0  0  0  0  0
    4.2615    2.6125   21.6614 N   0  0  0  0  0  0  0  0  0  0  0  0
    3.5951    1.3683   21.8020 C   0  0  0  0  0  0  0  0  0  0  0  0
    3.4140    0.9107   22.9544 O   0  0  0  0  0  0  0  0  0  0  0  0
    4.4161    2.9842   20.7016 H   0  0  0  0  0  0  0  0  0  0  0  0
    3.1110    0.6056   20.6395 C   0  0  0  0  0  0  0  0  0  0  0  0
    3.5746   -0.8381   20.8431 C   0  0  0  0  0  0  0  0  0  0  0  0
    3.6995    1.1093   19.4145 N   0  0  0  0  0  0  0  0  0  0  0  0
    3.1690    0.7908   18.1446 C   0  0  0  0  0  0  0  0  0  0  0  0
    2.1596    0.0471   18.0877 O   0  0  0  0  0  0  0  0  0  0  0  0
    4.5355    1.7218   19.4746 H   0  0  0  0  0  0  0  0  0  0  0  0
    3.8131    1.3410   16.9058 C   0  0  0  0  0  0  0  0  0  0  0  0
    4.8953    2.3315   17.2731 C   0  0  0  0  0  0  0  0  0  0  0  0
    2.7327    2.0774   16.1924 C   0  0  0  0  0  0  0  0  0  0  0  0
    2.2438    1.5556   14.8692 C   0  0  0  0  0  0  0  0  0  0  0  0
    2.2393    3.0915   16.6588 O   0  0  0  0  0  0  0  0  0  0  0  0
    3.0467    8.2470   13.6383 C   0  0  0  0  0  0  0  0  0  0  0  0
    4.3116    7.8444   13.0122 C   0  0  0  0  0  0  0  0  0  0  0  0
    0.7196    7.4564   12.9202 N   0  0  0  0  0  0  0  0  0  0  0  0
    1.9816    7.2232   13.4821 C   0  0  0  0  0  0  0  0  0  0  0  0
    2.2177    6.0505   13.8840 O   0  0  0  0  0  0  0  0  0  0  0  0
    0.4344    8.3778   12.5472 H   0  0  0  0  0  0  0  0  0  0  0  0
   -0.2773    6.3777   12.8347 C   0  0  0  0  0  0  0  0  0  0  0  0
   -1.4810    6.6318   13.6474 C   0  0  0  0  0  0  0  0  0  0  0  0
   -1.0851    4.8554   11.0512 N   0  0  0  0  0  0  0  0  0  0  0  0
   -0.5561    6.0857   11.3841 C   0  0  0  0  0  0  0  0  0  0  0  0
   -0.2975    6.9534   10.5269 O   0  0  0  0  0  0  0  0  0  0  0  0
   -1.3170    4.1244   11.7255 H   0  0  0  0  0  0  0  0  0  0  0  0
   -1.3850    4.4470    9.6019 C   0  0  0  0  0  0  0  0  0  0  0  0
   -2.7269    4.8658    9.4418 C   0  0  0  0  0  0  0  0  0  0  0  0
   -2.9392    5.2644    8.1458 O   0  0  0  0  0  0  0  0  0  0  0  0
   -3.9279    5.0286   10.1377 N   0  0  0  0  0  0  0  0  0  0  0  0
   -4.3123    4.9159   11.5205 C   0  0  0  0  0  0  0  0  0  0  0  0
   -5.4061    5.9091   11.7165 C   0  0  0  0  0  0  0  0  0  0  0  0
   -5.7361    6.4587   10.3448 C   0  0  0  0  0  0  0  0  0  0  0  0
   -5.2069    5.3801    9.4472 C   0  0  0  0  0  0  0  0  0  0  0  0
   -6.1511    4.2485    9.4222 C   0  0  0  0  0  0  0  0  0  0  0  0
   -5.8007    3.1037    9.8803 O   0  0  0  0  0  0  0  0  0  0  0  0
   -7.4574    4.3258    8.9185 N   0  0  0  0  0  0  0  0  0  0  0  0
   -8.4441    3.2671    8.8855 C   0  0  0  0  0  0  0  0  0  0  0  0
   -9.7848    3.9722    8.8836 C   0  0  0  0  0  0  0  0  0  0  0  0
   -9.4945    5.4405    8.7349 C   0  0  0  0  0  0  0  0  0  0  0  0
   -8.0626    5.4563    8.3185 C   0  0  0  0  0  0  0  0  0  0  0  0
   -7.5104    6.3282    7.5665 O   0  0  0  0  0  0  0  0  0  0  0  0
   -0.6994    3.1931    9.4723 C   0  0  0  0  0  0  0  0  0  0  0  0
    1.6666    2.5103    8.6548 C   0  0  0  0  0  0  0  0  0  0  0  0
    0.7117    2.9054    9.6643 C   0  0  0  0  0  0  0  0  0  0  0  0
    0.8428    1.8281   10.8093 C   0  0  0  0  0  0  0  0  0  0  0  0
 69 70  1  0  0  0
 70 71  1  0  0  0
 70 68  1  0  0  0
 68 52  1  0  0  0
 52 48  1  0  0  0
 48 49  1  0  0  0
 49 50  2  0  0  0
 49 46  1  0  0  0
 46 47  1  0  0  0
 46 42  1  0  0  0
 42 43  1  0  0  0
 43 44  2  0  0  0
 43 40  1  0  0  0
 40 41  1  0  0  0
 40  1  1  0  0  0
  1  2  1  0  0  0
  2  3  2  0  0  0
  2  5  1  0  0  0
  5  6  1  0  0  0
  5  7  1  0  0  0
  7  8  1  0  0  0
  8  9  2  0  0  0
  8 11  1  0  0  0
 11 12  1  0  0  0
 11 13  1  0  0  0
 13 14  1  0  0  0
 14 15  2  0  0  0
 14 17  1  0  0  0
 17 18  1  0  0  0
 17 19  1  0  0  0
 19 20  1  0  0  0
 20 21  2  0  0  0
 20 23  1  0  0  0
 23 24  1  0  0  0
 23 25  1  0  0  0
 25 26  1  0  0  0
 26 27  2  0  0  0
 26 29  1  0  0  0
 29 30  1  0  0  0
 29 31  1  0  0  0
 31 32  1  0  0  0
 32 33  2  0  0  0
 32 35  1  0  0  0
 35 36  1  0  0  0
 35 37  1  0  0  0
 37 38  1  0  0  0
 37 39  2  0  0  0
 52 53  1  0  0  0
 53 54  2  0  0  0
 53 55  1  0  0  0
 55 56  1  0  0  0
 56 57  1  0  0  0
 57 58  1  0  0  0
 58 59  1  0  0  0
 59 60  1  0  0  0
 60 61  2  0  0  0
 60 62  1  0  0  0
 62 63  1  0  0  0
 63 64  1  0  0  0
 64 65  1  0  0  0
 65 66  1  0  0  0
 66 67  2  0  0  0
 59 55  1  0  0  0
 66 62  1  0  0  0
 48 51  1  0  0  0
 42 45  1  0  0  0
  1  4  1  0  0  0
  7 10  1  0  0  0
 13 16  1  0  0  0
 19 22  1  0  0  0
 25 28  1  0  0  0
 31 34  1  0  0  0
M  END
> <minimizedAffinity>
-8.89513

> <CNNscore>
0.4259319007

> <CNNaffinity>
7.3644232750

> <CNN_VS>
3.1367428303

> <CNNaffinity_variance>
0.3158107400

$$$$
[H]N(C(=O)[C@@]([H])(N([H])C(=O)[C@@]([H])(N([H])C(=O)[C@@]([H])(N([H])C(=O)[C@@]([H])(C(=O)C([H])([H])[H])C([H])([H])[H])C([H])([H])[H])C([H])([H])[H])C([H])([H])[H])[C@]([H])(C(=O)N([H])[C@]([H])(C(=O)N([H])[C@]([H])(C(=O)N([H])[C@]([H])(C(=O)N([H])[C@]([H])(C(=O)N1C([H])([H])C([H])([H])C([H])([H])[C@]1([H])C(=O)N1C(=O)C([H])([H])C([H])([H])C1([H])[H])C([H])([H])C([H])(C([H])([H])[H])C([H])([H])[H])C([H])([H])[H])C([H])([H])[H])C([H])([H])[H])C([H])([H])[H]


 71 72  0  0  0  0  0  0  0  0999 V2000
    3.2101    6.8153   15.1251 N   0  0  0  0  0  0  0  0  0  0  0  0
    2.9434    5.8170   16.0722 C   0  0  0  0  0  0  0  0  0  0  0  0
    2.1289    4.8961   15.7664 O   0  0  0  0  0  0  0  0  0  0  0  0
    3.8611    7.6060   15.3143 H   0  0  0  0  0  0  0  0  0  0  0  0
    3.5727    5.7884   17.3955 C   0  0  0  0  0  0  0  0  0  0  0  0
    2.8612    4.7987   18.3258 C   0  0  0  0  0  0  0  0  0  0  0  0
    3.4601    7.0800   18.0210 N   0  0  0  0  0  0  0  0  0  0  0  0
    4.2775    7.6685   18.9746 C   0  0  0  0  0  0  0  0  0  0  0  0
    5.2891    7.0296   19.4146 O   0  0  0  0  0  0  0  0  0  0  0  0
    2.6165    7.6514   17.6945 H   0  0  0  0  0  0  0  0  0  0  0  0
    4.0370    9.0118   19.5132 C   0  0  0  0  0  0  0  0  0  0  0  0
    3.1784    9.8385   18.5400 C   0  0  0  0  0  0  0  0  0  0  0  0
    5.2082    9.7584   19.8034 N   0  0  0  0  0  0  0  0  0  0  0  0
    5.7548    9.8703   21.1104 C   0  0  0  0  0  0  0  0  0  0  0  0
    5.1435    9.2974   22.0533 O   0  0  0  0  0  0  0  0  0  0  0  0
    5.6847   10.2554   18.9885 H   0  0  0  0  0  0  0  0  0  0  0  0
    6.9897   10.6291   21.3237 C   0  0  0  0  0  0  0  0  0  0  0  0
    7.1595   10.6757   22.8765 C   0  0  0  0  0  0  0  0  0  0  0  0
    6.8743   12.0320   20.9532 N   0  0  0  0  0  0  0  0  0  0  0  0
    7.1539   12.4756   19.6384 C   0  0  0  0  0  0  0  0  0  0  0  0
    7.5289   11.6772   18.7348 O   0  0  0  0  0  0  0  0  0  0  0  0
    6.5771   12.6915   21.6965 H   0  0  0  0  0  0  0  0  0  0  0  0
    7.0084   13.9080   19.3141 C   0  0  0  0  0  0  0  0  0  0  0  0
    7.8408   14.6572   20.3625 C   0  0  0  0  0  0  0  0  0  0  0  0
    5.6299   14.3502   19.5448 N   0  0  0  0  0  0  0  0  0  0  0  0
    4.7178   14.3657   18.4587 C   0  0  0  0  0  0  0  0  0  0  0  0
    5.1234   14.0079   17.3285 O   0  0  0  0  0  0  0  0  0  0  0  0
    5.2897   14.6558   20.4798 H   0  0  0  0  0  0  0  0  0  0  0  0
    3.3160   14.7851   18.6217 C   0  0  0  0  0  0  0  0  0  0  0  0
    2.9426   15.5557   17.3539 C   0  0  0  0  0  0  0  0  0  0  0  0
    3.1753   15.6735   19.7582 N   0  0  0  0  0  0  0  0  0  0  0  0
    2.3756   15.3391   20.8737 C   0  0  0  0  0  0  0  0  0  0  0  0
    1.7720   14.2387   20.8681 O   0  0  0  0  0  0  0  0  0  0  0  0
    3.6779   16.5818   19.7500 H   0  0  0  0  0  0  0  0  0  0  0  0
    2.2657   16.2923   22.0276 C   0  0  0  0  0  0  0  0  0  0  0  0
    1.6739   17.6059   21.5681 C   0  0  0  0  0  0  0  0  0  0  0  0
    3.6664   16.5429   22.4678 C   0  0  0  0  0  0  0  0  0  0  0  0
    4.0795   17.9437   22.8275 C   0  0  0  0  0  0  0  0  0  0  0  0
    4.4814   15.6376   22.5414 O   0  0  0  0  0  0  0  0  0  0  0  0
    2.5801    6.8089   13.7991 C   0  0  0  0  0  0  0  0  0  0  0  0
    1.2444    7.4150   13.7486 C   0  0  0  0  0  0  0  0  0  0  0  0
    4.9398    7.4394   13.0309 N   0  0  0  0  0  0  0  0  0  0  0  0
    3.5463    7.4813   12.8929 C   0  0  0  0  0  0  0  0  0  0  0  0
    3.0903    8.1460   11.9219 O   0  0  0  0  0  0  0  0  0  0  0  0
    5.4122    6.9096   13.7830 H   0  0  0  0  0  0  0  0  0  0  0  0
    5.8114    8.1632   12.0922 C   0  0  0  0  0  0  0  0  0  0  0  0
    6.9103    8.8864   12.7579 C   0  0  0  0  0  0  0  0  0  0  0  0
    5.3252    6.7950   10.0815 N   0  0  0  0  0  0  0  0  0  0  0  0
    6.2557    7.2153   11.0100 C   0  0  0  0  0  0  0  0  0  0  0  0
    7.4419    6.8320   10.9845 O   0  0  0  0  0  0  0  0  0  0  0  0
    4.3488    7.0936   10.0660 H   0  0  0  0  0  0  0  0  0  0  0  0
    5.6668    5.8126    8.9523 C   0  0  0  0  0  0  0  0  0  0  0  0
    5.1833    6.4887    7.8074 C   0  0  0  0  0  0  0  0  0  0  0  0
    4.7679    5.5775    6.8690 O   0  0  0  0  0  0  0  0  0  0  0  0
    4.9799    7.7658    7.2777 N   0  0  0  0  0  0  0  0  0  0  0  0
    5.3235    9.0975    7.7031 C   0  0  0  0  0  0  0  0  0  0  0  0
    5.5446    9.8756    6.4513 C   0  0  0  0  0  0  0  0  0  0  0  0
    5.1407    8.9697    5.3073 C   0  0  0  0  0  0  0  0  0  0  0  0
    4.2407    7.9881    5.9970 C   0  0  0  0  0  0  0  0  0  0  0  0
    2.9186    8.6002    6.2205 C   0  0  0  0  0  0  0  0  0  0  0  0
    2.6530    9.1772    7.3339 O   0  0  0  0  0  0  0  0  0  0  0  0
    1.8842    8.6047    5.2736 N   0  0  0  0  0  0  0  0  0  0  0  0
    0.5752    9.2063    5.4141 C   0  0  0  0  0  0  0  0  0  0  0  0
    0.1233    9.5112    4.0007 C   0  0  0  0  0  0  0  0  0  0  0  0
    1.1442    8.8949    3.0841 C   0  0  0  0  0  0  0  0  0  0  0  0
    1.9109    7.9971    3.9952 C   0  0  0  0  0  0  0  0  0  0  0  0
    2.4732    6.8987    3.6664 O   0  0  0  0  0  0  0  0  0  0  0  0
    5.4095    4.5334    9.5497 C   0  0  0  0  0  0  0  0  0  0  0  0
    7.2756    3.0279    8.5581 C   0  0  0  0  0  0  0  0  0  0  0  0
    6.0333    3.2537    9.2600 C   0  0  0  0  0  0  0  0  0  0  0  0
    4.9704    2.3415    8.5342 C   0  0  0  0  0  0  0  0  0  0  0  0
 69 70  1  0  0  0
 70 71  1  0  0  0
 70 68  1  0  0  0
 68 52  1  0  0  0
 52 48  1  0  0  0
 48 49  1  0  0  0
 49 50  2  0  0  0
 49 46  1  0  0  0
 46 47  1  0  0  0
 46 42  1  0  0  0
 42 43  1  0  0  0
 43 44  2  0  0  0
 43 40  1  0  0  0
 40 41  1  0  0  0
 40  1  1  0  0  0
  1  2  1  0  0  0
  2  3  2  0  0  0
  2  5  1  0  0  0
  5  6  1  0  0  0
  5  7  1  0  0  0
  7  8  1  0  0  0
  8  9  2  0  0  0
  8 11  1  0  0  0
 11 12  1  0  0  0
 11 13  1  0  0  0
 13 14  1  0  0  0
 14 15  2  0  0  0
 14 17  1  0  0  0
 17 18  1  0  0  0
 17 19  1  0  0  0
 19 20  1  0  0  0
 20 21  2  0  0  0
 20 23  1  0  0  0
 23 24  1  0  0  0
 23 25  1  0  0  0
 25 26  1  0  0  0
 26 27  2  0  0  0
 26 29  1  0  0  0
 29 30  1  0  0  0
 29 31  1  0  0  0
 31 32  1  0  0  0
 32 33  2  0  0  0
 32 35  1  0  0  0
 35 36  1  0  0  0
 35 37  1  0  0  0
 37 38  1  0  0  0
 37 39  2  0  0  0
 52 53  1  0  0  0
 53 54  2  0  0  0
 53 55  1  0  0  0
 55 56  1  0  0  0
 56 57  1  0  0  0
 57 58  1  0  0  0
 58 59  1  0  0  0
 59 60  1  0  0  0
 60 61  2  0  0  0
 60 62  1  0  0  0
 62 63  1  0  0  0
 63 64  1  0  0  0
 64 65  1  0  0  0
 65 66  1  0  0  0
 66 67  2  0  0  0
 59 55  1  0  0  0
 66 62  1  0  0  0
 48 51  1  0  0  0
 42 45  1  0  0  0
  1  4  1  0  0  0
  7 10  1  0  0  0
 13 16  1  0  0  0
 19 22  1  0  0  0
 25 28  1  0  0  0
 31 34  1  0  0  0
M  END
> <minimizedAffinity>
-8.02188

> <CNNscore>
0.3175721169

> <CNNaffinity>
6.5595388412

> <CNN_VS>
2.0831265450

> <CNNaffinity_variance>
0.6550537348

$$$$
[H]N(C(=O)[C@@]([H])(N([H])C(=O)[C@@]([H])(N([H])C(=O)[C@@]([H])(N([H])C(=O)[C@@]([H])(C(=O)C([H])([H])[H])C([H])([H])[H])C([H])([H])[H])C([H])([H])[H])C([H])([H])[H])[C@]([H])(C(=O)N([H])[C@]([H])(C(=O)N([H])[C@]([H])(C(=O)N([H])[C@]([H])(C(=O)N([H])[C@]([H])(C(=O)N1C([H])([H])C([H])([H])C([H])([H])[C@]1([H])C(=O)N1C(=O)C([H])([H])C([H])([H])C1([H])[H])C([H])([H])C([H])(C([H])([H])[H])C([H])([H])[H])C([H])([H])[H])C([H])([H])[H])C([H])([H])[H])C([H])([H])[H]


 71 72  0  0  0  0  0  0  0  0999 V2000
    5.3184   10.3765   17.2610 N   0  0  0  0  0  0  0  0  0  0  0  0
    5.8279   11.6298   17.6272 C   0  0  0  0  0  0  0  0  0  0  0  0
    6.9565   11.9802   17.1706 O   0  0  0  0  0  0  0  0  0  0  0  0
    4.4023   10.0222   17.6076 H   0  0  0  0  0  0  0  0  0  0  0  0
    5.1074   12.5544   18.5071 C   0  0  0  0  0  0  0  0  0  0  0  0
    3.8225   11.9159   19.0482 C   0  0  0  0  0  0  0  0  0  0  0  0
    4.6968   13.7182   17.7662 N   0  0  0  0  0  0  0  0  0  0  0  0
    4.0366   13.7968   16.5489 C   0  0  0  0  0  0  0  0  0  0  0  0
    3.7234   12.7246   15.9345 O   0  0  0  0  0  0  0  0  0  0  0  0
    4.9498   14.6461   18.2349 H   0  0  0  0  0  0  0  0  0  0  0  0
    3.6715   15.0706   15.9194 C   0  0  0  0  0  0  0  0  0  0  0  0
    4.7253   15.4791   14.8752 C   0  0  0  0  0  0  0  0  0  0  0  0
    3.5048   16.1559   16.8182 N   0  0  0  0  0  0  0  0  0  0  0  0
    2.4467   17.0985   16.7111 C   0  0  0  0  0  0  0  0  0  0  0  0
    1.6408   16.9694   15.7495 O   0  0  0  0  0  0  0  0  0  0  0  0
    4.2207   16.2541   17.6030 H   0  0  0  0  0  0  0  0  0  0  0  0
    2.3201   18.1707   17.7013 C   0  0  0  0  0  0  0  0  0  0  0  0
    3.6108   19.0322   17.5152 C   0  0  0  0  0  0  0  0  0  0  0  0
    2.4218   17.7004   19.0750 N   0  0  0  0  0  0  0  0  0  0  0  0
    1.3446   17.8316   19.9838 C   0  0  0  0  0  0  0  0  0  0  0  0
    0.2553   18.3746   19.6472 O   0  0  0  0  0  0  0  0  0  0  0  0
    3.3195   17.2640   19.3572 H   0  0  0  0  0  0  0  0  0  0  0  0
    1.4975   17.3258   21.3617 C   0  0  0  0  0  0  0  0  0  0  0  0
    0.3043   17.8882   22.1448 C   0  0  0  0  0  0  0  0  0  0  0  0
    2.6767   17.9188   21.9996 N   0  0  0  0  0  0  0  0  0  0  0  0
    3.6324   17.0685   22.6125 C   0  0  0  0  0  0  0  0  0  0  0  0
    3.4329   15.8316   22.5977 O   0  0  0  0  0  0  0  0  0  0  0  0
    2.8435   18.9460   22.0215 H   0  0  0  0  0  0  0  0  0  0  0  0
    4.8457   17.5952   23.2592 C   0  0  0  0  0  0  0  0  0  0  0  0
    5.2277   18.8657   22.4973 C   0  0  0  0  0  0  0  0  0  0  0  0
    5.9371   16.6479   23.1505 N   0  0  0  0  0  0  0  0  0  0  0  0
    6.4717   15.9907   24.2809 C   0  0  0  0  0  0  0  0  0  0  0  0
    5.9806   16.2444   25.4078 O   0  0  0  0  0  0  0  0  0  0  0  0
    6.3364   16.4480   22.2132 H   0  0  0  0  0  0  0  0  0  0  0  0
    7.5999   15.0151   24.1147 C   0  0  0  0  0  0  0  0  0  0  0  0
    7.9624   14.4004   25.4480 C   0  0  0  0  0  0  0  0  0  0  0  0
    8.7583   15.8265   23.6475 C   0  0  0  0  0  0  0  0  0  0  0  0
    9.3180   15.5776   22.2738 C   0  0  0  0  0  0  0  0  0  0  0  0
    9.2598   16.6852   24.3551 O   0  0  0  0  0  0  0  0  0  0  0  0
    6.0529    9.4778   16.3620 C   0  0  0  0  0  0  0  0  0  0  0  0
    6.6951    8.3352   17.0225 C   0  0  0  0  0  0  0  0  0  0  0  0
    5.2830    8.0402   14.3881 N   0  0  0  0  0  0  0  0  0  0  0  0
    5.0746    9.0610   15.3246 C   0  0  0  0  0  0  0  0  0  0  0  0
    3.9683    9.6658   15.2706 O   0  0  0  0  0  0  0  0  0  0  0  0
    6.1484    7.4749   14.3593 H   0  0  0  0  0  0  0  0  0  0  0  0
    4.2580    7.7209   13.3820 C   0  0  0  0  0  0  0  0  0  0  0  0
    4.8209    7.4173   12.0536 C   0  0  0  0  0  0  0  0  0  0  0  0
    3.9234    5.5253   14.4859 N   0  0  0  0  0  0  0  0  0  0  0  0
    3.3510    6.6525   13.9325 C   0  0  0  0  0  0  0  0  0  0  0  0
    2.1156    6.8092   13.8688 O   0  0  0  0  0  0  0  0  0  0  0  0
    4.9292    5.3663   14.5628 H   0  0  0  0  0  0  0  0  0  0  0  0
    3.0911    4.3671   15.0541 C   0  0  0  0  0  0  0  0  0  0  0  0
    3.2730    4.5203   16.4488 C   0  0  0  0  0  0  0  0  0  0  0  0
    2.0655    4.7691   17.0516 O   0  0  0  0  0  0  0  0  0  0  0  0
    4.2521    4.5165   17.4460 N   0  0  0  0  0  0  0  0  0  0  0  0
    5.6900    4.4461   17.4435 C   0  0  0  0  0  0  0  0  0  0  0  0
    6.1338    5.2358   18.6269 C   0  0  0  0  0  0  0  0  0  0  0  0
    4.8794    5.6052   19.3899 C   0  0  0  0  0  0  0  0  0  0  0  0
    3.9078    4.5731   18.9001 C   0  0  0  0  0  0  0  0  0  0  0  0
    4.1632    3.2901   19.5793 C   0  0  0  0  0  0  0  0  0  0  0  0
    4.2818    2.2104   18.8986 O   0  0  0  0  0  0  0  0  0  0  0  0
    4.2944    3.1485   20.9682 N   0  0  0  0  0  0  0  0  0  0  0  0
    4.5700    1.9297   21.6989 C   0  0  0  0  0  0  0  0  0  0  0  0
    5.2385    2.3774   22.9824 C   0  0  0  0  0  0  0  0  0  0  0  0
    5.1542    3.8790   23.0061 C   0  0  0  0  0  0  0  0  0  0  0  0
    4.1590    4.1736   21.9353 C   0  0  0  0  0  0  0  0  0  0  0  0
    3.3513    5.1624   21.9143 O   0  0  0  0  0  0  0  0  0  0  0  0
    3.3333    3.3070   14.1176 C   0  0  0  0  0  0  0  0  0  0  0  0
    1.3130    1.8316   13.4291 C   0  0  0  0  0  0  0  0  0  0  0  0
    2.6331    2.0418   13.9770 C   0  0  0  0  0  0  0  0  0  0  0  0
    2.6216    1.3270   15.3833 C   0  0  0  0  0  0  0  0  0  0  0  0
 69 70  1  0  0  0
 70 71  1  0  0  0
 70 68  1  0  0  0
 68 52  1  0  0  0
 52 48  1  0  0  0
 48 49  1  0  0  0
 49 50  2  0  0  0
 49 46  1  0  0  0
 46 47  1  0  0  0
 46 42  1  0  0  0
 42 43  1  0  0  0
 43 44  2  0  0  0
 43 40  1  0  0  0
 40 41  1  0  0  0
 40  1  1  0  0  0
  1  2  1  0  0  0
  2  3  2  0  0  0
  2  5  1  0  0  0
  5  6  1  0  0  0
  5  7  1  0  0  0
  7  8  1  0  0  0
  8  9  2  0  0  0
  8 11  1  0  0  0
 11 12  1  0  0  0
 11 13  1  0  0  0
 13 14  1  0  0  0
 14 15  2  0  0  0
 14 17  1  0  0  0
 17 18  1  0  0  0
 17 19  1  0  0  0
 19 20  1  0  0  0
 20 21  2  0  0  0
 20 23  1  0  0  0
 23 24  1  0  0  0
 23 25  1  0  0  0
 25 26  1  0  0  0
 26 27  2  0  0  0
 26 29  1  0  0  0
 29 30  1  0  0  0
 29 31  1  0  0  0
 31 32  1  0  0  0
 32 33  2  0  0  0
 32 35  1  0  0  0
 35 36  1  0  0  0
 35 37  1  0  0  0
 37 38  1  0  0  0
 37 39  2  0  0  0
 52 53  1  0  0  0
 53 54  2  0  0  0
 53 55  1  0  0  0
 55 56  1  0  0  0
 56 57  1  0  0  0
 57 58  1  0  0  0
 58 59  1  0  0  0
 59 60  1  0  0  0
 60 61  2  0  0  0
 60 62  1  0  0  0
 62 63  1  0  0  0
 63 64  1  0  0  0
 64 65  1  0  0  0
 65 66  1  0  0  0
 66 67  2  0  0  0
 59 55  1  0  0  0
 66 62  1  0  0  0
 48 51  1  0  0  0
 42 45  1  0  0  0
  1  4  1  0  0  0
  7 10  1  0  0  0
 13 16  1  0  0  0
 19 22  1  0  0  0
 25 28  1  0  0  0
 31 34  1  0  0  0
M  END
> <minimizedAffinity>
-9.34200

> <CNNscore>
0.2945857346

> <CNNaffinity>
6.6772232056

> <CNN_VS>
1.9670146704

> <CNNaffinity_variance>
0.4501755834

$$$$
[H]N(C(=O)[C@@]([H])(N([H])C(=O)[C@@]([H])(N([H])C(=O)[C@@]([H])(N([H])C(=O)[C@@]([H])(C(=O)C([H])([H])[H])C([H])([H])[H])C([H])([H])[H])C([H])([H])[H])C([H])([H])[H])[C@]([H])(C(=O)N([H])[C@]([H])(C(=O)N([H])[C@]([H])(C(=O)N([H])[C@]([H])(C(=O)N([H])[C@]([H])(C(=O)N1C([H])([H])C([H])([H])C([H])([H])[C@]1([H])C(=O)N1C(=O)C([H])([H])C([H])([H])C1([H])[H])C([H])([H])C([H])(C([H])([H])[H])C([H])([H])[H])C([H])([H])[H])C([H])([H])[H])C([H])([H])[H])C([H])([H])[H]


 71 72  0  0  0  0  0  0  0  0999 V2000
    4.8465   11.5931   19.8079 N   0  0  0  0  0  0  0  0  0  0  0  0
    5.3206   10.5299   20.5886 C   0  0  0  0  0  0  0  0  0  0  0  0
    4.4977    9.6438   20.9665 O   0  0  0  0  0  0  0  0  0  0  0  0
    5.4661   12.3600   19.4721 H   0  0  0  0  0  0  0  0  0  0  0  0
    6.7271   10.3953   20.9780 C   0  0  0  0  0  0  0  0  0  0  0  0
    6.9672    9.0883   21.7431 C   0  0  0  0  0  0  0  0  0  0  0  0
    7.0923   11.4595   21.8759 N   0  0  0  0  0  0  0  0  0  0  0  0
    7.4651   12.7638   21.5866 C   0  0  0  0  0  0  0  0  0  0  0  0
    7.5236   13.1449   20.3715 O   0  0  0  0  0  0  0  0  0  0  0  0
    7.0720   11.1851   22.9098 H   0  0  0  0  0  0  0  0  0  0  0  0
    7.8006   13.7468   22.6226 C   0  0  0  0  0  0  0  0  0  0  0  0
    8.1567   13.0407   23.9426 C   0  0  0  0  0  0  0  0  0  0  0  0
    6.7833   14.6971   22.8973 N   0  0  0  0  0  0  0  0  0  0  0  0
    7.0411   16.0841   23.0691 C   0  0  0  0  0  0  0  0  0  0  0  0
    8.2395   16.4713   23.0002 O   0  0  0  0  0  0  0  0  0  0  0  0
    5.7840   14.3328   22.9788 H   0  0  0  0  0  0  0  0  0  0  0  0
    5.9315   17.0089   23.3132 C   0  0  0  0  0  0  0  0  0  0  0  0
    5.5535   16.7827   24.8126 C   0  0  0  0  0  0  0  0  0  0  0  0
    4.7151   16.6494   22.5992 N   0  0  0  0  0  0  0  0  0  0  0  0
    3.8314   17.6357   22.0994 C   0  0  0  0  0  0  0  0  0  0  0  0
    4.0520   18.8683   22.2633 O   0  0  0  0  0  0  0  0  0  0  0  0
    4.5259   15.6374   22.4728 H   0  0  0  0  0  0  0  0  0  0  0  0
    2.6183   17.2154   21.3715 C   0  0  0  0  0  0  0  0  0  0  0  0
    2.3130   15.7937   21.8604 C   0  0  0  0  0  0  0  0  0  0  0  0
    2.9023   17.0663   19.9411 N   0  0  0  0  0  0  0  0  0  0  0  0
    2.0540   17.7008   18.9979 C   0  0  0  0  0  0  0  0  0  0  0  0
    1.0781   18.3645   19.4188 O   0  0  0  0  0  0  0  0  0  0  0  0
    3.7070   16.5100   19.5857 H   0  0  0  0  0  0  0  0  0  0  0  0
    2.2881   17.6043   17.5476 C   0  0  0  0  0  0  0  0  0  0  0  0
    1.0289   18.1448   16.8671 C   0  0  0  0  0  0  0  0  0  0  0  0
    2.4699   16.2230   17.1482 N   0  0  0  0  0  0  0  0  0  0  0  0
    3.6267   15.7891   16.4632 C   0  0  0  0  0  0  0  0  0  0  0  0
    4.5154   16.6342   16.1959 O   0  0  0  0  0  0  0  0  0  0  0  0
    1.7268   15.5339   17.3731 H   0  0  0  0  0  0  0  0  0  0  0  0
    3.7688   14.3465   16.0749 C   0  0  0  0  0  0  0  0  0  0  0  0
    5.1876   13.8779   16.3082 C   0  0  0  0  0  0  0  0  0  0  0  0
    3.5007   14.3033   14.6104 C   0  0  0  0  0  0  0  0  0  0  0  0
    4.6424   14.0444   13.6661 C   0  0  0  0  0  0  0  0  0  0  0  0
    2.3776   14.4737   14.1643 O   0  0  0  0  0  0  0  0  0  0  0  0
    3.4352   11.6931   19.4159 C   0  0  0  0  0  0  0  0  0  0  0  0
    2.9547   13.0609   19.1869 C   0  0  0  0  0  0  0  0  0  0  0  0
    4.2152    9.8593   17.8083 N   0  0  0  0  0  0  0  0  0  0  0  0
    3.2902   10.8291   18.2162 C   0  0  0  0  0  0  0  0  0  0  0  0
    2.2609   10.9707   17.4999 O   0  0  0  0  0  0  0  0  0  0  0  0
    5.0817    9.6555   18.3348 H   0  0  0  0  0  0  0  0  0  0  0  0
    3.9904    9.0713   16.5863 C   0  0  0  0  0  0  0  0  0  0  0  0
    4.2447    9.8313   15.3487 C   0  0  0  0  0  0  0  0  0  0  0  0
    5.0724    7.3031   17.9478 N   0  0  0  0  0  0  0  0  0  0  0  0
    4.7563    7.7793   16.6917 C   0  0  0  0  0  0  0  0  0  0  0  0
    5.0886    7.1807   15.6496 O   0  0  0  0  0  0  0  0  0  0  0  0
    4.8104    7.7610   18.8222 H   0  0  0  0  0  0  0  0  0  0  0  0
    5.8694    6.0094   18.1673 C   0  0  0  0  0  0  0  0  0  0  0  0
    5.0892    5.3347   19.1356 C   0  0  0  0  0  0  0  0  0  0  0  0
    4.0123    4.7359   18.5314 O   0  0  0  0  0  0  0  0  0  0  0  0
    5.0146    5.0602   20.5038 N   0  0  0  0  0  0  0  0  0  0  0  0
    5.7508    5.5012   21.6597 C   0  0  0  0  0  0  0  0  0  0  0  0
    4.7728    5.5008   22.7843 C   0  0  0  0  0  0  0  0  0  0  0  0
    3.5030    4.8753   22.2470 C   0  0  0  0  0  0  0  0  0  0  0  0
    4.0173    4.1007   21.0702 C   0  0  0  0  0  0  0  0  0  0  0  0
    4.6515    2.8544   21.5361 C   0  0  0  0  0  0  0  0  0  0  0  0
    5.4735    2.8755   22.5195 O   0  0  0  0  0  0  0  0  0  0  0  0
    4.4178    1.5936   20.9685 N   0  0  0  0  0  0  0  0  0  0  0  0
    4.9830    0.3290   21.3888 C   0  0  0  0  0  0  0  0  0  0  0  0
    3.9835   -0.7202   20.9474 C   0  0  0  0  0  0  0  0  0  0  0  0
    2.9514   -0.0048   20.1196 C   0  0  0  0  0  0  0  0  0  0  0  0
    3.5953    1.3132   19.8508 C   0  0  0  0  0  0  0  0  0  0  0  0
    3.4249    2.0320   18.8093 O   0  0  0  0  0  0  0  0  0  0  0  0
    7.2317    6.4562   18.1053 C   0  0  0  0  0  0  0  0  0  0  0  0
    8.2336    8.8493   18.1487 C   0  0  0  0  0  0  0  0  0  0  0  0
    7.8431    7.6000   18.7601 C   0  0  0  0  0  0  0  0  0  0  0  0
    9.1203    7.0970   19.5375 C   0  0  0  0  0  0  0  0  0  0  0  0
 69 70  1  0  0  0
 70 71  1  0  0  0
 70 68  1  0  0  0
 68 52  1  0  0  0
 52 48  1  0  0  0
 48 49  1  0  0  0
 49 50  2  0  0  0
 49 46  1  0  0  0
 46 47  1  0  0  0
 46 42  1  0  0  0
 42 43  1  0  0  0
 43 44  2  0  0  0
 43 40  1  0  0  0
 40 41  1  0  0  0
 40  1  1  0  0  0
  1  2  1  0  0  0
  2  3  2  0  0  0
  2  5  1  0  0  0
  5  6  1  0  0  0
  5  7  1  0  0  0
  7  8  1  0  0  0
  8  9  2  0  0  0
  8 11  1  0  0  0
 11 12  1  0  0  0
 11 13  1  0  0  0
 13 14  1  0  0  0
 14 15  2  0  0  0
 14 17  1  0  0  0
 17 18  1  0  0  0
 17 19  1  0  0  0
 19 20  1  0  0  0
 20 21  2  0  0  0
 20 23  1  0  0  0
 23 24  1  0  0  0
 23 25  1  0  0  0
 25 26  1  0  0  0
 26 27  2  0  0  0
 26 29  1  0  0  0
 29 30  1  0  0  0
 29 31  1  0  0  0
 31 32  1  0  0  0
 32 33  2  0  0  0
 32 35  1  0  0  0
 35 36  1  0  0  0
 35 37  1  0  0  0
 37 38  1  0  0  0
 37 39  2  0  0  0
 52 53  1  0  0  0
 53 54  2  0  0  0
 53 55  1  0  0  0
 55 56  1  0  0  0
 56 57  1  0  0  0
 57 58  1  0  0  0
 58 59  1  0  0  0
 59 60  1  0  0  0
 60 61  2  0  0  0
 60 62  1  0  0  0
 62 63  1  0  0  0
 63 64  1  0  0  0
 64 65  1  0  0  0
 65 66  1  0  0  0
 66 67  2  0  0  0
 59 55  1  0  0  0
 66 62  1  0  0  0
 48 51  1  0  0  0
 42 45  1  0  0  0
  1  4  1  0  0  0
  7 10  1  0  0  0
 13 16  1  0  0  0
 19 22  1  0  0  0
 25 28  1  0  0  0
 31 34  1  0  0  0
M  END
> <minimizedAffinity>
-8.02495

> <CNNscore>
0.2794625461

> <CNNaffinity>
6.2801098824

> <CNN_VS>
1.7550555468

> <CNNaffinity_variance>
0.9720922709

$$$$
[H]N(C(=O)[C@@]([H])(N([H])C(=O)[C@@]([H])(N([H])C(=O)[C@@]([H])(N([H])C(=O)[C@@]([H])(C(=O)C([H])([H])[H])C([H])([H])[H])C([H])([H])[H])C([H])([H])[H])C([H])([H])[H])[C@]([H])(C(=O)N([H])[C@]([H])(C(=O)N([H])[C@]([H])(C(=O)N([H])[C@]([H])(C(=O)N([H])[C@]([H])(C(=O)N1C([H])([H])C([H])([H])C([H])([H])[C@]1([H])C(=O)N1C(=O)C([H])([H])C([H])([H])C1([H])[H])C([H])([H])C([H])(C([H])([H])[H])C([H])([H])[H])C([H])([H])[H])C([H])([H])[H])C([H])([H])[H])C([H])([H])[H]


 71 72  0  0  0  0  0  0  0  0999 V2000
    3.0991    8.8583   15.4127 N   0  0  0  0  0  0  0  0  0  0  0  0
    3.4483   10.0477   16.0668 C   0  0  0  0  0  0  0  0  0  0  0  0
    3.6989   11.0723   15.3650 O   0  0  0  0  0  0  0  0  0  0  0  0
    2.8904    7.9774   15.9276 H   0  0  0  0  0  0  0  0  0  0  0  0
    3.5269   10.1586   17.5262 C   0  0  0  0  0  0  0  0  0  0  0  0
    3.8876   11.5861   17.9544 C   0  0  0  0  0  0  0  0  0  0  0  0
    4.5770    9.3111   18.0274 N   0  0  0  0  0  0  0  0  0  0  0  0
    4.5490    7.9545   18.3149 C   0  0  0  0  0  0  0  0  0  0  0  0
    3.4693    7.2988   18.1434 O   0  0  0  0  0  0  0  0  0  0  0  0
    5.5026    9.8188   18.2013 H   0  0  0  0  0  0  0  0  0  0  0  0
    5.7168    7.2198   18.8138 C   0  0  0  0  0  0  0  0  0  0  0  0
    5.8980    5.9027   18.0392 C   0  0  0  0  0  0  0  0  0  0  0  0
    5.6820    6.9102   20.1981 N   0  0  0  0  0  0  0  0  0  0  0  0
    6.8488    6.6470   20.9653 C   0  0  0  0  0  0  0  0  0  0  0  0
    7.9599    6.6643   20.3687 O   0  0  0  0  0  0  0  0  0  0  0  0
    4.7241    6.8744   20.6664 H   0  0  0  0  0  0  0  0  0  0  0  0
    6.7337    6.3716   22.3996 C   0  0  0  0  0  0  0  0  0  0  0  0
    8.2006    6.4466   22.9335 C   0  0  0  0  0  0  0  0  0  0  0  0
    6.3361    5.0024   22.6926 N   0  0  0  0  0  0  0  0  0  0  0  0
    4.9813    4.5966   22.6343 C   0  0  0  0  0  0  0  0  0  0  0  0
    4.0584    5.4067   22.3401 O   0  0  0  0  0  0  0  0  0  0  0  0
    7.0911    4.3376   22.9453 H   0  0  0  0  0  0  0  0  0  0  0  0
    4.6355    3.1924   22.9287 C   0  0  0  0  0  0  0  0  0  0  0  0
    5.9328    2.5409   23.4245 C   0  0  0  0  0  0  0  0  0  0  0  0
    4.3042    2.4745   21.6942 N   0  0  0  0  0  0  0  0  0  0  0  0
    3.5019    1.3070   21.7673 C   0  0  0  0  0  0  0  0  0  0  0  0
    3.1074    0.9188   22.8915 O   0  0  0  0  0  0  0  0  0  0  0  0
    4.6356    2.7881   20.7587 H   0  0  0  0  0  0  0  0  0  0  0  0
    3.1201    0.5451   20.5668 C   0  0  0  0  0  0  0  0  0  0  0  0
    3.6716   -0.8694   20.7562 C   0  0  0  0  0  0  0  0  0  0  0  0
    3.7242    1.1194   19.3812 N   0  0  0  0  0  0  0  0  0  0  0  0
    3.2398    0.8378   18.0844 C   0  0  0  0  0  0  0  0  0  0  0  0
    2.2584    0.0642   17.9678 O   0  0  0  0  0  0  0  0  0  0  0  0
    4.5369    1.7561   19.4906 H   0  0  0  0  0  0  0  0  0  0  0  0
    3.8983    1.4610   16.8885 C   0  0  0  0  0  0  0  0  0  0  0  0
    4.9180    2.4881   17.3272 C   0  0  0  0  0  0  0  0  0  0  0  0
    2.8084    2.1700   16.1620 C   0  0  0  0  0  0  0  0  0  0  0  0
    2.3779    1.6612   14.8137 C   0  0  0  0  0  0  0  0  0  0  0  0
    2.2609    3.1516   16.6377 O   0  0  0  0  0  0  0  0  0  0  0  0
    3.0091    8.7804   13.9494 C   0  0  0  0  0  0  0  0  0  0  0  0
    4.2890    8.5661   13.2638 C   0  0  0  0  0  0  0  0  0  0  0  0
    1.0177    7.7763   12.6917 N   0  0  0  0  0  0  0  0  0  0  0  0
    2.0228    7.7064   13.6650 C   0  0  0  0  0  0  0  0  0  0  0  0
    2.0825    6.6459   14.3465 O   0  0  0  0  0  0  0  0  0  0  0  0
    0.8950    8.5944   12.0712 H   0  0  0  0  0  0  0  0  0  0  0  0
    0.0714    6.6650   12.5057 C   0  0  0  0  0  0  0  0  0  0  0  0
   -1.2846    6.9663   13.0000 C   0  0  0  0  0  0  0  0  0  0  0  0
   -0.2214    4.9115   10.7763 N   0  0  0  0  0  0  0  0  0  0  0  0
    0.1247    6.2148   11.0698 C   0  0  0  0  0  0  0  0  0  0  0  0
    0.4836    7.0227   10.1905 O   0  0  0  0  0  0  0  0  0  0  0  0
   -0.5276    4.2253   11.4677 H   0  0  0  0  0  0  0  0  0  0  0  0
   -0.1796    4.3441    9.3504 C   0  0  0  0  0  0  0  0  0  0  0  0
   -1.5220    4.4896    8.9281 C   0  0  0  0  0  0  0  0  0  0  0  0
   -2.2207    5.2344    9.8449 O   0  0  0  0  0  0  0  0  0  0  0  0
   -2.4063    4.1384    7.9045 N   0  0  0  0  0  0  0  0  0  0  0  0
   -2.3216    3.2782    6.7533 C   0  0  0  0  0  0  0  0  0  0  0  0
   -3.6963    2.7392    6.5514 C   0  0  0  0  0  0  0  0  0  0  0  0
   -4.5904    3.4688    7.5315 C   0  0  0  0  0  0  0  0  0  0  0  0
   -3.7882    4.7032    7.8175 C   0  0  0  0  0  0  0  0  0  0  0  0
   -3.9275    5.6547    6.7005 C   0  0  0  0  0  0  0  0  0  0  0  0
   -2.9560    5.8418    5.8855 O   0  0  0  0  0  0  0  0  0  0  0  0
   -5.0859    6.4023    6.4445 N   0  0  0  0  0  0  0  0  0  0  0  0
   -5.3018    7.3320    5.3561 C   0  0  0  0  0  0  0  0  0  0  0  0
   -6.8012    7.3521    5.1412 C   0  0  0  0  0  0  0  0  0  0  0  0
   -7.4035    6.5467    6.2597 C   0  0  0  0  0  0  0  0  0  0  0  0
   -6.2705    6.4110    7.2198 C   0  0  0  0  0  0  0  0  0  0  0  0
   -6.3709    6.3220    8.4897 O   0  0  0  0  0  0  0  0  0  0  0  0
    0.7232    3.2353    9.4716 C   0  0  0  0  0  0  0  0  0  0  0  0
    1.0250    0.9881   10.7332 C   0  0  0  0  0  0  0  0  0  0  0  0
    0.4175    1.8400    9.7371 C   0  0  0  0  0  0  0  0  0  0  0  0
    0.5318    1.0444    8.3796 C   0  0  0  0  0  0  0  0  0  0  0  0
 69 70  1  0  0  0
 70 71  1  0  0  0
 70 68  1  0  0  0
 68 52  1  0  0  0
 52 48  1  0  0  0
 48 49  1  0  0  0
 49 50  2  0  0  0
 49 46  1  0  0  0
 46 47  1  0  0  0
 46 42  1  0  0  0
 42 43  1  0  0  0
 43 44  2  0  0  0
 43 40  1  0  0  0
 40 41  1  0  0  0
 40  1  1  0  0  0
  1  2  1  0  0  0
  2  3  2  0  0  0
  2  5  1  0  0  0
  5  6  1  0  0  0
  5  7  1  0  0  0
  7  8  1  0  0  0
  8  9  2  0  0  0
  8 11  1  0  0  0
 11 12  1  0  0  0
 11 13  1  0  0  0
 13 14  1  0  0  0
 14 15  2  0  0  0
 14 17  1  0  0  0
 17 18  1  0  0  0
 17 19  1  0  0  0
 19 20  1  0  0  0
 20 21  2  0  0  0
 20 23  1  0  0  0
 23 24  1  0  0  0
 23 25  1  0  0  0
 25 26  1  0  0  0
 26 27  2  0  0  0
 26 29  1  0  0  0
 29 30  1  0  0  0
 29 31  1  0  0  0
 31 32  1  0  0  0
 32 33  2  0  0  0
 32 35  1  0  0  0
 35 36  1  0  0  0
 35 37  1  0  0  0
 37 38  1  0  0  0
 37 39  2  0  0  0
 52 53  1  0  0  0
 53 54  2  0  0  0
 53 55  1  0  0  0
 55 56  1  0  0  0
 56 57  1  0  0  0
 57 58  1  0  0  0
 58 59  1  0  0  0
 59 60  1  0  0  0
 60 61  2  0  0  0
 60 62  1  0  0  0
 62 63  1  0  0  0
 63 64  1  0  0  0
 64 65  1  0  0  0
 65 66  1  0  0  0
 66 67  2  0  0  0
 59 55  1  0  0  0
 66 62  1  0  0  0
 48 51  1  0  0  0
 42 45  1  0  0  0
  1  4  1  0  0  0
  7 10  1  0  0  0
 13 16  1  0  0  0
 19 22  1  0  0  0
 25 28  1  0  0  0
 31 34  1  0  0  0
M  END
> <minimizedAffinity>
-8.05766

> <CNNscore>
0.2557668090

> <CNNaffinity>
7.0954566002

> <CNN_VS>
1.8147822618

> <CNNaffinity_variance>
0.2104467154

$$$$
[H]N(C(=O)[C@@]([H])(N([H])C(=O)[C@@]([H])(N([H])C(=O)[C@@]([H])(N([H])C(=O)[C@@]([H])(C(=O)C([H])([H])[H])C([H])([H])[H])C([H])([H])[H])C([H])([H])[H])C([H])([H])[H])[C@]([H])(C(=O)N([H])[C@]([H])(C(=O)N([H])[C@]([H])(C(=O)N([H])[C@]([H])(C(=O)N([H])[C@]([H])(C(=O)N1C([H])([H])C([H])([H])C([H])([H])[C@]1([H])C(=O)N1C(=O)C([H])([H])C([H])([H])C1([H])[H])C([H])([H])C([H])(C([H])([H])[H])C([H])([H])[H])C([H])([H])[H])C([H])([H])[H])C([H])([H])[H])C([H])([H])[H]


 71 72  0  0  0  0  0  0  0  0999 V2000
    3.2068    6.8323   15.0099 N   0  0  0  0  0  0  0  0  0  0  0  0
    2.9628    5.8174   15.9453 C   0  0  0  0  0  0  0  0  0  0  0  0
    2.1600    4.8883   15.6333 O   0  0  0  0  0  0  0  0  0  0  0  0
    3.8471    7.6303   15.2048 H   0  0  0  0  0  0  0  0  0  0  0  0
    3.6031    5.7806   17.2632 C   0  0  0  0  0  0  0  0  0  0  0  0
    2.9141    4.7676   18.1854 C   0  0  0  0  0  0  0  0  0  0  0  0
    3.4758    7.0618   17.9071 N   0  0  0  0  0  0  0  0  0  0  0  0
    4.3683    7.7179   18.7418 C   0  0  0  0  0  0  0  0  0  0  0  0
    5.4790    7.1638   19.0325 O   0  0  0  0  0  0  0  0  0  0  0  0
    2.5521    7.5624   17.7049 H   0  0  0  0  0  0  0  0  0  0  0  0
    4.0986    9.0399   19.3178 C   0  0  0  0  0  0  0  0  0  0  0  0
    3.2902    9.9035   18.3337 C   0  0  0  0  0  0  0  0  0  0  0  0
    5.2524    9.7743   19.6959 N   0  0  0  0  0  0  0  0  0  0  0  0
    5.7197    9.8523   21.0357 C   0  0  0  0  0  0  0  0  0  0  0  0
    5.0512    9.2595   21.9260 O   0  0  0  0  0  0  0  0  0  0  0  0
    5.7785   10.2887   18.9235 H   0  0  0  0  0  0  0  0  0  0  0  0
    6.9416   10.6004   21.3412 C   0  0  0  0  0  0  0  0  0  0  0  0
    7.0392   10.5744   22.9007 C   0  0  0  0  0  0  0  0  0  0  0  0
    6.8404   12.0191   21.0317 N   0  0  0  0  0  0  0  0  0  0  0  0
    7.1456   12.5190   19.7430 C   0  0  0  0  0  0  0  0  0  0  0  0
    7.5323   11.7593   18.8114 O   0  0  0  0  0  0  0  0  0  0  0  0
    6.5335   12.6467   21.7983 H   0  0  0  0  0  0  0  0  0  0  0  0
    7.0135   13.9652   19.4804 C   0  0  0  0  0  0  0  0  0  0  0  0
    7.7965   14.6632   20.5998 C   0  0  0  0  0  0  0  0  0  0  0  0
    5.6255   14.3977   19.6687 N   0  0  0  0  0  0  0  0  0  0  0  0
    4.7398   14.3811   18.5609 C   0  0  0  0  0  0  0  0  0  0  0  0
    5.1762   14.0043   17.4485 O   0  0  0  0  0  0  0  0  0  0  0  0
    5.2597   14.7189   20.5887 H   0  0  0  0  0  0  0  0  0  0  0  0
    3.3303   14.7890   18.6815 C   0  0  0  0  0  0  0  0  0  0  0  0
    2.9840   15.5413   17.3951 C   0  0  0  0  0  0  0  0  0  0  0  0
    3.1511   15.6892   19.8032 N   0  0  0  0  0  0  0  0  0  0  0  0
    2.3185   15.3637   20.8970 C   0  0  0  0  0  0  0  0  0  0  0  0
    1.7196   14.2607   20.8850 O   0  0  0  0  0  0  0  0  0  0  0  0
    3.6501   16.5995   19.8005 H   0  0  0  0  0  0  0  0  0  0  0  0
    2.1692   16.3290   22.0363 C   0  0  0  0  0  0  0  0  0  0  0  0
    1.5283   17.6118   21.5562 C   0  0  0  0  0  0  0  0  0  0  0  0
    3.5582   16.6400   22.4752 C   0  0  0  0  0  0  0  0  0  0  0  0
    3.9548   18.0761   22.6811 C   0  0  0  0  0  0  0  0  0  0  0  0
    4.3767   15.7558   22.6695 O   0  0  0  0  0  0  0  0  0  0  0  0
    2.5664    6.8342   13.6888 C   0  0  0  0  0  0  0  0  0  0  0  0
    1.2548    7.4913   13.6408 C   0  0  0  0  0  0  0  0  0  0  0  0
    4.9424    7.3544   12.8893 N   0  0  0  0  0  0  0  0  0  0  0  0
    3.5507    7.4573   12.7670 C   0  0  0  0  0  0  0  0  0  0  0  0
    3.1132    8.1355   11.7968 O   0  0  0  0  0  0  0  0  0  0  0  0
    5.3998    6.8089   13.6394 H   0  0  0  0  0  0  0  0  0  0  0  0
    5.8341    8.0328   11.9356 C   0  0  0  0  0  0  0  0  0  0  0  0
    6.9283    8.7746   12.5885 C   0  0  0  0  0  0  0  0  0  0  0  0
    5.4915    6.8340    9.7917 N   0  0  0  0  0  0  0  0  0  0  0  0
    6.2877    7.0381   10.9002 C   0  0  0  0  0  0  0  0  0  0  0  0
    7.3591    6.4243   11.0727 O   0  0  0  0  0  0  0  0  0  0  0  0
    4.6133    7.3235    9.6129 H   0  0  0  0  0  0  0  0  0  0  0  0
    5.8486    5.8273    8.6889 C   0  0  0  0  0  0  0  0  0  0  0  0
    6.1848    6.6728    7.6056 C   0  0  0  0  0  0  0  0  0  0  0  0
    7.3789    6.2759    7.0578 O   0  0  0  0  0  0  0  0  0  0  0  0
    5.7372    7.7847    6.8870 N   0  0  0  0  0  0  0  0  0  0  0  0
    4.6489    8.7136    7.0460 C   0  0  0  0  0  0  0  0  0  0  0  0
    5.1431   10.0098    6.5012 C   0  0  0  0  0  0  0  0  0  0  0  0
    6.4904    9.7241    5.8724 C   0  0  0  0  0  0  0  0  0  0  0  0
    6.4095    8.2458    5.6333 C   0  0  0  0  0  0  0  0  0  0  0  0
    5.5902    7.9814    4.4369 C   0  0  0  0  0  0  0  0  0  0  0  0
    4.3500    7.6800    4.5562 O   0  0  0  0  0  0  0  0  0  0  0  0
    6.0768    8.0368    3.1230 N   0  0  0  0  0  0  0  0  0  0  0  0
    5.3271    7.8152    1.9047 C   0  0  0  0  0  0  0  0  0  0  0  0
    6.0652    8.5944    0.8356 C   0  0  0  0  0  0  0  0  0  0  0  0
    7.3329    9.0954    1.4715 C   0  0  0  0  0  0  0  0  0  0  0  0
    7.4113    8.2993    2.7301 C   0  0  0  0  0  0  0  0  0  0  0  0
    8.4832    7.9355    3.3212 O   0  0  0  0  0  0  0  0  0  0  0  0
    4.8894    4.7785    8.8877 C   0  0  0  0  0  0  0  0  0  0  0  0
    6.2293    2.6380    8.2915 C   0  0  0  0  0  0  0  0  0  0  0  0
    5.0144    3.3636    8.5823 C   0  0  0  0  0  0  0  0  0  0  0  0
    4.0317    3.0280    7.3948 C   0  0  0  0  0  0  0  0  0  0  0  0
 69 70  1  0  0  0
 70 71  1  0  0  0
 70 68  1  0  0  0
 68 52  1  0  0  0
 52 48  1  0  0  0
 48 49  1  0  0  0
 49 50  2  0  0  0
 49 46  1  0  0  0
 46 47  1  0  0  0
 46 42  1  0  0  0
 42 43  1  0  0  0
 43 44  2  0  0  0
 43 40  1  0  0  0
 40 41  1  0  0  0
 40  1  1  0  0  0
  1  2  1  0  0  0
  2  3  2  0  0  0
  2  5  1  0  0  0
  5  6  1  0  0  0
  5  7  1  0  0  0
  7  8  1  0  0  0
  8  9  2  0  0  0
  8 11  1  0  0  0
 11 12  1  0  0  0
 11 13  1  0  0  0
 13 14  1  0  0  0
 14 15  2  0  0  0
 14 17  1  0  0  0
 17 18  1  0  0  0
 17 19  1  0  0  0
 19 20  1  0  0  0
 20 21  2  0  0  0
 20 23  1  0  0  0
 23 24  1  0  0  0
 23 25  1  0  0  0
 25 26  1  0  0  0
 26 27  2  0  0  0
 26 29  1  0  0  0
 29 30  1  0  0  0
 29 31  1  0  0  0
 31 32  1  0  0  0
 32 33  2  0  0  0
 32 35  1  0  0  0
 35 36  1  0  0  0
 35 37  1  0  0  0
 37 38  1  0  0  0
 37 39  2  0  0  0
 52 53  1  0  0  0
 53 54  2  0  0  0
 53 55  1  0  0  0
 55 56  1  0  0  0
 56 57  1  0  0  0
 57 58  1  0  0  0
 58 59  1  0  0  0
 59 60  1  0  0  0
 60 61  2  0  0  0
 60 62  1  0  0  0
 62 63  1  0  0  0
 63 64  1  0  0  0
 64 65  1  0  0  0
 65 66  1  0  0  0
 66 67  2  0  0  0
 59 55  1  0  0  0
 66 62  1  0  0  0
 48 51  1  0  0  0
 42 45  1  0  0  0
  1  4  1  0  0  0
  7 10  1  0  0  0
 13 16  1  0  0  0
 19 22  1  0  0  0
 25 28  1  0  0  0
 31 34  1  0  0  0
M  END
> <minimizedAffinity>
-8.23138

> <CNNscore>
0.2366440892

> <CNNaffinity>
6.1032705307

> <CNN_VS>
1.4443029165

> <CNNaffinity_variance>
0.4896522164

$$$$
[H]N(C(=O)[C@@]([H])(N([H])C(=O)[C@@]([H])(N([H])C(=O)[C@@]([H])(N([H])C(=O)[C@@]([H])(C(=O)C([H])([H])[H])C([H])([H])[H])C([H])([H])[H])C([H])([H])[H])C([H])([H])[H])[C@]([H])(C(=O)N([H])[C@]([H])(C(=O)N([H])[C@]([H])(C(=O)N([H])[C@]([H])(C(=O)N([H])[C@]([H])(C(=O)N1C([H])([H])C([H])([H])C([H])([H])[C@]1([H])C(=O)N1C(=O)C([H])([H])C([H])([H])C1([H])[H])C([H])([H])C([H])(C([H])([H])[H])C([H])([H])[H])C([H])([H])[H])C([H])([H])[H])C([H])([H])[H])C([H])([H])[H]


 71 72  0  0  0  0  0  0  0  0999 V2000
    5.1817    7.8468   13.6089 N   0  0  0  0  0  0  0  0  0  0  0  0
    5.0210    7.7350   12.2211 C   0  0  0  0  0  0  0  0  0  0  0  0
    3.8475    7.6294   11.7552 O   0  0  0  0  0  0  0  0  0  0  0  0
    6.1176    7.9269   14.0589 H   0  0  0  0  0  0  0  0  0  0  0  0
    6.1503    7.7442   11.2869 C   0  0  0  0  0  0  0  0  0  0  0  0
    7.3893    8.3863   11.9224 C   0  0  0  0  0  0  0  0  0  0  0  0
    5.8284    8.5453   10.1350 N   0  0  0  0  0  0  0  0  0  0  0  0
    5.3484    8.1488    8.8956 C   0  0  0  0  0  0  0  0  0  0  0  0
    5.1471    6.9108    8.6674 O   0  0  0  0  0  0  0  0  0  0  0  0
    5.9939    9.5935   10.2719 H   0  0  0  0  0  0  0  0  0  0  0  0
    5.0535    9.0947    7.8137 C   0  0  0  0  0  0  0  0  0  0  0  0
    3.5469    9.4032    7.7613 C   0  0  0  0  0  0  0  0  0  0  0  0
    5.4566    8.6697    6.5213 N   0  0  0  0  0  0  0  0  0  0  0  0
    6.0842    9.5303    5.5805 C   0  0  0  0  0  0  0  0  0  0  0  0
    6.2593   10.7345    5.9123 O   0  0  0  0  0  0  0  0  0  0  0  0
    5.2673    7.6526    6.2607 H   0  0  0  0  0  0  0  0  0  0  0  0
    6.5056    9.0069    4.2788 C   0  0  0  0  0  0  0  0  0  0  0  0
    5.5171    7.8317    3.9886 C   0  0  0  0  0  0  0  0  0  0  0  0
    7.8063    8.3545    4.3146 N   0  0  0  0  0  0  0  0  0  0  0  0
    8.9847    9.0307    3.9174 C   0  0  0  0  0  0  0  0  0  0  0  0
    8.9571   10.2228    3.5017 O   0  0  0  0  0  0  0  0  0  0  0  0
    7.8302    7.3716    4.6453 H   0  0  0  0  0  0  0  0  0  0  0  0
   10.2792    8.3254    3.9858 C   0  0  0  0  0  0  0  0  0  0  0  0
   10.3316    7.4329    2.7391 C   0  0  0  0  0  0  0  0  0  0  0  0
   10.2971    7.3915    5.1156 N   0  0  0  0  0  0  0  0  0  0  0  0
   11.4684    7.2882    5.9089 C   0  0  0  0  0  0  0  0  0  0  0  0
   12.4593    7.9952    5.6117 O   0  0  0  0  0  0  0  0  0  0  0  0
    9.4796    6.7963    5.3622 H   0  0  0  0  0  0  0  0  0  0  0  0
   11.5511    6.3813    7.0657 C   0  0  0  0  0  0  0  0  0  0  0  0
   10.1757    5.7255    7.2030 C   0  0  0  0  0  0  0  0  0  0  0  0
   11.8305    7.1224    8.2795 N   0  0  0  0  0  0  0  0  0  0  0  0
   12.7131    6.6326    9.2677 C   0  0  0  0  0  0  0  0  0  0  0  0
   13.2639    5.5206    9.0793 O   0  0  0  0  0  0  0  0  0  0  0  0
   11.3671    8.0400    8.4248 H   0  0  0  0  0  0  0  0  0  0  0  0
   12.9721    7.4404   10.5057 C   0  0  0  0  0  0  0  0  0  0  0  0
   14.1242    6.8488   11.2865 C   0  0  0  0  0  0  0  0  0  0  0  0
   11.7376    7.3090   11.3287 C   0  0  0  0  0  0  0  0  0  0  0  0
   11.6828    7.9767   12.6753 C   0  0  0  0  0  0  0  0  0  0  0  0
   10.7744    6.6723   10.9330 O   0  0  0  0  0  0  0  0  0  0  0  0
    4.0311    7.8543   14.5208 C   0  0  0  0  0  0  0  0  0  0  0  0
    3.7712    6.5770   15.1955 C   0  0  0  0  0  0  0  0  0  0  0  0
    3.6289    9.1313   16.7032 N   0  0  0  0  0  0  0  0  0  0  0  0
    4.2840    8.9632   15.4764 C   0  0  0  0  0  0  0  0  0  0  0  0
    5.1511    9.8278   15.1710 O   0  0  0  0  0  0  0  0  0  0  0  0
    2.9146    8.4697   17.0518 H   0  0  0  0  0  0  0  0  0  0  0  0
    3.9344   10.2815   17.5683 C   0  0  0  0  0  0  0  0  0  0  0  0
    2.7483   10.8239   18.2559 C   0  0  0  0  0  0  0  0  0  0  0  0
    4.8199    9.0463   19.5283 N   0  0  0  0  0  0  0  0  0  0  0  0
    5.0711    9.9137   18.4848 C   0  0  0  0  0  0  0  0  0  0  0  0
    6.1999   10.4035   18.2830 O   0  0  0  0  0  0  0  0  0  0  0  0
    3.9120    8.6197   19.7192 H   0  0  0  0  0  0  0  0  0  0  0  0
    5.9007    8.6244   20.5337 C   0  0  0  0  0  0  0  0  0  0  0  0
    5.8270    7.2124   20.4814 C   0  0  0  0  0  0  0  0  0  0  0  0
    6.9667    6.6663   21.0165 O   0  0  0  0  0  0  0  0  0  0  0  0
    5.0049    6.1598   20.0701 N   0  0  0  0  0  0  0  0  0  0  0  0
    3.7694    6.0763   19.3360 C   0  0  0  0  0  0  0  0  0  0  0  0
    3.8317    4.7889   18.5879 C   0  0  0  0  0  0  0  0  0  0  0  0
    5.0765    4.0739   19.0692 C   0  0  0  0  0  0  0  0  0  0  0  0
    5.3153    4.7335   20.3948 C   0  0  0  0  0  0  0  0  0  0  0  0
    4.3878    4.1802   21.3979 C   0  0  0  0  0  0  0  0  0  0  0  0
    3.5245    4.9375   21.9676 O   0  0  0  0  0  0  0  0  0  0  0  0
    4.3706    2.8356   21.7954 N   0  0  0  0  0  0  0  0  0  0  0  0
    3.4751    2.2195   22.7514 C   0  0  0  0  0  0  0  0  0  0  0  0
    3.4120    0.7591   22.3541 C   0  0  0  0  0  0  0  0  0  0  0  0
    4.4363    0.5673   21.2695 C   0  0  0  0  0  0  0  0  0  0  0  0
    5.2474    1.8159   21.3530 C   0  0  0  0  0  0  0  0  0  0  0  0
    6.4893    1.9227   21.0756 O   0  0  0  0  0  0  0  0  0  0  0  0
    5.7693    9.6015   21.5764 C   0  0  0  0  0  0  0  0  0  0  0  0
    8.1063   10.7214   21.7065 C   0  0  0  0  0  0  0  0  0  0  0  0
    6.8104   10.3686   22.2386 C   0  0  0  0  0  0  0  0  0  0  0  0
    7.1002    9.6993   23.6375 C   0  0  0  0  0  0  0  0  0  0  0  0
 69 70  1  0  0  0
 70 71  1  0  0  0
 70 68  1  0  0  0
 68 52  1  0  0  0
 52 48  1  0  0  0
 48 49  1  0  0  0
 49 50  2  0  0  0
 49 46  1  0  0  0
 46 47  1  0  0  0
 46 42  1  0  0  0
 42 43  1  0  0  0
 43 44  2  0  0  0
 43 40  1  0  0  0
 40 41  1  0  0  0
 40  1  1  0  0  0
  1  2  1  0  0  0
  2  3  2  0  0  0
  2  5  1  0  0  0
  5  6  1  0  0  0
  5  7  1  0  0  0
  7  8  1  0  0  0
  8  9  2  0  0  0
  8 11  1  0  0  0
 11 12  1  0  0  0
 11 13  1  0  0  0
 13 14  1  0  0  0
 14 15  2  0  0  0
 14 17  1  0  0  0
 17 18  1  0  0  0
 17 19  1  0  0  0
 19 20  1  0  0  0
 20 21  2  0  0  0
 20 23  1  0  0  0
 23 24  1  0  0  0
 23 25  1  0  0  0
 25 26  1  0  0  0
 26 27  2  0  0  0
 26 29  1  0  0  0
 29 30  1  0  0  0
 29 31  1  0  0  0
 31 32  1  0  0  0
 32 33  2  0  0  0
 32 35  1  0  0  0
 35 36  1  0  0  0
 35 37  1  0  0  0
 37 38  1  0  0  0
 37 39  2  0  0  0
 52 53  1  0  0  0
 53 54  2  0  0  0
 53 55  1  0  0  0
 55 56  1  0  0  0
 56 57  1  0  0  0
 57 58  1  0  0  0
 58 59  1  0  0  0
 59 60  1  0  0  0
 60 61  2  0  0  0
 60 62  1  0  0  0
 62 63  1  0  0  0
 63 64  1  0  0  0
 64 65  1  0  0  0
 65 66  1  0  0  0
 66 67  2  0  0  0
 59 55  1  0  0  0
 66 62  1  0  0  0
 48 51  1  0  0  0
 42 45  1  0  0  0
  1  4  1  0  0  0
  7 10  1  0  0  0
 13 16  1  0  0  0
 19 22  1  0  0  0
 25 28  1  0  0  0
 31 34  1  0  0  0
M  END
> <minimizedAffinity>
-9.09753

> <CNNscore>
0.2121742517

> <CNNaffinity>
6.5521965027

> <CNN_VS>
1.3902074099

> <CNNaffinity_variance>
0.2064501494

$$$$
[H]N(C(=O)[C@@]([H])(N([H])C(=O)[C@@]([H])(N([H])C(=O)[C@@]([H])(N([H])C(=O)[C@@]([H])(C(=O)C([H])([H])[H])C([H])([H])[H])C([H])([H])[H])C([H])([H])[H])C([H])([H])[H])[C@]([H])(C(=O)N([H])[C@]([H])(C(=O)N([H])[C@]([H])(C(=O)N([H])[C@]([H])(C(=O)N([H])[C@]([H])(C(=O)N1C([H])([H])C([H])([H])C([H])([H])[C@]1([H])C(=O)N1C(=O)C([H])([H])C([H])([H])C1([H])[H])C([H])([H])C([H])(C([H])([H])[H])C([H])([H])[H])C([H])([H])[H])C([H])([H])[H])C([H])([H])[H])C([H])([H])[H]


 71 72  0  0  0  0  0  0  0  0999 V2000
    4.6571   10.7768   18.7074 N   0  0  0  0  0  0  0  0  0  0  0  0
    5.0971    9.8720   19.6832 C   0  0  0  0  0  0  0  0  0  0  0  0
    4.2354    9.1598   20.2794 O   0  0  0  0  0  0  0  0  0  0  0  0
    5.3101   11.3990   18.1865 H   0  0  0  0  0  0  0  0  0  0  0  0
    6.5103    9.7086   20.0360 C   0  0  0  0  0  0  0  0  0  0  0  0
    6.7631    8.3461   20.6924 C   0  0  0  0  0  0  0  0  0  0  0  0
    6.8918   10.6999   21.0075 N   0  0  0  0  0  0  0  0  0  0  0  0
    7.2871   12.0149   20.8120 C   0  0  0  0  0  0  0  0  0  0  0  0
    7.3543   12.4805   19.6271 O   0  0  0  0  0  0  0  0  0  0  0  0
    6.8650   10.3530   22.0193 H   0  0  0  0  0  0  0  0  0  0  0  0
    7.6374   12.9159   21.9156 C   0  0  0  0  0  0  0  0  0  0  0  0
    7.8361   12.1223   23.2188 C   0  0  0  0  0  0  0  0  0  0  0  0
    6.6934   13.9441   22.1709 N   0  0  0  0  0  0  0  0  0  0  0  0
    6.9914   15.3261   22.0270 C   0  0  0  0  0  0  0  0  0  0  0  0
    8.1633   15.6413   21.6832 O   0  0  0  0  0  0  0  0  0  0  0  0
    5.7200   13.6451   22.4888 H   0  0  0  0  0  0  0  0  0  0  0  0
    5.9509   16.3276   22.2733 C   0  0  0  0  0  0  0  0  0  0  0  0
    5.6337   16.1984   23.7981 C   0  0  0  0  0  0  0  0  0  0  0  0
    4.6822   16.0081   21.6351 N   0  0  0  0  0  0  0  0  0  0  0  0
    3.7670   17.0206   21.2598 C   0  0  0  0  0  0  0  0  0  0  0  0
    4.0043   18.2421   21.4749 O   0  0  0  0  0  0  0  0  0  0  0  0
    4.4800   15.0048   21.4672 H   0  0  0  0  0  0  0  0  0  0  0  0
    2.5004   16.6413   20.6042 C   0  0  0  0  0  0  0  0  0  0  0  0
    2.0105   15.3886   21.3418 C   0  0  0  0  0  0  0  0  0  0  0  0
    2.7463   16.1942   19.2299 N   0  0  0  0  0  0  0  0  0  0  0  0
    2.5814   17.1146   18.1633 C   0  0  0  0  0  0  0  0  0  0  0  0
    2.2199   18.2843   18.4299 O   0  0  0  0  0  0  0  0  0  0  0  0
    3.0393   15.2217   19.0021 H   0  0  0  0  0  0  0  0  0  0  0  0
    2.8242   16.7372   16.7611 C   0  0  0  0  0  0  0  0  0  0  0  0
    2.5113   15.2435   16.6526 C   0  0  0  0  0  0  0  0  0  0  0  0
    4.2148   16.9427   16.4081 N   0  0  0  0  0  0  0  0  0  0  0  0
    4.5978   17.4645   15.1525 C   0  0  0  0  0  0  0  0  0  0  0  0
    3.6988   17.7527   14.3254 O   0  0  0  0  0  0  0  0  0  0  0  0
    4.9493   16.6984   17.0999 H   0  0  0  0  0  0  0  0  0  0  0  0
    6.0516   17.6620   14.8368 C   0  0  0  0  0  0  0  0  0  0  0  0
    6.2648   18.9985   14.1621 C   0  0  0  0  0  0  0  0  0  0  0  0
    6.3932   16.5898   13.8610 C   0  0  0  0  0  0  0  0  0  0  0  0
    5.8886   15.1938   14.1032 C   0  0  0  0  0  0  0  0  0  0  0  0
    7.0721   16.8214   12.8736 O   0  0  0  0  0  0  0  0  0  0  0  0
    3.2366   10.9064   18.3598 C   0  0  0  0  0  0  0  0  0  0  0  0
    2.6181   12.1764   18.7580 C   0  0  0  0  0  0  0  0  0  0  0  0
    3.5548    9.4889   16.2515 N   0  0  0  0  0  0  0  0  0  0  0  0
    3.1588   10.6683   16.8955 C   0  0  0  0  0  0  0  0  0  0  0  0
    2.7053   11.5915   16.1643 O   0  0  0  0  0  0  0  0  0  0  0  0
    3.9241    8.6690   16.7621 H   0  0  0  0  0  0  0  0  0  0  0  0
    3.4613    9.3623   14.7886 C   0  0  0  0  0  0  0  0  0  0  0  0
    4.7153    9.7053   14.0933 C   0  0  0  0  0  0  0  0  0  0  0  0
    1.6043    7.9033   14.0308 N   0  0  0  0  0  0  0  0  0  0  0  0
    2.9151    8.0002   14.4513 C   0  0  0  0  0  0  0  0  0  0  0  0
    3.6532    7.0018   14.5661 O   0  0  0  0  0  0  0  0  0  0  0  0
    0.9736    8.6983   13.9172 H   0  0  0  0  0  0  0  0  0  0  0  0
    0.9422    6.5621   13.6844 C   0  0  0  0  0  0  0  0  0  0  0  0
    1.5539    6.2328   12.4519 C   0  0  0  0  0  0  0  0  0  0  0  0
    1.2822    7.2053   11.5224 O   0  0  0  0  0  0  0  0  0  0  0  0
    2.3394    5.2589   11.8296 N   0  0  0  0  0  0  0  0  0  0  0  0
    2.8282    3.9616   12.2181 C   0  0  0  0  0  0  0  0  0  0  0  0
    2.8943    3.1633   10.9613 C   0  0  0  0  0  0  0  0  0  0  0  0
    2.5881    4.1210    9.8293 C   0  0  0  0  0  0  0  0  0  0  0  0
    2.9012    5.4468   10.4565 C   0  0  0  0  0  0  0  0  0  0  0  0
    4.3606    5.6521   10.4793 C   0  0  0  0  0  0  0  0  0  0  0  0
    5.0072    5.5752   11.5834 O   0  0  0  0  0  0  0  0  0  0  0  0
    5.1324    5.9347    9.3432 N   0  0  0  0  0  0  0  0  0  0  0  0
    6.5667    6.1219    9.2871 C   0  0  0  0  0  0  0  0  0  0  0  0
    6.9618    5.7506    7.8726 C   0  0  0  0  0  0  0  0  0  0  0  0
    5.6808    5.5309    7.1156 C   0  0  0  0  0  0  0  0  0  0  0  0
    4.6527    6.1162    8.0236 C   0  0  0  0  0  0  0  0  0  0  0  0
    3.5602    6.6691    7.6612 O   0  0  0  0  0  0  0  0  0  0  0  0
   -0.4130    6.7509   14.1171 C   0  0  0  0  0  0  0  0  0  0  0  0
   -2.9472    7.1868   13.7705 C   0  0  0  0  0  0  0  0  0  0  0  0
   -1.6166    6.8618   13.3111 C   0  0  0  0  0  0  0  0  0  0  0  0
   -1.7746    5.5319   12.4774 C   0  0  0  0  0  0  0  0  0  0  0  0
 69 70  1  0  0  0
 70 71  1  0  0  0
 70 68  1  0  0  0
 68 52  1  0  0  0
 52 48  1  0  0  0
 48 49  1  0  0  0
 49 50  2  0  0  0
 49 46  1  0  0  0
 46 47  1  0  0  0
 46 42  1  0  0  0
 42 43  1  0  0  0
 43 44  2  0  0  0
 43 40  1  0  0  0
 40 41  1  0  0  0
 40  1  1  0  0  0
  1  2  1  0  0  0
  2  3  2  0  0  0
  2  5  1  0  0  0
  5  6  1  0  0  0
  5  7  1  0  0  0
  7  8  1  0  0  0
  8  9  2  0  0  0
  8 11  1  0  0  0
 11 12  1  0  0  0
 11 13  1  0  0  0
 13 14  1  0  0  0
 14 15  2  0  0  0
 14 17  1  0  0  0
 17 18  1  0  0  0
 17 19  1  0  0  0
 19 20  1  0  0  0
 20 21  2  0  0  0
 20 23  1  0  0  0
 23 24  1  0  0  0
 23 25  1  0  0  0
 25 26  1  0  0  0
 26 27  2  0  0  0
 26 29  1  0  0  0
 29 30  1  0  0  0
 29 31  1  0  0  0
 31 32  1  0  0  0
 32 33  2  0  0  0
 32 35  1  0  0  0
 35 36  1  0  0  0
 35 37  1  0  0  0
 37 38  1  0  0  0
 37 39  2  0  0  0
 52 53  1  0  0  0
 53 54  2  0  0  0
 53 55  1  0  0  0
 55 56  1  0  0  0
 56 57  1  0  0  0
 57 58  1  0  0  0
 58 59  1  0  0  0
 59 60  1  0  0  0
 60 61  2  0  0  0
 60 62  1  0  0  0
 62 63  1  0  0  0
 63 64  1  0  0  0
 64 65  1  0  0  0
 65 66  1  0  0  0
 66 67  2  0  0  0
 59 55  1  0  0  0
 66 62  1  0  0  0
 48 51  1  0  0  0
 42 45  1  0  0  0
  1  4  1  0  0  0
  7 10  1  0  0  0
 13 16  1  0  0  0
 19 22  1  0  0  0
 25 28  1  0  0  0
 31 34  1  0  0  0
M  END
> <minimizedAffinity>
-7.83053

> <CNNscore>
0.2062109113

> <CNNaffinity>
6.2930579185

> <CNN_VS>
1.2976971865

> <CNNaffinity_variance>
0.7850602269

$$$$
[H]N(C(=O)[C@@]([H])(N([H])C(=O)[C@@]([H])(N([H])C(=O)[C@@]([H])(N([H])C(=O)[C@@]([H])(C(=O)C([H])([H])[H])C([H])([H])[H])C([H])([H])[H])C([H])([H])[H])C([H])([H])[H])[C@]([H])(C(=O)N([H])[C@]([H])(C(=O)N([H])[C@]([H])(C(=O)N([H])[C@]([H])(C(=O)N([H])[C@]([H])(C(=O)N1C([H])([H])C([H])([H])C([H])([H])[C@]1([H])C(=O)N1C(=O)C([H])([H])C([H])([H])C1([H])[H])C([H])([H])C([H])(C([H])([H])[H])C([H])([H])[H])C([H])([H])[H])C([H])([H])[H])C([H])([H])[H])C([H])([H])[H]


 71 72  0  0  0  0  0  0  0  0999 V2000
    3.4589    0.8934   19.7911 N   0  0  0  0  0  0  0  0  0  0  0  0
    3.7897    1.4671   18.5558 C   0  0  0  0  0  0  0  0  0  0  0  0
    4.8746    2.1146   18.4613 O   0  0  0  0  0  0  0  0  0  0  0  0
    2.5788    0.3570   19.9409 H   0  0  0  0  0  0  0  0  0  0  0  0
    2.9397    1.3420   17.3683 C   0  0  0  0  0  0  0  0  0  0  0  0
    3.0651   -0.0520   16.7420 C   0  0  0  0  0  0  0  0  0  0  0  0
    3.3652    2.2760   16.3590 N   0  0  0  0  0  0  0  0  0  0  0  0
    2.9164    3.5644   16.1093 C   0  0  0  0  0  0  0  0  0  0  0  0
    1.9886    4.0568   16.8317 O   0  0  0  0  0  0  0  0  0  0  0  0
    4.1352    1.9038   15.7162 H   0  0  0  0  0  0  0  0  0  0  0  0
    3.4625    4.4068   15.0396 C   0  0  0  0  0  0  0  0  0  0  0  0
    3.5418    5.8745   15.4948 C   0  0  0  0  0  0  0  0  0  0  0  0
    2.7396    4.3674   13.8192 N   0  0  0  0  0  0  0  0  0  0  0  0
    3.3574    4.1611   12.5561 C   0  0  0  0  0  0  0  0  0  0  0  0
    4.6123    4.0372   12.5297 O   0  0  0  0  0  0  0  0  0  0  0  0
    1.6831    4.5051   13.8729 H   0  0  0  0  0  0  0  0  0  0  0  0
    2.5377    4.0954   11.3437 C   0  0  0  0  0  0  0  0  0  0  0  0
    2.9638    2.7600   10.6526 C   0  0  0  0  0  0  0  0  0  0  0  0
    2.8830    5.1111   10.3599 N   0  0  0  0  0  0  0  0  0  0  0  0
    2.6667    6.4875   10.6100 C   0  0  0  0  0  0  0  0  0  0  0  0
    2.1524    6.8925   11.6899 O   0  0  0  0  0  0  0  0  0  0  0  0
    3.2955    4.7803    9.4676 H   0  0  0  0  0  0  0  0  0  0  0  0
    3.0472    7.4760    9.5824 C   0  0  0  0  0  0  0  0  0  0  0  0
    1.7513    7.8183    8.8363 C   0  0  0  0  0  0  0  0  0  0  0  0
    3.9102    6.8597    8.5703 N   0  0  0  0  0  0  0  0  0  0  0  0
    5.0215    7.5875    8.0731 C   0  0  0  0  0  0  0  0  0  0  0  0
    5.2263    8.7438    8.5101 O   0  0  0  0  0  0  0  0  0  0  0  0
    3.7403    5.9026    8.1982 H   0  0  0  0  0  0  0  0  0  0  0  0
    5.9368    7.0249    7.0665 C   0  0  0  0  0  0  0  0  0  0  0  0
    6.8304    6.0246    7.8024 C   0  0  0  0  0  0  0  0  0  0  0  0
    6.7763    8.0617    6.5002 N   0  0  0  0  0  0  0  0  0  0  0  0
    7.2201    8.0150    5.1599 C   0  0  0  0  0  0  0  0  0  0  0  0
    6.8728    7.0408    4.4488 O   0  0  0  0  0  0  0  0  0  0  0  0
    7.0587    8.8613    7.0991 H   0  0  0  0  0  0  0  0  0  0  0  0
    8.0852    9.1159    4.6199 C   0  0  0  0  0  0  0  0  0  0  0  0
    7.4927    9.6704    3.3438 C   0  0  0  0  0  0  0  0  0  0  0  0
    9.3847    8.4694    4.2856 C   0  0  0  0  0  0  0  0  0  0  0  0
   10.3923    8.2460    5.3797 C   0  0  0  0  0  0  0  0  0  0  0  0
    9.6463    8.1195    3.1460 O   0  0  0  0  0  0  0  0  0  0  0  0
    4.3387    1.0180   20.9599 C   0  0  0  0  0  0  0  0  0  0  0  0
    5.7666    0.8273   20.6794 C   0  0  0  0  0  0  0  0  0  0  0  0
    4.4640    3.5750   21.0012 N   0  0  0  0  0  0  0  0  0  0  0  0
    4.0450    2.3526   21.5423 C   0  0  0  0  0  0  0  0  0  0  0  0
    3.3692    2.4033   22.6069 O   0  0  0  0  0  0  0  0  0  0  0  0
    5.0081    3.6419   20.1243 H   0  0  0  0  0  0  0  0  0  0  0  0
    4.1420    4.8447   21.6711 C   0  0  0  0  0  0  0  0  0  0  0  0
    4.2881    4.7829   23.1369 C   0  0  0  0  0  0  0  0  0  0  0  0
    4.6683    7.2535   21.4022 N   0  0  0  0  0  0  0  0  0  0  0  0
    4.9208    5.9534   21.0142 C   0  0  0  0  0  0  0  0  0  0  0  0
    5.7625    5.6714   20.1386 O   0  0  0  0  0  0  0  0  0  0  0  0
    3.9935    7.5215   22.1203 H   0  0  0  0  0  0  0  0  0  0  0  0
    5.3886    8.4585   20.7809 C   0  0  0  0  0  0  0  0  0  0  0  0
    6.4011    8.7281   21.7315 C   0  0  0  0  0  0  0  0  0  0  0  0
    5.8563    9.3429   22.8309 O   0  0  0  0  0  0  0  0  0  0  0  0
    7.7746    8.5987   21.9550 N   0  0  0  0  0  0  0  0  0  0  0  0
    8.8885    8.1697   21.1503 C   0  0  0  0  0  0  0  0  0  0  0  0
   10.0585    8.9593   21.6287 C   0  0  0  0  0  0  0  0  0  0  0  0
    9.5901    9.7211   22.8505 C   0  0  0  0  0  0  0  0  0  0  0  0
    8.3995    8.9147   23.2763 C   0  0  0  0  0  0  0  0  0  0  0  0
    8.8494    7.7002   23.9800 C   0  0  0  0  0  0  0  0  0  0  0  0
    8.7337    6.5507   23.4246 O   0  0  0  0  0  0  0  0  0  0  0  0
    9.4195    7.6997   25.2612 N   0  0  0  0  0  0  0  0  0  0  0  0
    9.9055    6.5535   25.9996 C   0  0  0  0  0  0  0  0  0  0  0  0
   10.9552    7.1036   26.9432 C   0  0  0  0  0  0  0  0  0  0  0  0
   10.8953    8.6016   26.8215 C   0  0  0  0  0  0  0  0  0  0  0  0
    9.6109    8.8258   26.0977 C   0  0  0  0  0  0  0  0  0  0  0  0
    8.8475    9.8418   26.2229 O   0  0  0  0  0  0  0  0  0  0  0  0
    4.3123    9.2192   20.2131 C   0  0  0  0  0  0  0  0  0  0  0  0
    4.5232    8.9687   17.6392 C   0  0  0  0  0  0  0  0  0  0  0  0
    3.7810    9.1721   18.8618 C   0  0  0  0  0  0  0  0  0  0  0  0
    2.9295   10.4784   18.6223 C   0  0  0  0  0  0  0  0  0  0  0  0
 69 70  1  0  0  0
 70 71  1  0  0  0
 70 68  1  0  0  0
 68 52  1  0  0  0
 52 48  1  0  0  0
 48 49  1  0  0  0
 49 50  2  0  0  0
 49 46  1  0  0  0
 46 47  1  0  0  0
 46 42  1  0  0  0
 42 43  1  0  0  0
 43 44  2  0  0  0
 43 40  1  0  0  0
 40 41  1  0  0  0
 40  1  1  0  0  0
  1  2  1  0  0  0
  2  3  2  0  0  0
  2  5  1  0  0  0
  5  6  1  0  0  0
  5  7  1  0  0  0
  7  8  1  0  0  0
  8  9  2  0  0  0
  8 11  1  0  0  0
 11 12  1  0  0  0
 11 13  1  0  0  0
 13 14  1  0  0  0
 14 15  2  0  0  0
 14 17  1  0  0  0
 17 18  1  0  0  0
 17 19  1  0  0  0
 19 20  1  0  0  0
 20 21  2  0  0  0
 20 23  1  0  0  0
 23 24  1  0  0  0
 23 25  1  0  0  0
 25 26  1  0  0  0
 26 27  2  0  0  0
 26 29  1  0  0  0
 29 30  1  0  0  0
 29 31  1  0  0  0
 31 32  1  0  0  0
 32 33  2  0  0  0
 32 35  1  0  0  0
 35 36  1  0  0  0
 35 37  1  0  0  0
 37 38  1  0  0  0
 37 39  2  0  0  0
 52 53  1  0  0  0
 53 54  2  0  0  0
 53 55  1  0  0  0
 55 56  1  0  0  0
 56 57  1  0  0  0
 57 58  1  0  0  0
 58 59  1  0  0  0
 59 60  1  0  0  0
 60 61  2  0  0  0
 60 62  1  0  0  0
 62 63  1  0  0  0
 63 64  1  0  0  0
 64 65  1  0  0  0
 65 66  1  0  0  0
 66 67  2  0  0  0
 59 55  1  0  0  0
 66 62  1  0  0  0
 48 51  1  0  0  0
 42 45  1  0  0  0
  1  4  1  0  0  0
  7 10  1  0  0  0
 13 16  1  0  0  0
 19 22  1  0  0  0
 25 28  1  0  0  0
 31 34  1  0  0  0
M  END
> <minimizedAffinity>
-8.68811

> <CNNscore>
0.1901242882

> <CNNaffinity>
6.6843514442

> <CNN_VS>
1.2708575726

> <CNNaffinity_variance>
0.2837503552

$$$$
[H]N(C(=O)[C@@]([H])(N([H])C(=O)[C@@]([H])(N([H])C(=O)[C@@]([H])(N([H])C(=O)[C@@]([H])(C(=O)C([H])([H])[H])C([H])([H])[H])C([H])([H])[H])C([H])([H])[H])C([H])([H])[H])[C@]([H])(C(=O)N([H])[C@]([H])(C(=O)N([H])[C@]([H])(C(=O)N([H])[C@]([H])(C(=O)N([H])[C@]([H])(C(=O)N1C([H])([H])C([H])([H])C([H])([H])[C@]1([H])C(=O)N(C([H])([H])[H])C([H])([H])[H])C([H])([H])C([H])(C([H])([H])[H])C([H])([H])[H])C([H])([H])[H])C([H])([H])[H])C([H])([H])[H])C([H])([H])[H]


 68 68  0  0  0  0  0  0  0  0999 V2000
    2.7774    4.0174   14.7156 C   0  0  0  0  0  0  0  0  0  0  0  0
    3.9654    4.2653   13.7202 C   0  0  0  0  0  0  0  0  0  0  0  0
    3.0684    2.7261   15.2891 N   0  0  0  0  0  0  0  0  0  0  0  0
    3.4200    2.6524   16.7043 C   0  0  0  0  0  0  0  0  0  0  0  0
    3.4624    3.6849   17.3433 O   0  0  0  0  0  0  0  0  0  0  0  0
    3.0250    1.8823   14.7187 H   0  0  0  0  0  0  0  0  0  0  0  0
    3.6965    1.2767   17.1958 C   0  0  0  0  0  0  0  0  0  0  0  0
    2.5932    0.3431   16.6334 C   0  0  0  0  0  0  0  0  0  0  0  0
    3.8433    1.1274   18.5720 N   0  0  0  0  0  0  0  0  0  0  0  0
    4.6854    1.7249   19.5045 C   0  0  0  0  0  0  0  0  0  0  0  0
    5.5486    2.6127   19.3192 O   0  0  0  0  0  0  0  0  0  0  0  0
    3.1461    0.3854   19.0216 H   0  0  0  0  0  0  0  0  0  0  0  0
    4.5334    1.2201   20.9383 C   0  0  0  0  0  0  0  0  0  0  0  0
    3.5238    0.0787   20.9206 C   0  0  0  0  0  0  0  0  0  0  0  0
    4.0556    2.2840   21.7499 N   0  0  0  0  0  0  0  0  0  0  0  0
    4.9635    2.9533   22.6108 C   0  0  0  0  0  0  0  0  0  0  0  0
    6.1563    2.5641   22.6455 O   0  0  0  0  0  0  0  0  0  0  0  0
    3.0610    2.5733   21.7196 H   0  0  0  0  0  0  0  0  0  0  0  0
    4.5166    4.0825   23.4463 C   0  0  0  0  0  0  0  0  0  0  0  0
    3.0121    3.8745   23.6595 C   0  0  0  0  0  0  0  0  0  0  0  0
    4.8460    5.3161   22.8217 N   0  0  0  0  0  0  0  0  0  0  0  0
    4.5993    5.8423   21.5542 C   0  0  0  0  0  0  0  0  0  0  0  0
    3.9945    5.1825   20.6815 O   0  0  0  0  0  0  0  0  0  0  0  0
    5.4033    6.0023   23.4807 H   0  0  0  0  0  0  0  0  0  0  0  0
    5.0757    7.2232   21.2634 C   0  0  0  0  0  0  0  0  0  0  0  0
    5.0147    7.4444   19.7372 C   0  0  0  0  0  0  0  0  0  0  0  0
    6.4820    7.3942   21.6907 N   0  0  0  0  0  0  0  0  0  0  0  0
    6.7297    8.5854   22.4290 C   0  0  0  0  0  0  0  0  0  0  0  0
    5.8703    9.3990   22.6916 O   0  0  0  0  0  0  0  0  0  0  0  0
    7.1782    6.7189   21.4711 H   0  0  0  0  0  0  0  0  0  0  0  0
    8.1422    8.8027   22.8896 C   0  0  0  0  0  0  0  0  0  0  0  0
    8.2121    9.9574   23.8939 C   0  0  0  0  0  0  0  0  0  0  0  0
    9.0084    9.1774   21.7352 C   0  0  0  0  0  0  0  0  0  0  0  0
    9.2475   10.5664   21.2935 C   0  0  0  0  0  0  0  0  0  0  0  0
    9.5576    8.2555   21.1124 O   0  0  0  0  0  0  0  0  0  0  0  0
    0.7608    4.8846   13.3587 N   0  0  0  0  0  0  0  0  0  0  0  0
    1.5489    3.9115   13.9294 C   0  0  0  0  0  0  0  0  0  0  0  0
    1.1592    2.6638   13.7542 O   0  0  0  0  0  0  0  0  0  0  0  0
    1.0507    5.9060   13.4909 H   0  0  0  0  0  0  0  0  0  0  0  0
   -0.4238    4.6691   12.5782 C   0  0  0  0  0  0  0  0  0  0  0  0
   -1.2189    5.9799   12.5560 C   0  0  0  0  0  0  0  0  0  0  0  0
   -0.1810    2.8569   10.8275 N   0  0  0  0  0  0  0  0  0  0  0  0
   -0.1793    4.2556   11.1984 C   0  0  0  0  0  0  0  0  0  0  0  0
    0.0271    5.1625   10.3473 O   0  0  0  0  0  0  0  0  0  0  0  0
   -0.3685    2.1878   11.5994 H   0  0  0  0  0  0  0  0  0  0  0  0
    0.0523    2.4784    9.4713 C   0  0  0  0  0  0  0  0  0  0  0  0
    1.0510    1.3887    9.2551 C   0  0  0  0  0  0  0  0  0  0  0  0
   -2.3926    1.9781    9.4735 N   0  0  0  0  0  0  0  0  0  0  0  0
   -1.2278    2.1945    8.7657 C   0  0  0  0  0  0  0  0  0  0  0  0
   -1.2021    2.1609    7.5113 O   0  0  0  0  0  0  0  0  0  0  0  0
   -2.3961    2.0042   10.5236 H   0  0  0  0  0  0  0  0  0  0  0  0
   -3.7536    1.6857    8.8417 C   0  0  0  0  0  0  0  0  0  0  0  0
   -4.3898    2.9723    8.8963 C   0  0  0  0  0  0  0  0  0  0  0  0
   -4.4872    3.4680    7.6360 O   0  0  0  0  0  0  0  0  0  0  0  0
   -4.9122    3.8531    9.8110 N   0  0  0  0  0  0  0  0  0  0  0  0
   -4.9433    3.9417   11.2365 C   0  0  0  0  0  0  0  0  0  0  0  0
   -4.7122    5.4093   11.5731 C   0  0  0  0  0  0  0  0  0  0  0  0
   -4.9737    6.1427   10.2826 C   0  0  0  0  0  0  0  0  0  0  0  0
   -5.6381    5.0949    9.4033 C   0  0  0  0  0  0  0  0  0  0  0  0
   -7.0875    4.9884    9.5785 C   0  0  0  0  0  0  0  0  0  0  0  0
   -7.5053    4.3792   10.6122 O   0  0  0  0  0  0  0  0  0  0  0  0
   -7.9670    5.5455    8.6381 N   0  0  0  0  0  0  0  0  0  0  0  0
   -7.6377    6.2148    7.4189 C   0  0  0  0  0  0  0  0  0  0  0  0
   -9.4123    5.4413    8.9369 C   0  0  0  0  0  0  0  0  0  0  0  0
   -4.1895    0.3989    9.2977 C   0  0  0  0  0  0  0  0  0  0  0  0
   -3.5217   -1.0774    7.2566 C   0  0  0  0  0  0  0  0  0  0  0  0
   -4.1395   -0.8446    8.5345 C   0  0  0  0  0  0  0  0  0  0  0  0
   -5.6184   -1.3900    8.4488 C   0  0  0  0  0  0  0  0  0  0  0  0
 66 67  1  0  0  0
 67 68  1  0  0  0
 67 65  1  0  0  0
 65 52  1  0  0  0
 52 48  1  0  0  0
 48 49  1  0  0  0
 49 50  2  0  0  0
 49 46  1  0  0  0
 46 47  1  0  0  0
 46 42  1  0  0  0
 42 43  1  0  0  0
 43 44  2  0  0  0
 43 40  1  0  0  0
 40 41  1  0  0  0
 40 36  1  0  0  0
 36 37  1  0  0  0
 37 38  2  0  0  0
 37  1  1  0  0  0
  1  2  1  0  0  0
  1  3  1  0  0  0
  3  4  1  0  0  0
  4  5  2  0  0  0
  4  7  1  0  0  0
  7  8  1  0  0  0
  7  9  1  0  0  0
  9 10  1  0  0  0
 10 11  2  0  0  0
 10 13  1  0  0  0
 13 14  1  0  0  0
 13 15  1  0  0  0
 15 16  1  0  0  0
 16 17  2  0  0  0
 16 19  1  0  0  0
 19 20  1  0  0  0
 19 21  1  0  0  0
 21 22  1  0  0  0
 22 23  2  0  0  0
 22 25  1  0  0  0
 25 26  1  0  0  0
 25 27  1  0  0  0
 27 28  1  0  0  0
 28 29  2  0  0  0
 28 31  1  0  0  0
 31 32  1  0  0  0
 31 33  1  0  0  0
 33 34  1  0  0  0
 33 35  2  0  0  0
 52 53  1  0  0  0
 53 54  2  0  0  0
 53 55  1  0  0  0
 55 56  1  0  0  0
 56 57  1  0  0  0
 57 58  1  0  0  0
 58 59  1  0  0  0
 59 60  1  0  0  0
 60 61  2  0  0  0
 60 62  1  0  0  0
 62 63  1  0  0  0
 62 64  1  0  0  0
 59 55  1  0  0  0
 48 51  1  0  0  0
 42 45  1  0  0  0
 36 39  1  0  0  0
  3  6  1  0  0  0
  9 12  1  0  0  0
 15 18  1  0  0  0
 21 24  1  0  0  0
 27 30  1  0  0  0
M  END
> <minimizedAffinity>
-8.08453

> <CNNscore>
0.4084930122

> <CNNaffinity>
6.8527054787

> <CNN_VS>
2.7992823124

> <CNNaffinity_variance>
0.4152393341

$$$$
[H]N(C(=O)[C@@]([H])(N([H])C(=O)[C@@]([H])(N([H])C(=O)[C@@]([H])(N([H])C(=O)[C@@]([H])(C(=O)C([H])([H])[H])C([H])([H])[H])C([H])([H])[H])C([H])([H])[H])C([H])([H])[H])[C@]([H])(C(=O)N([H])[C@]([H])(C(=O)N([H])[C@]([H])(C(=O)N([H])[C@]([H])(C(=O)N([H])[C@]([H])(C(=O)N1C([H])([H])C([H])([H])C([H])([H])[C@]1([H])C(=O)N(C([H])([H])[H])C([H])([H])[H])C([H])([H])C([H])(C([H])([H])[H])C([H])([H])[H])C([H])([H])[H])C([H])([H])[H])C([H])([H])[H])C([H])([H])[H]


 68 68  0  0  0  0  0  0  0  0999 V2000
    3.5535    6.9306   17.8848 C   0  0  0  0  0  0  0  0  0  0  0  0
    3.9996    7.6955   19.1808 C   0  0  0  0  0  0  0  0  0  0  0  0
    4.2836    5.6880   17.9461 N   0  0  0  0  0  0  0  0  0  0  0  0
    3.6093    4.4595   17.5363 C   0  0  0  0  0  0  0  0  0  0  0  0
    2.4539    4.5306   17.1670 O   0  0  0  0  0  0  0  0  0  0  0  0
    5.2518    5.6692   18.2648 H   0  0  0  0  0  0  0  0  0  0  0  0
    4.4505    3.2375   17.6334 C   0  0  0  0  0  0  0  0  0  0  0  0
    4.0557    2.2976   16.4647 C   0  0  0  0  0  0  0  0  0  0  0  0
    4.4376    2.5709   18.8554 N   0  0  0  0  0  0  0  0  0  0  0  0
    3.9020    1.3534   19.2639 C   0  0  0  0  0  0  0  0  0  0  0  0
    3.2872    0.5036   18.5802 O   0  0  0  0  0  0  0  0  0  0  0  0
    4.9639    3.1151   19.6711 H   0  0  0  0  0  0  0  0  0  0  0  0
    4.0885    1.0227   20.7436 C   0  0  0  0  0  0  0  0  0  0  0  0
    2.9316    0.1247   21.1648 C   0  0  0  0  0  0  0  0  0  0  0  0
    4.0662    2.2321   21.4892 N   0  0  0  0  0  0  0  0  0  0  0  0
    5.0938    2.4747   22.4371 C   0  0  0  0  0  0  0  0  0  0  0  0
    5.9762    1.5977   22.6040 O   0  0  0  0  0  0  0  0  0  0  0  0
    3.3148    2.9318   21.3490 H   0  0  0  0  0  0  0  0  0  0  0  0
    5.1260    3.7300   23.2091 C   0  0  0  0  0  0  0  0  0  0  0  0
    3.7135    4.3186   23.1082 C   0  0  0  0  0  0  0  0  0  0  0  0
    6.1453    4.5865   22.7114 N   0  0  0  0  0  0  0  0  0  0  0  0
    6.3905    5.1564   21.4626 C   0  0  0  0  0  0  0  0  0  0  0  0
    5.6485    4.9241   20.4837 O   0  0  0  0  0  0  0  0  0  0  0  0
    6.8903    4.8658   23.4749 H   0  0  0  0  0  0  0  0  0  0  0  0
    7.5669    6.0591   21.3226 C   0  0  0  0  0  0  0  0  0  0  0  0
    8.3490    6.0439   22.6530 C   0  0  0  0  0  0  0  0  0  0  0  0
    7.1333    7.4505   21.0671 N   0  0  0  0  0  0  0  0  0  0  0  0
    7.5300    7.9651   19.8008 C   0  0  0  0  0  0  0  0  0  0  0  0
    8.1694    7.3278   18.9918 O   0  0  0  0  0  0  0  0  0  0  0  0
    6.6073    7.9630   21.7376 H   0  0  0  0  0  0  0  0  0  0  0  0
    7.1098    9.3732   19.4921 C   0  0  0  0  0  0  0  0  0  0  0  0
    7.8030    9.8785   18.2228 C   0  0  0  0  0  0  0  0  0  0  0  0
    7.5129   10.2856   20.6003 C   0  0  0  0  0  0  0  0  0  0  0  0
    6.6059   11.2539   21.2496 C   0  0  0  0  0  0  0  0  0  0  0  0
    8.6877   10.2197   20.9936 O   0  0  0  0  0  0  0  0  0  0  0  0
    3.3337    8.4026   15.7765 N   0  0  0  0  0  0  0  0  0  0  0  0
    4.0270    7.6924   16.7297 C   0  0  0  0  0  0  0  0  0  0  0  0
    5.3404    7.6787   16.6110 O   0  0  0  0  0  0  0  0  0  0  0  0
    2.2663    8.4249   15.8456 H   0  0  0  0  0  0  0  0  0  0  0  0
    3.9032    9.1423   14.6867 C   0  0  0  0  0  0  0  0  0  0  0  0
    2.9641    9.0060   13.4825 C   0  0  0  0  0  0  0  0  0  0  0  0
    3.4937   11.2030   16.0987 N   0  0  0  0  0  0  0  0  0  0  0  0
    4.1061   10.5643   14.9538 C   0  0  0  0  0  0  0  0  0  0  0  0
    4.8369   11.2080   14.1530 O   0  0  0  0  0  0  0  0  0  0  0  0
    2.9162   10.5856   16.7019 H   0  0  0  0  0  0  0  0  0  0  0  0
    3.7136   12.5920   16.3429 C   0  0  0  0  0  0  0  0  0  0  0  0
    2.5073   13.3951   16.7053 C   0  0  0  0  0  0  0  0  0  0  0  0
    5.6214   13.9182   17.2534 N   0  0  0  0  0  0  0  0  0  0  0  0
    4.8199   12.7967   17.3183 C   0  0  0  0  0  0  0  0  0  0  0  0
    4.9905   11.9135   18.1936 O   0  0  0  0  0  0  0  0  0  0  0  0
    5.4689   14.6456   16.5110 H   0  0  0  0  0  0  0  0  0  0  0  0
    6.7752   14.2202   18.2097 C   0  0  0  0  0  0  0  0  0  0  0  0
    6.1821   15.1804   19.0982 C   0  0  0  0  0  0  0  0  0  0  0  0
    5.4687   16.0741   18.3662 O   0  0  0  0  0  0  0  0  0  0  0  0
    6.1206   15.4826   20.4362 N   0  0  0  0  0  0  0  0  0  0  0  0
    6.7725   15.0128   21.6173 C   0  0  0  0  0  0  0  0  0  0  0  0
    7.0658   16.2493   22.4574 C   0  0  0  0  0  0  0  0  0  0  0  0
    6.1828   17.3237   21.8767 C   0  0  0  0  0  0  0  0  0  0  0  0
    5.2294   16.5554   20.9750 C   0  0  0  0  0  0  0  0  0  0  0  0
    4.0484   16.0229   21.6566 C   0  0  0  0  0  0  0  0  0  0  0  0
    4.1223   15.8718   22.9160 O   0  0  0  0  0  0  0  0  0  0  0  0
    2.8879   15.7017   20.9366 N   0  0  0  0  0  0  0  0  0  0  0  0
    2.6826   15.7806   19.5244 C   0  0  0  0  0  0  0  0  0  0  0  0
    1.7268   15.2311   21.7235 C   0  0  0  0  0  0  0  0  0  0  0  0
    7.9869   14.2660   17.4458 C   0  0  0  0  0  0  0  0  0  0  0  0
   10.2790   13.0395   17.2613 C   0  0  0  0  0  0  0  0  0  0  0  0
    9.3139   13.8806   17.9171 C   0  0  0  0  0  0  0  0  0  0  0  0
    9.1380   13.3366   19.3885 C   0  0  0  0  0  0  0  0  0  0  0  0
 66 67  1  0  0  0
 67 68  1  0  0  0
 67 65  1  0  0  0
 65 52  1  0  0  0
 52 48  1  0  0  0
 48 49  1  0  0  0
 49 50  2  0  0  0
 49 46  1  0  0  0
 46 47  1  0  0  0
 46 42  1  0  0  0
 42 43  1  0  0  0
 43 44  2  0  0  0
 43 40  1  0  0  0
 40 41  1  0  0  0
 40 36  1  0  0  0
 36 37  1  0  0  0
 37 38  2  0  0  0
 37  1  1  0  0  0
  1  2  1  0  0  0
  1  3  1  0  0  0
  3  4  1  0  0  0
  4  5  2  0  0  0
  4  7  1  0  0  0
  7  8  1  0  0  0
  7  9  1  0  0  0
  9 10  1  0  0  0
 10 11  2  0  0  0
 10 13  1  0  0  0
 13 14  1  0  0  0
 13 15  1  0  0  0
 15 16  1  0  0  0
 16 17  2  0  0  0
 16 19  1  0  0  0
 19 20  1  0  0  0
 19 21  1  0  0  0
 21 22  1  0  0  0
 22 23  2  0  0  0
 22 25  1  0  0  0
 25 26  1  0  0  0
 25 27  1  0  0  0
 27 28  1  0  0  0
 28 29  2  0  0  0
 28 31  1  0  0  0
 31 32  1  0  0  0
 31 33  1  0  0  0
 33 34  1  0  0  0
 33 35  2  0  0  0
 52 53  1  0  0  0
 53 54  2  0  0  0
 53 55  1  0  0  0
 55 56  1  0  0  0
 56 57  1  0  0  0
 57 58  1  0  0  0
 58 59  1  0  0  0
 59 60  1  0  0  0
 60 61  2  0  0  0
 60 62  1  0  0  0
 62 63  1  0  0  0
 62 64  1  0  0  0
 59 55  1  0  0  0
 48 51  1  0  0  0
 42 45  1  0  0  0
 36 39  1  0  0  0
  3  6  1  0  0  0
  9 12  1  0  0  0
 15 18  1  0  0  0
 21 24  1  0  0  0
 27 30  1  0  0  0
M  END
> <minimizedAffinity>
-8.15086

> <CNNscore>
0.3916684687

> <CNNaffinity>
7.2460594177

> <CNN_VS>
2.8380529881

> <CNNaffinity_variance>
0.2761129737

$$$$
[H]N(C(=O)[C@@]([H])(N([H])C(=O)[C@@]([H])(N([H])C(=O)[C@@]([H])(N([H])C(=O)[C@@]([H])(C(=O)C([H])([H])[H])C([H])([H])[H])C([H])([H])[H])C([H])([H])[H])C([H])([H])[H])[C@]([H])(C(=O)N([H])[C@]([H])(C(=O)N([H])[C@]([H])(C(=O)N([H])[C@]([H])(C(=O)N([H])[C@]([H])(C(=O)N1C([H])([H])C([H])([H])C([H])([H])[C@]1([H])C(=O)N(C([H])([H])[H])C([H])([H])[H])C([H])([H])C([H])(C([H])([H])[H])C([H])([H])[H])C([H])([H])[H])C([H])([H])[H])C([H])([H])[H])C([H])([H])[H]


 68 68  0  0  0  0  0  0  0  0999 V2000
    3.9171    7.3853   18.2968 C   0  0  0  0  0  0  0  0  0  0  0  0
    4.5930    8.1156   19.5105 C   0  0  0  0  0  0  0  0  0  0  0  0
    4.6157    6.1257   18.2164 N   0  0  0  0  0  0  0  0  0  0  0  0
    3.8553    4.9239   17.8859 C   0  0  0  0  0  0  0  0  0  0  0  0
    2.6593    5.0303   17.6996 O   0  0  0  0  0  0  0  0  0  0  0  0
    5.6203    6.0771   18.3825 H   0  0  0  0  0  0  0  0  0  0  0  0
    4.6696    3.6816   17.8243 C   0  0  0  0  0  0  0  0  0  0  0  0
    4.3325    2.9608   16.4931 C   0  0  0  0  0  0  0  0  0  0  0  0
    4.5713    2.8206   18.9137 N   0  0  0  0  0  0  0  0  0  0  0  0
    3.9536    1.5867   19.0923 C   0  0  0  0  0  0  0  0  0  0  0  0
    3.3207    0.9033   18.2556 O   0  0  0  0  0  0  0  0  0  0  0  0
    5.0938    3.1864   19.8257 H   0  0  0  0  0  0  0  0  0  0  0  0
    4.0624    1.0006   20.4989 C   0  0  0  0  0  0  0  0  0  0  0  0
    2.8784    0.0628   20.7005 C   0  0  0  0  0  0  0  0  0  0  0  0
    4.0126    2.0621   21.4421 N   0  0  0  0  0  0  0  0  0  0  0  0
    5.0816    2.2148   22.3627 C   0  0  0  0  0  0  0  0  0  0  0  0
    6.0256    1.3881   22.3294 O   0  0  0  0  0  0  0  0  0  0  0  0
    3.2118    2.7194   21.4642 H   0  0  0  0  0  0  0  0  0  0  0  0
    5.0849    3.3209   23.3370 C   0  0  0  0  0  0  0  0  0  0  0  0
    3.6760    3.9249   23.2879 C   0  0  0  0  0  0  0  0  0  0  0  0
    6.1201    4.2445   23.0279 N   0  0  0  0  0  0  0  0  0  0  0  0
    6.3915    5.0398   21.9151 C   0  0  0  0  0  0  0  0  0  0  0  0
    5.6643    5.0081   20.8989 O   0  0  0  0  0  0  0  0  0  0  0  0
    6.8545    4.3635   23.8417 H   0  0  0  0  0  0  0  0  0  0  0  0
    7.5782    5.9384   21.9682 C   0  0  0  0  0  0  0  0  0  0  0  0
    8.7920    5.1091   22.4383 C   0  0  0  0  0  0  0  0  0  0  0  0
    7.3676    7.0288   22.9459 N   0  0  0  0  0  0  0  0  0  0  0  0
    8.1900    8.1713   22.7363 C   0  0  0  0  0  0  0  0  0  0  0  0
    8.9983    8.2559   21.8370 O   0  0  0  0  0  0  0  0  0  0  0  0
    6.6999    6.9488   23.6786 H   0  0  0  0  0  0  0  0  0  0  0  0
    8.0104    9.3080   23.7006 C   0  0  0  0  0  0  0  0  0  0  0  0
    7.3896    8.8129   25.0107 C   0  0  0  0  0  0  0  0  0  0  0  0
    7.0765   10.3224   23.1329 C   0  0  0  0  0  0  0  0  0  0  0  0
    7.4668   11.7011   22.7748 C   0  0  0  0  0  0  0  0  0  0  0  0
    5.8986    9.9757   22.9552 O   0  0  0  0  0  0  0  0  0  0  0  0
    3.4620    8.3652   15.9531 N   0  0  0  0  0  0  0  0  0  0  0  0
    4.2093    8.1577   17.0899 C   0  0  0  0  0  0  0  0  0  0  0  0
    5.3911    8.7418   17.1296 O   0  0  0  0  0  0  0  0  0  0  0  0
    2.5016    7.8975   15.8921 H   0  0  0  0  0  0  0  0  0  0  0  0
    3.8363    9.1693   14.8252 C   0  0  0  0  0  0  0  0  0  0  0  0
    2.8271    8.9048   13.7018 C   0  0  0  0  0  0  0  0  0  0  0  0
    3.2046   11.1728   16.2376 N   0  0  0  0  0  0  0  0  0  0  0  0
    3.8705   10.6067   15.0844 C   0  0  0  0  0  0  0  0  0  0  0  0
    4.5048   11.3298   14.2693 O   0  0  0  0  0  0  0  0  0  0  0  0
    2.7160   10.4932   16.8525 H   0  0  0  0  0  0  0  0  0  0  0  0
    3.2593   12.5793   16.4738 C   0  0  0  0  0  0  0  0  0  0  0  0
    1.9769   13.2282   16.8810 C   0  0  0  0  0  0  0  0  0  0  0  0
    4.7221   14.2390   17.6285 N   0  0  0  0  0  0  0  0  0  0  0  0
    4.3669   12.9239   17.4074 C   0  0  0  0  0  0  0  0  0  0  0  0
    4.9581   11.9758   17.9791 O   0  0  0  0  0  0  0  0  0  0  0  0
    4.2208   15.0209   17.1377 H   0  0  0  0  0  0  0  0  0  0  0  0
    5.8380   14.6929   18.5695 C   0  0  0  0  0  0  0  0  0  0  0  0
    5.1248   14.9002   19.7990 C   0  0  0  0  0  0  0  0  0  0  0  0
    5.4378   13.9000   20.6623 O   0  0  0  0  0  0  0  0  0  0  0  0
    4.2281   15.7728   20.3644 N   0  0  0  0  0  0  0  0  0  0  0  0
    3.4508   16.8776   19.8994 C   0  0  0  0  0  0  0  0  0  0  0  0
    2.0858   16.7415   20.5618 C   0  0  0  0  0  0  0  0  0  0  0  0
    2.3075   15.7769   21.6985 C   0  0  0  0  0  0  0  0  0  0  0  0
    3.8220   15.6855   21.8006 C   0  0  0  0  0  0  0  0  0  0  0  0
    4.4366   16.7247   22.6284 C   0  0  0  0  0  0  0  0  0  0  0  0
    3.8392   17.8440   22.6956 O   0  0  0  0  0  0  0  0  0  0  0  0
    5.6337   16.4789   23.3175 N   0  0  0  0  0  0  0  0  0  0  0  0
    6.4282   15.2910   23.2980 C   0  0  0  0  0  0  0  0  0  0  0  0
    6.1410   17.5701   24.1780 C   0  0  0  0  0  0  0  0  0  0  0  0
    6.7188   15.5522   17.8348 C   0  0  0  0  0  0  0  0  0  0  0  0
    6.7705   17.3168   15.9177 C   0  0  0  0  0  0  0  0  0  0  0  0
    6.3538   16.8150   17.1997 C   0  0  0  0  0  0  0  0  0  0  0  0
    6.6175   17.9547   18.2596 C   0  0  0  0  0  0  0  0  0  0  0  0
 66 67  1  0  0  0
 67 68  1  0  0  0
 67 65  1  0  0  0
 65 52  1  0  0  0
 52 48  1  0  0  0
 48 49  1  0  0  0
 49 50  2  0  0  0
 49 46  1  0  0  0
 46 47  1  0  0  0
 46 42  1  0  0  0
 42 43  1  0  0  0
 43 44  2  0  0  0
 43 40  1  0  0  0
 40 41  1  0  0  0
 40 36  1  0  0  0
 36 37  1  0  0  0
 37 38  2  0  0  0
 37  1  1  0  0  0
  1  2  1  0  0  0
  1  3  1  0  0  0
  3  4  1  0  0  0
  4  5  2  0  0  0
  4  7  1  0  0  0
  7  8  1  0  0  0
  7  9  1  0  0  0
  9 10  1  0  0  0
 10 11  2  0  0  0
 10 13  1  0  0  0
 13 14  1  0  0  0
 13 15  1  0  0  0
 15 16  1  0  0  0
 16 17  2  0  0  0
 16 19  1  0  0  0
 19 20  1  0  0  0
 19 21  1  0  0  0
 21 22  1  0  0  0
 22 23  2  0  0  0
 22 25  1  0  0  0
 25 26  1  0  0  0
 25 27  1  0  0  0
 27 28  1  0  0  0
 28 29  2  0  0  0
 28 31  1  0  0  0
 31 32  1  0  0  0
 31 33  1  0  0  0
 33 34  1  0  0  0
 33 35  2  0  0  0
 52 53  1  0  0  0
 53 54  2  0  0  0
 53 55  1  0  0  0
 55 56  1  0  0  0
 56 57  1  0  0  0
 57 58  1  0  0  0
 58 59  1  0  0  0
 59 60  1  0  0  0
 60 61  2  0  0  0
 60 62  1  0  0  0
 62 63  1  0  0  0
 62 64  1  0  0  0
 59 55  1  0  0  0
 48 51  1  0  0  0
 42 45  1  0  0  0
 36 39  1  0  0  0
  3  6  1  0  0  0
  9 12  1  0  0  0
 15 18  1  0  0  0
 21 24  1  0  0  0
 27 30  1  0  0  0
M  END
> <minimizedAffinity>
-8.58566

> <CNNscore>
0.3153832257

> <CNNaffinity>
7.0919852257

> <CNN_VS>
2.2366931438

> <CNNaffinity_variance>
0.1778048575

$$$$
[H]N(C(=O)[C@@]([H])(N([H])C(=O)[C@@]([H])(N([H])C(=O)[C@@]([H])(N([H])C(=O)[C@@]([H])(C(=O)C([H])([H])[H])C([H])([H])[H])C([H])([H])[H])C([H])([H])[H])C([H])([H])[H])[C@]([H])(C(=O)N([H])[C@]([H])(C(=O)N([H])[C@]([H])(C(=O)N([H])[C@]([H])(C(=O)N([H])[C@]([H])(C(=O)N1C([H])([H])C([H])([H])C([H])([H])[C@]1([H])C(=O)N(C([H])([H])[H])C([H])([H])[H])C([H])([H])C([H])(C([H])([H])[H])C([H])([H])[H])C([H])([H])[H])C([H])([H])[H])C([H])([H])[H])C([H])([H])[H]


 68 68  0  0  0  0  0  0  0  0999 V2000
    5.7983    8.9072   13.0737 C   0  0  0  0  0  0  0  0  0  0  0  0
    7.3264    8.6981   12.7827 C   0  0  0  0  0  0  0  0  0  0  0  0
    5.7086    8.8578   14.5126 N   0  0  0  0  0  0  0  0  0  0  0  0
    4.6374    9.5986   15.1725 C   0  0  0  0  0  0  0  0  0  0  0  0
    3.8665   10.2363   14.4830 O   0  0  0  0  0  0  0  0  0  0  0  0
    6.3770    8.3132   15.0566 H   0  0  0  0  0  0  0  0  0  0  0  0
    4.6321    9.4778   16.6543 C   0  0  0  0  0  0  0  0  0  0  0  0
    6.0873    9.6804   17.1505 C   0  0  0  0  0  0  0  0  0  0  0  0
    4.0667    8.3195   17.1804 N   0  0  0  0  0  0  0  0  0  0  0  0
    4.2894    6.9664   16.9453 C   0  0  0  0  0  0  0  0  0  0  0  0
    5.1209    6.4356   16.1742 O   0  0  0  0  0  0  0  0  0  0  0  0
    3.2817    8.5089   17.9462 H   0  0  0  0  0  0  0  0  0  0  0  0
    3.3924    6.0117   17.7312 C   0  0  0  0  0  0  0  0  0  0  0  0
    3.2675    6.5579   19.1484 C   0  0  0  0  0  0  0  0  0  0  0  0
    3.9992    4.7271   17.7531 N   0  0  0  0  0  0  0  0  0  0  0  0
    3.4126    3.6765   17.0011 C   0  0  0  0  0  0  0  0  0  0  0  0
    2.3591    3.9120   16.3606 O   0  0  0  0  0  0  0  0  0  0  0  0
    4.8573    4.5516   18.3070 H   0  0  0  0  0  0  0  0  0  0  0  0
    4.0273    2.3371   16.9709 C   0  0  0  0  0  0  0  0  0  0  0  0
    3.0842    1.4636   16.1345 C   0  0  0  0  0  0  0  0  0  0  0  0
    4.2330    1.8613   18.2944 N   0  0  0  0  0  0  0  0  0  0  0  0
    3.6500    0.8413   19.0456 C   0  0  0  0  0  0  0  0  0  0  0  0
    2.7229    0.1411   18.5843 O   0  0  0  0  0  0  0  0  0  0  0  0
    5.0252    2.4058   18.8345 H   0  0  0  0  0  0  0  0  0  0  0  0
    4.1654    0.6021   20.4223 C   0  0  0  0  0  0  0  0  0  0  0  0
    3.2045   -0.3724   21.1358 C   0  0  0  0  0  0  0  0  0  0  0  0
    4.1932    1.8615   21.1986 N   0  0  0  0  0  0  0  0  0  0  0  0
    5.4421    2.1382   21.8225 C   0  0  0  0  0  0  0  0  0  0  0  0
    6.4083    1.4116   21.7336 O   0  0  0  0  0  0  0  0  0  0  0  0
    3.3947    2.4508   21.2628 H   0  0  0  0  0  0  0  0  0  0  0  0
    5.5224    3.4085   22.6190 C   0  0  0  0  0  0  0  0  0  0  0  0
    4.2313    3.6318   23.4127 C   0  0  0  0  0  0  0  0  0  0  0  0
    5.6807    4.5783   21.7081 C   0  0  0  0  0  0  0  0  0  0  0  0
    5.9589    5.9549   22.1657 C   0  0  0  0  0  0  0  0  0  0  0  0
    5.5686    4.3710   20.4900 O   0  0  0  0  0  0  0  0  0  0  0  0
    4.4707    6.6954   13.1482 N   0  0  0  0  0  0  0  0  0  0  0  0
    5.0765    7.7609   12.5225 C   0  0  0  0  0  0  0  0  0  0  0  0
    5.0108    7.7825   11.2055 O   0  0  0  0  0  0  0  0  0  0  0  0
    4.5146    6.6500   14.2162 H   0  0  0  0  0  0  0  0  0  0  0  0
    3.7606    5.6256   12.5076 C   0  0  0  0  0  0  0  0  0  0  0  0
    4.0521    4.3354   13.2830 C   0  0  0  0  0  0  0  0  0  0  0  0
    1.4293    5.0784   13.3280 N   0  0  0  0  0  0  0  0  0  0  0  0
    2.3123    5.8065   12.4427 C   0  0  0  0  0  0  0  0  0  0  0  0
    1.8656    6.6226   11.5918 O   0  0  0  0  0  0  0  0  0  0  0  0
    1.8949    4.4360   13.9983 H   0  0  0  0  0  0  0  0  0  0  0  0
    0.0182    5.2785   13.2510 C   0  0  0  0  0  0  0  0  0  0  0  0
   -0.4761    6.6336   13.6395 C   0  0  0  0  0  0  0  0  0  0  0  0
   -1.2194    5.7490   11.1357 N   0  0  0  0  0  0  0  0  0  0  0  0
   -0.5108    4.8638   11.9223 C   0  0  0  0  0  0  0  0  0  0  0  0
   -0.2866    3.6856   11.5523 O   0  0  0  0  0  0  0  0  0  0  0  0
   -1.4033    6.7302   11.4625 H   0  0  0  0  0  0  0  0  0  0  0  0
   -1.7965    5.4205    9.7587 C   0  0  0  0  0  0  0  0  0  0  0  0
   -1.1192    6.3681    8.9182 C   0  0  0  0  0  0  0  0  0  0  0  0
   -0.2873    7.1191    9.6846 O   0  0  0  0  0  0  0  0  0  0  0  0
   -1.0585    6.7572    7.6028 N   0  0  0  0  0  0  0  0  0  0  0  0
   -1.7919    6.4517    6.4156 C   0  0  0  0  0  0  0  0  0  0  0  0
   -1.9612    7.7710    5.6730 C   0  0  0  0  0  0  0  0  0  0  0  0
   -0.9437    8.6926    6.2952 C   0  0  0  0  0  0  0  0  0  0  0  0
   -0.0628    7.7570    7.1083 C   0  0  0  0  0  0  0  0  0  0  0  0
    1.0294    7.1435    6.3510 C   0  0  0  0  0  0  0  0  0  0  0  0
    0.7578    6.7051    5.1899 O   0  0  0  0  0  0  0  0  0  0  0  0
    2.3192    7.0546    6.8959 N   0  0  0  0  0  0  0  0  0  0  0  0
    2.7521    7.4644    8.1949 C   0  0  0  0  0  0  0  0  0  0  0  0
    3.3686    6.4762    6.0281 C   0  0  0  0  0  0  0  0  0  0  0  0
   -3.1908    5.1296    9.9175 C   0  0  0  0  0  0  0  0  0  0  0  0
   -4.6583    5.7951   11.9657 C   0  0  0  0  0  0  0  0  0  0  0  0
   -4.1650    5.9559   10.6242 C   0  0  0  0  0  0  0  0  0  0  0  0
   -5.4186    6.0996    9.6756 C   0  0  0  0  0  0  0  0  0  0  0  0
 66 67  1  0  0  0
 67 68  1  0  0  0
 67 65  1  0  0  0
 65 52  1  0  0  0
 52 48  1  0  0  0
 48 49  1  0  0  0
 49 50  2  0  0  0
 49 46  1  0  0  0
 46 47  1  0  0  0
 46 42  1  0  0  0
 42 43  1  0  0  0
 43 44  2  0  0  0
 43 40  1  0  0  0
 40 41  1  0  0  0
 40 36  1  0  0  0
 36 37  1  0  0  0
 37 38  2  0  0  0
 37  1  1  0  0  0
  1  2  1  0  0  0
  1  3  1  0  0  0
  3  4  1  0  0  0
  4  5  2  0  0  0
  4  7  1  0  0  0
  7  8  1  0  0  0
  7  9  1  0  0  0
  9 10  1  0  0  0
 10 11  2  0  0  0
 10 13  1  0  0  0
 13 14  1  0  0  0
 13 15  1  0  0  0
 15 16  1  0  0  0
 16 17  2  0  0  0
 16 19  1  0  0  0
 19 20  1  0  0  0
 19 21  1  0  0  0
 21 22  1  0  0  0
 22 23  2  0  0  0
 22 25  1  0  0  0
 25 26  1  0  0  0
 25 27  1  0  0  0
 27 28  1  0  0  0
 28 29  2  0  0  0
 28 31  1  0  0  0
 31 32  1  0  0  0
 31 33  1  0  0  0
 33 34  1  0  0  0
 33 35  2  0  0  0
 52 53  1  0  0  0
 53 54  2  0  0  0
 53 55  1  0  0  0
 55 56  1  0  0  0
 56 57  1  0  0  0
 57 58  1  0  0  0
 58 59  1  0  0  0
 59 60  1  0  0  0
 60 61  2  0  0  0
 60 62  1  0  0  0
 62 63  1  0  0  0
 62 64  1  0  0  0
 59 55  1  0  0  0
 48 51  1  0  0  0
 42 45  1  0  0  0
 36 39  1  0  0  0
  3  6  1  0  0  0
  9 12  1  0  0  0
 15 18  1  0  0  0
 21 24  1  0  0  0
 27 30  1  0  0  0
M  END
> <minimizedAffinity>
-7.90495

> <CNNscore>
0.2891788483

> <CNNaffinity>
7.1807212830

> <CNN_VS>
2.0765128136

> <CNNaffinity_variance>
0.3641136289

$$$$
[H]N(C(=O)[C@@]([H])(N([H])C(=O)[C@@]([H])(N([H])C(=O)[C@@]([H])(N([H])C(=O)[C@@]([H])(C(=O)C([H])([H])[H])C([H])([H])[H])C([H])([H])[H])C([H])([H])[H])C([H])([H])[H])[C@]([H])(C(=O)N([H])[C@]([H])(C(=O)N([H])[C@]([H])(C(=O)N([H])[C@]([H])(C(=O)N([H])[C@]([H])(C(=O)N1C([H])([H])C([H])([H])C([H])([H])[C@]1([H])C(=O)N(C([H])([H])[H])C([H])([H])[H])C([H])([H])C([H])(C([H])([H])[H])C([H])([H])[H])C([H])([H])[H])C([H])([H])[H])C([H])([H])[H])C([H])([H])[H]


 68 68  0  0  0  0  0  0  0  0999 V2000
    3.6389    7.1093   17.6697 C   0  0  0  0  0  0  0  0  0  0  0  0
    3.7309    7.5979   19.1584 C   0  0  0  0  0  0  0  0  0  0  0  0
    4.3643    5.8623   17.6678 N   0  0  0  0  0  0  0  0  0  0  0  0
    3.6085    4.6135   17.6398 C   0  0  0  0  0  0  0  0  0  0  0  0
    2.3950    4.6730   17.6280 O   0  0  0  0  0  0  0  0  0  0  0  0
    5.3836    5.8541   17.6812 H   0  0  0  0  0  0  0  0  0  0  0  0
    4.4505    3.3881   17.6358 C   0  0  0  0  0  0  0  0  0  0  0  0
    4.0241    2.5254   16.4197 C   0  0  0  0  0  0  0  0  0  0  0  0
    4.4688    2.6440   18.8121 N   0  0  0  0  0  0  0  0  0  0  0  0
    3.9675    1.3900   19.1468 C   0  0  0  0  0  0  0  0  0  0  0  0
    3.3646    0.5711   18.4164 O   0  0  0  0  0  0  0  0  0  0  0  0
    4.9922    3.1473   19.6556 H   0  0  0  0  0  0  0  0  0  0  0  0
    4.1803    0.9693   20.5999 C   0  0  0  0  0  0  0  0  0  0  0  0
    3.1128   -0.0629   20.9423 C   0  0  0  0  0  0  0  0  0  0  0  0
    4.0412    2.1124   21.4324 N   0  0  0  0  0  0  0  0  0  0  0  0
    5.0324    2.3733   22.4136 C   0  0  0  0  0  0  0  0  0  0  0  0
    5.9882    1.5682   22.5307 O   0  0  0  0  0  0  0  0  0  0  0  0
    3.2314    2.7511   21.3310 H   0  0  0  0  0  0  0  0  0  0  0  0
    4.9430    3.5649   23.2768 C   0  0  0  0  0  0  0  0  0  0  0  0
    3.4785    4.0159   23.2158 C   0  0  0  0  0  0  0  0  0  0  0  0
    5.8697    4.5532   22.8470 N   0  0  0  0  0  0  0  0  0  0  0  0
    6.0965    5.1846   21.6245 C   0  0  0  0  0  0  0  0  0  0  0  0
    5.4315    4.8922   20.6073 O   0  0  0  0  0  0  0  0  0  0  0  0
    6.5413    4.8988   23.6504 H   0  0  0  0  0  0  0  0  0  0  0  0
    7.1579    6.2275   21.5603 C   0  0  0  0  0  0  0  0  0  0  0  0
    8.3262    5.7848   22.4664 C   0  0  0  0  0  0  0  0  0  0  0  0
    6.6537    7.5218   22.0700 N   0  0  0  0  0  0  0  0  0  0  0  0
    6.6046    8.5571   21.0947 C   0  0  0  0  0  0  0  0  0  0  0  0
    6.9445    8.4042   19.9412 O   0  0  0  0  0  0  0  0  0  0  0  0
    6.3757    7.6348   23.0181 H   0  0  0  0  0  0  0  0  0  0  0  0
    6.0952    9.8899   21.5622 C   0  0  0  0  0  0  0  0  0  0  0  0
    5.5967   10.7241   20.3780 C   0  0  0  0  0  0  0  0  0  0  0  0
    7.1943   10.6638   22.2074 C   0  0  0  0  0  0  0  0  0  0  0  0
    8.4767   10.9889   21.5507 C   0  0  0  0  0  0  0  0  0  0  0  0
    7.0096   11.0538   23.3707 O   0  0  0  0  0  0  0  0  0  0  0  0
    5.3229    7.8773   15.8713 N   0  0  0  0  0  0  0  0  0  0  0  0
    4.3620    8.0700   16.8373 C   0  0  0  0  0  0  0  0  0  0  0  0
    4.0108    9.3189   17.0743 O   0  0  0  0  0  0  0  0  0  0  0  0
    5.6310    6.8739   15.6636 H   0  0  0  0  0  0  0  0  0  0  0  0
    5.9574    8.8987   15.0883 C   0  0  0  0  0  0  0  0  0  0  0  0
    7.4331    8.9598   15.4996 C   0  0  0  0  0  0  0  0  0  0  0  0
    5.1069    7.6124   13.0808 N   0  0  0  0  0  0  0  0  0  0  0  0
    5.8904    8.6909   13.6436 C   0  0  0  0  0  0  0  0  0  0  0  0
    6.5355    9.4885   12.9107 O   0  0  0  0  0  0  0  0  0  0  0  0
    4.6062    7.0152   13.7673 H   0  0  0  0  0  0  0  0  0  0  0  0
    5.0505    7.4349   11.6657 C   0  0  0  0  0  0  0  0  0  0  0  0
    5.6264    6.1611   11.1391 C   0  0  0  0  0  0  0  0  0  0  0  0
    3.3653    7.4349    9.8251 N   0  0  0  0  0  0  0  0  0  0  0  0
    3.6728    7.6662   11.1504 C   0  0  0  0  0  0  0  0  0  0  0  0
    2.8114    8.0767   11.9657 O   0  0  0  0  0  0  0  0  0  0  0  0
    4.0994    7.0966    9.1542 H   0  0  0  0  0  0  0  0  0  0  0  0
    1.9831    7.6367    9.2041 C   0  0  0  0  0  0  0  0  0  0  0  0
    1.3254    6.4031    9.5341 C   0  0  0  0  0  0  0  0  0  0  0  0
    1.6814    5.4589    8.6257 O   0  0  0  0  0  0  0  0  0  0  0  0
    0.4514    5.8881   10.4595 N   0  0  0  0  0  0  0  0  0  0  0  0
   -0.3508    6.4259   11.5121 C   0  0  0  0  0  0  0  0  0  0  0  0
   -1.6839    5.6918   11.4436 C   0  0  0  0  0  0  0  0  0  0  0  0
   -1.4068    4.4753   10.5981 C   0  0  0  0  0  0  0  0  0  0  0  0
    0.1111    4.4334   10.5171 C   0  0  0  0  0  0  0  0  0  0  0  0
    0.7581    3.7430   11.6341 C   0  0  0  0  0  0  0  0  0  0  0  0
    0.1784    3.7936   12.7635 O   0  0  0  0  0  0  0  0  0  0  0  0
    1.9659    3.0536   11.4490 N   0  0  0  0  0  0  0  0  0  0  0  0
    2.7426    2.9515   10.2536 C   0  0  0  0  0  0  0  0  0  0  0  0
    2.5070    2.3345   12.6233 C   0  0  0  0  0  0  0  0  0  0  0  0
    2.1519    8.3082    7.9493 C   0  0  0  0  0  0  0  0  0  0  0  0
    4.2032    9.5123    6.8846 C   0  0  0  0  0  0  0  0  0  0  0  0
    3.3818    8.3654    7.1649 C   0  0  0  0  0  0  0  0  0  0  0  0
    3.0814    7.6537    5.7882 C   0  0  0  0  0  0  0  0  0  0  0  0
 66 67  1  0  0  0
 67 68  1  0  0  0
 67 65  1  0  0  0
 65 52  1  0  0  0
 52 48  1  0  0  0
 48 49  1  0  0  0
 49 50  2  0  0  0
 49 46  1  0  0  0
 46 47  1  0  0  0
 46 42  1  0  0  0
 42 43  1  0  0  0
 43 44  2  0  0  0
 43 40  1  0  0  0
 40 41  1  0  0  0
 40 36  1  0  0  0
 36 37  1  0  0  0
 37 38  2  0  0  0
 37  1  1  0  0  0
  1  2  1  0  0  0
  1  3  1  0  0  0
  3  4  1  0  0  0
  4  5  2  0  0  0
  4  7  1  0  0  0
  7  8  1  0  0  0
  7  9  1  0  0  0
  9 10  1  0  0  0
 10 11  2  0  0  0
 10 13  1  0  0  0
 13 14  1  0  0  0
 13 15  1  0  0  0
 15 16  1  0  0  0
 16 17  2  0  0  0
 16 19  1  0  0  0
 19 20  1  0  0  0
 19 21  1  0  0  0
 21 22  1  0  0  0
 22 23  2  0  0  0
 22 25  1  0  0  0
 25 26  1  0  0  0
 25 27  1  0  0  0
 27 28  1  0  0  0
 28 29  2  0  0  0
 28 31  1  0  0  0
 31 32  1  0  0  0
 31 33  1  0  0  0
 33 34  1  0  0  0
 33 35  2  0  0  0
 52 53  1  0  0  0
 53 54  2  0  0  0
 53 55  1  0  0  0
 55 56  1  0  0  0
 56 57  1  0  0  0
 57 58  1  0  0  0
 58 59  1  0  0  0
 59 60  1  0  0  0
 60 61  2  0  0  0
 60 62  1  0  0  0
 62 63  1  0  0  0
 62 64  1  0  0  0
 59 55  1  0  0  0
 48 51  1  0  0  0
 42 45  1  0  0  0
 36 39  1  0  0  0
  3  6  1  0  0  0
  9 12  1  0  0  0
 15 18  1  0  0  0
 21 24  1  0  0  0
 27 30  1  0  0  0
M  END
> <minimizedAffinity>
-8.30427

> <CNNscore>
0.2829295099

> <CNNaffinity>
7.3760156631

> <CNN_VS>
2.0868926048

> <CNNaffinity_variance>
0.4452954829

$$$$
[H]N(C(=O)[C@@]([H])(N([H])C(=O)[C@@]([H])(N([H])C(=O)[C@@]([H])(N([H])C(=O)[C@@]([H])(C(=O)C([H])([H])[H])C([H])([H])[H])C([H])([H])[H])C([H])([H])[H])C([H])([H])[H])[C@]([H])(C(=O)N([H])[C@]([H])(C(=O)N([H])[C@]([H])(C(=O)N([H])[C@]([H])(C(=O)N([H])[C@]([H])(C(=O)N1C([H])([H])C([H])([H])C([H])([H])[C@]1([H])C(=O)N(C([H])([H])[H])C([H])([H])[H])C([H])([H])C([H])(C([H])([H])[H])C([H])([H])[H])C([H])([H])[H])C([H])([H])[H])C([H])([H])[H])C([H])([H])[H]


 68 68  0  0  0  0  0  0  0  0999 V2000
    6.1055    7.5222   10.9717 C   0  0  0  0  0  0  0  0  0  0  0  0
    7.5070    7.9432   11.5391 C   0  0  0  0  0  0  0  0  0  0  0  0
    5.8936    8.4234    9.8653 N   0  0  0  0  0  0  0  0  0  0  0  0
    5.3434    7.8887    8.6231 C   0  0  0  0  0  0  0  0  0  0  0  0
    5.0929    6.7011    8.5665 O   0  0  0  0  0  0  0  0  0  0  0  0
    6.1194    9.4138    9.9512 H   0  0  0  0  0  0  0  0  0  0  0  0
    5.1605    8.9003    7.5490 C   0  0  0  0  0  0  0  0  0  0  0  0
    3.6821    8.8354    7.0851 C   0  0  0  0  0  0  0  0  0  0  0  0
    6.0402    8.8281    6.4724 N   0  0  0  0  0  0  0  0  0  0  0  0
    6.6204    9.7952    5.6577 C   0  0  0  0  0  0  0  0  0  0  0  0
    6.5010   11.0400    5.7189 O   0  0  0  0  0  0  0  0  0  0  0  0
    6.3471    7.7909    6.2101 H   0  0  0  0  0  0  0  0  0  0  0  0
    7.5135    9.2568    4.5413 C   0  0  0  0  0  0  0  0  0  0  0  0
    6.6960    8.2491    3.7423 C   0  0  0  0  0  0  0  0  0  0  0  0
    8.6417    8.6197    5.1247 N   0  0  0  0  0  0  0  0  0  0  0  0
    9.9399    9.1020    4.8157 C   0  0  0  0  0  0  0  0  0  0  0  0
   10.0491   10.0617    4.0142 O   0  0  0  0  0  0  0  0  0  0  0  0
    8.5271    7.8148    5.7671 H   0  0  0  0  0  0  0  0  0  0  0  0
   11.1354    8.4903    5.4235 C   0  0  0  0  0  0  0  0  0  0  0  0
   11.9489    7.9153    4.2574 C   0  0  0  0  0  0  0  0  0  0  0  0
   10.7535    7.5236    6.3929 N   0  0  0  0  0  0  0  0  0  0  0  0
   11.4667    6.7681    7.3230 C   0  0  0  0  0  0  0  0  0  0  0  0
   12.7117    6.8437    7.4061 O   0  0  0  0  0  0  0  0  0  0  0  0
    9.6663    7.3418    6.4215 H   0  0  0  0  0  0  0  0  0  0  0  0
   10.7021    5.8627    8.2252 C   0  0  0  0  0  0  0  0  0  0  0  0
   11.7016    4.9095    8.9140 C   0  0  0  0  0  0  0  0  0  0  0  0
    9.7464    5.0377    7.4538 N   0  0  0  0  0  0  0  0  0  0  0  0
    8.4468    4.9546    8.0281 C   0  0  0  0  0  0  0  0  0  0  0  0
    8.1369    5.5078    9.0612 O   0  0  0  0  0  0  0  0  0  0  0  0
   10.0114    4.5901    6.6062 H   0  0  0  0  0  0  0  0  0  0  0  0
    7.4385    4.1315    7.2795 C   0  0  0  0  0  0  0  0  0  0  0  0
    7.9799    2.7234    7.0136 C   0  0  0  0  0  0  0  0  0  0  0  0
    7.1557    4.7467    5.9510 C   0  0  0  0  0  0  0  0  0  0  0  0
    7.0327    3.9837    4.6924 C   0  0  0  0  0  0  0  0  0  0  0  0
    7.0177    5.9792    5.9118 O   0  0  0  0  0  0  0  0  0  0  0  0
    5.2460    8.1096   13.3331 N   0  0  0  0  0  0  0  0  0  0  0  0
    5.1035    7.8027   11.9992 C   0  0  0  0  0  0  0  0  0  0  0  0
    3.8688    7.7467   11.5390 O   0  0  0  0  0  0  0  0  0  0  0  0
    6.2370    8.1553   13.7340 H   0  0  0  0  0  0  0  0  0  0  0  0
    4.1861    8.3939   14.2576 C   0  0  0  0  0  0  0  0  0  0  0  0
    3.1655    7.2531   14.1702 C   0  0  0  0  0  0  0  0  0  0  0  0
    3.6742    8.9289   16.6783 N   0  0  0  0  0  0  0  0  0  0  0  0
    4.6093    8.5273   15.6497 C   0  0  0  0  0  0  0  0  0  0  0  0
    5.8150    8.2746   15.9178 O   0  0  0  0  0  0  0  0  0  0  0  0
    2.7026    9.1069   16.3574 H   0  0  0  0  0  0  0  0  0  0  0  0
    4.1098    9.0442   18.0326 C   0  0  0  0  0  0  0  0  0  0  0  0
    3.2617    9.8888   18.9266 C   0  0  0  0  0  0  0  0  0  0  0  0
    3.5054    6.6514   18.4018 N   0  0  0  0  0  0  0  0  0  0  0  0
    4.3676    7.7046   18.6292 C   0  0  0  0  0  0  0  0  0  0  0  0
    5.3932    7.5758   19.3412 O   0  0  0  0  0  0  0  0  0  0  0  0
    2.6481    6.7771   17.8078 H   0  0  0  0  0  0  0  0  0  0  0  0
    3.6863    5.2413   18.9637 C   0  0  0  0  0  0  0  0  0  0  0  0
    3.1076    4.4314   17.9281 C   0  0  0  0  0  0  0  0  0  0  0  0
    1.8817    4.9256   17.6175 O   0  0  0  0  0  0  0  0  0  0  0  0
    3.3946    3.3217   17.1721 N   0  0  0  0  0  0  0  0  0  0  0  0
    4.4229    2.3301   17.1686 C   0  0  0  0  0  0  0  0  0  0  0  0
    3.7276    1.0023   16.8962 C   0  0  0  0  0  0  0  0  0  0  0  0
    2.3762    1.3842   16.3490 C   0  0  0  0  0  0  0  0  0  0  0  0
    2.5174    2.8684   16.0495 C   0  0  0  0  0  0  0  0  0  0  0  0
    3.0804    3.1692   14.7322 C   0  0  0  0  0  0  0  0  0  0  0  0
    4.1876    3.7916   14.7011 O   0  0  0  0  0  0  0  0  0  0  0  0
    2.4161    2.7758   13.5608 N   0  0  0  0  0  0  0  0  0  0  0  0
    1.1547    2.1132   13.4490 C   0  0  0  0  0  0  0  0  0  0  0  0
    3.0969    3.0691   12.2805 C   0  0  0  0  0  0  0  0  0  0  0  0
    3.4360    5.2879   20.3741 C   0  0  0  0  0  0  0  0  0  0  0  0
    4.8597    5.2761   22.5569 C   0  0  0  0  0  0  0  0  0  0  0  0
    4.2476    4.6581   21.4113 C   0  0  0  0  0  0  0  0  0  0  0  0
    5.3651    3.8214   20.6745 C   0  0  0  0  0  0  0  0  0  0  0  0
 66 67  1  0  0  0
 67 68  1  0  0  0
 67 65  1  0  0  0
 65 52  1  0  0  0
 52 48  1  0  0  0
 48 49  1  0  0  0
 49 50  2  0  0  0
 49 46  1  0  0  0
 46 47  1  0  0  0
 46 42  1  0  0  0
 42 43  1  0  0  0
 43 44  2  0  0  0
 43 40  1  0  0  0
 40 41  1  0  0  0
 40 36  1  0  0  0
 36 37  1  0  0  0
 37 38  2  0  0  0
 37  1  1  0  0  0
  1  2  1  0  0  0
  1  3  1  0  0  0
  3  4  1  0  0  0
  4  5  2  0  0  0
  4  7  1  0  0  0
  7  8  1  0  0  0
  7  9  1  0  0  0
  9 10  1  0  0  0
 10 11  2  0  0  0
 10 13  1  0  0  0
 13 14  1  0  0  0
 13 15  1  0  0  0
 15 16  1  0  0  0
 16 17  2  0  0  0
 16 19  1  0  0  0
 19 20  1  0  0  0
 19 21  1  0  0  0
 21 22  1  0  0  0
 22 23  2  0  0  0
 22 25  1  0  0  0
 25 26  1  0  0  0
 25 27  1  0  0  0
 27 28  1  0  0  0
 28 29  2  0  0  0
 28 31  1  0  0  0
 31 32  1  0  0  0
 31 33  1  0  0  0
 33 34  1  0  0  0
 33 35  2  0  0  0
 52 53  1  0  0  0
 53 54  2  0  0  0
 53 55  1  0  0  0
 55 56  1  0  0  0
 56 57  1  0  0  0
 57 58  1  0  0  0
 58 59  1  0  0  0
 59 60  1  0  0  0
 60 61  2  0  0  0
 60 62  1  0  0  0
 62 63  1  0  0  0
 62 64  1  0  0  0
 59 55  1  0  0  0
 48 51  1  0  0  0
 42 45  1  0  0  0
 36 39  1  0  0  0
  3  6  1  0  0  0
  9 12  1  0  0  0
 15 18  1  0  0  0
 21 24  1  0  0  0
 27 30  1  0  0  0
M  END
> <minimizedAffinity>
-8.43724

> <CNNscore>
0.2781143785

> <CNNaffinity>
6.8002829552

> <CNN_VS>
1.8912564516

> <CNNaffinity_variance>
0.2244273126

$$$$
[H]N(C(=O)[C@@]([H])(N([H])C(=O)[C@@]([H])(N([H])C(=O)[C@@]([H])(N([H])C(=O)[C@@]([H])(C(=O)C([H])([H])[H])C([H])([H])[H])C([H])([H])[H])C([H])([H])[H])C([H])([H])[H])[C@]([H])(C(=O)N([H])[C@]([H])(C(=O)N([H])[C@]([H])(C(=O)N([H])[C@]([H])(C(=O)N([H])[C@]([H])(C(=O)N1C([H])([H])C([H])([H])C([H])([H])[C@]1([H])C(=O)N(C([H])([H])[H])C([H])([H])[H])C([H])([H])C([H])(C([H])([H])[H])C([H])([H])[H])C([H])([H])[H])C([H])([H])[H])C([H])([H])[H])C([H])([H])[H]


 68 68  0  0  0  0  0  0  0  0999 V2000
    2.3871    5.3057   15.5257 C   0  0  0  0  0  0  0  0  0  0  0  0
    3.4276    6.3917   15.0769 C   0  0  0  0  0  0  0  0  0  0  0  0
    3.1912    4.1322   15.7656 N   0  0  0  0  0  0  0  0  0  0  0  0
    3.4678    3.7440   17.1456 C   0  0  0  0  0  0  0  0  0  0  0  0
    3.0162    4.4309   18.0404 O   0  0  0  0  0  0  0  0  0  0  0  0
    3.5547    3.5833   14.9873 H   0  0  0  0  0  0  0  0  0  0  0  0
    4.3004    2.5198   17.2822 C   0  0  0  0  0  0  0  0  0  0  0  0
    3.7172    1.4428   16.3309 C   0  0  0  0  0  0  0  0  0  0  0  0
    4.4716    2.0267   18.5727 N   0  0  0  0  0  0  0  0  0  0  0  0
    3.7947    1.0649   19.3161 C   0  0  0  0  0  0  0  0  0  0  0  0
    2.8252    0.3520   18.9701 O   0  0  0  0  0  0  0  0  0  0  0  0
    5.3221    2.4884   19.1223 H   0  0  0  0  0  0  0  0  0  0  0  0
    4.3050    0.8645   20.7419 C   0  0  0  0  0  0  0  0  0  0  0  0
    3.5028   -0.2724   21.3634 C   0  0  0  0  0  0  0  0  0  0  0  0
    4.1011    2.0651   21.4740 N   0  0  0  0  0  0  0  0  0  0  0  0
    5.1001    2.4922   22.3867 C   0  0  0  0  0  0  0  0  0  0  0  0
    6.1218    1.7785   22.5361 O   0  0  0  0  0  0  0  0  0  0  0  0
    3.2389    2.6264   21.3492 H   0  0  0  0  0  0  0  0  0  0  0  0
    4.9428    3.7476   23.1429 C   0  0  0  0  0  0  0  0  0  0  0  0
    3.4361    4.0326   23.1707 C   0  0  0  0  0  0  0  0  0  0  0  0
    5.7148    4.7808   22.5455 N   0  0  0  0  0  0  0  0  0  0  0  0
    5.9167    5.1826   21.2256 C   0  0  0  0  0  0  0  0  0  0  0  0
    5.3861    4.5742   20.2712 O   0  0  0  0  0  0  0  0  0  0  0  0
    6.2580    5.3983   23.2800 H   0  0  0  0  0  0  0  0  0  0  0  0
    6.7857    6.3667   20.9782 C   0  0  0  0  0  0  0  0  0  0  0  0
    7.6592    6.5954   22.2299 C   0  0  0  0  0  0  0  0  0  0  0  0
    5.9688    7.5821   20.7668 N   0  0  0  0  0  0  0  0  0  0  0  0
    6.2700    8.2901   19.5694 C   0  0  0  0  0  0  0  0  0  0  0  0
    7.1214    7.9377   18.7818 O   0  0  0  0  0  0  0  0  0  0  0  0
    5.2716    7.8603   21.4191 H   0  0  0  0  0  0  0  0  0  0  0  0
    5.4642    9.5295   19.3071 C   0  0  0  0  0  0  0  0  0  0  0  0
    5.4200   10.4197   20.5531 C   0  0  0  0  0  0  0  0  0  0  0  0
    4.0549    9.1681   18.9807 C   0  0  0  0  0  0  0  0  0  0  0  0
    2.9954   10.1509   18.6758 C   0  0  0  0  0  0  0  0  0  0  0  0
    3.7645    7.9619   18.9683 O   0  0  0  0  0  0  0  0  0  0  0  0
    0.6645    5.8763   13.6908 N   0  0  0  0  0  0  0  0  0  0  0  0
    1.5009    5.0393   14.3933 C   0  0  0  0  0  0  0  0  0  0  0  0
    1.5332    3.7799   14.0032 O   0  0  0  0  0  0  0  0  0  0  0  0
    0.6143    6.9022   13.9905 H   0  0  0  0  0  0  0  0  0  0  0  0
   -0.1527    5.5145   12.5682 C   0  0  0  0  0  0  0  0  0  0  0  0
   -1.3934    6.4152   12.5782 C   0  0  0  0  0  0  0  0  0  0  0  0
    0.1622    6.7281   10.3691 N   0  0  0  0  0  0  0  0  0  0  0  0
    0.5017    5.6467   11.2686 C   0  0  0  0  0  0  0  0  0  0  0  0
    1.3735    4.7876   10.9663 O   0  0  0  0  0  0  0  0  0  0  0  0
   -0.5624    7.3878   10.7132 H   0  0  0  0  0  0  0  0  0  0  0  0
    0.8214    6.8406    9.1082 C   0  0  0  0  0  0  0  0  0  0  0  0
    0.0476    7.5085    8.0187 C   0  0  0  0  0  0  0  0  0  0  0  0
    3.3056    6.6464    9.2442 N   0  0  0  0  0  0  0  0  0  0  0  0
    2.1761    7.4391    9.2625 C   0  0  0  0  0  0  0  0  0  0  0  0
    2.2457    8.6837    9.4086 O   0  0  0  0  0  0  0  0  0  0  0  0
    3.2298    5.6053    9.1265 H   0  0  0  0  0  0  0  0  0  0  0  0
    4.7361    7.1659    9.3887 C   0  0  0  0  0  0  0  0  0  0  0  0
    5.1086    7.3971    8.0209 C   0  0  0  0  0  0  0  0  0  0  0  0
    5.5404    6.2290    7.4798 O   0  0  0  0  0  0  0  0  0  0  0  0
    5.1766    8.4167    7.1038 N   0  0  0  0  0  0  0  0  0  0  0  0
    5.0126    9.8352    7.1442 C   0  0  0  0  0  0  0  0  0  0  0  0
    6.1051   10.4117    6.2526 C   0  0  0  0  0  0  0  0  0  0  0  0
    6.5771    9.2447    5.4240 C   0  0  0  0  0  0  0  0  0  0  0  0
    5.5181    8.1808    5.6675 C   0  0  0  0  0  0  0  0  0  0  0  0
    4.3538    8.2726    4.7849 C   0  0  0  0  0  0  0  0  0  0  0  0
    3.2626    8.6693    5.3007 O   0  0  0  0  0  0  0  0  0  0  0  0
    4.4549    7.9378    3.4262 N   0  0  0  0  0  0  0  0  0  0  0  0
    5.5993    7.4410    2.7287 C   0  0  0  0  0  0  0  0  0  0  0  0
    3.2395    8.1247    2.6037 C   0  0  0  0  0  0  0  0  0  0  0  0
    5.3798    6.4162   10.4268 C   0  0  0  0  0  0  0  0  0  0  0  0
    4.6590    4.5654   12.1140 C   0  0  0  0  0  0  0  0  0  0  0  0
    5.0622    5.0466   10.8198 C   0  0  0  0  0  0  0  0  0  0  0  0
    6.2592    4.1402   10.3325 C   0  0  0  0  0  0  0  0  0  0  0  0
 66 67  1  0  0  0
 67 68  1  0  0  0
 67 65  1  0  0  0
 65 52  1  0  0  0
 52 48  1  0  0  0
 48 49  1  0  0  0
 49 50  2  0  0  0
 49 46  1  0  0  0
 46 47  1  0  0  0
 46 42  1  0  0  0
 42 43  1  0  0  0
 43 44  2  0  0  0
 43 40  1  0  0  0
 40 41  1  0  0  0
 40 36  1  0  0  0
 36 37  1  0  0  0
 37 38  2  0  0  0
 37  1  1  0  0  0
  1  2  1  0  0  0
  1  3  1  0  0  0
  3  4  1  0  0  0
  4  5  2  0  0  0
  4  7  1  0  0  0
  7  8  1  0  0  0
  7  9  1  0  0  0
  9 10  1  0  0  0
 10 11  2  0  0  0
 10 13  1  0  0  0
 13 14  1  0  0  0
 13 15  1  0  0  0
 15 16  1  0  0  0
 16 17  2  0  0  0
 16 19  1  0  0  0
 19 20  1  0  0  0
 19 21  1  0  0  0
 21 22  1  0  0  0
 22 23  2  0  0  0
 22 25  1  0  0  0
 25 26  1  0  0  0
 25 27  1  0  0  0
 27 28  1  0  0  0
 28 29  2  0  0  0
 28 31  1  0  0  0
 31 32  1  0  0  0
 31 33  1  0  0  0
 33 34  1  0  0  0
 33 35  2  0  0  0
 52 53  1  0  0  0
 53 54  2  0  0  0
 53 55  1  0  0  0
 55 56  1  0  0  0
 56 57  1  0  0  0
 57 58  1  0  0  0
 58 59  1  0  0  0
 59 60  1  0  0  0
 60 61  2  0  0  0
 60 62  1  0  0  0
 62 63  1  0  0  0
 62 64  1  0  0  0
 59 55  1  0  0  0
 48 51  1  0  0  0
 42 45  1  0  0  0
 36 39  1  0  0  0
  3  6  1  0  0  0
  9 12  1  0  0  0
 15 18  1  0  0  0
 21 24  1  0  0  0
 27 30  1  0  0  0
M  END
> <minimizedAffinity>
-8.43752

> <CNNscore>
0.2627730370

> <CNNaffinity>
6.8863182068

> <CNN_VS>
1.8095387220

> <CNNaffinity_variance>
0.4908364713

$$$$
[H]N(C(=O)[C@@]([H])(N([H])C(=O)[C@@]([H])(N([H])C(=O)[C@@]([H])(N([H])C(=O)[C@@]([H])(C(=O)C([H])([H])[H])C([H])([H])[H])C([H])([H])[H])C([H])([H])[H])C([H])([H])[H])[C@]([H])(C(=O)N([H])[C@]([H])(C(=O)N([H])[C@]([H])(C(=O)N([H])[C@]([H])(C(=O)N([H])[C@]([H])(C(=O)N1C([H])([H])C([H])([H])C([H])([H])[C@]1([H])C(=O)N(C([H])([H])[H])C([H])([H])[H])C([H])([H])C([H])(C([H])([H])[H])C([H])([H])[H])C([H])([H])[H])C([H])([H])[H])C([H])([H])[H])C([H])([H])[H]


 68 68  0  0  0  0  0  0  0  0999 V2000
    3.0161    1.0035   17.6085 C   0  0  0  0  0  0  0  0  0  0  0  0
    3.2089   -0.3787   16.8903 C   0  0  0  0  0  0  0  0  0  0  0  0
    3.8969    1.8933   16.8918 N   0  0  0  0  0  0  0  0  0  0  0  0
    3.5375    3.3050   16.7948 C   0  0  0  0  0  0  0  0  0  0  0  0
    2.5037    3.6748   17.3152 O   0  0  0  0  0  0  0  0  0  0  0  0
    4.7546    1.5438   16.4659 H   0  0  0  0  0  0  0  0  0  0  0  0
    4.5133    4.1350   16.0402 C   0  0  0  0  0  0  0  0  0  0  0  0
    4.7055    5.4630   16.8177 C   0  0  0  0  0  0  0  0  0  0  0  0
    4.2261    4.3630   14.6973 N   0  0  0  0  0  0  0  0  0  0  0  0
    3.0947    4.1372   13.9196 C   0  0  0  0  0  0  0  0  0  0  0  0
    1.9882    3.6684   14.2709 O   0  0  0  0  0  0  0  0  0  0  0  0
    5.0655    4.8222   14.1287 H   0  0  0  0  0  0  0  0  0  0  0  0
    3.2334    4.5071   12.4439 C   0  0  0  0  0  0  0  0  0  0  0  0
    4.6320    4.1004   11.9960 C   0  0  0  0  0  0  0  0  0  0  0  0
    3.0638    5.9111   12.3061 N   0  0  0  0  0  0  0  0  0  0  0  0
    2.2079    6.4037   11.2872 C   0  0  0  0  0  0  0  0  0  0  0  0
    1.6481    5.5803   10.5229 O   0  0  0  0  0  0  0  0  0  0  0  0
    3.5539    6.5722   12.9359 H   0  0  0  0  0  0  0  0  0  0  0  0
    1.9794    7.8514   11.1296 C   0  0  0  0  0  0  0  0  0  0  0  0
    2.3114    8.1697    9.6666 C   0  0  0  0  0  0  0  0  0  0  0  0
    2.7602    8.5770   12.0698 N   0  0  0  0  0  0  0  0  0  0  0  0
    2.6558    8.7806   13.4454 C   0  0  0  0  0  0  0  0  0  0  0  0
    1.7084    8.3007   14.1047 O   0  0  0  0  0  0  0  0  0  0  0  0
    3.6354    9.0729   11.6183 H   0  0  0  0  0  0  0  0  0  0  0  0
    3.7116    9.5886   14.1167 C   0  0  0  0  0  0  0  0  0  0  0  0
    4.6332    8.6275   14.8970 C   0  0  0  0  0  0  0  0  0  0  0  0
    3.1133   10.5315   15.0875 N   0  0  0  0  0  0  0  0  0  0  0  0
    3.6579   11.8455   15.0407 C   0  0  0  0  0  0  0  0  0  0  0  0
    4.5378   12.1766   14.2754 O   0  0  0  0  0  0  0  0  0  0  0  0
    2.3903   10.2490   15.7092 H   0  0  0  0  0  0  0  0  0  0  0  0
    3.0800   12.8414   16.0044 C   0  0  0  0  0  0  0  0  0  0  0  0
    2.5270   12.1346   17.2459 C   0  0  0  0  0  0  0  0  0  0  0  0
    1.9406   13.5673   15.3734 C   0  0  0  0  0  0  0  0  0  0  0  0
    1.7295   15.0259   15.4712 C   0  0  0  0  0  0  0  0  0  0  0  0
    1.1229   12.8929   14.7283 O   0  0  0  0  0  0  0  0  0  0  0  0
    4.6837    1.2833   19.5581 N   0  0  0  0  0  0  0  0  0  0  0  0
    3.5061    0.8680   18.9797 C   0  0  0  0  0  0  0  0  0  0  0  0
    2.6543    0.2417   19.7681 O   0  0  0  0  0  0  0  0  0  0  0  0
    5.3954    1.7885   18.9393 H   0  0  0  0  0  0  0  0  0  0  0  0
    5.0589    1.1194   20.9334 C   0  0  0  0  0  0  0  0  0  0  0  0
    6.4610    0.5000   20.9690 C   0  0  0  0  0  0  0  0  0  0  0  0
    4.2329    3.4737   21.3610 N   0  0  0  0  0  0  0  0  0  0  0  0
    5.0818    2.3557   21.7117 C   0  0  0  0  0  0  0  0  0  0  0  0
    5.8637    2.4067   22.6995 O   0  0  0  0  0  0  0  0  0  0  0  0
    3.6193    3.3301   20.5354 H   0  0  0  0  0  0  0  0  0  0  0  0
    4.2673    4.6680   22.1419 C   0  0  0  0  0  0  0  0  0  0  0  0
    3.9993    4.5066   23.6026 C   0  0  0  0  0  0  0  0  0  0  0  0
    6.0838    6.2055   22.8929 N   0  0  0  0  0  0  0  0  0  0  0  0
    5.5211    5.4329   21.8974 C   0  0  0  0  0  0  0  0  0  0  0  0
    6.0393    5.3457   20.7575 O   0  0  0  0  0  0  0  0  0  0  0  0
    5.6344    6.2722   23.8401 H   0  0  0  0  0  0  0  0  0  0  0  0
    7.3682    7.0204   22.7414 C   0  0  0  0  0  0  0  0  0  0  0  0
    6.9462    8.0822   21.8708 C   0  0  0  0  0  0  0  0  0  0  0  0
    6.0405    8.8533   22.5255 O   0  0  0  0  0  0  0  0  0  0  0  0
    7.1580    8.5493   20.5971 N   0  0  0  0  0  0  0  0  0  0  0  0
    7.8516    8.0765   19.4412 C   0  0  0  0  0  0  0  0  0  0  0  0
    6.9590    8.4030   18.2507 C   0  0  0  0  0  0  0  0  0  0  0  0
    5.9815    9.4235   18.7750 C   0  0  0  0  0  0  0  0  0  0  0  0
    6.5789    9.8389   20.1103 C   0  0  0  0  0  0  0  0  0  0  0  0
    7.5729   10.9099   20.0217 C   0  0  0  0  0  0  0  0  0  0  0  0
    8.1377   11.0878   18.8976 O   0  0  0  0  0  0  0  0  0  0  0  0
    7.8756   11.7024   21.1390 N   0  0  0  0  0  0  0  0  0  0  0  0
    7.3524   11.5860   22.4639 C   0  0  0  0  0  0  0  0  0  0  0  0
    8.8461   12.7997   20.9319 C   0  0  0  0  0  0  0  0  0  0  0  0
    8.4678    6.1061   22.6479 C   0  0  0  0  0  0  0  0  0  0  0  0
   11.0357    5.9703   22.2247 C   0  0  0  0  0  0  0  0  0  0  0  0
    9.8660    6.4127   22.9352 C   0  0  0  0  0  0  0  0  0  0  0  0
   10.0988    6.1018   24.4652 C   0  0  0  0  0  0  0  0  0  0  0  0
 66 67  1  0  0  0
 67 68  1  0  0  0
 67 65  1  0  0  0
 65 52  1  0  0  0
 52 48  1  0  0  0
 48 49  1  0  0  0
 49 50  2  0  0  0
 49 46  1  0  0  0
 46 47  1  0  0  0
 46 42  1  0  0  0
 42 43  1  0  0  0
 43 44  2  0  0  0
 43 40  1  0  0  0
 40 41  1  0  0  0
 40 36  1  0  0  0
 36 37  1  0  0  0
 37 38  2  0  0  0
 37  1  1  0  0  0
  1  2  1  0  0  0
  1  3  1  0  0  0
  3  4  1  0  0  0
  4  5  2  0  0  0
  4  7  1  0  0  0
  7  8  1  0  0  0
  7  9  1  0  0  0
  9 10  1  0  0  0
 10 11  2  0  0  0
 10 13  1  0  0  0
 13 14  1  0  0  0
 13 15  1  0  0  0
 15 16  1  0  0  0
 16 17  2  0  0  0
 16 19  1  0  0  0
 19 20  1  0  0  0
 19 21  1  0  0  0
 21 22  1  0  0  0
 22 23  2  0  0  0
 22 25  1  0  0  0
 25 26  1  0  0  0
 25 27  1  0  0  0
 27 28  1  0  0  0
 28 29  2  0  0  0
 28 31  1  0  0  0
 31 32  1  0  0  0
 31 33  1  0  0  0
 33 34  1  0  0  0
 33 35  2  0  0  0
 52 53  1  0  0  0
 53 54  2  0  0  0
 53 55  1  0  0  0
 55 56  1  0  0  0
 56 57  1  0  0  0
 57 58  1  0  0  0
 58 59  1  0  0  0
 59 60  1  0  0  0
 60 61  2  0  0  0
 60 62  1  0  0  0
 62 63  1  0  0  0
 62 64  1  0  0  0
 59 55  1  0  0  0
 48 51  1  0  0  0
 42 45  1  0  0  0
 36 39  1  0  0  0
  3  6  1  0  0  0
  9 12  1  0  0  0
 15 18  1  0  0  0
 21 24  1  0  0  0
 27 30  1  0  0  0
M  END
> <minimizedAffinity>
-8.93253

> <CNNscore>
0.2551857233

> <CNNaffinity>
7.4159574509

> <CNN_VS>
1.8924465179

> <CNNaffinity_variance>
0.5382974744

$$$$
[H]N(C(=O)[C@@]([H])(N([H])C(=O)[C@@]([H])(N([H])C(=O)[C@@]([H])(N([H])C(=O)[C@@]([H])(C(=O)C([H])([H])[H])C([H])([H])[H])C([H])([H])[H])C([H])([H])[H])C([H])([H])[H])[C@]([H])(C(=O)N([H])[C@]([H])(C(=O)N([H])[C@]([H])(C(=O)N([H])[C@]([H])(C(=O)N([H])[C@]([H])(C(=O)N1C([H])([H])C([H])([H])C([H])([H])[C@]1([H])C(=O)N(C([H])([H])[H])C([H])([H])[H])C([H])([H])C([H])(C([H])([H])[H])C([H])([H])[H])C([H])([H])[H])C([H])([H])[H])C([H])([H])[H])C([H])([H])[H]


 68 68  0  0  0  0  0  0  0  0999 V2000
    4.6632    9.7503   14.7889 C   0  0  0  0  0  0  0  0  0  0  0  0
    5.9831    8.9082   14.8995 C   0  0  0  0  0  0  0  0  0  0  0  0
    4.2456    9.9232   16.1589 N   0  0  0  0  0  0  0  0  0  0  0  0
    4.3543   11.2486   16.7613 C   0  0  0  0  0  0  0  0  0  0  0  0
    4.8015   12.1548   16.0866 O   0  0  0  0  0  0  0  0  0  0  0  0
    3.8780    9.1367   16.6933 H   0  0  0  0  0  0  0  0  0  0  0  0
    3.8939   11.3192   18.1733 C   0  0  0  0  0  0  0  0  0  0  0  0
    2.7669   10.2697   18.3561 C   0  0  0  0  0  0  0  0  0  0  0  0
    3.5081   12.5734   18.6381 N   0  0  0  0  0  0  0  0  0  0  0  0
    4.0731   13.4600   19.5495 C   0  0  0  0  0  0  0  0  0  0  0  0
    5.1428   13.3438   20.1896 O   0  0  0  0  0  0  0  0  0  0  0  0
    2.5606   12.9479   18.1904 H   0  0  0  0  0  0  0  0  0  0  0  0
    3.2721   14.7367   19.7993 C   0  0  0  0  0  0  0  0  0  0  0  0
    3.1021   15.4439   18.4602 C   0  0  0  0  0  0  0  0  0  0  0  0
    3.9964   15.5624   20.7008 N   0  0  0  0  0  0  0  0  0  0  0  0
    3.4509   15.8227   21.9845 C   0  0  0  0  0  0  0  0  0  0  0  0
    2.3308   15.3344   22.2715 O   0  0  0  0  0  0  0  0  0  0  0  0
    4.9098   15.9720   20.4329 H   0  0  0  0  0  0  0  0  0  0  0  0
    4.1838   16.6481   22.9615 C   0  0  0  0  0  0  0  0  0  0  0  0
    4.4923   17.9684   22.2448 C   0  0  0  0  0  0  0  0  0  0  0  0
    5.3380   15.9570   23.4204 N   0  0  0  0  0  0  0  0  0  0  0  0
    6.5349   15.5835   22.8103 C   0  0  0  0  0  0  0  0  0  0  0  0
    6.7533   15.8240   21.6032 O   0  0  0  0  0  0  0  0  0  0  0  0
    5.2772   15.6654   24.4821 H   0  0  0  0  0  0  0  0  0  0  0  0
    7.5574   14.8873   23.6398 C   0  0  0  0  0  0  0  0  0  0  0  0
    8.8228   15.7696   23.6888 C   0  0  0  0  0  0  0  0  0  0  0  0
    7.9315   13.5908   23.0330 N   0  0  0  0  0  0  0  0  0  0  0  0
    8.0963   12.5312   23.9688 C   0  0  0  0  0  0  0  0  0  0  0  0
    7.9462   12.6667   25.1640 O   0  0  0  0  0  0  0  0  0  0  0  0
    8.0500   13.4910   22.0506 H   0  0  0  0  0  0  0  0  0  0  0  0
    8.4721   11.1928   23.4012 C   0  0  0  0  0  0  0  0  0  0  0  0
    9.6953   11.3170   22.4873 C   0  0  0  0  0  0  0  0  0  0  0  0
    7.3587   10.6563   22.5670 C   0  0  0  0  0  0  0  0  0  0  0  0
    6.4351    9.5892   23.0027 C   0  0  0  0  0  0  0  0  0  0  0  0
    7.2083   11.1438   21.4360 O   0  0  0  0  0  0  0  0  0  0  0  0
    2.3031    8.8488   14.2624 N   0  0  0  0  0  0  0  0  0  0  0  0
    3.6667    8.9328   14.0980 C   0  0  0  0  0  0  0  0  0  0  0  0
    4.1939    8.1608   13.1676 O   0  0  0  0  0  0  0  0  0  0  0  0
    1.8502    9.4598   15.0150 H   0  0  0  0  0  0  0  0  0  0  0  0
    1.4054    8.0226   13.5071 C   0  0  0  0  0  0  0  0  0  0  0  0
    1.6528    8.2954   12.0188 C   0  0  0  0  0  0  0  0  0  0  0  0
    2.6385    6.0707   14.5450 N   0  0  0  0  0  0  0  0  0  0  0  0
    1.5511    6.5881   13.7427 C   0  0  0  0  0  0  0  0  0  0  0  0
    0.6924    5.8235   13.2254 O   0  0  0  0  0  0  0  0  0  0  0  0
    3.2883    6.7819   14.9329 H   0  0  0  0  0  0  0  0  0  0  0  0
    2.7548    4.6656   14.7676 C   0  0  0  0  0  0  0  0  0  0  0  0
    3.8775    3.9785   14.0613 C   0  0  0  0  0  0  0  0  0  0  0  0
    3.6573    3.4578   16.7561 N   0  0  0  0  0  0  0  0  0  0  0  0
    2.7503    4.3508   16.2229 C   0  0  0  0  0  0  0  0  0  0  0  0
    1.8941    4.9272   16.9371 O   0  0  0  0  0  0  0  0  0  0  0  0
    4.3642    2.9795   16.1436 H   0  0  0  0  0  0  0  0  0  0  0  0
    3.7358    3.0745   18.2339 C   0  0  0  0  0  0  0  0  0  0  0  0
    4.7165    3.9995   18.7297 C   0  0  0  0  0  0  0  0  0  0  0  0
    5.9288    3.6737   18.2123 O   0  0  0  0  0  0  0  0  0  0  0  0
    4.8150    5.0875   19.5615 N   0  0  0  0  0  0  0  0  0  0  0  0
    3.9398    5.7566   20.4709 C   0  0  0  0  0  0  0  0  0  0  0  0
    4.7857    6.1100   21.6876 C   0  0  0  0  0  0  0  0  0  0  0  0
    6.2103    5.9776   21.2137 C   0  0  0  0  0  0  0  0  0  0  0  0
    6.0771    5.8766   19.7022 C   0  0  0  0  0  0  0  0  0  0  0  0
    6.0199    7.1664   19.0121 C   0  0  0  0  0  0  0  0  0  0  0  0
    4.9494    7.4449   18.3872 O   0  0  0  0  0  0  0  0  0  0  0  0
    7.1084    8.0507   19.0522 N   0  0  0  0  0  0  0  0  0  0  0  0
    8.3785    7.8497   19.6760 C   0  0  0  0  0  0  0  0  0  0  0  0
    6.9295    9.3554   18.3780 C   0  0  0  0  0  0  0  0  0  0  0  0
    3.6542    1.6469   18.3291 C   0  0  0  0  0  0  0  0  0  0  0  0
    2.6499    1.0227   16.0067 C   0  0  0  0  0  0  0  0  0  0  0  0
    3.3320    0.7308   17.2390 C   0  0  0  0  0  0  0  0  0  0  0  0
    2.6196   -0.5203   17.8864 C   0  0  0  0  0  0  0  0  0  0  0  0
 66 67  1  0  0  0
 67 68  1  0  0  0
 67 65  1  0  0  0
 65 52  1  0  0  0
 52 48  1  0  0  0
 48 49  1  0  0  0
 49 50  2  0  0  0
 49 46  1  0  0  0
 46 47  1  0  0  0
 46 42  1  0  0  0
 42 43  1  0  0  0
 43 44  2  0  0  0
 43 40  1  0  0  0
 40 41  1  0  0  0
 40 36  1  0  0  0
 36 37  1  0  0  0
 37 38  2  0  0  0
 37  1  1  0  0  0
  1  2  1  0  0  0
  1  3  1  0  0  0
  3  4  1  0  0  0
  4  5  2  0  0  0
  4  7  1  0  0  0
  7  8  1  0  0  0
  7  9  1  0  0  0
  9 10  1  0  0  0
 10 11  2  0  0  0
 10 13  1  0  0  0
 13 14  1  0  0  0
 13 15  1  0  0  0
 15 16  1  0  0  0
 16 17  2  0  0  0
 16 19  1  0  0  0
 19 20  1  0  0  0
 19 21  1  0  0  0
 21 22  1  0  0  0
 22 23  2  0  0  0
 22 25  1  0  0  0
 25 26  1  0  0  0
 25 27  1  0  0  0
 27 28  1  0  0  0
 28 29  2  0  0  0
 28 31  1  0  0  0
 31 32  1  0  0  0
 31 33  1  0  0  0
 33 34  1  0  0  0
 33 35  2  0  0  0
 52 53  1  0  0  0
 53 54  2  0  0  0
 53 55  1  0  0  0
 55 56  1  0  0  0
 56 57  1  0  0  0
 57 58  1  0  0  0
 58 59  1  0  0  0
 59 60  1  0  0  0
 60 61  2  0  0  0
 60 62  1  0  0  0
 62 63  1  0  0  0
 62 64  1  0  0  0
 59 55  1  0  0  0
 48 51  1  0  0  0
 42 45  1  0  0  0
 36 39  1  0  0  0
  3  6  1  0  0  0
  9 12  1  0  0  0
 15 18  1  0  0  0
 21 24  1  0  0  0
 27 30  1  0  0  0
M  END
> <minimizedAffinity>
-8.44427

> <CNNscore>
0.2529021800

> <CNNaffinity>
6.8935647011

> <CNN_VS>
1.7433975935

> <CNNaffinity_variance>
0.2789170146

$$$$
[H]N(C(=O)[C@]([H])(C(=O)C([H])([H])[H])C([H])([H])[H])[C@]([H])(C(=O)N([H])[C@]([H])(C(=O)N([H])[C@]([H])(C(=O)N([H])[C@]([H])(C(=O)N([H])[C@]([H])(C(=O)N([H])[C@]([H])(C(=O)N([H])[C@]([H])(C(=O)N([H])[C@]([H])(C(=O)N1C([H])([H])C([H])([H])C([H])([H])[C@]1([H])C(=O)N(C([H])([H])[H])C([H])([H])[H])C([H])([H])C([H])(C([H])([H])[H])C([H])([H])[H])C([H])([H])[H])C([H])([H])[H])C([H])([H])[H])C([H])([H])[H])C([H])([H])[H])C([H])([H])[H])C([H])([H])[H]


 68 68  0  0  0  0  0  0  0  0999 V2000
    4.3407    9.7762   15.2764 C   0  0  0  0  0  0  0  0  0  0  0  0
    3.3488    9.2398   14.2479 C   0  0  0  0  0  0  0  0  0  0  0  0
    4.6726    8.6685   16.2149 N   0  0  0  0  0  0  0  0  0  0  0  0
    5.9037    8.6704   16.8788 C   0  0  0  0  0  0  0  0  0  0  0  0
    6.7754    9.5944   16.7024 O   0  0  0  0  0  0  0  0  0  0  0  0
    3.9469    7.9372   16.3242 H   0  0  0  0  0  0  0  0  0  0  0  0
    6.3079    7.5832   17.8620 C   0  0  0  0  0  0  0  0  0  0  0  0
    6.1974    6.2734   17.1787 C   0  0  0  0  0  0  0  0  0  0  0  0
    5.3513    7.7673   18.9714 N   0  0  0  0  0  0  0  0  0  0  0  0
    5.8360    7.7624   20.3246 C   0  0  0  0  0  0  0  0  0  0  0  0
    7.0901    7.5731   20.4391 O   0  0  0  0  0  0  0  0  0  0  0  0
    4.3755    7.8953   18.7681 H   0  0  0  0  0  0  0  0  0  0  0  0
    4.9407    7.9722   21.4522 C   0  0  0  0  0  0  0  0  0  0  0  0
    5.5313    8.9651   22.4682 C   0  0  0  0  0  0  0  0  0  0  0  0
    4.6790    6.7252   22.1726 N   0  0  0  0  0  0  0  0  0  0  0  0
    3.9884    5.6913   21.5865 C   0  0  0  0  0  0  0  0  0  0  0  0
    3.6009    5.8518   20.3736 O   0  0  0  0  0  0  0  0  0  0  0  0
    5.0557    6.7150   23.1598 H   0  0  0  0  0  0  0  0  0  0  0  0
    3.6272    4.4119   22.2135 C   0  0  0  0  0  0  0  0  0  0  0  0
    4.1684    4.2991   23.6337 C   0  0  0  0  0  0  0  0  0  0  0  0
    4.1576    3.3387   21.3844 N   0  0  0  0  0  0  0  0  0  0  0  0
    3.9296    1.9780   21.5149 C   0  0  0  0  0  0  0  0  0  0  0  0
    3.1566    1.5588   22.4304 O   0  0  0  0  0  0  0  0  0  0  0  0
    4.7981    3.6717   20.6027 H   0  0  0  0  0  0  0  0  0  0  0  0
    4.5652    0.9409   20.6297 C   0  0  0  0  0  0  0  0  0  0  0  0
    5.9213    0.5660   21.0920 C   0  0  0  0  0  0  0  0  0  0  0  0
    4.6436    1.5114   19.2760 N   0  0  0  0  0  0  0  0  0  0  0  0
    3.8033    0.9683   18.2599 C   0  0  0  0  0  0  0  0  0  0  0  0
    3.0488   -0.0066   18.6100 O   0  0  0  0  0  0  0  0  0  0  0  0
    5.2899    2.2665   19.0767 H   0  0  0  0  0  0  0  0  0  0  0  0
    3.7088    1.4028   16.8685 C   0  0  0  0  0  0  0  0  0  0  0  0
    2.3807    1.2176   16.2112 C   0  0  0  0  0  0  0  0  0  0  0  0
    4.2430    2.8024   16.7315 C   0  0  0  0  0  0  0  0  0  0  0  0
    3.3254    3.7992   16.1281 C   0  0  0  0  0  0  0  0  0  0  0  0
    5.3396    3.1120   17.0800 O   0  0  0  0  0  0  0  0  0  0  0  0
    2.5362   10.8208   16.7780 N   0  0  0  0  0  0  0  0  0  0  0  0
    3.7637   10.9028   16.0168 C   0  0  0  0  0  0  0  0  0  0  0  0
    4.3873   12.0038   15.9746 O   0  0  0  0  0  0  0  0  0  0  0  0
    2.0362    9.9132   16.7968 H   0  0  0  0  0  0  0  0  0  0  0  0
    2.1136   11.9971   17.4467 C   0  0  0  0  0  0  0  0  0  0  0  0
    3.1147   12.2125   18.6272 C   0  0  0  0  0  0  0  0  0  0  0  0
    2.9752   14.3131   17.1053 N   0  0  0  0  0  0  0  0  0  0  0  0
    2.1299   13.2439   16.6682 C   0  0  0  0  0  0  0  0  0  0  0  0
    1.4325   13.3780   15.6679 O   0  0  0  0  0  0  0  0  0  0  0  0
    3.5284   14.0820   18.0132 H   0  0  0  0  0  0  0  0  0  0  0  0
    3.1827   15.5805   16.5386 C   0  0  0  0  0  0  0  0  0  0  0  0
    2.0357   16.5555   16.7627 C   0  0  0  0  0  0  0  0  0  0  0  0
    4.6715   16.5934   18.2734 N   0  0  0  0  0  0  0  0  0  0  0  0
    4.4712   16.2140   17.0518 C   0  0  0  0  0  0  0  0  0  0  0  0
    5.3215   16.3001   16.0870 O   0  0  0  0  0  0  0  0  0  0  0  0
    5.9610   16.9206   18.0374 H   0  0  0  0  0  0  0  0  0  0  0  0
    4.9086   17.0300   19.6695 C   0  0  0  0  0  0  0  0  0  0  0  0
    6.0048   16.2848   20.1939 C   0  0  0  0  0  0  0  0  0  0  0  0
    7.1040   17.1089   20.3181 O   0  0  0  0  0  0  0  0  0  0  0  0
    6.3801   15.0147   20.6209 N   0  0  0  0  0  0  0  0  0  0  0  0
    5.7734   13.7018   20.5589 C   0  0  0  0  0  0  0  0  0  0  0  0
    6.9358   12.8695   19.9649 C   0  0  0  0  0  0  0  0  0  0  0  0
    8.1527   13.5237   20.5676 C   0  0  0  0  0  0  0  0  0  0  0  0
    7.6592   14.7277   21.3050 C   0  0  0  0  0  0  0  0  0  0  0  0
    7.4878   14.4175   22.7434 C   0  0  0  0  0  0  0  0  0  0  0  0
    7.0296   13.2870   23.1560 O   0  0  0  0  0  0  0  0  0  0  0  0
    7.8017   15.3198   23.7753 N   0  0  0  0  0  0  0  0  0  0  0  0
    8.2651   16.6497   23.4669 C   0  0  0  0  0  0  0  0  0  0  0  0
    7.6944   14.9249   25.1577 C   0  0  0  0  0  0  0  0  0  0  0  0
    3.6121   17.3932   20.2021 C   0  0  0  0  0  0  0  0  0  0  0  0
    2.4951   15.1240   20.7769 C   0  0  0  0  0  0  0  0  0  0  0  0
    2.4637   16.5286   20.4043 C   0  0  0  0  0  0  0  0  0  0  0  0
    1.4176   17.3060   21.2473 C   0  0  0  0  0  0  0  0  0  0  0  0
 66 67  1  0  0  0
 67 68  1  0  0  0
 67 65  1  0  0  0
 65 52  1  0  0  0
 52 48  1  0  0  0
 48 49  1  0  0  0
 49 50  2  0  0  0
 49 46  1  0  0  0
 46 47  1  0  0  0
 46 42  1  0  0  0
 42 43  1  0  0  0
 43 44  2  0  0  0
 43 40  1  0  0  0
 40 41  1  0  0  0
 40 36  1  0  0  0
 36 37  1  0  0  0
 37 38  2  0  0  0
 37  1  1  0  0  0
  1  2  1  0  0  0
  1  3  1  0  0  0
  3  4  1  0  0  0
  4  5  2  0  0  0
  4  7  1  0  0  0
  7  8  1  0  0  0
  7  9  1  0  0  0
  9 10  1  0  0  0
 10 11  2  0  0  0
 10 13  1  0  0  0
 13 14  1  0  0  0
 13 15  1  0  0  0
 15 16  1  0  0  0
 16 17  2  0  0  0
 16 19  1  0  0  0
 19 20  1  0  0  0
 19 21  1  0  0  0
 21 22  1  0  0  0
 22 23  2  0  0  0
 22 25  1  0  0  0
 25 26  1  0  0  0
 25 27  1  0  0  0
 27 28  1  0  0  0
 28 29  2  0  0  0
 28 31  1  0  0  0
 31 32  1  0  0  0
 31 33  1  0  0  0
 33 34  1  0  0  0
 33 35  2  0  0  0
 52 53  1  0  0  0
 53 54  2  0  0  0
 53 55  1  0  0  0
 55 56  1  0  0  0
 56 57  1  0  0  0
 57 58  1  0  0  0
 58 59  1  0  0  0
 59 60  1  0  0  0
 60 61  2  0  0  0
 60 62  1  0  0  0
 62 63  1  0  0  0
 62 64  1  0  0  0
 59 55  1  0  0  0
 48 51  1  0  0  0
 42 45  1  0  0  0
 36 39  1  0  0  0
  3  6  1  0  0  0
  9 12  1  0  0  0
 15 18  1  0  0  0
 21 24  1  0  0  0
 27 30  1  0  0  0
M  END
> <minimizedAffinity>
-8.53592

> <CNNscore>
0.4513258636

> <CNNaffinity>
6.8343935013

> <CNN_VS>
3.0845384598

> <CNNaffinity_variance>
0.4547653794

$$$$
[H]N(C(=O)[C@]([H])(C(=O)C([H])([H])[H])C([H])([H])[H])[C@]([H])(C(=O)N([H])[C@]([H])(C(=O)N([H])[C@]([H])(C(=O)N([H])[C@]([H])(C(=O)N([H])[C@]([H])(C(=O)N([H])[C@]([H])(C(=O)N([H])[C@]([H])(C(=O)N([H])[C@]([H])(C(=O)N1C([H])([H])C([H])([H])C([H])([H])[C@]1([H])C(=O)N(C([H])([H])[H])C([H])([H])[H])C([H])([H])C([H])(C([H])([H])[H])C([H])([H])[H])C([H])([H])[H])C([H])([H])[H])C([H])([H])[H])C([H])([H])[H])C([H])([H])[H])C([H])([H])[H])C([H])([H])[H]


 68 68  0  0  0  0  0  0  0  0999 V2000
    2.4460    7.5584   13.7585 C   0  0  0  0  0  0  0  0  0  0  0  0
    3.5369    6.6958   13.1300 C   0  0  0  0  0  0  0  0  0  0  0  0
    2.9542    8.0610   15.0650 N   0  0  0  0  0  0  0  0  0  0  0  0
    3.1060    9.4371   15.2645 C   0  0  0  0  0  0  0  0  0  0  0  0
    2.8317   10.2957   14.3523 O   0  0  0  0  0  0  0  0  0  0  0  0
    3.1724    7.3368   15.7730 H   0  0  0  0  0  0  0  0  0  0  0  0
    3.6047   10.0266   16.5745 C   0  0  0  0  0  0  0  0  0  0  0  0
    4.2053   11.3506   16.2902 C   0  0  0  0  0  0  0  0  0  0  0  0
    4.5708    9.0150   17.0467 N   0  0  0  0  0  0  0  0  0  0  0  0
    4.4780    8.5318   18.3973 C   0  0  0  0  0  0  0  0  0  0  0  0
    3.5463    9.0588   19.0872 O   0  0  0  0  0  0  0  0  0  0  0  0
    5.2790    8.6755   16.4196 H   0  0  0  0  0  0  0  0  0  0  0  0
    5.3842    7.5117   18.9024 C   0  0  0  0  0  0  0  0  0  0  0  0
    6.2624    6.9282   17.7820 C   0  0  0  0  0  0  0  0  0  0  0  0
    4.6561    6.3934   19.5039 N   0  0  0  0  0  0  0  0  0  0  0  0
    4.6173    6.2147   20.8663 C   0  0  0  0  0  0  0  0  0  0  0  0
    5.2253    7.0798   21.5936 O   0  0  0  0  0  0  0  0  0  0  0  0
    4.1923    5.7571   18.7993 H   0  0  0  0  0  0  0  0  0  0  0  0
    3.9597    5.1157   21.5877 C   0  0  0  0  0  0  0  0  0  0  0  0
    4.4440    5.0082   23.0287 C   0  0  0  0  0  0  0  0  0  0  0  0
    4.2331    3.8787   20.8697 N   0  0  0  0  0  0  0  0  0  0  0  0
    4.1153    2.5820   21.3441 C   0  0  0  0  0  0  0  0  0  0  0  0
    3.7011    2.3847   22.5277 O   0  0  0  0  0  0  0  0  0  0  0  0
    4.5692    4.0233   19.8705 H   0  0  0  0  0  0  0  0  0  0  0  0
    4.4683    1.3655   20.5325 C   0  0  0  0  0  0  0  0  0  0  0  0
    5.7315    0.7387   20.9846 C   0  0  0  0  0  0  0  0  0  0  0  0
    4.6036    1.7987   19.1331 N   0  0  0  0  0  0  0  0  0  0  0  0
    3.7225    1.2407   18.1607 C   0  0  0  0  0  0  0  0  0  0  0  0
    2.8819    0.3735   18.5893 O   0  0  0  0  0  0  0  0  0  0  0  0
    5.3159    2.4716   18.8735 H   0  0  0  0  0  0  0  0  0  0  0  0
    3.6736    1.5510   16.7341 C   0  0  0  0  0  0  0  0  0  0  0  0
    2.6707    0.7902   15.9303 C   0  0  0  0  0  0  0  0  0  0  0  0
    3.5791    3.0393   16.5365 C   0  0  0  0  0  0  0  0  0  0  0  0
    4.0726    3.5620   15.2392 C   0  0  0  0  0  0  0  0  0  0  0  0
    3.1379    3.7738   17.3645 O   0  0  0  0  0  0  0  0  0  0  0  0
   -0.0318    7.0575   13.2976 N   0  0  0  0  0  0  0  0  0  0  0  0
    1.2212    6.7788   13.9649 C   0  0  0  0  0  0  0  0  0  0  0  0
    1.2808    5.8113   14.7792 O   0  0  0  0  0  0  0  0  0  0  0  0
   -0.0636    7.8568   12.6385 H   0  0  0  0  0  0  0  0  0  0  0  0
   -1.1243    6.2056   13.5975 C   0  0  0  0  0  0  0  0  0  0  0  0
   -2.3754    7.1317   13.7366 C   0  0  0  0  0  0  0  0  0  0  0  0
   -2.8246    5.1468   12.1107 N   0  0  0  0  0  0  0  0  0  0  0  0
   -1.4757    5.1980   12.5865 C   0  0  0  0  0  0  0  0  0  0  0  0
   -0.6399    4.4086   12.1583 O   0  0  0  0  0  0  0  0  0  0  0  0
   -3.4753    5.8826   12.5787 H   0  0  0  0  0  0  0  0  0  0  0  0
   -3.4050    4.3031   11.1506 C   0  0  0  0  0  0  0  0  0  0  0  0
   -4.8973    4.0761   11.3452 C   0  0  0  0  0  0  0  0  0  0  0  0
   -3.1388    4.0876    8.6737 N   0  0  0  0  0  0  0  0  0  0  0  0
   -3.1693    4.8251    9.7374 C   0  0  0  0  0  0  0  0  0  0  0  0
   -3.0174    6.1046    9.7719 O   0  0  0  0  0  0  0  0  0  0  0  0
   -3.0154    5.1520    7.8508 H   0  0  0  0  0  0  0  0  0  0  0  0
   -3.1027    3.2504    7.4515 C   0  0  0  0  0  0  0  0  0  0  0  0
   -3.1042    4.1119    6.3159 C   0  0  0  0  0  0  0  0  0  0  0  0
   -3.8708    3.5524    5.3149 O   0  0  0  0  0  0  0  0  0  0  0  0
   -2.6018    5.3180    5.8375 N   0  0  0  0  0  0  0  0  0  0  0  0
   -1.6053    6.2594    6.3030 C   0  0  0  0  0  0  0  0  0  0  0  0
   -0.7381    6.4212    5.0308 C   0  0  0  0  0  0  0  0  0  0  0  0
   -1.7528    6.3073    3.9221 C   0  0  0  0  0  0  0  0  0  0  0  0
   -3.0488    5.9460    4.5756 C   0  0  0  0  0  0  0  0  0  0  0  0
   -3.8721    7.1582    4.7939 C   0  0  0  0  0  0  0  0  0  0  0  0
   -3.3554    8.3316    4.9123 O   0  0  0  0  0  0  0  0  0  0  0  0
   -5.2745    7.1366    4.8948 N   0  0  0  0  0  0  0  0  0  0  0  0
   -5.9913    5.8866    4.8459 C   0  0  0  0  0  0  0  0  0  0  0  0
   -6.0235    8.3620    5.0199 C   0  0  0  0  0  0  0  0  0  0  0  0
   -3.8222    2.0362    7.7754 C   0  0  0  0  0  0  0  0  0  0  0  0
   -1.9583    0.6584    8.9392 C   0  0  0  0  0  0  0  0  0  0  0  0
   -3.3228    0.8738    8.4869 C   0  0  0  0  0  0  0  0  0  0  0  0
   -4.3427    0.5155    9.6008 C   0  0  0  0  0  0  0  0  0  0  0  0
 66 67  1  0  0  0
 67 68  1  0  0  0
 67 65  1  0  0  0
 65 52  1  0  0  0
 52 48  1  0  0  0
 48 49  1  0  0  0
 49 50  2  0  0  0
 49 46  1  0  0  0
 46 47  1  0  0  0
 46 42  1  0  0  0
 42 43  1  0  0  0
 43 44  2  0  0  0
 43 40  1  0  0  0
 40 41  1  0  0  0
 40 36  1  0  0  0
 36 37  1  0  0  0
 37 38  2  0  0  0
 37  1  1  0  0  0
  1  2  1  0  0  0
  1  3  1  0  0  0
  3  4  1  0  0  0
  4  5  2  0  0  0
  4  7  1  0  0  0
  7  8  1  0  0  0
  7  9  1  0  0  0
  9 10  1  0  0  0
 10 11  2  0  0  0
 10 13  1  0  0  0
 13 14  1  0  0  0
 13 15  1  0  0  0
 15 16  1  0  0  0
 16 17  2  0  0  0
 16 19  1  0  0  0
 19 20  1  0  0  0
 19 21  1  0  0  0
 21 22  1  0  0  0
 22 23  2  0  0  0
 22 25  1  0  0  0
 25 26  1  0  0  0
 25 27  1  0  0  0
 27 28  1  0  0  0
 28 29  2  0  0  0
 28 31  1  0  0  0
 31 32  1  0  0  0
 31 33  1  0  0  0
 33 34  1  0  0  0
 33 35  2  0  0  0
 52 53  1  0  0  0
 53 54  2  0  0  0
 53 55  1  0  0  0
 55 56  1  0  0  0
 56 57  1  0  0  0
 57 58  1  0  0  0
 58 59  1  0  0  0
 59 60  1  0  0  0
 60 61  2  0  0  0
 60 62  1  0  0  0
 62 63  1  0  0  0
 62 64  1  0  0  0
 59 55  1  0  0  0
 48 51  1  0  0  0
 42 45  1  0  0  0
 36 39  1  0  0  0
  3  6  1  0  0  0
  9 12  1  0  0  0
 15 18  1  0  0  0
 21 24  1  0  0  0
 27 30  1  0  0  0
M  END
> <minimizedAffinity>
-8.20873

> <CNNscore>
0.4145871997

> <CNNaffinity>
7.1169157028

> <CNN_VS>
2.9505822659

> <CNNaffinity_variance>
0.1849566847

$$$$
[H]N(C(=O)[C@]([H])(C(=O)C([H])([H])[H])C([H])([H])[H])[C@]([H])(C(=O)N([H])[C@]([H])(C(=O)N([H])[C@]([H])(C(=O)N([H])[C@]([H])(C(=O)N([H])[C@]([H])(C(=O)N([H])[C@]([H])(C(=O)N([H])[C@]([H])(C(=O)N([H])[C@]([H])(C(=O)N1C([H])([H])C([H])([H])C([H])([H])[C@]1([H])C(=O)N(C([H])([H])[H])C([H])([H])[H])C([H])([H])C([H])(C([H])([H])[H])C([H])([H])[H])C([H])([H])[H])C([H])([H])[H])C([H])([H])[H])C([H])([H])[H])C([H])([H])[H])C([H])([H])[H])C([H])([H])[H]


 68 68  0  0  0  0  0  0  0  0999 V2000
    3.6822    4.0238   18.3170 C   0  0  0  0  0  0  0  0  0  0  0  0
    4.6362    2.8328   18.3437 C   0  0  0  0  0  0  0  0  0  0  0  0
    4.0124    4.8495   17.1223 N   0  0  0  0  0  0  0  0  0  0  0  0
    2.9828    5.3181   16.2998 C   0  0  0  0  0  0  0  0  0  0  0  0
    1.7490    5.0536   16.5291 O   0  0  0  0  0  0  0  0  0  0  0  0
    5.0198    5.0344   16.9662 H   0  0  0  0  0  0  0  0  0  0  0  0
    3.2395    6.1778   15.0722 C   0  0  0  0  0  0  0  0  0  0  0  0
    4.1736    7.2633   15.4514 C   0  0  0  0  0  0  0  0  0  0  0  0
    1.8877    6.6456   14.7066 N   0  0  0  0  0  0  0  0  0  0  0  0
    1.3516    6.3050   13.4171 C   0  0  0  0  0  0  0  0  0  0  0  0
    2.1339    5.6220   12.6800 O   0  0  0  0  0  0  0  0  0  0  0  0
    1.3589    7.1936   15.3623 H   0  0  0  0  0  0  0  0  0  0  0  0
    0.0126    6.7128   13.0201 C   0  0  0  0  0  0  0  0  0  0  0  0
   -0.9607    6.7005   14.2116 C   0  0  0  0  0  0  0  0  0  0  0  0
   -0.5436    5.8202   12.0020 N   0  0  0  0  0  0  0  0  0  0  0  0
   -0.4698    6.1265   10.6641 C   0  0  0  0  0  0  0  0  0  0  0  0
    0.1266    7.2155   10.3389 O   0  0  0  0  0  0  0  0  0  0  0  0
   -1.0012    4.9537   12.3974 H   0  0  0  0  0  0  0  0  0  0  0  0
   -1.0222    5.3389    9.5528 C   0  0  0  0  0  0  0  0  0  0  0  0
   -1.3815    6.2126    8.3568 C   0  0  0  0  0  0  0  0  0  0  0  0
   -2.2030    4.6398   10.0400 N   0  0  0  0  0  0  0  0  0  0  0  0
   -2.7359    3.4505    9.5688 C   0  0  0  0  0  0  0  0  0  0  0  0
   -2.1567    2.8389    8.6190 O   0  0  0  0  0  0  0  0  0  0  0  0
   -2.6953    5.1307   10.8455 H   0  0  0  0  0  0  0  0  0  0  0  0
   -3.9936    2.8304   10.1138 C   0  0  0  0  0  0  0  0  0  0  0  0
   -4.2706    1.5060    9.5118 C   0  0  0  0  0  0  0  0  0  0  0  0
   -5.1001    3.7521    9.8132 N   0  0  0  0  0  0  0  0  0  0  0  0
   -5.5157    4.6677   10.8243 C   0  0  0  0  0  0  0  0  0  0  0  0
   -4.8939    4.5971   11.9427 O   0  0  0  0  0  0  0  0  0  0  0  0
   -5.5573    3.7235    8.9089 H   0  0  0  0  0  0  0  0  0  0  0  0
   -6.5689    5.6748   10.7229 C   0  0  0  0  0  0  0  0  0  0  0  0
   -6.1882    6.9592   10.0627 C   0  0  0  0  0  0  0  0  0  0  0  0
   -7.8117    5.0595   10.1400 C   0  0  0  0  0  0  0  0  0  0  0  0
   -8.5086    4.0604   10.9862 C   0  0  0  0  0  0  0  0  0  0  0  0
   -8.2276    5.3439    9.0602 O   0  0  0  0  0  0  0  0  0  0  0  0
    4.5836    4.4121   20.6917 N   0  0  0  0  0  0  0  0  0  0  0  0
    3.8212    4.8287   19.5349 C   0  0  0  0  0  0  0  0  0  0  0  0
    3.2316    5.9487   19.5594 O   0  0  0  0  0  0  0  0  0  0  0  0
    5.0550    3.4897   20.6561 H   0  0  0  0  0  0  0  0  0  0  0  0
    4.6290    5.3077   21.7895 C   0  0  0  0  0  0  0  0  0  0  0  0
    4.0957    4.5127   23.0246 C   0  0  0  0  0  0  0  0  0  0  0  0
    6.0243    6.9461   23.0511 N   0  0  0  0  0  0  0  0  0  0  0  0
    5.9532    5.8163   22.1752 C   0  0  0  0  0  0  0  0  0  0  0  0
    6.9814    5.2951   21.7554 O   0  0  0  0  0  0  0  0  0  0  0  0
    5.0481    7.3310   23.3386 H   0  0  0  0  0  0  0  0  0  0  0  0
    7.1478    7.6046   23.5750 C   0  0  0  0  0  0  0  0  0  0  0  0
    8.4766    6.9848   23.1668 C   0  0  0  0  0  0  0  0  0  0  0  0
    7.1638    9.5250   21.9738 N   0  0  0  0  0  0  0  0  0  0  0  0
    7.1567    9.0799   23.1896 C   0  0  0  0  0  0  0  0  0  0  0  0
    7.1458    9.8028   24.2567 O   0  0  0  0  0  0  0  0  0  0  0  0
    7.0576   10.8131   22.3674 H   0  0  0  0  0  0  0  0  0  0  0  0
    7.1717   10.0424   20.5852 C   0  0  0  0  0  0  0  0  0  0  0  0
    6.8359   11.4273   20.6192 C   0  0  0  0  0  0  0  0  0  0  0  0
    5.5022   11.5853   20.3044 O   0  0  0  0  0  0  0  0  0  0  0  0
    7.3682   12.6929   20.8452 N   0  0  0  0  0  0  0  0  0  0  0  0
    8.7074   13.2161   21.0144 C   0  0  0  0  0  0  0  0  0  0  0  0
    8.6975   14.3817   19.9955 C   0  0  0  0  0  0  0  0  0  0  0  0
    7.2750   14.8744   20.0704 C   0  0  0  0  0  0  0  0  0  0  0  0
    6.5460   13.9166   20.9582 C   0  0  0  0  0  0  0  0  0  0  0  0
    6.4809   14.4428   22.3416 C   0  0  0  0  0  0  0  0  0  0  0  0
    6.9987   13.8196   23.3424 O   0  0  0  0  0  0  0  0  0  0  0  0
    5.8516   15.6530   22.6834 N   0  0  0  0  0  0  0  0  0  0  0  0
    5.1708   16.4315   21.6788 C   0  0  0  0  0  0  0  0  0  0  0  0
    5.8992   16.1526   24.0349 C   0  0  0  0  0  0  0  0  0  0  0  0
    6.7514    8.9411   19.7442 C   0  0  0  0  0  0  0  0  0  0  0  0
    8.8223    7.3872   19.5892 C   0  0  0  0  0  0  0  0  0  0  0  0
    7.5935    7.9675   19.0733 C   0  0  0  0  0  0  0  0  0  0  0  0
    6.6751    6.8759   18.4617 C   0  0  0  0  0  0  0  0  0  0  0  0
 66 67  1  0  0  0
 67 68  1  0  0  0
 67 65  1  0  0  0
 65 52  1  0  0  0
 52 48  1  0  0  0
 48 49  1  0  0  0
 49 50  2  0  0  0
 49 46  1  0  0  0
 46 47  1  0  0  0
 46 42  1  0  0  0
 42 43  1  0  0  0
 43 44  2  0  0  0
 43 40  1  0  0  0
 40 41  1  0  0  0
 40 36  1  0  0  0
 36 37  1  0  0  0
 37 38  2  0  0  0
 37  1  1  0  0  0
  1  2  1  0  0  0
  1  3  1  0  0  0
  3  4  1  0  0  0
  4  5  2  0  0  0
  4  7  1  0  0  0
  7  8  1  0  0  0
  7  9  1  0  0  0
  9 10  1  0  0  0
 10 11  2  0  0  0
 10 13  1  0  0  0
 13 14  1  0  0  0
 13 15  1  0  0  0
 15 16  1  0  0  0
 16 17  2  0  0  0
 16 19  1  0  0  0
 19 20  1  0  0  0
 19 21  1  0  0  0
 21 22  1  0  0  0
 22 23  2  0  0  0
 22 25  1  0  0  0
 25 26  1  0  0  0
 25 27  1  0  0  0
 27 28  1  0  0  0
 28 29  2  0  0  0
 28 31  1  0  0  0
 31 32  1  0  0  0
 31 33  1  0  0  0
 33 34  1  0  0  0
 33 35  2  0  0  0
 52 53  1  0  0  0
 53 54  2  0  0  0
 53 55  1  0  0  0
 55 56  1  0  0  0
 56 57  1  0  0  0
 57 58  1  0  0  0
 58 59  1  0  0  0
 59 60  1  0  0  0
 60 61  2  0  0  0
 60 62  1  0  0  0
 62 63  1  0  0  0
 62 64  1  0  0  0
 59 55  1  0  0  0
 48 51  1  0  0  0
 42 45  1  0  0  0
 36 39  1  0  0  0
  3  6  1  0  0  0
  9 12  1  0  0  0
 15 18  1  0  0  0
 21 24  1  0  0  0
 27 30  1  0  0  0
M  END
> <minimizedAffinity>
-8.29133

> <CNNscore>
0.3692000806

> <CNNaffinity>
6.6913084984

> <CNN_VS>
2.4704315662

> <CNNaffinity_variance>
0.3055913150

$$$$
[H]N(C(=O)[C@]([H])(C(=O)C([H])([H])[H])C([H])([H])[H])[C@]([H])(C(=O)N([H])[C@]([H])(C(=O)N([H])[C@]([H])(C(=O)N([H])[C@]([H])(C(=O)N([H])[C@]([H])(C(=O)N([H])[C@]([H])(C(=O)N([H])[C@]([H])(C(=O)N([H])[C@]([H])(C(=O)N1C([H])([H])C([H])([H])C([H])([H])[C@]1([H])C(=O)N(C([H])([H])[H])C([H])([H])[H])C([H])([H])C([H])(C([H])([H])[H])C([H])([H])[H])C([H])([H])[H])C([H])([H])[H])C([H])([H])[H])C([H])([H])[H])C([H])([H])[H])C([H])([H])[H])C([H])([H])[H]


 68 68  0  0  0  0  0  0  0  0999 V2000
    3.4417   11.5087   17.2224 C   0  0  0  0  0  0  0  0  0  0  0  0
    2.4999   10.8396   18.2197 C   0  0  0  0  0  0  0  0  0  0  0  0
    2.6213   12.3600   16.3167 N   0  0  0  0  0  0  0  0  0  0  0  0
    2.2738   13.6557   16.7127 C   0  0  0  0  0  0  0  0  0  0  0  0
    2.6286   14.1443   17.8441 O   0  0  0  0  0  0  0  0  0  0  0  0
    2.3475   11.9273   15.4161 H   0  0  0  0  0  0  0  0  0  0  0  0
    1.4520   14.5889   15.8376 C   0  0  0  0  0  0  0  0  0  0  0  0
    0.9611   13.8203   14.6703 C   0  0  0  0  0  0  0  0  0  0  0  0
    2.4138   15.6557   15.4961 N   0  0  0  0  0  0  0  0  0  0  0  0
    2.1340   17.0078   15.8958 C   0  0  0  0  0  0  0  0  0  0  0  0
    1.0309   17.1619   16.5132 O   0  0  0  0  0  0  0  0  0  0  0  0
    3.2514   15.4246   14.9912 H   0  0  0  0  0  0  0  0  0  0  0  0
    3.0639   18.0906   15.6133 C   0  0  0  0  0  0  0  0  0  0  0  0
    4.0739   17.7002   14.5204 C   0  0  0  0  0  0  0  0  0  0  0  0
    3.8369   18.4613   16.7998 N   0  0  0  0  0  0  0  0  0  0  0  0
    4.6676   17.5608   17.4229 C   0  0  0  0  0  0  0  0  0  0  0  0
    4.7580   16.3874   16.9110 O   0  0  0  0  0  0  0  0  0  0  0  0
    3.6805   19.4568   17.1176 H   0  0  0  0  0  0  0  0  0  0  0  0
    5.4609   17.7957   18.6379 C   0  0  0  0  0  0  0  0  0  0  0  0
    6.9586   17.7518   18.3593 C   0  0  0  0  0  0  0  0  0  0  0  0
    5.0993   16.7785   19.6151 N   0  0  0  0  0  0  0  0  0  0  0  0
    4.0163   16.7840   20.4798 C   0  0  0  0  0  0  0  0  0  0  0  0
    3.1937   17.7503   20.4452 O   0  0  0  0  0  0  0  0  0  0  0  0
    5.7703   15.9534   19.6499 H   0  0  0  0  0  0  0  0  0  0  0  0
    3.7546   15.7002   21.4898 C   0  0  0  0  0  0  0  0  0  0  0  0
    2.3562   15.7157   21.9773 C   0  0  0  0  0  0  0  0  0  0  0  0
    4.6742   15.9223   22.6164 N   0  0  0  0  0  0  0  0  0  0  0  0
    5.8927   15.1826   22.6551 C   0  0  0  0  0  0  0  0  0  0  0  0
    6.0816   14.3518   21.6978 O   0  0  0  0  0  0  0  0  0  0  0  0
    4.4347   16.5808   23.3489 H   0  0  0  0  0  0  0  0  0  0  0  0
    6.9458   15.2705   23.6635 C   0  0  0  0  0  0  0  0  0  0  0  0
    8.3404   15.4064   23.1468 C   0  0  0  0  0  0  0  0  0  0  0  0
    6.5918   16.3176   24.6839 C   0  0  0  0  0  0  0  0  0  0  0  0
    7.6153   17.3609   24.9362 C   0  0  0  0  0  0  0  0  0  0  0  0
    5.5537   16.3242   25.2688 O   0  0  0  0  0  0  0  0  0  0  0  0
    3.6232    9.2143   16.0799 N   0  0  0  0  0  0  0  0  0  0  0  0
    4.1699   10.5042   16.4406 C   0  0  0  0  0  0  0  0  0  0  0  0
    5.3443   10.7983   16.0703 O   0  0  0  0  0  0  0  0  0  0  0  0
    2.6624    8.9884   16.3963 H   0  0  0  0  0  0  0  0  0  0  0  0
    4.4504    8.3563   15.3124 C   0  0  0  0  0  0  0  0  0  0  0  0
    5.8488    8.3583   16.0100 C   0  0  0  0  0  0  0  0  0  0  0  0
    4.2012    6.1152   16.3792 N   0  0  0  0  0  0  0  0  0  0  0  0
    4.0426    6.9467   15.2251 C   0  0  0  0  0  0  0  0  0  0  0  0
    3.5816    6.4813   14.1878 O   0  0  0  0  0  0  0  0  0  0  0  0
    4.6375    6.6357   17.2292 H   0  0  0  0  0  0  0  0  0  0  0  0
    3.8791    4.7608   16.5592 C   0  0  0  0  0  0  0  0  0  0  0  0
    5.0752    3.8230   16.4806 C   0  0  0  0  0  0  0  0  0  0  0  0
    3.7506    4.2150   18.9960 N   0  0  0  0  0  0  0  0  0  0  0  0
    3.1637    4.5317   17.8862 C   0  0  0  0  0  0  0  0  0  0  0  0
    1.8973    4.7124   17.7283 O   0  0  0  0  0  0  0  0  0  0  0  0
    2.6043    4.2872   19.7076 H   0  0  0  0  0  0  0  0  0  0  0  0
    4.4148    3.8525   20.2701 C   0  0  0  0  0  0  0  0  0  0  0  0
    4.8738    5.0489   20.8945 C   0  0  0  0  0  0  0  0  0  0  0  0
    4.9708    4.8495   22.2559 O   0  0  0  0  0  0  0  0  0  0  0  0
    5.2536    6.3617   20.6329 N   0  0  0  0  0  0  0  0  0  0  0  0
    5.1859    7.2270   19.4742 C   0  0  0  0  0  0  0  0  0  0  0  0
    4.5229    8.4850   20.0863 C   0  0  0  0  0  0  0  0  0  0  0  0
    5.0888    8.5106   21.4831 C   0  0  0  0  0  0  0  0  0  0  0  0
    5.8754    7.2483   21.6398 C   0  0  0  0  0  0  0  0  0  0  0  0
    7.3119    7.4997   21.3793 C   0  0  0  0  0  0  0  0  0  0  0  0
    7.7271    8.5440   20.7507 O   0  0  0  0  0  0  0  0  0  0  0  0
    8.3389    6.6293   21.7857 N   0  0  0  0  0  0  0  0  0  0  0  0
    8.0247    5.3861   22.4447 C   0  0  0  0  0  0  0  0  0  0  0  0
    9.7231    6.9748   21.5784 C   0  0  0  0  0  0  0  0  0  0  0  0
    5.0172    2.5537   20.0533 C   0  0  0  0  0  0  0  0  0  0  0  0
    6.6028    1.5496   21.8435 C   0  0  0  0  0  0  0  0  0  0  0  0
    5.3821    1.5683   21.0547 C   0  0  0  0  0  0  0  0  0  0  0  0
    4.1387    1.3029   21.9451 C   0  0  0  0  0  0  0  0  0  0  0  0
 66 67  1  0  0  0
 67 68  1  0  0  0
 67 65  1  0  0  0
 65 52  1  0  0  0
 52 48  1  0  0  0
 48 49  1  0  0  0
 49 50  2  0  0  0
 49 46  1  0  0  0
 46 47  1  0  0  0
 46 42  1  0  0  0
 42 43  1  0  0  0
 43 44  2  0  0  0
 43 40  1  0  0  0
 40 41  1  0  0  0
 40 36  1  0  0  0
 36 37  1  0  0  0
 37 38  2  0  0  0
 37  1  1  0  0  0
  1  2  1  0  0  0
  1  3  1  0  0  0
  3  4  1  0  0  0
  4  5  2  0  0  0
  4  7  1  0  0  0
  7  8  1  0  0  0
  7  9  1  0  0  0
  9 10  1  0  0  0
 10 11  2  0  0  0
 10 13  1  0  0  0
 13 14  1  0  0  0
 13 15  1  0  0  0
 15 16  1  0  0  0
 16 17  2  0  0  0
 16 19  1  0  0  0
 19 20  1  0  0  0
 19 21  1  0  0  0
 21 22  1  0  0  0
 22 23  2  0  0  0
 22 25  1  0  0  0
 25 26  1  0  0  0
 25 27  1  0  0  0
 27 28  1  0  0  0
 28 29  2  0  0  0
 28 31  1  0  0  0
 31 32  1  0  0  0
 31 33  1  0  0  0
 33 34  1  0  0  0
 33 35  2  0  0  0
 52 53  1  0  0  0
 53 54  2  0  0  0
 53 55  1  0  0  0
 55 56  1  0  0  0
 56 57  1  0  0  0
 57 58  1  0  0  0
 58 59  1  0  0  0
 59 60  1  0  0  0
 60 61  2  0  0  0
 60 62  1  0  0  0
 62 63  1  0  0  0
 62 64  1  0  0  0
 59 55  1  0  0  0
 48 51  1  0  0  0
 42 45  1  0  0  0
 36 39  1  0  0  0
  3  6  1  0  0  0
  9 12  1  0  0  0
 15 18  1  0  0  0
 21 24  1  0  0  0
 27 30  1  0  0  0
M  END
> <minimizedAffinity>
-8.92597

> <CNNscore>
0.3250727654

> <CNNaffinity>
6.8534460068

> <CNN_VS>
2.2278685570

> <CNNaffinity_variance>
0.1962430775

$$$$
[H]N(C(=O)[C@]([H])(C(=O)C([H])([H])[H])C([H])([H])[H])[C@]([H])(C(=O)N([H])[C@]([H])(C(=O)N([H])[C@]([H])(C(=O)N([H])[C@]([H])(C(=O)N([H])[C@]([H])(C(=O)N([H])[C@]([H])(C(=O)N([H])[C@]([H])(C(=O)N([H])[C@]([H])(C(=O)N1C([H])([H])C([H])([H])C([H])([H])[C@]1([H])C(=O)N(C([H])([H])[H])C([H])([H])[H])C([H])([H])C([H])(C([H])([H])[H])C([H])([H])[H])C([H])([H])[H])C([H])([H])[H])C([H])([H])[H])C([H])([H])[H])C([H])([H])[H])C([H])([H])[H])C([H])([H])[H]


 68 68  0  0  0  0  0  0  0  0999 V2000
    4.9108    4.4314   22.7998 C   0  0  0  0  0  0  0  0  0  0  0  0
    3.6435    4.4584   23.6497 C   0  0  0  0  0  0  0  0  0  0  0  0
    4.8228    5.5402   21.8094 N   0  0  0  0  0  0  0  0  0  0  0  0
    5.7015    6.6242   21.9055 C   0  0  0  0  0  0  0  0  0  0  0  0
    6.5857    6.7091   22.8306 O   0  0  0  0  0  0  0  0  0  0  0  0
    4.0910    5.4393   21.0831 H   0  0  0  0  0  0  0  0  0  0  0  0
    5.6828    7.7856   20.9243 C   0  0  0  0  0  0  0  0  0  0  0  0
    4.9141    8.8963   21.5325 C   0  0  0  0  0  0  0  0  0  0  0  0
    5.0489    7.1980   19.7273 N   0  0  0  0  0  0  0  0  0  0  0  0
    5.8778    6.7536   18.6403 C   0  0  0  0  0  0  0  0  0  0  0  0
    7.1261    6.9351   18.8154 O   0  0  0  0  0  0  0  0  0  0  0  0
    4.0483    7.1141   19.6873 H   0  0  0  0  0  0  0  0  0  0  0  0
    5.3061    6.1378   17.4525 C   0  0  0  0  0  0  0  0  0  0  0  0
    5.8117    4.6974   17.2612 C   0  0  0  0  0  0  0  0  0  0  0  0
    5.6539    6.8797   16.2396 N   0  0  0  0  0  0  0  0  0  0  0  0
    5.1155    8.1171   15.9784 C   0  0  0  0  0  0  0  0  0  0  0  0
    4.3127    8.6087   16.8507 O   0  0  0  0  0  0  0  0  0  0  0  0
    6.3296    6.3707   15.6065 H   0  0  0  0  0  0  0  0  0  0  0  0
    5.3509    8.9409   14.7840 C   0  0  0  0  0  0  0  0  0  0  0  0
    4.0499    9.3208   14.0870 C   0  0  0  0  0  0  0  0  0  0  0  0
    6.2070    8.1872   13.8789 N   0  0  0  0  0  0  0  0  0  0  0  0
    6.8375    8.6458   12.7332 C   0  0  0  0  0  0  0  0  0  0  0  0
    6.7118    9.8629   12.3952 O   0  0  0  0  0  0  0  0  0  0  0  0
    6.3352    7.1670   14.1530 H   0  0  0  0  0  0  0  0  0  0  0  0
    7.6690    7.7702   11.8358 C   0  0  0  0  0  0  0  0  0  0  0  0
    9.0747    8.2288   11.7531 C   0  0  0  0  0  0  0  0  0  0  0  0
    7.0561    7.8087   10.4989 N   0  0  0  0  0  0  0  0  0  0  0  0
    6.7710    6.5734    9.8462 C   0  0  0  0  0  0  0  0  0  0  0  0
    7.0983    5.5089   10.4803 O   0  0  0  0  0  0  0  0  0  0  0  0
    6.8534    8.6974   10.0555 H   0  0  0  0  0  0  0  0  0  0  0  0
    6.1468    6.3909    8.5382 C   0  0  0  0  0  0  0  0  0  0  0  0
    7.0662    6.4207    7.3616 C   0  0  0  0  0  0  0  0  0  0  0  0
    5.2579    5.1774    8.5596 C   0  0  0  0  0  0  0  0  0  0  0  0
    5.8714    3.9061    8.1044 C   0  0  0  0  0  0  0  0  0  0  0  0
    4.1218    5.2156    8.9166 O   0  0  0  0  0  0  0  0  0  0  0  0
    3.9401    2.4645   21.4613 N   0  0  0  0  0  0  0  0  0  0  0  0
    5.0421    3.1478   22.1028 C   0  0  0  0  0  0  0  0  0  0  0  0
    6.1925    2.6202   22.0726 O   0  0  0  0  0  0  0  0  0  0  0  0
    3.0044    2.9083   21.5009 H   0  0  0  0  0  0  0  0  0  0  0  0
    4.2310    1.2339   20.8207 C   0  0  0  0  0  0  0  0  0  0  0  0
    2.9533    0.3475   20.9759 C   0  0  0  0  0  0  0  0  0  0  0  0
    3.4271    1.1364   18.4613 N   0  0  0  0  0  0  0  0  0  0  0  0
    4.5146    1.2881   19.3794 C   0  0  0  0  0  0  0  0  0  0  0  0
    5.6564    1.4523   18.9618 O   0  0  0  0  0  0  0  0  0  0  0  0
    2.4684    0.9776   18.9507 H   0  0  0  0  0  0  0  0  0  0  0  0
    3.4282    1.1653   17.0579 C   0  0  0  0  0  0  0  0  0  0  0  0
    2.5461    0.1047   16.4149 C   0  0  0  0  0  0  0  0  0  0  0  0
    2.9368    2.8501   15.2769 N   0  0  0  0  0  0  0  0  0  0  0  0
    3.0120    2.5340   16.5302 C   0  0  0  0  0  0  0  0  0  0  0  0
    2.7406    3.3121   17.5213 O   0  0  0  0  0  0  0  0  0  0  0  0
    2.4340    4.0760   15.5412 H   0  0  0  0  0  0  0  0  0  0  0  0
    2.8481    3.2197   13.8446 C   0  0  0  0  0  0  0  0  0  0  0  0
    2.3601    4.5560   13.7542 C   0  0  0  0  0  0  0  0  0  0  0  0
    3.2765    5.4196   14.3173 O   0  0  0  0  0  0  0  0  0  0  0  0
    1.2819    5.3160   13.3113 N   0  0  0  0  0  0  0  0  0  0  0  0
   -0.0473    5.0080   12.8274 C   0  0  0  0  0  0  0  0  0  0  0  0
   -0.9062    5.9391   13.7173 C   0  0  0  0  0  0  0  0  0  0  0  0
   -0.0181    7.1449   13.8882 C   0  0  0  0  0  0  0  0  0  0  0  0
    1.2915    6.7936   13.2570 C   0  0  0  0  0  0  0  0  0  0  0  0
    1.3554    7.3202   11.8738 C   0  0  0  0  0  0  0  0  0  0  0  0
    0.3096    7.7219   11.2390 O   0  0  0  0  0  0  0  0  0  0  0  0
    2.5484    7.4235   11.1365 N   0  0  0  0  0  0  0  0  0  0  0  0
    3.7932    6.9531   11.6914 C   0  0  0  0  0  0  0  0  0  0  0  0
    2.5557    8.0261    9.8268 C   0  0  0  0  0  0  0  0  0  0  0  0
    2.5309    1.9986   13.1339 C   0  0  0  0  0  0  0  0  0  0  0  0
    0.9655    1.9845   11.0660 C   0  0  0  0  0  0  0  0  0  0  0  0
    2.2577    1.8441   11.7167 C   0  0  0  0  0  0  0  0  0  0  0  0
    3.3638    2.5948   10.9279 C   0  0  0  0  0  0  0  0  0  0  0  0
 66 67  1  0  0  0
 67 68  1  0  0  0
 67 65  1  0  0  0
 65 52  1  0  0  0
 52 48  1  0  0  0
 48 49  1  0  0  0
 49 50  2  0  0  0
 49 46  1  0  0  0
 46 47  1  0  0  0
 46 42  1  0  0  0
 42 43  1  0  0  0
 43 44  2  0  0  0
 43 40  1  0  0  0
 40 41  1  0  0  0
 40 36  1  0  0  0
 36 37  1  0  0  0
 37 38  2  0  0  0
 37  1  1  0  0  0
  1  2  1  0  0  0
  1  3  1  0  0  0
  3  4  1  0  0  0
  4  5  2  0  0  0
  4  7  1  0  0  0
  7  8  1  0  0  0
  7  9  1  0  0  0
  9 10  1  0  0  0
 10 11  2  0  0  0
 10 13  1  0  0  0
 13 14  1  0  0  0
 13 15  1  0  0  0
 15 16  1  0  0  0
 16 17  2  0  0  0
 16 19  1  0  0  0
 19 20  1  0  0  0
 19 21  1  0  0  0
 21 22  1  0  0  0
 22 23  2  0  0  0
 22 25  1  0  0  0
 25 26  1  0  0  0
 25 27  1  0  0  0
 27 28  1  0  0  0
 28 29  2  0  0  0
 28 31  1  0  0  0
 31 32  1  0  0  0
 31 33  1  0  0  0
 33 34  1  0  0  0
 33 35  2  0  0  0
 52 53  1  0  0  0
 53 54  2  0  0  0
 53 55  1  0  0  0
 55 56  1  0  0  0
 56 57  1  0  0  0
 57 58  1  0  0  0
 58 59  1  0  0  0
 59 60  1  0  0  0
 60 61  2  0  0  0
 60 62  1  0  0  0
 62 63  1  0  0  0
 62 64  1  0  0  0
 59 55  1  0  0  0
 48 51  1  0  0  0
 42 45  1  0  0  0
 36 39  1  0  0  0
  3  6  1  0  0  0
  9 12  1  0  0  0
 15 18  1  0  0  0
 21 24  1  0  0  0
 27 30  1  0  0  0
M  END
> <minimizedAffinity>
-7.99883

> <CNNscore>
0.3195655942

> <CNNaffinity>
7.5756554604

> <CNN_VS>
2.4209189415

> <CNNaffinity_variance>
0.5052939653

$$$$
[H]N(C(=O)[C@]([H])(C(=O)C([H])([H])[H])C([H])([H])[H])[C@]([H])(C(=O)N([H])[C@]([H])(C(=O)N([H])[C@]([H])(C(=O)N([H])[C@]([H])(C(=O)N([H])[C@]([H])(C(=O)N([H])[C@]([H])(C(=O)N([H])[C@]([H])(C(=O)N([H])[C@]([H])(C(=O)N1C([H])([H])C([H])([H])C([H])([H])[C@]1([H])C(=O)N(C([H])([H])[H])C([H])([H])[H])C([H])([H])C([H])(C([H])([H])[H])C([H])([H])[H])C([H])([H])[H])C([H])([H])[H])C([H])([H])[H])C([H])([H])[H])C([H])([H])[H])C([H])([H])[H])C([H])([H])[H]


 68 68  0  0  0  0  0  0  0  0999 V2000
    3.4752   11.6653   17.2293 C   0  0  0  0  0  0  0  0  0  0  0  0
    2.4744   11.0081   18.1757 C   0  0  0  0  0  0  0  0  0  0  0  0
    2.7408   12.6683   16.4091 N   0  0  0  0  0  0  0  0  0  0  0  0
    2.6380   13.9883   16.8602 C   0  0  0  0  0  0  0  0  0  0  0  0
    3.1485   14.3739   17.9717 O   0  0  0  0  0  0  0  0  0  0  0  0
    2.3358   12.3168   15.5227 H   0  0  0  0  0  0  0  0  0  0  0  0
    1.9177   15.0712   16.0725 C   0  0  0  0  0  0  0  0  0  0  0  0
    1.1707   14.4248   14.9685 C   0  0  0  0  0  0  0  0  0  0  0  0
    3.0207   15.9442   15.6242 N   0  0  0  0  0  0  0  0  0  0  0  0
    3.1910   17.2323   16.2391 C   0  0  0  0  0  0  0  0  0  0  0  0
    2.3279   17.5130   17.1324 O   0  0  0  0  0  0  0  0  0  0  0  0
    3.6389   15.6280   14.8978 H   0  0  0  0  0  0  0  0  0  0  0  0
    4.2810   18.1173   15.8574 C   0  0  0  0  0  0  0  0  0  0  0  0
    4.7753   17.8255   14.4300 C   0  0  0  0  0  0  0  0  0  0  0  0
    5.4326   17.9704   16.7491 N   0  0  0  0  0  0  0  0  0  0  0  0
    6.1535   16.8012   16.8004 C   0  0  0  0  0  0  0  0  0  0  0  0
    5.7925   15.8492   16.0190 O   0  0  0  0  0  0  0  0  0  0  0  0
    5.6314   18.8271   17.3347 H   0  0  0  0  0  0  0  0  0  0  0  0
    7.2979   16.5149   17.6774 C   0  0  0  0  0  0  0  0  0  0  0  0
    8.3426   15.6459   16.9875 C   0  0  0  0  0  0  0  0  0  0  0  0
    6.7950   15.8485   18.8704 N   0  0  0  0  0  0  0  0  0  0  0  0
    6.5120   14.5014   19.0306 C   0  0  0  0  0  0  0  0  0  0  0  0
    6.7187   13.7005   18.0676 O   0  0  0  0  0  0  0  0  0  0  0  0
    6.6276   16.5020   19.6934 H   0  0  0  0  0  0  0  0  0  0  0  0
    5.9492   13.9158   20.2969 C   0  0  0  0  0  0  0  0  0  0  0  0
    5.6169   12.4802   20.1499 C   0  0  0  0  0  0  0  0  0  0  0  0
    4.7323   14.6746   20.6253 N   0  0  0  0  0  0  0  0  0  0  0  0
    4.7095   15.4333   21.8324 C   0  0  0  0  0  0  0  0  0  0  0  0
    5.7637   15.3742   22.5586 O   0  0  0  0  0  0  0  0  0  0  0  0
    3.9297   14.6452   20.0068 H   0  0  0  0  0  0  0  0  0  0  0  0
    3.6188   16.2691   22.3279 C   0  0  0  0  0  0  0  0  0  0  0  0
    3.9228   17.7233   22.4810 C   0  0  0  0  0  0  0  0  0  0  0  0
    2.3710   16.0100   21.5286 C   0  0  0  0  0  0  0  0  0  0  0  0
    1.7940   17.1756   20.8158 C   0  0  0  0  0  0  0  0  0  0  0  0
    1.8586   14.9363   21.4615 O   0  0  0  0  0  0  0  0  0  0  0  0
    3.6499    9.2941   16.2549 N   0  0  0  0  0  0  0  0  0  0  0  0
    4.0988   10.6657   16.3562 C   0  0  0  0  0  0  0  0  0  0  0  0
    5.0873   11.0409   15.6598 O   0  0  0  0  0  0  0  0  0  0  0  0
    2.8428    9.0032   16.8365 H   0  0  0  0  0  0  0  0  0  0  0  0
    4.3528    8.4513   15.3577 C   0  0  0  0  0  0  0  0  0  0  0  0
    5.8384    8.4389   15.8426 C   0  0  0  0  0  0  0  0  0  0  0  0
    4.2510    6.1907   16.4075 N   0  0  0  0  0  0  0  0  0  0  0  0
    3.9320    7.0439   15.3034 C   0  0  0  0  0  0  0  0  0  0  0  0
    3.3260    6.5984   14.3342 O   0  0  0  0  0  0  0  0  0  0  0  0
    4.8060    6.6949   17.1959 H   0  0  0  0  0  0  0  0  0  0  0  0
    3.9533    4.8334   16.6065 C   0  0  0  0  0  0  0  0  0  0  0  0
    5.1726    3.9225   16.5931 C   0  0  0  0  0  0  0  0  0  0  0  0
    3.7459    4.3243   19.0458 N   0  0  0  0  0  0  0  0  0  0  0  0
    3.1947    4.6168   17.9114 C   0  0  0  0  0  0  0  0  0  0  0  0
    1.9326    4.7802   17.7067 O   0  0  0  0  0  0  0  0  0  0  0  0
    2.5748    4.3943   19.7159 H   0  0  0  0  0  0  0  0  0  0  0  0
    4.3693    3.9896   20.3479 C   0  0  0  0  0  0  0  0  0  0  0  0
    4.8630    5.1922   20.9326 C   0  0  0  0  0  0  0  0  0  0  0  0
    5.0554    5.0010   22.2851 O   0  0  0  0  0  0  0  0  0  0  0  0
    5.2156    6.5057   20.6385 N   0  0  0  0  0  0  0  0  0  0  0  0
    5.0624    7.3641   19.4829 C   0  0  0  0  0  0  0  0  0  0  0  0
    4.4357    8.6216   20.1329 C   0  0  0  0  0  0  0  0  0  0  0  0
    5.0968    8.6584   21.4869 C   0  0  0  0  0  0  0  0  0  0  0  0
    5.9002    7.4015   21.5952 C   0  0  0  0  0  0  0  0  0  0  0  0
    7.3137    7.6599   21.2343 C   0  0  0  0  0  0  0  0  0  0  0  0
    7.6696    8.6671   20.5154 O   0  0  0  0  0  0  0  0  0  0  0  0
    8.3806    6.8362   21.6354 N   0  0  0  0  0  0  0  0  0  0  0  0
    8.1313    5.6343   22.3916 C   0  0  0  0  0  0  0  0  0  0  0  0
    9.7428    7.1911   21.3244 C   0  0  0  0  0  0  0  0  0  0  0  0
    4.9235    2.6604   20.1976 C   0  0  0  0  0  0  0  0  0  0  0  0
    6.5019    1.6909   22.0130 C   0  0  0  0  0  0  0  0  0  0  0  0
    5.2659    1.7195   21.2485 C   0  0  0  0  0  0  0  0  0  0  0  0
    4.0320    1.5642   22.1773 C   0  0  0  0  0  0  0  0  0  0  0  0
 66 67  1  0  0  0
 67 68  1  0  0  0
 67 65  1  0  0  0
 65 52  1  0  0  0
 52 48  1  0  0  0
 48 49  1  0  0  0
 49 50  2  0  0  0
 49 46  1  0  0  0
 46 47  1  0  0  0
 46 42  1  0  0  0
 42 43  1  0  0  0
 43 44  2  0  0  0
 43 40  1  0  0  0
 40 41  1  0  0  0
 40 36  1  0  0  0
 36 37  1  0  0  0
 37 38  2  0  0  0
 37  1  1  0  0  0
  1  2  1  0  0  0
  1  3  1  0  0  0
  3  4  1  0  0  0
  4  5  2  0  0  0
  4  7  1  0  0  0
  7  8  1  0  0  0
  7  9  1  0  0  0
  9 10  1  0  0  0
 10 11  2  0  0  0
 10 13  1  0  0  0
 13 14  1  0  0  0
 13 15  1  0  0  0
 15 16  1  0  0  0
 16 17  2  0  0  0
 16 19  1  0  0  0
 19 20  1  0  0  0
 19 21  1  0  0  0
 21 22  1  0  0  0
 22 23  2  0  0  0
 22 25  1  0  0  0
 25 26  1  0  0  0
 25 27  1  0  0  0
 27 28  1  0  0  0
 28 29  2  0  0  0
 28 31  1  0  0  0
 31 32  1  0  0  0
 31 33  1  0  0  0
 33 34  1  0  0  0
 33 35  2  0  0  0
 52 53  1  0  0  0
 53 54  2  0  0  0
 53 55  1  0  0  0
 55 56  1  0  0  0
 56 57  1  0  0  0
 57 58  1  0  0  0
 58 59  1  0  0  0
 59 60  1  0  0  0
 60 61  2  0  0  0
 60 62  1  0  0  0
 62 63  1  0  0  0
 62 64  1  0  0  0
 59 55  1  0  0  0
 48 51  1  0  0  0
 42 45  1  0  0  0
 36 39  1  0  0  0
  3  6  1  0  0  0
  9 12  1  0  0  0
 15 18  1  0  0  0
 21 24  1  0  0  0
 27 30  1  0  0  0
M  END
> <minimizedAffinity>
-8.56404

> <CNNscore>
0.3065031469

> <CNNaffinity>
6.8536429405

> <CNN_VS>
2.1006631851

> <CNNaffinity_variance>
0.4814286828

$$$$
[H]N(C(=O)[C@]([H])(C(=O)C([H])([H])[H])C([H])([H])[H])[C@]([H])(C(=O)N([H])[C@]([H])(C(=O)N([H])[C@]([H])(C(=O)N([H])[C@]([H])(C(=O)N([H])[C@]([H])(C(=O)N([H])[C@]([H])(C(=O)N([H])[C@]([H])(C(=O)N([H])[C@]([H])(C(=O)N1C([H])([H])C([H])([H])C([H])([H])[C@]1([H])C(=O)N(C([H])([H])[H])C([H])([H])[H])C([H])([H])C([H])(C([H])([H])[H])C([H])([H])[H])C([H])([H])[H])C([H])([H])[H])C([H])([H])[H])C([H])([H])[H])C([H])([H])[H])C([H])([H])[H])C([H])([H])[H]


 68 68  0  0  0  0  0  0  0  0999 V2000
    4.0960    9.3295   14.1112 C   0  0  0  0  0  0  0  0  0  0  0  0
    4.2735   10.8356   14.2826 C   0  0  0  0  0  0  0  0  0  0  0  0
    4.4792    8.6736   15.3921 N   0  0  0  0  0  0  0  0  0  0  0  0
    3.9411    7.4241   15.7170 C   0  0  0  0  0  0  0  0  0  0  0  0
    3.1114    6.8158   14.9513 O   0  0  0  0  0  0  0  0  0  0  0  0
    5.1446    9.1997   15.9870 H   0  0  0  0  0  0  0  0  0  0  0  0
    4.2953    6.6857   16.9981 C   0  0  0  0  0  0  0  0  0  0  0  0
    5.5248    7.2918   17.5599 C   0  0  0  0  0  0  0  0  0  0  0  0
    4.4644    5.2919   16.5414 N   0  0  0  0  0  0  0  0  0  0  0  0
    3.4426    4.3261   16.8402 C   0  0  0  0  0  0  0  0  0  0  0  0
    2.4617    4.7813   17.5128 O   0  0  0  0  0  0  0  0  0  0  0  0
    5.2887    5.0358   16.0268 H   0  0  0  0  0  0  0  0  0  0  0  0
    3.5446    2.9479   16.3852 C   0  0  0  0  0  0  0  0  0  0  0  0
    2.3665    2.5629   15.4737 C   0  0  0  0  0  0  0  0  0  0  0  0
    3.5446    2.0079   17.5073 N   0  0  0  0  0  0  0  0  0  0  0  0
    4.4213    2.1462   18.5568 C   0  0  0  0  0  0  0  0  0  0  0  0
    5.2261    3.1455   18.5272 O   0  0  0  0  0  0  0  0  0  0  0  0
    2.8305    1.2344   17.4165 H   0  0  0  0  0  0  0  0  0  0  0  0
    4.5489    1.2514   19.7160 C   0  0  0  0  0  0  0  0  0  0  0  0
    3.3205    0.3667   19.8923 C   0  0  0  0  0  0  0  0  0  0  0  0
    4.7522    2.0746   20.8998 N   0  0  0  0  0  0  0  0  0  0  0  0
    5.8354    2.0597   21.7640 C   0  0  0  0  0  0  0  0  0  0  0  0
    6.8070    1.2754   21.5350 O   0  0  0  0  0  0  0  0  0  0  0  0
    3.9536    2.7483   21.1011 H   0  0  0  0  0  0  0  0  0  0  0  0
    5.9297    2.9231   22.9924 C   0  0  0  0  0  0  0  0  0  0  0  0
    5.0176    2.4687   24.0669 C   0  0  0  0  0  0  0  0  0  0  0  0
    5.5773    4.2937   22.5904 N   0  0  0  0  0  0  0  0  0  0  0  0
    6.6275    5.1856   22.2231 C   0  0  0  0  0  0  0  0  0  0  0  0
    7.8187    4.7183   22.2954 O   0  0  0  0  0  0  0  0  0  0  0  0
    4.6084    4.5916   22.5869 H   0  0  0  0  0  0  0  0  0  0  0  0
    6.4927    6.5688   21.7734 C   0  0  0  0  0  0  0  0  0  0  0  0
    5.0968    7.0661   21.5876 C   0  0  0  0  0  0  0  0  0  0  0  0
    7.3290    7.4723   22.6379 C   0  0  0  0  0  0  0  0  0  0  0  0
    8.4797    8.1337   21.9759 C   0  0  0  0  0  0  0  0  0  0  0  0
    7.0975    7.6573   23.7920 O   0  0  0  0  0  0  0  0  0  0  0  0
    4.4633    7.9439   11.9786 N   0  0  0  0  0  0  0  0  0  0  0  0
    4.9385    8.8276   13.0209 C   0  0  0  0  0  0  0  0  0  0  0  0
    6.1494    9.1967   13.0076 O   0  0  0  0  0  0  0  0  0  0  0  0
    3.4706    7.6475   12.0085 H   0  0  0  0  0  0  0  0  0  0  0  0
    5.3999    7.5537   10.9888 C   0  0  0  0  0  0  0  0  0  0  0  0
    5.8925    6.1264   11.3916 C   0  0  0  0  0  0  0  0  0  0  0  0
    5.2027    8.4804    8.6812 N   0  0  0  0  0  0  0  0  0  0  0  0
    4.8987    7.4364    9.6119 C   0  0  0  0  0  0  0  0  0  0  0  0
    4.2273    6.4719    9.2597 O   0  0  0  0  0  0  0  0  0  0  0  0
    5.7862    9.2894    9.1159 H   0  0  0  0  0  0  0  0  0  0  0  0
    4.8621    8.5990    7.3246 C   0  0  0  0  0  0  0  0  0  0  0  0
    3.4720    9.1689    7.0815 C   0  0  0  0  0  0  0  0  0  0  0  0
    6.5896    9.0333    5.5698 N   0  0  0  0  0  0  0  0  0  0  0  0
    5.8785    9.4482    6.5691 C   0  0  0  0  0  0  0  0  0  0  0  0
    5.9070   10.6341    7.0734 O   0  0  0  0  0  0  0  0  0  0  0  0
    7.1284   10.2531    5.3526 H   0  0  0  0  0  0  0  0  0  0  0  0
    7.4070    8.5661    4.4255 C   0  0  0  0  0  0  0  0  0  0  0  0
    8.6045    7.9847    4.9356 C   0  0  0  0  0  0  0  0  0  0  0  0
    8.2856    6.9935    5.8403 O   0  0  0  0  0  0  0  0  0  0  0  0
    9.9921    8.0586    4.8631 N   0  0  0  0  0  0  0  0  0  0  0  0
   10.9302    8.9890    4.2716 C   0  0  0  0  0  0  0  0  0  0  0  0
   11.8719    9.2578    5.4706 C   0  0  0  0  0  0  0  0  0  0  0  0
   11.8954    7.9268    6.1776 C   0  0  0  0  0  0  0  0  0  0  0  0
   10.8962    7.0623    5.4767 C   0  0  0  0  0  0  0  0  0  0  0  0
   11.5701    6.2012    4.4771 C   0  0  0  0  0  0  0  0  0  0  0  0
   12.6664    6.5456    3.8963 O   0  0  0  0  0  0  0  0  0  0  0  0
   11.0770    4.9475    4.0738 N   0  0  0  0  0  0  0  0  0  0  0  0
    9.8241    4.4549    4.5897 C   0  0  0  0  0  0  0  0  0  0  0  0
   11.8260    4.1196    3.1618 C   0  0  0  0  0  0  0  0  0  0  0  0
    7.1355    9.4824    3.3377 C   0  0  0  0  0  0  0  0  0  0  0  0
    7.5020    8.5212    0.9568 C   0  0  0  0  0  0  0  0  0  0  0  0
    6.7021    9.1554    1.9915 C   0  0  0  0  0  0  0  0  0  0  0  0
    5.2936    8.5093    2.0821 C   0  0  0  0  0  0  0  0  0  0  0  0
 66 67  1  0  0  0
 67 68  1  0  0  0
 67 65  1  0  0  0
 65 52  1  0  0  0
 52 48  1  0  0  0
 48 49  1  0  0  0
 49 50  2  0  0  0
 49 46  1  0  0  0
 46 47  1  0  0  0
 46 42  1  0  0  0
 42 43  1  0  0  0
 43 44  2  0  0  0
 43 40  1  0  0  0
 40 41  1  0  0  0
 40 36  1  0  0  0
 36 37  1  0  0  0
 37 38  2  0  0  0
 37  1  1  0  0  0
  1  2  1  0  0  0
  1  3  1  0  0  0
  3  4  1  0  0  0
  4  5  2  0  0  0
  4  7  1  0  0  0
  7  8  1  0  0  0
  7  9  1  0  0  0
  9 10  1  0  0  0
 10 11  2  0  0  0
 10 13  1  0  0  0
 13 14  1  0  0  0
 13 15  1  0  0  0
 15 16  1  0  0  0
 16 17  2  0  0  0
 16 19  1  0  0  0
 19 20  1  0  0  0
 19 21  1  0  0  0
 21 22  1  0  0  0
 22 23  2  0  0  0
 22 25  1  0  0  0
 25 26  1  0  0  0
 25 27  1  0  0  0
 27 28  1  0  0  0
 28 29  2  0  0  0
 28 31  1  0  0  0
 31 32  1  0  0  0
 31 33  1  0  0  0
 33 34  1  0  0  0
 33 35  2  0  0  0
 52 53  1  0  0  0
 53 54  2  0  0  0
 53 55  1  0  0  0
 55 56  1  0  0  0
 56 57  1  0  0  0
 57 58  1  0  0  0
 58 59  1  0  0  0
 59 60  1  0  0  0
 60 61  2  0  0  0
 60 62  1  0  0  0
 62 63  1  0  0  0
 62 64  1  0  0  0
 59 55  1  0  0  0
 48 51  1  0  0  0
 42 45  1  0  0  0
 36 39  1  0  0  0
  3  6  1  0  0  0
  9 12  1  0  0  0
 15 18  1  0  0  0
 21 24  1  0  0  0
 27 30  1  0  0  0
M  END
> <minimizedAffinity>
-7.86692

> <CNNscore>
0.3046904802

> <CNNaffinity>
6.4329347610

> <CNN_VS>
1.9600540400

> <CNNaffinity_variance>
0.4502525926

$$$$
[H]N(C(=O)[C@]([H])(C(=O)C([H])([H])[H])C([H])([H])[H])[C@]([H])(C(=O)N([H])[C@]([H])(C(=O)N([H])[C@]([H])(C(=O)N([H])[C@]([H])(C(=O)N([H])[C@]([H])(C(=O)N([H])[C@]([H])(C(=O)N([H])[C@]([H])(C(=O)N([H])[C@]([H])(C(=O)N1C([H])([H])C([H])([H])C([H])([H])[C@]1([H])C(=O)N(C([H])([H])[H])C([H])([H])[H])C([H])([H])C([H])(C([H])([H])[H])C([H])([H])[H])C([H])([H])[H])C([H])([H])[H])C([H])([H])[H])C([H])([H])[H])C([H])([H])[H])C([H])([H])[H])C([H])([H])[H]


 68 68  0  0  0  0  0  0  0  0999 V2000
    2.2437    3.6738   15.0495 C   0  0  0  0  0  0  0  0  0  0  0  0
    2.6954    2.2487   14.7424 C   0  0  0  0  0  0  0  0  0  0  0  0
    2.8999    4.5841   14.0704 N   0  0  0  0  0  0  0  0  0  0  0  0
    2.1143    5.3272   13.1833 C   0  0  0  0  0  0  0  0  0  0  0  0
    0.8343    5.2481   13.1709 O   0  0  0  0  0  0  0  0  0  0  0  0
    3.9349    4.6142   14.1058 H   0  0  0  0  0  0  0  0  0  0  0  0
    2.7099    6.2877   12.1660 C   0  0  0  0  0  0  0  0  0  0  0  0
    3.4332    5.4945   11.1451 C   0  0  0  0  0  0  0  0  0  0  0  0
    3.5819    7.1463   12.9918 N   0  0  0  0  0  0  0  0  0  0  0  0
    3.1057    8.4371   13.4080 C   0  0  0  0  0  0  0  0  0  0  0  0
    1.9394    8.7330   12.9909 O   0  0  0  0  0  0  0  0  0  0  0  0
    4.4950    6.8186   13.2542 H   0  0  0  0  0  0  0  0  0  0  0  0
    3.9118    9.3083   14.2495 C   0  0  0  0  0  0  0  0  0  0  0  0
    4.7693    8.5038   15.2417 C   0  0  0  0  0  0  0  0  0  0  0  0
    3.0791   10.2166   15.0396 N   0  0  0  0  0  0  0  0  0  0  0  0
    3.3508   11.5624   15.1049 C   0  0  0  0  0  0  0  0  0  0  0  0
    4.3502   11.9973   14.4273 O   0  0  0  0  0  0  0  0  0  0  0  0
    2.2841    9.7372   15.5442 H   0  0  0  0  0  0  0  0  0  0  0  0
    2.6200   12.5670   15.8908 C   0  0  0  0  0  0  0  0  0  0  0  0
    2.3339   13.8268   15.0822 C   0  0  0  0  0  0  0  0  0  0  0  0
    3.4206   12.8906   17.0632 N   0  0  0  0  0  0  0  0  0  0  0  0
    3.0608   12.7595   18.3951 C   0  0  0  0  0  0  0  0  0  0  0  0
    1.9217   12.2835   18.6909 O   0  0  0  0  0  0  0  0  0  0  0  0
    4.3847   13.2791   16.8355 H   0  0  0  0  0  0  0  0  0  0  0  0
    3.9484   13.1674   19.5392 C   0  0  0  0  0  0  0  0  0  0  0  0
    3.7137   14.5686   19.9572 C   0  0  0  0  0  0  0  0  0  0  0  0
    5.3402   13.0116   19.0887 N   0  0  0  0  0  0  0  0  0  0  0  0
    6.1570   12.0348   19.7306 C   0  0  0  0  0  0  0  0  0  0  0  0
    5.6081   11.3738   20.6815 O   0  0  0  0  0  0  0  0  0  0  0  0
    5.7047   13.5961   18.3450 H   0  0  0  0  0  0  0  0  0  0  0  0
    7.5462   11.7062   19.4213 C   0  0  0  0  0  0  0  0  0  0  0  0
    8.5743   12.2504   20.3581 C   0  0  0  0  0  0  0  0  0  0  0  0
    7.6838   10.2257   19.1926 C   0  0  0  0  0  0  0  0  0  0  0  0
    8.2747    9.4417   20.3043 C   0  0  0  0  0  0  0  0  0  0  0  0
    7.3450    9.6944   18.1812 O   0  0  0  0  0  0  0  0  0  0  0  0
    3.7145    3.4566   17.1453 N   0  0  0  0  0  0  0  0  0  0  0  0
    2.6181    4.0549   16.4152 C   0  0  0  0  0  0  0  0  0  0  0  0
    1.9302    4.9593   16.9733 O   0  0  0  0  0  0  0  0  0  0  0  0
    4.2632    2.7139   16.6747 H   0  0  0  0  0  0  0  0  0  0  0  0
    3.9556    3.9408   18.4555 C   0  0  0  0  0  0  0  0  0  0  0  0
    4.7663    2.8257   19.1913 C   0  0  0  0  0  0  0  0  0  0  0  0
    4.1309    6.3478   19.0868 N   0  0  0  0  0  0  0  0  0  0  0  0
    4.7564    5.1681   18.5714 C   0  0  0  0  0  0  0  0  0  0  0  0
    5.9344    5.1932   18.2299 O   0  0  0  0  0  0  0  0  0  0  0  0
    3.0812    6.2058   19.3356 H   0  0  0  0  0  0  0  0  0  0  0  0
    4.6709    7.6242   19.3096 C   0  0  0  0  0  0  0  0  0  0  0  0
    3.8042    8.7633   18.7924 C   0  0  0  0  0  0  0  0  0  0  0  0
    5.5839    7.0289   21.5600 N   0  0  0  0  0  0  0  0  0  0  0  0
    4.9534    7.8570   20.7898 C   0  0  0  0  0  0  0  0  0  0  0  0
    4.4780    9.0018   21.1431 O   0  0  0  0  0  0  0  0  0  0  0  0
    5.5644    7.8779   22.6109 H   0  0  0  0  0  0  0  0  0  0  0  0
    6.3047    6.0866   22.4479 C   0  0  0  0  0  0  0  0  0  0  0  0
    7.5821    6.6418   22.7511 C   0  0  0  0  0  0  0  0  0  0  0  0
    7.4217    7.9134   23.2612 O   0  0  0  0  0  0  0  0  0  0  0  0
    8.9467    6.3731   22.7107 N   0  0  0  0  0  0  0  0  0  0  0  0
    9.7597    5.3313   22.1195 C   0  0  0  0  0  0  0  0  0  0  0  0
   10.8120    6.1760   21.3605 C   0  0  0  0  0  0  0  0  0  0  0  0
   10.9884    7.3716   22.2611 C   0  0  0  0  0  0  0  0  0  0  0  0
    9.9678    7.2336   23.3457 C   0  0  0  0  0  0  0  0  0  0  0  0
   10.5740    6.6183   24.5494 C   0  0  0  0  0  0  0  0  0  0  0  0
   11.3927    5.6269   24.4800 O   0  0  0  0  0  0  0  0  0  0  0  0
   10.3098    7.0529   25.8604 N   0  0  0  0  0  0  0  0  0  0  0  0
    9.3630    8.1131   26.1017 C   0  0  0  0  0  0  0  0  0  0  0  0
   10.9994    6.4687   26.9836 C   0  0  0  0  0  0  0  0  0  0  0  0
    5.8657    4.7604   22.0666 C   0  0  0  0  0  0  0  0  0  0  0  0
    3.7499    3.5083   22.8927 C   0  0  0  0  0  0  0  0  0  0  0  0
    5.1770    3.7843   22.8911 C   0  0  0  0  0  0  0  0  0  0  0  0
    5.9995    2.4681   22.8684 C   0  0  0  0  0  0  0  0  0  0  0  0
 66 67  1  0  0  0
 67 68  1  0  0  0
 67 65  1  0  0  0
 65 52  1  0  0  0
 52 48  1  0  0  0
 48 49  1  0  0  0
 49 50  2  0  0  0
 49 46  1  0  0  0
 46 47  1  0  0  0
 46 42  1  0  0  0
 42 43  1  0  0  0
 43 44  2  0  0  0
 43 40  1  0  0  0
 40 41  1  0  0  0
 40 36  1  0  0  0
 36 37  1  0  0  0
 37 38  2  0  0  0
 37  1  1  0  0  0
  1  2  1  0  0  0
  1  3  1  0  0  0
  3  4  1  0  0  0
  4  5  2  0  0  0
  4  7  1  0  0  0
  7  8  1  0  0  0
  7  9  1  0  0  0
  9 10  1  0  0  0
 10 11  2  0  0  0
 10 13  1  0  0  0
 13 14  1  0  0  0
 13 15  1  0  0  0
 15 16  1  0  0  0
 16 17  2  0  0  0
 16 19  1  0  0  0
 19 20  1  0  0  0
 19 21  1  0  0  0
 21 22  1  0  0  0
 22 23  2  0  0  0
 22 25  1  0  0  0
 25 26  1  0  0  0
 25 27  1  0  0  0
 27 28  1  0  0  0
 28 29  2  0  0  0
 28 31  1  0  0  0
 31 32  1  0  0  0
 31 33  1  0  0  0
 33 34  1  0  0  0
 33 35  2  0  0  0
 52 53  1  0  0  0
 53 54  2  0  0  0
 53 55  1  0  0  0
 55 56  1  0  0  0
 56 57  1  0  0  0
 57 58  1  0  0  0
 58 59  1  0  0  0
 59 60  1  0  0  0
 60 61  2  0  0  0
 60 62  1  0  0  0
 62 63  1  0  0  0
 62 64  1  0  0  0
 59 55  1  0  0  0
 48 51  1  0  0  0
 42 45  1  0  0  0
 36 39  1  0  0  0
  3  6  1  0  0  0
  9 12  1  0  0  0
 15 18  1  0  0  0
 21 24  1  0  0  0
 27 30  1  0  0  0
M  END
> <minimizedAffinity>
-8.51612

> <CNNscore>
0.1871677190

> <CNNaffinity>
7.1479096413

> <CNN_VS>
1.3378579617

> <CNNaffinity_variance>
0.5836372375

$$$$
[H]N(C(=O)[C@]([H])(C(=O)C([H])([H])[H])C([H])([H])[H])[C@]([H])(C(=O)N([H])[C@]([H])(C(=O)N([H])[C@]([H])(C(=O)N([H])[C@]([H])(C(=O)N([H])[C@]([H])(C(=O)N([H])[C@]([H])(C(=O)N([H])[C@]([H])(C(=O)N([H])[C@]([H])(C(=O)N1C([H])([H])C([H])([H])C([H])([H])[C@]1([H])C(=O)N(C([H])([H])[H])C([H])([H])[H])C([H])([H])C([H])(C([H])([H])[H])C([H])([H])[H])C([H])([H])[H])C([H])([H])[H])C([H])([H])[H])C([H])([H])[H])C([H])([H])[H])C([H])([H])[H])C([H])([H])[H]


 68 68  0  0  0  0  0  0  0  0999 V2000
    2.1895    4.3851   14.3020 C   0  0  0  0  0  0  0  0  0  0  0  0
    3.3155    4.0145   13.3407 C   0  0  0  0  0  0  0  0  0  0  0  0
    1.4836    5.5726   13.7457 N   0  0  0  0  0  0  0  0  0  0  0  0
    0.2337    5.4122   13.1387 C   0  0  0  0  0  0  0  0  0  0  0  0
   -0.3330    4.2669   13.0304 O   0  0  0  0  0  0  0  0  0  0  0  0
    1.9769    6.4782   13.8450 H   0  0  0  0  0  0  0  0  0  0  0  0
   -0.5541    6.5775   12.5613 C   0  0  0  0  0  0  0  0  0  0  0  0
   -1.8776    6.6191   13.2256 C   0  0  0  0  0  0  0  0  0  0  0  0
   -0.6120    6.2574   11.1212 N   0  0  0  0  0  0  0  0  0  0  0  0
    0.3027    6.9043   10.2207 C   0  0  0  0  0  0  0  0  0  0  0  0
    1.0920    7.7374   10.7728 O   0  0  0  0  0  0  0  0  0  0  0  0
   -1.2871    5.5914   10.7884 H   0  0  0  0  0  0  0  0  0  0  0  0
    0.3096    6.6002    8.7978 C   0  0  0  0  0  0  0  0  0  0  0  0
    0.9530    5.2321    8.5133 C   0  0  0  0  0  0  0  0  0  0  0  0
    1.0651    7.5967    8.0369 N   0  0  0  0  0  0  0  0  0  0  0  0
    0.4300    8.5388    7.2633 C   0  0  0  0  0  0  0  0  0  0  0  0
   -0.8533    8.5265    7.2512 O   0  0  0  0  0  0  0  0  0  0  0  0
    2.1130    7.5055    8.1361 H   0  0  0  0  0  0  0  0  0  0  0  0
    1.0716    9.5613    6.4245 C   0  0  0  0  0  0  0  0  0  0  0  0
    0.0636   10.5635    5.8746 C   0  0  0  0  0  0  0  0  0  0  0  0
    1.7562    8.8832    5.3328 N   0  0  0  0  0  0  0  0  0  0  0  0
    3.0576    8.4071    5.3170 C   0  0  0  0  0  0  0  0  0  0  0  0
    3.7786    8.5242    6.3552 O   0  0  0  0  0  0  0  0  0  0  0  0
    1.1632    8.7639    4.4574 H   0  0  0  0  0  0  0  0  0  0  0  0
    3.6899    7.7579    4.1162 C   0  0  0  0  0  0  0  0  0  0  0  0
    3.4331    6.3002    4.0682 C   0  0  0  0  0  0  0  0  0  0  0  0
    5.1380    8.0032    4.1995 N   0  0  0  0  0  0  0  0  0  0  0  0
    5.8699    8.1699    2.9871 C   0  0  0  0  0  0  0  0  0  0  0  0
    5.1974    8.0689    1.9010 O   0  0  0  0  0  0  0  0  0  0  0  0
    5.5984    8.0415    5.1018 H   0  0  0  0  0  0  0  0  0  0  0  0
    7.2981    8.4442    2.8501 C   0  0  0  0  0  0  0  0  0  0  0  0
    7.7319    9.0340    1.5484 C   0  0  0  0  0  0  0  0  0  0  0  0
    7.7867    9.2230    4.0408 C   0  0  0  0  0  0  0  0  0  0  0  0
    8.8196    8.5645    4.8771 C   0  0  0  0  0  0  0  0  0  0  0  0
    7.3777   10.3081    4.3146 O   0  0  0  0  0  0  0  0  0  0  0  0
    4.1354    4.7441   15.9412 N   0  0  0  0  0  0  0  0  0  0  0  0
    2.7230    4.6981   15.6316 C   0  0  0  0  0  0  0  0  0  0  0  0
    1.8853    4.9368   16.5503 O   0  0  0  0  0  0  0  0  0  0  0  0
    4.8067    4.5405   15.1781 H   0  0  0  0  0  0  0  0  0  0  0  0
    4.4921    5.0707   17.2737 C   0  0  0  0  0  0  0  0  0  0  0  0
    5.7562    4.2155   17.6099 C   0  0  0  0  0  0  0  0  0  0  0  0
    4.5163    7.0450   18.7982 N   0  0  0  0  0  0  0  0  0  0  0  0
    4.8660    6.4679   17.5359 C   0  0  0  0  0  0  0  0  0  0  0  0
    5.4589    7.1360   16.6950 O   0  0  0  0  0  0  0  0  0  0  0  0
    3.9767    6.3614   19.4503 H   0  0  0  0  0  0  0  0  0  0  0  0
    4.7682    8.3334   19.2952 C   0  0  0  0  0  0  0  0  0  0  0  0
    3.6243    9.3147   19.0832 C   0  0  0  0  0  0  0  0  0  0  0  0
    5.7703    7.3459   21.3622 N   0  0  0  0  0  0  0  0  0  0  0  0
    5.1142    8.2981   20.7798 C   0  0  0  0  0  0  0  0  0  0  0  0
    4.6624    9.3612   21.3516 O   0  0  0  0  0  0  0  0  0  0  0  0
    5.8012    7.9934   22.5477 H   0  0  0  0  0  0  0  0  0  0  0  0
    6.5208    6.2603   22.0362 C   0  0  0  0  0  0  0  0  0  0  0  0
    7.8095    6.7565   22.3898 C   0  0  0  0  0  0  0  0  0  0  0  0
    8.7513    6.2551   21.5156 O   0  0  0  0  0  0  0  0  0  0  0  0
    8.4746    7.5610   23.3098 N   0  0  0  0  0  0  0  0  0  0  0  0
    8.1056    8.1964   24.5571 C   0  0  0  0  0  0  0  0  0  0  0  0
    9.2610    7.7308   25.4763 C   0  0  0  0  0  0  0  0  0  0  0  0
   10.4371    7.6903   24.5345 C   0  0  0  0  0  0  0  0  0  0  0  0
    9.8905    7.9637   23.1694 C   0  0  0  0  0  0  0  0  0  0  0  0
   10.0521    9.3958   22.8262 C   0  0  0  0  0  0  0  0  0  0  0  0
    9.0668   10.2246   22.8402 O   0  0  0  0  0  0  0  0  0  0  0  0
   11.2800    9.9713   22.4541 N   0  0  0  0  0  0  0  0  0  0  0  0
   12.4620    9.1550   22.3311 C   0  0  0  0  0  0  0  0  0  0  0  0
   11.3877   11.3893   22.2171 C   0  0  0  0  0  0  0  0  0  0  0  0
    6.0655    5.0243   21.4347 C   0  0  0  0  0  0  0  0  0  0  0  0
    4.3254    3.1635   20.9482 C   0  0  0  0  0  0  0  0  0  0  0  0
    4.7392    4.4391   21.5089 C   0  0  0  0  0  0  0  0  0  0  0  0
    4.2204    4.6038   22.9625 C   0  0  0  0  0  0  0  0  0  0  0  0
 66 67  1  0  0  0
 67 68  1  0  0  0
 67 65  1  0  0  0
 65 52  1  0  0  0
 52 48  1  0  0  0
 48 49  1  0  0  0
 49 50  2  0  0  0
 49 46  1  0  0  0
 46 47  1  0  0  0
 46 42  1  0  0  0
 42 43  1  0  0  0
 43 44  2  0  0  0
 43 40  1  0  0  0
 40 41  1  0  0  0
 40 36  1  0  0  0
 36 37  1  0  0  0
 37 38  2  0  0  0
 37  1  1  0  0  0
  1  2  1  0  0  0
  1  3  1  0  0  0
  3  4  1  0  0  0
  4  5  2  0  0  0
  4  7  1  0  0  0
  7  8  1  0  0  0
  7  9  1  0  0  0
  9 10  1  0  0  0
 10 11  2  0  0  0
 10 13  1  0  0  0
 13 14  1  0  0  0
 13 15  1  0  0  0
 15 16  1  0  0  0
 16 17  2  0  0  0
 16 19  1  0  0  0
 19 20  1  0  0  0
 19 21  1  0  0  0
 21 22  1  0  0  0
 22 23  2  0  0  0
 22 25  1  0  0  0
 25 26  1  0  0  0
 25 27  1  0  0  0
 27 28  1  0  0  0
 28 29  2  0  0  0
 28 31  1  0  0  0
 31 32  1  0  0  0
 31 33  1  0  0  0
 33 34  1  0  0  0
 33 35  2  0  0  0
 52 53  1  0  0  0
 53 54  2  0  0  0
 53 55  1  0  0  0
 55 56  1  0  0  0
 56 57  1  0  0  0
 57 58  1  0  0  0
 58 59  1  0  0  0
 59 60  1  0  0  0
 60 61  2  0  0  0
 60 62  1  0  0  0
 62 63  1  0  0  0
 62 64  1  0  0  0
 59 55  1  0  0  0
 48 51  1  0  0  0
 42 45  1  0  0  0
 36 39  1  0  0  0
  3  6  1  0  0  0
  9 12  1  0  0  0
 15 18  1  0  0  0
 21 24  1  0  0  0
 27 30  1  0  0  0
M  END
> <minimizedAffinity>
-7.81313

> <CNNscore>
0.1863149554

> <CNNaffinity>
5.9095001221

> <CNN_VS>
1.1010282040

> <CNNaffinity_variance>
0.4979542792

$$$$
[H]N(C(=O)[C@]([H])(C(=O)C([H])([H])[H])C([H])([H])[H])[C@]([H])(C(=O)N([H])[C@]([H])(C(=O)N([H])[C@]([H])(C(=O)N([H])[C@]([H])(C(=O)N([H])[C@]([H])(C(=O)N([H])[C@]([H])(C(=O)N([H])[C@]([H])(C(=O)N([H])[C@]([H])(C(=O)N1C([H])([H])C([H])([H])C([H])([H])[C@@]1([H])C(=O)N1C(=O)C([H])([H])C([H])([H])C1([H])[H])C([H])([H])C([H])(C([H])([H])[H])C([H])([H])[H])C([H])([H])[H])C([H])([H])[H])C([H])([H])[H])C([H])([H])[H])C([H])([H])[H])C([H])([H])[H])C([H])([H])[H]


 71 72  0  0  0  0  0  0  0  0999 V2000
    4.1508    1.9395   18.0659 N   0  0  0  0  0  0  0  0  0  0  0  0
    3.6892    1.0070   18.9935 C   0  0  0  0  0  0  0  0  0  0  0  0
    2.8982    0.0973   18.5808 O   0  0  0  0  0  0  0  0  0  0  0  0
    4.7947    2.7079   18.3709 H   0  0  0  0  0  0  0  0  0  0  0  0
    4.1014    1.0656   20.4040 C   0  0  0  0  0  0  0  0  0  0  0  0
    2.9840    0.4649   21.2548 C   0  0  0  0  0  0  0  0  0  0  0  0
    4.2326    2.4487   20.7828 N   0  0  0  0  0  0  0  0  0  0  0  0
    5.3223    2.8232   21.6454 C   0  0  0  0  0  0  0  0  0  0  0  0
    6.1026    1.9488   22.0554 O   0  0  0  0  0  0  0  0  0  0  0  0
    3.5381    3.1413   20.4328 H   0  0  0  0  0  0  0  0  0  0  0  0
    5.5041    4.2285   22.0350 C   0  0  0  0  0  0  0  0  0  0  0  0
    4.2821    4.6820   22.8790 C   0  0  0  0  0  0  0  0  0  0  0  0
    5.4765    5.0898   20.8374 N   0  0  0  0  0  0  0  0  0  0  0  0
    6.3186    6.2123   20.8630 C   0  0  0  0  0  0  0  0  0  0  0  0
    7.0544    6.4322   21.8802 O   0  0  0  0  0  0  0  0  0  0  0  0
    4.8417    4.7973   20.0829 H   0  0  0  0  0  0  0  0  0  0  0  0
    6.3632    7.1636   19.7132 C   0  0  0  0  0  0  0  0  0  0  0  0
    7.5791    6.8107   18.9021 C   0  0  0  0  0  0  0  0  0  0  0  0
    6.4723    8.4888   20.3111 N   0  0  0  0  0  0  0  0  0  0  0  0
    6.3326    9.6721   19.5803 C   0  0  0  0  0  0  0  0  0  0  0  0
    6.0959    9.5959   18.3553 O   0  0  0  0  0  0  0  0  0  0  0  0
    6.6672    8.5094   21.3286 H   0  0  0  0  0  0  0  0  0  0  0  0
    6.4560   11.0184   20.2345 C   0  0  0  0  0  0  0  0  0  0  0  0
    7.0662   10.9338   21.6016 C   0  0  0  0  0  0  0  0  0  0  0  0
    5.1320   11.6308   20.2476 N   0  0  0  0  0  0  0  0  0  0  0  0
    4.7321   12.6470   19.3654 C   0  0  0  0  0  0  0  0  0  0  0  0
    5.4811   13.1159   18.5050 O   0  0  0  0  0  0  0  0  0  0  0  0
    4.4606   11.2633   20.9832 H   0  0  0  0  0  0  0  0  0  0  0  0
    3.3178   13.1686   19.4852 C   0  0  0  0  0  0  0  0  0  0  0  0
    2.7583   13.1250   18.0647 C   0  0  0  0  0  0  0  0  0  0  0  0
    3.3697   14.5210   19.9643 N   0  0  0  0  0  0  0  0  0  0  0  0
    2.4147   15.1018   20.8432 C   0  0  0  0  0  0  0  0  0  0  0  0
    1.4571   14.3993   21.2398 O   0  0  0  0  0  0  0  0  0  0  0  0
    4.1915   15.1112   19.6250 H   0  0  0  0  0  0  0  0  0  0  0  0
    2.5881   16.5457   21.2649 C   0  0  0  0  0  0  0  0  0  0  0  0
    1.2791   17.0894   21.7829 C   0  0  0  0  0  0  0  0  0  0  0  0
    3.6590   16.6856   22.2536 C   0  0  0  0  0  0  0  0  0  0  0  0
    4.0957   18.0020   22.7980 C   0  0  0  0  0  0  0  0  0  0  0  0
    4.2405   15.6902   22.6712 O   0  0  0  0  0  0  0  0  0  0  0  0
    3.7439    1.8575   16.6665 C   0  0  0  0  0  0  0  0  0  0  0  0
    2.5568    0.9663   16.4683 C   0  0  0  0  0  0  0  0  0  0  0  0
    2.5188    3.5912   15.2594 N   0  0  0  0  0  0  0  0  0  0  0  0
    3.5540    3.2252   16.1768 C   0  0  0  0  0  0  0  0  0  0  0  0
    4.3383    4.1406   16.5800 O   0  0  0  0  0  0  0  0  0  0  0  0
    1.8755    2.8421   14.9351 H   0  0  0  0  0  0  0  0  0  0  0  0
    2.3547    4.9349   14.8051 C   0  0  0  0  0  0  0  0  0  0  0  0
    3.5954    5.7738   14.7857 C   0  0  0  0  0  0  0  0  0  0  0  0
    1.9321    6.1206   12.6786 N   0  0  0  0  0  0  0  0  0  0  0  0
    1.7182    4.9670   13.4531 C   0  0  0  0  0  0  0  0  0  0  0  0
    1.0385    3.9880   13.0846 O   0  0  0  0  0  0  0  0  0  0  0  0
    2.5087    6.8991   13.0350 H   0  0  0  0  0  0  0  0  0  0  0  0
    1.3033    6.2252   11.2952 C   0  0  0  0  0  0  0  0  0  0  0  0
    2.3617    6.7582   10.4976 C   0  0  0  0  0  0  0  0  0  0  0  0
    1.9026    7.7952    9.7560 O   0  0  0  0  0  0  0  0  0  0  0  0
    3.6971    6.5287   10.2610 N   0  0  0  0  0  0  0  0  0  0  0  0
    4.7335    5.6106   10.6176 C   0  0  0  0  0  0  0  0  0  0  0  0
    5.7597    6.5977   11.2017 C   0  0  0  0  0  0  0  0  0  0  0  0
    5.8087    7.5716   10.0044 C   0  0  0  0  0  0  0  0  0  0  0  0
    4.4639    7.4842    9.3697 C   0  0  0  0  0  0  0  0  0  0  0  0
    4.4415    6.9586    8.0050 C   0  0  0  0  0  0  0  0  0  0  0  0
    4.0908    5.7466    7.7794 O   0  0  0  0  0  0  0  0  0  0  0  0
    4.8024    7.7709    6.9016 N   0  0  0  0  0  0  0  0  0  0  0  0
    4.8097    7.3511    5.4893 C   0  0  0  0  0  0  0  0  0  0  0  0
    5.0294    8.6174    4.7001 C   0  0  0  0  0  0  0  0  0  0  0  0
    5.9395    9.3885    5.6603 C   0  0  0  0  0  0  0  0  0  0  0  0
    5.1990    9.1311    6.9462 C   0  0  0  0  0  0  0  0  0  0  0  0
    4.9973    9.9657    7.8384 O   0  0  0  0  0  0  0  0  0  0  0  0
   -0.0122    6.7655   11.5304 C   0  0  0  0  0  0  0  0  0  0  0  0
   -0.9785    4.8112   10.3116 C   0  0  0  0  0  0  0  0  0  0  0  0
   -1.2407    6.1424   11.0078 C   0  0  0  0  0  0  0  0  0  0  0  0
   -2.1340    5.7430   12.2178 C   0  0  0  0  0  0  0  0  0  0  0  0
 69 70  1  0  0  0
 70 71  1  0  0  0
 70 68  1  0  0  0
 68 52  1  0  0  0
 52 48  1  0  0  0
 48 49  1  0  0  0
 49 50  2  0  0  0
 49 46  1  0  0  0
 46 47  1  0  0  0
 46 42  1  0  0  0
 42 43  1  0  0  0
 43 44  2  0  0  0
 43 40  1  0  0  0
 40 41  1  0  0  0
 40  1  1  0  0  0
  1  2  1  0  0  0
  2  3  2  0  0  0
  2  5  1  0  0  0
  5  6  1  0  0  0
  5  7  1  0  0  0
  7  8  1  0  0  0
  8  9  2  0  0  0
  8 11  1  0  0  0
 11 12  1  0  0  0
 11 13  1  0  0  0
 13 14  1  0  0  0
 14 15  2  0  0  0
 14 17  1  0  0  0
 17 18  1  0  0  0
 17 19  1  0  0  0
 19 20  1  0  0  0
 20 21  2  0  0  0
 20 23  1  0  0  0
 23 24  1  0  0  0
 23 25  1  0  0  0
 25 26  1  0  0  0
 26 27  2  0  0  0
 26 29  1  0  0  0
 29 30  1  0  0  0
 29 31  1  0  0  0
 31 32  1  0  0  0
 32 33  2  0  0  0
 32 35  1  0  0  0
 35 36  1  0  0  0
 35 37  1  0  0  0
 37 38  1  0  0  0
 37 39  2  0  0  0
 52 53  1  0  0  0
 53 54  2  0  0  0
 53 55  1  0  0  0
 55 56  1  0  0  0
 56 57  1  0  0  0
 57 58  1  0  0  0
 58 59  1  0  0  0
 59 60  1  0  0  0
 60 61  2  0  0  0
 60 62  1  0  0  0
 62 63  1  0  0  0
 63 64  1  0  0  0
 64 65  1  0  0  0
 65 66  1  0  0  0
 66 67  2  0  0  0
 59 55  1  0  0  0
 66 62  1  0  0  0
 48 51  1  0  0  0
 42 45  1  0  0  0
  1  4  1  0  0  0
  7 10  1  0  0  0
 13 16  1  0  0  0
 19 22  1  0  0  0
 25 28  1  0  0  0
 31 34  1  0  0  0
M  END
> <minimizedAffinity>
-9.04503

> <CNNscore>
0.3578705788

> <CNNaffinity>
7.1142759323

> <CNN_VS>
2.5459899902

> <CNNaffinity_variance>
0.2037444413

$$$$
[H]N(C(=O)[C@]([H])(C(=O)C([H])([H])[H])C([H])([H])[H])[C@]([H])(C(=O)N([H])[C@]([H])(C(=O)N([H])[C@]([H])(C(=O)N([H])[C@]([H])(C(=O)N([H])[C@]([H])(C(=O)N([H])[C@]([H])(C(=O)N([H])[C@]([H])(C(=O)N([H])[C@]([H])(C(=O)N1C([H])([H])C([H])([H])C([H])([H])[C@@]1([H])C(=O)N1C(=O)C([H])([H])C([H])([H])C1([H])[H])C([H])([H])C([H])(C([H])([H])[H])C([H])([H])[H])C([H])([H])[H])C([H])([H])[H])C([H])([H])[H])C([H])([H])[H])C([H])([H])[H])C([H])([H])[H])C([H])([H])[H]


 71 72  0  0  0  0  0  0  0  0999 V2000
    3.9853    7.9914   19.8468 N   0  0  0  0  0  0  0  0  0  0  0  0
    4.3312    6.6658   19.5894 C   0  0  0  0  0  0  0  0  0  0  0  0
    5.4794    6.4364   19.0868 O   0  0  0  0  0  0  0  0  0  0  0  0
    3.0454    8.2191   20.2505 H   0  0  0  0  0  0  0  0  0  0  0  0
    3.4048    5.5636   19.8890 C   0  0  0  0  0  0  0  0  0  0  0  0
    3.5708    5.1850   21.3595 C   0  0  0  0  0  0  0  0  0  0  0  0
    3.7905    4.4189   19.1052 N   0  0  0  0  0  0  0  0  0  0  0  0
    3.0727    4.1483   17.8872 C   0  0  0  0  0  0  0  0  0  0  0  0
    2.1332    4.8894   17.5566 O   0  0  0  0  0  0  0  0  0  0  0  0
    4.5695    3.8126   19.4372 H   0  0  0  0  0  0  0  0  0  0  0  0
    3.4520    3.0034   17.0475 C   0  0  0  0  0  0  0  0  0  0  0  0
    5.0009    2.9185   16.9767 C   0  0  0  0  0  0  0  0  0  0  0  0
    3.0226    3.2369   15.6554 N   0  0  0  0  0  0  0  0  0  0  0  0
    2.5119    2.1235   14.9703 C   0  0  0  0  0  0  0  0  0  0  0  0
    2.4343    0.9956   15.5587 O   0  0  0  0  0  0  0  0  0  0  0  0
    3.1337    4.1961   15.3013 H   0  0  0  0  0  0  0  0  0  0  0  0
    2.0605    2.2370   13.5518 C   0  0  0  0  0  0  0  0  0  0  0  0
    3.2891    2.4868   12.7218 C   0  0  0  0  0  0  0  0  0  0  0  0
    1.1452    3.3715   13.5262 N   0  0  0  0  0  0  0  0  0  0  0  0
    0.3430    3.6832   12.4247 C   0  0  0  0  0  0  0  0  0  0  0  0
    0.4048    2.9528   11.4122 O   0  0  0  0  0  0  0  0  0  0  0  0
    1.1219    3.9511   14.3848 H   0  0  0  0  0  0  0  0  0  0  0  0
   -0.5847    4.8641   12.4379 C   0  0  0  0  0  0  0  0  0  0  0  0
   -1.5578    4.8372   11.2974 C   0  0  0  0  0  0  0  0  0  0  0  0
    0.2322    6.0728   12.4505 N   0  0  0  0  0  0  0  0  0  0  0  0
    0.3928    6.8959   13.5763 C   0  0  0  0  0  0  0  0  0  0  0  0
   -0.1591    6.6655   14.6550 O   0  0  0  0  0  0  0  0  0  0  0  0
    0.7147    6.3134   11.5361 H   0  0  0  0  0  0  0  0  0  0  0  0
    1.2908    8.1053   13.4433 C   0  0  0  0  0  0  0  0  0  0  0  0
    1.6663    8.1586   11.9637 C   0  0  0  0  0  0  0  0  0  0  0  0
    2.4587    7.8972   14.2517 N   0  0  0  0  0  0  0  0  0  0  0  0
    3.2064    8.9366   14.8702 C   0  0  0  0  0  0  0  0  0  0  0  0
    2.8334   10.1215   14.7126 O   0  0  0  0  0  0  0  0  0  0  0  0
    2.7670    6.8843   14.3845 H   0  0  0  0  0  0  0  0  0  0  0  0
    4.4249    8.5747   15.6929 C   0  0  0  0  0  0  0  0  0  0  0  0
    4.4455    7.0881   15.9523 C   0  0  0  0  0  0  0  0  0  0  0  0
    5.6574    9.0258   15.0439 C   0  0  0  0  0  0  0  0  0  0  0  0
    5.9087    8.8756   13.5830 C   0  0  0  0  0  0  0  0  0  0  0  0
    6.5408    9.5558   15.7088 O   0  0  0  0  0  0  0  0  0  0  0  0
    4.9227    9.0721   19.5577 C   0  0  0  0  0  0  0  0  0  0  0  0
    4.2586   10.2444   18.9040 C   0  0  0  0  0  0  0  0  0  0  0  0
    6.9296    9.9829   20.8342 N   0  0  0  0  0  0  0  0  0  0  0  0
    5.6239    9.3986   20.8020 C   0  0  0  0  0  0  0  0  0  0  0  0
    5.0555    9.1583   21.9132 O   0  0  0  0  0  0  0  0  0  0  0  0
    7.3903   10.1833   19.9245 H   0  0  0  0  0  0  0  0  0  0  0  0
    7.5850   10.2961   22.0636 C   0  0  0  0  0  0  0  0  0  0  0  0
    9.0629   10.0548   22.0956 C   0  0  0  0  0  0  0  0  0  0  0  0
    6.9899   12.6131   21.4443 N   0  0  0  0  0  0  0  0  0  0  0  0
    7.3083   11.7074   22.4711 C   0  0  0  0  0  0  0  0  0  0  0  0
    7.3743   12.0085   23.6798 O   0  0  0  0  0  0  0  0  0  0  0  0
    6.9459   12.3050   20.4601 H   0  0  0  0  0  0  0  0  0  0  0  0
    6.7076   14.0702   21.7872 C   0  0  0  0  0  0  0  0  0  0  0  0
    5.5259   14.3565   21.0376 C   0  0  0  0  0  0  0  0  0  0  0  0
    5.3761   13.4443   20.0470 O   0  0  0  0  0  0  0  0  0  0  0  0
    4.5059   15.2793   21.0241 N   0  0  0  0  0  0  0  0  0  0  0  0
    4.1007   16.4780   21.6897 C   0  0  0  0  0  0  0  0  0  0  0  0
    2.7109   16.0389   22.1838 C   0  0  0  0  0  0  0  0  0  0  0  0
    2.1600   15.5458   20.8281 C   0  0  0  0  0  0  0  0  0  0  0  0
    3.3525   15.0908   20.0599 C   0  0  0  0  0  0  0  0  0  0  0  0
    3.6445   15.8438   18.8406 C   0  0  0  0  0  0  0  0  0  0  0  0
    4.2925   16.9483   18.8964 O   0  0  0  0  0  0  0  0  0  0  0  0
    3.2236   15.3743   17.5717 N   0  0  0  0  0  0  0  0  0  0  0  0
    3.4671   16.0435   16.2819 C   0  0  0  0  0  0  0  0  0  0  0  0
    3.0420   15.0478   15.2318 C   0  0  0  0  0  0  0  0  0  0  0  0
    1.8783   14.3626   15.9539 C   0  0  0  0  0  0  0  0  0  0  0  0
    2.5158   14.1753   17.3054 C   0  0  0  0  0  0  0  0  0  0  0  0
    2.4185   13.1626   18.0113 O   0  0  0  0  0  0  0  0  0  0  0  0
    7.9947   14.7166   21.7284 C   0  0  0  0  0  0  0  0  0  0  0  0
    9.2498   16.6691   22.6508 C   0  0  0  0  0  0  0  0  0  0  0  0
    8.6610   15.2869   22.9122 C   0  0  0  0  0  0  0  0  0  0  0  0
    7.5767   15.5591   23.9945 C   0  0  0  0  0  0  0  0  0  0  0  0
 69 70  1  0  0  0
 70 71  1  0  0  0
 70 68  1  0  0  0
 68 52  1  0  0  0
 52 48  1  0  0  0
 48 49  1  0  0  0
 49 50  2  0  0  0
 49 46  1  0  0  0
 46 47  1  0  0  0
 46 42  1  0  0  0
 42 43  1  0  0  0
 43 44  2  0  0  0
 43 40  1  0  0  0
 40 41  1  0  0  0
 40  1  1  0  0  0
  1  2  1  0  0  0
  2  3  2  0  0  0
  2  5  1  0  0  0
  5  6  1  0  0  0
  5  7  1  0  0  0
  7  8  1  0  0  0
  8  9  2  0  0  0
  8 11  1  0  0  0
 11 12  1  0  0  0
 11 13  1  0  0  0
 13 14  1  0  0  0
 14 15  2  0  0  0
 14 17  1  0  0  0
 17 18  1  0  0  0
 17 19  1  0  0  0
 19 20  1  0  0  0
 20 21  2  0  0  0
 20 23  1  0  0  0
 23 24  1  0  0  0
 23 25  1  0  0  0
 25 26  1  0  0  0
 26 27  2  0  0  0
 26 29  1  0  0  0
 29 30  1  0  0  0
 29 31  1  0  0  0
 31 32  1  0  0  0
 32 33  2  0  0  0
 32 35  1  0  0  0
 35 36  1  0  0  0
 35 37  1  0  0  0
 37 38  1  0  0  0
 37 39  2  0  0  0
 52 53  1  0  0  0
 53 54  2  0  0  0
 53 55  1  0  0  0
 55 56  1  0  0  0
 56 57  1  0  0  0
 57 58  1  0  0  0
 58 59  1  0  0  0
 59 60  1  0  0  0
 60 61  2  0  0  0
 60 62  1  0  0  0
 62 63  1  0  0  0
 63 64  1  0  0  0
 64 65  1  0  0  0
 65 66  1  0  0  0
 66 67  2  0  0  0
 59 55  1  0  0  0
 66 62  1  0  0  0
 48 51  1  0  0  0
 42 45  1  0  0  0
  1  4  1  0  0  0
  7 10  1  0  0  0
 13 16  1  0  0  0
 19 22  1  0  0  0
 25 28  1  0  0  0
 31 34  1  0  0  0
M  END
> <minimizedAffinity>
-8.65821

> <CNNscore>
0.1995722204

> <CNNaffinity>
6.7431335449

> <CNN_VS>
1.3457421064

> <CNNaffinity_variance>
0.4113026559

$$$$
[H]N(C(=O)[C@]([H])(C(=O)C([H])([H])[H])C([H])([H])[H])[C@]([H])(C(=O)N([H])[C@]([H])(C(=O)N([H])[C@]([H])(C(=O)N([H])[C@]([H])(C(=O)N([H])[C@]([H])(C(=O)N([H])[C@]([H])(C(=O)N([H])[C@]([H])(C(=O)N([H])[C@]([H])(C(=O)N1C([H])([H])C([H])([H])C([H])([H])[C@@]1([H])C(=O)N1C(=O)C([H])([H])C([H])([H])C1([H])[H])C([H])([H])C([H])(C([H])([H])[H])C([H])([H])[H])C([H])([H])[H])C([H])([H])[H])C([H])([H])[H])C([H])([H])[H])C([H])([H])[H])C([H])([H])[H])C([H])([H])[H]


 71 72  0  0  0  0  0  0  0  0999 V2000
    5.1153    7.6285   14.5688 N   0  0  0  0  0  0  0  0  0  0  0  0
    4.0072    7.6617   15.4139 C   0  0  0  0  0  0  0  0  0  0  0  0
    2.9902    8.3305   15.0370 O   0  0  0  0  0  0  0  0  0  0  0  0
    5.9735    7.0970   14.8502 H   0  0  0  0  0  0  0  0  0  0  0  0
    4.0063    6.9471   16.6993 C   0  0  0  0  0  0  0  0  0  0  0  0
    5.1494    7.4942   17.5520 C   0  0  0  0  0  0  0  0  0  0  0  0
    4.2861    5.5572   16.4477 N   0  0  0  0  0  0  0  0  0  0  0  0
    3.2379    4.5957   16.6680 C   0  0  0  0  0  0  0  0  0  0  0  0
    2.1349    4.9825   17.0864 O   0  0  0  0  0  0  0  0  0  0  0  0
    5.2351    5.2791   16.1209 H   0  0  0  0  0  0  0  0  0  0  0  0
    3.4770    3.1707   16.3997 C   0  0  0  0  0  0  0  0  0  0  0  0
    2.2750    2.5973   15.6011 C   0  0  0  0  0  0  0  0  0  0  0  0
    3.4837    2.4147   17.6667 N   0  0  0  0  0  0  0  0  0  0  0  0
    4.5916    2.6196   18.5036 C   0  0  0  0  0  0  0  0  0  0  0  0
    5.5126    3.4278   18.1529 O   0  0  0  0  0  0  0  0  0  0  0  0
    2.6764    1.7993   17.8320 H   0  0  0  0  0  0  0  0  0  0  0  0
    4.7139    1.8970   19.8043 C   0  0  0  0  0  0  0  0  0  0  0  0
    3.6320    0.8530   19.8266 C   0  0  0  0  0  0  0  0  0  0  0  0
    4.5134    2.9120   20.8315 N   0  0  0  0  0  0  0  0  0  0  0  0
    5.1986    2.9137   22.0499 C   0  0  0  0  0  0  0  0  0  0  0  0
    6.0296    2.0067   22.2717 O   0  0  0  0  0  0  0  0  0  0  0  0
    3.8179    3.6471   20.6090 H   0  0  0  0  0  0  0  0  0  0  0  0
    4.9598    3.9767   23.0836 C   0  0  0  0  0  0  0  0  0  0  0  0
    3.5781    3.9088   23.6622 C   0  0  0  0  0  0  0  0  0  0  0  0
    5.2484    5.2684   22.4698 N   0  0  0  0  0  0  0  0  0  0  0  0
    6.5386    5.6957   22.1183 C   0  0  0  0  0  0  0  0  0  0  0  0
    7.5445    5.0088   22.3121 O   0  0  0  0  0  0  0  0  0  0  0  0
    4.4095    5.8956   22.2978 H   0  0  0  0  0  0  0  0  0  0  0  0
    6.6789    7.0537   21.4680 C   0  0  0  0  0  0  0  0  0  0  0  0
    7.6616    6.8422   20.3180 C   0  0  0  0  0  0  0  0  0  0  0  0
    7.2224    7.9674   22.4329 N   0  0  0  0  0  0  0  0  0  0  0  0
    6.6054    9.1871   22.8246 C   0  0  0  0  0  0  0  0  0  0  0  0
    5.5102    9.5011   22.3050 O   0  0  0  0  0  0  0  0  0  0  0  0
    8.1536    7.6899   22.8739 H   0  0  0  0  0  0  0  0  0  0  0  0
    7.2941   10.0614   23.8511 C   0  0  0  0  0  0  0  0  0  0  0  0
    8.3540    9.2663   24.5737 C   0  0  0  0  0  0  0  0  0  0  0  0
    7.8511   11.2669   23.2345 C   0  0  0  0  0  0  0  0  0  0  0  0
    9.1231   11.2696   22.4587 C   0  0  0  0  0  0  0  0  0  0  0  0
    7.2646   12.3380   23.3450 O   0  0  0  0  0  0  0  0  0  0  0  0
    5.0937    8.3307   13.2894 C   0  0  0  0  0  0  0  0  0  0  0  0
    6.4478    8.8291   12.8888 C   0  0  0  0  0  0  0  0  0  0  0  0
    4.9363    6.1208   12.0332 N   0  0  0  0  0  0  0  0  0  0  0  0
    4.4667    7.4447   12.3054 C   0  0  0  0  0  0  0  0  0  0  0  0
    3.4550    7.8588   11.6568 O   0  0  0  0  0  0  0  0  0  0  0  0
    5.7605    5.7825   12.5683 H   0  0  0  0  0  0  0  0  0  0  0  0
    4.2997    5.2780   11.0723 C   0  0  0  0  0  0  0  0  0  0  0  0
    5.2143    4.4574   10.2158 C   0  0  0  0  0  0  0  0  0  0  0  0
    1.9950    4.3978   11.2130 N   0  0  0  0  0  0  0  0  0  0  0  0
    3.3026    4.3787   11.7290 C   0  0  0  0  0  0  0  0  0  0  0  0
    3.6709    3.6696   12.6868 O   0  0  0  0  0  0  0  0  0  0  0  0
    1.7490    5.0034   10.4141 H   0  0  0  0  0  0  0  0  0  0  0  0
    0.9251    3.5146   11.8420 C   0  0  0  0  0  0  0  0  0  0  0  0
    0.6166    2.5874   10.8001 C   0  0  0  0  0  0  0  0  0  0  0  0
    1.2613    1.4160   11.0198 O   0  0  0  0  0  0  0  0  0  0  0  0
   -0.1334    2.5353    9.6483 N   0  0  0  0  0  0  0  0  0  0  0  0
   -0.9496    3.3774    8.8304 C   0  0  0  0  0  0  0  0  0  0  0  0
   -2.2537    2.5603    8.8435 C   0  0  0  0  0  0  0  0  0  0  0  0
   -1.6507    1.2086    8.4032 C   0  0  0  0  0  0  0  0  0  0  0  0
   -0.2462    1.2232    8.8993 C   0  0  0  0  0  0  0  0  0  0  0  0
    0.7896    1.1922    7.8672 C   0  0  0  0  0  0  0  0  0  0  0  0
    1.0392    2.2339    7.1632 O   0  0  0  0  0  0  0  0  0  0  0  0
    1.5425    0.0175    7.6205 N   0  0  0  0  0  0  0  0  0  0  0  0
    2.6104   -0.1256    6.6156 C   0  0  0  0  0  0  0  0  0  0  0  0
    3.2505   -1.4604    6.9042 C   0  0  0  0  0  0  0  0  0  0  0  0
    2.0331   -2.2532    7.3883 C   0  0  0  0  0  0  0  0  0  0  0  0
    1.4261   -1.2205    8.3011 C   0  0  0  0  0  0  0  0  0  0  0  0
    0.9346   -1.4465    9.4150 O   0  0  0  0  0  0  0  0  0  0  0  0
    0.0479    4.4317   12.5255 C   0  0  0  0  0  0  0  0  0  0  0  0
   -1.9816    5.6568   11.7386 C   0  0  0  0  0  0  0  0  0  0  0  0
   -0.4656    5.6649   11.9038 C   0  0  0  0  0  0  0  0  0  0  0  0
   -0.2199    6.8433   12.8899 C   0  0  0  0  0  0  0  0  0  0  0  0
 69 70  1  0  0  0
 70 71  1  0  0  0
 70 68  1  0  0  0
 68 52  1  0  0  0
 52 48  1  0  0  0
 48 49  1  0  0  0
 49 50  2  0  0  0
 49 46  1  0  0  0
 46 47  1  0  0  0
 46 42  1  0  0  0
 42 43  1  0  0  0
 43 44  2  0  0  0
 43 40  1  0  0  0
 40 41  1  0  0  0
 40  1  1  0  0  0
  1  2  1  0  0  0
  2  3  2  0  0  0
  2  5  1  0  0  0
  5  6  1  0  0  0
  5  7  1  0  0  0
  7  8  1  0  0  0
  8  9  2  0  0  0
  8 11  1  0  0  0
 11 12  1  0  0  0
 11 13  1  0  0  0
 13 14  1  0  0  0
 14 15  2  0  0  0
 14 17  1  0  0  0
 17 18  1  0  0  0
 17 19  1  0  0  0
 19 20  1  0  0  0
 20 21  2  0  0  0
 20 23  1  0  0  0
 23 24  1  0  0  0
 23 25  1  0  0  0
 25 26  1  0  0  0
 26 27  2  0  0  0
 26 29  1  0  0  0
 29 30  1  0  0  0
 29 31  1  0  0  0
 31 32  1  0  0  0
 32 33  2  0  0  0
 32 35  1  0  0  0
 35 36  1  0  0  0
 35 37  1  0  0  0
 37 38  1  0  0  0
 37 39  2  0  0  0
 52 53  1  0  0  0
 53 54  2  0  0  0
 53 55  1  0  0  0
 55 56  1  0  0  0
 56 57  1  0  0  0
 57 58  1  0  0  0
 58 59  1  0  0  0
 59 60  1  0  0  0
 60 61  2  0  0  0
 60 62  1  0  0  0
 62 63  1  0  0  0
 63 64  1  0  0  0
 64 65  1  0  0  0
 65 66  1  0  0  0
 66 67  2  0  0  0
 59 55  1  0  0  0
 66 62  1  0  0  0
 48 51  1  0  0  0
 42 45  1  0  0  0
  1  4  1  0  0  0
  7 10  1  0  0  0
 13 16  1  0  0  0
 19 22  1  0  0  0
 25 28  1  0  0  0
 31 34  1  0  0  0
M  END
> <minimizedAffinity>
-7.70788

> <CNNscore>
0.1973461807

> <CNNaffinity>
7.2244362831

> <CNN_VS>
1.4257148504

> <CNNaffinity_variance>
0.5096725225

$$$$
[H]N(C(=O)[C@]([H])(C(=O)C([H])([H])[H])C([H])([H])[H])[C@]([H])(C(=O)N([H])[C@]([H])(C(=O)N([H])[C@]([H])(C(=O)N([H])[C@]([H])(C(=O)N([H])[C@]([H])(C(=O)N([H])[C@]([H])(C(=O)N([H])[C@]([H])(C(=O)N([H])[C@]([H])(C(=O)N1C([H])([H])C([H])([H])C([H])([H])[C@@]1([H])C(=O)N1C(=O)C([H])([H])C([H])([H])C1([H])[H])C([H])([H])C([H])(C([H])([H])[H])C([H])([H])[H])C([H])([H])[H])C([H])([H])[H])C([H])([H])[H])C([H])([H])[H])C([H])([H])[H])C([H])([H])[H])C([H])([H])[H]


 71 72  0  0  0  0  0  0  0  0999 V2000
    3.6509    8.3143   18.5224 N   0  0  0  0  0  0  0  0  0  0  0  0
    4.0417    9.5604   19.0098 C   0  0  0  0  0  0  0  0  0  0  0  0
    5.0527    9.6071   19.7840 O   0  0  0  0  0  0  0  0  0  0  0  0
    2.8180    8.2359   17.8913 H   0  0  0  0  0  0  0  0  0  0  0  0
    3.3150   10.7852   18.6430 C   0  0  0  0  0  0  0  0  0  0  0  0
    2.9329   10.6915   17.1671 C   0  0  0  0  0  0  0  0  0  0  0  0
    4.2094   11.9049   18.7843 N   0  0  0  0  0  0  0  0  0  0  0  0
    3.6703   13.1606   19.2361 C   0  0  0  0  0  0  0  0  0  0  0  0
    2.4545   13.2525   19.4702 O   0  0  0  0  0  0  0  0  0  0  0  0
    5.2175   11.7847   18.5519 H   0  0  0  0  0  0  0  0  0  0  0  0
    4.5551   14.3202   19.4158 C   0  0  0  0  0  0  0  0  0  0  0  0
    6.0163   13.8948   19.1075 C   0  0  0  0  0  0  0  0  0  0  0  0
    4.5711   14.7253   20.8345 N   0  0  0  0  0  0  0  0  0  0  0  0
    4.2332   16.0613   21.1004 C   0  0  0  0  0  0  0  0  0  0  0  0
    3.9288   16.8433   20.1410 O   0  0  0  0  0  0  0  0  0  0  0  0
    4.8294   13.9956   21.5117 H   0  0  0  0  0  0  0  0  0  0  0  0
    4.2302   16.5879   22.4973 C   0  0  0  0  0  0  0  0  0  0  0  0
    3.7023   17.9943   22.4321 C   0  0  0  0  0  0  0  0  0  0  0  0
    5.6220   16.5474   22.9295 N   0  0  0  0  0  0  0  0  0  0  0  0
    6.0049   16.4743   24.2719 C   0  0  0  0  0  0  0  0  0  0  0  0
    5.1143   16.4347   25.1480 O   0  0  0  0  0  0  0  0  0  0  0  0
    6.3297   16.5804   22.1734 H   0  0  0  0  0  0  0  0  0  0  0  0
    7.4512   16.4381   24.6750 C   0  0  0  0  0  0  0  0  0  0  0  0
    8.1633   17.7191   24.3580 C   0  0  0  0  0  0  0  0  0  0  0  0
    8.0645   15.2809   24.0324 N   0  0  0  0  0  0  0  0  0  0  0  0
    8.1262   14.0050   24.6147 C   0  0  0  0  0  0  0  0  0  0  0  0
    7.6702   13.7602   25.7343 O   0  0  0  0  0  0  0  0  0  0  0  0
    8.4807   15.4533   23.0712 H   0  0  0  0  0  0  0  0  0  0  0  0
    8.7745   12.8963   23.8166 C   0  0  0  0  0  0  0  0  0  0  0  0
    8.8137   13.4135   22.3799 C   0  0  0  0  0  0  0  0  0  0  0  0
    7.9483   11.7257   23.9076 N   0  0  0  0  0  0  0  0  0  0  0  0
    8.4248   10.3915   23.7863 C   0  0  0  0  0  0  0  0  0  0  0  0
    9.6473   10.2051   23.5894 O   0  0  0  0  0  0  0  0  0  0  0  0
    6.9087   11.8935   24.0800 H   0  0  0  0  0  0  0  0  0  0  0  0
    7.4394    9.2473   23.8967 C   0  0  0  0  0  0  0  0  0  0  0  0
    6.2378    9.5193   23.0249 C   0  0  0  0  0  0  0  0  0  0  0  0
    8.0698    7.9688   23.5622 C   0  0  0  0  0  0  0  0  0  0  0  0
    8.0285    7.3749   22.1964 C   0  0  0  0  0  0  0  0  0  0  0  0
    8.6670    7.3361   24.4262 O   0  0  0  0  0  0  0  0  0  0  0  0
    4.3928    7.1105   18.8841 C   0  0  0  0  0  0  0  0  0  0  0  0
    3.6964    6.3057   19.9377 C   0  0  0  0  0  0  0  0  0  0  0  0
    3.6537    5.7063   16.8919 N   0  0  0  0  0  0  0  0  0  0  0  0
    4.6693    6.3700   17.6505 C   0  0  0  0  0  0  0  0  0  0  0  0
    5.8641    6.3080   17.2214 O   0  0  0  0  0  0  0  0  0  0  0  0
    2.6768    5.7627   17.2419 H   0  0  0  0  0  0  0  0  0  0  0  0
    3.9534    4.9976   15.6891 C   0  0  0  0  0  0  0  0  0  0  0  0
    3.3357    3.6392   15.5603 C   0  0  0  0  0  0  0  0  0  0  0  0
    4.0307    5.3250   13.2410 N   0  0  0  0  0  0  0  0  0  0  0  0
    3.6015    5.8137   14.4872 C   0  0  0  0  0  0  0  0  0  0  0  0
    2.9580    6.8707   14.6450 O   0  0  0  0  0  0  0  0  0  0  0  0
    4.5574    4.4399   13.1713 H   0  0  0  0  0  0  0  0  0  0  0  0
    3.7164    6.1123   11.9754 C   0  0  0  0  0  0  0  0  0  0  0  0
    2.5418    5.4701   11.4774 C   0  0  0  0  0  0  0  0  0  0  0  0
    1.8295    6.3369   10.7176 O   0  0  0  0  0  0  0  0  0  0  0  0
    1.9251    4.2424   11.5440 N   0  0  0  0  0  0  0  0  0  0  0  0
    2.0716    2.9734   12.1863 C   0  0  0  0  0  0  0  0  0  0  0  0
    2.1191    2.0631   10.9463 C   0  0  0  0  0  0  0  0  0  0  0  0
    0.8277    2.5731   10.2706 C   0  0  0  0  0  0  0  0  0  0  0  0
    0.6883    3.9909   10.7059 C   0  0  0  0  0  0  0  0  0  0  0  0
   -0.4885    4.2894   11.5215 C   0  0  0  0  0  0  0  0  0  0  0  0
   -0.4512    4.1493   12.7950 O   0  0  0  0  0  0  0  0  0  0  0  0
   -1.6940    4.7412   10.9295 N   0  0  0  0  0  0  0  0  0  0  0  0
   -2.9341    5.0774   11.6507 C   0  0  0  0  0  0  0  0  0  0  0  0
   -3.8287    5.7226   10.6220 C   0  0  0  0  0  0  0  0  0  0  0  0
   -3.4193    4.9424    9.3696 C   0  0  0  0  0  0  0  0  0  0  0  0
   -1.9244    4.9726    9.5501 C   0  0  0  0  0  0  0  0  0  0  0  0
   -1.0959    5.1645    8.6501 O   0  0  0  0  0  0  0  0  0  0  0  0
    4.9923    6.2915   11.3289 C   0  0  0  0  0  0  0  0  0  0  0  0
    7.0611    7.6908   11.3004 C   0  0  0  0  0  0  0  0  0  0  0  0
    5.5618    7.6173   11.0313 C   0  0  0  0  0  0  0  0  0  0  0  0
    5.4622    7.8542    9.4966 C   0  0  0  0  0  0  0  0  0  0  0  0
 69 70  1  0  0  0
 70 71  1  0  0  0
 70 68  1  0  0  0
 68 52  1  0  0  0
 52 48  1  0  0  0
 48 49  1  0  0  0
 49 50  2  0  0  0
 49 46  1  0  0  0
 46 47  1  0  0  0
 46 42  1  0  0  0
 42 43  1  0  0  0
 43 44  2  0  0  0
 43 40  1  0  0  0
 40 41  1  0  0  0
 40  1  1  0  0  0
  1  2  1  0  0  0
  2  3  2  0  0  0
  2  5  1  0  0  0
  5  6  1  0  0  0
  5  7  1  0  0  0
  7  8  1  0  0  0
  8  9  2  0  0  0
  8 11  1  0  0  0
 11 12  1  0  0  0
 11 13  1  0  0  0
 13 14  1  0  0  0
 14 15  2  0  0  0
 14 17  1  0  0  0
 17 18  1  0  0  0
 17 19  1  0  0  0
 19 20  1  0  0  0
 20 21  2  0  0  0
 20 23  1  0  0  0
 23 24  1  0  0  0
 23 25  1  0  0  0
 25 26  1  0  0  0
 26 27  2  0  0  0
 26 29  1  0  0  0
 29 30  1  0  0  0
 29 31  1  0  0  0
 31 32  1  0  0  0
 32 33  2  0  0  0
 32 35  1  0  0  0
 35 36  1  0  0  0
 35 37  1  0  0  0
 37 38  1  0  0  0
 37 39  2  0  0  0
 52 53  1  0  0  0
 53 54  2  0  0  0
 53 55  1  0  0  0
 55 56  1  0  0  0
 56 57  1  0  0  0
 57 58  1  0  0  0
 58 59  1  0  0  0
 59 60  1  0  0  0
 60 61  2  0  0  0
 60 62  1  0  0  0
 62 63  1  0  0  0
 63 64  1  0  0  0
 64 65  1  0  0  0
 65 66  1  0  0  0
 66 67  2  0  0  0
 59 55  1  0  0  0
 66 62  1  0  0  0
 48 51  1  0  0  0
 42 45  1  0  0  0
  1  4  1  0  0  0
  7 10  1  0  0  0
 13 16  1  0  0  0
 19 22  1  0  0  0
 25 28  1  0  0  0
 31 34  1  0  0  0
M  END
> <minimizedAffinity>
-7.79930

> <CNNscore>
0.1841167212

> <CNNaffinity>
6.5758047104

> <CNN_VS>
1.2107156515

> <CNNaffinity_variance>
0.3429164290

$$$$
[H]N(C(=O)[C@]([H])(C(=O)C([H])([H])[H])C([H])([H])[H])[C@]([H])(C(=O)N([H])[C@]([H])(C(=O)N([H])[C@]([H])(C(=O)N([H])[C@]([H])(C(=O)N([H])[C@]([H])(C(=O)N([H])[C@]([H])(C(=O)N([H])[C@]([H])(C(=O)N([H])[C@]([H])(C(=O)N1C([H])([H])C([H])([H])C([H])([H])[C@@]1([H])C(=O)N1C(=O)C([H])([H])C([H])([H])C1([H])[H])C([H])([H])C([H])(C([H])([H])[H])C([H])([H])[H])C([H])([H])[H])C([H])([H])[H])C([H])([H])[H])C([H])([H])[H])C([H])([H])[H])C([H])([H])[H])C([H])([H])[H]


 71 72  0  0  0  0  0  0  0  0999 V2000
    4.1711    5.1355   16.0777 N   0  0  0  0  0  0  0  0  0  0  0  0
    3.1916    4.1986   16.4033 C   0  0  0  0  0  0  0  0  0  0  0  0
    2.1285    4.6189   16.9660 O   0  0  0  0  0  0  0  0  0  0  0  0
    5.0629    4.8254   15.6233 H   0  0  0  0  0  0  0  0  0  0  0  0
    3.3740    2.7698   16.1065 C   0  0  0  0  0  0  0  0  0  0  0  0
    2.1595    2.2860   15.3166 C   0  0  0  0  0  0  0  0  0  0  0  0
    3.3930    2.0452   17.3507 N   0  0  0  0  0  0  0  0  0  0  0  0
    4.4714    2.2914   18.2716 C   0  0  0  0  0  0  0  0  0  0  0  0
    5.3624    3.0994   17.9639 O   0  0  0  0  0  0  0  0  0  0  0  0
    2.6358    1.3592   17.5528 H   0  0  0  0  0  0  0  0  0  0  0  0
    4.5131    1.5894   19.5620 C   0  0  0  0  0  0  0  0  0  0  0  0
    3.3053    0.6173   19.6488 C   0  0  0  0  0  0  0  0  0  0  0  0
    4.3054    2.5490   20.6633 N   0  0  0  0  0  0  0  0  0  0  0  0
    5.3188    2.6074   21.6325 C   0  0  0  0  0  0  0  0  0  0  0  0
    6.3465    1.8615   21.5237 O   0  0  0  0  0  0  0  0  0  0  0  0
    3.4347    3.0954   20.6307 H   0  0  0  0  0  0  0  0  0  0  0  0
    5.2101    3.5306   22.8008 C   0  0  0  0  0  0  0  0  0  0  0  0
    3.8466    4.1608   22.7331 C   0  0  0  0  0  0  0  0  0  0  0  0
    6.2737    4.5112   22.6198 N   0  0  0  0  0  0  0  0  0  0  0  0
    6.3654    5.3432   21.5003 C   0  0  0  0  0  0  0  0  0  0  0  0
    5.4917    5.2505   20.6112 O   0  0  0  0  0  0  0  0  0  0  0  0
    6.9770    4.5584   23.3792 H   0  0  0  0  0  0  0  0  0  0  0  0
    7.4801    6.3384   21.3508 C   0  0  0  0  0  0  0  0  0  0  0  0
    8.4527    6.2801   22.4906 C   0  0  0  0  0  0  0  0  0  0  0  0
    6.8807    7.6588   21.1912 N   0  0  0  0  0  0  0  0  0  0  0  0
    7.1507    8.5144   20.1115 C   0  0  0  0  0  0  0  0  0  0  0  0
    7.9339    8.2184   19.2058 O   0  0  0  0  0  0  0  0  0  0  0  0
    6.2094    7.9567   21.9576 H   0  0  0  0  0  0  0  0  0  0  0  0
    6.4349    9.8458   20.0707 C   0  0  0  0  0  0  0  0  0  0  0  0
    5.8085   10.0010   21.4550 C   0  0  0  0  0  0  0  0  0  0  0  0
    5.4160    9.7850   19.0611 N   0  0  0  0  0  0  0  0  0  0  0  0
    4.7201   10.9145   18.5494 C   0  0  0  0  0  0  0  0  0  0  0  0
    5.0044   12.0492   18.9961 O   0  0  0  0  0  0  0  0  0  0  0  0
    5.1831    8.8148   18.6828 H   0  0  0  0  0  0  0  0  0  0  0  0
    3.6612   10.7050   17.4876 C   0  0  0  0  0  0  0  0  0  0  0  0
    2.5798   11.7483   17.6288 C   0  0  0  0  0  0  0  0  0  0  0  0
    4.2459   10.7129   16.1452 C   0  0  0  0  0  0  0  0  0  0  0  0
    3.4842   11.1142   14.9292 C   0  0  0  0  0  0  0  0  0  0  0  0
    5.4147   10.3792   15.9847 O   0  0  0  0  0  0  0  0  0  0  0  0
    3.9673    6.5520   16.3653 C   0  0  0  0  0  0  0  0  0  0  0  0
    4.9799    7.0904   17.3284 C   0  0  0  0  0  0  0  0  0  0  0  0
    5.0888    7.5829   14.3243 N   0  0  0  0  0  0  0  0  0  0  0  0
    3.9202    7.2642   15.0859 C   0  0  0  0  0  0  0  0  0  0  0  0
    2.7934    7.6200   14.6176 O   0  0  0  0  0  0  0  0  0  0  0  0
    6.0086    7.2864   14.7066 H   0  0  0  0  0  0  0  0  0  0  0  0
    5.0103    8.2726   13.0765 C   0  0  0  0  0  0  0  0  0  0  0  0
    6.2444    9.0126   12.6606 C   0  0  0  0  0  0  0  0  0  0  0  0
    3.2606    7.4133   11.5579 N   0  0  0  0  0  0  0  0  0  0  0  0
    4.6001    7.3446   11.9788 C   0  0  0  0  0  0  0  0  0  0  0  0
    5.4494    6.5667   11.4997 O   0  0  0  0  0  0  0  0  0  0  0  0
    2.6027    8.0816   11.9894 H   0  0  0  0  0  0  0  0  0  0  0  0
    2.7715    6.4880   10.4511 C   0  0  0  0  0  0  0  0  0  0  0  0
    2.6916    7.3530    9.3172 C   0  0  0  0  0  0  0  0  0  0  0  0
    1.4225    7.8040    9.1700 O   0  0  0  0  0  0  0  0  0  0  0  0
    3.5162    7.8559    8.3379 N   0  0  0  0  0  0  0  0  0  0  0  0
    4.8644    7.7462    7.8744 C   0  0  0  0  0  0  0  0  0  0  0  0
    5.2855    9.2240    7.9610 C   0  0  0  0  0  0  0  0  0  0  0  0
    4.1127    9.8171    7.1502 C   0  0  0  0  0  0  0  0  0  0  0  0
    2.9706    8.8865    7.3707 C   0  0  0  0  0  0  0  0  0  0  0  0
    2.4845    8.1887    6.1807 C   0  0  0  0  0  0  0  0  0  0  0  0
    3.1455    7.2092    5.6844 O   0  0  0  0  0  0  0  0  0  0  0  0
    1.2754    8.5728    5.5496 N   0  0  0  0  0  0  0  0  0  0  0  0
    0.6887    7.9397    4.3555 C   0  0  0  0  0  0  0  0  0  0  0  0
   -0.6881    8.5411    4.2237 C   0  0  0  0  0  0  0  0  0  0  0  0
   -0.4239    9.9566    4.7447 C   0  0  0  0  0  0  0  0  0  0  0  0
    0.4019    9.6125    5.9562 C   0  0  0  0  0  0  0  0  0  0  0  0
    0.3071   10.1517    7.0668 O   0  0  0  0  0  0  0  0  0  0  0  0
    1.7302    5.7019   11.0641 C   0  0  0  0  0  0  0  0  0  0  0  0
   -0.2864    6.8271   12.0160 C   0  0  0  0  0  0  0  0  0  0  0  0
    1.0326    6.1141   12.2946 C   0  0  0  0  0  0  0  0  0  0  0  0
    0.5911    4.8301   13.0547 C   0  0  0  0  0  0  0  0  0  0  0  0
 69 70  1  0  0  0
 70 71  1  0  0  0
 70 68  1  0  0  0
 68 52  1  0  0  0
 52 48  1  0  0  0
 48 49  1  0  0  0
 49 50  2  0  0  0
 49 46  1  0  0  0
 46 47  1  0  0  0
 46 42  1  0  0  0
 42 43  1  0  0  0
 43 44  2  0  0  0
 43 40  1  0  0  0
 40 41  1  0  0  0
 40  1  1  0  0  0
  1  2  1  0  0  0
  2  3  2  0  0  0
  2  5  1  0  0  0
  5  6  1  0  0  0
  5  7  1  0  0  0
  7  8  1  0  0  0
  8  9  2  0  0  0
  8 11  1  0  0  0
 11 12  1  0  0  0
 11 13  1  0  0  0
 13 14  1  0  0  0
 14 15  2  0  0  0
 14 17  1  0  0  0
 17 18  1  0  0  0
 17 19  1  0  0  0
 19 20  1  0  0  0
 20 21  2  0  0  0
 20 23  1  0  0  0
 23 24  1  0  0  0
 23 25  1  0  0  0
 25 26  1  0  0  0
 26 27  2  0  0  0
 26 29  1  0  0  0
 29 30  1  0  0  0
 29 31  1  0  0  0
 31 32  1  0  0  0
 32 33  2  0  0  0
 32 35  1  0  0  0
 35 36  1  0  0  0
 35 37  1  0  0  0
 37 38  1  0  0  0
 37 39  2  0  0  0
 52 53  1  0  0  0
 53 54  2  0  0  0
 53 55  1  0  0  0
 55 56  1  0  0  0
 56 57  1  0  0  0
 57 58  1  0  0  0
 58 59  1  0  0  0
 59 60  1  0  0  0
 60 61  2  0  0  0
 60 62  1  0  0  0
 62 63  1  0  0  0
 63 64  1  0  0  0
 64 65  1  0  0  0
 65 66  1  0  0  0
 66 67  2  0  0  0
 59 55  1  0  0  0
 66 62  1  0  0  0
 48 51  1  0  0  0
 42 45  1  0  0  0
  1  4  1  0  0  0
  7 10  1  0  0  0
 13 16  1  0  0  0
 19 22  1  0  0  0
 25 28  1  0  0  0
 31 34  1  0  0  0
M  END
> <minimizedAffinity>
-8.46265

> <CNNscore>
0.1811897904

> <CNNaffinity>
7.2453775406

> <CNN_VS>
1.3127884865

> <CNNaffinity_variance>
0.5653446913

$$$$
[H]N(C(=O)[C@]([H])(C(=O)C([H])([H])[H])C([H])([H])[H])[C@]([H])(C(=O)N([H])[C@]([H])(C(=O)N([H])[C@]([H])(C(=O)N([H])[C@]([H])(C(=O)N([H])[C@]([H])(C(=O)N([H])[C@]([H])(C(=O)N([H])[C@]([H])(C(=O)N([H])[C@]([H])(C(=O)N1C([H])([H])C([H])([H])C([H])([H])[C@@]1([H])C(=O)N1C(=O)C([H])([H])C([H])([H])C1([H])[H])C([H])([H])C([H])(C([H])([H])[H])C([H])([H])[H])C([H])([H])[H])C([H])([H])[H])C([H])([H])[H])C([H])([H])[H])C([H])([H])[H])C([H])([H])[H])C([H])([H])[H]


 71 72  0  0  0  0  0  0  0  0999 V2000
    3.8250    8.2861   19.0035 N   0  0  0  0  0  0  0  0  0  0  0  0
    4.3165    9.5732   19.2150 C   0  0  0  0  0  0  0  0  0  0  0  0
    5.4992    9.6915   19.6740 O   0  0  0  0  0  0  0  0  0  0  0  0
    2.8529    8.1497   18.6366 H   0  0  0  0  0  0  0  0  0  0  0  0
    3.5006   10.7599   18.9170 C   0  0  0  0  0  0  0  0  0  0  0  0
    3.0470   10.6758   17.4608 C   0  0  0  0  0  0  0  0  0  0  0  0
    4.3338   11.9279   19.0400 N   0  0  0  0  0  0  0  0  0  0  0  0
    3.7086   13.1870   19.3493 C   0  0  0  0  0  0  0  0  0  0  0  0
    2.4750   13.2385   19.4800 O   0  0  0  0  0  0  0  0  0  0  0  0
    5.3615   11.8385   18.8970 H   0  0  0  0  0  0  0  0  0  0  0  0
    4.5274   14.3971   19.5066 C   0  0  0  0  0  0  0  0  0  0  0  0
    5.9782   14.0902   19.0459 C   0  0  0  0  0  0  0  0  0  0  0  0
    4.6496   14.7390   20.9367 N   0  0  0  0  0  0  0  0  0  0  0  0
    4.3007   16.0514   21.2912 C   0  0  0  0  0  0  0  0  0  0  0  0
    3.8986   16.8660   20.3972 O   0  0  0  0  0  0  0  0  0  0  0  0
    4.9813   13.9878   21.5559 H   0  0  0  0  0  0  0  0  0  0  0  0
    4.3991   16.5150   22.7069 C   0  0  0  0  0  0  0  0  0  0  0  0
    3.9805   17.9591   22.7230 C   0  0  0  0  0  0  0  0  0  0  0  0
    5.8009   16.3496   23.0721 N   0  0  0  0  0  0  0  0  0  0  0  0
    6.2473   16.3089   24.3961 C   0  0  0  0  0  0  0  0  0  0  0  0
    5.4069   16.4122   25.3156 O   0  0  0  0  0  0  0  0  0  0  0  0
    6.4655   16.2657   22.2816 H   0  0  0  0  0  0  0  0  0  0  0  0
    7.7019   16.1404   24.7294 C   0  0  0  0  0  0  0  0  0  0  0  0
    8.4367   17.4473   24.7508 C   0  0  0  0  0  0  0  0  0  0  0  0
    8.2706   15.1922   23.7777 N   0  0  0  0  0  0  0  0  0  0  0  0
    8.3849   13.8143   24.0208 C   0  0  0  0  0  0  0  0  0  0  0  0
    8.0185   13.2906   25.0757 O   0  0  0  0  0  0  0  0  0  0  0  0
    8.6102   15.6057   22.8609 H   0  0  0  0  0  0  0  0  0  0  0  0
    8.9762   12.9521   22.9282 C   0  0  0  0  0  0  0  0  0  0  0  0
    8.6931   13.7075   21.6312 C   0  0  0  0  0  0  0  0  0  0  0  0
    8.3002   11.6855   22.9308 N   0  0  0  0  0  0  0  0  0  0  0  0
    8.8349   10.4856   22.3866 C   0  0  0  0  0  0  0  0  0  0  0  0
    9.9743   10.5158   21.8680 O   0  0  0  0  0  0  0  0  0  0  0  0
    7.3318   11.6678   23.3786 H   0  0  0  0  0  0  0  0  0  0  0  0
    8.0087    9.2184   22.4513 C   0  0  0  0  0  0  0  0  0  0  0  0
    8.9180    8.0175   22.5446 C   0  0  0  0  0  0  0  0  0  0  0  0
    7.0563    9.2611   23.5625 C   0  0  0  0  0  0  0  0  0  0  0  0
    7.2837    8.5564   24.8555 C   0  0  0  0  0  0  0  0  0  0  0  0
    6.0152    9.8993   23.4523 O   0  0  0  0  0  0  0  0  0  0  0  0
    4.6538    7.1193   19.2901 C   0  0  0  0  0  0  0  0  0  0  0  0
    4.0671    6.2512   20.3601 C   0  0  0  0  0  0  0  0  0  0  0  0
    4.0652    5.3695   17.5356 N   0  0  0  0  0  0  0  0  0  0  0  0
    4.8990    6.4249   18.0235 C   0  0  0  0  0  0  0  0  0  0  0  0
    5.8957    6.7682   17.3133 O   0  0  0  0  0  0  0  0  0  0  0  0
    3.2479    5.0940   18.1154 H   0  0  0  0  0  0  0  0  0  0  0  0
    4.3262    4.7159   16.2932 C   0  0  0  0  0  0  0  0  0  0  0  0
    4.2075    3.2228   16.3033 C   0  0  0  0  0  0  0  0  0  0  0  0
    4.0103    5.2977   13.9124 N   0  0  0  0  0  0  0  0  0  0  0  0
    3.4623    5.2705   15.2068 C   0  0  0  0  0  0  0  0  0  0  0  0
    2.3190    5.6772   15.4957 O   0  0  0  0  0  0  0  0  0  0  0  0
    4.9626    4.9425   13.7322 H   0  0  0  0  0  0  0  0  0  0  0  0
    3.1891    5.8605   12.7595 C   0  0  0  0  0  0  0  0  0  0  0  0
    3.1982    4.7972   11.8057 C   0  0  0  0  0  0  0  0  0  0  0  0
    3.7134    3.6776   12.3687 O   0  0  0  0  0  0  0  0  0  0  0  0
    2.8436    4.5784   10.4949 N   0  0  0  0  0  0  0  0  0  0  0  0
    2.3440    5.2890    9.3592 C   0  0  0  0  0  0  0  0  0  0  0  0
    1.0812    4.4573    9.0724 C   0  0  0  0  0  0  0  0  0  0  0  0
    1.7582    3.0702    9.0253 C   0  0  0  0  0  0  0  0  0  0  0  0
    2.9379    3.1763    9.9287 C   0  0  0  0  0  0  0  0  0  0  0  0
    4.2428    3.0269    9.2852 C   0  0  0  0  0  0  0  0  0  0  0  0
    4.8807    4.0539    8.8595 O   0  0  0  0  0  0  0  0  0  0  0  0
    4.8347    1.7505    9.1180 N   0  0  0  0  0  0  0  0  0  0  0  0
    6.1421    1.4828    8.4934 C   0  0  0  0  0  0  0  0  0  0  0  0
    6.4223    0.0266    8.7681 C   0  0  0  0  0  0  0  0  0  0  0  0
    5.0019   -0.5436    8.7183 C   0  0  0  0  0  0  0  0  0  0  0  0
    4.2965    0.5071    9.5347 C   0  0  0  0  0  0  0  0  0  0  0  0
    3.4270    0.2891   10.3889 O   0  0  0  0  0  0  0  0  0  0  0  0
    3.6534    7.2166   12.6066 C   0  0  0  0  0  0  0  0  0  0  0  0
    1.2836    8.0058   12.6131 C   0  0  0  0  0  0  0  0  0  0  0  0
    2.7590    8.3847   12.6866 C   0  0  0  0  0  0  0  0  0  0  0  0
    2.8982    9.0053   14.1068 C   0  0  0  0  0  0  0  0  0  0  0  0
 69 70  1  0  0  0
 70 71  1  0  0  0
 70 68  1  0  0  0
 68 52  1  0  0  0
 52 48  1  0  0  0
 48 49  1  0  0  0
 49 50  2  0  0  0
 49 46  1  0  0  0
 46 47  1  0  0  0
 46 42  1  0  0  0
 42 43  1  0  0  0
 43 44  2  0  0  0
 43 40  1  0  0  0
 40 41  1  0  0  0
 40  1  1  0  0  0
  1  2  1  0  0  0
  2  3  2  0  0  0
  2  5  1  0  0  0
  5  6  1  0  0  0
  5  7  1  0  0  0
  7  8  1  0  0  0
  8  9  2  0  0  0
  8 11  1  0  0  0
 11 12  1  0  0  0
 11 13  1  0  0  0
 13 14  1  0  0  0
 14 15  2  0  0  0
 14 17  1  0  0  0
 17 18  1  0  0  0
 17 19  1  0  0  0
 19 20  1  0  0  0
 20 21  2  0  0  0
 20 23  1  0  0  0
 23 24  1  0  0  0
 23 25  1  0  0  0
 25 26  1  0  0  0
 26 27  2  0  0  0
 26 29  1  0  0  0
 29 30  1  0  0  0
 29 31  1  0  0  0
 31 32  1  0  0  0
 32 33  2  0  0  0
 32 35  1  0  0  0
 35 36  1  0  0  0
 35 37  1  0  0  0
 37 38  1  0  0  0
 37 39  2  0  0  0
 52 53  1  0  0  0
 53 54  2  0  0  0
 53 55  1  0  0  0
 55 56  1  0  0  0
 56 57  1  0  0  0
 57 58  1  0  0  0
 58 59  1  0  0  0
 59 60  1  0  0  0
 60 61  2  0  0  0
 60 62  1  0  0  0
 62 63  1  0  0  0
 63 64  1  0  0  0
 64 65  1  0  0  0
 65 66  1  0  0  0
 66 67  2  0  0  0
 59 55  1  0  0  0
 66 62  1  0  0  0
 48 51  1  0  0  0
 42 45  1  0  0  0
  1  4  1  0  0  0
  7 10  1  0  0  0
 13 16  1  0  0  0
 19 22  1  0  0  0
 25 28  1  0  0  0
 31 34  1  0  0  0
M  END
> <minimizedAffinity>
-7.61703

> <CNNscore>
0.1721684486

> <CNNaffinity>
6.5650644302

> <CNN_VS>
1.1302969456

> <CNNaffinity_variance>
0.3690441251

$$$$
[H]N(C(=O)[C@]([H])(C(=O)C([H])([H])[H])C([H])([H])[H])[C@]([H])(C(=O)N([H])[C@]([H])(C(=O)N([H])[C@]([H])(C(=O)N([H])[C@]([H])(C(=O)N([H])[C@]([H])(C(=O)N([H])[C@]([H])(C(=O)N([H])[C@]([H])(C(=O)N([H])[C@]([H])(C(=O)N1C([H])([H])C([H])([H])C([H])([H])[C@@]1([H])C(=O)N1C(=O)C([H])([H])C([H])([H])C1([H])[H])C([H])([H])C([H])(C([H])([H])[H])C([H])([H])[H])C([H])([H])[H])C([H])([H])[H])C([H])([H])[H])C([H])([H])[H])C([H])([H])[H])C([H])([H])[H])C([H])([H])[H]


 71 72  0  0  0  0  0  0  0  0999 V2000
    4.6461   11.0532   17.5709 N   0  0  0  0  0  0  0  0  0  0  0  0
    3.7776   11.5586   16.6047 C   0  0  0  0  0  0  0  0  0  0  0  0
    2.5684   11.7735   16.9443 O   0  0  0  0  0  0  0  0  0  0  0  0
    5.6452   10.8545   17.3253 H   0  0  0  0  0  0  0  0  0  0  0  0
    4.2383   11.8388   15.2365 C   0  0  0  0  0  0  0  0  0  0  0  0
    3.4384   13.0220   14.6948 C   0  0  0  0  0  0  0  0  0  0  0  0
    3.9319   10.6998   14.4106 N   0  0  0  0  0  0  0  0  0  0  0  0
    4.9046    9.6436   14.3104 C   0  0  0  0  0  0  0  0  0  0  0  0
    5.9832    9.7497   14.9160 O   0  0  0  0  0  0  0  0  0  0  0  0
    3.0233   10.6681   13.9024 H   0  0  0  0  0  0  0  0  0  0  0  0
    4.6189    8.4537   13.4967 C   0  0  0  0  0  0  0  0  0  0  0  0
    5.8168    8.1923   12.5439 C   0  0  0  0  0  0  0  0  0  0  0  0
    3.4758    8.7188   12.6023 N   0  0  0  0  0  0  0  0  0  0  0  0
    2.5981    7.6454   12.3849 C   0  0  0  0  0  0  0  0  0  0  0  0
    2.8105    6.5250   12.9544 O   0  0  0  0  0  0  0  0  0  0  0  0
    3.4167    9.6681   12.2111 H   0  0  0  0  0  0  0  0  0  0  0  0
    1.4148    7.7924   11.4866 C   0  0  0  0  0  0  0  0  0  0  0  0
    0.2608    7.1136   12.1709 C   0  0  0  0  0  0  0  0  0  0  0  0
    1.7845    7.1212   10.2462 N   0  0  0  0  0  0  0  0  0  0  0  0
    2.1085    7.8069    9.0720 C   0  0  0  0  0  0  0  0  0  0  0  0
    2.0882    9.0567    9.0826 O   0  0  0  0  0  0  0  0  0  0  0  0
    1.7911    6.0856   10.2789 H   0  0  0  0  0  0  0  0  0  0  0  0
    2.4807    7.0768    7.8135 C   0  0  0  0  0  0  0  0  0  0  0  0
    2.3999    5.5880    7.9734 C   0  0  0  0  0  0  0  0  0  0  0  0
    3.8092    7.5271    7.4130 N   0  0  0  0  0  0  0  0  0  0  0  0
    4.0526    8.3591    6.3088 C   0  0  0  0  0  0  0  0  0  0  0  0
    3.1522    8.7724    5.5740 O   0  0  0  0  0  0  0  0  0  0  0  0
    4.6140    7.1823    8.0132 H   0  0  0  0  0  0  0  0  0  0  0  0
    5.4835    8.7613    6.0306 C   0  0  0  0  0  0  0  0  0  0  0  0
    5.6313   10.1505    6.6479 C   0  0  0  0  0  0  0  0  0  0  0  0
    5.6725    8.8197    4.6086 N   0  0  0  0  0  0  0  0  0  0  0  0
    6.9396    8.8182    3.9633 C   0  0  0  0  0  0  0  0  0  0  0  0
    7.9732    8.7591    4.6677 O   0  0  0  0  0  0  0  0  0  0  0  0
    4.7864    8.8653    4.0158 H   0  0  0  0  0  0  0  0  0  0  0  0
    6.9936    8.8906    2.4519 C   0  0  0  0  0  0  0  0  0  0  0  0
    8.4299    8.9456    1.9921 C   0  0  0  0  0  0  0  0  0  0  0  0
    6.2742    7.7715    1.8403 C   0  0  0  0  0  0  0  0  0  0  0  0
    5.7870    7.7906    0.4324 C   0  0  0  0  0  0  0  0  0  0  0  0
    6.0486    6.7586    2.4934 O   0  0  0  0  0  0  0  0  0  0  0  0
    4.1761   10.7951   18.9285 C   0  0  0  0  0  0  0  0  0  0  0  0
    2.9127    9.9914   18.9522 C   0  0  0  0  0  0  0  0  0  0  0  0
    5.1620    9.7501   21.0314 N   0  0  0  0  0  0  0  0  0  0  0  0
    5.2828   10.1929   19.6762 C   0  0  0  0  0  0  0  0  0  0  0  0
    6.4089   10.0491   19.1048 O   0  0  0  0  0  0  0  0  0  0  0  0
    4.2388    9.8639   21.4949 H   0  0  0  0  0  0  0  0  0  0  0  0
    6.2575    9.1605   21.7321 C   0  0  0  0  0  0  0  0  0  0  0  0
    6.3300    9.4565   23.1986 C   0  0  0  0  0  0  0  0  0  0  0  0
    5.0497    7.0132   21.5412 N   0  0  0  0  0  0  0  0  0  0  0  0
    6.2871    7.6801   21.5273 C   0  0  0  0  0  0  0  0  0  0  0  0
    7.3879    7.1178   21.3593 O   0  0  0  0  0  0  0  0  0  0  0  0
    4.1687    7.5328   21.6806 H   0  0  0  0  0  0  0  0  0  0  0  0
    5.0071    5.5026   21.3501 C   0  0  0  0  0  0  0  0  0  0  0  0
    4.6336    5.3598   19.9788 C   0  0  0  0  0  0  0  0  0  0  0  0
    3.3707    4.8765   19.8930 O   0  0  0  0  0  0  0  0  0  0  0  0
    5.1751    5.5642   18.7310 N   0  0  0  0  0  0  0  0  0  0  0  0
    6.4057    5.9585   18.1191 C   0  0  0  0  0  0  0  0  0  0  0  0
    5.9081    7.1584   17.2938 C   0  0  0  0  0  0  0  0  0  0  0  0
    4.7470    6.4406   16.5720 C   0  0  0  0  0  0  0  0  0  0  0  0
    4.3038    5.3689   17.5070 C   0  0  0  0  0  0  0  0  0  0  0  0
    4.4829    3.9984   17.0288 C   0  0  0  0  0  0  0  0  0  0  0  0
    5.4805    3.2963   17.4220 O   0  0  0  0  0  0  0  0  0  0  0  0
    3.5625    3.4122   16.1250 N   0  0  0  0  0  0  0  0  0  0  0  0
    3.6390    2.0435   15.5849 C   0  0  0  0  0  0  0  0  0  0  0  0
    2.3269    1.8234   14.8746 C   0  0  0  0  0  0  0  0  0  0  0  0
    2.0535    3.2366   14.3522 C   0  0  0  0  0  0  0  0  0  0  0  0
    2.3964    4.0180   15.5932 C   0  0  0  0  0  0  0  0  0  0  0  0
    1.7625    4.9882   16.0292 O   0  0  0  0  0  0  0  0  0  0  0  0
    4.3396    5.0029   22.5260 C   0  0  0  0  0  0  0  0  0  0  0  0
    3.8034    2.5635   22.5310 C   0  0  0  0  0  0  0  0  0  0  0  0
    4.6421    3.6908   23.1237 C   0  0  0  0  0  0  0  0  0  0  0  0
    6.0956    3.3011   22.7275 C   0  0  0  0  0  0  0  0  0  0  0  0
 69 70  1  0  0  0
 70 71  1  0  0  0
 70 68  1  0  0  0
 68 52  1  0  0  0
 52 48  1  0  0  0
 48 49  1  0  0  0
 49 50  2  0  0  0
 49 46  1  0  0  0
 46 47  1  0  0  0
 46 42  1  0  0  0
 42 43  1  0  0  0
 43 44  2  0  0  0
 43 40  1  0  0  0
 40 41  1  0  0  0
 40  1  1  0  0  0
  1  2  1  0  0  0
  2  3  2  0  0  0
  2  5  1  0  0  0
  5  6  1  0  0  0
  5  7  1  0  0  0
  7  8  1  0  0  0
  8  9  2  0  0  0
  8 11  1  0  0  0
 11 12  1  0  0  0
 11 13  1  0  0  0
 13 14  1  0  0  0
 14 15  2  0  0  0
 14 17  1  0  0  0
 17 18  1  0  0  0
 17 19  1  0  0  0
 19 20  1  0  0  0
 20 21  2  0  0  0
 20 23  1  0  0  0
 23 24  1  0  0  0
 23 25  1  0  0  0
 25 26  1  0  0  0
 26 27  2  0  0  0
 26 29  1  0  0  0
 29 30  1  0  0  0
 29 31  1  0  0  0
 31 32  1  0  0  0
 32 33  2  0  0  0
 32 35  1  0  0  0
 35 36  1  0  0  0
 35 37  1  0  0  0
 37 38  1  0  0  0
 37 39  2  0  0  0
 52 53  1  0  0  0
 53 54  2  0  0  0
 53 55  1  0  0  0
 55 56  1  0  0  0
 56 57  1  0  0  0
 57 58  1  0  0  0
 58 59  1  0  0  0
 59 60  1  0  0  0
 60 61  2  0  0  0
 60 62  1  0  0  0
 62 63  1  0  0  0
 63 64  1  0  0  0
 64 65  1  0  0  0
 65 66  1  0  0  0
 66 67  2  0  0  0
 59 55  1  0  0  0
 66 62  1  0  0  0
 48 51  1  0  0  0
 42 45  1  0  0  0
  1  4  1  0  0  0
  7 10  1  0  0  0
 13 16  1  0  0  0
 19 22  1  0  0  0
 25 28  1  0  0  0
 31 34  1  0  0  0
M  END
> <minimizedAffinity>
-8.81971

> <CNNscore>
0.1587050557

> <CNNaffinity>
6.7798357010

> <CNN_VS>
1.0759942532

> <CNNaffinity_variance>
0.4112729132

$$$$
[H]N(C(=O)[C@]([H])(C(=O)C([H])([H])[H])C([H])([H])[H])[C@]([H])(C(=O)N([H])[C@]([H])(C(=O)N([H])[C@]([H])(C(=O)N([H])[C@]([H])(C(=O)N([H])[C@]([H])(C(=O)N([H])[C@]([H])(C(=O)N([H])[C@]([H])(C(=O)N([H])[C@]([H])(C(=O)N1C([H])([H])C([H])([H])C([H])([H])[C@@]1([H])C(=O)N1C(=O)C([H])([H])C([H])([H])C1([H])[H])C([H])([H])C([H])(C([H])([H])[H])C([H])([H])[H])C([H])([H])[H])C([H])([H])[H])C([H])([H])[H])C([H])([H])[H])C([H])([H])[H])C([H])([H])[H])C([H])([H])[H]


 71 72  0  0  0  0  0  0  0  0999 V2000
    2.9738    2.1525   16.6434 N   0  0  0  0  0  0  0  0  0  0  0  0
    4.0125    1.7349   17.4740 C   0  0  0  0  0  0  0  0  0  0  0  0
    5.1585    2.2665   17.3080 O   0  0  0  0  0  0  0  0  0  0  0  0
    2.0200    1.7302   16.7440 H   0  0  0  0  0  0  0  0  0  0  0  0
    3.7967    0.7155   18.5118 C   0  0  0  0  0  0  0  0  0  0  0  0
    2.4676    0.0179   18.2287 C   0  0  0  0  0  0  0  0  0  0  0  0
    3.6702    1.3797   19.7831 N   0  0  0  0  0  0  0  0  0  0  0  0
    4.5741    1.0131   20.8415 C   0  0  0  0  0  0  0  0  0  0  0  0
    5.4190    0.1259   20.6407 O   0  0  0  0  0  0  0  0  0  0  0  0
    2.9291    2.1004   19.9104 H   0  0  0  0  0  0  0  0  0  0  0  0
    4.4925    1.6851   22.1459 C   0  0  0  0  0  0  0  0  0  0  0  0
    3.2616    1.1402   22.9200 C   0  0  0  0  0  0  0  0  0  0  0  0
    4.2132    3.1212   21.9550 N   0  0  0  0  0  0  0  0  0  0  0  0
    5.2785    3.9982   22.2115 C   0  0  0  0  0  0  0  0  0  0  0  0
    6.4082    3.5362   22.5788 O   0  0  0  0  0  0  0  0  0  0  0  0
    3.2606    3.3615   21.6507 H   0  0  0  0  0  0  0  0  0  0  0  0
    5.1082    5.4743   22.0664 C   0  0  0  0  0  0  0  0  0  0  0  0
    4.0014    5.6900   21.0718 C   0  0  0  0  0  0  0  0  0  0  0  0
    6.3890    5.9651   21.5720 N   0  0  0  0  0  0  0  0  0  0  0  0
    7.1128    6.9828   22.2001 C   0  0  0  0  0  0  0  0  0  0  0  0
    6.6469    7.4957   23.2404 O   0  0  0  0  0  0  0  0  0  0  0  0
    6.7417    5.5135   20.7088 H   0  0  0  0  0  0  0  0  0  0  0  0
    8.4278    7.4621   21.6555 C   0  0  0  0  0  0  0  0  0  0  0  0
    9.5967    6.8394   22.3587 C   0  0  0  0  0  0  0  0  0  0  0  0
    8.4377    8.9189   21.7319 N   0  0  0  0  0  0  0  0  0  0  0  0
    7.7880    9.7543   20.8096 C   0  0  0  0  0  0  0  0  0  0  0  0
    7.1578    9.3179   19.8433 O   0  0  0  0  0  0  0  0  0  0  0  0
    8.9810    9.3350   22.5434 H   0  0  0  0  0  0  0  0  0  0  0  0
    7.8684   11.2478   21.0324 C   0  0  0  0  0  0  0  0  0  0  0  0
    8.6587   11.7838   19.8403 C   0  0  0  0  0  0  0  0  0  0  0  0
    8.5789   11.4886   22.2565 N   0  0  0  0  0  0  0  0  0  0  0  0
    8.1158   12.3302   23.3049 C   0  0  0  0  0  0  0  0  0  0  0  0
    7.0125   12.9069   23.1703 O   0  0  0  0  0  0  0  0  0  0  0  0
    9.5159   10.9897   22.3648 H   0  0  0  0  0  0  0  0  0  0  0  0
    8.9720   12.5002   24.5420 C   0  0  0  0  0  0  0  0  0  0  0  0
    9.3057   11.1486   25.1246 C   0  0  0  0  0  0  0  0  0  0  0  0
   10.1800   13.2745   24.2499 C   0  0  0  0  0  0  0  0  0  0  0  0
   11.2065   13.5987   25.2799 C   0  0  0  0  0  0  0  0  0  0  0  0
   10.3825   13.6874   23.1133 O   0  0  0  0  0  0  0  0  0  0  0  0
    3.2015    3.1766   15.6286 C   0  0  0  0  0  0  0  0  0  0  0  0
    2.1384    3.1815   14.5739 C   0  0  0  0  0  0  0  0  0  0  0  0
    4.6370    5.0895   16.5041 N   0  0  0  0  0  0  0  0  0  0  0  0
    3.3663    4.4586   16.3184 C   0  0  0  0  0  0  0  0  0  0  0  0
    2.3391    5.0503   16.7769 O   0  0  0  0  0  0  0  0  0  0  0  0
    5.4749    4.6064   16.1239 H   0  0  0  0  0  0  0  0  0  0  0  0
    4.7650    6.3433   17.1753 C   0  0  0  0  0  0  0  0  0  0  0  0
    5.8712    6.4357   18.1809 C   0  0  0  0  0  0  0  0  0  0  0  0
    3.7086    7.9559   15.6293 N   0  0  0  0  0  0  0  0  0  0  0  0
    4.8980    7.4627   16.1937 C   0  0  0  0  0  0  0  0  0  0  0  0
    6.0367    7.8958   15.9256 O   0  0  0  0  0  0  0  0  0  0  0  0
    2.7925    7.5600   15.8931 H   0  0  0  0  0  0  0  0  0  0  0  0
    3.7715    9.0887   14.6129 C   0  0  0  0  0  0  0  0  0  0  0  0
    3.3007   10.2155   15.3538 C   0  0  0  0  0  0  0  0  0  0  0  0
    2.5146   10.9889   14.5666 O   0  0  0  0  0  0  0  0  0  0  0  0
    3.4120   10.7430   16.6192 N   0  0  0  0  0  0  0  0  0  0  0  0
    4.0969   10.5055   17.8516 C   0  0  0  0  0  0  0  0  0  0  0  0
    2.8887   10.3954   18.7985 C   0  0  0  0  0  0  0  0  0  0  0  0
    2.2013   11.7210   18.4053 C   0  0  0  0  0  0  0  0  0  0  0  0
    2.5882   11.9602   16.9868 C   0  0  0  0  0  0  0  0  0  0  0  0
    3.3979   13.1539   16.7447 C   0  0  0  0  0  0  0  0  0  0  0  0
    4.5564   13.2749   17.2797 O   0  0  0  0  0  0  0  0  0  0  0  0
    2.9275   14.2018   15.9151 N   0  0  0  0  0  0  0  0  0  0  0  0
    3.6572   15.4415   15.5966 C   0  0  0  0  0  0  0  0  0  0  0  0
    2.8527   16.1069   14.5082 C   0  0  0  0  0  0  0  0  0  0  0  0
    1.4360   15.6971   14.9201 C   0  0  0  0  0  0  0  0  0  0  0  0
    1.6894   14.2444   15.2260 C   0  0  0  0  0  0  0  0  0  0  0  0
    0.9428   13.3051   14.9201 O   0  0  0  0  0  0  0  0  0  0  0  0
    3.2434    8.5206   13.3978 C   0  0  0  0  0  0  0  0  0  0  0  0
    1.0087    7.9463   12.4415 C   0  0  0  0  0  0  0  0  0  0  0  0
    2.1400    7.5445   13.3818 C   0  0  0  0  0  0  0  0  0  0  0  0
    2.6715    6.2223   12.7568 C   0  0  0  0  0  0  0  0  0  0  0  0
 69 70  1  0  0  0
 70 71  1  0  0  0
 70 68  1  0  0  0
 68 52  1  0  0  0
 52 48  1  0  0  0
 48 49  1  0  0  0
 49 50  2  0  0  0
 49 46  1  0  0  0
 46 47  1  0  0  0
 46 42  1  0  0  0
 42 43  1  0  0  0
 43 44  2  0  0  0
 43 40  1  0  0  0
 40 41  1  0  0  0
 40  1  1  0  0  0
  1  2  1  0  0  0
  2  3  2  0  0  0
  2  5  1  0  0  0
  5  6  1  0  0  0
  5  7  1  0  0  0
  7  8  1  0  0  0
  8  9  2  0  0  0
  8 11  1  0  0  0
 11 12  1  0  0  0
 11 13  1  0  0  0
 13 14  1  0  0  0
 14 15  2  0  0  0
 14 17  1  0  0  0
 17 18  1  0  0  0
 17 19  1  0  0  0
 19 20  1  0  0  0
 20 21  2  0  0  0
 20 23  1  0  0  0
 23 24  1  0  0  0
 23 25  1  0  0  0
 25 26  1  0  0  0
 26 27  2  0  0  0
 26 29  1  0  0  0
 29 30  1  0  0  0
 29 31  1  0  0  0
 31 32  1  0  0  0
 32 33  2  0  0  0
 32 35  1  0  0  0
 35 36  1  0  0  0
 35 37  1  0  0  0
 37 38  1  0  0  0
 37 39  2  0  0  0
 52 53  1  0  0  0
 53 54  2  0  0  0
 53 55  1  0  0  0
 55 56  1  0  0  0
 56 57  1  0  0  0
 57 58  1  0  0  0
 58 59  1  0  0  0
 59 60  1  0  0  0
 60 61  2  0  0  0
 60 62  1  0  0  0
 62 63  1  0  0  0
 63 64  1  0  0  0
 64 65  1  0  0  0
 65 66  1  0  0  0
 66 67  2  0  0  0
 59 55  1  0  0  0
 66 62  1  0  0  0
 48 51  1  0  0  0
 42 45  1  0  0  0
  1  4  1  0  0  0
  7 10  1  0  0  0
 13 16  1  0  0  0
 19 22  1  0  0  0
 25 28  1  0  0  0
 31 34  1  0  0  0
M  END
> <minimizedAffinity>
-8.66634

> <CNNscore>
0.1478899568

> <CNNaffinity>
7.1632804871

> <CNN_VS>
1.0593771935

> <CNNaffinity_variance>
0.5952619910

$$$$
[H]N(C(=O)[C@]([H])(C(=O)C([H])([H])[H])C([H])([H])[H])[C@]([H])(C(=O)N([H])[C@]([H])(C(=O)N([H])[C@]([H])(C(=O)N([H])[C@]([H])(C(=O)N([H])[C@]([H])(C(=O)N([H])[C@]([H])(C(=O)N([H])[C@]([H])(C(=O)N([H])[C@]([H])(C(=O)N1C([H])([H])C([H])([H])C([H])([H])[C@@]1([H])C(=O)N1C(=O)C([H])([H])C([H])([H])C1([H])[H])C([H])([H])C([H])(C([H])([H])[H])C([H])([H])[H])C([H])([H])[H])C([H])([H])[H])C([H])([H])[H])C([H])([H])[H])C([H])([H])[H])C([H])([H])[H])C([H])([H])[H]


 71 72  0  0  0  0  0  0  0  0999 V2000
    2.8165    1.6770   17.0216 N   0  0  0  0  0  0  0  0  0  0  0  0
    3.8272    1.2493   17.8810 C   0  0  0  0  0  0  0  0  0  0  0  0
    4.9999    1.7136   17.6994 O   0  0  0  0  0  0  0  0  0  0  0  0
    1.8418    1.3089   17.1343 H   0  0  0  0  0  0  0  0  0  0  0  0
    3.5532    0.2949   18.9658 C   0  0  0  0  0  0  0  0  0  0  0  0
    2.1550   -0.2826   18.7536 C   0  0  0  0  0  0  0  0  0  0  0  0
    3.5350    1.0154   20.2124 N   0  0  0  0  0  0  0  0  0  0  0  0
    4.7073    0.9730   21.0464 C   0  0  0  0  0  0  0  0  0  0  0  0
    5.6887    0.3045   20.6838 O   0  0  0  0  0  0  0  0  0  0  0  0
    2.6786    1.5419   20.4846 H   0  0  0  0  0  0  0  0  0  0  0  0
    4.7365    1.7148   22.3147 C   0  0  0  0  0  0  0  0  0  0  0  0
    3.6226    1.1668   23.2474 C   0  0  0  0  0  0  0  0  0  0  0  0
    4.3730    3.1254   22.0805 N   0  0  0  0  0  0  0  0  0  0  0  0
    5.3689    4.0751   22.3566 C   0  0  0  0  0  0  0  0  0  0  0  0
    6.5108    3.6953   22.7766 O   0  0  0  0  0  0  0  0  0  0  0  0
    3.4196    3.2968   21.7352 H   0  0  0  0  0  0  0  0  0  0  0  0
    5.1098    5.5336   22.1714 C   0  0  0  0  0  0  0  0  0  0  0  0
    3.9024    5.6528   21.2833 C   0  0  0  0  0  0  0  0  0  0  0  0
    6.3099    6.0623   21.5342 N   0  0  0  0  0  0  0  0  0  0  0  0
    7.1589    6.9870   22.1489 C   0  0  0  0  0  0  0  0  0  0  0  0
    6.8840    7.3778   23.3040 O   0  0  0  0  0  0  0  0  0  0  0  0
    6.5037    5.7126   20.5783 H   0  0  0  0  0  0  0  0  0  0  0  0
    8.3843    7.5097   21.4556 C   0  0  0  0  0  0  0  0  0  0  0  0
    9.5786    6.6281   21.6673 C   0  0  0  0  0  0  0  0  0  0  0  0
    8.6072    8.8766   21.9142 N   0  0  0  0  0  0  0  0  0  0  0  0
    7.9366    9.9947   21.3938 C   0  0  0  0  0  0  0  0  0  0  0  0
    7.1027    9.9106   20.4889 O   0  0  0  0  0  0  0  0  0  0  0  0
    9.3281    8.9933   22.6846 H   0  0  0  0  0  0  0  0  0  0  0  0
    8.2574   11.3484   21.9865 C   0  0  0  0  0  0  0  0  0  0  0  0
    8.3111   11.1171   23.4953 C   0  0  0  0  0  0  0  0  0  0  0  0
    7.1952   12.2552   21.6539 N   0  0  0  0  0  0  0  0  0  0  0  0
    7.3805   13.5193   21.0297 C   0  0  0  0  0  0  0  0  0  0  0  0
    8.5434   13.8822   20.7398 O   0  0  0  0  0  0  0  0  0  0  0  0
    6.2072   11.9361   21.9003 H   0  0  0  0  0  0  0  0  0  0  0  0
    6.1688   14.3800   20.7411 C   0  0  0  0  0  0  0  0  0  0  0  0
    5.0835   13.5426   20.1096 C   0  0  0  0  0  0  0  0  0  0  0  0
    5.6946   15.0532   21.9518 C   0  0  0  0  0  0  0  0  0  0  0  0
    4.6812   16.1452   21.9307 C   0  0  0  0  0  0  0  0  0  0  0  0
    6.1340   14.7230   23.0478 O   0  0  0  0  0  0  0  0  0  0  0  0
    3.1025    2.6366   15.9597 C   0  0  0  0  0  0  0  0  0  0  0  0
    2.0844    2.5942   14.8623 C   0  0  0  0  0  0  0  0  0  0  0  0
    4.5310    4.5776   16.7836 N   0  0  0  0  0  0  0  0  0  0  0  0
    3.2591    3.9545   16.5803 C   0  0  0  0  0  0  0  0  0  0  0  0
    2.2233    4.5863   16.9590 O   0  0  0  0  0  0  0  0  0  0  0  0
    5.3761    4.0614   16.4684 H   0  0  0  0  0  0  0  0  0  0  0  0
    4.6511    5.8668   17.3856 C   0  0  0  0  0  0  0  0  0  0  0  0
    5.7619    6.0229   18.3782 C   0  0  0  0  0  0  0  0  0  0  0  0
    3.5767    7.3486   15.7255 N   0  0  0  0  0  0  0  0  0  0  0  0
    4.7684    6.9329   16.3446 C   0  0  0  0  0  0  0  0  0  0  0  0
    5.8972    7.3923   16.0784 O   0  0  0  0  0  0  0  0  0  0  0  0
    2.6690    6.9344   15.9905 H   0  0  0  0  0  0  0  0  0  0  0  0
    3.6243    8.4235   14.6473 C   0  0  0  0  0  0  0  0  0  0  0  0
    3.3132    9.6179   15.3664 C   0  0  0  0  0  0  0  0  0  0  0  0
    2.5029   10.4071   14.6205 O   0  0  0  0  0  0  0  0  0  0  0  0
    3.5941   10.1985   16.5813 N   0  0  0  0  0  0  0  0  0  0  0  0
    4.3880    9.9728   17.7488 C   0  0  0  0  0  0  0  0  0  0  0  0
    3.2824   10.0003   18.8191 C   0  0  0  0  0  0  0  0  0  0  0  0
    2.6496   11.3519   18.4225 C   0  0  0  0  0  0  0  0  0  0  0  0
    2.8994   11.4904   16.9605 C   0  0  0  0  0  0  0  0  0  0  0  0
    3.7588   12.6070   16.5685 C   0  0  0  0  0  0  0  0  0  0  0  0
    5.0348   12.4934   16.6115 O   0  0  0  0  0  0  0  0  0  0  0  0
    3.2074   13.8367   16.1310 N   0  0  0  0  0  0  0  0  0  0  0  0
    3.9738   15.0215   15.7070 C   0  0  0  0  0  0  0  0  0  0  0  0
    2.9538   15.9640   15.1186 C   0  0  0  0  0  0  0  0  0  0  0  0
    1.7438   15.6511   16.0033 C   0  0  0  0  0  0  0  0  0  0  0  0
    1.8306   14.1476   15.9999 C   0  0  0  0  0  0  0  0  0  0  0  0
    0.8698   13.3728   15.9001 O   0  0  0  0  0  0  0  0  0  0  0  0
    2.9395    7.8424   13.5198 C   0  0  0  0  0  0  0  0  0  0  0  0
    4.1731    6.8438   11.5911 C   0  0  0  0  0  0  0  0  0  0  0  0
    3.3820    8.0322   12.1274 C   0  0  0  0  0  0  0  0  0  0  0  0
    2.1200    8.0613   11.2175 C   0  0  0  0  0  0  0  0  0  0  0  0
 69 70  1  0  0  0
 70 71  1  0  0  0
 70 68  1  0  0  0
 68 52  1  0  0  0
 52 48  1  0  0  0
 48 49  1  0  0  0
 49 50  2  0  0  0
 49 46  1  0  0  0
 46 47  1  0  0  0
 46 42  1  0  0  0
 42 43  1  0  0  0
 43 44  2  0  0  0
 43 40  1  0  0  0
 40 41  1  0  0  0
 40  1  1  0  0  0
  1  2  1  0  0  0
  2  3  2  0  0  0
  2  5  1  0  0  0
  5  6  1  0  0  0
  5  7  1  0  0  0
  7  8  1  0  0  0
  8  9  2  0  0  0
  8 11  1  0  0  0
 11 12  1  0  0  0
 11 13  1  0  0  0
 13 14  1  0  0  0
 14 15  2  0  0  0
 14 17  1  0  0  0
 17 18  1  0  0  0
 17 19  1  0  0  0
 19 20  1  0  0  0
 20 21  2  0  0  0
 20 23  1  0  0  0
 23 24  1  0  0  0
 23 25  1  0  0  0
 25 26  1  0  0  0
 26 27  2  0  0  0
 26 29  1  0  0  0
 29 30  1  0  0  0
 29 31  1  0  0  0
 31 32  1  0  0  0
 32 33  2  0  0  0
 32 35  1  0  0  0
 35 36  1  0  0  0
 35 37  1  0  0  0
 37 38  1  0  0  0
 37 39  2  0  0  0
 52 53  1  0  0  0
 53 54  2  0  0  0
 53 55  1  0  0  0
 55 56  1  0  0  0
 56 57  1  0  0  0
 57 58  1  0  0  0
 58 59  1  0  0  0
 59 60  1  0  0  0
 60 61  2  0  0  0
 60 62  1  0  0  0
 62 63  1  0  0  0
 63 64  1  0  0  0
 64 65  1  0  0  0
 65 66  1  0  0  0
 66 67  2  0  0  0
 59 55  1  0  0  0
 66 62  1  0  0  0
 48 51  1  0  0  0
 42 45  1  0  0  0
  1  4  1  0  0  0
  7 10  1  0  0  0
 13 16  1  0  0  0
 19 22  1  0  0  0
 25 28  1  0  0  0
 31 34  1  0  0  0
M  END
> <minimizedAffinity>
-8.85015

> <CNNscore>
0.1465348303

> <CNNaffinity>
7.3204116821

> <CNN_VS>
1.0726952553

> <CNNaffinity_variance>
0.4038797915

$$$$
[H]N(C(=O)[C@@]([H])(N([H])C(=O)[C@@]([H])(N([H])C(=O)[C@@]([H])(C(=O)C([H])([H])[H])C([H])([H])[H])C([H])([H])[H])C([H])([H])[H])[C@]([H])(C(=O)N([H])[C@]([H])(C(=O)N([H])[C@]([H])(C(=O)N([H])[C@]([H])(C(=O)N([H])[C@]([H])(C(=O)N1C([H])([H])C([H])([H])C([H])([H])[C@]1([H])C(=O)N1C([H])([H])C([H])([H])C([H])([H])C1([H])[H])C([H])([H])C([H])(C([H])([H])[H])C([H])([H])[H])C([H])([H])[H])C([H])([H])[H])C([H])([H])[H])C([H])([H])[H]


 64 65  0  0  0  0  0  0  0  0999 V2000
    3.4145    9.7204   16.1876 N   0  0  0  0  0  0  0  0  0  0  0  0
    4.4707    9.2190   15.3808 C   0  0  0  0  0  0  0  0  0  0  0  0
    5.6631    9.5072   15.5436 O   0  0  0  0  0  0  0  0  0  0  0  0
    2.4182    9.4347   16.0233 H   0  0  0  0  0  0  0  0  0  0  0  0
    4.1060    8.2864   14.2576 C   0  0  0  0  0  0  0  0  0  0  0  0
    3.6052    6.9586   14.7379 C   0  0  0  0  0  0  0  0  0  0  0  0
    5.2336    8.2181   13.3770 N   0  0  0  0  0  0  0  0  0  0  0  0
    5.0082    7.8286   12.0101 C   0  0  0  0  0  0  0  0  0  0  0  0
    3.8570    7.5632   11.5910 O   0  0  0  0  0  0  0  0  0  0  0  0
    6.1869    8.4482   13.7231 H   0  0  0  0  0  0  0  0  0  0  0  0
    6.1625    7.7467   11.0793 C   0  0  0  0  0  0  0  0  0  0  0  0
    7.4612    8.1225   11.7480 C   0  0  0  0  0  0  0  0  0  0  0  0
    5.8787    8.5341    9.9229 N   0  0  0  0  0  0  0  0  0  0  0  0
    5.5010    8.1264    8.6398 C   0  0  0  0  0  0  0  0  0  0  0  0
    5.3328    6.9451    8.3077 O   0  0  0  0  0  0  0  0  0  0  0  0
    5.9763    9.5949   10.0874 H   0  0  0  0  0  0  0  0  0  0  0  0
    5.2976    9.2162    7.6080 C   0  0  0  0  0  0  0  0  0  0  0  0
    3.8284    9.4279    7.4869 C   0  0  0  0  0  0  0  0  0  0  0  0
    5.8638    8.7365    6.3675 N   0  0  0  0  0  0  0  0  0  0  0  0
    6.5311    9.5939    5.4619 C   0  0  0  0  0  0  0  0  0  0  0  0
    6.6357   10.8078    5.7757 O   0  0  0  0  0  0  0  0  0  0  0  0
    5.7696    7.7269    6.1363 H   0  0  0  0  0  0  0  0  0  0  0  0
    7.0744    9.0471    4.2021 C   0  0  0  0  0  0  0  0  0  0  0  0
    6.0735    8.2569    3.4131 C   0  0  0  0  0  0  0  0  0  0  0  0
    8.1979    8.1867    4.5174 N   0  0  0  0  0  0  0  0  0  0  0  0
    9.5061    8.7109    4.4878 C   0  0  0  0  0  0  0  0  0  0  0  0
    9.6897    9.9120    4.1972 O   0  0  0  0  0  0  0  0  0  0  0  0
    8.0382    7.1698    4.7663 H   0  0  0  0  0  0  0  0  0  0  0  0
   10.6451    7.7989    4.8067 C   0  0  0  0  0  0  0  0  0  0  0  0
   10.2739    7.0107    6.0535 C   0  0  0  0  0  0  0  0  0  0  0  0
   11.9123    8.5456    5.0126 C   0  0  0  0  0  0  0  0  0  0  0  0
   12.9450    8.6388    3.9436 C   0  0  0  0  0  0  0  0  0  0  0  0
   12.1487    9.1046    6.0553 O   0  0  0  0  0  0  0  0  0  0  0  0
    3.6591   10.6430   17.2702 C   0  0  0  0  0  0  0  0  0  0  0  0
    2.5332   11.6349   17.4258 C   0  0  0  0  0  0  0  0  0  0  0  0
    5.2924    9.6856   18.8704 N   0  0  0  0  0  0  0  0  0  0  0  0
    3.9627    9.8971   18.5084 C   0  0  0  0  0  0  0  0  0  0  0  0
    3.0238    9.4720   19.2023 O   0  0  0  0  0  0  0  0  0  0  0  0
    6.0257   10.0932   18.2120 H   0  0  0  0  0  0  0  0  0  0  0  0
    5.8358    8.9996   20.0011 C   0  0  0  0  0  0  0  0  0  0  0  0
    5.2073    9.4971   21.2796 C   0  0  0  0  0  0  0  0  0  0  0  0
    4.4147    6.9054   20.2916 N   0  0  0  0  0  0  0  0  0  0  0  0
    5.6243    7.5301   19.9287 C   0  0  0  0  0  0  0  0  0  0  0  0
    6.5783    6.8307   19.5177 O   0  0  0  0  0  0  0  0  0  0  0  0
    3.6260    7.4824   20.6236 H   0  0  0  0  0  0  0  0  0  0  0  0
    4.2828    5.4425   20.1894 C   0  0  0  0  0  0  0  0  0  0  0  0
    3.4891    5.2297   18.9377 C   0  0  0  0  0  0  0  0  0  0  0  0
    2.6235    6.1358   18.6703 O   0  0  0  0  0  0  0  0  0  0  0  0
    3.6605    4.1388   18.0941 N   0  0  0  0  0  0  0  0  0  0  0  0
    2.9162    3.9963   16.8410 C   0  0  0  0  0  0  0  0  0  0  0  0
    3.8863    3.3797   15.8884 C   0  0  0  0  0  0  0  0  0  0  0  0
    5.0632    2.9340   16.7048 C   0  0  0  0  0  0  0  0  0  0  0  0
    4.5110    2.9971   18.1538 C   0  0  0  0  0  0  0  0  0  0  0  0
    3.7986    1.7183   18.3770 C   0  0  0  0  0  0  0  0  0  0  0  0
    3.2089    1.0946   17.4654 O   0  0  0  0  0  0  0  0  0  0  0  0
    3.7747    1.1632   19.6947 N   0  0  0  0  0  0  0  0  0  0  0  0
    3.1278   -0.1120   20.0345 C   0  0  0  0  0  0  0  0  0  0  0  0
    2.9475    0.0040   21.5279 C   0  0  0  0  0  0  0  0  0  0  0  0
    4.1258    0.8278   21.9813 C   0  0  0  0  0  0  0  0  0  0  0  0
    4.3478    1.7806   20.8556 C   0  0  0  0  0  0  0  0  0  0  0  0
    3.5695    4.8616   21.3401 C   0  0  0  0  0  0  0  0  0  0  0  0
    5.6904    4.6062   22.4654 C   0  0  0  0  0  0  0  0  0  0  0  0
    4.2206    5.0468   22.6992 C   0  0  0  0  0  0  0  0  0  0  0  0
    3.7180    4.0282   23.7150 C   0  0  0  0  0  0  0  0  0  0  0  0
 62 63  1  0  0  0
 63 64  1  0  0  0
 63 61  1  0  0  0
 61 46  1  0  0  0
 46 42  1  0  0  0
 42 43  1  0  0  0
 43 44  2  0  0  0
 43 40  1  0  0  0
 40 41  1  0  0  0
 40 36  1  0  0  0
 36 37  1  0  0  0
 37 38  2  0  0  0
 37 34  1  0  0  0
 34 35  1  0  0  0
 34  1  1  0  0  0
  1  2  1  0  0  0
  2  3  2  0  0  0
  2  5  1  0  0  0
  5  6  1  0  0  0
  5  7  1  0  0  0
  7  8  1  0  0  0
  8  9  2  0  0  0
  8 11  1  0  0  0
 11 12  1  0  0  0
 11 13  1  0  0  0
 13 14  1  0  0  0
 14 15  2  0  0  0
 14 17  1  0  0  0
 17 18  1  0  0  0
 17 19  1  0  0  0
 19 20  1  0  0  0
 20 21  2  0  0  0
 20 23  1  0  0  0
 23 24  1  0  0  0
 23 25  1  0  0  0
 25 26  1  0  0  0
 26 27  2  0  0  0
 26 29  1  0  0  0
 29 30  1  0  0  0
 29 31  1  0  0  0
 31 32  1  0  0  0
 31 33  2  0  0  0
 46 47  1  0  0  0
 47 48  2  0  0  0
 47 49  1  0  0  0
 49 50  1  0  0  0
 50 51  1  0  0  0
 51 52  1  0  0  0
 52 53  1  0  0  0
 53 54  1  0  0  0
 54 55  2  0  0  0
 54 56  1  0  0  0
 56 57  1  0  0  0
 57 58  1  0  0  0
 58 59  1  0  0  0
 59 60  1  0  0  0
 53 49  1  0  0  0
 60 56  1  0  0  0
 42 45  1  0  0  0
 36 39  1  0  0  0
  1  4  1  0  0  0
  7 10  1  0  0  0
 13 16  1  0  0  0
 19 22  1  0  0  0
 25 28  1  0  0  0
M  END
> <minimizedAffinity>
-9.35755

> <CNNscore>
0.4860100746

> <CNNaffinity>
6.8236894608

> <CNN_VS>
3.3163819313

> <CNNaffinity_variance>
0.7785157561

$$$$
[H]N(C(=O)[C@@]([H])(N([H])C(=O)[C@@]([H])(N([H])C(=O)[C@@]([H])(C(=O)C([H])([H])[H])C([H])([H])[H])C([H])([H])[H])C([H])([H])[H])[C@]([H])(C(=O)N([H])[C@]([H])(C(=O)N([H])[C@]([H])(C(=O)N([H])[C@]([H])(C(=O)N([H])[C@]([H])(C(=O)N1C([H])([H])C([H])([H])C([H])([H])[C@]1([H])C(=O)N1C([H])([H])C([H])([H])C([H])([H])C1([H])[H])C([H])([H])C([H])(C([H])([H])[H])C([H])([H])[H])C([H])([H])[H])C([H])([H])[H])C([H])([H])[H])C([H])([H])[H]


 64 65  0  0  0  0  0  0  0  0999 V2000
    4.8101    9.4589   13.9590 N   0  0  0  0  0  0  0  0  0  0  0  0
    4.3404    8.1308   13.7764 C   0  0  0  0  0  0  0  0  0  0  0  0
    3.9938    7.3856   14.7016 O   0  0  0  0  0  0  0  0  0  0  0  0
    5.0773   10.0613   13.1422 H   0  0  0  0  0  0  0  0  0  0  0  0
    4.2703    7.6047   12.3683 C   0  0  0  0  0  0  0  0  0  0  0  0
    2.9572    6.9579   12.0493 C   0  0  0  0  0  0  0  0  0  0  0  0
    5.4146    6.7667   12.1688 N   0  0  0  0  0  0  0  0  0  0  0  0
    6.4172    7.1945   11.2293 C   0  0  0  0  0  0  0  0  0  0  0  0
    6.3038    8.2752   10.6045 O   0  0  0  0  0  0  0  0  0  0  0  0
    5.5127    5.8750   12.6951 H   0  0  0  0  0  0  0  0  0  0  0  0
    7.6106    6.3401   11.0026 C   0  0  0  0  0  0  0  0  0  0  0  0
    8.8875    7.1423   10.9697 C   0  0  0  0  0  0  0  0  0  0  0  0
    7.4046    5.5650    9.8217 N   0  0  0  0  0  0  0  0  0  0  0  0
    6.5592    4.4712    9.6118 C   0  0  0  0  0  0  0  0  0  0  0  0
    5.8072    3.9987   10.4750 O   0  0  0  0  0  0  0  0  0  0  0  0
    7.9985    5.8891    8.9825 H   0  0  0  0  0  0  0  0  0  0  0  0
    6.5883    3.8383    8.2362 C   0  0  0  0  0  0  0  0  0  0  0  0
    7.0876    2.4461    8.4114 C   0  0  0  0  0  0  0  0  0  0  0  0
    7.4931    4.6235    7.4273 N   0  0  0  0  0  0  0  0  0  0  0  0
    7.2283    4.9182    6.0695 C   0  0  0  0  0  0  0  0  0  0  0  0
    6.1556    4.4838    5.5759 O   0  0  0  0  0  0  0  0  0  0  0  0
    8.3692    4.9765    7.8627 H   0  0  0  0  0  0  0  0  0  0  0  0
    8.1998    5.7121    5.2904 C   0  0  0  0  0  0  0  0  0  0  0  0
    9.5451    5.8187    5.9442 C   0  0  0  0  0  0  0  0  0  0  0  0
    7.6666    7.0480    5.1091 N   0  0  0  0  0  0  0  0  0  0  0  0
    7.0194    7.3815    3.9020 C   0  0  0  0  0  0  0  0  0  0  0  0
    6.9034    6.5251    3.0000 O   0  0  0  0  0  0  0  0  0  0  0  0
    7.7640    7.7705    5.8774 H   0  0  0  0  0  0  0  0  0  0  0  0
    6.4891    8.7683    3.7390 C   0  0  0  0  0  0  0  0  0  0  0  0
    6.8181    9.2282    2.3270 C   0  0  0  0  0  0  0  0  0  0  0  0
    7.0590    9.7014    4.7440 C   0  0  0  0  0  0  0  0  0  0  0  0
    6.2577   10.1838    5.9029 C   0  0  0  0  0  0  0  0  0  0  0  0
    8.1941   10.1009    4.6564 O   0  0  0  0  0  0  0  0  0  0  0  0
    4.9411   10.0436   15.2720 C   0  0  0  0  0  0  0  0  0  0  0  0
    3.6279   10.0531   16.0144 C   0  0  0  0  0  0  0  0  0  0  0  0
    5.7352    8.6677   17.1750 N   0  0  0  0  0  0  0  0  0  0  0  0
    6.0321    9.3782   16.0127 C   0  0  0  0  0  0  0  0  0  0  0  0
    7.1946    9.4670   15.5833 O   0  0  0  0  0  0  0  0  0  0  0  0
    4.7075    8.6464   17.4591 H   0  0  0  0  0  0  0  0  0  0  0  0
    6.6030    7.9527   18.0582 C   0  0  0  0  0  0  0  0  0  0  0  0
    6.8711    8.7549   19.3079 C   0  0  0  0  0  0  0  0  0  0  0  0
    4.8821    6.5120   19.2634 N   0  0  0  0  0  0  0  0  0  0  0  0
    6.0386    6.6404   18.4690 C   0  0  0  0  0  0  0  0  0  0  0  0
    6.6316    5.6101   18.0753 O   0  0  0  0  0  0  0  0  0  0  0  0
    4.3892    7.3610   19.5820 H   0  0  0  0  0  0  0  0  0  0  0  0
    4.3839    5.1749   19.6265 C   0  0  0  0  0  0  0  0  0  0  0  0
    3.4058    4.8386   18.5439 C   0  0  0  0  0  0  0  0  0  0  0  0
    2.5107    5.7255   18.3114 O   0  0  0  0  0  0  0  0  0  0  0  0
    3.4428    3.6570   17.8134 N   0  0  0  0  0  0  0  0  0  0  0  0
    2.5134    3.3895   16.7137 C   0  0  0  0  0  0  0  0  0  0  0  0
    3.3235    2.6516   15.6998 C   0  0  0  0  0  0  0  0  0  0  0  0
    4.6117    2.2776   16.3711 C   0  0  0  0  0  0  0  0  0  0  0  0
    4.2904    2.5131   17.8710 C   0  0  0  0  0  0  0  0  0  0  0  0
    3.6190    1.2812   18.3447 C   0  0  0  0  0  0  0  0  0  0  0  0
    3.0026    0.5012   17.5835 O   0  0  0  0  0  0  0  0  0  0  0  0
    3.6689    0.9608   19.7375 N   0  0  0  0  0  0  0  0  0  0  0  0
    3.0681   -0.2465   20.3221 C   0  0  0  0  0  0  0  0  0  0  0  0
    2.9543    0.1219   21.7807 C   0  0  0  0  0  0  0  0  0  0  0  0
    4.1328    1.0291   22.0276 C   0  0  0  0  0  0  0  0  0  0  0  0
    4.2804    1.7772   20.7458 C   0  0  0  0  0  0  0  0  0  0  0  0
    3.7067    5.1646   20.9348 C   0  0  0  0  0  0  0  0  0  0  0  0
    5.9369    4.7001   21.7350 C   0  0  0  0  0  0  0  0  0  0  0  0
    4.5928    5.3541   22.1531 C   0  0  0  0  0  0  0  0  0  0  0  0
    4.1436    4.4887   23.3241 C   0  0  0  0  0  0  0  0  0  0  0  0
 62 63  1  0  0  0
 63 64  1  0  0  0
 63 61  1  0  0  0
 61 46  1  0  0  0
 46 42  1  0  0  0
 42 43  1  0  0  0
 43 44  2  0  0  0
 43 40  1  0  0  0
 40 41  1  0  0  0
 40 36  1  0  0  0
 36 37  1  0  0  0
 37 38  2  0  0  0
 37 34  1  0  0  0
 34 35  1  0  0  0
 34  1  1  0  0  0
  1  2  1  0  0  0
  2  3  2  0  0  0
  2  5  1  0  0  0
  5  6  1  0  0  0
  5  7  1  0  0  0
  7  8  1  0  0  0
  8  9  2  0  0  0
  8 11  1  0  0  0
 11 12  1  0  0  0
 11 13  1  0  0  0
 13 14  1  0  0  0
 14 15  2  0  0  0
 14 17  1  0  0  0
 17 18  1  0  0  0
 17 19  1  0  0  0
 19 20  1  0  0  0
 20 21  2  0  0  0
 20 23  1  0  0  0
 23 24  1  0  0  0
 23 25  1  0  0  0
 25 26  1  0  0  0
 26 27  2  0  0  0
 26 29  1  0  0  0
 29 30  1  0  0  0
 29 31  1  0  0  0
 31 32  1  0  0  0
 31 33  2  0  0  0
 46 47  1  0  0  0
 47 48  2  0  0  0
 47 49  1  0  0  0
 49 50  1  0  0  0
 50 51  1  0  0  0
 51 52  1  0  0  0
 52 53  1  0  0  0
 53 54  1  0  0  0
 54 55  2  0  0  0
 54 56  1  0  0  0
 56 57  1  0  0  0
 57 58  1  0  0  0
 58 59  1  0  0  0
 59 60  1  0  0  0
 53 49  1  0  0  0
 60 56  1  0  0  0
 42 45  1  0  0  0
 36 39  1  0  0  0
  1  4  1  0  0  0
  7 10  1  0  0  0
 13 16  1  0  0  0
 19 22  1  0  0  0
 25 28  1  0  0  0
M  END
> <minimizedAffinity>
-8.19676

> <CNNscore>
0.4060464501

> <CNNaffinity>
6.9753203392

> <CNN_VS>
2.8323040009

> <CNNaffinity_variance>
0.8030541539

$$$$
[H]N(C(=O)[C@@]([H])(N([H])C(=O)[C@@]([H])(N([H])C(=O)[C@@]([H])(C(=O)C([H])([H])[H])C([H])([H])[H])C([H])([H])[H])C([H])([H])[H])[C@]([H])(C(=O)N([H])[C@]([H])(C(=O)N([H])[C@]([H])(C(=O)N([H])[C@]([H])(C(=O)N([H])[C@]([H])(C(=O)N1C([H])([H])C([H])([H])C([H])([H])[C@]1([H])C(=O)N1C([H])([H])C([H])([H])C([H])([H])C1([H])[H])C([H])([H])C([H])(C([H])([H])[H])C([H])([H])[H])C([H])([H])[H])C([H])([H])[H])C([H])([H])[H])C([H])([H])[H]


 64 65  0  0  0  0  0  0  0  0999 V2000
    4.1844    3.2681   18.9120 N   0  0  0  0  0  0  0  0  0  0  0  0
    4.3525    1.8608   18.8174 C   0  0  0  0  0  0  0  0  0  0  0  0
    4.6175    1.2643   17.7660 O   0  0  0  0  0  0  0  0  0  0  0  0
    3.9768    3.7334   19.8295 H   0  0  0  0  0  0  0  0  0  0  0  0
    4.1893    1.0542   20.0772 C   0  0  0  0  0  0  0  0  0  0  0  0
    2.9418    0.2247   20.0841 C   0  0  0  0  0  0  0  0  0  0  0  0
    4.3134    1.9581   21.1813 N   0  0  0  0  0  0  0  0  0  0  0  0
    5.5427    1.9556   21.9293 C   0  0  0  0  0  0  0  0  0  0  0  0
    6.4883    1.1917   21.6236 O   0  0  0  0  0  0  0  0  0  0  0  0
    3.5320    2.5987   21.4280 H   0  0  0  0  0  0  0  0  0  0  0  0
    5.6931    2.8812   23.0809 C   0  0  0  0  0  0  0  0  0  0  0  0
    4.3615    3.3099   23.6448 C   0  0  0  0  0  0  0  0  0  0  0  0
    6.5142    3.9797   22.6849 N   0  0  0  0  0  0  0  0  0  0  0  0
    6.2767    4.9666   21.7231 C   0  0  0  0  0  0  0  0  0  0  0  0
    5.2434    5.0407   21.0444 O   0  0  0  0  0  0  0  0  0  0  0  0
    7.4487    4.0360   23.2193 H   0  0  0  0  0  0  0  0  0  0  0  0
    7.3699    5.9934   21.5123 C   0  0  0  0  0  0  0  0  0  0  0  0
    8.3925    5.7592   22.5694 C   0  0  0  0  0  0  0  0  0  0  0  0
    6.7597    7.2965   21.6504 N   0  0  0  0  0  0  0  0  0  0  0  0
    6.6675    8.2042   20.5695 C   0  0  0  0  0  0  0  0  0  0  0  0
    7.1256    7.8364   19.4570 O   0  0  0  0  0  0  0  0  0  0  0  0
    6.3824    7.5722   22.5794 H   0  0  0  0  0  0  0  0  0  0  0  0
    6.0472    9.5283   20.7773 C   0  0  0  0  0  0  0  0  0  0  0  0
    5.8337    9.8679   22.2223 C   0  0  0  0  0  0  0  0  0  0  0  0
    4.7639    9.5494   20.1029 N   0  0  0  0  0  0  0  0  0  0  0  0
    4.6253   10.2578   18.8921 C   0  0  0  0  0  0  0  0  0  0  0  0
    5.6074   10.8567   18.4046 O   0  0  0  0  0  0  0  0  0  0  0  0
    3.9345    9.0379   20.5176 H   0  0  0  0  0  0  0  0  0  0  0  0
    3.2891   10.2709   18.2248 C   0  0  0  0  0  0  0  0  0  0  0  0
    3.5078   10.0105   16.7423 C   0  0  0  0  0  0  0  0  0  0  0  0
    2.5772   11.5573   18.4350 C   0  0  0  0  0  0  0  0  0  0  0  0
    3.2111   12.6889   19.1668 C   0  0  0  0  0  0  0  0  0  0  0  0
    1.4583   11.7304   18.0182 O   0  0  0  0  0  0  0  0  0  0  0  0
    4.2920    4.1246   17.7553 C   0  0  0  0  0  0  0  0  0  0  0  0
    5.7239    4.2854   17.3087 C   0  0  0  0  0  0  0  0  0  0  0  0
    3.9388    3.0959   15.5277 N   0  0  0  0  0  0  0  0  0  0  0  0
    3.3920    3.6436   16.6874 C   0  0  0  0  0  0  0  0  0  0  0  0
    2.1633    3.7385   16.8457 O   0  0  0  0  0  0  0  0  0  0  0  0
    5.0037    3.0543   15.4886 H   0  0  0  0  0  0  0  0  0  0  0  0
    3.2882    2.5734   14.3666 C   0  0  0  0  0  0  0  0  0  0  0  0
    2.2310    1.5688   14.7541 C   0  0  0  0  0  0  0  0  0  0  0  0
    3.3058    4.3598   12.5506 N   0  0  0  0  0  0  0  0  0  0  0  0
    2.6359    3.6347   13.5558 C   0  0  0  0  0  0  0  0  0  0  0  0
    1.4299    3.8780   13.7893 O   0  0  0  0  0  0  0  0  0  0  0  0
    4.2978    4.1544   12.3532 H   0  0  0  0  0  0  0  0  0  0  0  0
    2.5884    5.3955   11.7886 C   0  0  0  0  0  0  0  0  0  0  0  0
    2.6995    4.9494   10.3637 C   0  0  0  0  0  0  0  0  0  0  0  0
    3.5033    5.6282    9.6322 O   0  0  0  0  0  0  0  0  0  0  0  0
    1.9998    3.8696    9.8387 N   0  0  0  0  0  0  0  0  0  0  0  0
    2.1842    3.4165    8.4584 C   0  0  0  0  0  0  0  0  0  0  0  0
    2.0806    1.9288    8.5276 C   0  0  0  0  0  0  0  0  0  0  0  0
    1.5633    1.5991    9.8965 C   0  0  0  0  0  0  0  0  0  0  0  0
    1.0460    2.9726   10.4007 C   0  0  0  0  0  0  0  0  0  0  0  0
   -0.3230    3.1201    9.8561 C   0  0  0  0  0  0  0  0  0  0  0  0
   -0.7531    2.4458    8.8927 O   0  0  0  0  0  0  0  0  0  0  0  0
   -1.2020    4.0788   10.4504 N   0  0  0  0  0  0  0  0  0  0  0  0
   -2.5902    4.2952   10.0188 C   0  0  0  0  0  0  0  0  0  0  0  0
   -2.8914    5.6664   10.5715 C   0  0  0  0  0  0  0  0  0  0  0  0
   -2.0787    5.7425   11.8389 C   0  0  0  0  0  0  0  0  0  0  0  0
   -0.8451    4.9684   11.5175 C   0  0  0  0  0  0  0  0  0  0  0  0
    3.1952    6.7288   11.9453 C   0  0  0  0  0  0  0  0  0  0  0  0
    1.7389    7.9276   13.4526 C   0  0  0  0  0  0  0  0  0  0  0  0
    3.1641    7.3228   13.3423 C   0  0  0  0  0  0  0  0  0  0  0  0
    4.0630    8.5475   13.4604 C   0  0  0  0  0  0  0  0  0  0  0  0
 62 63  1  0  0  0
 63 64  1  0  0  0
 63 61  1  0  0  0
 61 46  1  0  0  0
 46 42  1  0  0  0
 42 43  1  0  0  0
 43 44  2  0  0  0
 43 40  1  0  0  0
 40 41  1  0  0  0
 40 36  1  0  0  0
 36 37  1  0  0  0
 37 38  2  0  0  0
 37 34  1  0  0  0
 34 35  1  0  0  0
 34  1  1  0  0  0
  1  2  1  0  0  0
  2  3  2  0  0  0
  2  5  1  0  0  0
  5  6  1  0  0  0
  5  7  1  0  0  0
  7  8  1  0  0  0
  8  9  2  0  0  0
  8 11  1  0  0  0
 11 12  1  0  0  0
 11 13  1  0  0  0
 13 14  1  0  0  0
 14 15  2  0  0  0
 14 17  1  0  0  0
 17 18  1  0  0  0
 17 19  1  0  0  0
 19 20  1  0  0  0
 20 21  2  0  0  0
 20 23  1  0  0  0
 23 24  1  0  0  0
 23 25  1  0  0  0
 25 26  1  0  0  0
 26 27  2  0  0  0
 26 29  1  0  0  0
 29 30  1  0  0  0
 29 31  1  0  0  0
 31 32  1  0  0  0
 31 33  2  0  0  0
 46 47  1  0  0  0
 47 48  2  0  0  0
 47 49  1  0  0  0
 49 50  1  0  0  0
 50 51  1  0  0  0
 51 52  1  0  0  0
 52 53  1  0  0  0
 53 54  1  0  0  0
 54 55  2  0  0  0
 54 56  1  0  0  0
 56 57  1  0  0  0
 57 58  1  0  0  0
 58 59  1  0  0  0
 59 60  1  0  0  0
 53 49  1  0  0  0
 60 56  1  0  0  0
 42 45  1  0  0  0
 36 39  1  0  0  0
  1  4  1  0  0  0
  7 10  1  0  0  0
 13 16  1  0  0  0
 19 22  1  0  0  0
 25 28  1  0  0  0
M  END
> <minimizedAffinity>
-8.52803

> <CNNscore>
0.3506436050

> <CNNaffinity>
7.4705686569

> <CNN_VS>
2.6195070744

> <CNNaffinity_variance>
0.5510788560

$$$$
[H]N(C(=O)[C@@]([H])(N([H])C(=O)[C@@]([H])(N([H])C(=O)[C@@]([H])(C(=O)C([H])([H])[H])C([H])([H])[H])C([H])([H])[H])C([H])([H])[H])[C@]([H])(C(=O)N([H])[C@]([H])(C(=O)N([H])[C@]([H])(C(=O)N([H])[C@]([H])(C(=O)N([H])[C@]([H])(C(=O)N1C([H])([H])C([H])([H])C([H])([H])[C@]1([H])C(=O)N1C([H])([H])C([H])([H])C([H])([H])C1([H])[H])C([H])([H])C([H])(C([H])([H])[H])C([H])([H])[H])C([H])([H])[H])C([H])([H])[H])C([H])([H])[H])C([H])([H])[H]


 64 65  0  0  0  0  0  0  0  0999 V2000
    3.8629    8.9628   16.8900 N   0  0  0  0  0  0  0  0  0  0  0  0
    4.5120    8.9472   15.6266 C   0  0  0  0  0  0  0  0  0  0  0  0
    5.3784    9.7614   15.2831 O   0  0  0  0  0  0  0  0  0  0  0  0
    3.1452    8.2408   17.1448 H   0  0  0  0  0  0  0  0  0  0  0  0
    4.1093    7.8751   14.6505 C   0  0  0  0  0  0  0  0  0  0  0  0
    3.7056    6.5964   15.3185 C   0  0  0  0  0  0  0  0  0  0  0  0
    5.1718    7.7439   13.6989 N   0  0  0  0  0  0  0  0  0  0  0  0
    4.8410    7.7789   12.2988 C   0  0  0  0  0  0  0  0  0  0  0  0
    3.6575    7.9289   11.9139 O   0  0  0  0  0  0  0  0  0  0  0  0
    6.1546    7.6296   14.0192 H   0  0  0  0  0  0  0  0  0  0  0  0
    5.9253    7.6407   11.2935 C   0  0  0  0  0  0  0  0  0  0  0  0
    7.2567    8.1117   11.8232 C   0  0  0  0  0  0  0  0  0  0  0  0
    5.5304    8.3085   10.0952 N   0  0  0  0  0  0  0  0  0  0  0  0
    5.6274    7.8835    8.7666 C   0  0  0  0  0  0  0  0  0  0  0  0
    6.0863    6.7866    8.4200 O   0  0  0  0  0  0  0  0  0  0  0  0
    5.0967    9.2807   10.2647 H   0  0  0  0  0  0  0  0  0  0  0  0
    5.1402    8.8457    7.7034 C   0  0  0  0  0  0  0  0  0  0  0  0
    3.6666    8.6595    7.5945 C   0  0  0  0  0  0  0  0  0  0  0  0
    5.8077    8.4899    6.4716 N   0  0  0  0  0  0  0  0  0  0  0  0
    6.4463    9.4520    5.6549 C   0  0  0  0  0  0  0  0  0  0  0  0
    6.4323   10.6490    6.0422 O   0  0  0  0  0  0  0  0  0  0  0  0
    5.8105    7.4920    6.1788 H   0  0  0  0  0  0  0  0  0  0  0  0
    7.0976    9.0286    4.3988 C   0  0  0  0  0  0  0  0  0  0  0  0
    8.1613    9.9754    3.9288 C   0  0  0  0  0  0  0  0  0  0  0  0
    6.0857    8.9205    3.3662 N   0  0  0  0  0  0  0  0  0  0  0  0
    5.4946    7.6690    3.0990 C   0  0  0  0  0  0  0  0  0  0  0  0
    5.8399    6.6639    3.7555 O   0  0  0  0  0  0  0  0  0  0  0  0
    5.7932    9.7755    2.8138 H   0  0  0  0  0  0  0  0  0  0  0  0
    4.4625    7.5854    2.0226 C   0  0  0  0  0  0  0  0  0  0  0  0
    3.0970    7.5388    2.6911 C   0  0  0  0  0  0  0  0  0  0  0  0
    4.6644    6.3992    1.1521 C   0  0  0  0  0  0  0  0  0  0  0  0
    5.7621    6.3472    0.1470 C   0  0  0  0  0  0  0  0  0  0  0  0
    3.9446    5.4340    1.2301 O   0  0  0  0  0  0  0  0  0  0  0  0
    4.1586    9.9681   17.8826 C   0  0  0  0  0  0  0  0  0  0  0  0
    2.9314   10.3563   18.6693 C   0  0  0  0  0  0  0  0  0  0  0  0
    6.5923    9.7443   18.2972 N   0  0  0  0  0  0  0  0  0  0  0  0
    5.2850    9.5240   18.7286 C   0  0  0  0  0  0  0  0  0  0  0  0
    5.0425    8.9613   19.8095 O   0  0  0  0  0  0  0  0  0  0  0  0
    6.6966   10.2386   17.3580 H   0  0  0  0  0  0  0  0  0  0  0  0
    7.8327    9.4080   18.9240 C   0  0  0  0  0  0  0  0  0  0  0  0
    8.1472   10.3761   20.0380 C   0  0  0  0  0  0  0  0  0  0  0  0
    7.7376    7.7788   20.8801 N   0  0  0  0  0  0  0  0  0  0  0  0
    7.8249    8.0368   19.4978 C   0  0  0  0  0  0  0  0  0  0  0  0
    7.8953    7.0770   18.6965 O   0  0  0  0  0  0  0  0  0  0  0  0
    7.6724    8.5696   21.5402 H   0  0  0  0  0  0  0  0  0  0  0  0
    7.7335    6.3904   21.3705 C   0  0  0  0  0  0  0  0  0  0  0  0
    6.3285    6.1677   21.8375 C   0  0  0  0  0  0  0  0  0  0  0  0
    6.0603    6.6024   23.0126 O   0  0  0  0  0  0  0  0  0  0  0  0
    5.3525    5.5434   21.0701 N   0  0  0  0  0  0  0  0  0  0  0  0
    3.9691    5.4035   21.5297 C   0  0  0  0  0  0  0  0  0  0  0  0
    3.1389    5.5801   20.3016 C   0  0  0  0  0  0  0  0  0  0  0  0
    4.0831    5.5366   19.1368 C   0  0  0  0  0  0  0  0  0  0  0  0
    5.3747    4.9563   19.7720 C   0  0  0  0  0  0  0  0  0  0  0  0
    5.2090    3.4849   19.7665 C   0  0  0  0  0  0  0  0  0  0  0  0
    5.5355    2.7553   20.7302 O   0  0  0  0  0  0  0  0  0  0  0  0
    4.6532    2.8580   18.6076 N   0  0  0  0  0  0  0  0  0  0  0  0
    4.4122    1.4125   18.4946 C   0  0  0  0  0  0  0  0  0  0  0  0
    4.3135    1.2162   17.0019 C   0  0  0  0  0  0  0  0  0  0  0  0
    3.7128    2.5034   16.4970 C   0  0  0  0  0  0  0  0  0  0  0  0
    4.2852    3.5419   17.4017 C   0  0  0  0  0  0  0  0  0  0  0  0
    8.6715    6.1874   22.4882 C   0  0  0  0  0  0  0  0  0  0  0  0
   10.8389    5.6926   23.4302 C   0  0  0  0  0  0  0  0  0  0  0  0
    9.9815    5.4977   22.1511 C   0  0  0  0  0  0  0  0  0  0  0  0
   10.7707    6.2599   21.0937 C   0  0  0  0  0  0  0  0  0  0  0  0
 62 63  1  0  0  0
 63 64  1  0  0  0
 63 61  1  0  0  0
 61 46  1  0  0  0
 46 42  1  0  0  0
 42 43  1  0  0  0
 43 44  2  0  0  0
 43 40  1  0  0  0
 40 41  1  0  0  0
 40 36  1  0  0  0
 36 37  1  0  0  0
 37 38  2  0  0  0
 37 34  1  0  0  0
 34 35  1  0  0  0
 34  1  1  0  0  0
  1  2  1  0  0  0
  2  3  2  0  0  0
  2  5  1  0  0  0
  5  6  1  0  0  0
  5  7  1  0  0  0
  7  8  1  0  0  0
  8  9  2  0  0  0
  8 11  1  0  0  0
 11 12  1  0  0  0
 11 13  1  0  0  0
 13 14  1  0  0  0
 14 15  2  0  0  0
 14 17  1  0  0  0
 17 18  1  0  0  0
 17 19  1  0  0  0
 19 20  1  0  0  0
 20 21  2  0  0  0
 20 23  1  0  0  0
 23 24  1  0  0  0
 23 25  1  0  0  0
 25 26  1  0  0  0
 26 27  2  0  0  0
 26 29  1  0  0  0
 29 30  1  0  0  0
 29 31  1  0  0  0
 31 32  1  0  0  0
 31 33  2  0  0  0
 46 47  1  0  0  0
 47 48  2  0  0  0
 47 49  1  0  0  0
 49 50  1  0  0  0
 50 51  1  0  0  0
 51 52  1  0  0  0
 52 53  1  0  0  0
 53 54  1  0  0  0
 54 55  2  0  0  0
 54 56  1  0  0  0
 56 57  1  0  0  0
 57 58  1  0  0  0
 58 59  1  0  0  0
 59 60  1  0  0  0
 53 49  1  0  0  0
 60 56  1  0  0  0
 42 45  1  0  0  0
 36 39  1  0  0  0
  1  4  1  0  0  0
  7 10  1  0  0  0
 13 16  1  0  0  0
 19 22  1  0  0  0
 25 28  1  0  0  0
M  END
> <minimizedAffinity>
-8.22611

> <CNNscore>
0.3496702909

> <CNNaffinity>
6.4127683640

> <CNN_VS>
2.2423546314

> <CNNaffinity_variance>
0.4494162500

$$$$
[H]N(C(=O)[C@@]([H])(N([H])C(=O)[C@@]([H])(N([H])C(=O)[C@@]([H])(C(=O)C([H])([H])[H])C([H])([H])[H])C([H])([H])[H])C([H])([H])[H])[C@]([H])(C(=O)N([H])[C@]([H])(C(=O)N([H])[C@]([H])(C(=O)N([H])[C@]([H])(C(=O)N([H])[C@]([H])(C(=O)N1C([H])([H])C([H])([H])C([H])([H])[C@]1([H])C(=O)N1C([H])([H])C([H])([H])C([H])([H])C1([H])[H])C([H])([H])C([H])(C([H])([H])[H])C([H])([H])[H])C([H])([H])[H])C([H])([H])[H])C([H])([H])[H])C([H])([H])[H]


 64 65  0  0  0  0  0  0  0  0999 V2000
    5.2330   10.4362   17.8429 N   0  0  0  0  0  0  0  0  0  0  0  0
    5.0912    9.9910   16.5014 C   0  0  0  0  0  0  0  0  0  0  0  0
    6.0339    9.8684   15.7092 O   0  0  0  0  0  0  0  0  0  0  0  0
    4.4062   10.5085   18.4852 H   0  0  0  0  0  0  0  0  0  0  0  0
    3.7044    9.6572   16.0219 C   0  0  0  0  0  0  0  0  0  0  0  0
    3.6352    9.4288   14.5429 C   0  0  0  0  0  0  0  0  0  0  0  0
    2.8268   10.6776   16.5118 N   0  0  0  0  0  0  0  0  0  0  0  0
    2.9082   11.9876   15.9217 C   0  0  0  0  0  0  0  0  0  0  0  0
    3.7172   12.2349   14.9966 O   0  0  0  0  0  0  0  0  0  0  0  0
    2.1490   10.4688   17.2725 H   0  0  0  0  0  0  0  0  0  0  0  0
    2.0112   13.0630   16.4161 C   0  0  0  0  0  0  0  0  0  0  0  0
    1.1709   13.6559   15.3128 C   0  0  0  0  0  0  0  0  0  0  0  0
    2.7950   14.0349   17.1081 N   0  0  0  0  0  0  0  0  0  0  0  0
    3.0150   14.1869   18.4806 C   0  0  0  0  0  0  0  0  0  0  0  0
    2.5412   13.4393   19.3470 O   0  0  0  0  0  0  0  0  0  0  0  0
    3.2784   14.7445   16.4563 H   0  0  0  0  0  0  0  0  0  0  0  0
    3.8850   15.3501   18.9092 C   0  0  0  0  0  0  0  0  0  0  0  0
    4.8080   15.6397   17.7768 C   0  0  0  0  0  0  0  0  0  0  0  0
    4.6116   14.9256   20.0845 N   0  0  0  0  0  0  0  0  0  0  0  0
    4.7853   15.7667   21.2083 C   0  0  0  0  0  0  0  0  0  0  0  0
    4.2681   16.9128   21.1658 O   0  0  0  0  0  0  0  0  0  0  0  0
    5.0227   13.9703   20.0960 H   0  0  0  0  0  0  0  0  0  0  0  0
    5.5522   15.2814   22.3735 C   0  0  0  0  0  0  0  0  0  0  0  0
    5.6398   16.2799   23.4888 C   0  0  0  0  0  0  0  0  0  0  0  0
    6.8962   14.9539   21.9394 N   0  0  0  0  0  0  0  0  0  0  0  0
    7.5368   13.8111   22.4596 C   0  0  0  0  0  0  0  0  0  0  0  0
    6.9427   13.0850   23.2846 O   0  0  0  0  0  0  0  0  0  0  0  0
    7.3955   15.5700   21.2374 H   0  0  0  0  0  0  0  0  0  0  0  0
    8.9251   13.5040   22.0024 C   0  0  0  0  0  0  0  0  0  0  0  0
    9.0645   11.9913   21.9246 C   0  0  0  0  0  0  0  0  0  0  0  0
    9.9483   14.0820   22.9104 C   0  0  0  0  0  0  0  0  0  0  0  0
   11.1261   13.2906   23.3625 C   0  0  0  0  0  0  0  0  0  0  0  0
    9.8607   15.2158   23.3133 O   0  0  0  0  0  0  0  0  0  0  0  0
    6.5170   10.8080   18.3871 C   0  0  0  0  0  0  0  0  0  0  0  0
    6.4533   12.1226   19.1244 C   0  0  0  0  0  0  0  0  0  0  0  0
    6.6873    9.5934   20.5413 N   0  0  0  0  0  0  0  0  0  0  0  0
    7.0582    9.7011   19.2017 C   0  0  0  0  0  0  0  0  0  0  0  0
    7.8353    8.8878   18.6741 O   0  0  0  0  0  0  0  0  0  0  0  0
    6.0125   10.3373   20.8999 H   0  0  0  0  0  0  0  0  0  0  0  0
    7.0737    8.6292   21.5240 C   0  0  0  0  0  0  0  0  0  0  0  0
    6.5877    9.0383   22.8927 C   0  0  0  0  0  0  0  0  0  0  0  0
    5.1678    7.0205   21.0054 N   0  0  0  0  0  0  0  0  0  0  0  0
    6.5347    7.2749   21.2327 C   0  0  0  0  0  0  0  0  0  0  0  0
    7.3524    6.3276   21.1865 O   0  0  0  0  0  0  0  0  0  0  0  0
    4.4947    7.8023   21.0364 H   0  0  0  0  0  0  0  0  0  0  0  0
    4.7122    5.6496   20.7205 C   0  0  0  0  0  0  0  0  0  0  0  0
    4.0314    5.7553   19.3911 C   0  0  0  0  0  0  0  0  0  0  0  0
    3.3237    6.8087   19.2138 O   0  0  0  0  0  0  0  0  0  0  0  0
    4.1455    4.7983   18.3900 N   0  0  0  0  0  0  0  0  0  0  0  0
    3.5227    4.9658   17.0752 C   0  0  0  0  0  0  0  0  0  0  0  0
    4.4976    4.3728   16.1125 C   0  0  0  0  0  0  0  0  0  0  0  0
    5.5153    3.6369   16.9327 C   0  0  0  0  0  0  0  0  0  0  0  0
    4.8291    3.5499   18.3219 C   0  0  0  0  0  0  0  0  0  0  0  0
    3.9368    2.3696   18.2652 C   0  0  0  0  0  0  0  0  0  0  0  0
    3.2076    2.1090   17.2812 O   0  0  0  0  0  0  0  0  0  0  0  0
    3.8967    1.4810   19.3849 N   0  0  0  0  0  0  0  0  0  0  0  0
    3.0758    0.2629   19.4348 C   0  0  0  0  0  0  0  0  0  0  0  0
    2.9971   -0.0144   20.9157 C   0  0  0  0  0  0  0  0  0  0  0  0
    4.3135    0.4824   21.4569 C   0  0  0  0  0  0  0  0  0  0  0  0
    4.6220    1.6691   20.6079 C   0  0  0  0  0  0  0  0  0  0  0  0
    3.7631    5.1522   21.7316 C   0  0  0  0  0  0  0  0  0  0  0  0
    5.6404    3.9477   22.6562 C   0  0  0  0  0  0  0  0  0  0  0  0
    4.3587    4.7239   23.0610 C   0  0  0  0  0  0  0  0  0  0  0  0
    3.5155    3.6544   23.7445 C   0  0  0  0  0  0  0  0  0  0  0  0
 62 63  1  0  0  0
 63 64  1  0  0  0
 63 61  1  0  0  0
 61 46  1  0  0  0
 46 42  1  0  0  0
 42 43  1  0  0  0
 43 44  2  0  0  0
 43 40  1  0  0  0
 40 41  1  0  0  0
 40 36  1  0  0  0
 36 37  1  0  0  0
 37 38  2  0  0  0
 37 34  1  0  0  0
 34 35  1  0  0  0
 34  1  1  0  0  0
  1  2  1  0  0  0
  2  3  2  0  0  0
  2  5  1  0  0  0
  5  6  1  0  0  0
  5  7  1  0  0  0
  7  8  1  0  0  0
  8  9  2  0  0  0
  8 11  1  0  0  0
 11 12  1  0  0  0
 11 13  1  0  0  0
 13 14  1  0  0  0
 14 15  2  0  0  0
 14 17  1  0  0  0
 17 18  1  0  0  0
 17 19  1  0  0  0
 19 20  1  0  0  0
 20 21  2  0  0  0
 20 23  1  0  0  0
 23 24  1  0  0  0
 23 25  1  0  0  0
 25 26  1  0  0  0
 26 27  2  0  0  0
 26 29  1  0  0  0
 29 30  1  0  0  0
 29 31  1  0  0  0
 31 32  1  0  0  0
 31 33  2  0  0  0
 46 47  1  0  0  0
 47 48  2  0  0  0
 47 49  1  0  0  0
 49 50  1  0  0  0
 50 51  1  0  0  0
 51 52  1  0  0  0
 52 53  1  0  0  0
 53 54  1  0  0  0
 54 55  2  0  0  0
 54 56  1  0  0  0
 56 57  1  0  0  0
 57 58  1  0  0  0
 58 59  1  0  0  0
 59 60  1  0  0  0
 53 49  1  0  0  0
 60 56  1  0  0  0
 42 45  1  0  0  0
 36 39  1  0  0  0
  1  4  1  0  0  0
  7 10  1  0  0  0
 13 16  1  0  0  0
 19 22  1  0  0  0
 25 28  1  0  0  0
M  END
> <minimizedAffinity>
-8.66577

> <CNNscore>
0.3136494756

> <CNNaffinity>
6.6915941238

> <CNN_VS>
2.0988149643

> <CNNaffinity_variance>
0.8068040013

$$$$
[H]N(C(=O)[C@@]([H])(N([H])C(=O)[C@@]([H])(N([H])C(=O)[C@@]([H])(C(=O)C([H])([H])[H])C([H])([H])[H])C([H])([H])[H])C([H])([H])[H])[C@]([H])(C(=O)N([H])[C@]([H])(C(=O)N([H])[C@]([H])(C(=O)N([H])[C@]([H])(C(=O)N([H])[C@]([H])(C(=O)N1C([H])([H])C([H])([H])C([H])([H])[C@]1([H])C(=O)N1C([H])([H])C([H])([H])C([H])([H])C1([H])[H])C([H])([H])C([H])(C([H])([H])[H])C([H])([H])[H])C([H])([H])[H])C([H])([H])[H])C([H])([H])[H])C([H])([H])[H]


 64 65  0  0  0  0  0  0  0  0999 V2000
    3.2626    9.3213   18.6084 N   0  0  0  0  0  0  0  0  0  0  0  0
    4.5661    8.7709   18.4832 C   0  0  0  0  0  0  0  0  0  0  0  0
    5.5647    9.4236   18.1543 O   0  0  0  0  0  0  0  0  0  0  0  0
    2.4469    8.7324   18.9073 H   0  0  0  0  0  0  0  0  0  0  0  0
    4.7310    7.3016   18.7631 C   0  0  0  0  0  0  0  0  0  0  0  0
    3.6816    6.4586   18.1053 C   0  0  0  0  0  0  0  0  0  0  0  0
    4.8201    7.1456   20.1842 N   0  0  0  0  0  0  0  0  0  0  0  0
    6.0954    6.7977   20.7529 C   0  0  0  0  0  0  0  0  0  0  0  0
    7.1085    6.6422   20.0313 O   0  0  0  0  0  0  0  0  0  0  0  0
    3.9812    7.2847   20.7830 H   0  0  0  0  0  0  0  0  0  0  0  0
    6.2114    6.6266   22.2236 C   0  0  0  0  0  0  0  0  0  0  0  0
    7.5833    6.9915   22.7331 C   0  0  0  0  0  0  0  0  0  0  0  0
    5.8221    5.2962   22.5647 N   0  0  0  0  0  0  0  0  0  0  0  0
    4.5484    4.7195   22.5846 C   0  0  0  0  0  0  0  0  0  0  0  0
    3.5099    5.3180   22.2727 O   0  0  0  0  0  0  0  0  0  0  0  0
    6.6478    4.6621   22.8442 H   0  0  0  0  0  0  0  0  0  0  0  0
    4.4592    3.2733   23.0252 C   0  0  0  0  0  0  0  0  0  0  0  0
    5.7856    2.9138   23.5993 C   0  0  0  0  0  0  0  0  0  0  0  0
    4.1658    2.4885   21.8473 N   0  0  0  0  0  0  0  0  0  0  0  0
    3.5475    1.2186   21.9220 C   0  0  0  0  0  0  0  0  0  0  0  0
    3.2383    0.7855   23.0621 O   0  0  0  0  0  0  0  0  0  0  0  0
    4.4253    2.8737   20.9168 H   0  0  0  0  0  0  0  0  0  0  0  0
    3.2883    0.4573   20.6833 C   0  0  0  0  0  0  0  0  0  0  0  0
    3.7696   -0.9617   20.7424 C   0  0  0  0  0  0  0  0  0  0  0  0
    3.9530    1.1254   19.5816 N   0  0  0  0  0  0  0  0  0  0  0  0
    3.4444    0.9864   18.2742 C   0  0  0  0  0  0  0  0  0  0  0  0
    2.4232    0.2955   18.0731 O   0  0  0  0  0  0  0  0  0  0  0  0
    4.8167    1.7128   19.7564 H   0  0  0  0  0  0  0  0  0  0  0  0
    4.1556    1.6774   17.1573 C   0  0  0  0  0  0  0  0  0  0  0  0
    4.8688    2.8882   17.7394 C   0  0  0  0  0  0  0  0  0  0  0  0
    3.2241    2.0841   16.0745 C   0  0  0  0  0  0  0  0  0  0  0  0
    2.7100    3.4779   15.9706 C   0  0  0  0  0  0  0  0  0  0  0  0
    2.8515    1.2973   15.2391 O   0  0  0  0  0  0  0  0  0  0  0  0
    2.9969   10.7130   18.3332 C   0  0  0  0  0  0  0  0  0  0  0  0
    3.7896   11.6238   19.2375 C   0  0  0  0  0  0  0  0  0  0  0  0
    3.0919    9.9450   15.9782 N   0  0  0  0  0  0  0  0  0  0  0  0
    3.1974   10.9891   16.8962 C   0  0  0  0  0  0  0  0  0  0  0  0
    3.4574   12.1492   16.5352 O   0  0  0  0  0  0  0  0  0  0  0  0
    2.8613    8.9869   16.3859 H   0  0  0  0  0  0  0  0  0  0  0  0
    3.2455    9.9562   14.5567 C   0  0  0  0  0  0  0  0  0  0  0  0
    4.6838   10.2107   14.1776 C   0  0  0  0  0  0  0  0  0  0  0  0
    2.0801    8.6059   12.7379 N   0  0  0  0  0  0  0  0  0  0  0  0
    2.8269    8.6747   13.9306 C   0  0  0  0  0  0  0  0  0  0  0  0
    3.1689    7.6152   14.5039 O   0  0  0  0  0  0  0  0  0  0  0  0
    1.8043    9.4789   12.2615 H   0  0  0  0  0  0  0  0  0  0  0  0
    1.7057    7.2961   12.1792 C   0  0  0  0  0  0  0  0  0  0  0  0
    2.3954    7.2502   10.8510 C   0  0  0  0  0  0  0  0  0  0  0  0
    1.9122    8.0218    9.9493 O   0  0  0  0  0  0  0  0  0  0  0  0
    3.4947    6.4437   10.5824 N   0  0  0  0  0  0  0  0  0  0  0  0
    4.1891    6.4743    9.2934 C   0  0  0  0  0  0  0  0  0  0  0  0
    5.6315    6.2910    9.6320 C   0  0  0  0  0  0  0  0  0  0  0  0
    5.6839    5.8829   11.0745 C   0  0  0  0  0  0  0  0  0  0  0  0
    4.2103    5.4947   11.3683 C   0  0  0  0  0  0  0  0  0  0  0  0
    4.0580    4.0926   10.9174 C   0  0  0  0  0  0  0  0  0  0  0  0
    4.8374    3.5463   10.1038 O   0  0  0  0  0  0  0  0  0  0  0  0
    2.9693    3.3185   11.4278 N   0  0  0  0  0  0  0  0  0  0  0  0
    2.7313    1.9106   11.0794 C   0  0  0  0  0  0  0  0  0  0  0  0
    1.2779    1.7285   11.4409 C   0  0  0  0  0  0  0  0  0  0  0  0
    1.0687    2.6518   12.6142 C   0  0  0  0  0  0  0  0  0  0  0  0
    1.9577    3.8118   12.3168 C   0  0  0  0  0  0  0  0  0  0  0  0
    0.2505    7.1606   11.9933 C   0  0  0  0  0  0  0  0  0  0  0  0
    0.1562    6.0569   14.1387 C   0  0  0  0  0  0  0  0  0  0  0  0
   -0.5869    7.0970   13.2582 C   0  0  0  0  0  0  0  0  0  0  0  0
   -1.9368    6.4335   13.0147 C   0  0  0  0  0  0  0  0  0  0  0  0
 62 63  1  0  0  0
 63 64  1  0  0  0
 63 61  1  0  0  0
 61 46  1  0  0  0
 46 42  1  0  0  0
 42 43  1  0  0  0
 43 44  2  0  0  0
 43 40  1  0  0  0
 40 41  1  0  0  0
 40 36  1  0  0  0
 36 37  1  0  0  0
 37 38  2  0  0  0
 37 34  1  0  0  0
 34 35  1  0  0  0
 34  1  1  0  0  0
  1  2  1  0  0  0
  2  3  2  0  0  0
  2  5  1  0  0  0
  5  6  1  0  0  0
  5  7  1  0  0  0
  7  8  1  0  0  0
  8  9  2  0  0  0
  8 11  1  0  0  0
 11 12  1  0  0  0
 11 13  1  0  0  0
 13 14  1  0  0  0
 14 15  2  0  0  0
 14 17  1  0  0  0
 17 18  1  0  0  0
 17 19  1  0  0  0
 19 20  1  0  0  0
 20 21  2  0  0  0
 20 23  1  0  0  0
 23 24  1  0  0  0
 23 25  1  0  0  0
 25 26  1  0  0  0
 26 27  2  0  0  0
 26 29  1  0  0  0
 29 30  1  0  0  0
 29 31  1  0  0  0
 31 32  1  0  0  0
 31 33  2  0  0  0
 46 47  1  0  0  0
 47 48  2  0  0  0
 47 49  1  0  0  0
 49 50  1  0  0  0
 50 51  1  0  0  0
 51 52  1  0  0  0
 52 53  1  0  0  0
 53 54  1  0  0  0
 54 55  2  0  0  0
 54 56  1  0  0  0
 56 57  1  0  0  0
 57 58  1  0  0  0
 58 59  1  0  0  0
 59 60  1  0  0  0
 53 49  1  0  0  0
 60 56  1  0  0  0
 42 45  1  0  0  0
 36 39  1  0  0  0
  1  4  1  0  0  0
  7 10  1  0  0  0
 13 16  1  0  0  0
 19 22  1  0  0  0
 25 28  1  0  0  0
M  END
> <minimizedAffinity>
-8.93873

> <CNNscore>
0.3056798279

> <CNNaffinity>
7.5962386131

> <CNN_VS>
2.3220169544

> <CNNaffinity_variance>
0.5097662210

$$$$
[H]N(C(=O)[C@@]([H])(N([H])C(=O)[C@@]([H])(N([H])C(=O)[C@@]([H])(C(=O)C([H])([H])[H])C([H])([H])[H])C([H])([H])[H])C([H])([H])[H])[C@]([H])(C(=O)N([H])[C@]([H])(C(=O)N([H])[C@]([H])(C(=O)N([H])[C@]([H])(C(=O)N([H])[C@]([H])(C(=O)N1C([H])([H])C([H])([H])C([H])([H])[C@]1([H])C(=O)N1C([H])([H])C([H])([H])C([H])([H])C1([H])[H])C([H])([H])C([H])(C([H])([H])[H])C([H])([H])[H])C([H])([H])[H])C([H])([H])[H])C([H])([H])[H])C([H])([H])[H]


 64 65  0  0  0  0  0  0  0  0999 V2000
    3.2921    1.8560   17.7062 N   0  0  0  0  0  0  0  0  0  0  0  0
    4.3694    2.1656   18.5788 C   0  0  0  0  0  0  0  0  0  0  0  0
    5.2967    2.9321   18.2892 O   0  0  0  0  0  0  0  0  0  0  0  0
    2.5172    1.2126   18.0012 H   0  0  0  0  0  0  0  0  0  0  0  0
    4.3779    1.5105   19.9336 C   0  0  0  0  0  0  0  0  0  0  0  0
    3.3107    0.4706   20.0881 C   0  0  0  0  0  0  0  0  0  0  0  0
    4.3419    2.5555   20.9126 N   0  0  0  0  0  0  0  0  0  0  0  0
    5.3477    2.5601   21.9418 C   0  0  0  0  0  0  0  0  0  0  0  0
    6.2407    1.6813   21.9822 O   0  0  0  0  0  0  0  0  0  0  0  0
    3.6065    3.2898   20.8724 H   0  0  0  0  0  0  0  0  0  0  0  0
    5.3282    3.6311   22.9703 C   0  0  0  0  0  0  0  0  0  0  0  0
    3.9713    4.2782   23.0933 C   0  0  0  0  0  0  0  0  0  0  0  0
    6.3704    4.5637   22.6841 N   0  0  0  0  0  0  0  0  0  0  0  0
    6.5774    5.3437   21.5422 C   0  0  0  0  0  0  0  0  0  0  0  0
    5.8257    5.3472   20.5578 O   0  0  0  0  0  0  0  0  0  0  0  0
    7.0912    4.6643   23.4793 H   0  0  0  0  0  0  0  0  0  0  0  0
    7.8084    6.2258   21.5303 C   0  0  0  0  0  0  0  0  0  0  0  0
    8.6501    5.8088   22.6860 C   0  0  0  0  0  0  0  0  0  0  0  0
    7.3537    7.5902   21.6760 N   0  0  0  0  0  0  0  0  0  0  0  0
    7.3970    8.5175   20.6089 C   0  0  0  0  0  0  0  0  0  0  0  0
    7.8362    8.1135   19.5012 O   0  0  0  0  0  0  0  0  0  0  0  0
    6.9884    7.8957   22.6005 H   0  0  0  0  0  0  0  0  0  0  0  0
    6.9329    9.9029   20.8245 C   0  0  0  0  0  0  0  0  0  0  0  0
    6.3467   10.1315   22.1856 C   0  0  0  0  0  0  0  0  0  0  0  0
    5.9257   10.2140   19.8291 N   0  0  0  0  0  0  0  0  0  0  0  0
    5.9744   11.4493   19.1518 C   0  0  0  0  0  0  0  0  0  0  0  0
    6.8858   12.2646   19.4075 O   0  0  0  0  0  0  0  0  0  0  0  0
    5.1564    9.5190   19.6128 H   0  0  0  0  0  0  0  0  0  0  0  0
    4.9178   11.7472   18.1390 C   0  0  0  0  0  0  0  0  0  0  0  0
    3.5691   11.4367   18.7699 C   0  0  0  0  0  0  0  0  0  0  0  0
    5.1094   10.9645   16.8915 C   0  0  0  0  0  0  0  0  0  0  0  0
    4.0101   10.7940   15.9013 C   0  0  0  0  0  0  0  0  0  0  0  0
    6.1652   10.4394   16.6364 O   0  0  0  0  0  0  0  0  0  0  0  0
    3.2096    2.4104   16.3762 C   0  0  0  0  0  0  0  0  0  0  0  0
    2.2317    1.6524   15.5132 C   0  0  0  0  0  0  0  0  0  0  0  0
    3.9047    4.7654   16.0362 N   0  0  0  0  0  0  0  0  0  0  0  0
    2.9302    3.8588   16.4510 C   0  0  0  0  0  0  0  0  0  0  0  0
    1.8296    4.2393   16.8843 O   0  0  0  0  0  0  0  0  0  0  0  0
    4.8142    4.3405   15.6762 H   0  0  0  0  0  0  0  0  0  0  0  0
    3.8768    6.1948   16.0162 C   0  0  0  0  0  0  0  0  0  0  0  0
    5.2049    6.7606   16.4555 C   0  0  0  0  0  0  0  0  0  0  0  0
    4.0984    6.1932   13.4784 N   0  0  0  0  0  0  0  0  0  0  0  0
    3.5719    6.7376   14.6664 C   0  0  0  0  0  0  0  0  0  0  0  0
    2.8035    7.7243   14.6028 O   0  0  0  0  0  0  0  0  0  0  0  0
    4.7261    5.3755   13.5303 H   0  0  0  0  0  0  0  0  0  0  0  0
    3.7466    6.7872   12.1780 C   0  0  0  0  0  0  0  0  0  0  0  0
    3.7742    5.6328   11.2249 C   0  0  0  0  0  0  0  0  0  0  0  0
    4.5576    5.7636   10.2194 O   0  0  0  0  0  0  0  0  0  0  0  0
    3.0208    4.4774   11.3939 N   0  0  0  0  0  0  0  0  0  0  0  0
    3.1235    3.3377   10.4800 C   0  0  0  0  0  0  0  0  0  0  0  0
    2.9844    2.1344   11.3527 C   0  0  0  0  0  0  0  0  0  0  0  0
    2.5282    2.6287   12.6935 C   0  0  0  0  0  0  0  0  0  0  0  0
    2.0732    4.0790   12.3807 C   0  0  0  0  0  0  0  0  0  0  0  0
    0.6829    3.9740   11.8822 C   0  0  0  0  0  0  0  0  0  0  0  0
    0.3264    3.1414   11.0175 O   0  0  0  0  0  0  0  0  0  0  0  0
   -0.3063    4.8644   12.4051 N   0  0  0  0  0  0  0  0  0  0  0  0
   -1.7223    4.8374   12.0122 C   0  0  0  0  0  0  0  0  0  0  0  0
   -2.1991    6.2083   12.4240 C   0  0  0  0  0  0  0  0  0  0  0  0
   -1.3714    6.5396   13.6396 C   0  0  0  0  0  0  0  0  0  0  0  0
   -0.0499    5.9106   13.3523 C   0  0  0  0  0  0  0  0  0  0  0  0
    4.7129    7.8137   11.7501 C   0  0  0  0  0  0  0  0  0  0  0  0
    6.0578    9.2070   13.1922 C   0  0  0  0  0  0  0  0  0  0  0  0
    6.0454    7.8291   12.4779 C   0  0  0  0  0  0  0  0  0  0  0  0
    7.2199    7.9359   11.5130 C   0  0  0  0  0  0  0  0  0  0  0  0
 62 63  1  0  0  0
 63 64  1  0  0  0
 63 61  1  0  0  0
 61 46  1  0  0  0
 46 42  1  0  0  0
 42 43  1  0  0  0
 43 44  2  0  0  0
 43 40  1  0  0  0
 40 41  1  0  0  0
 40 36  1  0  0  0
 36 37  1  0  0  0
 37 38  2  0  0  0
 37 34  1  0  0  0
 34 35  1  0  0  0
 34  1  1  0  0  0
  1  2  1  0  0  0
  2  3  2  0  0  0
  2  5  1  0  0  0
  5  6  1  0  0  0
  5  7  1  0  0  0
  7  8  1  0  0  0
  8  9  2  0  0  0
  8 11  1  0  0  0
 11 12  1  0  0  0
 11 13  1  0  0  0
 13 14  1  0  0  0
 14 15  2  0  0  0
 14 17  1  0  0  0
 17 18  1  0  0  0
 17 19  1  0  0  0
 19 20  1  0  0  0
 20 21  2  0  0  0
 20 23  1  0  0  0
 23 24  1  0  0  0
 23 25  1  0  0  0
 25 26  1  0  0  0
 26 27  2  0  0  0
 26 29  1  0  0  0
 29 30  1  0  0  0
 29 31  1  0  0  0
 31 32  1  0  0  0
 31 33  2  0  0  0
 46 47  1  0  0  0
 47 48  2  0  0  0
 47 49  1  0  0  0
 49 50  1  0  0  0
 50 51  1  0  0  0
 51 52  1  0  0  0
 52 53  1  0  0  0
 53 54  1  0  0  0
 54 55  2  0  0  0
 54 56  1  0  0  0
 56 57  1  0  0  0
 57 58  1  0  0  0
 58 59  1  0  0  0
 59 60  1  0  0  0
 53 49  1  0  0  0
 60 56  1  0  0  0
 42 45  1  0  0  0
 36 39  1  0  0  0
  1  4  1  0  0  0
  7 10  1  0  0  0
 13 16  1  0  0  0
 19 22  1  0  0  0
 25 28  1  0  0  0
M  END
> <minimizedAffinity>
-8.21057

> <CNNscore>
0.2757425606

> <CNNaffinity>
7.4253511429

> <CNN_VS>
2.0474853516

> <CNNaffinity_variance>
0.5251607895

$$$$
[H]N(C(=O)[C@@]([H])(N([H])C(=O)[C@@]([H])(N([H])C(=O)[C@@]([H])(C(=O)C([H])([H])[H])C([H])([H])[H])C([H])([H])[H])C([H])([H])[H])[C@]([H])(C(=O)N([H])[C@]([H])(C(=O)N([H])[C@]([H])(C(=O)N([H])[C@]([H])(C(=O)N([H])[C@]([H])(C(=O)N1C([H])([H])C([H])([H])C([H])([H])[C@]1([H])C(=O)N1C([H])([H])C([H])([H])C([H])([H])C1([H])[H])C([H])([H])C([H])(C([H])([H])[H])C([H])([H])[H])C([H])([H])[H])C([H])([H])[H])C([H])([H])[H])C([H])([H])[H]


 64 65  0  0  0  0  0  0  0  0999 V2000
    3.6484    8.8914   16.9091 N   0  0  0  0  0  0  0  0  0  0  0  0
    4.2579    8.7482   15.6340 C   0  0  0  0  0  0  0  0  0  0  0  0
    5.1362    9.5030   15.1978 O   0  0  0  0  0  0  0  0  0  0  0  0
    2.9185    8.2162   17.2451 H   0  0  0  0  0  0  0  0  0  0  0  0
    3.7952    7.6099   14.7654 C   0  0  0  0  0  0  0  0  0  0  0  0
    3.4588    6.3764   15.5462 C   0  0  0  0  0  0  0  0  0  0  0  0
    4.7840    7.4221   13.7462 N   0  0  0  0  0  0  0  0  0  0  0  0
    4.4435    7.7744   12.3931 C   0  0  0  0  0  0  0  0  0  0  0  0
    3.3163    8.2423   12.1071 O   0  0  0  0  0  0  0  0  0  0  0  0
    5.7224    7.0432   13.9861 H   0  0  0  0  0  0  0  0  0  0  0  0
    5.4510    7.5847   11.3187 C   0  0  0  0  0  0  0  0  0  0  0  0
    6.7606    8.2604   11.6399 C   0  0  0  0  0  0  0  0  0  0  0  0
    4.8882    8.0131   10.0786 N   0  0  0  0  0  0  0  0  0  0  0  0
    4.9153    7.3902    8.8270 C   0  0  0  0  0  0  0  0  0  0  0  0
    5.4543    6.2971    8.6067 O   0  0  0  0  0  0  0  0  0  0  0  0
    4.3720    8.9573   10.1412 H   0  0  0  0  0  0  0  0  0  0  0  0
    4.2420    8.1215    7.6844 C   0  0  0  0  0  0  0  0  0  0  0  0
    4.7388    9.5251    7.7171 C   0  0  0  0  0  0  0  0  0  0  0  0
    2.8177    8.0620    7.9237 N   0  0  0  0  0  0  0  0  0  0  0  0
    1.9858    7.1095    7.2901 C   0  0  0  0  0  0  0  0  0  0  0  0
    2.5292    6.2876    6.5078 O   0  0  0  0  0  0  0  0  0  0  0  0
    2.3955    8.7486    8.5808 H   0  0  0  0  0  0  0  0  0  0  0  0
    0.5343    7.1096    7.5631 C   0  0  0  0  0  0  0  0  0  0  0  0
   -0.2021    8.2229    6.8797 C   0  0  0  0  0  0  0  0  0  0  0  0
    0.3322    7.2311    8.9936 N   0  0  0  0  0  0  0  0  0  0  0  0
   -0.0535    6.0998    9.7409 C   0  0  0  0  0  0  0  0  0  0  0  0
   -0.2127    5.0003    9.1695 O   0  0  0  0  0  0  0  0  0  0  0  0
    0.4712    8.1642    9.4750 H   0  0  0  0  0  0  0  0  0  0  0  0
   -0.2647    6.2568   11.2111 C   0  0  0  0  0  0  0  0  0  0  0  0
    1.0276    5.8637   11.9105 C   0  0  0  0  0  0  0  0  0  0  0  0
   -1.4002    5.4333   11.6991 C   0  0  0  0  0  0  0  0  0  0  0  0
   -2.7952    5.6773   11.2382 C   0  0  0  0  0  0  0  0  0  0  0  0
   -1.2308    4.5354   12.4869 O   0  0  0  0  0  0  0  0  0  0  0  0
    4.0027    9.9678   17.8029 C   0  0  0  0  0  0  0  0  0  0  0  0
    2.8187   10.4371   18.6115 C   0  0  0  0  0  0  0  0  0  0  0  0
    6.4512    9.8393   18.1681 N   0  0  0  0  0  0  0  0  0  0  0  0
    5.1623    9.5749   18.6292 C   0  0  0  0  0  0  0  0  0  0  0  0
    4.9635    9.0148   19.7203 O   0  0  0  0  0  0  0  0  0  0  0  0
    6.5174   10.3274   17.2223 H   0  0  0  0  0  0  0  0  0  0  0  0
    7.7160    9.5559   18.7719 C   0  0  0  0  0  0  0  0  0  0  0  0
    8.0226   10.5540   19.8614 C   0  0  0  0  0  0  0  0  0  0  0  0
    7.8908    7.9649   20.7537 N   0  0  0  0  0  0  0  0  0  0  0  0
    7.7675    8.1959   19.3694 C   0  0  0  0  0  0  0  0  0  0  0  0
    7.6912    7.2205   18.5877 O   0  0  0  0  0  0  0  0  0  0  0  0
    7.9465    8.7688   21.3987 H   0  0  0  0  0  0  0  0  0  0  0  0
    7.9326    6.5861   21.2686 C   0  0  0  0  0  0  0  0  0  0  0  0
    6.5683    6.3652   21.8445 C   0  0  0  0  0  0  0  0  0  0  0  0
    6.3777    6.8466   23.0166 O   0  0  0  0  0  0  0  0  0  0  0  0
    5.5502    5.6958   21.1764 N   0  0  0  0  0  0  0  0  0  0  0  0
    4.2056    5.5577   21.7399 C   0  0  0  0  0  0  0  0  0  0  0  0
    3.2871    5.6703   20.5684 C   0  0  0  0  0  0  0  0  0  0  0  0
    4.1463    5.5891   19.3415 C   0  0  0  0  0  0  0  0  0  0  0  0
    5.4892    5.0537   19.9058 C   0  0  0  0  0  0  0  0  0  0  0  0
    5.3473    3.5814   19.9741 C   0  0  0  0  0  0  0  0  0  0  0  0
    5.7377    2.9001   20.9494 O   0  0  0  0  0  0  0  0  0  0  0  0
    4.7393    2.8956   18.8763 N   0  0  0  0  0  0  0  0  0  0  0  0
    4.5159    1.4434   18.8403 C   0  0  0  0  0  0  0  0  0  0  0  0
    4.3392    1.1791   17.3655 C   0  0  0  0  0  0  0  0  0  0  0  0
    3.6911    2.4341   16.8385 C   0  0  0  0  0  0  0  0  0  0  0  0
    4.2950    3.5197   17.6637 C   0  0  0  0  0  0  0  0  0  0  0  0
    8.9536    6.4089   22.3157 C   0  0  0  0  0  0  0  0  0  0  0  0
   11.1752    7.3545   22.3259 C   0  0  0  0  0  0  0  0  0  0  0  0
   10.3661    6.1232   21.8376 C   0  0  0  0  0  0  0  0  0  0  0  0
   10.4842    6.2186   20.3214 C   0  0  0  0  0  0  0  0  0  0  0  0
 62 63  1  0  0  0
 63 64  1  0  0  0
 63 61  1  0  0  0
 61 46  1  0  0  0
 46 42  1  0  0  0
 42 43  1  0  0  0
 43 44  2  0  0  0
 43 40  1  0  0  0
 40 41  1  0  0  0
 40 36  1  0  0  0
 36 37  1  0  0  0
 37 38  2  0  0  0
 37 34  1  0  0  0
 34 35  1  0  0  0
 34  1  1  0  0  0
  1  2  1  0  0  0
  2  3  2  0  0  0
  2  5  1  0  0  0
  5  6  1  0  0  0
  5  7  1  0  0  0
  7  8  1  0  0  0
  8  9  2  0  0  0
  8 11  1  0  0  0
 11 12  1  0  0  0
 11 13  1  0  0  0
 13 14  1  0  0  0
 14 15  2  0  0  0
 14 17  1  0  0  0
 17 18  1  0  0  0
 17 19  1  0  0  0
 19 20  1  0  0  0
 20 21  2  0  0  0
 20 23  1  0  0  0
 23 24  1  0  0  0
 23 25  1  0  0  0
 25 26  1  0  0  0
 26 27  2  0  0  0
 26 29  1  0  0  0
 29 30  1  0  0  0
 29 31  1  0  0  0
 31 32  1  0  0  0
 31 33  2  0  0  0
 46 47  1  0  0  0
 47 48  2  0  0  0
 47 49  1  0  0  0
 49 50  1  0  0  0
 50 51  1  0  0  0
 51 52  1  0  0  0
 52 53  1  0  0  0
 53 54  1  0  0  0
 54 55  2  0  0  0
 54 56  1  0  0  0
 56 57  1  0  0  0
 57 58  1  0  0  0
 58 59  1  0  0  0
 59 60  1  0  0  0
 53 49  1  0  0  0
 60 56  1  0  0  0
 42 45  1  0  0  0
 36 39  1  0  0  0
  1  4  1  0  0  0
  7 10  1  0  0  0
 13 16  1  0  0  0
 19 22  1  0  0  0
 25 28  1  0  0  0
M  END
> <minimizedAffinity>
-7.77476

> <CNNscore>
0.2582305074

> <CNNaffinity>
6.7999649048

> <CNN_VS>
1.7559584379

> <CNNaffinity_variance>
0.6231007576

$$$$
[H]N(C(=O)[C@@]([H])(N([H])C(=O)[C@@]([H])(N([H])C(=O)[C@@]([H])(C(=O)C([H])([H])[H])C([H])([H])[H])C([H])([H])[H])C([H])([H])[H])[C@]([H])(C(=O)N([H])[C@]([H])(C(=O)N([H])[C@]([H])(C(=O)N([H])[C@]([H])(C(=O)N([H])[C@]([H])(C(=O)N1C([H])([H])C([H])([H])C([H])([H])[C@]1([H])C(=O)N1C([H])([H])C([H])([H])C([H])([H])C1([H])[H])C([H])([H])C([H])(C([H])([H])[H])C([H])([H])[H])C([H])([H])[H])C([H])([H])[H])C([H])([H])[H])C([H])([H])[H]


 64 65  0  0  0  0  0  0  0  0999 V2000
    3.7907    4.9620   18.4393 N   0  0  0  0  0  0  0  0  0  0  0  0
    4.6728    3.8642   18.2536 C   0  0  0  0  0  0  0  0  0  0  0  0
    5.3742    3.7021   17.2470 O   0  0  0  0  0  0  0  0  0  0  0  0
    3.2271    5.0677   19.3183 H   0  0  0  0  0  0  0  0  0  0  0  0
    4.7464    2.8371   19.3509 C   0  0  0  0  0  0  0  0  0  0  0  0
    3.9894    1.5842   19.0322 C   0  0  0  0  0  0  0  0  0  0  0  0
    4.3504    3.4829   20.5665 N   0  0  0  0  0  0  0  0  0  0  0  0
    5.3234    3.6095   21.6192 C   0  0  0  0  0  0  0  0  0  0  0  0
    6.4916    3.1765   21.4804 O   0  0  0  0  0  0  0  0  0  0  0  0
    3.3839    3.8508   20.6770 H   0  0  0  0  0  0  0  0  0  0  0  0
    4.9349    4.2717   22.8905 C   0  0  0  0  0  0  0  0  0  0  0  0
    3.4545    4.1653   23.1589 C   0  0  0  0  0  0  0  0  0  0  0  0
    5.4058    5.6192   22.8706 N   0  0  0  0  0  0  0  0  0  0  0  0
    5.2433    6.6040   21.8913 C   0  0  0  0  0  0  0  0  0  0  0  0
    4.6115    6.4395   20.8389 O   0  0  0  0  0  0  0  0  0  0  0  0
    5.9658    5.8947   23.7496 H   0  0  0  0  0  0  0  0  0  0  0  0
    5.8961    7.9450   22.1549 C   0  0  0  0  0  0  0  0  0  0  0  0
    4.9923    8.9844   21.5885 C   0  0  0  0  0  0  0  0  0  0  0  0
    7.1740    7.9345   21.4794 N   0  0  0  0  0  0  0  0  0  0  0  0
    8.3576    7.4878   22.1120 C   0  0  0  0  0  0  0  0  0  0  0  0
    8.2670    7.0766   23.2976 O   0  0  0  0  0  0  0  0  0  0  0  0
    7.2191    8.2729   20.4971 H   0  0  0  0  0  0  0  0  0  0  0  0
    9.6368    7.5165   21.3743 C   0  0  0  0  0  0  0  0  0  0  0  0
   10.3525    6.1988   21.3680 C   0  0  0  0  0  0  0  0  0  0  0  0
   10.5004    8.5089   21.9836 N   0  0  0  0  0  0  0  0  0  0  0  0
   10.2417    9.8789   21.7755 C   0  0  0  0  0  0  0  0  0  0  0  0
    9.2689   10.2299   21.0746 O   0  0  0  0  0  0  0  0  0  0  0  0
   11.3222    8.2076   22.5797 H   0  0  0  0  0  0  0  0  0  0  0  0
   11.1541   10.8788   22.4068 C   0  0  0  0  0  0  0  0  0  0  0  0
   12.5743   10.5509   21.9723 C   0  0  0  0  0  0  0  0  0  0  0  0
   11.0412   10.8748   23.8877 C   0  0  0  0  0  0  0  0  0  0  0  0
   12.1392   11.3851   24.7548 C   0  0  0  0  0  0  0  0  0  0  0  0
   10.0532   10.4576   24.4404 O   0  0  0  0  0  0  0  0  0  0  0  0
    3.6280    5.9833   17.4326 C   0  0  0  0  0  0  0  0  0  0  0  0
    4.9560    6.4610   16.8997 C   0  0  0  0  0  0  0  0  0  0  0  0
    2.7263    6.1228   15.1277 N   0  0  0  0  0  0  0  0  0  0  0  0
    2.7062    5.5102   16.3800 C   0  0  0  0  0  0  0  0  0  0  0  0
    1.9297    4.5740   16.6341 O   0  0  0  0  0  0  0  0  0  0  0  0
    3.4311    6.9140   15.0067 H   0  0  0  0  0  0  0  0  0  0  0  0
    1.9407    5.8537   13.9637 C   0  0  0  0  0  0  0  0  0  0  0  0
    0.5768    6.4886   14.0821 C   0  0  0  0  0  0  0  0  0  0  0  0
    2.4085    5.7520   11.4617 N   0  0  0  0  0  0  0  0  0  0  0  0
    2.5761    6.3628   12.7202 C   0  0  0  0  0  0  0  0  0  0  0  0
    3.2877    7.3888   12.8157 O   0  0  0  0  0  0  0  0  0  0  0  0
    1.8163    4.9105   11.3816 H   0  0  0  0  0  0  0  0  0  0  0  0
    3.0704    6.3189   10.2749 C   0  0  0  0  0  0  0  0  0  0  0  0
    1.9561    6.5359    9.2986 C   0  0  0  0  0  0  0  0  0  0  0  0
    0.9154    5.8097    9.4761 O   0  0  0  0  0  0  0  0  0  0  0  0
    2.0096    7.4613    8.2634 N   0  0  0  0  0  0  0  0  0  0  0  0
    0.8748    7.6978    7.3683 C   0  0  0  0  0  0  0  0  0  0  0  0
    0.9033    9.1652    7.0949 C   0  0  0  0  0  0  0  0  0  0  0  0
    2.2152    9.6723    7.6166 C   0  0  0  0  0  0  0  0  0  0  0  0
    3.0223    8.3636    7.8270 C   0  0  0  0  0  0  0  0  0  0  0  0
    3.6100    8.0282    6.5099 C   0  0  0  0  0  0  0  0  0  0  0  0
    3.1900    7.0934    5.7905 O   0  0  0  0  0  0  0  0  0  0  0  0
    4.7130    8.8015    6.0299 N   0  0  0  0  0  0  0  0  0  0  0  0
    5.3602    8.5850    4.7282 C   0  0  0  0  0  0  0  0  0  0  0  0
    6.6954    9.2624    4.9134 C   0  0  0  0  0  0  0  0  0  0  0  0
    6.4050   10.4048    5.8532 C   0  0  0  0  0  0  0  0  0  0  0  0
    5.3484    9.8630    6.7557 C   0  0  0  0  0  0  0  0  0  0  0  0
    4.0703    5.4030    9.6990 C   0  0  0  0  0  0  0  0  0  0  0  0
    6.1980    5.0946   10.7979 C   0  0  0  0  0  0  0  0  0  0  0  0
    5.5036    5.9031    9.6695 C   0  0  0  0  0  0  0  0  0  0  0  0
    5.6155    7.3404   10.1632 C   0  0  0  0  0  0  0  0  0  0  0  0
 62 63  1  0  0  0
 63 64  1  0  0  0
 63 61  1  0  0  0
 61 46  1  0  0  0
 46 42  1  0  0  0
 42 43  1  0  0  0
 43 44  2  0  0  0
 43 40  1  0  0  0
 40 41  1  0  0  0
 40 36  1  0  0  0
 36 37  1  0  0  0
 37 38  2  0  0  0
 37 34  1  0  0  0
 34 35  1  0  0  0
 34  1  1  0  0  0
  1  2  1  0  0  0
  2  3  2  0  0  0
  2  5  1  0  0  0
  5  6  1  0  0  0
  5  7  1  0  0  0
  7  8  1  0  0  0
  8  9  2  0  0  0
  8 11  1  0  0  0
 11 12  1  0  0  0
 11 13  1  0  0  0
 13 14  1  0  0  0
 14 15  2  0  0  0
 14 17  1  0  0  0
 17 18  1  0  0  0
 17 19  1  0  0  0
 19 20  1  0  0  0
 20 21  2  0  0  0
 20 23  1  0  0  0
 23 24  1  0  0  0
 23 25  1  0  0  0
 25 26  1  0  0  0
 26 27  2  0  0  0
 26 29  1  0  0  0
 29 30  1  0  0  0
 29 31  1  0  0  0
 31 32  1  0  0  0
 31 33  2  0  0  0
 46 47  1  0  0  0
 47 48  2  0  0  0
 47 49  1  0  0  0
 49 50  1  0  0  0
 50 51  1  0  0  0
 51 52  1  0  0  0
 52 53  1  0  0  0
 53 54  1  0  0  0
 54 55  2  0  0  0
 54 56  1  0  0  0
 56 57  1  0  0  0
 57 58  1  0  0  0
 58 59  1  0  0  0
 59 60  1  0  0  0
 53 49  1  0  0  0
 60 56  1  0  0  0
 42 45  1  0  0  0
 36 39  1  0  0  0
  1  4  1  0  0  0
  7 10  1  0  0  0
 13 16  1  0  0  0
 19 22  1  0  0  0
 25 28  1  0  0  0
M  END
> <minimizedAffinity>
-7.71094

> <CNNscore>
0.2330982238

> <CNNaffinity>
6.4039931297

> <CNN_VS>
1.4927594662

> <CNNaffinity_variance>
0.1095517278

$$$$
[H]N(C(=O)[C@]([H])(C(=O)C([H])([H])[H])C([H])([H])[H])[C@]([H])(C(=O)N([H])[C@]([H])(C(=O)N([H])[C@]([H])(C(=O)N([H])[C@]([H])(C(=O)N([H])[C@]([H])(C(=O)N([H])[C@]([H])(C(=O)N([H])[C@]([H])(C(=O)N1C([H])([H])C([H])([H])C([H])([H])[C@@]1([H])C(=O)N1C([H])([H])C([H])([H])C([H])([H])C1([H])[H])C([H])([H])C([H])(C([H])([H])[H])C([H])([H])[H])C([H])([H])[H])C([H])([H])[H])C([H])([H])[H])C([H])([H])[H])C([H])([H])[H])C([H])([H])[H]


 64 65  0  0  0  0  0  0  0  0999 V2000
    3.1948    3.3207   14.5861 N   0  0  0  0  0  0  0  0  0  0  0  0
    3.8798    2.9837   15.7935 C   0  0  0  0  0  0  0  0  0  0  0  0
    4.7663    3.7278   16.2386 O   0  0  0  0  0  0  0  0  0  0  0  0
    2.4624    2.7046   14.1916 H   0  0  0  0  0  0  0  0  0  0  0  0
    3.5123    1.7433   16.4951 C   0  0  0  0  0  0  0  0  0  0  0  0
    1.9689    1.6823   16.4536 C   0  0  0  0  0  0  0  0  0  0  0  0
    3.9283    1.8748   17.8962 N   0  0  0  0  0  0  0  0  0  0  0  0
    3.6310    0.8515   18.8293 C   0  0  0  0  0  0  0  0  0  0  0  0
    2.9951   -0.1547   18.4273 O   0  0  0  0  0  0  0  0  0  0  0  0
    4.4373    2.7244   18.1769 H   0  0  0  0  0  0  0  0  0  0  0  0
    4.0714    0.9934   20.2323 C   0  0  0  0  0  0  0  0  0  0  0  0
    3.1786    0.0977   21.1166 C   0  0  0  0  0  0  0  0  0  0  0  0
    3.9422    2.3677   20.6821 N   0  0  0  0  0  0  0  0  0  0  0  0
    4.9443    2.9849   21.4601 C   0  0  0  0  0  0  0  0  0  0  0  0
    5.9912    2.3947   21.8193 O   0  0  0  0  0  0  0  0  0  0  0  0
    3.0815    2.8785   20.4018 H   0  0  0  0  0  0  0  0  0  0  0  0
    4.7861    4.4002   21.8908 C   0  0  0  0  0  0  0  0  0  0  0  0
    4.1136    4.4522   23.2674 C   0  0  0  0  0  0  0  0  0  0  0  0
    3.9114    5.1731   21.0288 N   0  0  0  0  0  0  0  0  0  0  0  0
    4.4674    5.8929   19.9276 C   0  0  0  0  0  0  0  0  0  0  0  0
    5.7126    5.8257   19.7498 O   0  0  0  0  0  0  0  0  0  0  0  0
    2.8999    5.2149   21.1903 H   0  0  0  0  0  0  0  0  0  0  0  0
    3.5960    6.6783   19.0485 C   0  0  0  0  0  0  0  0  0  0  0  0
    2.8260    5.7182   18.1509 C   0  0  0  0  0  0  0  0  0  0  0  0
    4.3692    7.6060   18.2376 N   0  0  0  0  0  0  0  0  0  0  0  0
    4.0974    8.9970   18.2913 C   0  0  0  0  0  0  0  0  0  0  0  0
    3.1701    9.4141   19.0521 O   0  0  0  0  0  0  0  0  0  0  0  0
    5.1005    7.2067   17.6446 H   0  0  0  0  0  0  0  0  0  0  0  0
    4.9148    9.9093   17.4534 C   0  0  0  0  0  0  0  0  0  0  0  0
    6.0005    9.1663   16.6954 C   0  0  0  0  0  0  0  0  0  0  0  0
    3.9844   10.5459   16.4700 C   0  0  0  0  0  0  0  0  0  0  0  0
    3.4777    9.6949   15.3754 C   0  0  0  0  0  0  0  0  0  0  0  0
    3.6947   11.7003   16.6083 O   0  0  0  0  0  0  0  0  0  0  0  0
    3.5458    4.5535   13.9042 C   0  0  0  0  0  0  0  0  0  0  0  0
    4.0932    4.1855   12.5037 C   0  0  0  0  0  0  0  0  0  0  0  0
    1.9391    5.7454   12.3559 N   0  0  0  0  0  0  0  0  0  0  0  0
    2.3097    5.3248   13.6761 C   0  0  0  0  0  0  0  0  0  0  0  0
    1.5815    5.6057   14.6694 O   0  0  0  0  0  0  0  0  0  0  0  0
    2.5517    5.5206   11.5664 H   0  0  0  0  0  0  0  0  0  0  0  0
    0.6988    6.4811   12.2115 C   0  0  0  0  0  0  0  0  0  0  0  0
    1.1463    7.9694   12.3117 C   0  0  0  0  0  0  0  0  0  0  0  0
   -0.6675    5.2468   10.4512 N   0  0  0  0  0  0  0  0  0  0  0  0
    0.1698    6.2949   10.8569 C   0  0  0  0  0  0  0  0  0  0  0  0
    0.4855    7.1384    9.9585 O   0  0  0  0  0  0  0  0  0  0  0  0
   -0.9463    4.5190   11.1621 H   0  0  0  0  0  0  0  0  0  0  0  0
   -1.2075    5.0347    9.1205 C   0  0  0  0  0  0  0  0  0  0  0  0
   -2.6645    5.2687    9.1178 C   0  0  0  0  0  0  0  0  0  0  0  0
   -3.0564    5.5463    7.8885 O   0  0  0  0  0  0  0  0  0  0  0  0
   -3.6450    5.2585   10.1072 N   0  0  0  0  0  0  0  0  0  0  0  0
   -3.4698    4.9903   11.5017 C   0  0  0  0  0  0  0  0  0  0  0  0
   -4.2755    6.1689   12.1192 C   0  0  0  0  0  0  0  0  0  0  0  0
   -5.4998    6.1057   11.2595 C   0  0  0  0  0  0  0  0  0  0  0  0
   -5.0585    5.4757    9.9203 C   0  0  0  0  0  0  0  0  0  0  0  0
   -5.5164    6.3418    8.8519 C   0  0  0  0  0  0  0  0  0  0  0  0
   -5.3084    7.5566    8.7877 O   0  0  0  0  0  0  0  0  0  0  0  0
   -6.2667    5.7689    7.7836 N   0  0  0  0  0  0  0  0  0  0  0  0
   -6.6723    4.3909    7.6385 C   0  0  0  0  0  0  0  0  0  0  0  0
   -6.3624    4.0758    6.1842 C   0  0  0  0  0  0  0  0  0  0  0  0
   -6.8267    5.3520    5.4987 C   0  0  0  0  0  0  0  0  0  0  0  0
   -6.7871    6.4226    6.5829 C   0  0  0  0  0  0  0  0  0  0  0  0
   -0.6383    3.9629    8.3176 C   0  0  0  0  0  0  0  0  0  0  0  0
   -1.7051    1.8361    7.4107 C   0  0  0  0  0  0  0  0  0  0  0  0
   -1.1836    2.5600    8.5890 C   0  0  0  0  0  0  0  0  0  0  0  0
   -0.2313    1.7619    9.4417 C   0  0  0  0  0  0  0  0  0  0  0  0
 62 63  1  0  0  0
 63 64  1  0  0  0
 63 61  1  0  0  0
 61 46  1  0  0  0
 46 42  1  0  0  0
 42 43  1  0  0  0
 43 44  2  0  0  0
 43 40  1  0  0  0
 40 41  1  0  0  0
 40 36  1  0  0  0
 36 37  1  0  0  0
 37 38  2  0  0  0
 37 34  1  0  0  0
 34 35  1  0  0  0
 34  1  1  0  0  0
  1  2  1  0  0  0
  2  3  2  0  0  0
  2  5  1  0  0  0
  5  6  1  0  0  0
  5  7  1  0  0  0
  7  8  1  0  0  0
  8  9  2  0  0  0
  8 11  1  0  0  0
 11 12  1  0  0  0
 11 13  1  0  0  0
 13 14  1  0  0  0
 14 15  2  0  0  0
 14 17  1  0  0  0
 17 18  1  0  0  0
 17 19  1  0  0  0
 19 20  1  0  0  0
 20 21  2  0  0  0
 20 23  1  0  0  0
 23 24  1  0  0  0
 23 25  1  0  0  0
 25 26  1  0  0  0
 26 27  2  0  0  0
 26 29  1  0  0  0
 29 30  1  0  0  0
 29 31  1  0  0  0
 31 32  1  0  0  0
 31 33  2  0  0  0
 46 47  1  0  0  0
 47 48  2  0  0  0
 47 49  1  0  0  0
 49 50  1  0  0  0
 50 51  1  0  0  0
 51 52  1  0  0  0
 52 53  1  0  0  0
 53 54  1  0  0  0
 54 55  2  0  0  0
 54 56  1  0  0  0
 56 57  1  0  0  0
 57 58  1  0  0  0
 58 59  1  0  0  0
 59 60  1  0  0  0
 53 49  1  0  0  0
 60 56  1  0  0  0
 42 45  1  0  0  0
 36 39  1  0  0  0
  1  4  1  0  0  0
  7 10  1  0  0  0
 13 16  1  0  0  0
 19 22  1  0  0  0
 25 28  1  0  0  0
M  END
> <minimizedAffinity>
-7.90627

> <CNNscore>
0.3688648641

> <CNNaffinity>
6.9347066879

> <CNN_VS>
2.5579695702

> <CNNaffinity_variance>
0.5701695085

$$$$
[H]N(C(=O)[C@]([H])(C(=O)C([H])([H])[H])C([H])([H])[H])[C@]([H])(C(=O)N([H])[C@]([H])(C(=O)N([H])[C@]([H])(C(=O)N([H])[C@]([H])(C(=O)N([H])[C@]([H])(C(=O)N([H])[C@]([H])(C(=O)N([H])[C@]([H])(C(=O)N1C([H])([H])C([H])([H])C([H])([H])[C@@]1([H])C(=O)N1C([H])([H])C([H])([H])C([H])([H])C1([H])[H])C([H])([H])C([H])(C([H])([H])[H])C([H])([H])[H])C([H])([H])[H])C([H])([H])[H])C([H])([H])[H])C([H])([H])[H])C([H])([H])[H])C([H])([H])[H]


 64 65  0  0  0  0  0  0  0  0999 V2000
    3.3330    3.1276   14.7553 N   0  0  0  0  0  0  0  0  0  0  0  0
    3.9508    2.7413   15.9841 C   0  0  0  0  0  0  0  0  0  0  0  0
    4.8933    3.4019   16.4454 O   0  0  0  0  0  0  0  0  0  0  0  0
    2.5549    2.5801   14.3475 H   0  0  0  0  0  0  0  0  0  0  0  0
    3.4468    1.5511   16.6880 C   0  0  0  0  0  0  0  0  0  0  0  0
    1.9064    1.6392   16.6059 C   0  0  0  0  0  0  0  0  0  0  0  0
    3.8378    1.6593   18.0983 N   0  0  0  0  0  0  0  0  0  0  0  0
    3.5177    0.6239   19.0103 C   0  0  0  0  0  0  0  0  0  0  0  0
    2.8838   -0.3725   18.5816 O   0  0  0  0  0  0  0  0  0  0  0  0
    4.3461    2.5016   18.4010 H   0  0  0  0  0  0  0  0  0  0  0  0
    3.9330    0.7423   20.4231 C   0  0  0  0  0  0  0  0  0  0  0  0
    3.0218   -0.1645   21.2768 C   0  0  0  0  0  0  0  0  0  0  0  0
    3.7994    2.1097   20.8921 N   0  0  0  0  0  0  0  0  0  0  0  0
    4.7660    2.6961   21.7361 C   0  0  0  0  0  0  0  0  0  0  0  0
    5.7827    2.0826   22.1406 O   0  0  0  0  0  0  0  0  0  0  0  0
    2.9631    2.6393   20.5751 H   0  0  0  0  0  0  0  0  0  0  0  0
    4.6052    4.1053   22.1854 C   0  0  0  0  0  0  0  0  0  0  0  0
    3.8403    4.1432   23.5134 C   0  0  0  0  0  0  0  0  0  0  0  0
    3.8069    4.9131   21.2823 N   0  0  0  0  0  0  0  0  0  0  0  0
    4.4473    5.6168   20.2171 C   0  0  0  0  0  0  0  0  0  0  0  0
    5.6971    5.5051   20.1063 O   0  0  0  0  0  0  0  0  0  0  0  0
    2.7903    4.9910   21.3892 H   0  0  0  0  0  0  0  0  0  0  0  0
    3.6537    6.4371   19.2971 C   0  0  0  0  0  0  0  0  0  0  0  0
    2.9018    5.5094   18.3513 C   0  0  0  0  0  0  0  0  0  0  0  0
    4.5023    7.3416   18.5371 N   0  0  0  0  0  0  0  0  0  0  0  0
    4.2175    8.7307   18.5081 C   0  0  0  0  0  0  0  0  0  0  0  0
    3.2123    9.1665   19.1504 O   0  0  0  0  0  0  0  0  0  0  0  0
    5.2946    6.9279   18.0402 H   0  0  0  0  0  0  0  0  0  0  0  0
    5.1130    9.6193   17.7265 C   0  0  0  0  0  0  0  0  0  0  0  0
    6.4071    9.9143   18.4639 C   0  0  0  0  0  0  0  0  0  0  0  0
    5.4321    8.9024   16.4529 C   0  0  0  0  0  0  0  0  0  0  0  0
    6.8388    8.9196   16.0057 C   0  0  0  0  0  0  0  0  0  0  0  0
    4.5482    8.3541   15.8582 O   0  0  0  0  0  0  0  0  0  0  0  0
    3.8193    4.3121   14.0707 C   0  0  0  0  0  0  0  0  0  0  0  0
    4.1988    3.9065   12.6257 C   0  0  0  0  0  0  0  0  0  0  0  0
    2.6978    6.2671   12.9222 N   0  0  0  0  0  0  0  0  0  0  0  0
    2.7039    5.2695   13.9528 C   0  0  0  0  0  0  0  0  0  0  0  0
    1.7511    5.1911   14.7785 O   0  0  0  0  0  0  0  0  0  0  0  0
    3.4877    6.3235   12.2726 H   0  0  0  0  0  0  0  0  0  0  0  0
    1.5558    7.1573   12.8595 C   0  0  0  0  0  0  0  0  0  0  0  0
    2.1048    8.4930   13.4424 C   0  0  0  0  0  0  0  0  0  0  0  0
    0.6371    6.4992   10.5765 N   0  0  0  0  0  0  0  0  0  0  0  0
    1.2139    7.4229   11.4588 C   0  0  0  0  0  0  0  0  0  0  0  0
    1.4543    8.5773   10.9815 O   0  0  0  0  0  0  0  0  0  0  0  0
    0.4300    5.5264   10.9281 H   0  0  0  0  0  0  0  0  0  0  0  0
    0.2870    6.7305    9.1868 C   0  0  0  0  0  0  0  0  0  0  0  0
   -1.1463    6.4549    8.9691 C   0  0  0  0  0  0  0  0  0  0  0  0
   -1.5713    5.6151    9.8943 O   0  0  0  0  0  0  0  0  0  0  0  0
   -2.0786    6.8824    8.0265 N   0  0  0  0  0  0  0  0  0  0  0  0
   -1.8611    7.7813    6.9348 C   0  0  0  0  0  0  0  0  0  0  0  0
   -2.5448    6.9940    5.7805 C   0  0  0  0  0  0  0  0  0  0  0  0
   -3.8082    6.5893    6.4747 C   0  0  0  0  0  0  0  0  0  0  0  0
   -3.4782    6.5372    7.9825 C   0  0  0  0  0  0  0  0  0  0  0  0
   -3.9164    5.2508    8.4869 C   0  0  0  0  0  0  0  0  0  0  0  0
   -3.6201    4.1592    7.9934 O   0  0  0  0  0  0  0  0  0  0  0  0
   -4.7548    5.2198    9.6396 N   0  0  0  0  0  0  0  0  0  0  0  0
   -5.2696    6.3480   10.3789 C   0  0  0  0  0  0  0  0  0  0  0  0
   -5.0497    5.9572   11.8312 C   0  0  0  0  0  0  0  0  0  0  0  0
   -5.4461    4.4887   11.8066 C   0  0  0  0  0  0  0  0  0  0  0  0
   -5.2772    4.0557   10.3549 C   0  0  0  0  0  0  0  0  0  0  0  0
    1.2629    6.3699    8.1697 C   0  0  0  0  0  0  0  0  0  0  0  0
    0.7684    4.9074    6.1446 C   0  0  0  0  0  0  0  0  0  0  0  0
    1.1265    4.9664    7.5774 C   0  0  0  0  0  0  0  0  0  0  0  0
    2.2937    4.0961    7.9661 C   0  0  0  0  0  0  0  0  0  0  0  0
 62 63  1  0  0  0
 63 64  1  0  0  0
 63 61  1  0  0  0
 61 46  1  0  0  0
 46 42  1  0  0  0
 42 43  1  0  0  0
 43 44  2  0  0  0
 43 40  1  0  0  0
 40 41  1  0  0  0
 40 36  1  0  0  0
 36 37  1  0  0  0
 37 38  2  0  0  0
 37 34  1  0  0  0
 34 35  1  0  0  0
 34  1  1  0  0  0
  1  2  1  0  0  0
  2  3  2  0  0  0
  2  5  1  0  0  0
  5  6  1  0  0  0
  5  7  1  0  0  0
  7  8  1  0  0  0
  8  9  2  0  0  0
  8 11  1  0  0  0
 11 12  1  0  0  0
 11 13  1  0  0  0
 13 14  1  0  0  0
 14 15  2  0  0  0
 14 17  1  0  0  0
 17 18  1  0  0  0
 17 19  1  0  0  0
 19 20  1  0  0  0
 20 21  2  0  0  0
 20 23  1  0  0  0
 23 24  1  0  0  0
 23 25  1  0  0  0
 25 26  1  0  0  0
 26 27  2  0  0  0
 26 29  1  0  0  0
 29 30  1  0  0  0
 29 31  1  0  0  0
 31 32  1  0  0  0
 31 33  2  0  0  0
 46 47  1  0  0  0
 47 48  2  0  0  0
 47 49  1  0  0  0
 49 50  1  0  0  0
 50 51  1  0  0  0
 51 52  1  0  0  0
 52 53  1  0  0  0
 53 54  1  0  0  0
 54 55  2  0  0  0
 54 56  1  0  0  0
 56 57  1  0  0  0
 57 58  1  0  0  0
 58 59  1  0  0  0
 59 60  1  0  0  0
 53 49  1  0  0  0
 60 56  1  0  0  0
 42 45  1  0  0  0
 36 39  1  0  0  0
  1  4  1  0  0  0
  7 10  1  0  0  0
 13 16  1  0  0  0
 19 22  1  0  0  0
 25 28  1  0  0  0
M  END
> <minimizedAffinity>
-7.67421

> <CNNscore>
0.2619871795

> <CNNaffinity>
6.9954848289

> <CNN_VS>
1.8327273130

> <CNNaffinity_variance>
0.3597703576

$$$$
[H]N(C(=O)[C@]([H])(C(=O)C([H])([H])[H])C([H])([H])[H])[C@]([H])(C(=O)N([H])[C@]([H])(C(=O)N([H])[C@]([H])(C(=O)N([H])[C@]([H])(C(=O)N([H])[C@]([H])(C(=O)N([H])[C@]([H])(C(=O)N([H])[C@]([H])(C(=O)N1C([H])([H])C([H])([H])C([H])([H])[C@@]1([H])C(=O)N1C([H])([H])C([H])([H])C([H])([H])C1([H])[H])C([H])([H])C([H])(C([H])([H])[H])C([H])([H])[H])C([H])([H])[H])C([H])([H])[H])C([H])([H])[H])C([H])([H])[H])C([H])([H])[H])C([H])([H])[H]


 64 65  0  0  0  0  0  0  0  0999 V2000
    3.4742    3.8502   17.2562 N   0  0  0  0  0  0  0  0  0  0  0  0
    2.6352    3.2090   16.2940 C   0  0  0  0  0  0  0  0  0  0  0  0
    1.9711    2.2105   16.6095 O   0  0  0  0  0  0  0  0  0  0  0  0
    4.0470    4.6758   17.0072 H   0  0  0  0  0  0  0  0  0  0  0  0
    2.5744    3.7562   14.9292 C   0  0  0  0  0  0  0  0  0  0  0  0
    4.0437    3.9196   14.4796 C   0  0  0  0  0  0  0  0  0  0  0  0
    1.9663    5.0897   15.0022 N   0  0  0  0  0  0  0  0  0  0  0  0
    1.0709    5.5233   13.9939 C   0  0  0  0  0  0  0  0  0  0  0  0
    0.8272    4.7444   13.0388 O   0  0  0  0  0  0  0  0  0  0  0  0
    2.2078    5.6936   15.8000 H   0  0  0  0  0  0  0  0  0  0  0  0
    0.4556    6.8628   14.0918 C   0  0  0  0  0  0  0  0  0  0  0  0
   -0.4448    7.0771   12.8570 C   0  0  0  0  0  0  0  0  0  0  0  0
    1.4699    7.9012   14.1138 N   0  0  0  0  0  0  0  0  0  0  0  0
    2.5832    7.8611   13.2480 C   0  0  0  0  0  0  0  0  0  0  0  0
    2.7747    6.9357   12.4231 O   0  0  0  0  0  0  0  0  0  0  0  0
    1.3376    8.6779   14.7916 H   0  0  0  0  0  0  0  0  0  0  0  0
    3.5958    8.9505   13.2867 C   0  0  0  0  0  0  0  0  0  0  0  0
    5.0039    8.3554   13.1723 C   0  0  0  0  0  0  0  0  0  0  0  0
    3.6106    9.6825   14.5395 N   0  0  0  0  0  0  0  0  0  0  0  0
    3.9528    9.0012   15.7472 C   0  0  0  0  0  0  0  0  0  0  0  0
    4.2305    7.7749   15.6721 O   0  0  0  0  0  0  0  0  0  0  0  0
    3.3816   10.6810   14.5796 H   0  0  0  0  0  0  0  0  0  0  0  0
    3.9715    9.7278   17.0203 C   0  0  0  0  0  0  0  0  0  0  0  0
    3.6798    8.7402   18.1428 C   0  0  0  0  0  0  0  0  0  0  0  0
    2.9842   10.7960   17.0281 N   0  0  0  0  0  0  0  0  0  0  0  0
    3.3999   12.1512   16.9796 C   0  0  0  0  0  0  0  0  0  0  0  0
    4.6418   12.4128   16.9338 O   0  0  0  0  0  0  0  0  0  0  0  0
    2.0005   10.5192   17.0681 H   0  0  0  0  0  0  0  0  0  0  0  0
    2.3598   13.2097   16.9819 C   0  0  0  0  0  0  0  0  0  0  0  0
    2.9098   14.5471   17.4450 C   0  0  0  0  0  0  0  0  0  0  0  0
    1.8753   13.3453   15.5731 C   0  0  0  0  0  0  0  0  0  0  0  0
    1.4009   14.6777   15.1503 C   0  0  0  0  0  0  0  0  0  0  0  0
    1.8911   12.3835   14.8587 O   0  0  0  0  0  0  0  0  0  0  0  0
    3.5199    3.3203   18.6072 C   0  0  0  0  0  0  0  0  0  0  0  0
    4.7493    2.3854   18.7122 C   0  0  0  0  0  0  0  0  0  0  0  0
    4.3337    4.2047   20.8331 N   0  0  0  0  0  0  0  0  0  0  0  0
    3.7697    4.4388   19.5353 C   0  0  0  0  0  0  0  0  0  0  0  0
    3.4782    5.6098   19.1616 O   0  0  0  0  0  0  0  0  0  0  0  0
    4.5482    3.2459   21.1223 H   0  0  0  0  0  0  0  0  0  0  0  0
    4.5688    5.3583   21.6784 C   0  0  0  0  0  0  0  0  0  0  0  0
    4.4821    4.7752   23.1198 C   0  0  0  0  0  0  0  0  0  0  0  0
    6.3161    7.0990   21.0413 N   0  0  0  0  0  0  0  0  0  0  0  0
    5.9463    5.8276   21.5005 C   0  0  0  0  0  0  0  0  0  0  0  0
    6.9008    5.0327   21.7753 O   0  0  0  0  0  0  0  0  0  0  0  0
    5.5560    7.7869   20.7923 H   0  0  0  0  0  0  0  0  0  0  0  0
    7.6681    7.5935   20.8548 C   0  0  0  0  0  0  0  0  0  0  0  0
    7.8968    8.7837   21.6968 C   0  0  0  0  0  0  0  0  0  0  0  0
    8.3178    9.7773   20.9370 O   0  0  0  0  0  0  0  0  0  0  0  0
    7.7659    9.0409   23.0595 N   0  0  0  0  0  0  0  0  0  0  0  0
    7.3339    8.1332   24.0777 C   0  0  0  0  0  0  0  0  0  0  0  0
    8.4282    8.3769   25.1559 C   0  0  0  0  0  0  0  0  0  0  0  0
    8.4645    9.8737   25.1341 C   0  0  0  0  0  0  0  0  0  0  0  0
    7.9999   10.2992   23.7241 C   0  0  0  0  0  0  0  0  0  0  0  0
    8.9859   11.2192   23.1925 C   0  0  0  0  0  0  0  0  0  0  0  0
   10.2083   11.0690   23.2708 O   0  0  0  0  0  0  0  0  0  0  0  0
    8.5322   12.3944   22.5249 N   0  0  0  0  0  0  0  0  0  0  0  0
    7.1662   12.8191   22.3304 C   0  0  0  0  0  0  0  0  0  0  0  0
    7.1290   13.2559   20.8750 C   0  0  0  0  0  0  0  0  0  0  0  0
    8.4529   13.9953   20.7532 C   0  0  0  0  0  0  0  0  0  0  0  0
    9.3261   13.4334   21.8690 C   0  0  0  0  0  0  0  0  0  0  0  0
    8.2408    7.5227   19.5190 C   0  0  0  0  0  0  0  0  0  0  0  0
    7.5800    8.7565   17.3918 C   0  0  0  0  0  0  0  0  0  0  0  0
    7.2578    7.6862   18.3588 C   0  0  0  0  0  0  0  0  0  0  0  0
    6.9302    6.3555   17.7318 C   0  0  0  0  0  0  0  0  0  0  0  0
 62 63  1  0  0  0
 63 64  1  0  0  0
 63 61  1  0  0  0
 61 46  1  0  0  0
 46 42  1  0  0  0
 42 43  1  0  0  0
 43 44  2  0  0  0
 43 40  1  0  0  0
 40 41  1  0  0  0
 40 36  1  0  0  0
 36 37  1  0  0  0
 37 38  2  0  0  0
 37 34  1  0  0  0
 34 35  1  0  0  0
 34  1  1  0  0  0
  1  2  1  0  0  0
  2  3  2  0  0  0
  2  5  1  0  0  0
  5  6  1  0  0  0
  5  7  1  0  0  0
  7  8  1  0  0  0
  8  9  2  0  0  0
  8 11  1  0  0  0
 11 12  1  0  0  0
 11 13  1  0  0  0
 13 14  1  0  0  0
 14 15  2  0  0  0
 14 17  1  0  0  0
 17 18  1  0  0  0
 17 19  1  0  0  0
 19 20  1  0  0  0
 20 21  2  0  0  0
 20 23  1  0  0  0
 23 24  1  0  0  0
 23 25  1  0  0  0
 25 26  1  0  0  0
 26 27  2  0  0  0
 26 29  1  0  0  0
 29 30  1  0  0  0
 29 31  1  0  0  0
 31 32  1  0  0  0
 31 33  2  0  0  0
 46 47  1  0  0  0
 47 48  2  0  0  0
 47 49  1  0  0  0
 49 50  1  0  0  0
 50 51  1  0  0  0
 51 52  1  0  0  0
 52 53  1  0  0  0
 53 54  1  0  0  0
 54 55  2  0  0  0
 54 56  1  0  0  0
 56 57  1  0  0  0
 57 58  1  0  0  0
 58 59  1  0  0  0
 59 60  1  0  0  0
 53 49  1  0  0  0
 60 56  1  0  0  0
 42 45  1  0  0  0
 36 39  1  0  0  0
  1  4  1  0  0  0
  7 10  1  0  0  0
 13 16  1  0  0  0
 19 22  1  0  0  0
 25 28  1  0  0  0
M  END
> <minimizedAffinity>
-8.04364

> <CNNscore>
0.2560965121

> <CNNaffinity>
6.9944925308

> <CNN_VS>
1.7912651300

> <CNNaffinity_variance>
0.2299410850

$$$$
[H]N(C(=O)[C@]([H])(C(=O)C([H])([H])[H])C([H])([H])[H])[C@]([H])(C(=O)N([H])[C@]([H])(C(=O)N([H])[C@]([H])(C(=O)N([H])[C@]([H])(C(=O)N([H])[C@]([H])(C(=O)N([H])[C@]([H])(C(=O)N([H])[C@]([H])(C(=O)N1C([H])([H])C([H])([H])C([H])([H])[C@@]1([H])C(=O)N1C([H])([H])C([H])([H])C([H])([H])C1([H])[H])C([H])([H])C([H])(C([H])([H])[H])C([H])([H])[H])C([H])([H])[H])C([H])([H])[H])C([H])([H])[H])C([H])([H])[H])C([H])([H])[H])C([H])([H])[H]


 64 65  0  0  0  0  0  0  0  0999 V2000
    3.9961    3.3247   18.7224 N   0  0  0  0  0  0  0  0  0  0  0  0
    4.1460    1.9049   18.6718 C   0  0  0  0  0  0  0  0  0  0  0  0
    4.1473    1.3142   17.5816 O   0  0  0  0  0  0  0  0  0  0  0  0
    3.9779    3.8333   19.6238 H   0  0  0  0  0  0  0  0  0  0  0  0
    4.2998    1.1625   19.9332 C   0  0  0  0  0  0  0  0  0  0  0  0
    3.0928    0.2002   20.0006 C   0  0  0  0  0  0  0  0  0  0  0  0
    4.1851    2.1199   21.0394 N   0  0  0  0  0  0  0  0  0  0  0  0
    5.2295    2.2445   21.9882 C   0  0  0  0  0  0  0  0  0  0  0  0
    6.2396    1.5081   21.8622 O   0  0  0  0  0  0  0  0  0  0  0  0
    3.3318    2.6919   21.1039 H   0  0  0  0  0  0  0  0  0  0  0  0
    5.1040    3.2248   23.0863 C   0  0  0  0  0  0  0  0  0  0  0  0
    3.7018    3.8646   23.0108 C   0  0  0  0  0  0  0  0  0  0  0  0
    6.1009    4.2732   22.9645 N   0  0  0  0  0  0  0  0  0  0  0  0
    6.1511    5.1130   21.8320 C   0  0  0  0  0  0  0  0  0  0  0  0
    5.3591    5.0051   20.8653 O   0  0  0  0  0  0  0  0  0  0  0  0
    6.7726    4.3812   23.7502 H   0  0  0  0  0  0  0  0  0  0  0  0
    7.1766    6.1877   21.7473 C   0  0  0  0  0  0  0  0  0  0  0  0
    8.4083    5.7967   22.5718 C   0  0  0  0  0  0  0  0  0  0  0  0
    6.7417    7.4488   22.3180 N   0  0  0  0  0  0  0  0  0  0  0  0
    7.1342    8.6736   21.6967 C   0  0  0  0  0  0  0  0  0  0  0  0
    7.8530    8.6054   20.6646 O   0  0  0  0  0  0  0  0  0  0  0  0
    6.1564    7.4832   23.1590 H   0  0  0  0  0  0  0  0  0  0  0  0
    6.7026    9.9553   22.2624 C   0  0  0  0  0  0  0  0  0  0  0  0
    6.2938   10.8736   21.1179 C   0  0  0  0  0  0  0  0  0  0  0  0
    7.7682   10.5708   23.0380 N   0  0  0  0  0  0  0  0  0  0  0  0
    7.9099   10.2720   24.4172 C   0  0  0  0  0  0  0  0  0  0  0  0
    7.0921    9.4658   24.9595 O   0  0  0  0  0  0  0  0  0  0  0  0
    8.3922   11.2123   22.5430 H   0  0  0  0  0  0  0  0  0  0  0  0
    9.0152   10.9158   25.1697 C   0  0  0  0  0  0  0  0  0  0  0  0
    8.7064   11.0250   26.6524 C   0  0  0  0  0  0  0  0  0  0  0  0
   10.2243   10.0540   24.9874 C   0  0  0  0  0  0  0  0  0  0  0  0
   11.3239   10.2240   25.9575 C   0  0  0  0  0  0  0  0  0  0  0  0
   10.2502    9.2754   24.0770 O   0  0  0  0  0  0  0  0  0  0  0  0
    3.8622    4.0581   17.4764 C   0  0  0  0  0  0  0  0  0  0  0  0
    2.4155    4.6032   17.3963 C   0  0  0  0  0  0  0  0  0  0  0  0
    4.3392    6.4268   18.2255 N   0  0  0  0  0  0  0  0  0  0  0  0
    4.7462    5.2370   17.5356 C   0  0  0  0  0  0  0  0  0  0  0  0
    5.8726    5.1761   16.9669 O   0  0  0  0  0  0  0  0  0  0  0  0
    3.4154    6.4608   18.6666 H   0  0  0  0  0  0  0  0  0  0  0  0
    5.2731    7.5347   18.2568 C   0  0  0  0  0  0  0  0  0  0  0  0
    6.6641    6.8385   18.1824 C   0  0  0  0  0  0  0  0  0  0  0  0
    3.9324    8.8246   16.5167 N   0  0  0  0  0  0  0  0  0  0  0  0
    5.1378    8.3285   17.0316 C   0  0  0  0  0  0  0  0  0  0  0  0
    6.1853    8.5986   16.3621 O   0  0  0  0  0  0  0  0  0  0  0  0
    3.0377    8.6157   17.0352 H   0  0  0  0  0  0  0  0  0  0  0  0
    3.7651    9.6123   15.3089 C   0  0  0  0  0  0  0  0  0  0  0  0
    3.6607   11.0455   15.6448 C   0  0  0  0  0  0  0  0  0  0  0  0
    4.2393   11.7562   14.6951 O   0  0  0  0  0  0  0  0  0  0  0  0
    3.1058   11.7483   16.7118 N   0  0  0  0  0  0  0  0  0  0  0  0
    2.4331   11.2073   17.8528 C   0  0  0  0  0  0  0  0  0  0  0  0
    3.1306   12.0011   18.9943 C   0  0  0  0  0  0  0  0  0  0  0  0
    3.0907   13.3739   18.3978 C   0  0  0  0  0  0  0  0  0  0  0  0
    3.0569   13.1814   16.8658 C   0  0  0  0  0  0  0  0  0  0  0  0
    4.1069   14.0010   16.2939 C   0  0  0  0  0  0  0  0  0  0  0  0
    3.9478   14.8241   15.3883 O   0  0  0  0  0  0  0  0  0  0  0  0
    5.4325   13.8622   16.8000 N   0  0  0  0  0  0  0  0  0  0  0  0
    5.8879   12.9536   17.8253 C   0  0  0  0  0  0  0  0  0  0  0  0
    6.7759   13.8191   18.7044 C   0  0  0  0  0  0  0  0  0  0  0  0
    7.5237   14.6339   17.6598 C   0  0  0  0  0  0  0  0  0  0  0  0
    6.6342   14.6059   16.4224 C   0  0  0  0  0  0  0  0  0  0  0  0
    2.9555    9.0522   14.2375 C   0  0  0  0  0  0  0  0  0  0  0  0
    1.4339    7.0404   13.8890 C   0  0  0  0  0  0  0  0  0  0  0  0
    2.7784    7.5332   14.2552 C   0  0  0  0  0  0  0  0  0  0  0  0
    3.9123    6.8450   13.5400 C   0  0  0  0  0  0  0  0  0  0  0  0
 62 63  1  0  0  0
 63 64  1  0  0  0
 63 61  1  0  0  0
 61 46  1  0  0  0
 46 42  1  0  0  0
 42 43  1  0  0  0
 43 44  2  0  0  0
 43 40  1  0  0  0
 40 41  1  0  0  0
 40 36  1  0  0  0
 36 37  1  0  0  0
 37 38  2  0  0  0
 37 34  1  0  0  0
 34 35  1  0  0  0
 34  1  1  0  0  0
  1  2  1  0  0  0
  2  3  2  0  0  0
  2  5  1  0  0  0
  5  6  1  0  0  0
  5  7  1  0  0  0
  7  8  1  0  0  0
  8  9  2  0  0  0
  8 11  1  0  0  0
 11 12  1  0  0  0
 11 13  1  0  0  0
 13 14  1  0  0  0
 14 15  2  0  0  0
 14 17  1  0  0  0
 17 18  1  0  0  0
 17 19  1  0  0  0
 19 20  1  0  0  0
 20 21  2  0  0  0
 20 23  1  0  0  0
 23 24  1  0  0  0
 23 25  1  0  0  0
 25 26  1  0  0  0
 26 27  2  0  0  0
 26 29  1  0  0  0
 29 30  1  0  0  0
 29 31  1  0  0  0
 31 32  1  0  0  0
 31 33  2  0  0  0
 46 47  1  0  0  0
 47 48  2  0  0  0
 47 49  1  0  0  0
 49 50  1  0  0  0
 50 51  1  0  0  0
 51 52  1  0  0  0
 52 53  1  0  0  0
 53 54  1  0  0  0
 54 55  2  0  0  0
 54 56  1  0  0  0
 56 57  1  0  0  0
 57 58  1  0  0  0
 58 59  1  0  0  0
 59 60  1  0  0  0
 53 49  1  0  0  0
 60 56  1  0  0  0
 42 45  1  0  0  0
 36 39  1  0  0  0
  1  4  1  0  0  0
  7 10  1  0  0  0
 13 16  1  0  0  0
 19 22  1  0  0  0
 25 28  1  0  0  0
M  END
> <minimizedAffinity>
-8.25584

> <CNNscore>
0.2507685423

> <CNNaffinity>
7.0653676987

> <CNN_VS>
1.7717719078

> <CNNaffinity_variance>
0.7908723950

$$$$
[H]N(C(=O)[C@]([H])(C(=O)C([H])([H])[H])C([H])([H])[H])[C@]([H])(C(=O)N([H])[C@]([H])(C(=O)N([H])[C@]([H])(C(=O)N([H])[C@]([H])(C(=O)N([H])[C@]([H])(C(=O)N([H])[C@]([H])(C(=O)N([H])[C@]([H])(C(=O)N1C([H])([H])C([H])([H])C([H])([H])[C@@]1([H])C(=O)N1C([H])([H])C([H])([H])C([H])([H])C1([H])[H])C([H])([H])C([H])(C([H])([H])[H])C([H])([H])[H])C([H])([H])[H])C([H])([H])[H])C([H])([H])[H])C([H])([H])[H])C([H])([H])[H])C([H])([H])[H]


 64 65  0  0  0  0  0  0  0  0999 V2000
    3.8882    3.1569   18.7313 N   0  0  0  0  0  0  0  0  0  0  0  0
    4.1233    1.7521   18.8414 C   0  0  0  0  0  0  0  0  0  0  0  0
    4.1337    1.0380   17.8277 O   0  0  0  0  0  0  0  0  0  0  0  0
    3.8614    3.7664   19.5676 H   0  0  0  0  0  0  0  0  0  0  0  0
    4.3537    1.1738   20.1750 C   0  0  0  0  0  0  0  0  0  0  0  0
    3.2468    0.1128   20.3663 C   0  0  0  0  0  0  0  0  0  0  0  0
    4.1502    2.2333   21.1697 N   0  0  0  0  0  0  0  0  0  0  0  0
    5.1293    2.4786   22.1634 C   0  0  0  0  0  0  0  0  0  0  0  0
    6.1595    1.7597   22.1747 O   0  0  0  0  0  0  0  0  0  0  0  0
    3.2834    2.7866   21.1235 H   0  0  0  0  0  0  0  0  0  0  0  0
    4.9150    3.5598   23.1471 C   0  0  0  0  0  0  0  0  0  0  0  0
    3.4833    4.1065   22.9665 C   0  0  0  0  0  0  0  0  0  0  0  0
    5.8568    4.6453   22.9409 N   0  0  0  0  0  0  0  0  0  0  0  0
    6.0098    5.2573   21.6789 C   0  0  0  0  0  0  0  0  0  0  0  0
    5.3622    4.9035   20.6646 O   0  0  0  0  0  0  0  0  0  0  0  0
    6.4098    4.9550   23.7647 H   0  0  0  0  0  0  0  0  0  0  0  0
    6.9735    6.3778   21.5071 C   0  0  0  0  0  0  0  0  0  0  0  0
    8.1856    6.1655   22.4213 C   0  0  0  0  0  0  0  0  0  0  0  0
    6.4390    7.6668   21.9046 N   0  0  0  0  0  0  0  0  0  0  0  0
    6.6886    8.8126   21.0891 C   0  0  0  0  0  0  0  0  0  0  0  0
    7.3734    8.6525   20.0441 O   0  0  0  0  0  0  0  0  0  0  0  0
    5.8834    7.7763   22.7592 H   0  0  0  0  0  0  0  0  0  0  0  0
    6.1552   10.1214   21.4784 C   0  0  0  0  0  0  0  0  0  0  0  0
    5.5715   10.7910   20.2410 C   0  0  0  0  0  0  0  0  0  0  0  0
    7.1946   10.9601   22.0547 N   0  0  0  0  0  0  0  0  0  0  0  0
    7.5522   10.8153   23.4195 C   0  0  0  0  0  0  0  0  0  0  0  0
    6.9492    9.9487   24.1252 O   0  0  0  0  0  0  0  0  0  0  0  0
    7.6403   11.6399   21.4341 H   0  0  0  0  0  0  0  0  0  0  0  0
    8.6230   11.6859   23.9654 C   0  0  0  0  0  0  0  0  0  0  0  0
    9.9950   11.2946   23.4457 C   0  0  0  0  0  0  0  0  0  0  0  0
    8.3158   13.0815   23.5227 C   0  0  0  0  0  0  0  0  0  0  0  0
    9.4444   13.8937   23.0272 C   0  0  0  0  0  0  0  0  0  0  0  0
    7.1862   13.4758   23.5881 O   0  0  0  0  0  0  0  0  0  0  0  0
    3.6786    3.7292   17.4134 C   0  0  0  0  0  0  0  0  0  0  0  0
    2.2198    4.2421   17.3420 C   0  0  0  0  0  0  0  0  0  0  0  0
    4.2687    6.1109   18.0286 N   0  0  0  0  0  0  0  0  0  0  0  0
    4.5422    4.9174   17.2818 C   0  0  0  0  0  0  0  0  0  0  0  0
    5.5312    4.8609   16.4978 O   0  0  0  0  0  0  0  0  0  0  0  0
    3.4526    6.1409   18.6469 H   0  0  0  0  0  0  0  0  0  0  0  0
    5.1763    7.2283   17.8603 C   0  0  0  0  0  0  0  0  0  0  0  0
    6.5661    6.5450   17.6971 C   0  0  0  0  0  0  0  0  0  0  0  0
    3.6187    8.2589   16.1281 N   0  0  0  0  0  0  0  0  0  0  0  0
    4.8935    7.9066   16.5918 C   0  0  0  0  0  0  0  0  0  0  0  0
    5.8680    8.2069   15.8311 O   0  0  0  0  0  0  0  0  0  0  0  0
    2.7809    8.0197   16.7230 H   0  0  0  0  0  0  0  0  0  0  0  0
    3.3056    8.9299   14.8795 C   0  0  0  0  0  0  0  0  0  0  0  0
    3.2853    7.9582   13.7691 C   0  0  0  0  0  0  0  0  0  0  0  0
    4.1649    8.3252   12.8562 O   0  0  0  0  0  0  0  0  0  0  0  0
    2.5545    6.8000   13.5139 N   0  0  0  0  0  0  0  0  0  0  0  0
    1.5507    6.2057   14.3423 C   0  0  0  0  0  0  0  0  0  0  0  0
    0.4363    5.9415   13.2897 C   0  0  0  0  0  0  0  0  0  0  0  0
    1.2696    5.3547   12.1927 C   0  0  0  0  0  0  0  0  0  0  0  0
    2.6915    5.9302   12.3718 C   0  0  0  0  0  0  0  0  0  0  0  0
    3.1099    6.4797   11.0973 C   0  0  0  0  0  0  0  0  0  0  0  0
    2.4959    7.3419   10.4628 O   0  0  0  0  0  0  0  0  0  0  0  0
    4.3193    6.0021   10.5126 N   0  0  0  0  0  0  0  0  0  0  0  0
    5.1983    4.9802   11.0298 C   0  0  0  0  0  0  0  0  0  0  0  0
    6.5859    5.5731   10.8473 C   0  0  0  0  0  0  0  0  0  0  0  0
    6.4592    6.2064    9.4699 C   0  0  0  0  0  0  0  0  0  0  0  0
    4.9651    6.4350    9.2735 C   0  0  0  0  0  0  0  0  0  0  0  0
    3.8430   10.2660   14.6713 C   0  0  0  0  0  0  0  0  0  0  0  0
    4.6736   11.6821   16.6178 C   0  0  0  0  0  0  0  0  0  0  0  0
    3.5328   11.2909   15.7633 C   0  0  0  0  0  0  0  0  0  0  0  0
    2.7382   12.4475   15.2139 C   0  0  0  0  0  0  0  0  0  0  0  0
 62 63  1  0  0  0
 63 64  1  0  0  0
 63 61  1  0  0  0
 61 46  1  0  0  0
 46 42  1  0  0  0
 42 43  1  0  0  0
 43 44  2  0  0  0
 43 40  1  0  0  0
 40 41  1  0  0  0
 40 36  1  0  0  0
 36 37  1  0  0  0
 37 38  2  0  0  0
 37 34  1  0  0  0
 34 35  1  0  0  0
 34  1  1  0  0  0
  1  2  1  0  0  0
  2  3  2  0  0  0
  2  5  1  0  0  0
  5  6  1  0  0  0
  5  7  1  0  0  0
  7  8  1  0  0  0
  8  9  2  0  0  0
  8 11  1  0  0  0
 11 12  1  0  0  0
 11 13  1  0  0  0
 13 14  1  0  0  0
 14 15  2  0  0  0
 14 17  1  0  0  0
 17 18  1  0  0  0
 17 19  1  0  0  0
 19 20  1  0  0  0
 20 21  2  0  0  0
 20 23  1  0  0  0
 23 24  1  0  0  0
 23 25  1  0  0  0
 25 26  1  0  0  0
 26 27  2  0  0  0
 26 29  1  0  0  0
 29 30  1  0  0  0
 29 31  1  0  0  0
 31 32  1  0  0  0
 31 33  2  0  0  0
 46 47  1  0  0  0
 47 48  2  0  0  0
 47 49  1  0  0  0
 49 50  1  0  0  0
 50 51  1  0  0  0
 51 52  1  0  0  0
 52 53  1  0  0  0
 53 54  1  0  0  0
 54 55  2  0  0  0
 54 56  1  0  0  0
 56 57  1  0  0  0
 57 58  1  0  0  0
 58 59  1  0  0  0
 59 60  1  0  0  0
 53 49  1  0  0  0
 60 56  1  0  0  0
 42 45  1  0  0  0
 36 39  1  0  0  0
  1  4  1  0  0  0
  7 10  1  0  0  0
 13 16  1  0  0  0
 19 22  1  0  0  0
 25 28  1  0  0  0
M  END
> <minimizedAffinity>
-8.05414

> <CNNscore>
0.2206390947

> <CNNaffinity>
7.3506722450

> <CNN_VS>
1.6218457222

> <CNNaffinity_variance>
0.2122403830

$$$$
[H]N(C(=O)[C@]([H])(C(=O)C([H])([H])[H])C([H])([H])[H])[C@]([H])(C(=O)N([H])[C@]([H])(C(=O)N([H])[C@]([H])(C(=O)N([H])[C@]([H])(C(=O)N([H])[C@]([H])(C(=O)N([H])[C@]([H])(C(=O)N([H])[C@]([H])(C(=O)N1C([H])([H])C([H])([H])C([H])([H])[C@@]1([H])C(=O)N1C([H])([H])C([H])([H])C([H])([H])C1([H])[H])C([H])([H])C([H])(C([H])([H])[H])C([H])([H])[H])C([H])([H])[H])C([H])([H])[H])C([H])([H])[H])C([H])([H])[H])C([H])([H])[H])C([H])([H])[H]


 64 65  0  0  0  0  0  0  0  0999 V2000
    3.0224    9.8756   16.4511 N   0  0  0  0  0  0  0  0  0  0  0  0
    3.2076    9.6196   15.0579 C   0  0  0  0  0  0  0  0  0  0  0  0
    3.5147   10.5416   14.2877 O   0  0  0  0  0  0  0  0  0  0  0  0
    2.7516    9.1215   17.1066 H   0  0  0  0  0  0  0  0  0  0  0  0
    3.0293    8.2465   14.5591 C   0  0  0  0  0  0  0  0  0  0  0  0
    4.2867    7.9433   13.7138 C   0  0  0  0  0  0  0  0  0  0  0  0
    1.8639    8.2361   13.6673 N   0  0  0  0  0  0  0  0  0  0  0  0
    0.8554    7.2533   13.8203 C   0  0  0  0  0  0  0  0  0  0  0  0
    0.9952    6.3923   14.7245 O   0  0  0  0  0  0  0  0  0  0  0  0
    1.8027    8.9571   12.9352 H   0  0  0  0  0  0  0  0  0  0  0  0
   -0.3187    7.2676   12.9238 C   0  0  0  0  0  0  0  0  0  0  0  0
   -1.5619    6.8598   13.7421 C   0  0  0  0  0  0  0  0  0  0  0  0
   -0.1513    6.3257   11.8317 N   0  0  0  0  0  0  0  0  0  0  0  0
    0.5833    6.6627   10.6753 C   0  0  0  0  0  0  0  0  0  0  0  0
    1.1223    7.7832   10.5102 O   0  0  0  0  0  0  0  0  0  0  0  0
   -0.5921    5.3908   11.9412 H   0  0  0  0  0  0  0  0  0  0  0  0
    0.7478    5.6673    9.5818 C   0  0  0  0  0  0  0  0  0  0  0  0
   -0.5031    5.6572    8.6958 C   0  0  0  0  0  0  0  0  0  0  0  0
    0.8691    4.3014   10.0561 N   0  0  0  0  0  0  0  0  0  0  0  0
    2.1579    3.6878   10.1086 C   0  0  0  0  0  0  0  0  0  0  0  0
    3.1491    4.3690    9.7342 O   0  0  0  0  0  0  0  0  0  0  0  0
    0.0498    3.7635   10.3567 H   0  0  0  0  0  0  0  0  0  0  0  0
    2.2956    2.3083   10.5852 C   0  0  0  0  0  0  0  0  0  0  0  0
    0.9023    1.7357   10.8116 C   0  0  0  0  0  0  0  0  0  0  0  0
    3.0623    2.2551   11.8202 N   0  0  0  0  0  0  0  0  0  0  0  0
    2.7433    3.1235   12.8952 C   0  0  0  0  0  0  0  0  0  0  0  0
    1.7850    3.9456   12.7588 O   0  0  0  0  0  0  0  0  0  0  0  0
    3.8226    1.5726   11.8661 H   0  0  0  0  0  0  0  0  0  0  0  0
    3.5459    3.0312   14.1401 C   0  0  0  0  0  0  0  0  0  0  0  0
    3.5355    4.3329   14.9219 C   0  0  0  0  0  0  0  0  0  0  0  0
    2.9270    1.9569   14.9771 C   0  0  0  0  0  0  0  0  0  0  0  0
    3.5597    1.6706   16.2796 C   0  0  0  0  0  0  0  0  0  0  0  0
    1.9604    1.3826   14.5626 O   0  0  0  0  0  0  0  0  0  0  0  0
    3.2159   11.2271   16.9451 C   0  0  0  0  0  0  0  0  0  0  0  0
    2.3156   11.4138   18.1906 C   0  0  0  0  0  0  0  0  0  0  0  0
    5.0341   10.7091   18.6258 N   0  0  0  0  0  0  0  0  0  0  0  0
    4.6073   11.3529   17.4173 C   0  0  0  0  0  0  0  0  0  0  0  0
    5.4174   12.0388   16.7325 O   0  0  0  0  0  0  0  0  0  0  0  0
    4.3573   10.1705   19.1744 H   0  0  0  0  0  0  0  0  0  0  0  0
    6.4227   10.8630   19.0114 C   0  0  0  0  0  0  0  0  0  0  0  0
    6.3527   11.8029   20.2511 C   0  0  0  0  0  0  0  0  0  0  0  0
    6.5618    8.9391   20.6753 N   0  0  0  0  0  0  0  0  0  0  0  0
    6.9467    9.5800   19.4898 C   0  0  0  0  0  0  0  0  0  0  0  0
    7.8260    8.9825   18.7910 O   0  0  0  0  0  0  0  0  0  0  0  0
    5.8421    9.4045   21.2903 H   0  0  0  0  0  0  0  0  0  0  0  0
    7.0603    7.6710   21.1759 C   0  0  0  0  0  0  0  0  0  0  0  0
    6.1645    6.5726   20.7653 C   0  0  0  0  0  0  0  0  0  0  0  0
    6.7116    5.4192   21.1001 O   0  0  0  0  0  0  0  0  0  0  0  0
    4.9282    6.5242   20.1252 N   0  0  0  0  0  0  0  0  0  0  0  0
    4.1433    7.6289   19.6664 C   0  0  0  0  0  0  0  0  0  0  0  0
    3.7804    7.1419   18.2343 C   0  0  0  0  0  0  0  0  0  0  0  0
    3.3901    5.7305   18.5472 C   0  0  0  0  0  0  0  0  0  0  0  0
    4.1581    5.3412   19.8293 C   0  0  0  0  0  0  0  0  0  0  0  0
    4.8387    4.0872   19.5735 C   0  0  0  0  0  0  0  0  0  0  0  0
    5.4190    3.7985   18.5233 O   0  0  0  0  0  0  0  0  0  0  0  0
    4.8510    3.0964   20.5985 N   0  0  0  0  0  0  0  0  0  0  0  0
    4.2222    3.1706   21.8960 C   0  0  0  0  0  0  0  0  0  0  0  0
    5.2898    2.6485   22.8436 C   0  0  0  0  0  0  0  0  0  0  0  0
    5.8472    1.4784   22.0470 C   0  0  0  0  0  0  0  0  0  0  0  0
    5.5074    1.7891   20.5940 C   0  0  0  0  0  0  0  0  0  0  0  0
    7.6799    7.6549   22.4924 C   0  0  0  0  0  0  0  0  0  0  0  0
    9.4985    6.0479   23.2631 C   0  0  0  0  0  0  0  0  0  0  0  0
    9.1639    7.2871   22.5303 C   0  0  0  0  0  0  0  0  0  0  0  0
    9.7852    7.3905   21.1613 C   0  0  0  0  0  0  0  0  0  0  0  0
 62 63  1  0  0  0
 63 64  1  0  0  0
 63 61  1  0  0  0
 61 46  1  0  0  0
 46 42  1  0  0  0
 42 43  1  0  0  0
 43 44  2  0  0  0
 43 40  1  0  0  0
 40 41  1  0  0  0
 40 36  1  0  0  0
 36 37  1  0  0  0
 37 38  2  0  0  0
 37 34  1  0  0  0
 34 35  1  0  0  0
 34  1  1  0  0  0
  1  2  1  0  0  0
  2  3  2  0  0  0
  2  5  1  0  0  0
  5  6  1  0  0  0
  5  7  1  0  0  0
  7  8  1  0  0  0
  8  9  2  0  0  0
  8 11  1  0  0  0
 11 12  1  0  0  0
 11 13  1  0  0  0
 13 14  1  0  0  0
 14 15  2  0  0  0
 14 17  1  0  0  0
 17 18  1  0  0  0
 17 19  1  0  0  0
 19 20  1  0  0  0
 20 21  2  0  0  0
 20 23  1  0  0  0
 23 24  1  0  0  0
 23 25  1  0  0  0
 25 26  1  0  0  0
 26 27  2  0  0  0
 26 29  1  0  0  0
 29 30  1  0  0  0
 29 31  1  0  0  0
 31 32  1  0  0  0
 31 33  2  0  0  0
 46 47  1  0  0  0
 47 48  2  0  0  0
 47 49  1  0  0  0
 49 50  1  0  0  0
 50 51  1  0  0  0
 51 52  1  0  0  0
 52 53  1  0  0  0
 53 54  1  0  0  0
 54 55  2  0  0  0
 54 56  1  0  0  0
 56 57  1  0  0  0
 57 58  1  0  0  0
 58 59  1  0  0  0
 59 60  1  0  0  0
 53 49  1  0  0  0
 60 56  1  0  0  0
 42 45  1  0  0  0
 36 39  1  0  0  0
  1  4  1  0  0  0
  7 10  1  0  0  0
 13 16  1  0  0  0
 19 22  1  0  0  0
 25 28  1  0  0  0
M  END
> <minimizedAffinity>
-8.32067

> <CNNscore>
0.2023444921

> <CNNaffinity>
7.3044800758

> <CNN_VS>
1.4780212641

> <CNNaffinity_variance>
0.2070033103

$$$$
[H]N(C(=O)[C@]([H])(C(=O)C([H])([H])[H])C([H])([H])[H])[C@]([H])(C(=O)N([H])[C@]([H])(C(=O)N([H])[C@]([H])(C(=O)N([H])[C@]([H])(C(=O)N([H])[C@]([H])(C(=O)N([H])[C@]([H])(C(=O)N([H])[C@]([H])(C(=O)N1C([H])([H])C([H])([H])C([H])([H])[C@@]1([H])C(=O)N1C([H])([H])C([H])([H])C([H])([H])C1([H])[H])C([H])([H])C([H])(C([H])([H])[H])C([H])([H])[H])C([H])([H])[H])C([H])([H])[H])C([H])([H])[H])C([H])([H])[H])C([H])([H])[H])C([H])([H])[H]


 64 65  0  0  0  0  0  0  0  0999 V2000
    3.4955    3.8787   16.9753 N   0  0  0  0  0  0  0  0  0  0  0  0
    2.6357    3.1588   16.0902 C   0  0  0  0  0  0  0  0  0  0  0  0
    2.0551    2.1340   16.4778 O   0  0  0  0  0  0  0  0  0  0  0  0
    3.9999    4.7278   16.6651 H   0  0  0  0  0  0  0  0  0  0  0  0
    2.4529    3.6570   14.7175 C   0  0  0  0  0  0  0  0  0  0  0  0
    3.8735    3.7581   14.1180 C   0  0  0  0  0  0  0  0  0  0  0  0
    1.8917    5.0105   14.7977 N   0  0  0  0  0  0  0  0  0  0  0  0
    0.8373    5.3994   13.9355 C   0  0  0  0  0  0  0  0  0  0  0  0
    0.4117    4.5630   13.1003 O   0  0  0  0  0  0  0  0  0  0  0  0
    2.2837    5.6615   15.4921 H   0  0  0  0  0  0  0  0  0  0  0  0
    0.2737    6.7609   14.0409 C   0  0  0  0  0  0  0  0  0  0  0  0
   -0.6976    6.9791   12.8617 C   0  0  0  0  0  0  0  0  0  0  0  0
    1.3206    7.7645   13.9730 N   0  0  0  0  0  0  0  0  0  0  0  0
    2.3945    7.6475   13.0655 C   0  0  0  0  0  0  0  0  0  0  0  0
    2.5214    6.6796   12.2777 O   0  0  0  0  0  0  0  0  0  0  0  0
    1.2418    8.5752   14.6186 H   0  0  0  0  0  0  0  0  0  0  0  0
    3.4420    8.7027   13.0120 C   0  0  0  0  0  0  0  0  0  0  0  0
    4.7937    8.0753   12.6525 C   0  0  0  0  0  0  0  0  0  0  0  0
    3.6713    9.3556   14.2873 N   0  0  0  0  0  0  0  0  0  0  0  0
    3.9352    8.5622   15.4454 C   0  0  0  0  0  0  0  0  0  0  0  0
    3.9569    7.3103   15.3079 O   0  0  0  0  0  0  0  0  0  0  0  0
    3.6496   10.3765   14.3785 H   0  0  0  0  0  0  0  0  0  0  0  0
    4.1683    9.2081   16.7406 C   0  0  0  0  0  0  0  0  0  0  0  0
    4.2129    8.1296   17.8154 C   0  0  0  0  0  0  0  0  0  0  0  0
    3.1190   10.1690   17.0429 N   0  0  0  0  0  0  0  0  0  0  0  0
    3.3784   11.5604   16.9504 C   0  0  0  0  0  0  0  0  0  0  0  0
    4.5372   11.9488   16.6051 O   0  0  0  0  0  0  0  0  0  0  0  0
    2.2087    9.7921   17.3169 H   0  0  0  0  0  0  0  0  0  0  0  0
    2.2778   12.5064   17.2604 C   0  0  0  0  0  0  0  0  0  0  0  0
    2.6427   13.4539   18.3894 C   0  0  0  0  0  0  0  0  0  0  0  0
    2.0278   13.3032   16.0192 C   0  0  0  0  0  0  0  0  0  0  0  0
    2.2919   14.7540   16.0867 C   0  0  0  0  0  0  0  0  0  0  0  0
    1.6297   12.7410   15.0388 O   0  0  0  0  0  0  0  0  0  0  0  0
    3.6612    3.3963   18.3347 C   0  0  0  0  0  0  0  0  0  0  0  0
    5.0204    2.6600   18.4178 C   0  0  0  0  0  0  0  0  0  0  0  0
    4.9022    4.7280   20.0913 N   0  0  0  0  0  0  0  0  0  0  0  0
    3.7668    4.5630   19.2305 C   0  0  0  0  0  0  0  0  0  0  0  0
    2.8358    5.4168   19.2221 O   0  0  0  0  0  0  0  0  0  0  0  0
    5.6385    4.0161   20.0940 H   0  0  0  0  0  0  0  0  0  0  0  0
    4.9423    5.9120   20.9263 C   0  0  0  0  0  0  0  0  0  0  0  0
    5.0997    5.3360   22.3646 C   0  0  0  0  0  0  0  0  0  0  0  0
    6.6999    7.6757   21.4642 N   0  0  0  0  0  0  0  0  0  0  0  0
    6.1639    6.6724   20.6455 C   0  0  0  0  0  0  0  0  0  0  0  0
    6.8050    6.4216   19.5757 O   0  0  0  0  0  0  0  0  0  0  0  0
    6.1947    7.9228   22.3567 H   0  0  0  0  0  0  0  0  0  0  0  0
    7.9052    8.4454   21.2151 C   0  0  0  0  0  0  0  0  0  0  0  0
    8.9023    8.1884   22.2723 C   0  0  0  0  0  0  0  0  0  0  0  0
    9.1789    9.3207   22.8912 O   0  0  0  0  0  0  0  0  0  0  0  0
    9.5708    7.0478   22.7112 N   0  0  0  0  0  0  0  0  0  0  0  0
    9.4441    5.7165   22.2026 C   0  0  0  0  0  0  0  0  0  0  0  0
   10.9427    5.3236   22.0636 C   0  0  0  0  0  0  0  0  0  0  0  0
   11.4496    5.8207   23.3819 C   0  0  0  0  0  0  0  0  0  0  0  0
   10.5047    6.9659   23.8071 C   0  0  0  0  0  0  0  0  0  0  0  0
   11.3238    8.1147   24.1394 C   0  0  0  0  0  0  0  0  0  0  0  0
   12.2698    8.5284   23.4634 O   0  0  0  0  0  0  0  0  0  0  0  0
   11.0335    8.8368   25.3339 N   0  0  0  0  0  0  0  0  0  0  0  0
   10.0105    8.5418   26.3090 C   0  0  0  0  0  0  0  0  0  0  0  0
    9.3843    9.8970   26.5948 C   0  0  0  0  0  0  0  0  0  0  0  0
   10.6164   10.7878   26.6484 C   0  0  0  0  0  0  0  0  0  0  0  0
   11.6794   10.0444   25.8482 C   0  0  0  0  0  0  0  0  0  0  0  0
    7.7568    9.7823   20.6603 C   0  0  0  0  0  0  0  0  0  0  0  0
    6.9985   11.8663   21.9116 C   0  0  0  0  0  0  0  0  0  0  0  0
    6.6067   10.6180   21.2240 C   0  0  0  0  0  0  0  0  0  0  0  0
    5.5057   10.7833   20.2083 C   0  0  0  0  0  0  0  0  0  0  0  0
 62 63  1  0  0  0
 63 64  1  0  0  0
 63 61  1  0  0  0
 61 46  1  0  0  0
 46 42  1  0  0  0
 42 43  1  0  0  0
 43 44  2  0  0  0
 43 40  1  0  0  0
 40 41  1  0  0  0
 40 36  1  0  0  0
 36 37  1  0  0  0
 37 38  2  0  0  0
 37 34  1  0  0  0
 34 35  1  0  0  0
 34  1  1  0  0  0
  1  2  1  0  0  0
  2  3  2  0  0  0
  2  5  1  0  0  0
  5  6  1  0  0  0
  5  7  1  0  0  0
  7  8  1  0  0  0
  8  9  2  0  0  0
  8 11  1  0  0  0
 11 12  1  0  0  0
 11 13  1  0  0  0
 13 14  1  0  0  0
 14 15  2  0  0  0
 14 17  1  0  0  0
 17 18  1  0  0  0
 17 19  1  0  0  0
 19 20  1  0  0  0
 20 21  2  0  0  0
 20 23  1  0  0  0
 23 24  1  0  0  0
 23 25  1  0  0  0
 25 26  1  0  0  0
 26 27  2  0  0  0
 26 29  1  0  0  0
 29 30  1  0  0  0
 29 31  1  0  0  0
 31 32  1  0  0  0
 31 33  2  0  0  0
 46 47  1  0  0  0
 47 48  2  0  0  0
 47 49  1  0  0  0
 49 50  1  0  0  0
 50 51  1  0  0  0
 51 52  1  0  0  0
 52 53  1  0  0  0
 53 54  1  0  0  0
 54 55  2  0  0  0
 54 56  1  0  0  0
 56 57  1  0  0  0
 57 58  1  0  0  0
 58 59  1  0  0  0
 59 60  1  0  0  0
 53 49  1  0  0  0
 60 56  1  0  0  0
 42 45  1  0  0  0
 36 39  1  0  0  0
  1  4  1  0  0  0
  7 10  1  0  0  0
 13 16  1  0  0  0
 19 22  1  0  0  0
 25 28  1  0  0  0
M  END
> <minimizedAffinity>
-8.24691

> <CNNscore>
0.1990010440

> <CNNaffinity>
6.8804030418

> <CNN_VS>
1.3692073822

> <CNNaffinity_variance>
0.2427669019

$$$$
[H]N(C(=O)[C@]([H])(C(=O)C([H])([H])[H])C([H])([H])[H])[C@]([H])(C(=O)N([H])[C@]([H])(C(=O)N([H])[C@]([H])(C(=O)N([H])[C@]([H])(C(=O)N([H])[C@]([H])(C(=O)N([H])[C@]([H])(C(=O)N([H])[C@]([H])(C(=O)N1C([H])([H])C([H])([H])C([H])([H])[C@@]1([H])C(=O)N1C([H])([H])C([H])([H])C([H])([H])C1([H])[H])C([H])([H])C([H])(C([H])([H])[H])C([H])([H])[H])C([H])([H])[H])C([H])([H])[H])C([H])([H])[H])C([H])([H])[H])C([H])([H])[H])C([H])([H])[H]


 64 65  0  0  0  0  0  0  0  0999 V2000
    3.4335    2.4085   16.1461 N   0  0  0  0  0  0  0  0  0  0  0  0
    4.4526    2.4842   17.1443 C   0  0  0  0  0  0  0  0  0  0  0  0
    5.3856    3.2924   17.0261 O   0  0  0  0  0  0  0  0  0  0  0  0
    2.6552    1.7301   16.2204 H   0  0  0  0  0  0  0  0  0  0  0  0
    4.3715    1.5896   18.3102 C   0  0  0  0  0  0  0  0  0  0  0  0
    2.9917    0.9010   18.2122 C   0  0  0  0  0  0  0  0  0  0  0  0
    4.3848    2.4198   19.5201 N   0  0  0  0  0  0  0  0  0  0  0  0
    5.0616    1.9775   20.6832 C   0  0  0  0  0  0  0  0  0  0  0  0
    5.6322    0.8586   20.6510 O   0  0  0  0  0  0  0  0  0  0  0  0
    3.8925    3.3234   19.4979 H   0  0  0  0  0  0  0  0  0  0  0  0
    5.0781    2.8333   21.8872 C   0  0  0  0  0  0  0  0  0  0  0  0
    3.7754    2.5884   22.6773 C   0  0  0  0  0  0  0  0  0  0  0  0
    5.1463    4.2380   21.5266 N   0  0  0  0  0  0  0  0  0  0  0  0
    6.2917    5.0140   21.8028 C   0  0  0  0  0  0  0  0  0  0  0  0
    7.3065    4.5538   22.3789 O   0  0  0  0  0  0  0  0  0  0  0  0
    4.3164    4.6456   21.0517 H   0  0  0  0  0  0  0  0  0  0  0  0
    6.3334    6.4471   21.4052 C   0  0  0  0  0  0  0  0  0  0  0  0
    6.5036    7.3267   22.6491 C   0  0  0  0  0  0  0  0  0  0  0  0
    5.1028    6.9142   20.7946 N   0  0  0  0  0  0  0  0  0  0  0  0
    4.9027    6.7355   19.3917 C   0  0  0  0  0  0  0  0  0  0  0  0
    5.8177    6.1722   18.7344 O   0  0  0  0  0  0  0  0  0  0  0  0
    4.3696    7.3704   21.3472 H   0  0  0  0  0  0  0  0  0  0  0  0
    3.6645    7.2028   18.7611 C   0  0  0  0  0  0  0  0  0  0  0  0
    3.8350    7.1250   17.2493 C   0  0  0  0  0  0  0  0  0  0  0  0
    3.3577    8.5682   19.1578 N   0  0  0  0  0  0  0  0  0  0  0  0
    4.1843    9.6379   18.7286 C   0  0  0  0  0  0  0  0  0  0  0  0
    5.1925    9.3826   17.9999 O   0  0  0  0  0  0  0  0  0  0  0  0
    2.5332    8.7068   19.7467 H   0  0  0  0  0  0  0  0  0  0  0  0
    3.8312   11.0164   19.1499 C   0  0  0  0  0  0  0  0  0  0  0  0
    5.0613   11.8861   19.3400 C   0  0  0  0  0  0  0  0  0  0  0  0
    2.9870   11.6002   18.0617 C   0  0  0  0  0  0  0  0  0  0  0  0
    3.6557   12.4992   17.1005 C   0  0  0  0  0  0  0  0  0  0  0  0
    1.8230   11.3197   18.0162 O   0  0  0  0  0  0  0  0  0  0  0  0
    3.5049    3.3037   15.0052 C   0  0  0  0  0  0  0  0  0  0  0  0
    3.3068    2.4597   13.7227 C   0  0  0  0  0  0  0  0  0  0  0  0
    1.8560    4.8622   13.8865 N   0  0  0  0  0  0  0  0  0  0  0  0
    2.3600    4.2309   15.0717 C   0  0  0  0  0  0  0  0  0  0  0  0
    1.8301    4.4561   16.1961 O   0  0  0  0  0  0  0  0  0  0  0  0
    2.3101    4.6780   12.9871 H   0  0  0  0  0  0  0  0  0  0  0  0
    0.7147    5.7436   14.0317 C   0  0  0  0  0  0  0  0  0  0  0  0
    1.3332    7.1651   13.8826 C   0  0  0  0  0  0  0  0  0  0  0  0
    0.1811    5.1307   11.6174 N   0  0  0  0  0  0  0  0  0  0  0  0
   -0.1951    5.5635   12.8962 C   0  0  0  0  0  0  0  0  0  0  0  0
   -1.4308    5.8179   13.0595 O   0  0  0  0  0  0  0  0  0  0  0  0
    1.1982    4.9178   11.4352 H   0  0  0  0  0  0  0  0  0  0  0  0
   -0.6935    4.9421   10.4743 C   0  0  0  0  0  0  0  0  0  0  0  0
   -0.3005    3.7331    9.7250 C   0  0  0  0  0  0  0  0  0  0  0  0
    1.0112    3.7208    9.5798 O   0  0  0  0  0  0  0  0  0  0  0  0
   -1.0083    2.6691    9.1706 N   0  0  0  0  0  0  0  0  0  0  0  0
   -2.4237    2.4609    9.1937 C   0  0  0  0  0  0  0  0  0  0  0  0
   -2.6809    2.1042    7.7017 C   0  0  0  0  0  0  0  0  0  0  0  0
   -1.5561    1.1404    7.4829 C   0  0  0  0  0  0  0  0  0  0  0  0
   -0.4509    1.5261    8.4904 C   0  0  0  0  0  0  0  0  0  0  0  0
    0.7901    1.6639    7.7542 C   0  0  0  0  0  0  0  0  0  0  0  0
    0.9151    2.2668    6.6847 O   0  0  0  0  0  0  0  0  0  0  0  0
    1.9692    1.0647    8.2867 N   0  0  0  0  0  0  0  0  0  0  0  0
    2.0851    0.2816    9.4940 C   0  0  0  0  0  0  0  0  0  0  0  0
    3.3367    0.8298   10.1597 C   0  0  0  0  0  0  0  0  0  0  0  0
    4.2598    0.9987    8.9623 C   0  0  0  0  0  0  0  0  0  0  0  0
    3.3323    1.1097    7.7579 C   0  0  0  0  0  0  0  0  0  0  0  0
   -1.1486    6.1269    9.7626 C   0  0  0  0  0  0  0  0  0  0  0  0
   -3.0027    5.8118    8.0459 C   0  0  0  0  0  0  0  0  0  0  0  0
   -2.6409    6.1779    9.4314 C   0  0  0  0  0  0  0  0  0  0  0  0
   -3.4577    5.4882   10.4935 C   0  0  0  0  0  0  0  0  0  0  0  0
 62 63  1  0  0  0
 63 64  1  0  0  0
 63 61  1  0  0  0
 61 46  1  0  0  0
 46 42  1  0  0  0
 42 43  1  0  0  0
 43 44  2  0  0  0
 43 40  1  0  0  0
 40 41  1  0  0  0
 40 36  1  0  0  0
 36 37  1  0  0  0
 37 38  2  0  0  0
 37 34  1  0  0  0
 34 35  1  0  0  0
 34  1  1  0  0  0
  1  2  1  0  0  0
  2  3  2  0  0  0
  2  5  1  0  0  0
  5  6  1  0  0  0
  5  7  1  0  0  0
  7  8  1  0  0  0
  8  9  2  0  0  0
  8 11  1  0  0  0
 11 12  1  0  0  0
 11 13  1  0  0  0
 13 14  1  0  0  0
 14 15  2  0  0  0
 14 17  1  0  0  0
 17 18  1  0  0  0
 17 19  1  0  0  0
 19 20  1  0  0  0
 20 21  2  0  0  0
 20 23  1  0  0  0
 23 24  1  0  0  0
 23 25  1  0  0  0
 25 26  1  0  0  0
 26 27  2  0  0  0
 26 29  1  0  0  0
 29 30  1  0  0  0
 29 31  1  0  0  0
 31 32  1  0  0  0
 31 33  2  0  0  0
 46 47  1  0  0  0
 47 48  2  0  0  0
 47 49  1  0  0  0
 49 50  1  0  0  0
 50 51  1  0  0  0
 51 52  1  0  0  0
 52 53  1  0  0  0
 53 54  1  0  0  0
 54 55  2  0  0  0
 54 56  1  0  0  0
 56 57  1  0  0  0
 57 58  1  0  0  0
 58 59  1  0  0  0
 59 60  1  0  0  0
 53 49  1  0  0  0
 60 56  1  0  0  0
 42 45  1  0  0  0
 36 39  1  0  0  0
  1  4  1  0  0  0
  7 10  1  0  0  0
 13 16  1  0  0  0
 19 22  1  0  0  0
 25 28  1  0  0  0
M  END
> <minimizedAffinity>
-7.72083

> <CNNscore>
0.1741636544

> <CNNaffinity>
7.0526008606

> <CNN_VS>
1.2283067703

> <CNNaffinity_variance>
0.4105874896

$$$$
[H]N(C(=O)[C@]([H])(C(=O)C([H])([H])[H])C([H])([H])[H])[C@]([H])(C(=O)N([H])[C@]([H])(C(=O)N([H])[C@]([H])(C(=O)N([H])[C@]([H])(C(=O)N([H])[C@]([H])(C(=O)N([H])[C@]([H])(C(=O)N([H])[C@]([H])(C(=O)N1C([H])([H])C([H])([H])C([H])([H])[C@@]1([H])C(=O)N1C([H])([H])C([H])([H])C([H])([H])C1([H])[H])C([H])([H])C([H])(C([H])([H])[H])C([H])([H])[H])C([H])([H])[H])C([H])([H])[H])C([H])([H])[H])C([H])([H])[H])C([H])([H])[H])C([H])([H])[H]


 64 65  0  0  0  0  0  0  0  0999 V2000
    5.3535    9.7302   16.2392 N   0  0  0  0  0  0  0  0  0  0  0  0
    5.6773   10.4130   17.4515 C   0  0  0  0  0  0  0  0  0  0  0  0
    4.7989   10.6362   18.2978 O   0  0  0  0  0  0  0  0  0  0  0  0
    6.0702    9.5481   15.5149 H   0  0  0  0  0  0  0  0  0  0  0  0
    7.0674   10.8418   17.6746 C   0  0  0  0  0  0  0  0  0  0  0  0
    7.9465    9.8061   16.9385 C   0  0  0  0  0  0  0  0  0  0  0  0
    7.3473   10.7419   19.1117 N   0  0  0  0  0  0  0  0  0  0  0  0
    8.2800   11.6168   19.7208 C   0  0  0  0  0  0  0  0  0  0  0  0
    8.8635   12.4623   18.9977 O   0  0  0  0  0  0  0  0  0  0  0  0
    6.8504   10.0244   19.6574 H   0  0  0  0  0  0  0  0  0  0  0  0
    8.5376   11.5125   21.1718 C   0  0  0  0  0  0  0  0  0  0  0  0
   10.0449   11.2570   21.3821 C   0  0  0  0  0  0  0  0  0  0  0  0
    7.7932   10.4109   21.7549 N   0  0  0  0  0  0  0  0  0  0  0  0
    7.3959   10.4259   23.1085 C   0  0  0  0  0  0  0  0  0  0  0  0
    7.6641   11.3704   23.8892 O   0  0  0  0  0  0  0  0  0  0  0  0
    7.5617    9.6130   21.1304 H   0  0  0  0  0  0  0  0  0  0  0  0
    6.6204    9.2866   23.6693 C   0  0  0  0  0  0  0  0  0  0  0  0
    7.3234    8.7448   24.9191 C   0  0  0  0  0  0  0  0  0  0  0  0
    6.5379    8.1470   22.7750 N   0  0  0  0  0  0  0  0  0  0  0  0
    5.5313    8.1202   21.7621 C   0  0  0  0  0  0  0  0  0  0  0  0
    4.7455    9.1020   21.6880 O   0  0  0  0  0  0  0  0  0  0  0  0
    7.1874    7.3574   22.8515 H   0  0  0  0  0  0  0  0  0  0  0  0
    5.4357    6.9752   20.8517 C   0  0  0  0  0  0  0  0  0  0  0  0
    4.5584    7.3707   19.6709 C   0  0  0  0  0  0  0  0  0  0  0  0
    4.8708    5.8163   21.5254 N   0  0  0  0  0  0  0  0  0  0  0  0
    5.7234    4.8568   22.1288 C   0  0  0  0  0  0  0  0  0  0  0  0
    6.9806    5.0251   22.0667 O   0  0  0  0  0  0  0  0  0  0  0  0
    3.8512    5.7379   21.5388 H   0  0  0  0  0  0  0  0  0  0  0  0
    5.1056    3.6934   22.8122 C   0  0  0  0  0  0  0  0  0  0  0  0
    3.7278    4.0208   23.3601 C   0  0  0  0  0  0  0  0  0  0  0  0
    4.9769    2.6080   21.7908 C   0  0  0  0  0  0  0  0  0  0  0  0
    6.0608    1.6077   21.7320 C   0  0  0  0  0  0  0  0  0  0  0  0
    4.0164    2.5960   21.0745 O   0  0  0  0  0  0  0  0  0  0  0  0
    3.9855    9.2920   16.0279 C   0  0  0  0  0  0  0  0  0  0  0  0
    3.4251   10.0507   14.8004 C   0  0  0  0  0  0  0  0  0  0  0  0
    3.1587    6.9195   16.3223 N   0  0  0  0  0  0  0  0  0  0  0  0
    4.0083    7.8647   15.6575 C   0  0  0  0  0  0  0  0  0  0  0  0
    4.7916    7.4918   14.7393 O   0  0  0  0  0  0  0  0  0  0  0  0
    2.5423    7.2401   17.0748 H   0  0  0  0  0  0  0  0  0  0  0  0
    3.2242    5.5387   15.8864 C   0  0  0  0  0  0  0  0  0  0  0  0
    2.6001    4.7527   17.0771 C   0  0  0  0  0  0  0  0  0  0  0  0
    2.1068    6.2706   13.7173 N   0  0  0  0  0  0  0  0  0  0  0  0
    2.3305    5.3402   14.7413 C   0  0  0  0  0  0  0  0  0  0  0  0
    1.6924    4.2435   14.6497 O   0  0  0  0  0  0  0  0  0  0  0  0
    2.6083    7.1978   13.7590 H   0  0  0  0  0  0  0  0  0  0  0  0
    1.2303    6.1047   12.5721 C   0  0  0  0  0  0  0  0  0  0  0  0
    1.9929    5.5965   11.4154 C   0  0  0  0  0  0  0  0  0  0  0  0
    1.6230    4.3547   11.1646 O   0  0  0  0  0  0  0  0  0  0  0  0
    2.9736    6.1432   10.5910 N   0  0  0  0  0  0  0  0  0  0  0  0
    3.5368    7.4565   10.6634 C   0  0  0  0  0  0  0  0  0  0  0  0
    5.0518    7.1201   10.5580 C   0  0  0  0  0  0  0  0  0  0  0  0
    5.0067    6.1385    9.4282 C   0  0  0  0  0  0  0  0  0  0  0  0
    3.5978    5.5066    9.4574 C   0  0  0  0  0  0  0  0  0  0  0  0
    3.7588    4.0661    9.4419 C   0  0  0  0  0  0  0  0  0  0  0  0
    4.5546    3.4356   10.1434 O   0  0  0  0  0  0  0  0  0  0  0  0
    2.9471    3.2986    8.5561 N   0  0  0  0  0  0  0  0  0  0  0  0
    1.9709    3.7916    7.6137 C   0  0  0  0  0  0  0  0  0  0  0  0
    0.7814    2.8660    7.8103 C   0  0  0  0  0  0  0  0  0  0  0  0
    1.4738    1.5185    7.9488 C   0  0  0  0  0  0  0  0  0  0  0  0
    2.8929    1.8452    8.3990 C   0  0  0  0  0  0  0  0  0  0  0  0
    0.1729    7.0849   12.3763 C   0  0  0  0  0  0  0  0  0  0  0  0
   -1.6611    5.3280   12.1930 C   0  0  0  0  0  0  0  0  0  0  0  0
   -1.2392    6.6310   12.7489 C   0  0  0  0  0  0  0  0  0  0  0  0
   -1.4900    6.7907   14.2262 C   0  0  0  0  0  0  0  0  0  0  0  0
 62 63  1  0  0  0
 63 64  1  0  0  0
 63 61  1  0  0  0
 61 46  1  0  0  0
 46 42  1  0  0  0
 42 43  1  0  0  0
 43 44  2  0  0  0
 43 40  1  0  0  0
 40 41  1  0  0  0
 40 36  1  0  0  0
 36 37  1  0  0  0
 37 38  2  0  0  0
 37 34  1  0  0  0
 34 35  1  0  0  0
 34  1  1  0  0  0
  1  2  1  0  0  0
  2  3  2  0  0  0
  2  5  1  0  0  0
  5  6  1  0  0  0
  5  7  1  0  0  0
  7  8  1  0  0  0
  8  9  2  0  0  0
  8 11  1  0  0  0
 11 12  1  0  0  0
 11 13  1  0  0  0
 13 14  1  0  0  0
 14 15  2  0  0  0
 14 17  1  0  0  0
 17 18  1  0  0  0
 17 19  1  0  0  0
 19 20  1  0  0  0
 20 21  2  0  0  0
 20 23  1  0  0  0
 23 24  1  0  0  0
 23 25  1  0  0  0
 25 26  1  0  0  0
 26 27  2  0  0  0
 26 29  1  0  0  0
 29 30  1  0  0  0
 29 31  1  0  0  0
 31 32  1  0  0  0
 31 33  2  0  0  0
 46 47  1  0  0  0
 47 48  2  0  0  0
 47 49  1  0  0  0
 49 50  1  0  0  0
 50 51  1  0  0  0
 51 52  1  0  0  0
 52 53  1  0  0  0
 53 54  1  0  0  0
 54 55  2  0  0  0
 54 56  1  0  0  0
 56 57  1  0  0  0
 57 58  1  0  0  0
 58 59  1  0  0  0
 59 60  1  0  0  0
 53 49  1  0  0  0
 60 56  1  0  0  0
 42 45  1  0  0  0
 36 39  1  0  0  0
  1  4  1  0  0  0
  7 10  1  0  0  0
 13 16  1  0  0  0
 19 22  1  0  0  0
 25 28  1  0  0  0
M  END
> <minimizedAffinity>
-7.46125

> <CNNscore>
0.1544280797

> <CNNaffinity>
6.6477079391

> <CNN_VS>
1.0265927315

> <CNNaffinity_variance>
0.3925015926

$$$$
[H]N(C(=O)[C@@]([H])(N([H])C(=O)[C@@]([H])(N([H])C(=O)[C@@]([H])(N([H])C(=O)[C@@]([H])(C(=O)C([H])([H])[H])C([H])([H])[H])C([H])([H])[H])C([H])([H])[H])C([H])([H])[H])[C@]([H])(C(=O)N([H])[C@]([H])(C(=O)N([H])[C@]([H])(C(=O)N([H])[C@]([H])(C(=O)N([H])[C@]([H])(C(=O)N1C([H])([H])C([H])([H])C([H])([H])[C@@]1([H])C(=O)N1C(=O)C([H])([H])C([H])([H])C1([H])[H])C([H])([H])C([H])(C([H])([H])[H])C([H])([H])[H])C([H])([H])[H])C([H])([H])[H])C([H])([H])[H])C([H])([H])[H]


 71 72  0  0  0  0  0  0  0  0999 V2000
    3.4716    6.8103   14.1106 N   0  0  0  0  0  0  0  0  0  0  0  0
    2.3507    7.2653   13.4072 C   0  0  0  0  0  0  0  0  0  0  0  0
    1.1970    6.8806   13.7816 O   0  0  0  0  0  0  0  0  0  0  0  0
    4.4188    7.0874   13.8361 H   0  0  0  0  0  0  0  0  0  0  0  0
    2.3772    8.1764   12.2478 C   0  0  0  0  0  0  0  0  0  0  0  0
    1.4263    7.6113   11.1529 C   0  0  0  0  0  0  0  0  0  0  0  0
    3.6675    8.2116   11.6356 N   0  0  0  0  0  0  0  0  0  0  0  0
    4.3076    7.0987   11.0395 C   0  0  0  0  0  0  0  0  0  0  0  0
    3.7932    5.9681   11.0100 O   0  0  0  0  0  0  0  0  0  0  0  0
    4.1662    9.1283   11.6299 H   0  0  0  0  0  0  0  0  0  0  0  0
    5.6606    7.2964   10.4274 C   0  0  0  0  0  0  0  0  0  0  0  0
    6.4803    8.0849   11.4595 C   0  0  0  0  0  0  0  0  0  0  0  0
    5.7351    7.9647    9.2013 N   0  0  0  0  0  0  0  0  0  0  0  0
    5.5999    7.5030    7.8857 C   0  0  0  0  0  0  0  0  0  0  0  0
    5.3909    6.3010    7.6418 O   0  0  0  0  0  0  0  0  0  0  0  0
    5.9291    9.0439    9.2774 H   0  0  0  0  0  0  0  0  0  0  0  0
    5.7023    8.4825    6.7835 C   0  0  0  0  0  0  0  0  0  0  0  0
    4.9127    9.7540    7.2265 C   0  0  0  0  0  0  0  0  0  0  0  0
    5.0716    8.0960    5.5631 N   0  0  0  0  0  0  0  0  0  0  0  0
    5.6715    8.4184    4.2957 C   0  0  0  0  0  0  0  0  0  0  0  0
    6.7529    9.0306    4.2925 O   0  0  0  0  0  0  0  0  0  0  0  0
    4.1790    7.5803    5.5318 H   0  0  0  0  0  0  0  0  0  0  0  0
    5.0176    8.0428    3.0048 C   0  0  0  0  0  0  0  0  0  0  0  0
    5.6899    8.7728    1.8805 C   0  0  0  0  0  0  0  0  0  0  0  0
    3.5996    8.3834    3.1246 N   0  0  0  0  0  0  0  0  0  0  0  0
    2.6289    7.3782    3.0796 C   0  0  0  0  0  0  0  0  0  0  0  0
    3.0023    6.1702    2.9221 O   0  0  0  0  0  0  0  0  0  0  0  0
    3.3670    9.3866    3.2396 H   0  0  0  0  0  0  0  0  0  0  0  0
    1.1498    7.5876    3.2075 C   0  0  0  0  0  0  0  0  0  0  0  0
    0.9108    9.0572    2.8753 C   0  0  0  0  0  0  0  0  0  0  0  0
    0.7006    7.2842    4.5256 N   0  0  0  0  0  0  0  0  0  0  0  0
    1.2041    7.9051    5.6832 C   0  0  0  0  0  0  0  0  0  0  0  0
    2.1011    8.7782    5.6644 O   0  0  0  0  0  0  0  0  0  0  0  0
   -0.0564    6.5440    4.5999 H   0  0  0  0  0  0  0  0  0  0  0  0
    0.6240    7.4945    7.0142 C   0  0  0  0  0  0  0  0  0  0  0  0
    1.4566    6.3855    7.6288 C   0  0  0  0  0  0  0  0  0  0  0  0
   -0.7726    7.0682    6.8573 C   0  0  0  0  0  0  0  0  0  0  0  0
   -1.8718    8.0642    7.0850 C   0  0  0  0  0  0  0  0  0  0  0  0
   -1.1193    5.9480    6.5488 O   0  0  0  0  0  0  0  0  0  0  0  0
    3.2966    5.9084   15.2737 C   0  0  0  0  0  0  0  0  0  0  0  0
    3.5837    4.4898   14.9656 C   0  0  0  0  0  0  0  0  0  0  0  0
    3.7974    7.6025   17.1082 N   0  0  0  0  0  0  0  0  0  0  0  0
    4.0775    6.4311   16.4114 C   0  0  0  0  0  0  0  0  0  0  0  0
    5.1037    5.7484   16.7676 O   0  0  0  0  0  0  0  0  0  0  0  0
    2.9316    8.1374   16.8228 H   0  0  0  0  0  0  0  0  0  0  0  0
    4.5587    8.1500   18.1721 C   0  0  0  0  0  0  0  0  0  0  0  0
    3.5676    8.9250   19.0843 C   0  0  0  0  0  0  0  0  0  0  0  0
    4.7512    6.3202   19.8802 N   0  0  0  0  0  0  0  0  0  0  0  0
    5.3320    7.2723   19.0307 C   0  0  0  0  0  0  0  0  0  0  0  0
    6.6013    7.3573   19.0208 O   0  0  0  0  0  0  0  0  0  0  0  0
    3.6953    6.2413   19.8815 H   0  0  0  0  0  0  0  0  0  0  0  0
    5.5070    5.4022   20.7813 C   0  0  0  0  0  0  0  0  0  0  0  0
    4.6927    4.1353   20.7286 C   0  0  0  0  0  0  0  0  0  0  0  0
    3.6531    4.2696   19.9919 O   0  0  0  0  0  0  0  0  0  0  0  0
    5.0666    2.9821   21.4073 N   0  0  0  0  0  0  0  0  0  0  0  0
    6.2912    2.9379   22.2568 C   0  0  0  0  0  0  0  0  0  0  0  0
    5.7307    2.2751   23.5176 C   0  0  0  0  0  0  0  0  0  0  0  0
    4.3929    1.6376   23.0796 C   0  0  0  0  0  0  0  0  0  0  0  0
    4.6267    1.6318   21.5779 C   0  0  0  0  0  0  0  0  0  0  0  0
    3.6109    1.0644   20.7603 C   0  0  0  0  0  0  0  0  0  0  0  0
    2.5273    0.6234   21.1758 O   0  0  0  0  0  0  0  0  0  0  0  0
    3.7935    0.9721   19.3392 N   0  0  0  0  0  0  0  0  0  0  0  0
    4.9813    1.4057   18.6259 C   0  0  0  0  0  0  0  0  0  0  0  0
    4.4951    1.8188   17.2661 C   0  0  0  0  0  0  0  0  0  0  0  0
    3.1639    1.1668   17.0552 C   0  0  0  0  0  0  0  0  0  0  0  0
    2.9122    0.4775   18.3408 C   0  0  0  0  0  0  0  0  0  0  0  0
    2.0446   -0.4316   18.5652 O   0  0  0  0  0  0  0  0  0  0  0  0
    5.4622    6.1092   22.0805 C   0  0  0  0  0  0  0  0  0  0  0  0
    6.5628    8.3623   22.4060 C   0  0  0  0  0  0  0  0  0  0  0  0
    6.5925    6.8793   22.6051 C   0  0  0  0  0  0  0  0  0  0  0  0
    7.9701    6.3040   22.3206 C   0  0  0  0  0  0  0  0  0  0  0  0
 69 70  1  0  0  0
 70 71  1  0  0  0
 70 68  1  0  0  0
 68 52  1  0  0  0
 52 48  1  0  0  0
 48 49  1  0  0  0
 49 50  2  0  0  0
 49 46  1  0  0  0
 46 47  1  0  0  0
 46 42  1  0  0  0
 42 43  1  0  0  0
 43 44  2  0  0  0
 43 40  1  0  0  0
 40 41  1  0  0  0
 40  1  1  0  0  0
  1  2  1  0  0  0
  2  3  2  0  0  0
  2  5  1  0  0  0
  5  6  1  0  0  0
  5  7  1  0  0  0
  7  8  1  0  0  0
  8  9  2  0  0  0
  8 11  1  0  0  0
 11 12  1  0  0  0
 11 13  1  0  0  0
 13 14  1  0  0  0
 14 15  2  0  0  0
 14 17  1  0  0  0
 17 18  1  0  0  0
 17 19  1  0  0  0
 19 20  1  0  0  0
 20 21  2  0  0  0
 20 23  1  0  0  0
 23 24  1  0  0  0
 23 25  1  0  0  0
 25 26  1  0  0  0
 26 27  2  0  0  0
 26 29  1  0  0  0
 29 30  1  0  0  0
 29 31  1  0  0  0
 31 32  1  0  0  0
 32 33  2  0  0  0
 32 35  1  0  0  0
 35 36  1  0  0  0
 35 37  1  0  0  0
 37 38  1  0  0  0
 37 39  2  0  0  0
 52 53  1  0  0  0
 53 54  2  0  0  0
 53 55  1  0  0  0
 55 56  1  0  0  0
 56 57  1  0  0  0
 57 58  1  0  0  0
 58 59  1  0  0  0
 59 60  1  0  0  0
 60 61  2  0  0  0
 60 62  1  0  0  0
 62 63  1  0  0  0
 63 64  1  0  0  0
 64 65  1  0  0  0
 65 66  1  0  0  0
 66 67  2  0  0  0
 59 55  1  0  0  0
 66 62  1  0  0  0
 48 51  1  0  0  0
 42 45  1  0  0  0
  1  4  1  0  0  0
  7 10  1  0  0  0
 13 16  1  0  0  0
 19 22  1  0  0  0
 25 28  1  0  0  0
 31 34  1  0  0  0
M  END
> <minimizedAffinity>
-8.45130

> <CNNscore>
0.3848369420

> <CNNaffinity>
6.9484381676

> <CNN_VS>
2.6740157604

> <CNNaffinity_variance>
0.5018243790

$$$$
[H]N(C(=O)[C@@]([H])(N([H])C(=O)[C@@]([H])(N([H])C(=O)[C@@]([H])(N([H])C(=O)[C@@]([H])(C(=O)C([H])([H])[H])C([H])([H])[H])C([H])([H])[H])C([H])([H])[H])C([H])([H])[H])[C@]([H])(C(=O)N([H])[C@]([H])(C(=O)N([H])[C@]([H])(C(=O)N([H])[C@]([H])(C(=O)N([H])[C@]([H])(C(=O)N1C([H])([H])C([H])([H])C([H])([H])[C@@]1([H])C(=O)N1C(=O)C([H])([H])C([H])([H])C1([H])[H])C([H])([H])C([H])(C([H])([H])[H])C([H])([H])[H])C([H])([H])[H])C([H])([H])[H])C([H])([H])[H])C([H])([H])[H]


 71 72  0  0  0  0  0  0  0  0999 V2000
    3.8791    7.8184   11.6231 N   0  0  0  0  0  0  0  0  0  0  0  0
    4.8122    7.3987   10.6685 C   0  0  0  0  0  0  0  0  0  0  0  0
    5.9308    6.9417   11.0674 O   0  0  0  0  0  0  0  0  0  0  0  0
    2.9709    8.2021   11.3447 H   0  0  0  0  0  0  0  0  0  0  0  0
    4.6171    7.4292    9.2070 C   0  0  0  0  0  0  0  0  0  0  0  0
    5.3115    8.7023    8.6419 C   0  0  0  0  0  0  0  0  0  0  0  0
    3.2383    7.5757    8.8631 N   0  0  0  0  0  0  0  0  0  0  0  0
    2.7061    7.3838    7.5656 C   0  0  0  0  0  0  0  0  0  0  0  0
    3.4136    7.0770    6.5914 O   0  0  0  0  0  0  0  0  0  0  0  0
    2.5826    7.8414    9.6304 H   0  0  0  0  0  0  0  0  0  0  0  0
    1.2327    7.5649    7.3639 C   0  0  0  0  0  0  0  0  0  0  0  0
    0.5505    6.7237    8.4529 C   0  0  0  0  0  0  0  0  0  0  0  0
    0.6908    7.2068    6.1256 N   0  0  0  0  0  0  0  0  0  0  0  0
    0.1193    7.9800    5.1068 C   0  0  0  0  0  0  0  0  0  0  0  0
    0.0057    9.2138    5.2195 O   0  0  0  0  0  0  0  0  0  0  0  0
    0.7199    6.1304    5.9054 H   0  0  0  0  0  0  0  0  0  0  0  0
   -0.3419    7.2958    3.8805 C   0  0  0  0  0  0  0  0  0  0  0  0
   -1.5246    6.3645    4.2935 C   0  0  0  0  0  0  0  0  0  0  0  0
    0.6025    6.4061    3.2861 N   0  0  0  0  0  0  0  0  0  0  0  0
    1.6142    6.9040    2.3924 C   0  0  0  0  0  0  0  0  0  0  0  0
    1.6494    8.1244    2.1608 O   0  0  0  0  0  0  0  0  0  0  0  0
    0.6054    5.3903    3.4644 H   0  0  0  0  0  0  0  0  0  0  0  0
    2.5998    5.9876    1.7415 C   0  0  0  0  0  0  0  0  0  0  0  0
    2.1696    4.5672    1.9567 C   0  0  0  0  0  0  0  0  0  0  0  0
    3.9082    6.2718    2.3320 N   0  0  0  0  0  0  0  0  0  0  0  0
    4.8906    6.9257    1.5825 C   0  0  0  0  0  0  0  0  0  0  0  0
    4.6279    7.2561    0.3803 O   0  0  0  0  0  0  0  0  0  0  0  0
    4.0567    5.9654    3.3106 H   0  0  0  0  0  0  0  0  0  0  0  0
    6.2604    7.2916    2.0702 C   0  0  0  0  0  0  0  0  0  0  0  0
    7.1571    7.2706    0.8362 C   0  0  0  0  0  0  0  0  0  0  0  0
    6.7210    6.3644    3.0498 N   0  0  0  0  0  0  0  0  0  0  0  0
    6.8336    6.6681    4.4188 C   0  0  0  0  0  0  0  0  0  0  0  0
    6.5465    7.7857    4.9044 O   0  0  0  0  0  0  0  0  0  0  0  0
    6.9850    5.4013    2.6905 H   0  0  0  0  0  0  0  0  0  0  0  0
    7.3229    5.5825    5.3454 C   0  0  0  0  0  0  0  0  0  0  0  0
    6.9643    5.9177    6.7806 C   0  0  0  0  0  0  0  0  0  0  0  0
    8.7730    5.3992    5.2025 C   0  0  0  0  0  0  0  0  0  0  0  0
    9.6523    5.5505    6.4092 C   0  0  0  0  0  0  0  0  0  0  0  0
    9.3328    5.1265    4.1620 O   0  0  0  0  0  0  0  0  0  0  0  0
    4.2015    7.7134   13.0660 C   0  0  0  0  0  0  0  0  0  0  0  0
    4.1092    9.0038   13.7843 C   0  0  0  0  0  0  0  0  0  0  0  0
    3.8207    5.7258   14.6124 N   0  0  0  0  0  0  0  0  0  0  0  0
    3.3782    6.6469   13.6679 C   0  0  0  0  0  0  0  0  0  0  0  0
    2.1617    6.5640   13.2686 O   0  0  0  0  0  0  0  0  0  0  0  0
    4.8159    5.8264   14.9537 H   0  0  0  0  0  0  0  0  0  0  0  0
    3.0638    4.6637   15.1694 C   0  0  0  0  0  0  0  0  0  0  0  0
    3.6639    3.3422   14.6142 C   0  0  0  0  0  0  0  0  0  0  0  0
    3.9700    3.9050   17.3843 N   0  0  0  0  0  0  0  0  0  0  0  0
    2.9759    4.5204   16.6106 C   0  0  0  0  0  0  0  0  0  0  0  0
    1.9531    4.9733   17.2167 O   0  0  0  0  0  0  0  0  0  0  0  0
    4.8265    3.5370   16.8823 H   0  0  0  0  0  0  0  0  0  0  0  0
    3.9183    3.7326   18.8654 C   0  0  0  0  0  0  0  0  0  0  0  0
    4.8985    4.7659   19.3576 C   0  0  0  0  0  0  0  0  0  0  0  0
    5.8319    4.9782   18.5060 O   0  0  0  0  0  0  0  0  0  0  0  0
    4.7627    5.3922   20.5903 N   0  0  0  0  0  0  0  0  0  0  0  0
    3.6449    5.0563   21.5183 C   0  0  0  0  0  0  0  0  0  0  0  0
    4.4142    4.8912   22.8312 C   0  0  0  0  0  0  0  0  0  0  0  0
    5.7818    5.5681   22.5875 C   0  0  0  0  0  0  0  0  0  0  0  0
    5.4078    6.4011   21.3725 C   0  0  0  0  0  0  0  0  0  0  0  0
    6.4116    7.2472   20.8257 C   0  0  0  0  0  0  0  0  0  0  0  0
    7.5573    6.8830   20.5163 O   0  0  0  0  0  0  0  0  0  0  0  0
    6.1359    8.6358   20.5868 N   0  0  0  0  0  0  0  0  0  0  0  0
    4.8761    9.2940   20.8828 C   0  0  0  0  0  0  0  0  0  0  0  0
    4.7607   10.3970   19.8698 C   0  0  0  0  0  0  0  0  0  0  0  0
    6.1385   10.6649   19.3485 C   0  0  0  0  0  0  0  0  0  0  0  0
    6.9668    9.6433   20.0278 C   0  0  0  0  0  0  0  0  0  0  0  0
    8.2398    9.6291   20.1228 O   0  0  0  0  0  0  0  0  0  0  0  0
    4.3578    2.3313   19.0470 C   0  0  0  0  0  0  0  0  0  0  0  0
    5.8296    1.5594   20.9527 C   0  0  0  0  0  0  0  0  0  0  0  0
    4.4610    1.6953   20.3626 C   0  0  0  0  0  0  0  0  0  0  0  0
    3.6436    0.4275   20.5472 C   0  0  0  0  0  0  0  0  0  0  0  0
 69 70  1  0  0  0
 70 71  1  0  0  0
 70 68  1  0  0  0
 68 52  1  0  0  0
 52 48  1  0  0  0
 48 49  1  0  0  0
 49 50  2  0  0  0
 49 46  1  0  0  0
 46 47  1  0  0  0
 46 42  1  0  0  0
 42 43  1  0  0  0
 43 44  2  0  0  0
 43 40  1  0  0  0
 40 41  1  0  0  0
 40  1  1  0  0  0
  1  2  1  0  0  0
  2  3  2  0  0  0
  2  5  1  0  0  0
  5  6  1  0  0  0
  5  7  1  0  0  0
  7  8  1  0  0  0
  8  9  2  0  0  0
  8 11  1  0  0  0
 11 12  1  0  0  0
 11 13  1  0  0  0
 13 14  1  0  0  0
 14 15  2  0  0  0
 14 17  1  0  0  0
 17 18  1  0  0  0
 17 19  1  0  0  0
 19 20  1  0  0  0
 20 21  2  0  0  0
 20 23  1  0  0  0
 23 24  1  0  0  0
 23 25  1  0  0  0
 25 26  1  0  0  0
 26 27  2  0  0  0
 26 29  1  0  0  0
 29 30  1  0  0  0
 29 31  1  0  0  0
 31 32  1  0  0  0
 32 33  2  0  0  0
 32 35  1  0  0  0
 35 36  1  0  0  0
 35 37  1  0  0  0
 37 38  1  0  0  0
 37 39  2  0  0  0
 52 53  1  0  0  0
 53 54  2  0  0  0
 53 55  1  0  0  0
 55 56  1  0  0  0
 56 57  1  0  0  0
 57 58  1  0  0  0
 58 59  1  0  0  0
 59 60  1  0  0  0
 60 61  2  0  0  0
 60 62  1  0  0  0
 62 63  1  0  0  0
 63 64  1  0  0  0
 64 65  1  0  0  0
 65 66  1  0  0  0
 66 67  2  0  0  0
 59 55  1  0  0  0
 66 62  1  0  0  0
 48 51  1  0  0  0
 42 45  1  0  0  0
  1  4  1  0  0  0
  7 10  1  0  0  0
 13 16  1  0  0  0
 19 22  1  0  0  0
 25 28  1  0  0  0
 31 34  1  0  0  0
M  END
> <minimizedAffinity>
-7.31747

> <CNNscore>
0.3103124797

> <CNNaffinity>
6.4498190880

> <CNN_VS>
2.0014593601

> <CNNaffinity_variance>
1.4757146835

$$$$
[H]N(C(=O)[C@@]([H])(N([H])C(=O)[C@@]([H])(N([H])C(=O)[C@@]([H])(N([H])C(=O)[C@@]([H])(C(=O)C([H])([H])[H])C([H])([H])[H])C([H])([H])[H])C([H])([H])[H])C([H])([H])[H])[C@]([H])(C(=O)N([H])[C@]([H])(C(=O)N([H])[C@]([H])(C(=O)N([H])[C@]([H])(C(=O)N([H])[C@]([H])(C(=O)N1C([H])([H])C([H])([H])C([H])([H])[C@@]1([H])C(=O)N1C(=O)C([H])([H])C([H])([H])C1([H])[H])C([H])([H])C([H])(C([H])([H])[H])C([H])([H])[H])C([H])([H])[H])C([H])([H])[H])C([H])([H])[H])C([H])([H])[H]


 71 72  0  0  0  0  0  0  0  0999 V2000
    8.6097   10.7061   20.0932 N   0  0  0  0  0  0  0  0  0  0  0  0
    7.4359   11.4387   20.3025 C   0  0  0  0  0  0  0  0  0  0  0  0
    6.9526   11.4951   21.4782 O   0  0  0  0  0  0  0  0  0  0  0  0
    9.0264   10.6264   19.1607 H   0  0  0  0  0  0  0  0  0  0  0  0
    6.6889   12.1764   19.2667 C   0  0  0  0  0  0  0  0  0  0  0  0
    6.1386   13.4897   19.8949 C   0  0  0  0  0  0  0  0  0  0  0  0
    5.5312   11.4565   18.8398 N   0  0  0  0  0  0  0  0  0  0  0  0
    4.9465   11.5589   17.5548 C   0  0  0  0  0  0  0  0  0  0  0  0
    5.3951   12.3117   16.6741 O   0  0  0  0  0  0  0  0  0  0  0  0
    5.0925   10.8089   19.5307 H   0  0  0  0  0  0  0  0  0  0  0  0
    3.7360   10.7294   17.2527 C   0  0  0  0  0  0  0  0  0  0  0  0
    3.1923   10.2646   18.6118 C   0  0  0  0  0  0  0  0  0  0  0  0
    3.8971    9.6068   16.4347 N   0  0  0  0  0  0  0  0  0  0  0  0
    4.0748    9.4881   15.0503 C   0  0  0  0  0  0  0  0  0  0  0  0
    4.0930   10.4904   14.3136 O   0  0  0  0  0  0  0  0  0  0  0  0
    3.8881    8.6453   16.9672 H   0  0  0  0  0  0  0  0  0  0  0  0
    4.2508    8.1366   14.4781 C   0  0  0  0  0  0  0  0  0  0  0  0
    4.6437    7.1892   15.6548 C   0  0  0  0  0  0  0  0  0  0  0  0
    5.3304    8.0008   13.5546 N   0  0  0  0  0  0  0  0  0  0  0  0
    5.0765    7.9040   12.1418 C   0  0  0  0  0  0  0  0  0  0  0  0
    3.8986    7.9513   11.7485 O   0  0  0  0  0  0  0  0  0  0  0  0
    6.3186    7.9670   13.8480 H   0  0  0  0  0  0  0  0  0  0  0  0
    6.1903    7.7393   11.1583 C   0  0  0  0  0  0  0  0  0  0  0  0
    7.5004    7.9524   11.8563 C   0  0  0  0  0  0  0  0  0  0  0  0
    5.9642    8.7074   10.0846 N   0  0  0  0  0  0  0  0  0  0  0  0
    5.4131    8.2925    8.8685 C   0  0  0  0  0  0  0  0  0  0  0  0
    5.1248    7.0612    8.7129 O   0  0  0  0  0  0  0  0  0  0  0  0
    6.2319    9.6900   10.2759 H   0  0  0  0  0  0  0  0  0  0  0  0
    5.1146    9.1806    7.6980 C   0  0  0  0  0  0  0  0  0  0  0  0
    3.6066    9.0905    7.4855 C   0  0  0  0  0  0  0  0  0  0  0  0
    5.8188    8.7516    6.5355 N   0  0  0  0  0  0  0  0  0  0  0  0
    6.4799    9.6285    5.6563 C   0  0  0  0  0  0  0  0  0  0  0  0
    6.5050   10.8709    5.8089 O   0  0  0  0  0  0  0  0  0  0  0  0
    5.8235    7.7058    6.3543 H   0  0  0  0  0  0  0  0  0  0  0  0
    7.1983    9.0320    4.4711 C   0  0  0  0  0  0  0  0  0  0  0  0
    8.2699    9.9839    3.9747 C   0  0  0  0  0  0  0  0  0  0  0  0
    6.2467    8.7173    3.3978 C   0  0  0  0  0  0  0  0  0  0  0  0
    6.7157    8.7448    1.9725 C   0  0  0  0  0  0  0  0  0  0  0  0
    5.0825    8.4274    3.5737 O   0  0  0  0  0  0  0  0  0  0  0  0
    9.2686   10.0265   21.2337 C   0  0  0  0  0  0  0  0  0  0  0  0
    9.9178   10.9614   22.1794 C   0  0  0  0  0  0  0  0  0  0  0  0
    7.2578    8.4634   21.2307 N   0  0  0  0  0  0  0  0  0  0  0  0
    8.3008    9.1181   21.8785 C   0  0  0  0  0  0  0  0  0  0  0  0
    8.4342    8.9374   23.1417 O   0  0  0  0  0  0  0  0  0  0  0  0
    7.1800    8.5983   20.1853 H   0  0  0  0  0  0  0  0  0  0  0  0
    6.2874    7.6246   21.8357 C   0  0  0  0  0  0  0  0  0  0  0  0
    4.8994    8.2641   21.5541 C   0  0  0  0  0  0  0  0  0  0  0  0
    5.0358    5.6451   20.9312 N   0  0  0  0  0  0  0  0  0  0  0  0
    6.2005    6.2286   21.4495 C   0  0  0  0  0  0  0  0  0  0  0  0
    7.2248    5.4854   21.5793 O   0  0  0  0  0  0  0  0  0  0  0  0
    4.1858    6.2652   20.8128 H   0  0  0  0  0  0  0  0  0  0  0  0
    4.9015    4.2155   20.5262 C   0  0  0  0  0  0  0  0  0  0  0  0
    4.0039    4.2922   19.3182 C   0  0  0  0  0  0  0  0  0  0  0  0
    3.2448    5.3236   19.3557 O   0  0  0  0  0  0  0  0  0  0  0  0
    4.0353    3.3403   18.3067 N   0  0  0  0  0  0  0  0  0  0  0  0
    4.9473    2.1623   18.3704 C   0  0  0  0  0  0  0  0  0  0  0  0
    3.9751    1.0384   18.0035 C   0  0  0  0  0  0  0  0  0  0  0  0
    2.7611    1.7464   17.3611 C   0  0  0  0  0  0  0  0  0  0  0  0
    3.4194    3.0787   17.0424 C   0  0  0  0  0  0  0  0  0  0  0  0
    2.6296    4.0555   16.3759 C   0  0  0  0  0  0  0  0  0  0  0  0
    1.9138    4.8976   16.9413 O   0  0  0  0  0  0  0  0  0  0  0  0
    2.6226    4.1246   14.9419 N   0  0  0  0  0  0  0  0  0  0  0  0
    3.3655    3.2371   14.0654 C   0  0  0  0  0  0  0  0  0  0  0  0
    3.6726    4.0562   12.8444 C   0  0  0  0  0  0  0  0  0  0  0  0
    2.7047    5.1982   12.8226 C   0  0  0  0  0  0  0  0  0  0  0  0
    1.9422    5.0254   14.0796 C   0  0  0  0  0  0  0  0  0  0  0  0
    0.8348    5.5816   14.3861 O   0  0  0  0  0  0  0  0  0  0  0  0
    4.2793    3.5954   21.7171 C   0  0  0  0  0  0  0  0  0  0  0  0
    4.6275    2.1974   23.7951 C   0  0  0  0  0  0  0  0  0  0  0  0
    4.7715    2.3512   22.3134 C   0  0  0  0  0  0  0  0  0  0  0  0
    6.1355    1.8848   21.8324 C   0  0  0  0  0  0  0  0  0  0  0  0
 69 70  1  0  0  0
 70 71  1  0  0  0
 70 68  1  0  0  0
 68 52  1  0  0  0
 52 48  1  0  0  0
 48 49  1  0  0  0
 49 50  2  0  0  0
 49 46  1  0  0  0
 46 47  1  0  0  0
 46 42  1  0  0  0
 42 43  1  0  0  0
 43 44  2  0  0  0
 43 40  1  0  0  0
 40 41  1  0  0  0
 40  1  1  0  0  0
  1  2  1  0  0  0
  2  3  2  0  0  0
  2  5  1  0  0  0
  5  6  1  0  0  0
  5  7  1  0  0  0
  7  8  1  0  0  0
  8  9  2  0  0  0
  8 11  1  0  0  0
 11 12  1  0  0  0
 11 13  1  0  0  0
 13 14  1  0  0  0
 14 15  2  0  0  0
 14 17  1  0  0  0
 17 18  1  0  0  0
 17 19  1  0  0  0
 19 20  1  0  0  0
 20 21  2  0  0  0
 20 23  1  0  0  0
 23 24  1  0  0  0
 23 25  1  0  0  0
 25 26  1  0  0  0
 26 27  2  0  0  0
 26 29  1  0  0  0
 29 30  1  0  0  0
 29 31  1  0  0  0
 31 32  1  0  0  0
 32 33  2  0  0  0
 32 35  1  0  0  0
 35 36  1  0  0  0
 35 37  1  0  0  0
 37 38  1  0  0  0
 37 39  2  0  0  0
 52 53  1  0  0  0
 53 54  2  0  0  0
 53 55  1  0  0  0
 55 56  1  0  0  0
 56 57  1  0  0  0
 57 58  1  0  0  0
 58 59  1  0  0  0
 59 60  1  0  0  0
 60 61  2  0  0  0
 60 62  1  0  0  0
 62 63  1  0  0  0
 63 64  1  0  0  0
 64 65  1  0  0  0
 65 66  1  0  0  0
 66 67  2  0  0  0
 59 55  1  0  0  0
 66 62  1  0  0  0
 48 51  1  0  0  0
 42 45  1  0  0  0
  1  4  1  0  0  0
  7 10  1  0  0  0
 13 16  1  0  0  0
 19 22  1  0  0  0
 25 28  1  0  0  0
 31 34  1  0  0  0
M  END
> <minimizedAffinity>
-9.19600

> <CNNscore>
0.2882833481

> <CNNaffinity>
7.1269674301

> <CNN_VS>
2.0545859337

> <CNNaffinity_variance>
0.3966335654

$$$$
[H]N(C(=O)[C@@]([H])(N([H])C(=O)[C@@]([H])(N([H])C(=O)[C@@]([H])(N([H])C(=O)[C@@]([H])(C(=O)C([H])([H])[H])C([H])([H])[H])C([H])([H])[H])C([H])([H])[H])C([H])([H])[H])[C@]([H])(C(=O)N([H])[C@]([H])(C(=O)N([H])[C@]([H])(C(=O)N([H])[C@]([H])(C(=O)N([H])[C@]([H])(C(=O)N1C([H])([H])C([H])([H])C([H])([H])[C@@]1([H])C(=O)N1C(=O)C([H])([H])C([H])([H])C1([H])[H])C([H])([H])C([H])(C([H])([H])[H])C([H])([H])[H])C([H])([H])[H])C([H])([H])[H])C([H])([H])[H])C([H])([H])[H]


 71 72  0  0  0  0  0  0  0  0999 V2000
    4.0907    3.9367   21.3369 N   0  0  0  0  0  0  0  0  0  0  0  0
    4.1193    2.5456   21.4854 C   0  0  0  0  0  0  0  0  0  0  0  0
    4.2293    2.0583   22.6557 O   0  0  0  0  0  0  0  0  0  0  0  0
    4.0137    4.3702   20.4119 H   0  0  0  0  0  0  0  0  0  0  0  0
    4.0253    1.5637   20.3890 C   0  0  0  0  0  0  0  0  0  0  0  0
    4.9912    0.3831   20.6983 C   0  0  0  0  0  0  0  0  0  0  0  0
    4.4905    2.1089   19.1531 N   0  0  0  0  0  0  0  0  0  0  0  0
    3.8901    1.8764   17.8926 C   0  0  0  0  0  0  0  0  0  0  0  0
    2.8916    1.1505   17.7511 O   0  0  0  0  0  0  0  0  0  0  0  0
    5.3330    2.7236   19.1918 H   0  0  0  0  0  0  0  0  0  0  0  0
    4.4898    2.5287   16.6846 C   0  0  0  0  0  0  0  0  0  0  0  0
    5.4507    3.6020   17.2171 C   0  0  0  0  0  0  0  0  0  0  0  0
    3.6242    3.1287   15.7648 N   0  0  0  0  0  0  0  0  0  0  0  0
    2.6028    4.0723   15.9343 C   0  0  0  0  0  0  0  0  0  0  0  0
    2.3139    4.5154   17.0603 O   0  0  0  0  0  0  0  0  0  0  0  0
    3.7694    2.8112   14.7226 H   0  0  0  0  0  0  0  0  0  0  0  0
    1.8747    4.5421   14.7367 C   0  0  0  0  0  0  0  0  0  0  0  0
    2.1992    3.5425   13.5827 C   0  0  0  0  0  0  0  0  0  0  0  0
    2.2955    5.8055   14.2233 N   0  0  0  0  0  0  0  0  0  0  0  0
    1.3282    6.8114   13.8731 C   0  0  0  0  0  0  0  0  0  0  0  0
    0.1234    6.5555   14.0379 O   0  0  0  0  0  0  0  0  0  0  0  0
    3.2871    6.0517   14.0829 H   0  0  0  0  0  0  0  0  0  0  0  0
    1.7452    8.1334   13.3132 C   0  0  0  0  0  0  0  0  0  0  0  0
    1.5262    8.1319   11.8296 C   0  0  0  0  0  0  0  0  0  0  0  0
    3.1503    8.3296   13.6714 N   0  0  0  0  0  0  0  0  0  0  0  0
    3.5201    9.3802   14.5165 C   0  0  0  0  0  0  0  0  0  0  0  0
    2.6158   10.1632   14.9553 O   0  0  0  0  0  0  0  0  0  0  0  0
    3.8336    7.6621   13.2699 H   0  0  0  0  0  0  0  0  0  0  0  0
    4.9157    9.6813   14.9744 C   0  0  0  0  0  0  0  0  0  0  0  0
    5.8344    8.9027   14.0378 C   0  0  0  0  0  0  0  0  0  0  0  0
    5.1098    9.2790   16.3279 N   0  0  0  0  0  0  0  0  0  0  0  0
    4.8676    7.9748   16.7962 C   0  0  0  0  0  0  0  0  0  0  0  0
    4.4507    7.0456   16.0680 O   0  0  0  0  0  0  0  0  0  0  0  0
    5.4568   10.0314   16.9912 H   0  0  0  0  0  0  0  0  0  0  0  0
    5.1307    7.6873   18.2538 C   0  0  0  0  0  0  0  0  0  0  0  0
    3.9268    7.0091   18.8796 C   0  0  0  0  0  0  0  0  0  0  0  0
    5.4592    8.9258   18.9713 C   0  0  0  0  0  0  0  0  0  0  0  0
    4.4736    9.4852   19.9550 C   0  0  0  0  0  0  0  0  0  0  0  0
    6.4900    9.5490   18.8317 O   0  0  0  0  0  0  0  0  0  0  0  0
    4.1757    4.8083   22.5327 C   0  0  0  0  0  0  0  0  0  0  0  0
    3.7215    4.1464   23.7758 C   0  0  0  0  0  0  0  0  0  0  0  0
    5.8489    6.6891   22.9192 N   0  0  0  0  0  0  0  0  0  0  0  0
    5.5393    5.3641   22.6286 C   0  0  0  0  0  0  0  0  0  0  0  0
    6.5085    4.5524   22.4098 O   0  0  0  0  0  0  0  0  0  0  0  0
    5.0409    7.3380   23.1272 H   0  0  0  0  0  0  0  0  0  0  0  0
    7.1473    7.2572   22.9699 C   0  0  0  0  0  0  0  0  0  0  0  0
    7.6167    7.4424   21.5001 C   0  0  0  0  0  0  0  0  0  0  0  0
    7.7785    9.6870   22.9892 N   0  0  0  0  0  0  0  0  0  0  0  0
    7.3535    8.5240   23.6468 C   0  0  0  0  0  0  0  0  0  0  0  0
    7.1392    8.5993   24.8985 O   0  0  0  0  0  0  0  0  0  0  0  0
    7.9471    9.6282   21.9455 H   0  0  0  0  0  0  0  0  0  0  0  0
    8.0070   11.0071   23.6458 C   0  0  0  0  0  0  0  0  0  0  0  0
    7.4473   11.9820   22.6423 C   0  0  0  0  0  0  0  0  0  0  0  0
    7.0993   11.3980   21.5564 O   0  0  0  0  0  0  0  0  0  0  0  0
    7.3343   13.3409   22.9087 N   0  0  0  0  0  0  0  0  0  0  0  0
    7.7891   13.9236   24.2037 C   0  0  0  0  0  0  0  0  0  0  0  0
    8.5903   15.1269   23.7004 C   0  0  0  0  0  0  0  0  0  0  0  0
    8.1392   15.3305   22.2366 C   0  0  0  0  0  0  0  0  0  0  0  0
    6.8466   14.5325   22.2857 C   0  0  0  0  0  0  0  0  0  0  0  0
    6.0577   14.4924   21.1032 C   0  0  0  0  0  0  0  0  0  0  0  0
    6.3734   13.9026   20.0575 O   0  0  0  0  0  0  0  0  0  0  0  0
    4.7885   15.1620   21.0573 N   0  0  0  0  0  0  0  0  0  0  0  0
    4.2157   15.9292   22.1487 C   0  0  0  0  0  0  0  0  0  0  0  0
    2.7285   15.7954   21.9858 C   0  0  0  0  0  0  0  0  0  0  0  0
    2.4735   15.3891   20.5675 C   0  0  0  0  0  0  0  0  0  0  0  0
    3.8341   15.2275   20.0071 C   0  0  0  0  0  0  0  0  0  0  0  0
    4.1499   15.1539   18.7725 O   0  0  0  0  0  0  0  0  0  0  0  0
    9.4791   11.0498   23.7907 C   0  0  0  0  0  0  0  0  0  0  0  0
   11.2935   10.1401   25.2988 C   0  0  0  0  0  0  0  0  0  0  0  0
   10.1485   11.0817   25.0933 C   0  0  0  0  0  0  0  0  0  0  0  0
    9.2312   11.1200   26.3044 C   0  0  0  0  0  0  0  0  0  0  0  0
 69 70  1  0  0  0
 70 71  1  0  0  0
 70 68  1  0  0  0
 68 52  1  0  0  0
 52 48  1  0  0  0
 48 49  1  0  0  0
 49 50  2  0  0  0
 49 46  1  0  0  0
 46 47  1  0  0  0
 46 42  1  0  0  0
 42 43  1  0  0  0
 43 44  2  0  0  0
 43 40  1  0  0  0
 40 41  1  0  0  0
 40  1  1  0  0  0
  1  2  1  0  0  0
  2  3  2  0  0  0
  2  5  1  0  0  0
  5  6  1  0  0  0
  5  7  1  0  0  0
  7  8  1  0  0  0
  8  9  2  0  0  0
  8 11  1  0  0  0
 11 12  1  0  0  0
 11 13  1  0  0  0
 13 14  1  0  0  0
 14 15  2  0  0  0
 14 17  1  0  0  0
 17 18  1  0  0  0
 17 19  1  0  0  0
 19 20  1  0  0  0
 20 21  2  0  0  0
 20 23  1  0  0  0
 23 24  1  0  0  0
 23 25  1  0  0  0
 25 26  1  0  0  0
 26 27  2  0  0  0
 26 29  1  0  0  0
 29 30  1  0  0  0
 29 31  1  0  0  0
 31 32  1  0  0  0
 32 33  2  0  0  0
 32 35  1  0  0  0
 35 36  1  0  0  0
 35 37  1  0  0  0
 37 38  1  0  0  0
 37 39  2  0  0  0
 52 53  1  0  0  0
 53 54  2  0  0  0
 53 55  1  0  0  0
 55 56  1  0  0  0
 56 57  1  0  0  0
 57 58  1  0  0  0
 58 59  1  0  0  0
 59 60  1  0  0  0
 60 61  2  0  0  0
 60 62  1  0  0  0
 62 63  1  0  0  0
 63 64  1  0  0  0
 64 65  1  0  0  0
 65 66  1  0  0  0
 66 67  2  0  0  0
 59 55  1  0  0  0
 66 62  1  0  0  0
 48 51  1  0  0  0
 42 45  1  0  0  0
  1  4  1  0  0  0
  7 10  1  0  0  0
 13 16  1  0  0  0
 19 22  1  0  0  0
 25 28  1  0  0  0
 31 34  1  0  0  0
M  END
> <minimizedAffinity>
-8.77099

> <CNNscore>
0.2607169747

> <CNNaffinity>
7.1794686317

> <CNN_VS>
1.8718093634

> <CNNaffinity_variance>
0.2438978404

$$$$
[H]N(C(=O)[C@@]([H])(N([H])C(=O)[C@@]([H])(N([H])C(=O)[C@@]([H])(N([H])C(=O)[C@@]([H])(C(=O)C([H])([H])[H])C([H])([H])[H])C([H])([H])[H])C([H])([H])[H])C([H])([H])[H])[C@]([H])(C(=O)N([H])[C@]([H])(C(=O)N([H])[C@]([H])(C(=O)N([H])[C@]([H])(C(=O)N([H])[C@]([H])(C(=O)N1C([H])([H])C([H])([H])C([H])([H])[C@@]1([H])C(=O)N1C(=O)C([H])([H])C([H])([H])C1([H])[H])C([H])([H])C([H])(C([H])([H])[H])C([H])([H])[H])C([H])([H])[H])C([H])([H])[H])C([H])([H])[H])C([H])([H])[H]


 71 72  0  0  0  0  0  0  0  0999 V2000
    5.0361    9.2591   13.0547 N   0  0  0  0  0  0  0  0  0  0  0  0
    6.3854    8.9389   12.8673 C   0  0  0  0  0  0  0  0  0  0  0  0
    7.1544    8.9164   13.8809 O   0  0  0  0  0  0  0  0  0  0  0  0
    4.3854    9.2986   12.2646 H   0  0  0  0  0  0  0  0  0  0  0  0
    7.0177    8.6100   11.5761 C   0  0  0  0  0  0  0  0  0  0  0  0
    5.9864    7.8377   10.7031 C   0  0  0  0  0  0  0  0  0  0  0  0
    8.1127    7.7075   11.7413 N   0  0  0  0  0  0  0  0  0  0  0  0
    9.4667    8.0984   11.8736 C   0  0  0  0  0  0  0  0  0  0  0  0
    9.8255    9.2875   11.8432 O   0  0  0  0  0  0  0  0  0  0  0  0
    7.8892    6.6884   11.7676 H   0  0  0  0  0  0  0  0  0  0  0  0
   10.5039    7.0319   12.0506 C   0  0  0  0  0  0  0  0  0  0  0  0
   11.7088    7.7195   12.7097 C   0  0  0  0  0  0  0  0  0  0  0  0
   10.9509    6.3554   10.9114 N   0  0  0  0  0  0  0  0  0  0  0  0
   11.5171    6.8242    9.7190 C   0  0  0  0  0  0  0  0  0  0  0  0
   11.6859    8.0405    9.5191 O   0  0  0  0  0  0  0  0  0  0  0  0
   10.8462    5.2621   10.9556 H   0  0  0  0  0  0  0  0  0  0  0  0
   11.9221    5.8356    8.6974 C   0  0  0  0  0  0  0  0  0  0  0  0
   13.4551    5.5992    8.8719 C   0  0  0  0  0  0  0  0  0  0  0  0
   11.7948    6.2696    7.3439 N   0  0  0  0  0  0  0  0  0  0  0  0
   10.5413    6.1413    6.6495 C   0  0  0  0  0  0  0  0  0  0  0  0
    9.5748    5.6537    7.2599 O   0  0  0  0  0  0  0  0  0  0  0  0
   12.5747    6.6857    6.8126 H   0  0  0  0  0  0  0  0  0  0  0  0
   10.3910    6.5690    5.2249 C   0  0  0  0  0  0  0  0  0  0  0  0
   11.7337    6.9590    4.6826 C   0  0  0  0  0  0  0  0  0  0  0  0
    9.4362    7.6777    5.2060 N   0  0  0  0  0  0  0  0  0  0  0  0
    8.3976    7.6951    4.2702 C   0  0  0  0  0  0  0  0  0  0  0  0
    8.3081    6.7379    3.4339 O   0  0  0  0  0  0  0  0  0  0  0  0
    9.5752    8.4275    5.9075 H   0  0  0  0  0  0  0  0  0  0  0  0
    7.3457    8.7572    4.1542 C   0  0  0  0  0  0  0  0  0  0  0  0
    8.0997   10.0586    3.8990 C   0  0  0  0  0  0  0  0  0  0  0  0
    6.5702    8.8438    5.3468 N   0  0  0  0  0  0  0  0  0  0  0  0
    5.1672    8.7437    5.3737 C   0  0  0  0  0  0  0  0  0  0  0  0
    4.4668    8.5767    4.3495 O   0  0  0  0  0  0  0  0  0  0  0  0
    7.1147    8.9924    6.2457 H   0  0  0  0  0  0  0  0  0  0  0  0
    4.4776    8.8394    6.7123 C   0  0  0  0  0  0  0  0  0  0  0  0
    5.2315    9.7896    7.6231 C   0  0  0  0  0  0  0  0  0  0  0  0
    4.3638    7.5113    7.3285 C   0  0  0  0  0  0  0  0  0  0  0  0
    3.1130    7.1569    8.0780 C   0  0  0  0  0  0  0  0  0  0  0  0
    5.2200    6.6540    7.2784 O   0  0  0  0  0  0  0  0  0  0  0  0
    4.5295    9.5512   14.4167 C   0  0  0  0  0  0  0  0  0  0  0  0
    4.0303   10.9354   14.5737 C   0  0  0  0  0  0  0  0  0  0  0  0
    3.7787    7.1543   14.8381 N   0  0  0  0  0  0  0  0  0  0  0  0
    3.5392    8.5243   14.7936 C   0  0  0  0  0  0  0  0  0  0  0  0
    2.3617    8.9404   15.0876 O   0  0  0  0  0  0  0  0  0  0  0  0
    4.7614    6.8300   14.6231 H   0  0  0  0  0  0  0  0  0  0  0  0
    2.8322    6.1454   15.1502 C   0  0  0  0  0  0  0  0  0  0  0  0
    2.8528    5.1281   13.9757 C   0  0  0  0  0  0  0  0  0  0  0  0
    4.2007    5.1604   17.0103 N   0  0  0  0  0  0  0  0  0  0  0  0
    2.9697    5.3834   16.3774 C   0  0  0  0  0  0  0  0  0  0  0  0
    1.9301    4.8894   16.9193 O   0  0  0  0  0  0  0  0  0  0  0  0
    5.0654    5.5799   16.5659 H   0  0  0  0  0  0  0  0  0  0  0  0
    4.3880    4.3805   18.2684 C   0  0  0  0  0  0  0  0  0  0  0  0
    5.2943    5.2684   19.0813 C   0  0  0  0  0  0  0  0  0  0  0  0
    6.2755    5.7094   18.3854 O   0  0  0  0  0  0  0  0  0  0  0  0
    5.0520    5.5528   20.4195 N   0  0  0  0  0  0  0  0  0  0  0  0
    3.8862    4.9695   21.1435 C   0  0  0  0  0  0  0  0  0  0  0  0
    4.5694    4.4842   22.4244 C   0  0  0  0  0  0  0  0  0  0  0  0
    5.9251    5.2246   22.4660 C   0  0  0  0  0  0  0  0  0  0  0  0
    5.6054    6.3365   21.4805 C   0  0  0  0  0  0  0  0  0  0  0  0
    6.6130    7.3122   21.2461 C   0  0  0  0  0  0  0  0  0  0  0  0
    7.8323    7.0812   21.2123 O   0  0  0  0  0  0  0  0  0  0  0  0
    6.2534    8.6837   21.0201 N   0  0  0  0  0  0  0  0  0  0  0  0
    4.8954    9.1970   21.0281 C   0  0  0  0  0  0  0  0  0  0  0  0
    4.9087   10.3604   20.0782 C   0  0  0  0  0  0  0  0  0  0  0  0
    6.3339   10.7949   19.9307 C   0  0  0  0  0  0  0  0  0  0  0  0
    7.0798    9.8045   20.7395 C   0  0  0  0  0  0  0  0  0  0  0  0
    8.2857    9.9010   21.1470 O   0  0  0  0  0  0  0  0  0  0  0  0
    5.0191    3.1313   17.7879 C   0  0  0  0  0  0  0  0  0  0  0  0
    3.3653    1.3412   17.1139 C   0  0  0  0  0  0  0  0  0  0  0  0
    4.4476    1.8057   18.0373 C   0  0  0  0  0  0  0  0  0  0  0  0
    4.1186    1.4926   19.4875 C   0  0  0  0  0  0  0  0  0  0  0  0
 69 70  1  0  0  0
 70 71  1  0  0  0
 70 68  1  0  0  0
 68 52  1  0  0  0
 52 48  1  0  0  0
 48 49  1  0  0  0
 49 50  2  0  0  0
 49 46  1  0  0  0
 46 47  1  0  0  0
 46 42  1  0  0  0
 42 43  1  0  0  0
 43 44  2  0  0  0
 43 40  1  0  0  0
 40 41  1  0  0  0
 40  1  1  0  0  0
  1  2  1  0  0  0
  2  3  2  0  0  0
  2  5  1  0  0  0
  5  6  1  0  0  0
  5  7  1  0  0  0
  7  8  1  0  0  0
  8  9  2  0  0  0
  8 11  1  0  0  0
 11 12  1  0  0  0
 11 13  1  0  0  0
 13 14  1  0  0  0
 14 15  2  0  0  0
 14 17  1  0  0  0
 17 18  1  0  0  0
 17 19  1  0  0  0
 19 20  1  0  0  0
 20 21  2  0  0  0
 20 23  1  0  0  0
 23 24  1  0  0  0
 23 25  1  0  0  0
 25 26  1  0  0  0
 26 27  2  0  0  0
 26 29  1  0  0  0
 29 30  1  0  0  0
 29 31  1  0  0  0
 31 32  1  0  0  0
 32 33  2  0  0  0
 32 35  1  0  0  0
 35 36  1  0  0  0
 35 37  1  0  0  0
 37 38  1  0  0  0
 37 39  2  0  0  0
 52 53  1  0  0  0
 53 54  2  0  0  0
 53 55  1  0  0  0
 55 56  1  0  0  0
 56 57  1  0  0  0
 57 58  1  0  0  0
 58 59  1  0  0  0
 59 60  1  0  0  0
 60 61  2  0  0  0
 60 62  1  0  0  0
 62 63  1  0  0  0
 63 64  1  0  0  0
 64 65  1  0  0  0
 65 66  1  0  0  0
 66 67  2  0  0  0
 59 55  1  0  0  0
 66 62  1  0  0  0
 48 51  1  0  0  0
 42 45  1  0  0  0
  1  4  1  0  0  0
  7 10  1  0  0  0
 13 16  1  0  0  0
 19 22  1  0  0  0
 25 28  1  0  0  0
 31 34  1  0  0  0
M  END
> <minimizedAffinity>
-8.90980

> <CNNscore>
0.2019502819

> <CNNaffinity>
6.7852201462

> <CNN_VS>
1.3702771664

> <CNNaffinity_variance>
0.3584155440

$$$$
[H]N(C(=O)[C@@]([H])(N([H])C(=O)[C@@]([H])(N([H])C(=O)[C@@]([H])(N([H])C(=O)[C@@]([H])(C(=O)C([H])([H])[H])C([H])([H])[H])C([H])([H])[H])C([H])([H])[H])C([H])([H])[H])[C@]([H])(C(=O)N([H])[C@]([H])(C(=O)N([H])[C@]([H])(C(=O)N([H])[C@]([H])(C(=O)N([H])[C@]([H])(C(=O)N1C([H])([H])C([H])([H])C([H])([H])[C@@]1([H])C(=O)N1C(=O)C([H])([H])C([H])([H])C1([H])[H])C([H])([H])C([H])(C([H])([H])[H])C([H])([H])[H])C([H])([H])[H])C([H])([H])[H])C([H])([H])[H])C([H])([H])[H]


 71 72  0  0  0  0  0  0  0  0999 V2000
    3.9231    7.7340   11.7664 N   0  0  0  0  0  0  0  0  0  0  0  0
    4.7860    7.1710   10.8194 C   0  0  0  0  0  0  0  0  0  0  0  0
    5.8471    6.5974   11.2247 O   0  0  0  0  0  0  0  0  0  0  0  0
    3.0638    8.2139   11.4823 H   0  0  0  0  0  0  0  0  0  0  0  0
    4.5760    7.1722    9.3597 C   0  0  0  0  0  0  0  0  0  0  0  0
    3.2674    6.3896    9.0477 C   0  0  0  0  0  0  0  0  0  0  0  0
    5.6075    6.4554    8.6792 N   0  0  0  0  0  0  0  0  0  0  0  0
    5.9701    6.6553    7.3256 C   0  0  0  0  0  0  0  0  0  0  0  0
    5.3986    7.4822    6.5954 O   0  0  0  0  0  0  0  0  0  0  0  0
    6.1277    5.7358    9.2276 H   0  0  0  0  0  0  0  0  0  0  0  0
    7.0830    5.8305    6.7551 C   0  0  0  0  0  0  0  0  0  0  0  0
    8.1958    5.8321    7.8136 C   0  0  0  0  0  0  0  0  0  0  0  0
    7.6355    6.2287    5.5337 N   0  0  0  0  0  0  0  0  0  0  0  0
    8.2225    5.4897    4.4985 C   0  0  0  0  0  0  0  0  0  0  0  0
    8.3429    4.2538    4.5757 O   0  0  0  0  0  0  0  0  0  0  0  0
    7.6017    7.3110    5.3453 H   0  0  0  0  0  0  0  0  0  0  0  0
    8.6920    6.2129    3.2980 C   0  0  0  0  0  0  0  0  0  0  0  0
    9.9415    7.0454    3.7249 C   0  0  0  0  0  0  0  0  0  0  0  0
    7.7893    7.1908    2.7827 N   0  0  0  0  0  0  0  0  0  0  0  0
    6.6255    6.7910    2.0373 C   0  0  0  0  0  0  0  0  0  0  0  0
    6.4233    5.5772    1.8634 O   0  0  0  0  0  0  0  0  0  0  0  0
    7.9241    8.2045    2.9168 H   0  0  0  0  0  0  0  0  0  0  0  0
    5.6782    7.7987    1.4696 C   0  0  0  0  0  0  0  0  0  0  0  0
    6.3774    9.1200    1.3493 C   0  0  0  0  0  0  0  0  0  0  0  0
    4.5225    7.8565    2.3652 N   0  0  0  0  0  0  0  0  0  0  0  0
    3.3515    7.1619    2.0473 C   0  0  0  0  0  0  0  0  0  0  0  0
    3.3092    6.4921    0.9643 O   0  0  0  0  0  0  0  0  0  0  0  0
    4.6229    8.4290    3.2230 H   0  0  0  0  0  0  0  0  0  0  0  0
    2.1068    7.1225    2.8824 C   0  0  0  0  0  0  0  0  0  0  0  0
    0.9511    6.9955    1.8948 C   0  0  0  0  0  0  0  0  0  0  0  0
    1.9778    8.3051    3.6674 N   0  0  0  0  0  0  0  0  0  0  0  0
    2.0838    8.3254    5.0700 C   0  0  0  0  0  0  0  0  0  0  0  0
    2.2941    7.3034    5.7618 O   0  0  0  0  0  0  0  0  0  0  0  0
    1.7916    9.2015    3.1304 H   0  0  0  0  0  0  0  0  0  0  0  0
    1.9395    9.6541    5.7702 C   0  0  0  0  0  0  0  0  0  0  0  0
    2.2625    9.5068    7.2450 C   0  0  0  0  0  0  0  0  0  0  0  0
    0.5835   10.1875    5.5872 C   0  0  0  0  0  0  0  0  0  0  0  0
   -0.1884   10.6521    6.7873 C   0  0  0  0  0  0  0  0  0  0  0  0
    0.0223   10.2877    4.5169 O   0  0  0  0  0  0  0  0  0  0  0  0
    4.2503    7.6429   13.2091 C   0  0  0  0  0  0  0  0  0  0  0  0
    4.1587    8.9398   13.9156 C   0  0  0  0  0  0  0  0  0  0  0  0
    3.8895    5.6391   14.7392 N   0  0  0  0  0  0  0  0  0  0  0  0
    3.4305    6.5810   13.8236 C   0  0  0  0  0  0  0  0  0  0  0  0
    2.2000    6.5235   13.4650 O   0  0  0  0  0  0  0  0  0  0  0  0
    4.8973    5.7187   15.0477 H   0  0  0  0  0  0  0  0  0  0  0  0
    3.1345    4.5812   15.3067 C   0  0  0  0  0  0  0  0  0  0  0  0
    3.7493    3.2548   14.7800 C   0  0  0  0  0  0  0  0  0  0  0  0
    4.0216    3.8625   17.5426 N   0  0  0  0  0  0  0  0  0  0  0  0
    3.0331    4.4616   16.7492 C   0  0  0  0  0  0  0  0  0  0  0  0
    2.0031    4.9212   17.3377 O   0  0  0  0  0  0  0  0  0  0  0  0
    4.8841    3.4890   17.0550 H   0  0  0  0  0  0  0  0  0  0  0  0
    3.9561    3.7146   19.0257 C   0  0  0  0  0  0  0  0  0  0  0  0
    4.9469    4.7419   19.5091 C   0  0  0  0  0  0  0  0  0  0  0  0
    5.8713    4.9520   18.6472 O   0  0  0  0  0  0  0  0  0  0  0  0
    4.8285    5.3656   20.7449 N   0  0  0  0  0  0  0  0  0  0  0  0
    3.7200    5.0327   21.6850 C   0  0  0  0  0  0  0  0  0  0  0  0
    4.5039    4.8604   22.9884 C   0  0  0  0  0  0  0  0  0  0  0  0
    5.8717    5.5315   22.7305 C   0  0  0  0  0  0  0  0  0  0  0  0
    5.4876    6.3694   21.5221 C   0  0  0  0  0  0  0  0  0  0  0  0
    6.4889    7.2122   20.9658 C   0  0  0  0  0  0  0  0  0  0  0  0
    7.6281    6.8427   20.6390 O   0  0  0  0  0  0  0  0  0  0  0  0
    6.2184    8.6036   20.7375 N   0  0  0  0  0  0  0  0  0  0  0  0
    4.9669    9.2679   21.0539 C   0  0  0  0  0  0  0  0  0  0  0  0
    4.8444   10.3766   20.0480 C   0  0  0  0  0  0  0  0  0  0  0  0
    6.2165   10.6388   19.5093 C   0  0  0  0  0  0  0  0  0  0  0  0
    7.0478    9.6088   20.1722 C   0  0  0  0  0  0  0  0  0  0  0  0
    8.3218    9.5865   20.2497 O   0  0  0  0  0  0  0  0  0  0  0  0
    4.3745    2.3104   19.2332 C   0  0  0  0  0  0  0  0  0  0  0  0
    5.8711    1.5531   21.1254 C   0  0  0  0  0  0  0  0  0  0  0  0
    4.4930    1.7049   20.5618 C   0  0  0  0  0  0  0  0  0  0  0  0
    3.6526    0.4605   20.7957 C   0  0  0  0  0  0  0  0  0  0  0  0
 69 70  1  0  0  0
 70 71  1  0  0  0
 70 68  1  0  0  0
 68 52  1  0  0  0
 52 48  1  0  0  0
 48 49  1  0  0  0
 49 50  2  0  0  0
 49 46  1  0  0  0
 46 47  1  0  0  0
 46 42  1  0  0  0
 42 43  1  0  0  0
 43 44  2  0  0  0
 43 40  1  0  0  0
 40 41  1  0  0  0
 40  1  1  0  0  0
  1  2  1  0  0  0
  2  3  2  0  0  0
  2  5  1  0  0  0
  5  6  1  0  0  0
  5  7  1  0  0  0
  7  8  1  0  0  0
  8  9  2  0  0  0
  8 11  1  0  0  0
 11 12  1  0  0  0
 11 13  1  0  0  0
 13 14  1  0  0  0
 14 15  2  0  0  0
 14 17  1  0  0  0
 17 18  1  0  0  0
 17 19  1  0  0  0
 19 20  1  0  0  0
 20 21  2  0  0  0
 20 23  1  0  0  0
 23 24  1  0  0  0
 23 25  1  0  0  0
 25 26  1  0  0  0
 26 27  2  0  0  0
 26 29  1  0  0  0
 29 30  1  0  0  0
 29 31  1  0  0  0
 31 32  1  0  0  0
 32 33  2  0  0  0
 32 35  1  0  0  0
 35 36  1  0  0  0
 35 37  1  0  0  0
 37 38  1  0  0  0
 37 39  2  0  0  0
 52 53  1  0  0  0
 53 54  2  0  0  0
 53 55  1  0  0  0
 55 56  1  0  0  0
 56 57  1  0  0  0
 57 58  1  0  0  0
 58 59  1  0  0  0
 59 60  1  0  0  0
 60 61  2  0  0  0
 60 62  1  0  0  0
 62 63  1  0  0  0
 63 64  1  0  0  0
 64 65  1  0  0  0
 65 66  1  0  0  0
 66 67  2  0  0  0
 59 55  1  0  0  0
 66 62  1  0  0  0
 48 51  1  0  0  0
 42 45  1  0  0  0
  1  4  1  0  0  0
  7 10  1  0  0  0
 13 16  1  0  0  0
 19 22  1  0  0  0
 25 28  1  0  0  0
 31 34  1  0  0  0
M  END
> <minimizedAffinity>
-7.90944

> <CNNscore>
0.1858822405

> <CNNaffinity>
6.3943834305

> <CNN_VS>
1.1886023283

> <CNNaffinity_variance>
0.8445491791

$$$$
[H]N(C(=O)[C@@]([H])(N([H])C(=O)[C@@]([H])(N([H])C(=O)[C@@]([H])(N([H])C(=O)[C@@]([H])(C(=O)C([H])([H])[H])C([H])([H])[H])C([H])([H])[H])C([H])([H])[H])C([H])([H])[H])[C@]([H])(C(=O)N([H])[C@]([H])(C(=O)N([H])[C@]([H])(C(=O)N([H])[C@]([H])(C(=O)N([H])[C@]([H])(C(=O)N1C([H])([H])C([H])([H])C([H])([H])[C@@]1([H])C(=O)N1C(=O)C([H])([H])C([H])([H])C1([H])[H])C([H])([H])C([H])(C([H])([H])[H])C([H])([H])[H])C([H])([H])[H])C([H])([H])[H])C([H])([H])[H])C([H])([H])[H]


 71 72  0  0  0  0  0  0  0  0999 V2000
    3.3985    6.5185   14.1421 N   0  0  0  0  0  0  0  0  0  0  0  0
    2.8546    7.7159   13.6640 C   0  0  0  0  0  0  0  0  0  0  0  0
    1.9807    8.3144   14.3693 O   0  0  0  0  0  0  0  0  0  0  0  0
    4.0967    5.9995   13.6012 H   0  0  0  0  0  0  0  0  0  0  0  0
    3.2099    8.3720   12.3919 C   0  0  0  0  0  0  0  0  0  0  0  0
    2.0713    8.1075   11.3642 C   0  0  0  0  0  0  0  0  0  0  0  0
    4.3776    7.7913   11.8086 N   0  0  0  0  0  0  0  0  0  0  0  0
    5.7068    8.1335   12.1544 C   0  0  0  0  0  0  0  0  0  0  0  0
    5.9749    8.9979   13.0057 O   0  0  0  0  0  0  0  0  0  0  0  0
    4.2310    7.0613   11.0773 H   0  0  0  0  0  0  0  0  0  0  0  0
    6.8302    7.4269   11.4592 C   0  0  0  0  0  0  0  0  0  0  0  0
    8.0883    8.2655   11.7290 C   0  0  0  0  0  0  0  0  0  0  0  0
    6.7235    7.2228   10.0800 N   0  0  0  0  0  0  0  0  0  0  0  0
    6.4257    6.0748    9.3344 C   0  0  0  0  0  0  0  0  0  0  0  0
    6.2164    4.9812    9.8893 O   0  0  0  0  0  0  0  0  0  0  0  0
    6.8987    8.1188    9.4680 H   0  0  0  0  0  0  0  0  0  0  0  0
    6.3555    6.1918    7.8626 C   0  0  0  0  0  0  0  0  0  0  0  0
    7.7811    5.8772    7.3102 C   0  0  0  0  0  0  0  0  0  0  0  0
    6.0778    7.5010    7.3670 N   0  0  0  0  0  0  0  0  0  0  0  0
    5.0215    7.7132    6.4136 C   0  0  0  0  0  0  0  0  0  0  0  0
    4.3545    6.7325    6.0424 O   0  0  0  0  0  0  0  0  0  0  0  0
    6.6069    8.3359    7.6613 H   0  0  0  0  0  0  0  0  0  0  0  0
    4.7273    9.0723    5.8645 C   0  0  0  0  0  0  0  0  0  0  0  0
    5.9033    9.9695    6.1120 C   0  0  0  0  0  0  0  0  0  0  0  0
    3.5109    9.5495    6.5231 N   0  0  0  0  0  0  0  0  0  0  0  0
    2.2761    9.4523    5.8747 C   0  0  0  0  0  0  0  0  0  0  0  0
    2.2351    8.9534    4.7029 O   0  0  0  0  0  0  0  0  0  0  0  0
    3.6193    9.9535    7.4711 H   0  0  0  0  0  0  0  0  0  0  0  0
    0.9570    9.8849    6.4411 C   0  0  0  0  0  0  0  0  0  0  0  0
    1.2882   10.9077    7.5235 C   0  0  0  0  0  0  0  0  0  0  0  0
    0.2454    8.7777    6.9879 N   0  0  0  0  0  0  0  0  0  0  0  0
   -0.9676    8.2948    6.4640 C   0  0  0  0  0  0  0  0  0  0  0  0
   -1.5406    8.7984    5.4713 O   0  0  0  0  0  0  0  0  0  0  0  0
    0.6843    8.3165    7.8371 H   0  0  0  0  0  0  0  0  0  0  0  0
   -1.6036    7.1037    7.1373 C   0  0  0  0  0  0  0  0  0  0  0  0
   -2.8893    7.5170    7.8281 C   0  0  0  0  0  0  0  0  0  0  0  0
   -0.6718    6.4966    8.0965 C   0  0  0  0  0  0  0  0  0  0  0  0
    0.1417    5.3082    7.6747 C   0  0  0  0  0  0  0  0  0  0  0  0
   -0.5000    6.8887    9.2310 O   0  0  0  0  0  0  0  0  0  0  0  0
    2.9614    5.9808   15.4523 C   0  0  0  0  0  0  0  0  0  0  0  0
    2.8313    4.5068   15.4687 C   0  0  0  0  0  0  0  0  0  0  0  0
    3.6153    7.6495   17.2617 N   0  0  0  0  0  0  0  0  0  0  0  0
    3.8494    6.5031   16.5087 C   0  0  0  0  0  0  0  0  0  0  0  0
    4.9284    5.8455   16.7310 O   0  0  0  0  0  0  0  0  0  0  0  0
    2.7078    8.1628   17.0881 H   0  0  0  0  0  0  0  0  0  0  0  0
    4.4749    8.1975   18.2476 C   0  0  0  0  0  0  0  0  0  0  0  0
    3.5883    9.0534   19.1943 C   0  0  0  0  0  0  0  0  0  0  0  0
    4.7086    6.2894   19.8624 N   0  0  0  0  0  0  0  0  0  0  0  0
    5.2654    7.3149   19.0852 C   0  0  0  0  0  0  0  0  0  0  0  0
    6.5281    7.4649   19.1242 O   0  0  0  0  0  0  0  0  0  0  0  0
    3.6589    6.1568   19.8226 H   0  0  0  0  0  0  0  0  0  0  0  0
    5.4824    5.3634   20.7397 C   0  0  0  0  0  0  0  0  0  0  0  0
    4.6660    4.0976   20.6936 C   0  0  0  0  0  0  0  0  0  0  0  0
    3.6205    4.2335   19.9658 O   0  0  0  0  0  0  0  0  0  0  0  0
    5.0440    2.9439   21.3691 N   0  0  0  0  0  0  0  0  0  0  0  0
    6.2757    2.8979   22.2083 C   0  0  0  0  0  0  0  0  0  0  0  0
    5.7249    2.2357   23.4736 C   0  0  0  0  0  0  0  0  0  0  0  0
    4.3826    1.6000   23.0469 C   0  0  0  0  0  0  0  0  0  0  0  0
    4.6037    1.5941   21.5432 C   0  0  0  0  0  0  0  0  0  0  0  0
    3.5804    1.0282   20.7341 C   0  0  0  0  0  0  0  0  0  0  0  0
    2.4955    0.5981   21.1574 O   0  0  0  0  0  0  0  0  0  0  0  0
    3.7562    0.9242   19.3130 N   0  0  0  0  0  0  0  0  0  0  0  0
    4.9441    1.3440   18.5915 C   0  0  0  0  0  0  0  0  0  0  0  0
    4.4550    1.7507   17.2308 C   0  0  0  0  0  0  0  0  0  0  0  0
    3.1182    1.1069   17.0304 C   0  0  0  0  0  0  0  0  0  0  0  0
    2.8671    0.4287   18.3220 C   0  0  0  0  0  0  0  0  0  0  0  0
    1.9938   -0.4723   18.5567 O   0  0  0  0  0  0  0  0  0  0  0  0
    5.4658    6.0596   22.0454 C   0  0  0  0  0  0  0  0  0  0  0  0
    6.5626    8.2948   22.4866 C   0  0  0  0  0  0  0  0  0  0  0  0
    6.6173    6.8013   22.5649 C   0  0  0  0  0  0  0  0  0  0  0  0
    7.9814    6.2691   22.1579 C   0  0  0  0  0  0  0  0  0  0  0  0
 69 70  1  0  0  0
 70 71  1  0  0  0
 70 68  1  0  0  0
 68 52  1  0  0  0
 52 48  1  0  0  0
 48 49  1  0  0  0
 49 50  2  0  0  0
 49 46  1  0  0  0
 46 47  1  0  0  0
 46 42  1  0  0  0
 42 43  1  0  0  0
 43 44  2  0  0  0
 43 40  1  0  0  0
 40 41  1  0  0  0
 40  1  1  0  0  0
  1  2  1  0  0  0
  2  3  2  0  0  0
  2  5  1  0  0  0
  5  6  1  0  0  0
  5  7  1  0  0  0
  7  8  1  0  0  0
  8  9  2  0  0  0
  8 11  1  0  0  0
 11 12  1  0  0  0
 11 13  1  0  0  0
 13 14  1  0  0  0
 14 15  2  0  0  0
 14 17  1  0  0  0
 17 18  1  0  0  0
 17 19  1  0  0  0
 19 20  1  0  0  0
 20 21  2  0  0  0
 20 23  1  0  0  0
 23 24  1  0  0  0
 23 25  1  0  0  0
 25 26  1  0  0  0
 26 27  2  0  0  0
 26 29  1  0  0  0
 29 30  1  0  0  0
 29 31  1  0  0  0
 31 32  1  0  0  0
 32 33  2  0  0  0
 32 35  1  0  0  0
 35 36  1  0  0  0
 35 37  1  0  0  0
 37 38  1  0  0  0
 37 39  2  0  0  0
 52 53  1  0  0  0
 53 54  2  0  0  0
 53 55  1  0  0  0
 55 56  1  0  0  0
 56 57  1  0  0  0
 57 58  1  0  0  0
 58 59  1  0  0  0
 59 60  1  0  0  0
 60 61  2  0  0  0
 60 62  1  0  0  0
 62 63  1  0  0  0
 63 64  1  0  0  0
 64 65  1  0  0  0
 65 66  1  0  0  0
 66 67  2  0  0  0
 59 55  1  0  0  0
 66 62  1  0  0  0
 48 51  1  0  0  0
 42 45  1  0  0  0
  1  4  1  0  0  0
  7 10  1  0  0  0
 13 16  1  0  0  0
 19 22  1  0  0  0
 25 28  1  0  0  0
 31 34  1  0  0  0
M  END
> <minimizedAffinity>
-8.84270

> <CNNscore>
0.1829967350

> <CNNaffinity>
6.9664130211

> <CNN_VS>
1.2748308182

> <CNNaffinity_variance>
0.2923225164

$$$$
[H]N(C(=O)[C@@]([H])(N([H])C(=O)[C@@]([H])(N([H])C(=O)[C@@]([H])(N([H])C(=O)[C@@]([H])(C(=O)C([H])([H])[H])C([H])([H])[H])C([H])([H])[H])C([H])([H])[H])C([H])([H])[H])[C@]([H])(C(=O)N([H])[C@]([H])(C(=O)N([H])[C@]([H])(C(=O)N([H])[C@]([H])(C(=O)N([H])[C@]([H])(C(=O)N1C([H])([H])C([H])([H])C([H])([H])[C@@]1([H])C(=O)N1C(=O)C([H])([H])C([H])([H])C1([H])[H])C([H])([H])C([H])(C([H])([H])[H])C([H])([H])[H])C([H])([H])[H])C([H])([H])[H])C([H])([H])[H])C([H])([H])[H]


 71 72  0  0  0  0  0  0  0  0999 V2000
    6.4099    8.7680   17.7340 N   0  0  0  0  0  0  0  0  0  0  0  0
    6.4734    8.9349   16.3461 C   0  0  0  0  0  0  0  0  0  0  0  0
    7.5597    9.3505   15.8298 O   0  0  0  0  0  0  0  0  0  0  0  0
    5.5517    8.4456   18.1910 H   0  0  0  0  0  0  0  0  0  0  0  0
    5.3768    8.6625   15.3982 C   0  0  0  0  0  0  0  0  0  0  0  0
    4.4568    7.5655   16.0085 C   0  0  0  0  0  0  0  0  0  0  0  0
    5.8634    8.1011   14.1780 N   0  0  0  0  0  0  0  0  0  0  0  0
    6.1601    8.8444   13.0105 C   0  0  0  0  0  0  0  0  0  0  0  0
    6.0058   10.0755   12.9442 O   0  0  0  0  0  0  0  0  0  0  0  0
    6.0100    7.0681   14.1551 H   0  0  0  0  0  0  0  0  0  0  0  0
    6.6740    8.1119   11.8089 C   0  0  0  0  0  0  0  0  0  0  0  0
    8.2038    8.2388   11.8589 C   0  0  0  0  0  0  0  0  0  0  0  0
    6.2376    8.5312   10.5483 N   0  0  0  0  0  0  0  0  0  0  0  0
    5.4304    7.9022    9.5916 C   0  0  0  0  0  0  0  0  0  0  0  0
    4.9771    6.7591    9.7807 O   0  0  0  0  0  0  0  0  0  0  0  0
    6.5817    9.5323   10.2525 H   0  0  0  0  0  0  0  0  0  0  0  0
    5.1179    8.6336    8.3458 C   0  0  0  0  0  0  0  0  0  0  0  0
    3.6421    8.2897    7.9714 C   0  0  0  0  0  0  0  0  0  0  0  0
    5.8646    8.2312    7.1982 N   0  0  0  0  0  0  0  0  0  0  0  0
    6.2520    9.1951    6.2028 C   0  0  0  0  0  0  0  0  0  0  0  0
    5.9289   10.3829    6.3731 O   0  0  0  0  0  0  0  0  0  0  0  0
    6.1552    7.2557    7.0319 H   0  0  0  0  0  0  0  0  0  0  0  0
    7.0153    8.7924    4.9820 C   0  0  0  0  0  0  0  0  0  0  0  0
    6.2614    7.7142    4.2621 C   0  0  0  0  0  0  0  0  0  0  0  0
    8.3373    8.3497    5.4265 N   0  0  0  0  0  0  0  0  0  0  0  0
    9.4897    8.9538    4.9148 C   0  0  0  0  0  0  0  0  0  0  0  0
    9.3649    9.8827    4.0517 O   0  0  0  0  0  0  0  0  0  0  0  0
    8.3648    7.5823    6.1222 H   0  0  0  0  0  0  0  0  0  0  0  0
   10.8980    8.6094    5.2968 C   0  0  0  0  0  0  0  0  0  0  0  0
   11.5050    7.9346    4.0706 C   0  0  0  0  0  0  0  0  0  0  0  0
   10.9255    7.7370    6.4236 N   0  0  0  0  0  0  0  0  0  0  0  0
   11.8951    7.8069    7.4404 C   0  0  0  0  0  0  0  0  0  0  0  0
   12.8311    8.6384    7.4466 O   0  0  0  0  0  0  0  0  0  0  0  0
   10.1566    7.0066    6.4648 H   0  0  0  0  0  0  0  0  0  0  0  0
   11.7925    6.8268    8.5830 C   0  0  0  0  0  0  0  0  0  0  0  0
   10.4367    6.1468    8.5696 C   0  0  0  0  0  0  0  0  0  0  0  0
   12.0192    7.5060    9.8652 C   0  0  0  0  0  0  0  0  0  0  0  0
   13.2282    7.1484   10.6792 C   0  0  0  0  0  0  0  0  0  0  0  0
   11.2910    8.3561   10.3316 O   0  0  0  0  0  0  0  0  0  0  0  0
    7.5993    9.0631   18.5677 C   0  0  0  0  0  0  0  0  0  0  0  0
    7.5431   10.3884   19.2236 C   0  0  0  0  0  0  0  0  0  0  0  0
    7.0339    7.6837   20.6326 N   0  0  0  0  0  0  0  0  0  0  0  0
    7.8147    7.9500   19.5121 C   0  0  0  0  0  0  0  0  0  0  0  0
    8.8151    7.1816   19.2778 O   0  0  0  0  0  0  0  0  0  0  0  0
    6.1958    8.3069   20.7948 H   0  0  0  0  0  0  0  0  0  0  0  0
    7.2486    6.6507   21.5803 C   0  0  0  0  0  0  0  0  0  0  0  0
    6.7262    7.1758   22.9465 C   0  0  0  0  0  0  0  0  0  0  0  0
    5.5616    5.1252   20.5173 N   0  0  0  0  0  0  0  0  0  0  0  0
    6.6534    5.3443   21.3692 C   0  0  0  0  0  0  0  0  0  0  0  0
    7.1372    4.3377   21.9783 O   0  0  0  0  0  0  0  0  0  0  0  0
    5.1647    5.9605   20.0018 H   0  0  0  0  0  0  0  0  0  0  0  0
    4.9167    3.8018   20.2749 C   0  0  0  0  0  0  0  0  0  0  0  0
    4.0289    4.0741   19.0881 C   0  0  0  0  0  0  0  0  0  0  0  0
    3.3949    5.1803   19.2135 O   0  0  0  0  0  0  0  0  0  0  0  0
    3.9450    3.2052   18.0072 N   0  0  0  0  0  0  0  0  0  0  0  0
    4.7143    1.9284   17.9696 C   0  0  0  0  0  0  0  0  0  0  0  0
    3.6165    0.9558   17.5317 C   0  0  0  0  0  0  0  0  0  0  0  0
    2.4902    1.8463   16.9607 C   0  0  0  0  0  0  0  0  0  0  0  0
    3.2974    3.1141   16.7351 C   0  0  0  0  0  0  0  0  0  0  0  0
    2.6235    4.2238   16.1548 C   0  0  0  0  0  0  0  0  0  0  0  0
    1.8641    4.9931   16.7653 O   0  0  0  0  0  0  0  0  0  0  0  0
    2.7994    4.5300   14.7632 N   0  0  0  0  0  0  0  0  0  0  0  0
    3.6237    3.7665   13.8438 C   0  0  0  0  0  0  0  0  0  0  0  0
    4.1036    4.7614   12.8261 C   0  0  0  0  0  0  0  0  0  0  0  0
    3.1759    5.9353   12.8832 C   0  0  0  0  0  0  0  0  0  0  0  0
    2.2567    5.5923   13.9917 C   0  0  0  0  0  0  0  0  0  0  0  0
    1.1342    6.1411   14.2532 O   0  0  0  0  0  0  0  0  0  0  0  0
    4.1927    3.5540   21.5414 C   0  0  0  0  0  0  0  0  0  0  0  0
    3.4527    1.2060   22.1185 C   0  0  0  0  0  0  0  0  0  0  0  0
    4.3929    2.3476   22.3479 C   0  0  0  0  0  0  0  0  0  0  0  0
    4.6409    2.5793   23.8292 C   0  0  0  0  0  0  0  0  0  0  0  0
 69 70  1  0  0  0
 70 71  1  0  0  0
 70 68  1  0  0  0
 68 52  1  0  0  0
 52 48  1  0  0  0
 48 49  1  0  0  0
 49 50  2  0  0  0
 49 46  1  0  0  0
 46 47  1  0  0  0
 46 42  1  0  0  0
 42 43  1  0  0  0
 43 44  2  0  0  0
 43 40  1  0  0  0
 40 41  1  0  0  0
 40  1  1  0  0  0
  1  2  1  0  0  0
  2  3  2  0  0  0
  2  5  1  0  0  0
  5  6  1  0  0  0
  5  7  1  0  0  0
  7  8  1  0  0  0
  8  9  2  0  0  0
  8 11  1  0  0  0
 11 12  1  0  0  0
 11 13  1  0  0  0
 13 14  1  0  0  0
 14 15  2  0  0  0
 14 17  1  0  0  0
 17 18  1  0  0  0
 17 19  1  0  0  0
 19 20  1  0  0  0
 20 21  2  0  0  0
 20 23  1  0  0  0
 23 24  1  0  0  0
 23 25  1  0  0  0
 25 26  1  0  0  0
 26 27  2  0  0  0
 26 29  1  0  0  0
 29 30  1  0  0  0
 29 31  1  0  0  0
 31 32  1  0  0  0
 32 33  2  0  0  0
 32 35  1  0  0  0
 35 36  1  0  0  0
 35 37  1  0  0  0
 37 38  1  0  0  0
 37 39  2  0  0  0
 52 53  1  0  0  0
 53 54  2  0  0  0
 53 55  1  0  0  0
 55 56  1  0  0  0
 56 57  1  0  0  0
 57 58  1  0  0  0
 58 59  1  0  0  0
 59 60  1  0  0  0
 60 61  2  0  0  0
 60 62  1  0  0  0
 62 63  1  0  0  0
 63 64  1  0  0  0
 64 65  1  0  0  0
 65 66  1  0  0  0
 66 67  2  0  0  0
 59 55  1  0  0  0
 66 62  1  0  0  0
 48 51  1  0  0  0
 42 45  1  0  0  0
  1  4  1  0  0  0
  7 10  1  0  0  0
 13 16  1  0  0  0
 19 22  1  0  0  0
 25 28  1  0  0  0
 31 34  1  0  0  0
M  END
> <minimizedAffinity>
-9.56423

> <CNNscore>
0.1738515943

> <CNNaffinity>
6.9652891159

> <CNN_VS>
1.2109266520

> <CNNaffinity_variance>
0.2892530262

$$$$
[H]N(C(=O)[C@@]([H])(N([H])C(=O)[C@@]([H])(N([H])C(=O)[C@@]([H])(N([H])C(=O)[C@@]([H])(C(=O)C([H])([H])[H])C([H])([H])[H])C([H])([H])[H])C([H])([H])[H])C([H])([H])[H])[C@]([H])(C(=O)N([H])[C@]([H])(C(=O)N([H])[C@]([H])(C(=O)N([H])[C@]([H])(C(=O)N([H])[C@]([H])(C(=O)N1C([H])([H])C([H])([H])C([H])([H])[C@@]1([H])C(=O)N1C(=O)C([H])([H])C([H])([H])C1([H])[H])C([H])([H])C([H])(C([H])([H])[H])C([H])([H])[H])C([H])([H])[H])C([H])([H])[H])C([H])([H])[H])C([H])([H])[H]


 71 72  0  0  0  0  0  0  0  0999 V2000
    3.0360   10.7270   15.9117 N   0  0  0  0  0  0  0  0  0  0  0  0
    2.9058   12.0969   15.6571 C   0  0  0  0  0  0  0  0  0  0  0  0
    3.4350   12.5754   14.6035 O   0  0  0  0  0  0  0  0  0  0  0  0
    2.6342   10.3031   16.7532 H   0  0  0  0  0  0  0  0  0  0  0  0
    2.1902   13.0638   16.5105 C   0  0  0  0  0  0  0  0  0  0  0  0
    1.1714   13.8424   15.6285 C   0  0  0  0  0  0  0  0  0  0  0  0
    3.0716   14.0622   17.0274 N   0  0  0  0  0  0  0  0  0  0  0  0
    3.4784   14.1564   18.3799 C   0  0  0  0  0  0  0  0  0  0  0  0
    3.0827   13.3668   19.2538 O   0  0  0  0  0  0  0  0  0  0  0  0
    3.4392   14.7678   16.3520 H   0  0  0  0  0  0  0  0  0  0  0  0
    4.4180   15.2568   18.7681 C   0  0  0  0  0  0  0  0  0  0  0  0
    5.4489   15.3522   17.6337 C   0  0  0  0  0  0  0  0  0  0  0  0
    5.1053   15.1361   19.9799 N   0  0  0  0  0  0  0  0  0  0  0  0
    4.7679   15.5358   21.2794 C   0  0  0  0  0  0  0  0  0  0  0  0
    3.6990   16.1268   21.5157 O   0  0  0  0  0  0  0  0  0  0  0  0
    6.0812   14.6357   19.9066 H   0  0  0  0  0  0  0  0  0  0  0  0
    5.7116   15.2308   22.3754 C   0  0  0  0  0  0  0  0  0  0  0  0
    6.5523   16.5214   22.6278 C   0  0  0  0  0  0  0  0  0  0  0  0
    6.6916   14.2369   22.0780 N   0  0  0  0  0  0  0  0  0  0  0  0
    7.4004   13.5688   23.1368 C   0  0  0  0  0  0  0  0  0  0  0  0
    7.1309   13.8719   24.3115 O   0  0  0  0  0  0  0  0  0  0  0  0
    6.9321   13.9568   21.1149 H   0  0  0  0  0  0  0  0  0  0  0  0
    8.4464   12.5404   22.8480 C   0  0  0  0  0  0  0  0  0  0  0  0
    8.5100   12.3033   21.3686 C   0  0  0  0  0  0  0  0  0  0  0  0
    8.0830   11.3346   23.5930 N   0  0  0  0  0  0  0  0  0  0  0  0
    8.9371   10.8342   24.5804 C   0  0  0  0  0  0  0  0  0  0  0  0
   10.0349   11.4398   24.8077 O   0  0  0  0  0  0  0  0  0  0  0  0
    7.1808   10.8873   23.3488 H   0  0  0  0  0  0  0  0  0  0  0  0
    8.6780    9.6234   25.4259 C   0  0  0  0  0  0  0  0  0  0  0  0
    7.1939    9.3128   25.2582 C   0  0  0  0  0  0  0  0  0  0  0  0
    8.9941    9.8747   26.7927 N   0  0  0  0  0  0  0  0  0  0  0  0
   10.0330    9.2261   27.4848 C   0  0  0  0  0  0  0  0  0  0  0  0
   10.7735    8.3601   26.9660 O   0  0  0  0  0  0  0  0  0  0  0  0
    8.3914   10.5971   27.2840 H   0  0  0  0  0  0  0  0  0  0  0  0
   10.2635    9.6026   28.9276 C   0  0  0  0  0  0  0  0  0  0  0  0
    9.4802    8.6796   29.8415 C   0  0  0  0  0  0  0  0  0  0  0  0
    9.8882   11.0033   29.1601 C   0  0  0  0  0  0  0  0  0  0  0  0
   10.9025   12.0826   28.9188 C   0  0  0  0  0  0  0  0  0  0  0  0
    8.7960   11.3689   29.5393 O   0  0  0  0  0  0  0  0  0  0  0  0
    3.7693    9.8652   14.9544 C   0  0  0  0  0  0  0  0  0  0  0  0
    5.2153    9.7570   15.2497 C   0  0  0  0  0  0  0  0  0  0  0  0
    3.5230    7.3831   15.4692 N   0  0  0  0  0  0  0  0  0  0  0  0
    3.0899    8.5585   14.8634 C   0  0  0  0  0  0  0  0  0  0  0  0
    2.0224    8.5128   14.1531 O   0  0  0  0  0  0  0  0  0  0  0  0
    4.3865    7.4438   16.0758 H   0  0  0  0  0  0  0  0  0  0  0  0
    2.9150    6.1067   15.3578 C   0  0  0  0  0  0  0  0  0  0  0  0
    3.5470    5.4122   14.1196 C   0  0  0  0  0  0  0  0  0  0  0  0
    4.2055    4.8293   17.0916 N   0  0  0  0  0  0  0  0  0  0  0  0
    2.9997    5.1696   16.4624 C   0  0  0  0  0  0  0  0  0  0  0  0
    1.9348    4.6237   16.8943 O   0  0  0  0  0  0  0  0  0  0  0  0
    5.0911    5.2909   16.7399 H   0  0  0  0  0  0  0  0  0  0  0  0
    4.3384    3.8689   18.2256 C   0  0  0  0  0  0  0  0  0  0  0  0
    5.3077    4.5671   19.1442 C   0  0  0  0  0  0  0  0  0  0  0  0
    6.1415    5.2901   18.4934 O   0  0  0  0  0  0  0  0  0  0  0  0
    5.2608    4.4206   20.5250 N   0  0  0  0  0  0  0  0  0  0  0  0
    4.2575    3.5353   21.1831 C   0  0  0  0  0  0  0  0  0  0  0  0
    5.1587    2.7682   22.1539 C   0  0  0  0  0  0  0  0  0  0  0  0
    6.4594    3.5978   22.2410 C   0  0  0  0  0  0  0  0  0  0  0  0
    5.9266    4.9111   21.6921 C   0  0  0  0  0  0  0  0  0  0  0  0
    6.8275    6.0099   21.6362 C   0  0  0  0  0  0  0  0  0  0  0  0
    8.0651    5.9168   21.6644 O   0  0  0  0  0  0  0  0  0  0  0  0
    6.3267    7.3516   21.5342 N   0  0  0  0  0  0  0  0  0  0  0  0
    4.9206    7.7115   21.5010 C   0  0  0  0  0  0  0  0  0  0  0  0
    4.8559    8.9710   20.6852 C   0  0  0  0  0  0  0  0  0  0  0  0
    6.2279    9.5704   20.6869 C   0  0  0  0  0  0  0  0  0  0  0  0
    7.0340    8.5796   21.4352 C   0  0  0  0  0  0  0  0  0  0  0  0
    8.1949    8.7578   21.9353 O   0  0  0  0  0  0  0  0  0  0  0  0
    4.8773    2.6581   17.5672 C   0  0  0  0  0  0  0  0  0  0  0  0
    3.1371    1.2935   16.3413 C   0  0  0  0  0  0  0  0  0  0  0  0
    4.1215    1.4077   17.4627 C   0  0  0  0  0  0  0  0  0  0  0  0
    3.5503    0.8727   18.7654 C   0  0  0  0  0  0  0  0  0  0  0  0
 69 70  1  0  0  0
 70 71  1  0  0  0
 70 68  1  0  0  0
 68 52  1  0  0  0
 52 48  1  0  0  0
 48 49  1  0  0  0
 49 50  2  0  0  0
 49 46  1  0  0  0
 46 47  1  0  0  0
 46 42  1  0  0  0
 42 43  1  0  0  0
 43 44  2  0  0  0
 43 40  1  0  0  0
 40 41  1  0  0  0
 40  1  1  0  0  0
  1  2  1  0  0  0
  2  3  2  0  0  0
  2  5  1  0  0  0
  5  6  1  0  0  0
  5  7  1  0  0  0
  7  8  1  0  0  0
  8  9  2  0  0  0
  8 11  1  0  0  0
 11 12  1  0  0  0
 11 13  1  0  0  0
 13 14  1  0  0  0
 14 15  2  0  0  0
 14 17  1  0  0  0
 17 18  1  0  0  0
 17 19  1  0  0  0
 19 20  1  0  0  0
 20 21  2  0  0  0
 20 23  1  0  0  0
 23 24  1  0  0  0
 23 25  1  0  0  0
 25 26  1  0  0  0
 26 27  2  0  0  0
 26 29  1  0  0  0
 29 30  1  0  0  0
 29 31  1  0  0  0
 31 32  1  0  0  0
 32 33  2  0  0  0
 32 35  1  0  0  0
 35 36  1  0  0  0
 35 37  1  0  0  0
 37 38  1  0  0  0
 37 39  2  0  0  0
 52 53  1  0  0  0
 53 54  2  0  0  0
 53 55  1  0  0  0
 55 56  1  0  0  0
 56 57  1  0  0  0
 57 58  1  0  0  0
 58 59  1  0  0  0
 59 60  1  0  0  0
 60 61  2  0  0  0
 60 62  1  0  0  0
 62 63  1  0  0  0
 63 64  1  0  0  0
 64 65  1  0  0  0
 65 66  1  0  0  0
 66 67  2  0  0  0
 59 55  1  0  0  0
 66 62  1  0  0  0
 48 51  1  0  0  0
 42 45  1  0  0  0
  1  4  1  0  0  0
  7 10  1  0  0  0
 13 16  1  0  0  0
 19 22  1  0  0  0
 25 28  1  0  0  0
 31 34  1  0  0  0
M  END
> <minimizedAffinity>
-8.68414

> <CNNscore>
0.1704669297

> <CNNaffinity>
6.8019967079

> <CNN_VS>
1.1595155001

> <CNNaffinity_variance>
0.5375369787

$$$$
[H]N(C(=O)[C@@]([H])(N([H])C(=O)[C@@]([H])(N([H])C(=O)[C@@]([H])(N([H])C(=O)[C@@]([H])(C(=O)C([H])([H])[H])C([H])([H])[H])C([H])([H])[H])C([H])([H])[H])C([H])([H])[H])[C@]([H])(C(=O)N([H])[C@]([H])(C(=O)N([H])[C@]([H])(C(=O)N([H])[C@]([H])(C(=O)N([H])[C@]([H])(C(=O)N1C([H])([H])C([H])([H])C([H])([H])[C@@]1([H])C(=O)N(C([H])([H])[H])C([H])([H])[H])C([H])([H])C([H])(C([H])([H])[H])C([H])([H])[H])C([H])([H])[H])C([H])([H])[H])C([H])([H])[H])C([H])([H])[H]


 68 68  0  0  0  0  0  0  0  0999 V2000
    4.4990    5.1061   17.4558 C   0  0  0  0  0  0  0  0  0  0  0  0
    5.1473    3.8251   16.9113 C   0  0  0  0  0  0  0  0  0  0  0  0
    4.9133    6.2394   16.6744 N   0  0  0  0  0  0  0  0  0  0  0  0
    4.1231    6.8135   15.6672 C   0  0  0  0  0  0  0  0  0  0  0  0
    2.9895    6.2960   15.4054 O   0  0  0  0  0  0  0  0  0  0  0  0
    5.8538    6.6505   16.8861 H   0  0  0  0  0  0  0  0  0  0  0  0
    4.5099    7.9893   14.8754 C   0  0  0  0  0  0  0  0  0  0  0  0
    3.2256    8.7913   14.6481 C   0  0  0  0  0  0  0  0  0  0  0  0
    5.1012    7.6178   13.5999 N   0  0  0  0  0  0  0  0  0  0  0  0
    6.1354    8.3614   12.9723 C   0  0  0  0  0  0  0  0  0  0  0  0
    6.5150    9.4206   13.5936 O   0  0  0  0  0  0  0  0  0  0  0  0
    4.7368    6.7777   13.1437 H   0  0  0  0  0  0  0  0  0  0  0  0
    6.7394    7.9725   11.7123 C   0  0  0  0  0  0  0  0  0  0  0  0
    8.2761    8.2088   11.7582 C   0  0  0  0  0  0  0  0  0  0  0  0
    6.2283    8.7053   10.5629 N   0  0  0  0  0  0  0  0  0  0  0  0
    5.5803    7.9937    9.5317 C   0  0  0  0  0  0  0  0  0  0  0  0
    5.4780    6.7069    9.6542 O   0  0  0  0  0  0  0  0  0  0  0  0
    6.3531    9.7338   10.5526 H   0  0  0  0  0  0  0  0  0  0  0  0
    5.0008    8.5508    8.3209 C   0  0  0  0  0  0  0  0  0  0  0  0
    3.6477    7.8429    8.0434 C   0  0  0  0  0  0  0  0  0  0  0  0
    5.8670    8.3313    7.1762 N   0  0  0  0  0  0  0  0  0  0  0  0
    5.9140    9.1942    6.0284 C   0  0  0  0  0  0  0  0  0  0  0  0
    5.1137   10.1858    6.0480 O   0  0  0  0  0  0  0  0  0  0  0  0
    6.5096    7.5014    7.1775 H   0  0  0  0  0  0  0  0  0  0  0  0
    6.8226    8.9485    4.9081 C   0  0  0  0  0  0  0  0  0  0  0  0
    6.3240    7.7381    4.0870 C   0  0  0  0  0  0  0  0  0  0  0  0
    8.1701    8.6629    5.4005 N   0  0  0  0  0  0  0  0  0  0  0  0
    9.3187    9.1391    4.7453 C   0  0  0  0  0  0  0  0  0  0  0  0
    9.1834    9.8265    3.7014 O   0  0  0  0  0  0  0  0  0  0  0  0
    8.2744    8.0902    6.2663 H   0  0  0  0  0  0  0  0  0  0  0  0
   10.6612    8.8148    5.3082 C   0  0  0  0  0  0  0  0  0  0  0  0
   11.7812    9.5484    4.6152 C   0  0  0  0  0  0  0  0  0  0  0  0
   10.9018    7.3991    5.5120 C   0  0  0  0  0  0  0  0  0  0  0  0
   11.6444    6.7982    6.6567 C   0  0  0  0  0  0  0  0  0  0  0  0
   10.4731    6.5745    4.6883 O   0  0  0  0  0  0  0  0  0  0  0  0
    4.2885    6.3400   19.6575 N   0  0  0  0  0  0  0  0  0  0  0  0
    4.7018    5.2213   18.8974 C   0  0  0  0  0  0  0  0  0  0  0  0
    5.2790    4.2979   19.5811 O   0  0  0  0  0  0  0  0  0  0  0  0
    3.8083    7.1680   19.1947 H   0  0  0  0  0  0  0  0  0  0  0  0
    4.4859    6.4331   21.0868 C   0  0  0  0  0  0  0  0  0  0  0  0
    4.0700    5.1238   21.7023 C   0  0  0  0  0  0  0  0  0  0  0  0
    6.5298    6.2789   22.5822 N   0  0  0  0  0  0  0  0  0  0  0  0
    5.9403    6.7043   21.3877 C   0  0  0  0  0  0  0  0  0  0  0  0
    6.5677    7.3227   20.5112 O   0  0  0  0  0  0  0  0  0  0  0  0
    5.8930    5.7445   23.2625 H   0  0  0  0  0  0  0  0  0  0  0  0
    7.9074    6.4704   22.9862 C   0  0  0  0  0  0  0  0  0  0  0  0
    8.9212    5.8342   22.0835 C   0  0  0  0  0  0  0  0  0  0  0  0
    8.4872    8.8660   22.3358 N   0  0  0  0  0  0  0  0  0  0  0  0
    8.1855    7.8873   23.3142 C   0  0  0  0  0  0  0  0  0  0  0  0
    8.1520    8.2794   24.5348 O   0  0  0  0  0  0  0  0  0  0  0  0
    8.5026    8.5331   21.3424 H   0  0  0  0  0  0  0  0  0  0  0  0
    8.7400   10.2481   22.7005 C   0  0  0  0  0  0  0  0  0  0  0  0
    7.6053   11.0251   22.0790 C   0  0  0  0  0  0  0  0  0  0  0  0
    6.8514   11.6550   22.8840 O   0  0  0  0  0  0  0  0  0  0  0  0
    7.3550   11.0877   20.6863 N   0  0  0  0  0  0  0  0  0  0  0  0
    8.0367   10.4698   19.5869 C   0  0  0  0  0  0  0  0  0  0  0  0
    7.7318   11.3216   18.3487 C   0  0  0  0  0  0  0  0  0  0  0  0
    6.9063   12.4491   18.8868 C   0  0  0  0  0  0  0  0  0  0  0  0
    6.2661   11.8754   20.0935 C   0  0  0  0  0  0  0  0  0  0  0  0
    5.0501   11.0717   19.8402 C   0  0  0  0  0  0  0  0  0  0  0  0
    4.8922   10.0297   20.5450 O   0  0  0  0  0  0  0  0  0  0  0  0
    4.0802   11.3946   18.8822 N   0  0  0  0  0  0  0  0  0  0  0  0
    4.1975   12.5831   18.0404 C   0  0  0  0  0  0  0  0  0  0  0  0
    2.9325   10.5508   18.6945 C   0  0  0  0  0  0  0  0  0  0  0  0
   10.0694   10.6836   22.2600 C   0  0  0  0  0  0  0  0  0  0  0  0
   10.7823   11.8931   24.3325 C   0  0  0  0  0  0  0  0  0  0  0  0
   11.1316   10.8447   23.2866 C   0  0  0  0  0  0  0  0  0  0  0  0
   11.6714    9.6236   23.9243 C   0  0  0  0  0  0  0  0  0  0  0  0
 66 67  1  0  0  0
 67 68  1  0  0  0
 67 65  1  0  0  0
 65 52  1  0  0  0
 52 48  1  0  0  0
 48 49  1  0  0  0
 49 50  2  0  0  0
 49 46  1  0  0  0
 46 47  1  0  0  0
 46 42  1  0  0  0
 42 43  1  0  0  0
 43 44  2  0  0  0
 43 40  1  0  0  0
 40 41  1  0  0  0
 40 36  1  0  0  0
 36 37  1  0  0  0
 37 38  2  0  0  0
 37  1  1  0  0  0
  1  2  1  0  0  0
  1  3  1  0  0  0
  3  4  1  0  0  0
  4  5  2  0  0  0
  4  7  1  0  0  0
  7  8  1  0  0  0
  7  9  1  0  0  0
  9 10  1  0  0  0
 10 11  2  0  0  0
 10 13  1  0  0  0
 13 14  1  0  0  0
 13 15  1  0  0  0
 15 16  1  0  0  0
 16 17  2  0  0  0
 16 19  1  0  0  0
 19 20  1  0  0  0
 19 21  1  0  0  0
 21 22  1  0  0  0
 22 23  2  0  0  0
 22 25  1  0  0  0
 25 26  1  0  0  0
 25 27  1  0  0  0
 27 28  1  0  0  0
 28 29  2  0  0  0
 28 31  1  0  0  0
 31 32  1  0  0  0
 31 33  1  0  0  0
 33 34  1  0  0  0
 33 35  2  0  0  0
 52 53  1  0  0  0
 53 54  2  0  0  0
 53 55  1  0  0  0
 55 56  1  0  0  0
 56 57  1  0  0  0
 57 58  1  0  0  0
 58 59  1  0  0  0
 59 60  1  0  0  0
 60 61  2  0  0  0
 60 62  1  0  0  0
 62 63  1  0  0  0
 62 64  1  0  0  0
 59 55  1  0  0  0
 48 51  1  0  0  0
 42 45  1  0  0  0
 36 39  1  0  0  0
  3  6  1  0  0  0
  9 12  1  0  0  0
 15 18  1  0  0  0
 21 24  1  0  0  0
 27 30  1  0  0  0
M  END
> <minimizedAffinity>
-8.07487

> <CNNscore>
0.3761270642

> <CNNaffinity>
6.2803335190

> <CNN_VS>
2.3622033596

> <CNNaffinity_variance>
0.3095852733

$$$$
[H]N(C(=O)[C@@]([H])(N([H])C(=O)[C@@]([H])(N([H])C(=O)[C@@]([H])(N([H])C(=O)[C@@]([H])(C(=O)C([H])([H])[H])C([H])([H])[H])C([H])([H])[H])C([H])([H])[H])C([H])([H])[H])[C@]([H])(C(=O)N([H])[C@]([H])(C(=O)N([H])[C@]([H])(C(=O)N([H])[C@]([H])(C(=O)N([H])[C@]([H])(C(=O)N1C([H])([H])C([H])([H])C([H])([H])[C@@]1([H])C(=O)N(C([H])([H])[H])C([H])([H])[H])C([H])([H])C([H])(C([H])([H])[H])C([H])([H])[H])C([H])([H])[H])C([H])([H])[H])C([H])([H])[H])C([H])([H])[H]


 68 68  0  0  0  0  0  0  0  0999 V2000
    4.6836    9.9011   15.1930 C   0  0  0  0  0  0  0  0  0  0  0  0
    5.5732    8.6720   15.4289 C   0  0  0  0  0  0  0  0  0  0  0  0
    4.3754   10.5351   16.4458 N   0  0  0  0  0  0  0  0  0  0  0  0
    4.3687   11.9264   16.6263 C   0  0  0  0  0  0  0  0  0  0  0  0
    4.6753   12.6752   15.6431 O   0  0  0  0  0  0  0  0  0  0  0  0
    4.1384    9.9113   17.2540 H   0  0  0  0  0  0  0  0  0  0  0  0
    4.0281   12.5999   17.8871 C   0  0  0  0  0  0  0  0  0  0  0  0
    3.3337   13.9077   17.4975 C   0  0  0  0  0  0  0  0  0  0  0  0
    5.2064   12.8785   18.6924 N   0  0  0  0  0  0  0  0  0  0  0  0
    5.5957   12.0886   19.8064 C   0  0  0  0  0  0  0  0  0  0  0  0
    4.8197   11.1036   20.0885 O   0  0  0  0  0  0  0  0  0  0  0  0
    5.7682   13.6927   18.4313 H   0  0  0  0  0  0  0  0  0  0  0  0
    6.7859   12.3558   20.5910 C   0  0  0  0  0  0  0  0  0  0  0  0
    6.8573   11.3864   21.8051 C   0  0  0  0  0  0  0  0  0  0  0  0
    6.8504   13.7103   21.1209 N   0  0  0  0  0  0  0  0  0  0  0  0
    7.9554   14.5220   20.7894 C   0  0  0  0  0  0  0  0  0  0  0  0
    8.8743   14.0145   20.0282 O   0  0  0  0  0  0  0  0  0  0  0  0
    6.0679   14.0316   21.7191 H   0  0  0  0  0  0  0  0  0  0  0  0
    8.1862   15.8931   21.2127 C   0  0  0  0  0  0  0  0  0  0  0  0
    9.6368   16.0117   21.7519 C   0  0  0  0  0  0  0  0  0  0  0  0
    7.2768   16.2725   22.2794 N   0  0  0  0  0  0  0  0  0  0  0  0
    6.3372   17.3553   22.1855 C   0  0  0  0  0  0  0  0  0  0  0  0
    6.3539   18.0097   21.0920 O   0  0  0  0  0  0  0  0  0  0  0  0
    7.2890   15.7259   23.1755 H   0  0  0  0  0  0  0  0  0  0  0  0
    5.4205   17.6857   23.2772 C   0  0  0  0  0  0  0  0  0  0  0  0
    5.6307   16.7031   24.4511 C   0  0  0  0  0  0  0  0  0  0  0  0
    4.0337   17.5892   22.8222 N   0  0  0  0  0  0  0  0  0  0  0  0
    3.5059   16.4006   22.2892 C   0  0  0  0  0  0  0  0  0  0  0  0
    4.2503   15.3919   22.1958 O   0  0  0  0  0  0  0  0  0  0  0  0
    3.4225   18.4312   22.9012 H   0  0  0  0  0  0  0  0  0  0  0  0
    2.0804   16.3728   21.8516 C   0  0  0  0  0  0  0  0  0  0  0  0
    1.5072   14.9790   21.8066 C   0  0  0  0  0  0  0  0  0  0  0  0
    1.7945   17.1812   20.6819 C   0  0  0  0  0  0  0  0  0  0  0  0
    2.6142   17.2322   19.4375 C   0  0  0  0  0  0  0  0  0  0  0  0
    0.7913   17.9130   20.6665 O   0  0  0  0  0  0  0  0  0  0  0  0
    3.4837    8.4134   13.5312 N   0  0  0  0  0  0  0  0  0  0  0  0
    3.5369    9.5619   14.3547 C   0  0  0  0  0  0  0  0  0  0  0  0
    2.4832   10.2976   14.3099 O   0  0  0  0  0  0  0  0  0  0  0  0
    4.3031    7.7377   13.4821 H   0  0  0  0  0  0  0  0  0  0  0  0
    2.3354    8.0854   12.7163 C   0  0  0  0  0  0  0  0  0  0  0  0
    2.7817    8.0321   11.2797 C   0  0  0  0  0  0  0  0  0  0  0  0
    2.4954    5.8817   13.9637 N   0  0  0  0  0  0  0  0  0  0  0  0
    1.7767    6.7458   13.1316 C   0  0  0  0  0  0  0  0  0  0  0  0
    0.6489    6.4694   12.6889 O   0  0  0  0  0  0  0  0  0  0  0  0
    3.4567    6.2298   14.2935 H   0  0  0  0  0  0  0  0  0  0  0  0
    2.0715    4.5799   14.4360 C   0  0  0  0  0  0  0  0  0  0  0  0
    2.3324    3.4508   13.4850 C   0  0  0  0  0  0  0  0  0  0  0  0
    3.7282    3.6419   16.1312 N   0  0  0  0  0  0  0  0  0  0  0  0
    2.5290    4.3291   15.8218 C   0  0  0  0  0  0  0  0  0  0  0  0
    1.8299    4.7489   16.8116 O   0  0  0  0  0  0  0  0  0  0  0  0
    4.2932    3.3124   15.3126 H   0  0  0  0  0  0  0  0  0  0  0  0
    4.1463    3.4299   17.5051 C   0  0  0  0  0  0  0  0  0  0  0  0
    5.1613    4.5146   17.7714 C   0  0  0  0  0  0  0  0  0  0  0  0
    6.2935    4.3705   17.2142 O   0  0  0  0  0  0  0  0  0  0  0  0
    4.9156    5.6505   18.5809 N   0  0  0  0  0  0  0  0  0  0  0  0
    3.7483    6.0358   19.3186 C   0  0  0  0  0  0  0  0  0  0  0  0
    3.8270    7.5567   19.4986 C   0  0  0  0  0  0  0  0  0  0  0  0
    5.0695    7.9393   18.7557 C   0  0  0  0  0  0  0  0  0  0  0  0
    5.9027    6.7151   18.8042 C   0  0  0  0  0  0  0  0  0  0  0  0
    6.6753    6.5273   20.0517 C   0  0  0  0  0  0  0  0  0  0  0  0
    6.3502    5.5474   20.7876 O   0  0  0  0  0  0  0  0  0  0  0  0
    7.7288    7.3575   20.4561 N   0  0  0  0  0  0  0  0  0  0  0  0
    8.1580    8.5004   19.6533 C   0  0  0  0  0  0  0  0  0  0  0  0
    8.4200    7.1084   21.6909 C   0  0  0  0  0  0  0  0  0  0  0  0
    4.6624    2.0716   17.7042 C   0  0  0  0  0  0  0  0  0  0  0  0
    4.2439    2.2902   20.1625 C   0  0  0  0  0  0  0  0  0  0  0  0
    4.3039    1.3611   18.9591 C   0  0  0  0  0  0  0  0  0  0  0  0
    3.1345    0.4552   18.9339 C   0  0  0  0  0  0  0  0  0  0  0  0
 66 67  1  0  0  0
 67 68  1  0  0  0
 67 65  1  0  0  0
 65 52  1  0  0  0
 52 48  1  0  0  0
 48 49  1  0  0  0
 49 50  2  0  0  0
 49 46  1  0  0  0
 46 47  1  0  0  0
 46 42  1  0  0  0
 42 43  1  0  0  0
 43 44  2  0  0  0
 43 40  1  0  0  0
 40 41  1  0  0  0
 40 36  1  0  0  0
 36 37  1  0  0  0
 37 38  2  0  0  0
 37  1  1  0  0  0
  1  2  1  0  0  0
  1  3  1  0  0  0
  3  4  1  0  0  0
  4  5  2  0  0  0
  4  7  1  0  0  0
  7  8  1  0  0  0
  7  9  1  0  0  0
  9 10  1  0  0  0
 10 11  2  0  0  0
 10 13  1  0  0  0
 13 14  1  0  0  0
 13 15  1  0  0  0
 15 16  1  0  0  0
 16 17  2  0  0  0
 16 19  1  0  0  0
 19 20  1  0  0  0
 19 21  1  0  0  0
 21 22  1  0  0  0
 22 23  2  0  0  0
 22 25  1  0  0  0
 25 26  1  0  0  0
 25 27  1  0  0  0
 27 28  1  0  0  0
 28 29  2  0  0  0
 28 31  1  0  0  0
 31 32  1  0  0  0
 31 33  1  0  0  0
 33 34  1  0  0  0
 33 35  2  0  0  0
 52 53  1  0  0  0
 53 54  2  0  0  0
 53 55  1  0  0  0
 55 56  1  0  0  0
 56 57  1  0  0  0
 57 58  1  0  0  0
 58 59  1  0  0  0
 59 60  1  0  0  0
 60 61  2  0  0  0
 60 62  1  0  0  0
 62 63  1  0  0  0
 62 64  1  0  0  0
 59 55  1  0  0  0
 48 51  1  0  0  0
 42 45  1  0  0  0
 36 39  1  0  0  0
  3  6  1  0  0  0
  9 12  1  0  0  0
 15 18  1  0  0  0
 21 24  1  0  0  0
 27 30  1  0  0  0
M  END
> <minimizedAffinity>
-8.31033

> <CNNscore>
0.3378468454

> <CNNaffinity>
6.6356019974

> <CNN_VS>
2.2418172359

> <CNNaffinity_variance>
0.7518154383

$$$$
[H]N(C(=O)[C@@]([H])(N([H])C(=O)[C@@]([H])(N([H])C(=O)[C@@]([H])(N([H])C(=O)[C@@]([H])(C(=O)C([H])([H])[H])C([H])([H])[H])C([H])([H])[H])C([H])([H])[H])C([H])([H])[H])[C@]([H])(C(=O)N([H])[C@]([H])(C(=O)N([H])[C@]([H])(C(=O)N([H])[C@]([H])(C(=O)N([H])[C@]([H])(C(=O)N1C([H])([H])C([H])([H])C([H])([H])[C@@]1([H])C(=O)N(C([H])([H])[H])C([H])([H])[H])C([H])([H])C([H])(C([H])([H])[H])C([H])([H])[H])C([H])([H])[H])C([H])([H])[H])C([H])([H])[H])C([H])([H])[H]


 68 68  0  0  0  0  0  0  0  0999 V2000
    3.8241    8.8003   13.9333 C   0  0  0  0  0  0  0  0  0  0  0  0
    3.4530    7.5563   14.7534 C   0  0  0  0  0  0  0  0  0  0  0  0
    4.9473    8.5139   13.0831 N   0  0  0  0  0  0  0  0  0  0  0  0
    4.8261    7.9243   11.8158 C   0  0  0  0  0  0  0  0  0  0  0  0
    3.6685    7.5978   11.3979 O   0  0  0  0  0  0  0  0  0  0  0  0
    5.8981    8.7723   13.4405 H   0  0  0  0  0  0  0  0  0  0  0  0
    5.9542    7.6490   10.9153 C   0  0  0  0  0  0  0  0  0  0  0  0
    7.2136    8.1014   11.6593 C   0  0  0  0  0  0  0  0  0  0  0  0
    5.8329    8.3634    9.6546 N   0  0  0  0  0  0  0  0  0  0  0  0
    5.5469    7.7244    8.4191 C   0  0  0  0  0  0  0  0  0  0  0  0
    5.4216    6.4462    8.4696 O   0  0  0  0  0  0  0  0  0  0  0  0
    5.9694    9.3771    9.6776 H   0  0  0  0  0  0  0  0  0  0  0  0
    5.4019    8.4446    7.1686 C   0  0  0  0  0  0  0  0  0  0  0  0
    4.3672    9.5948    7.3285 C   0  0  0  0  0  0  0  0  0  0  0  0
    4.9515    7.6154    6.0600 N   0  0  0  0  0  0  0  0  0  0  0  0
    5.6504    7.6720    4.8361 C   0  0  0  0  0  0  0  0  0  0  0  0
    6.6653    8.4748    4.7536 O   0  0  0  0  0  0  0  0  0  0  0  0
    4.1320    7.0016    6.2190 H   0  0  0  0  0  0  0  0  0  0  0  0
    5.3565    6.9159    3.6302 C   0  0  0  0  0  0  0  0  0  0  0  0
    6.1948    7.4964    2.4600 C   0  0  0  0  0  0  0  0  0  0  0  0
    3.9526    7.0216    3.2742 N   0  0  0  0  0  0  0  0  0  0  0  0
    2.9286    6.1505    3.7807 C   0  0  0  0  0  0  0  0  0  0  0  0
    3.3245    5.2294    4.5675 O   0  0  0  0  0  0  0  0  0  0  0  0
    3.6517    7.7814    2.6153 H   0  0  0  0  0  0  0  0  0  0  0  0
    1.5209    6.3107    3.4148 C   0  0  0  0  0  0  0  0  0  0  0  0
    1.4012    7.2625    2.2034 C   0  0  0  0  0  0  0  0  0  0  0  0
    0.7662    6.8733    4.5345 N   0  0  0  0  0  0  0  0  0  0  0  0
    1.1582    8.0617    5.1743 C   0  0  0  0  0  0  0  0  0  0  0  0
    2.1919    8.6557    4.7754 O   0  0  0  0  0  0  0  0  0  0  0  0
   -0.0895    6.3735    4.8612 H   0  0  0  0  0  0  0  0  0  0  0  0
    0.3365    8.5809    6.3055 C   0  0  0  0  0  0  0  0  0  0  0  0
    0.4993   10.0648    6.5167 C   0  0  0  0  0  0  0  0  0  0  0  0
    0.4109    7.7869    7.5169 C   0  0  0  0  0  0  0  0  0  0  0  0
    1.6632    7.2994    8.1626 C   0  0  0  0  0  0  0  0  0  0  0  0
   -0.6321    7.4572    8.1048 O   0  0  0  0  0  0  0  0  0  0  0  0
    3.6637    9.9634   16.1774 N   0  0  0  0  0  0  0  0  0  0  0  0
    3.9632    9.9709   14.7952 C   0  0  0  0  0  0  0  0  0  0  0  0
    4.3738   11.1038   14.3464 O   0  0  0  0  0  0  0  0  0  0  0  0
    3.3072    9.0827   16.6545 H   0  0  0  0  0  0  0  0  0  0  0  0
    3.8186   11.1283   17.0196 C   0  0  0  0  0  0  0  0  0  0  0  0
    2.7200   11.1104   18.0486 C   0  0  0  0  0  0  0  0  0  0  0  0
    5.3522   10.4113   18.9095 N   0  0  0  0  0  0  0  0  0  0  0  0
    5.1643   11.0927   17.7029 C   0  0  0  0  0  0  0  0  0  0  0  0
    6.0804   11.7023   17.1253 O   0  0  0  0  0  0  0  0  0  0  0  0
    4.4907    9.9119   19.3124 H   0  0  0  0  0  0  0  0  0  0  0  0
    6.5865   10.2979   19.6587 C   0  0  0  0  0  0  0  0  0  0  0  0
    6.5765   10.9805   20.9933 C   0  0  0  0  0  0  0  0  0  0  0  0
    6.9186    8.0485   20.8111 N   0  0  0  0  0  0  0  0  0  0  0  0
    7.0762    8.9009   19.6909 C   0  0  0  0  0  0  0  0  0  0  0  0
    7.6700    8.4078   18.6667 O   0  0  0  0  0  0  0  0  0  0  0  0
    6.4242    8.4621   21.6371 H   0  0  0  0  0  0  0  0  0  0  0  0
    7.4021    6.6799   20.7949 C   0  0  0  0  0  0  0  0  0  0  0  0
    6.1643    5.8312   20.9532 C   0  0  0  0  0  0  0  0  0  0  0  0
    5.8327    5.5420   22.1446 O   0  0  0  0  0  0  0  0  0  0  0  0
    5.3782    5.3640   19.8715 N   0  0  0  0  0  0  0  0  0  0  0  0
    5.5399    5.5365   18.4576 C   0  0  0  0  0  0  0  0  0  0  0  0
    4.1519    5.3500   17.8327 C   0  0  0  0  0  0  0  0  0  0  0  0
    3.2560    5.1351   19.0131 C   0  0  0  0  0  0  0  0  0  0  0  0
    4.1568    4.5663   20.0429 C   0  0  0  0  0  0  0  0  0  0  0  0
    4.4024    3.1117   19.9317 C   0  0  0  0  0  0  0  0  0  0  0  0
    4.6860    2.6626   18.7805 O   0  0  0  0  0  0  0  0  0  0  0  0
    4.3414    2.2197   21.0103 N   0  0  0  0  0  0  0  0  0  0  0  0
    4.0253    2.6711   22.3636 C   0  0  0  0  0  0  0  0  0  0  0  0
    4.5842    0.8177   20.8108 C   0  0  0  0  0  0  0  0  0  0  0  0
    8.4124    6.4565   21.8343 C   0  0  0  0  0  0  0  0  0  0  0  0
   10.4785    7.8637   21.7029 C   0  0  0  0  0  0  0  0  0  0  0  0
    9.8452    6.5048   21.4432 C   0  0  0  0  0  0  0  0  0  0  0  0
   10.7290    5.4138   21.9094 C   0  0  0  0  0  0  0  0  0  0  0  0
 66 67  1  0  0  0
 67 68  1  0  0  0
 67 65  1  0  0  0
 65 52  1  0  0  0
 52 48  1  0  0  0
 48 49  1  0  0  0
 49 50  2  0  0  0
 49 46  1  0  0  0
 46 47  1  0  0  0
 46 42  1  0  0  0
 42 43  1  0  0  0
 43 44  2  0  0  0
 43 40  1  0  0  0
 40 41  1  0  0  0
 40 36  1  0  0  0
 36 37  1  0  0  0
 37 38  2  0  0  0
 37  1  1  0  0  0
  1  2  1  0  0  0
  1  3  1  0  0  0
  3  4  1  0  0  0
  4  5  2  0  0  0
  4  7  1  0  0  0
  7  8  1  0  0  0
  7  9  1  0  0  0
  9 10  1  0  0  0
 10 11  2  0  0  0
 10 13  1  0  0  0
 13 14  1  0  0  0
 13 15  1  0  0  0
 15 16  1  0  0  0
 16 17  2  0  0  0
 16 19  1  0  0  0
 19 20  1  0  0  0
 19 21  1  0  0  0
 21 22  1  0  0  0
 22 23  2  0  0  0
 22 25  1  0  0  0
 25 26  1  0  0  0
 25 27  1  0  0  0
 27 28  1  0  0  0
 28 29  2  0  0  0
 28 31  1  0  0  0
 31 32  1  0  0  0
 31 33  1  0  0  0
 33 34  1  0  0  0
 33 35  2  0  0  0
 52 53  1  0  0  0
 53 54  2  0  0  0
 53 55  1  0  0  0
 55 56  1  0  0  0
 56 57  1  0  0  0
 57 58  1  0  0  0
 58 59  1  0  0  0
 59 60  1  0  0  0
 60 61  2  0  0  0
 60 62  1  0  0  0
 62 63  1  0  0  0
 62 64  1  0  0  0
 59 55  1  0  0  0
 48 51  1  0  0  0
 42 45  1  0  0  0
 36 39  1  0  0  0
  3  6  1  0  0  0
  9 12  1  0  0  0
 15 18  1  0  0  0
 21 24  1  0  0  0
 27 30  1  0  0  0
M  END
> <minimizedAffinity>
-7.48640

> <CNNscore>
0.2669502795

> <CNNaffinity>
6.3663530350

> <CNN_VS>
1.6994997263

> <CNNaffinity_variance>
0.2867361009

$$$$
[H]N(C(=O)[C@@]([H])(N([H])C(=O)[C@@]([H])(N([H])C(=O)[C@@]([H])(N([H])C(=O)[C@@]([H])(C(=O)C([H])([H])[H])C([H])([H])[H])C([H])([H])[H])C([H])([H])[H])C([H])([H])[H])[C@]([H])(C(=O)N([H])[C@]([H])(C(=O)N([H])[C@]([H])(C(=O)N([H])[C@]([H])(C(=O)N([H])[C@]([H])(C(=O)N1C([H])([H])C([H])([H])C([H])([H])[C@@]1([H])C(=O)N(C([H])([H])[H])C([H])([H])[H])C([H])([H])C([H])(C([H])([H])[H])C([H])([H])[H])C([H])([H])[H])C([H])([H])[H])C([H])([H])[H])C([H])([H])[H]


 68 68  0  0  0  0  0  0  0  0999 V2000
    4.1946   10.0822   15.3045 C   0  0  0  0  0  0  0  0  0  0  0  0
    5.1014    9.3360   16.2938 C   0  0  0  0  0  0  0  0  0  0  0  0
    3.3173   10.9726   16.0144 N   0  0  0  0  0  0  0  0  0  0  0  0
    2.9623   12.2455   15.5430 C   0  0  0  0  0  0  0  0  0  0  0  0
    3.4575   12.6538   14.4433 O   0  0  0  0  0  0  0  0  0  0  0  0
    2.9255   10.6349   16.9260 H   0  0  0  0  0  0  0  0  0  0  0  0
    2.0447   13.1621   16.2337 C   0  0  0  0  0  0  0  0  0  0  0  0
    1.7372   14.2859   15.2404 C   0  0  0  0  0  0  0  0  0  0  0  0
    2.6316   13.7110   17.4457 N   0  0  0  0  0  0  0  0  0  0  0  0
    2.4892   13.1096   18.7242 C   0  0  0  0  0  0  0  0  0  0  0  0
    1.7762   12.0407   18.7601 O   0  0  0  0  0  0  0  0  0  0  0  0
    3.1663   14.5784   17.3539 H   0  0  0  0  0  0  0  0  0  0  0  0
    3.0978   13.6472   19.9259 C   0  0  0  0  0  0  0  0  0  0  0  0
    2.0752   14.5300   20.6966 C   0  0  0  0  0  0  0  0  0  0  0  0
    4.2704   14.4723   19.6738 N   0  0  0  0  0  0  0  0  0  0  0  0
    5.5451   13.8683   19.6788 C   0  0  0  0  0  0  0  0  0  0  0  0
    5.6125   12.5958   19.9190 O   0  0  0  0  0  0  0  0  0  0  0  0
    4.1197   15.4805   19.4884 H   0  0  0  0  0  0  0  0  0  0  0  0
    6.8199   14.5239   19.4395 C   0  0  0  0  0  0  0  0  0  0  0  0
    7.1060   15.5020   20.6101 C   0  0  0  0  0  0  0  0  0  0  0  0
    6.7912   15.2921   18.2075 N   0  0  0  0  0  0  0  0  0  0  0  0
    7.5376   14.9474   17.0293 C   0  0  0  0  0  0  0  0  0  0  0  0
    8.2739   13.9115   17.1237 O   0  0  0  0  0  0  0  0  0  0  0  0
    6.1859   16.1482   18.1570 H   0  0  0  0  0  0  0  0  0  0  0  0
    7.4576   15.7369   15.7999 C   0  0  0  0  0  0  0  0  0  0  0  0
    8.5122   16.8658   15.8347 C   0  0  0  0  0  0  0  0  0  0  0  0
    6.1293   16.3346   15.6659 N   0  0  0  0  0  0  0  0  0  0  0  0
    5.7891   17.5426   16.2987 C   0  0  0  0  0  0  0  0  0  0  0  0
    6.6512   18.1236   17.0055 O   0  0  0  0  0  0  0  0  0  0  0  0
    5.4185   15.8455   15.0792 H   0  0  0  0  0  0  0  0  0  0  0  0
    4.4173   18.0973   16.1120 C   0  0  0  0  0  0  0  0  0  0  0  0
    4.3511   19.5869   16.3350 C   0  0  0  0  0  0  0  0  0  0  0  0
    3.3683   17.3413   16.7689 C   0  0  0  0  0  0  0  0  0  0  0  0
    1.9038   17.5855   16.6334 C   0  0  0  0  0  0  0  0  0  0  0  0
    3.6644   16.3988   17.5214 O   0  0  0  0  0  0  0  0  0  0  0  0
    4.1929    8.0224   13.8310 N   0  0  0  0  0  0  0  0  0  0  0  0
    3.5453    9.1501   14.3869 C   0  0  0  0  0  0  0  0  0  0  0  0
    2.3221    9.2962   14.0182 O   0  0  0  0  0  0  0  0  0  0  0  0
    5.2090    7.8080   14.0590 H   0  0  0  0  0  0  0  0  0  0  0  0
    3.5318    7.1019   12.9331 C   0  0  0  0  0  0  0  0  0  0  0  0
    4.5296    6.6643   11.8945 C   0  0  0  0  0  0  0  0  0  0  0  0
    3.5312    5.5901   14.9708 N   0  0  0  0  0  0  0  0  0  0  0  0
    3.0313    5.9037   13.7030 C   0  0  0  0  0  0  0  0  0  0  0  0
    2.1556    5.2258   13.1391 O   0  0  0  0  0  0  0  0  0  0  0  0
    4.2798    6.2528   15.3636 H   0  0  0  0  0  0  0  0  0  0  0  0
    3.1334    4.4786   15.8097 C   0  0  0  0  0  0  0  0  0  0  0  0
    3.8088    3.1784   15.4922 C   0  0  0  0  0  0  0  0  0  0  0  0
    4.3499    4.9365   18.0025 N   0  0  0  0  0  0  0  0  0  0  0  0
    3.1571    4.8447   17.2442 C   0  0  0  0  0  0  0  0  0  0  0  0
    2.0602    5.1040   17.8560 O   0  0  0  0  0  0  0  0  0  0  0  0
    5.2387    4.7304   17.4874 H   0  0  0  0  0  0  0  0  0  0  0  0
    4.3286    5.3128   19.4044 C   0  0  0  0  0  0  0  0  0  0  0  0
    5.6195    6.0635   19.6222 C   0  0  0  0  0  0  0  0  0  0  0  0
    6.6283    5.6413   18.9762 O   0  0  0  0  0  0  0  0  0  0  0  0
    5.7519    7.1833   20.4793 N   0  0  0  0  0  0  0  0  0  0  0  0
    4.7882    7.8381   21.3146 C   0  0  0  0  0  0  0  0  0  0  0  0
    5.2967    9.2688   21.5302 C   0  0  0  0  0  0  0  0  0  0  0  0
    6.5448    9.3311   20.7053 C   0  0  0  0  0  0  0  0  0  0  0  0
    7.0077    7.9245   20.6558 C   0  0  0  0  0  0  0  0  0  0  0  0
    7.7786    7.4727   21.8349 C   0  0  0  0  0  0  0  0  0  0  0  0
    7.2877    6.5202   22.5125 O   0  0  0  0  0  0  0  0  0  0  0  0
    9.0004    8.0291   22.2353 N   0  0  0  0  0  0  0  0  0  0  0  0
    9.6242    9.1249   21.4970 C   0  0  0  0  0  0  0  0  0  0  0  0
    9.6782    7.5354   23.4020 C   0  0  0  0  0  0  0  0  0  0  0  0
    4.1699    4.1403   20.2710 C   0  0  0  0  0  0  0  0  0  0  0  0
    3.9125    4.1906   22.7605 C   0  0  0  0  0  0  0  0  0  0  0  0
    4.8718    4.1348   21.5808 C   0  0  0  0  0  0  0  0  0  0  0  0
    5.9203    3.1147   21.8019 C   0  0  0  0  0  0  0  0  0  0  0  0
 66 67  1  0  0  0
 67 68  1  0  0  0
 67 65  1  0  0  0
 65 52  1  0  0  0
 52 48  1  0  0  0
 48 49  1  0  0  0
 49 50  2  0  0  0
 49 46  1  0  0  0
 46 47  1  0  0  0
 46 42  1  0  0  0
 42 43  1  0  0  0
 43 44  2  0  0  0
 43 40  1  0  0  0
 40 41  1  0  0  0
 40 36  1  0  0  0
 36 37  1  0  0  0
 37 38  2  0  0  0
 37  1  1  0  0  0
  1  2  1  0  0  0
  1  3  1  0  0  0
  3  4  1  0  0  0
  4  5  2  0  0  0
  4  7  1  0  0  0
  7  8  1  0  0  0
  7  9  1  0  0  0
  9 10  1  0  0  0
 10 11  2  0  0  0
 10 13  1  0  0  0
 13 14  1  0  0  0
 13 15  1  0  0  0
 15 16  1  0  0  0
 16 17  2  0  0  0
 16 19  1  0  0  0
 19 20  1  0  0  0
 19 21  1  0  0  0
 21 22  1  0  0  0
 22 23  2  0  0  0
 22 25  1  0  0  0
 25 26  1  0  0  0
 25 27  1  0  0  0
 27 28  1  0  0  0
 28 29  2  0  0  0
 28 31  1  0  0  0
 31 32  1  0  0  0
 31 33  1  0  0  0
 33 34  1  0  0  0
 33 35  2  0  0  0
 52 53  1  0  0  0
 53 54  2  0  0  0
 53 55  1  0  0  0
 55 56  1  0  0  0
 56 57  1  0  0  0
 57 58  1  0  0  0
 58 59  1  0  0  0
 59 60  1  0  0  0
 60 61  2  0  0  0
 60 62  1  0  0  0
 62 63  1  0  0  0
 62 64  1  0  0  0
 59 55  1  0  0  0
 48 51  1  0  0  0
 42 45  1  0  0  0
 36 39  1  0  0  0
  3  6  1  0  0  0
  9 12  1  0  0  0
 15 18  1  0  0  0
 21 24  1  0  0  0
 27 30  1  0  0  0
M  END
> <minimizedAffinity>
-7.61409

> <CNNscore>
0.2337970138

> <CNNaffinity>
6.5988478661

> <CNN_VS>
1.5427908897

> <CNNaffinity_variance>
0.7736231089

$$$$
[H]N(C(=O)[C@@]([H])(N([H])C(=O)[C@@]([H])(N([H])C(=O)[C@@]([H])(N([H])C(=O)[C@@]([H])(C(=O)C([H])([H])[H])C([H])([H])[H])C([H])([H])[H])C([H])([H])[H])C([H])([H])[H])[C@]([H])(C(=O)N([H])[C@]([H])(C(=O)N([H])[C@]([H])(C(=O)N([H])[C@]([H])(C(=O)N([H])[C@]([H])(C(=O)N1C([H])([H])C([H])([H])C([H])([H])[C@@]1([H])C(=O)N(C([H])([H])[H])C([H])([H])[H])C([H])([H])C([H])(C([H])([H])[H])C([H])([H])[H])C([H])([H])[H])C([H])([H])[H])C([H])([H])[H])C([H])([H])[H]


 68 68  0  0  0  0  0  0  0  0999 V2000
    3.6529    4.6416   17.2061 C   0  0  0  0  0  0  0  0  0  0  0  0
    2.1454    4.8107   16.9682 C   0  0  0  0  0  0  0  0  0  0  0  0
    3.8838    3.9951   18.4691 N   0  0  0  0  0  0  0  0  0  0  0  0
    4.2416    2.6439   18.5912 C   0  0  0  0  0  0  0  0  0  0  0  0
    4.3445    1.9377   17.5367 O   0  0  0  0  0  0  0  0  0  0  0  0
    3.7827    4.5796   19.3332 H   0  0  0  0  0  0  0  0  0  0  0  0
    4.5124    1.9673   19.8671 C   0  0  0  0  0  0  0  0  0  0  0  0
    3.6254    0.7193   19.8842 C   0  0  0  0  0  0  0  0  0  0  0  0
    4.2081    2.8143   21.0092 N   0  0  0  0  0  0  0  0  0  0  0  0
    5.1716    3.1884   21.9829 C   0  0  0  0  0  0  0  0  0  0  0  0
    6.3513    2.7077   21.8118 O   0  0  0  0  0  0  0  0  0  0  0  0
    3.2438    3.1433   21.1025 H   0  0  0  0  0  0  0  0  0  0  0  0
    4.8690    4.0543   23.1064 C   0  0  0  0  0  0  0  0  0  0  0  0
    3.3308    4.2410   23.2410 C   0  0  0  0  0  0  0  0  0  0  0  0
    5.4534    5.3834   23.0001 N   0  0  0  0  0  0  0  0  0  0  0  0
    5.1506    6.1750   21.8725 C   0  0  0  0  0  0  0  0  0  0  0  0
    4.3654    5.6721   20.9714 O   0  0  0  0  0  0  0  0  0  0  0  0
    6.0677    5.7030   23.7708 H   0  0  0  0  0  0  0  0  0  0  0  0
    5.6285    7.5201   21.5997 C   0  0  0  0  0  0  0  0  0  0  0  0
    6.0377    7.6112   20.1053 C   0  0  0  0  0  0  0  0  0  0  0  0
    6.7943    7.8359   22.4059 N   0  0  0  0  0  0  0  0  0  0  0  0
    6.9413    9.0472   23.1643 C   0  0  0  0  0  0  0  0  0  0  0  0
    5.9774    9.8762   23.0759 O   0  0  0  0  0  0  0  0  0  0  0  0
    7.5810    7.1425   22.4545 H   0  0  0  0  0  0  0  0  0  0  0  0
    8.1236    9.3119   23.9848 C   0  0  0  0  0  0  0  0  0  0  0  0
    8.1725    8.3174   25.1665 C   0  0  0  0  0  0  0  0  0  0  0  0
    8.0789   10.6744   24.5150 N   0  0  0  0  0  0  0  0  0  0  0  0
    9.2237   11.4875   24.5761 C   0  0  0  0  0  0  0  0  0  0  0  0
   10.3200   11.0273   24.1677 O   0  0  0  0  0  0  0  0  0  0  0  0
    7.1658   11.0487   24.8538 H   0  0  0  0  0  0  0  0  0  0  0  0
    9.1026   12.8699   25.1227 C   0  0  0  0  0  0  0  0  0  0  0  0
    9.0775   12.9051   26.6298 C   0  0  0  0  0  0  0  0  0  0  0  0
    8.0860   13.6826   24.4828 C   0  0  0  0  0  0  0  0  0  0  0  0
    7.8346   13.7664   23.0156 C   0  0  0  0  0  0  0  0  0  0  0  0
    7.3344   14.3895   25.1739 O   0  0  0  0  0  0  0  0  0  0  0  0
    3.7032    7.1384   16.7847 N   0  0  0  0  0  0  0  0  0  0  0  0
    4.3582    5.9039   17.0014 C   0  0  0  0  0  0  0  0  0  0  0  0
    5.6420    5.9765   17.0049 O   0  0  0  0  0  0  0  0  0  0  0  0
    2.6421    7.1959   16.7527 H   0  0  0  0  0  0  0  0  0  0  0  0
    4.4163    8.3819   16.5959 C   0  0  0  0  0  0  0  0  0  0  0  0
    4.0173    8.9514   15.2608 C   0  0  0  0  0  0  0  0  0  0  0  0
    4.5000   10.6780   17.6723 N   0  0  0  0  0  0  0  0  0  0  0  0
    4.0587    9.3513   17.6966 C   0  0  0  0  0  0  0  0  0  0  0  0
    3.3539    8.8938   18.6122 O   0  0  0  0  0  0  0  0  0  0  0  0
    5.0961   10.9650   16.8261 H   0  0  0  0  0  0  0  0  0  0  0  0
    4.2236   11.7024   18.6581 C   0  0  0  0  0  0  0  0  0  0  0  0
    5.0475   11.6111   19.9072 C   0  0  0  0  0  0  0  0  0  0  0  0
    3.5953   14.1728   18.6733 N   0  0  0  0  0  0  0  0  0  0  0  0
    4.1894   13.0503   18.0462 C   0  0  0  0  0  0  0  0  0  0  0  0
    4.7219   13.2438   16.8956 O   0  0  0  0  0  0  0  0  0  0  0  0
    3.1720   14.0016   19.6163 H   0  0  0  0  0  0  0  0  0  0  0  0
    3.5964   15.4805   18.0431 C   0  0  0  0  0  0  0  0  0  0  0  0
    3.5917   16.4616   19.1898 C   0  0  0  0  0  0  0  0  0  0  0  0
    4.1930   17.5619   18.9874 O   0  0  0  0  0  0  0  0  0  0  0  0
    2.9633   16.2229   20.4365 N   0  0  0  0  0  0  0  0  0  0  0  0
    2.2425   15.0795   20.9144 C   0  0  0  0  0  0  0  0  0  0  0  0
    1.3198   15.5801   22.0323 C   0  0  0  0  0  0  0  0  0  0  0  0
    1.5612   17.0577   22.0583 C   0  0  0  0  0  0  0  0  0  0  0  0
    2.9388   17.2012   21.5319 C   0  0  0  0  0  0  0  0  0  0  0  0
    4.0174   16.9814   22.5203 C   0  0  0  0  0  0  0  0  0  0  0  0
    4.3584   15.7806   22.7420 O   0  0  0  0  0  0  0  0  0  0  0  0
    4.6719   18.0097   23.2109 N   0  0  0  0  0  0  0  0  0  0  0  0
    4.3319   19.4149   22.9993 C   0  0  0  0  0  0  0  0  0  0  0  0
    5.7036   17.7057   24.1636 C   0  0  0  0  0  0  0  0  0  0  0  0
    2.4624   15.6337   17.1257 C   0  0  0  0  0  0  0  0  0  0  0  0
    2.0771   17.7855   15.9060 C   0  0  0  0  0  0  0  0  0  0  0  0
    2.6771   16.3879   15.8635 C   0  0  0  0  0  0  0  0  0  0  0  0
    4.0434   16.4181   15.2968 C   0  0  0  0  0  0  0  0  0  0  0  0
 66 67  1  0  0  0
 67 68  1  0  0  0
 67 65  1  0  0  0
 65 52  1  0  0  0
 52 48  1  0  0  0
 48 49  1  0  0  0
 49 50  2  0  0  0
 49 46  1  0  0  0
 46 47  1  0  0  0
 46 42  1  0  0  0
 42 43  1  0  0  0
 43 44  2  0  0  0
 43 40  1  0  0  0
 40 41  1  0  0  0
 40 36  1  0  0  0
 36 37  1  0  0  0
 37 38  2  0  0  0
 37  1  1  0  0  0
  1  2  1  0  0  0
  1  3  1  0  0  0
  3  4  1  0  0  0
  4  5  2  0  0  0
  4  7  1  0  0  0
  7  8  1  0  0  0
  7  9  1  0  0  0
  9 10  1  0  0  0
 10 11  2  0  0  0
 10 13  1  0  0  0
 13 14  1  0  0  0
 13 15  1  0  0  0
 15 16  1  0  0  0
 16 17  2  0  0  0
 16 19  1  0  0  0
 19 20  1  0  0  0
 19 21  1  0  0  0
 21 22  1  0  0  0
 22 23  2  0  0  0
 22 25  1  0  0  0
 25 26  1  0  0  0
 25 27  1  0  0  0
 27 28  1  0  0  0
 28 29  2  0  0  0
 28 31  1  0  0  0
 31 32  1  0  0  0
 31 33  1  0  0  0
 33 34  1  0  0  0
 33 35  2  0  0  0
 52 53  1  0  0  0
 53 54  2  0  0  0
 53 55  1  0  0  0
 55 56  1  0  0  0
 56 57  1  0  0  0
 57 58  1  0  0  0
 58 59  1  0  0  0
 59 60  1  0  0  0
 60 61  2  0  0  0
 60 62  1  0  0  0
 62 63  1  0  0  0
 62 64  1  0  0  0
 59 55  1  0  0  0
 48 51  1  0  0  0
 42 45  1  0  0  0
 36 39  1  0  0  0
  3  6  1  0  0  0
  9 12  1  0  0  0
 15 18  1  0  0  0
 21 24  1  0  0  0
 27 30  1  0  0  0
M  END
> <minimizedAffinity>
-9.21909

> <CNNscore>
0.2230289280

> <CNNaffinity>
6.6232476234

> <CNN_VS>
1.4771758318

> <CNNaffinity_variance>
0.5452467203

$$$$
[H]N(C(=O)[C@@]([H])(N([H])C(=O)[C@@]([H])(N([H])C(=O)[C@@]([H])(N([H])C(=O)[C@@]([H])(C(=O)C([H])([H])[H])C([H])([H])[H])C([H])([H])[H])C([H])([H])[H])C([H])([H])[H])[C@]([H])(C(=O)N([H])[C@]([H])(C(=O)N([H])[C@]([H])(C(=O)N([H])[C@]([H])(C(=O)N([H])[C@]([H])(C(=O)N1C([H])([H])C([H])([H])C([H])([H])[C@@]1([H])C(=O)N(C([H])([H])[H])C([H])([H])[H])C([H])([H])C([H])(C([H])([H])[H])C([H])([H])[H])C([H])([H])[H])C([H])([H])[H])C([H])([H])[H])C([H])([H])[H]


 68 68  0  0  0  0  0  0  0  0999 V2000
    4.2310    8.1261   13.4794 C   0  0  0  0  0  0  0  0  0  0  0  0
    2.8683    8.8098   13.2966 C   0  0  0  0  0  0  0  0  0  0  0  0
    4.1675    6.7671   13.0155 N   0  0  0  0  0  0  0  0  0  0  0  0
    4.4793    6.3839   11.7023 C   0  0  0  0  0  0  0  0  0  0  0  0
    4.8117    7.2816   10.8626 O   0  0  0  0  0  0  0  0  0  0  0  0
    3.8789    6.0361   13.7088 H   0  0  0  0  0  0  0  0  0  0  0  0
    4.4516    4.9993   11.2111 C   0  0  0  0  0  0  0  0  0  0  0  0
    5.8385    4.7286   10.6214 C   0  0  0  0  0  0  0  0  0  0  0  0
    3.4283    4.8003   10.1974 N   0  0  0  0  0  0  0  0  0  0  0  0
    2.1087    4.3676   10.4940 C   0  0  0  0  0  0  0  0  0  0  0  0
    1.8661    4.1313   11.7339 O   0  0  0  0  0  0  0  0  0  0  0  0
    3.6926    4.9809    9.2256 H   0  0  0  0  0  0  0  0  0  0  0  0
    1.0842    4.1950    9.4820 C   0  0  0  0  0  0  0  0  0  0  0  0
    1.6133    3.2923    8.3312 C   0  0  0  0  0  0  0  0  0  0  0  0
    0.6380    5.4417    8.8768 N   0  0  0  0  0  0  0  0  0  0  0  0
   -0.7448    5.6631    8.7083 C   0  0  0  0  0  0  0  0  0  0  0  0
   -1.5600    4.7323    9.0962 O   0  0  0  0  0  0  0  0  0  0  0  0
    1.3619    6.1293    8.6001 H   0  0  0  0  0  0  0  0  0  0  0  0
   -1.3743    6.8421    8.1373 C   0  0  0  0  0  0  0  0  0  0  0  0
   -2.9126    6.6363    8.1371 C   0  0  0  0  0  0  0  0  0  0  0  0
   -0.9478    7.0513    6.7650 N   0  0  0  0  0  0  0  0  0  0  0  0
   -0.7239    8.3455    6.1827 C   0  0  0  0  0  0  0  0  0  0  0  0
   -0.9482    9.3419    6.9450 O   0  0  0  0  0  0  0  0  0  0  0  0
   -0.7801    6.2156    6.1524 H   0  0  0  0  0  0  0  0  0  0  0  0
   -0.2683    8.5082    4.8017 C   0  0  0  0  0  0  0  0  0  0  0  0
    1.1787    9.0501    4.7896 C   0  0  0  0  0  0  0  0  0  0  0  0
   -1.1320    9.4501    4.0899 N   0  0  0  0  0  0  0  0  0  0  0  0
   -1.6271    9.1796    2.8027 C   0  0  0  0  0  0  0  0  0  0  0  0
   -1.3134    8.0977    2.2445 O   0  0  0  0  0  0  0  0  0  0  0  0
   -1.3864   10.3467    4.5589 H   0  0  0  0  0  0  0  0  0  0  0  0
   -2.5088   10.1832    2.1395 C   0  0  0  0  0  0  0  0  0  0  0  0
   -3.6438    9.5524    1.3735 C   0  0  0  0  0  0  0  0  0  0  0  0
   -1.7999   11.2242    1.4202 C   0  0  0  0  0  0  0  0  0  0  0  0
   -2.3003   11.9448    0.2147 C   0  0  0  0  0  0  0  0  0  0  0  0
   -0.6734   11.5817    1.8016 O   0  0  0  0  0  0  0  0  0  0  0  0
    3.8876    8.3868   15.9751 N   0  0  0  0  0  0  0  0  0  0  0  0
    4.7280    8.3092   14.8403 C   0  0  0  0  0  0  0  0  0  0  0  0
    5.9831    8.4137   15.1000 O   0  0  0  0  0  0  0  0  0  0  0  0
    2.8309    8.3218   15.8781 H   0  0  0  0  0  0  0  0  0  0  0  0
    4.3967    8.5560   17.3178 C   0  0  0  0  0  0  0  0  0  0  0  0
    3.8062    9.8189   17.8857 C   0  0  0  0  0  0  0  0  0  0  0  0
    4.4095    6.0755   17.8513 N   0  0  0  0  0  0  0  0  0  0  0  0
    4.0008    7.3743   18.1698 C   0  0  0  0  0  0  0  0  0  0  0  0
    3.2968    7.6337   19.1606 O   0  0  0  0  0  0  0  0  0  0  0  0
    5.0240    5.9719   16.9763 H   0  0  0  0  0  0  0  0  0  0  0  0
    4.1036    4.8651   18.5854 C   0  0  0  0  0  0  0  0  0  0  0  0
    4.5391    3.5968   17.9154 C   0  0  0  0  0  0  0  0  0  0  0  0
    5.8566    5.0498   20.4268 N   0  0  0  0  0  0  0  0  0  0  0  0
    4.5061    4.9747   20.0061 C   0  0  0  0  0  0  0  0  0  0  0  0
    3.6106    5.0131   20.9232 O   0  0  0  0  0  0  0  0  0  0  0  0
    6.5767    5.0259   19.6662 H   0  0  0  0  0  0  0  0  0  0  0  0
    6.2065    5.1705   21.8305 C   0  0  0  0  0  0  0  0  0  0  0  0
    7.1132    6.3749   21.9000 C   0  0  0  0  0  0  0  0  0  0  0  0
    8.3563    6.1345   21.9991 O   0  0  0  0  0  0  0  0  0  0  0  0
    6.6577    7.7153   21.8545 N   0  0  0  0  0  0  0  0  0  0  0  0
    5.3298    8.2469   21.7593 C   0  0  0  0  0  0  0  0  0  0  0  0
    5.4640    9.6557   21.1686 C   0  0  0  0  0  0  0  0  0  0  0  0
    6.9318    9.7934   20.9061 C   0  0  0  0  0  0  0  0  0  0  0  0
    7.5552    8.8775   21.8899 C   0  0  0  0  0  0  0  0  0  0  0  0
    7.7203    9.4325   23.2513 C   0  0  0  0  0  0  0  0  0  0  0  0
    6.9922    8.9405   24.1652 O   0  0  0  0  0  0  0  0  0  0  0  0
    8.6224   10.4527   23.5800 N   0  0  0  0  0  0  0  0  0  0  0  0
    9.4943   11.0599   22.5769 C   0  0  0  0  0  0  0  0  0  0  0  0
    8.7107   10.9407   24.9285 C   0  0  0  0  0  0  0  0  0  0  0  0
    6.8169    3.9374   22.3381 C   0  0  0  0  0  0  0  0  0  0  0  0
    6.6034    1.5289   21.6903 C   0  0  0  0  0  0  0  0  0  0  0  0
    5.9756    2.7144   22.4081 C   0  0  0  0  0  0  0  0  0  0  0  0
    5.4469    2.3106   23.7296 C   0  0  0  0  0  0  0  0  0  0  0  0
 66 67  1  0  0  0
 67 68  1  0  0  0
 67 65  1  0  0  0
 65 52  1  0  0  0
 52 48  1  0  0  0
 48 49  1  0  0  0
 49 50  2  0  0  0
 49 46  1  0  0  0
 46 47  1  0  0  0
 46 42  1  0  0  0
 42 43  1  0  0  0
 43 44  2  0  0  0
 43 40  1  0  0  0
 40 41  1  0  0  0
 40 36  1  0  0  0
 36 37  1  0  0  0
 37 38  2  0  0  0
 37  1  1  0  0  0
  1  2  1  0  0  0
  1  3  1  0  0  0
  3  4  1  0  0  0
  4  5  2  0  0  0
  4  7  1  0  0  0
  7  8  1  0  0  0
  7  9  1  0  0  0
  9 10  1  0  0  0
 10 11  2  0  0  0
 10 13  1  0  0  0
 13 14  1  0  0  0
 13 15  1  0  0  0
 15 16  1  0  0  0
 16 17  2  0  0  0
 16 19  1  0  0  0
 19 20  1  0  0  0
 19 21  1  0  0  0
 21 22  1  0  0  0
 22 23  2  0  0  0
 22 25  1  0  0  0
 25 26  1  0  0  0
 25 27  1  0  0  0
 27 28  1  0  0  0
 28 29  2  0  0  0
 28 31  1  0  0  0
 31 32  1  0  0  0
 31 33  1  0  0  0
 33 34  1  0  0  0
 33 35  2  0  0  0
 52 53  1  0  0  0
 53 54  2  0  0  0
 53 55  1  0  0  0
 55 56  1  0  0  0
 56 57  1  0  0  0
 57 58  1  0  0  0
 58 59  1  0  0  0
 59 60  1  0  0  0
 60 61  2  0  0  0
 60 62  1  0  0  0
 62 63  1  0  0  0
 62 64  1  0  0  0
 59 55  1  0  0  0
 48 51  1  0  0  0
 42 45  1  0  0  0
 36 39  1  0  0  0
  3  6  1  0  0  0
  9 12  1  0  0  0
 15 18  1  0  0  0
 21 24  1  0  0  0
 27 30  1  0  0  0
M  END
> <minimizedAffinity>
-7.47576

> <CNNscore>
0.2019879967

> <CNNaffinity>
5.8511304855

> <CNN_VS>
1.1818581820

> <CNNaffinity_variance>
1.0336669683

$$$$
[H]N(C(=O)[C@@]([H])(N([H])C(=O)[C@@]([H])(N([H])C(=O)[C@@]([H])(N([H])C(=O)[C@@]([H])(C(=O)C([H])([H])[H])C([H])([H])[H])C([H])([H])[H])C([H])([H])[H])C([H])([H])[H])[C@]([H])(C(=O)N([H])[C@]([H])(C(=O)N([H])[C@]([H])(C(=O)N([H])[C@]([H])(C(=O)N([H])[C@]([H])(C(=O)N1C([H])([H])C([H])([H])C([H])([H])[C@@]1([H])C(=O)N(C([H])([H])[H])C([H])([H])[H])C([H])([H])C([H])(C([H])([H])[H])C([H])([H])[H])C([H])([H])[H])C([H])([H])[H])C([H])([H])[H])C([H])([H])[H]


 68 68  0  0  0  0  0  0  0  0999 V2000
    3.5076    8.5565   13.7626 C   0  0  0  0  0  0  0  0  0  0  0  0
    2.5991    9.7941   13.7886 C   0  0  0  0  0  0  0  0  0  0  0  0
    2.7425    7.3899   13.4161 N   0  0  0  0  0  0  0  0  0  0  0  0
    3.1300    6.4796   12.4212 C   0  0  0  0  0  0  0  0  0  0  0  0
    4.1994    6.7024   11.7671 O   0  0  0  0  0  0  0  0  0  0  0  0
    1.8560    7.2215   13.9491 H   0  0  0  0  0  0  0  0  0  0  0  0
    2.3824    5.2647   12.0688 C   0  0  0  0  0  0  0  0  0  0  0  0
    3.3633    4.0998   12.2271 C   0  0  0  0  0  0  0  0  0  0  0  0
    1.8756    5.3117   10.7066 N   0  0  0  0  0  0  0  0  0  0  0  0
    0.6433    5.9220   10.3523 C   0  0  0  0  0  0  0  0  0  0  0  0
   -0.0302    6.4222   11.3261 O   0  0  0  0  0  0  0  0  0  0  0  0
    2.4473    4.8725    9.9806 H   0  0  0  0  0  0  0  0  0  0  0  0
    0.1545    5.9886    8.9884 C   0  0  0  0  0  0  0  0  0  0  0  0
    0.0367    4.5578    8.3900 C   0  0  0  0  0  0  0  0  0  0  0  0
    1.0076    6.7574    8.0937 N   0  0  0  0  0  0  0  0  0  0  0  0
    0.4337    7.7874    7.3195 C   0  0  0  0  0  0  0  0  0  0  0  0
   -0.8407    7.9962    7.4366 O   0  0  0  0  0  0  0  0  0  0  0  0
    2.0161    6.5215    8.0684 H   0  0  0  0  0  0  0  0  0  0  0  0
    1.1234    8.6614    6.3852 C   0  0  0  0  0  0  0  0  0  0  0  0
    0.1526    9.0222    5.2293 C   0  0  0  0  0  0  0  0  0  0  0  0
    2.2832    8.0032    5.8104 N   0  0  0  0  0  0  0  0  0  0  0  0
    3.6337    8.4621    5.9827 C   0  0  0  0  0  0  0  0  0  0  0  0
    3.7733    9.5273    6.6683 O   0  0  0  0  0  0  0  0  0  0  0  0
    2.1426    7.1334    5.2398 H   0  0  0  0  0  0  0  0  0  0  0  0
    4.7756    7.7515    5.4063 C   0  0  0  0  0  0  0  0  0  0  0  0
    5.6999    7.2448    6.5363 C   0  0  0  0  0  0  0  0  0  0  0  0
    5.5401    8.6424    4.5338 N   0  0  0  0  0  0  0  0  0  0  0  0
    5.9427    8.2561    3.2438 C   0  0  0  0  0  0  0  0  0  0  0  0
    5.6411    7.1079    2.8301 O   0  0  0  0  0  0  0  0  0  0  0  0
    5.7884    9.5931    4.8849 H   0  0  0  0  0  0  0  0  0  0  0  0
    6.7144    9.2192    2.4064 C   0  0  0  0  0  0  0  0  0  0  0  0
    6.3972    9.1048    0.9370 C   0  0  0  0  0  0  0  0  0  0  0  0
    8.1299    9.2848    2.7153 C   0  0  0  0  0  0  0  0  0  0  0  0
    9.1548    8.2768    2.3198 C   0  0  0  0  0  0  0  0  0  0  0  0
    8.5770   10.2442    3.3648 O   0  0  0  0  0  0  0  0  0  0  0  0
    3.7391    8.6060   16.2841 N   0  0  0  0  0  0  0  0  0  0  0  0
    4.2918    8.4591   14.9907 C   0  0  0  0  0  0  0  0  0  0  0  0
    5.5569    8.2296   14.9760 O   0  0  0  0  0  0  0  0  0  0  0  0
    2.7037    8.8075   16.4164 H   0  0  0  0  0  0  0  0  0  0  0  0
    4.5275    8.4944   17.4910 C   0  0  0  0  0  0  0  0  0  0  0  0
    4.2727    9.7177   18.3304 C   0  0  0  0  0  0  0  0  0  0  0  0
    4.6597    6.0005   17.9390 N   0  0  0  0  0  0  0  0  0  0  0  0
    4.1267    7.2546   18.2534 C   0  0  0  0  0  0  0  0  0  0  0  0
    3.3022    7.4247   19.1675 O   0  0  0  0  0  0  0  0  0  0  0  0
    5.3717    5.9748   17.1352 H   0  0  0  0  0  0  0  0  0  0  0  0
    4.3630    4.7430   18.5933 C   0  0  0  0  0  0  0  0  0  0  0  0
    4.8967    3.5293   17.8937 C   0  0  0  0  0  0  0  0  0  0  0  0
    5.9854    4.9202   20.5515 N   0  0  0  0  0  0  0  0  0  0  0  0
    4.6699    4.7979   20.0409 C   0  0  0  0  0  0  0  0  0  0  0  0
    3.7183    4.7412   20.8987 O   0  0  0  0  0  0  0  0  0  0  0  0
    6.7516    4.9739   19.8390 H   0  0  0  0  0  0  0  0  0  0  0  0
    6.2402    4.9843   21.9792 C   0  0  0  0  0  0  0  0  0  0  0  0
    7.1375    6.1846   22.1576 C   0  0  0  0  0  0  0  0  0  0  0  0
    8.3788    5.9427   22.2750 O   0  0  0  0  0  0  0  0  0  0  0  0
    6.6757    7.5231   22.1919 N   0  0  0  0  0  0  0  0  0  0  0  0
    5.3479    8.0549   22.0960 C   0  0  0  0  0  0  0  0  0  0  0  0
    5.4904    9.5017   21.6081 C   0  0  0  0  0  0  0  0  0  0  0  0
    6.9642    9.6629   21.3976 C   0  0  0  0  0  0  0  0  0  0  0  0
    7.5651    8.6836   22.3330 C   0  0  0  0  0  0  0  0  0  0  0  0
    7.6887    9.1435   23.7337 C   0  0  0  0  0  0  0  0  0  0  0  0
    6.9567    8.5687   24.5945 O   0  0  0  0  0  0  0  0  0  0  0  0
    8.5562   10.1604   24.1532 N   0  0  0  0  0  0  0  0  0  0  0  0
    9.4306   10.8601   23.2147 C   0  0  0  0  0  0  0  0  0  0  0  0
    8.6051   10.5524   25.5347 C   0  0  0  0  0  0  0  0  0  0  0  0
    6.8180    3.7315   22.4767 C   0  0  0  0  0  0  0  0  0  0  0  0
    6.6261    1.3389   21.7664 C   0  0  0  0  0  0  0  0  0  0  0  0
    5.9657    2.5142   22.4717 C   0  0  0  0  0  0  0  0  0  0  0  0
    5.3581    2.0872   23.7513 C   0  0  0  0  0  0  0  0  0  0  0  0
 66 67  1  0  0  0
 67 68  1  0  0  0
 67 65  1  0  0  0
 65 52  1  0  0  0
 52 48  1  0  0  0
 48 49  1  0  0  0
 49 50  2  0  0  0
 49 46  1  0  0  0
 46 47  1  0  0  0
 46 42  1  0  0  0
 42 43  1  0  0  0
 43 44  2  0  0  0
 43 40  1  0  0  0
 40 41  1  0  0  0
 40 36  1  0  0  0
 36 37  1  0  0  0
 37 38  2  0  0  0
 37  1  1  0  0  0
  1  2  1  0  0  0
  1  3  1  0  0  0
  3  4  1  0  0  0
  4  5  2  0  0  0
  4  7  1  0  0  0
  7  8  1  0  0  0
  7  9  1  0  0  0
  9 10  1  0  0  0
 10 11  2  0  0  0
 10 13  1  0  0  0
 13 14  1  0  0  0
 13 15  1  0  0  0
 15 16  1  0  0  0
 16 17  2  0  0  0
 16 19  1  0  0  0
 19 20  1  0  0  0
 19 21  1  0  0  0
 21 22  1  0  0  0
 22 23  2  0  0  0
 22 25  1  0  0  0
 25 26  1  0  0  0
 25 27  1  0  0  0
 27 28  1  0  0  0
 28 29  2  0  0  0
 28 31  1  0  0  0
 31 32  1  0  0  0
 31 33  1  0  0  0
 33 34  1  0  0  0
 33 35  2  0  0  0
 52 53  1  0  0  0
 53 54  2  0  0  0
 53 55  1  0  0  0
 55 56  1  0  0  0
 56 57  1  0  0  0
 57 58  1  0  0  0
 58 59  1  0  0  0
 59 60  1  0  0  0
 60 61  2  0  0  0
 60 62  1  0  0  0
 62 63  1  0  0  0
 62 64  1  0  0  0
 59 55  1  0  0  0
 48 51  1  0  0  0
 42 45  1  0  0  0
 36 39  1  0  0  0
  3  6  1  0  0  0
  9 12  1  0  0  0
 15 18  1  0  0  0
 21 24  1  0  0  0
 27 30  1  0  0  0
M  END
> <minimizedAffinity>
-7.67874

> <CNNscore>
0.2005594373

> <CNNaffinity>
5.8331642151

> <CNN_VS>
1.1698961258

> <CNNaffinity_variance>
1.1457765102

$$$$
[H]N(C(=O)[C@@]([H])(N([H])C(=O)[C@@]([H])(N([H])C(=O)[C@@]([H])(N([H])C(=O)[C@@]([H])(C(=O)C([H])([H])[H])C([H])([H])[H])C([H])([H])[H])C([H])([H])[H])C([H])([H])[H])[C@]([H])(C(=O)N([H])[C@]([H])(C(=O)N([H])[C@]([H])(C(=O)N([H])[C@]([H])(C(=O)N([H])[C@]([H])(C(=O)N1C([H])([H])C([H])([H])C([H])([H])[C@@]1([H])C(=O)N(C([H])([H])[H])C([H])([H])[H])C([H])([H])C([H])(C([H])([H])[H])C([H])([H])[H])C([H])([H])[H])C([H])([H])[H])C([H])([H])[H])C([H])([H])[H]


 68 68  0  0  0  0  0  0  0  0999 V2000
    3.6927    3.2599   18.3109 C   0  0  0  0  0  0  0  0  0  0  0  0
    5.0551    2.5523   18.3443 C   0  0  0  0  0  0  0  0  0  0  0  0
    3.3629    3.6322   16.9622 N   0  0  0  0  0  0  0  0  0  0  0  0
    2.6309    2.8110   16.0914 C   0  0  0  0  0  0  0  0  0  0  0  0
    2.2568    1.6637   16.4975 O   0  0  0  0  0  0  0  0  0  0  0  0
    3.6871    4.5721   16.6307 H   0  0  0  0  0  0  0  0  0  0  0  0
    2.2549    3.1799   14.7196 C   0  0  0  0  0  0  0  0  0  0  0  0
    2.4076    1.9090   13.8795 C   0  0  0  0  0  0  0  0  0  0  0  0
    3.1001    4.2369   14.1877 N   0  0  0  0  0  0  0  0  0  0  0  0
    2.6202    5.5348   13.8689 C   0  0  0  0  0  0  0  0  0  0  0  0
    1.3629    5.7248   14.0565 O   0  0  0  0  0  0  0  0  0  0  0  0
    4.0871    4.0138   14.0369 H   0  0  0  0  0  0  0  0  0  0  0  0
    3.4725    6.5934   13.3625 C   0  0  0  0  0  0  0  0  0  0  0  0
    4.3022    6.0811   12.1508 C   0  0  0  0  0  0  0  0  0  0  0  0
    4.4190    7.1071   14.3422 N   0  0  0  0  0  0  0  0  0  0  0  0
    4.3027    8.4469   14.7677 C   0  0  0  0  0  0  0  0  0  0  0  0
    3.3543    9.1665   14.2539 O   0  0  0  0  0  0  0  0  0  0  0  0
    5.1427    6.4576   14.6999 H   0  0  0  0  0  0  0  0  0  0  0  0
    5.1431    9.1279   15.7385 C   0  0  0  0  0  0  0  0  0  0  0  0
    5.7218    8.0766   16.7227 C   0  0  0  0  0  0  0  0  0  0  0  0
    4.3782   10.0926   16.5086 N   0  0  0  0  0  0  0  0  0  0  0  0
    4.9346   11.2907   17.0735 C   0  0  0  0  0  0  0  0  0  0  0  0
    6.1826   11.4648   16.8831 O   0  0  0  0  0  0  0  0  0  0  0  0
    3.3538    9.9222   16.6621 H   0  0  0  0  0  0  0  0  0  0  0  0
    4.1195   12.2489   17.8209 C   0  0  0  0  0  0  0  0  0  0  0  0
    2.7090   11.6631   18.0560 C   0  0  0  0  0  0  0  0  0  0  0  0
    3.9934   13.4999   17.0735 N   0  0  0  0  0  0  0  0  0  0  0  0
    3.6339   13.5226   15.7149 C   0  0  0  0  0  0  0  0  0  0  0  0
    3.4197   12.4341   15.1235 O   0  0  0  0  0  0  0  0  0  0  0  0
    4.1746   14.3991   17.5707 H   0  0  0  0  0  0  0  0  0  0  0  0
    3.5174   14.8359   15.0178 C   0  0  0  0  0  0  0  0  0  0  0  0
    4.5039   15.8580   15.5227 C   0  0  0  0  0  0  0  0  0  0  0  0
    2.1590   15.3248   14.8793 C   0  0  0  0  0  0  0  0  0  0  0  0
    1.6935   16.7044   15.1997 C   0  0  0  0  0  0  0  0  0  0  0  0
    1.2686   14.5662   14.4623 O   0  0  0  0  0  0  0  0  0  0  0  0
    4.2876    4.2775   20.5526 N   0  0  0  0  0  0  0  0  0  0  0  0
    3.6394    4.3357   19.2970 C   0  0  0  0  0  0  0  0  0  0  0  0
    2.9888    5.4243   19.0846 O   0  0  0  0  0  0  0  0  0  0  0  0
    4.8476    3.4204   20.8393 H   0  0  0  0  0  0  0  0  0  0  0  0
    4.2351    5.3569   21.5130 C   0  0  0  0  0  0  0  0  0  0  0  0
    4.3363    4.7611   22.8917 C   0  0  0  0  0  0  0  0  0  0  0  0
    5.3475    7.6248   21.7517 N   0  0  0  0  0  0  0  0  0  0  0  0
    5.3826    6.3094   21.2785 C   0  0  0  0  0  0  0  0  0  0  0  0
    6.3472    5.8483   20.6450 O   0  0  0  0  0  0  0  0  0  0  0  0
    4.4661    7.9109   22.2949 H   0  0  0  0  0  0  0  0  0  0  0  0
    6.3790    8.6297   21.5985 C   0  0  0  0  0  0  0  0  0  0  0  0
    5.8713   10.0245   21.3882 C   0  0  0  0  0  0  0  0  0  0  0  0
    8.7814    8.8142   22.4307 N   0  0  0  0  0  0  0  0  0  0  0  0
    7.4156    8.5091   22.6490 C   0  0  0  0  0  0  0  0  0  0  0  0
    7.0901    8.1185   23.8264 O   0  0  0  0  0  0  0  0  0  0  0  0
    9.0310    9.1402   21.4667 H   0  0  0  0  0  0  0  0  0  0  0  0
    9.7629    8.6950   23.4936 C   0  0  0  0  0  0  0  0  0  0  0  0
   10.0978   10.1174   23.8710 C   0  0  0  0  0  0  0  0  0  0  0  0
   10.7215   10.7961   22.9972 O   0  0  0  0  0  0  0  0  0  0  0  0
    9.7543   10.7121   25.1097 N   0  0  0  0  0  0  0  0  0  0  0  0
    9.0743   10.1690   26.2489 C   0  0  0  0  0  0  0  0  0  0  0  0
    8.4741   11.3586   27.0081 C   0  0  0  0  0  0  0  0  0  0  0  0
    8.8305   12.5393   26.1589 C   0  0  0  0  0  0  0  0  0  0  0  0
   10.0581   12.1084   25.4499 C   0  0  0  0  0  0  0  0  0  0  0  0
   11.3134   12.2503   26.2196 C   0  0  0  0  0  0  0  0  0  0  0  0
   11.9076   11.1812   26.5531 O   0  0  0  0  0  0  0  0  0  0  0  0
   11.8722   13.4799   26.5920 N   0  0  0  0  0  0  0  0  0  0  0  0
   11.2423   14.7493   26.2359 C   0  0  0  0  0  0  0  0  0  0  0  0
   13.0919   13.5261   27.3500 C   0  0  0  0  0  0  0  0  0  0  0  0
   10.9222    7.9053   23.0658 C   0  0  0  0  0  0  0  0  0  0  0  0
   10.4182    5.7184   21.9569 C   0  0  0  0  0  0  0  0  0  0  0  0
   10.8643    6.4291   23.2262 C   0  0  0  0  0  0  0  0  0  0  0  0
   12.0331    5.7499   23.8274 C   0  0  0  0  0  0  0  0  0  0  0  0
 66 67  1  0  0  0
 67 68  1  0  0  0
 67 65  1  0  0  0
 65 52  1  0  0  0
 52 48  1  0  0  0
 48 49  1  0  0  0
 49 50  2  0  0  0
 49 46  1  0  0  0
 46 47  1  0  0  0
 46 42  1  0  0  0
 42 43  1  0  0  0
 43 44  2  0  0  0
 43 40  1  0  0  0
 40 41  1  0  0  0
 40 36  1  0  0  0
 36 37  1  0  0  0
 37 38  2  0  0  0
 37  1  1  0  0  0
  1  2  1  0  0  0
  1  3  1  0  0  0
  3  4  1  0  0  0
  4  5  2  0  0  0
  4  7  1  0  0  0
  7  8  1  0  0  0
  7  9  1  0  0  0
  9 10  1  0  0  0
 10 11  2  0  0  0
 10 13  1  0  0  0
 13 14  1  0  0  0
 13 15  1  0  0  0
 15 16  1  0  0  0
 16 17  2  0  0  0
 16 19  1  0  0  0
 19 20  1  0  0  0
 19 21  1  0  0  0
 21 22  1  0  0  0
 22 23  2  0  0  0
 22 25  1  0  0  0
 25 26  1  0  0  0
 25 27  1  0  0  0
 27 28  1  0  0  0
 28 29  2  0  0  0
 28 31  1  0  0  0
 31 32  1  0  0  0
 31 33  1  0  0  0
 33 34  1  0  0  0
 33 35  2  0  0  0
 52 53  1  0  0  0
 53 54  2  0  0  0
 53 55  1  0  0  0
 55 56  1  0  0  0
 56 57  1  0  0  0
 57 58  1  0  0  0
 58 59  1  0  0  0
 59 60  1  0  0  0
 60 61  2  0  0  0
 60 62  1  0  0  0
 62 63  1  0  0  0
 62 64  1  0  0  0
 59 55  1  0  0  0
 48 51  1  0  0  0
 42 45  1  0  0  0
 36 39  1  0  0  0
  3  6  1  0  0  0
  9 12  1  0  0  0
 15 18  1  0  0  0
 21 24  1  0  0  0
 27 30  1  0  0  0
M  END
> <minimizedAffinity>
-7.75613

> <CNNscore>
0.1850596815

> <CNNaffinity>
6.6585550308

> <CNN_VS>
1.2322300673

> <CNNaffinity_variance>
0.2467078418

$$$$
[H]N(C(=O)[C@@]([H])(N([H])C(=O)[C@@]([H])(N([H])C(=O)[C@@]([H])(N([H])C(=O)[C@@]([H])(C(=O)C([H])([H])[H])C([H])([H])[H])C([H])([H])[H])C([H])([H])[H])C([H])([H])[H])[C@]([H])(C(=O)N([H])[C@]([H])(C(=O)N([H])[C@]([H])(C(=O)N([H])[C@]([H])(C(=O)N([H])[C@]([H])(C(=O)N1C([H])([H])C([H])([H])C([H])([H])[C@@]1([H])C(=O)N(C([H])([H])[H])C([H])([H])[H])C([H])([H])C([H])(C([H])([H])[H])C([H])([H])[H])C([H])([H])[H])C([H])([H])[H])C([H])([H])[H])C([H])([H])[H]


 68 68  0  0  0  0  0  0  0  0999 V2000
    5.9500    5.2736   22.1775 C   0  0  0  0  0  0  0  0  0  0  0  0
    7.3660    4.8129   22.5524 C   0  0  0  0  0  0  0  0  0  0  0  0
    5.3842    4.3840   21.2004 N   0  0  0  0  0  0  0  0  0  0  0  0
    4.5753    3.2865   21.5318 C   0  0  0  0  0  0  0  0  0  0  0  0
    4.3454    3.0410   22.7599 O   0  0  0  0  0  0  0  0  0  0  0  0
    5.5901    4.5843   20.1925 H   0  0  0  0  0  0  0  0  0  0  0  0
    3.9604    2.3806   20.5518 C   0  0  0  0  0  0  0  0  0  0  0  0
    4.2660    0.9600   21.0345 C   0  0  0  0  0  0  0  0  0  0  0  0
    4.4936    2.5810   19.2139 N   0  0  0  0  0  0  0  0  0  0  0  0
    4.1287    3.6734   18.3832 C   0  0  0  0  0  0  0  0  0  0  0  0
    3.2622    4.4835   18.8780 O   0  0  0  0  0  0  0  0  0  0  0  0
    5.1602    1.8861   18.8682 H   0  0  0  0  0  0  0  0  0  0  0  0
    4.6826    3.8827   17.0592 C   0  0  0  0  0  0  0  0  0  0  0  0
    6.1040    4.5052   17.1644 C   0  0  0  0  0  0  0  0  0  0  0  0
    3.8881    4.7697   16.2217 N   0  0  0  0  0  0  0  0  0  0  0  0
    3.5367    4.3495   14.9219 C   0  0  0  0  0  0  0  0  0  0  0  0
    3.9499    3.1851   14.5282 O   0  0  0  0  0  0  0  0  0  0  0  0
    3.6003    5.6809   16.6220 H   0  0  0  0  0  0  0  0  0  0  0  0
    2.7461    5.0888   13.9521 C   0  0  0  0  0  0  0  0  0  0  0  0
    1.4613    5.6108   14.6490 C   0  0  0  0  0  0  0  0  0  0  0  0
    2.3444    4.2383   12.8456 N   0  0  0  0  0  0  0  0  0  0  0  0
    2.8442    4.3753   11.5057 C   0  0  0  0  0  0  0  0  0  0  0  0
    3.6691    5.3282   11.3172 O   0  0  0  0  0  0  0  0  0  0  0  0
    1.6549    3.4668   13.0225 H   0  0  0  0  0  0  0  0  0  0  0  0
    2.4309    3.4778   10.4264 C   0  0  0  0  0  0  0  0  0  0  0  0
    0.9992    2.9624   10.6953 C   0  0  0  0  0  0  0  0  0  0  0  0
    3.3377    2.3330   10.3429 N   0  0  0  0  0  0  0  0  0  0  0  0
    3.8319    1.8627    9.1141 C   0  0  0  0  0  0  0  0  0  0  0  0
    3.4792    2.4404    8.0547 O   0  0  0  0  0  0  0  0  0  0  0  0
    3.6243    1.8575   11.2263 H   0  0  0  0  0  0  0  0  0  0  0  0
    4.7587    0.6942    9.1050 C   0  0  0  0  0  0  0  0  0  0  0  0
    5.5970    0.6196    7.8541 C   0  0  0  0  0  0  0  0  0  0  0  0
    4.1477   -0.5610    9.4981 C   0  0  0  0  0  0  0  0  0  0  0  0
    2.8086   -1.0512    9.0630 C   0  0  0  0  0  0  0  0  0  0  0  0
    4.7521   -1.3295   10.2638 O   0  0  0  0  0  0  0  0  0  0  0  0
    4.8050    7.5236   21.9763 N   0  0  0  0  0  0  0  0  0  0  0  0
    5.9384    6.6912   21.8268 C   0  0  0  0  0  0  0  0  0  0  0  0
    6.9752    7.2848   21.3512 O   0  0  0  0  0  0  0  0  0  0  0  0
    3.8887    7.1371   22.3522 H   0  0  0  0  0  0  0  0  0  0  0  0
    4.8138    8.9288   21.6357 C   0  0  0  0  0  0  0  0  0  0  0  0
    5.9495    9.5822   22.3767 C   0  0  0  0  0  0  0  0  0  0  0  0
    6.2262    9.5227   19.6134 N   0  0  0  0  0  0  0  0  0  0  0  0
    5.0067    9.0953   20.1477 C   0  0  0  0  0  0  0  0  0  0  0  0
    4.0196    8.8288   19.4413 O   0  0  0  0  0  0  0  0  0  0  0  0
    7.0129    9.7150   20.3191 H   0  0  0  0  0  0  0  0  0  0  0  0
    6.5395    9.7161   18.2127 C   0  0  0  0  0  0  0  0  0  0  0  0
    6.3520    8.5022   17.3533 C   0  0  0  0  0  0  0  0  0  0  0  0
    4.5073   11.1457   17.6430 N   0  0  0  0  0  0  0  0  0  0  0  0
    5.9090   10.9452   17.6795 C   0  0  0  0  0  0  0  0  0  0  0  0
    6.6421   11.8956   17.2279 O   0  0  0  0  0  0  0  0  0  0  0  0
    3.9215   10.3645   18.0230 H   0  0  0  0  0  0  0  0  0  0  0  0
    3.9314   12.3729   17.1239 C   0  0  0  0  0  0  0  0  0  0  0  0
    3.3956   13.0916   18.3380 C   0  0  0  0  0  0  0  0  0  0  0  0
    2.2567   12.7139   18.7545 O   0  0  0  0  0  0  0  0  0  0  0  0
    4.0838   14.1277   19.0154 N   0  0  0  0  0  0  0  0  0  0  0  0
    5.3533   14.7365   18.7456 C   0  0  0  0  0  0  0  0  0  0  0  0
    5.8412   15.3359   20.0701 C   0  0  0  0  0  0  0  0  0  0  0  0
    4.7791   14.9448   21.0506 C   0  0  0  0  0  0  0  0  0  0  0  0
    3.5640   14.7954   20.2161 C   0  0  0  0  0  0  0  0  0  0  0  0
    2.8521   16.0551   19.9080 C   0  0  0  0  0  0  0  0  0  0  0  0
    3.0852   16.5868   18.7810 O   0  0  0  0  0  0  0  0  0  0  0  0
    1.9492   16.6804   20.7778 N   0  0  0  0  0  0  0  0  0  0  0  0
    1.6312   16.1190   22.0888 C   0  0  0  0  0  0  0  0  0  0  0  0
    1.3086   17.9104   20.4020 C   0  0  0  0  0  0  0  0  0  0  0  0
    2.9172   12.0977   16.1009 C   0  0  0  0  0  0  0  0  0  0  0  0
    1.1840   13.7497   15.3709 C   0  0  0  0  0  0  0  0  0  0  0  0
    2.5759   13.1797   15.1413 C   0  0  0  0  0  0  0  0  0  0  0  0
    3.5622   14.2635   14.9378 C   0  0  0  0  0  0  0  0  0  0  0  0
 66 67  1  0  0  0
 67 68  1  0  0  0
 67 65  1  0  0  0
 65 52  1  0  0  0
 52 48  1  0  0  0
 48 49  1  0  0  0
 49 50  2  0  0  0
 49 46  1  0  0  0
 46 47  1  0  0  0
 46 42  1  0  0  0
 42 43  1  0  0  0
 43 44  2  0  0  0
 43 40  1  0  0  0
 40 41  1  0  0  0
 40 36  1  0  0  0
 36 37  1  0  0  0
 37 38  2  0  0  0
 37  1  1  0  0  0
  1  2  1  0  0  0
  1  3  1  0  0  0
  3  4  1  0  0  0
  4  5  2  0  0  0
  4  7  1  0  0  0
  7  8  1  0  0  0
  7  9  1  0  0  0
  9 10  1  0  0  0
 10 11  2  0  0  0
 10 13  1  0  0  0
 13 14  1  0  0  0
 13 15  1  0  0  0
 15 16  1  0  0  0
 16 17  2  0  0  0
 16 19  1  0  0  0
 19 20  1  0  0  0
 19 21  1  0  0  0
 21 22  1  0  0  0
 22 23  2  0  0  0
 22 25  1  0  0  0
 25 26  1  0  0  0
 25 27  1  0  0  0
 27 28  1  0  0  0
 28 29  2  0  0  0
 28 31  1  0  0  0
 31 32  1  0  0  0
 31 33  1  0  0  0
 33 34  1  0  0  0
 33 35  2  0  0  0
 52 53  1  0  0  0
 53 54  2  0  0  0
 53 55  1  0  0  0
 55 56  1  0  0  0
 56 57  1  0  0  0
 57 58  1  0  0  0
 58 59  1  0  0  0
 59 60  1  0  0  0
 60 61  2  0  0  0
 60 62  1  0  0  0
 62 63  1  0  0  0
 62 64  1  0  0  0
 59 55  1  0  0  0
 48 51  1  0  0  0
 42 45  1  0  0  0
 36 39  1  0  0  0
  3  6  1  0  0  0
  9 12  1  0  0  0
 15 18  1  0  0  0
 21 24  1  0  0  0
 27 30  1  0  0  0
M  END
> <minimizedAffinity>
-8.10980

> <CNNscore>
0.1768691242

> <CNNaffinity>
6.5370264053

> <CNN_VS>
1.1561981440

> <CNNaffinity_variance>
0.6029038429

$$$$
[H]N(C(=O)[C@]([H])(C(=O)C([H])([H])[H])C([H])([H])[H])[C@]([H])(C(=O)N([H])[C@]([H])(C(=O)N([H])[C@]([H])(C(=O)N([H])[C@]([H])(C(=O)N([H])[C@]([H])(C(=O)N([H])[C@]([H])(C(=O)N([H])[C@]([H])(C(=O)N([H])[C@]([H])(C(=O)N1C([H])([H])C([H])([H])C([H])([H])[C@@]1([H])C(=O)N(C([H])([H])[H])C([H])([H])[H])C([H])([H])C([H])(C([H])([H])[H])C([H])([H])[H])C([H])([H])[H])C([H])([H])[H])C([H])([H])[H])C([H])([H])[H])C([H])([H])[H])C([H])([H])[H])C([H])([H])[H]


 68 68  0  0  0  0  0  0  0  0999 V2000
    4.5955    2.5085   17.1525 C   0  0  0  0  0  0  0  0  0  0  0  0
    4.9469    3.8854   17.7333 C   0  0  0  0  0  0  0  0  0  0  0  0
    3.3109    2.6141   16.4711 N   0  0  0  0  0  0  0  0  0  0  0  0
    3.1268    2.7964   15.1361 C   0  0  0  0  0  0  0  0  0  0  0  0
    4.0291    2.9027   14.2367 O   0  0  0  0  0  0  0  0  0  0  0  0
    2.4825    2.5083   17.1246 H   0  0  0  0  0  0  0  0  0  0  0  0
    1.7011    2.8662   14.6306 C   0  0  0  0  0  0  0  0  0  0  0  0
    1.5443    1.7419   13.5928 C   0  0  0  0  0  0  0  0  0  0  0  0
    1.7772    4.1805   13.9926 N   0  0  0  0  0  0  0  0  0  0  0  0
    1.6955    5.3707   14.6124 C   0  0  0  0  0  0  0  0  0  0  0  0
    1.6246    5.4618   15.8880 O   0  0  0  0  0  0  0  0  0  0  0  0
    1.9648    4.1415   12.9387 H   0  0  0  0  0  0  0  0  0  0  0  0
    1.6777    6.6427   13.7840 C   0  0  0  0  0  0  0  0  0  0  0  0
    2.6388    7.6405   14.2695 C   0  0  0  0  0  0  0  0  0  0  0  0
    0.2942    6.9379   13.7556 N   0  0  0  0  0  0  0  0  0  0  0  0
   -0.4882    6.3276   12.6673 C   0  0  0  0  0  0  0  0  0  0  0  0
   -0.1156    5.6264   11.7931 O   0  0  0  0  0  0  0  0  0  0  0  0
   -0.1157    7.5694   14.4413 H   0  0  0  0  0  0  0  0  0  0  0  0
   -1.9651    6.7419   12.7584 C   0  0  0  0  0  0  0  0  0  0  0  0
   -2.2563    6.9553   14.2093 C   0  0  0  0  0  0  0  0  0  0  0  0
   -2.5912    5.4980   12.2728 N   0  0  0  0  0  0  0  0  0  0  0  0
   -3.2194    5.2617   11.1226 C   0  0  0  0  0  0  0  0  0  0  0  0
   -3.2865    6.1869   10.2399 O   0  0  0  0  0  0  0  0  0  0  0  0
   -2.4913    4.7114   12.9938 H   0  0  0  0  0  0  0  0  0  0  0  0
   -3.8858    4.0020   10.7225 C   0  0  0  0  0  0  0  0  0  0  0  0
   -3.1739    3.0521    9.8636 C   0  0  0  0  0  0  0  0  0  0  0  0
   -5.2069    4.4590   10.2098 N   0  0  0  0  0  0  0  0  0  0  0  0
   -6.2578    4.5447   11.1316 C   0  0  0  0  0  0  0  0  0  0  0  0
   -6.1129    4.2798   12.3674 O   0  0  0  0  0  0  0  0  0  0  0  0
   -5.3007    4.6614    9.2255 H   0  0  0  0  0  0  0  0  0  0  0  0
   -7.6047    4.9430   10.7164 C   0  0  0  0  0  0  0  0  0  0  0  0
   -7.4436    5.5262    9.3036 C   0  0  0  0  0  0  0  0  0  0  0  0
   -8.5156    3.8064   10.7491 C   0  0  0  0  0  0  0  0  0  0  0  0
   -8.4897    2.8206    9.6331 C   0  0  0  0  0  0  0  0  0  0  0  0
   -9.3103    3.6234   11.6671 O   0  0  0  0  0  0  0  0  0  0  0  0
    4.9955    1.8403   19.3892 N   0  0  0  0  0  0  0  0  0  0  0  0
    4.1757    1.5911   18.3227 C   0  0  0  0  0  0  0  0  0  0  0  0
    3.2603    0.8130   18.2089 O   0  0  0  0  0  0  0  0  0  0  0  0
    5.6789    2.6804   19.3092 H   0  0  0  0  0  0  0  0  0  0  0  0
    5.1180    1.2339   20.6974 C   0  0  0  0  0  0  0  0  0  0  0  0
    6.4758    1.2832   21.2762 C   0  0  0  0  0  0  0  0  0  0  0  0
    4.4886    3.5219   21.3359 N   0  0  0  0  0  0  0  0  0  0  0  0
    4.1455    2.1975   21.4341 C   0  0  0  0  0  0  0  0  0  0  0  0
    3.1667    1.6476   21.9717 O   0  0  0  0  0  0  0  0  0  0  0  0
    5.4542    3.6960   20.8087 H   0  0  0  0  0  0  0  0  0  0  0  0
    3.9268    4.7551   21.7079 C   0  0  0  0  0  0  0  0  0  0  0  0
    4.2122    4.8013   23.3159 C   0  0  0  0  0  0  0  0  0  0  0  0
    4.5450    7.2132   21.6217 N   0  0  0  0  0  0  0  0  0  0  0  0
    4.7933    5.8934   21.2608 C   0  0  0  0  0  0  0  0  0  0  0  0
    5.7170    5.5455   20.5257 O   0  0  0  0  0  0  0  0  0  0  0  0
    3.8028    7.4551   22.2695 H   0  0  0  0  0  0  0  0  0  0  0  0
    5.3427    8.3577   21.0752 C   0  0  0  0  0  0  0  0  0  0  0  0
    6.4630    8.6326   21.9408 C   0  0  0  0  0  0  0  0  0  0  0  0
    6.1190    9.3638   23.0395 O   0  0  0  0  0  0  0  0  0  0  0  0
    7.8202    8.3986   22.0253 N   0  0  0  0  0  0  0  0  0  0  0  0
    8.7736    9.4342   22.4858 C   0  0  0  0  0  0  0  0  0  0  0  0
   10.0458    9.0730   21.7969 C   0  0  0  0  0  0  0  0  0  0  0  0
    9.8021    7.7180   21.1326 C   0  0  0  0  0  0  0  0  0  0  0  0
    8.6656    7.2009   21.9855 C   0  0  0  0  0  0  0  0  0  0  0  0
    9.2016    6.9484   23.3268 C   0  0  0  0  0  0  0  0  0  0  0  0
    8.6676    7.3799   24.4124 O   0  0  0  0  0  0  0  0  0  0  0  0
   10.3741    6.2059   23.5535 N   0  0  0  0  0  0  0  0  0  0  0  0
   11.0442    6.2070   24.8590 C   0  0  0  0  0  0  0  0  0  0  0  0
   10.8822    5.3574   22.5010 C   0  0  0  0  0  0  0  0  0  0  0  0
    4.5063    9.3478   20.4229 C   0  0  0  0  0  0  0  0  0  0  0  0
    3.0983   10.1518   18.4948 C   0  0  0  0  0  0  0  0  0  0  0  0
    3.7159    8.9805   19.2240 C   0  0  0  0  0  0  0  0  0  0  0  0
    4.6197    8.2982   18.1720 C   0  0  0  0  0  0  0  0  0  0  0  0
 66 67  1  0  0  0
 67 68  1  0  0  0
 67 65  1  0  0  0
 65 52  1  0  0  0
 52 48  1  0  0  0
 48 49  1  0  0  0
 49 50  2  0  0  0
 49 46  1  0  0  0
 46 47  1  0  0  0
 46 42  1  0  0  0
 42 43  1  0  0  0
 43 44  2  0  0  0
 43 40  1  0  0  0
 40 41  1  0  0  0
 40 36  1  0  0  0
 36 37  1  0  0  0
 37 38  2  0  0  0
 37  1  1  0  0  0
  1  2  1  0  0  0
  1  3  1  0  0  0
  3  4  1  0  0  0
  4  5  2  0  0  0
  4  7  1  0  0  0
  7  8  1  0  0  0
  7  9  1  0  0  0
  9 10  1  0  0  0
 10 11  2  0  0  0
 10 13  1  0  0  0
 13 14  1  0  0  0
 13 15  1  0  0  0
 15 16  1  0  0  0
 16 17  2  0  0  0
 16 19  1  0  0  0
 19 20  1  0  0  0
 19 21  1  0  0  0
 21 22  1  0  0  0
 22 23  2  0  0  0
 22 25  1  0  0  0
 25 26  1  0  0  0
 25 27  1  0  0  0
 27 28  1  0  0  0
 28 29  2  0  0  0
 28 31  1  0  0  0
 31 32  1  0  0  0
 31 33  1  0  0  0
 33 34  1  0  0  0
 33 35  2  0  0  0
 52 53  1  0  0  0
 53 54  2  0  0  0
 53 55  1  0  0  0
 55 56  1  0  0  0
 56 57  1  0  0  0
 57 58  1  0  0  0
 58 59  1  0  0  0
 59 60  1  0  0  0
 60 61  2  0  0  0
 60 62  1  0  0  0
 62 63  1  0  0  0
 62 64  1  0  0  0
 59 55  1  0  0  0
 48 51  1  0  0  0
 42 45  1  0  0  0
 36 39  1  0  0  0
  3  6  1  0  0  0
  9 12  1  0  0  0
 15 18  1  0  0  0
 21 24  1  0  0  0
 27 30  1  0  0  0
M  END
> <minimizedAffinity>
-9.23888

> <CNNscore>
0.4876164794

> <CNNaffinity>
7.1366944313

> <CNN_VS>
3.4799697399

> <CNNaffinity_variance>
0.4849871993

$$$$
[H]N(C(=O)[C@]([H])(C(=O)C([H])([H])[H])C([H])([H])[H])[C@]([H])(C(=O)N([H])[C@]([H])(C(=O)N([H])[C@]([H])(C(=O)N([H])[C@]([H])(C(=O)N([H])[C@]([H])(C(=O)N([H])[C@]([H])(C(=O)N([H])[C@]([H])(C(=O)N([H])[C@]([H])(C(=O)N1C([H])([H])C([H])([H])C([H])([H])[C@@]1([H])C(=O)N(C([H])([H])[H])C([H])([H])[H])C([H])([H])C([H])(C([H])([H])[H])C([H])([H])[H])C([H])([H])[H])C([H])([H])[H])C([H])([H])[H])C([H])([H])[H])C([H])([H])[H])C([H])([H])[H])C([H])([H])[H]


 68 68  0  0  0  0  0  0  0  0999 V2000
    3.8481    1.3049   16.7746 C   0  0  0  0  0  0  0  0  0  0  0  0
    4.4826    2.6111   17.2725 C   0  0  0  0  0  0  0  0  0  0  0  0
    2.7167    1.6430   15.9195 N   0  0  0  0  0  0  0  0  0  0  0  0
    2.7710    2.3733   14.7736 C   0  0  0  0  0  0  0  0  0  0  0  0
    3.8074    2.8899   14.2323 O   0  0  0  0  0  0  0  0  0  0  0  0
    1.7994    1.2352   16.2613 H   0  0  0  0  0  0  0  0  0  0  0  0
    1.4731    2.5982   14.0265 C   0  0  0  0  0  0  0  0  0  0  0  0
    1.5706    1.7943   12.7189 C   0  0  0  0  0  0  0  0  0  0  0  0
    1.6237    4.0337   13.7880 N   0  0  0  0  0  0  0  0  0  0  0  0
    0.7434    4.8313   13.1585 C   0  0  0  0  0  0  0  0  0  0  0  0
   -0.3972    4.3988   12.7681 O   0  0  0  0  0  0  0  0  0  0  0  0
    2.5114    4.4543   14.2153 H   0  0  0  0  0  0  0  0  0  0  0  0
    1.1084    6.2808   12.8931 C   0  0  0  0  0  0  0  0  0  0  0  0
    1.1956    6.5825   11.4590 C   0  0  0  0  0  0  0  0  0  0  0  0
    2.2401    6.4409   13.7270 N   0  0  0  0  0  0  0  0  0  0  0  0
    2.5421    7.8117   14.1730 C   0  0  0  0  0  0  0  0  0  0  0  0
    1.9720    8.8139   13.9176 O   0  0  0  0  0  0  0  0  0  0  0  0
    2.8237    5.6421   13.9686 H   0  0  0  0  0  0  0  0  0  0  0  0
    3.7965    7.8329   15.0601 C   0  0  0  0  0  0  0  0  0  0  0  0
    3.7715    6.5695   15.8593 C   0  0  0  0  0  0  0  0  0  0  0  0
    3.4706    8.9971   15.9046 N   0  0  0  0  0  0  0  0  0  0  0  0
    4.1920   10.0886   16.1535 C   0  0  0  0  0  0  0  0  0  0  0  0
    5.3225   10.2425   15.5722 O   0  0  0  0  0  0  0  0  0  0  0  0
    2.5030    8.8877   16.3520 H   0  0  0  0  0  0  0  0  0  0  0  0
    3.8322   11.1959   17.0674 C   0  0  0  0  0  0  0  0  0  0  0  0
    2.7298   11.0172   18.0161 C   0  0  0  0  0  0  0  0  0  0  0  0
    3.7060   12.3671   16.1567 N   0  0  0  0  0  0  0  0  0  0  0  0
    4.2118   13.5910   16.6122 C   0  0  0  0  0  0  0  0  0  0  0  0
    4.7879   13.7214   17.7389 O   0  0  0  0  0  0  0  0  0  0  0  0
    3.2432   12.2423   15.2685 H   0  0  0  0  0  0  0  0  0  0  0  0
    4.0972   14.8095   15.8075 C   0  0  0  0  0  0  0  0  0  0  0  0
    4.3382   14.3672   14.3555 C   0  0  0  0  0  0  0  0  0  0  0  0
    2.7929   15.4322   15.9909 C   0  0  0  0  0  0  0  0  0  0  0  0
    1.7107   15.1587   15.0049 C   0  0  0  0  0  0  0  0  0  0  0  0
    2.5442   16.1786   16.9336 O   0  0  0  0  0  0  0  0  0  0  0  0
    3.6191    1.1275   19.1253 N   0  0  0  0  0  0  0  0  0  0  0  0
    3.0799    0.6687   17.9546 C   0  0  0  0  0  0  0  0  0  0  0  0
    2.1688   -0.0996   17.7650 O   0  0  0  0  0  0  0  0  0  0  0  0
    4.3600    1.9186   19.0585 H   0  0  0  0  0  0  0  0  0  0  0  0
    3.3619    0.8152   20.5147 C   0  0  0  0  0  0  0  0  0  0  0  0
    3.5633   -0.6023   20.8765 C   0  0  0  0  0  0  0  0  0  0  0  0
    4.0249    2.6101   22.0567 N   0  0  0  0  0  0  0  0  0  0  0  0
    4.4739    1.7228   21.1119 C   0  0  0  0  0  0  0  0  0  0  0  0
    5.6227    1.4938   20.6907 O   0  0  0  0  0  0  0  0  0  0  0  0
    2.9196    2.5963   22.1938 H   0  0  0  0  0  0  0  0  0  0  0  0
    4.5969    3.5405   22.9408 C   0  0  0  0  0  0  0  0  0  0  0  0
    5.7665    2.6619   23.6683 C   0  0  0  0  0  0  0  0  0  0  0  0
    4.9020    5.5533   21.4284 N   0  0  0  0  0  0  0  0  0  0  0  0
    5.4434    4.5309   22.1999 C   0  0  0  0  0  0  0  0  0  0  0  0
    6.6514    4.3283   22.3199 O   0  0  0  0  0  0  0  0  0  0  0  0
    3.9017    5.7185   21.3937 H   0  0  0  0  0  0  0  0  0  0  0  0
    5.7505    6.4651   20.5956 C   0  0  0  0  0  0  0  0  0  0  0  0
    5.5881    7.8278   21.0392 C   0  0  0  0  0  0  0  0  0  0  0  0
    4.5102    7.9954   21.8579 O   0  0  0  0  0  0  0  0  0  0  0  0
    6.1796    9.0664   20.8986 N   0  0  0  0  0  0  0  0  0  0  0  0
    5.3869   10.3077   20.7431 C   0  0  0  0  0  0  0  0  0  0  0  0
    6.2865   11.2046   19.9623 C   0  0  0  0  0  0  0  0  0  0  0  0
    7.6381   10.4944   19.8878 C   0  0  0  0  0  0  0  0  0  0  0  0
    7.5345    9.5917   21.0965 C   0  0  0  0  0  0  0  0  0  0  0  0
    7.5471   10.4474   22.2871 C   0  0  0  0  0  0  0  0  0  0  0  0
    6.6368   10.4396   23.1933 O   0  0  0  0  0  0  0  0  0  0  0  0
    8.5685   11.3779   22.5482 N   0  0  0  0  0  0  0  0  0  0  0  0
    8.4208   12.4127   23.5783 C   0  0  0  0  0  0  0  0  0  0  0  0
    9.8236   11.2587   21.8436 C   0  0  0  0  0  0  0  0  0  0  0  0
    5.8422    6.0225   19.2168 C   0  0  0  0  0  0  0  0  0  0  0  0
    6.7371    7.7866   17.6570 C   0  0  0  0  0  0  0  0  0  0  0  0
    6.9689    6.4712   18.3648 C   0  0  0  0  0  0  0  0  0  0  0  0
    8.2322    6.7072   19.2236 C   0  0  0  0  0  0  0  0  0  0  0  0
 66 67  1  0  0  0
 67 68  1  0  0  0
 67 65  1  0  0  0
 65 52  1  0  0  0
 52 48  1  0  0  0
 48 49  1  0  0  0
 49 50  2  0  0  0
 49 46  1  0  0  0
 46 47  1  0  0  0
 46 42  1  0  0  0
 42 43  1  0  0  0
 43 44  2  0  0  0
 43 40  1  0  0  0
 40 41  1  0  0  0
 40 36  1  0  0  0
 36 37  1  0  0  0
 37 38  2  0  0  0
 37  1  1  0  0  0
  1  2  1  0  0  0
  1  3  1  0  0  0
  3  4  1  0  0  0
  4  5  2  0  0  0
  4  7  1  0  0  0
  7  8  1  0  0  0
  7  9  1  0  0  0
  9 10  1  0  0  0
 10 11  2  0  0  0
 10 13  1  0  0  0
 13 14  1  0  0  0
 13 15  1  0  0  0
 15 16  1  0  0  0
 16 17  2  0  0  0
 16 19  1  0  0  0
 19 20  1  0  0  0
 19 21  1  0  0  0
 21 22  1  0  0  0
 22 23  2  0  0  0
 22 25  1  0  0  0
 25 26  1  0  0  0
 25 27  1  0  0  0
 27 28  1  0  0  0
 28 29  2  0  0  0
 28 31  1  0  0  0
 31 32  1  0  0  0
 31 33  1  0  0  0
 33 34  1  0  0  0
 33 35  2  0  0  0
 52 53  1  0  0  0
 53 54  2  0  0  0
 53 55  1  0  0  0
 55 56  1  0  0  0
 56 57  1  0  0  0
 57 58  1  0  0  0
 58 59  1  0  0  0
 59 60  1  0  0  0
 60 61  2  0  0  0
 60 62  1  0  0  0
 62 63  1  0  0  0
 62 64  1  0  0  0
 59 55  1  0  0  0
 48 51  1  0  0  0
 42 45  1  0  0  0
 36 39  1  0  0  0
  3  6  1  0  0  0
  9 12  1  0  0  0
 15 18  1  0  0  0
 21 24  1  0  0  0
 27 30  1  0  0  0
M  END
> <minimizedAffinity>
-8.51038

> <CNNscore>
0.4865989387

> <CNNaffinity>
7.8195085526

> <CNN_VS>
3.8049645424

> <CNNaffinity_variance>
0.5628033876

$$$$
[H]N(C(=O)[C@]([H])(C(=O)C([H])([H])[H])C([H])([H])[H])[C@]([H])(C(=O)N([H])[C@]([H])(C(=O)N([H])[C@]([H])(C(=O)N([H])[C@]([H])(C(=O)N([H])[C@]([H])(C(=O)N([H])[C@]([H])(C(=O)N([H])[C@]([H])(C(=O)N([H])[C@]([H])(C(=O)N1C([H])([H])C([H])([H])C([H])([H])[C@@]1([H])C(=O)N(C([H])([H])[H])C([H])([H])[H])C([H])([H])C([H])(C([H])([H])[H])C([H])([H])[H])C([H])([H])[H])C([H])([H])[H])C([H])([H])[H])C([H])([H])[H])C([H])([H])[H])C([H])([H])[H])C([H])([H])[H]


 68 68  0  0  0  0  0  0  0  0999 V2000
    3.8398    1.3138   16.8458 C   0  0  0  0  0  0  0  0  0  0  0  0
    4.4548    2.6184   17.3715 C   0  0  0  0  0  0  0  0  0  0  0  0
    2.7101    1.6535   15.9891 N   0  0  0  0  0  0  0  0  0  0  0  0
    2.7582    2.4287   14.8728 C   0  0  0  0  0  0  0  0  0  0  0  0
    3.7865    2.9942   14.3657 O   0  0  0  0  0  0  0  0  0  0  0  0
    1.8004    1.2077   16.3026 H   0  0  0  0  0  0  0  0  0  0  0  0
    1.4640    2.6466   14.1174 C   0  0  0  0  0  0  0  0  0  0  0  0
    1.4994    1.7078   12.8996 C   0  0  0  0  0  0  0  0  0  0  0  0
    1.6886    4.0393   13.7297 N   0  0  0  0  0  0  0  0  0  0  0  0
    0.8306    4.8248   13.0558 C   0  0  0  0  0  0  0  0  0  0  0  0
   -0.3493    4.4286   12.7534 O   0  0  0  0  0  0  0  0  0  0  0  0
    2.6171    4.4432   14.0793 H   0  0  0  0  0  0  0  0  0  0  0  0
    1.2686    6.2152   12.6321 C   0  0  0  0  0  0  0  0  0  0  0  0
    1.5155    6.3085   11.1880 C   0  0  0  0  0  0  0  0  0  0  0  0
    2.3114    6.4722   13.5533 N   0  0  0  0  0  0  0  0  0  0  0  0
    2.4784    7.8697   13.9874 C   0  0  0  0  0  0  0  0  0  0  0  0
    1.8639    8.8234   13.6594 O   0  0  0  0  0  0  0  0  0  0  0  0
    2.9264    5.7221   13.8633 H   0  0  0  0  0  0  0  0  0  0  0  0
    3.6481    7.9979   14.9753 C   0  0  0  0  0  0  0  0  0  0  0  0
    3.5936    6.7905   15.8554 C   0  0  0  0  0  0  0  0  0  0  0  0
    3.2113    9.2024   15.7057 N   0  0  0  0  0  0  0  0  0  0  0  0
    3.8284   10.3738   15.8488 C   0  0  0  0  0  0  0  0  0  0  0  0
    4.9445   10.5745   15.2542 O   0  0  0  0  0  0  0  0  0  0  0  0
    2.2543    9.0480   16.1627 H   0  0  0  0  0  0  0  0  0  0  0  0
    3.3624   11.5253   16.6537 C   0  0  0  0  0  0  0  0  0  0  0  0
    2.5418   12.5612   16.0207 C   0  0  0  0  0  0  0  0  0  0  0  0
    4.6063   12.0112   17.3122 N   0  0  0  0  0  0  0  0  0  0  0  0
    4.8198   11.6272   18.6420 C   0  0  0  0  0  0  0  0  0  0  0  0
    4.0185   10.8704   19.2773 O   0  0  0  0  0  0  0  0  0  0  0  0
    5.2270   12.6127   16.7911 H   0  0  0  0  0  0  0  0  0  0  0  0
    5.9919   12.0887   19.3893 C   0  0  0  0  0  0  0  0  0  0  0  0
    7.1649   12.0180   18.3988 C   0  0  0  0  0  0  0  0  0  0  0  0
    5.7808   13.4340   19.9074 C   0  0  0  0  0  0  0  0  0  0  0  0
    6.3892   13.8152   21.2122 C   0  0  0  0  0  0  0  0  0  0  0  0
    5.1181   14.2760   19.3078 O   0  0  0  0  0  0  0  0  0  0  0  0
    3.5998    1.0880   19.1912 N   0  0  0  0  0  0  0  0  0  0  0  0
    3.0716    0.6470   18.0088 C   0  0  0  0  0  0  0  0  0  0  0  0
    2.1691   -0.1262   17.7991 O   0  0  0  0  0  0  0  0  0  0  0  0
    4.3333    1.8874   19.1441 H   0  0  0  0  0  0  0  0  0  0  0  0
    3.3382    0.7459   20.5728 C   0  0  0  0  0  0  0  0  0  0  0  0
    3.5408   -0.6786   20.9053 C   0  0  0  0  0  0  0  0  0  0  0  0
    3.9869    2.5336   22.1291 N   0  0  0  0  0  0  0  0  0  0  0  0
    4.4465    1.6426   21.1930 C   0  0  0  0  0  0  0  0  0  0  0  0
    5.6014    1.4028   20.7951 O   0  0  0  0  0  0  0  0  0  0  0  0
    2.8790    2.5304   22.2438 H   0  0  0  0  0  0  0  0  0  0  0  0
    4.5498    3.4581   23.0254 C   0  0  0  0  0  0  0  0  0  0  0  0
    5.6616    2.5549   23.8109 C   0  0  0  0  0  0  0  0  0  0  0  0
    4.9805    5.5190   21.6114 N   0  0  0  0  0  0  0  0  0  0  0  0
    5.4553    4.4136   22.3087 C   0  0  0  0  0  0  0  0  0  0  0  0
    6.6445    4.1039   22.3758 O   0  0  0  0  0  0  0  0  0  0  0  0
    3.9975    5.7693   21.6203 H   0  0  0  0  0  0  0  0  0  0  0  0
    5.8786    6.4011   20.7989 C   0  0  0  0  0  0  0  0  0  0  0  0
    6.0312    7.6789   21.4500 C   0  0  0  0  0  0  0  0  0  0  0  0
    4.8414    8.3067   21.6743 O   0  0  0  0  0  0  0  0  0  0  0  0
    7.0198    8.5117   21.9327 N   0  0  0  0  0  0  0  0  0  0  0  0
    6.9745    9.9807   21.7501 C   0  0  0  0  0  0  0  0  0  0  0  0
    8.4112   10.3801   21.7502 C   0  0  0  0  0  0  0  0  0  0  0  0
    9.2017    9.1315   22.1409 C   0  0  0  0  0  0  0  0  0  0  0  0
    8.1321    8.3550   22.8756 C   0  0  0  0  0  0  0  0  0  0  0  0
    7.8231    9.0888   24.1069 C   0  0  0  0  0  0  0  0  0  0  0  0
    6.6485    9.4946   24.4317 O   0  0  0  0  0  0  0  0  0  0  0  0
    8.8005    9.4303   25.0583 N   0  0  0  0  0  0  0  0  0  0  0  0
    8.5284   10.3996   26.1260 C   0  0  0  0  0  0  0  0  0  0  0  0
   10.0733    8.7483   25.0329 C   0  0  0  0  0  0  0  0  0  0  0  0
    5.7172    6.1845   19.3733 C   0  0  0  0  0  0  0  0  0  0  0  0
    6.2895    8.2398   18.0337 C   0  0  0  0  0  0  0  0  0  0  0  0
    6.6499    6.8218   18.4137 C   0  0  0  0  0  0  0  0  0  0  0  0
    8.0639    6.9298   19.0287 C   0  0  0  0  0  0  0  0  0  0  0  0
 66 67  1  0  0  0
 67 68  1  0  0  0
 67 65  1  0  0  0
 65 52  1  0  0  0
 52 48  1  0  0  0
 48 49  1  0  0  0
 49 50  2  0  0  0
 49 46  1  0  0  0
 46 47  1  0  0  0
 46 42  1  0  0  0
 42 43  1  0  0  0
 43 44  2  0  0  0
 43 40  1  0  0  0
 40 41  1  0  0  0
 40 36  1  0  0  0
 36 37  1  0  0  0
 37 38  2  0  0  0
 37  1  1  0  0  0
  1  2  1  0  0  0
  1  3  1  0  0  0
  3  4  1  0  0  0
  4  5  2  0  0  0
  4  7  1  0  0  0
  7  8  1  0  0  0
  7  9  1  0  0  0
  9 10  1  0  0  0
 10 11  2  0  0  0
 10 13  1  0  0  0
 13 14  1  0  0  0
 13 15  1  0  0  0
 15 16  1  0  0  0
 16 17  2  0  0  0
 16 19  1  0  0  0
 19 20  1  0  0  0
 19 21  1  0  0  0
 21 22  1  0  0  0
 22 23  2  0  0  0
 22 25  1  0  0  0
 25 26  1  0  0  0
 25 27  1  0  0  0
 27 28  1  0  0  0
 28 29  2  0  0  0
 28 31  1  0  0  0
 31 32  1  0  0  0
 31 33  1  0  0  0
 33 34  1  0  0  0
 33 35  2  0  0  0
 52 53  1  0  0  0
 53 54  2  0  0  0
 53 55  1  0  0  0
 55 56  1  0  0  0
 56 57  1  0  0  0
 57 58  1  0  0  0
 58 59  1  0  0  0
 59 60  1  0  0  0
 60 61  2  0  0  0
 60 62  1  0  0  0
 62 63  1  0  0  0
 62 64  1  0  0  0
 59 55  1  0  0  0
 48 51  1  0  0  0
 42 45  1  0  0  0
 36 39  1  0  0  0
  3  6  1  0  0  0
  9 12  1  0  0  0
 15 18  1  0  0  0
 21 24  1  0  0  0
 27 30  1  0  0  0
M  END
> <minimizedAffinity>
-8.54617

> <CNNscore>
0.4411300123

> <CNNaffinity>
7.7302618027

> <CNN_VS>
3.4100503922

> <CNNaffinity_variance>
0.3646989763

$$$$
[H]N(C(=O)[C@]([H])(C(=O)C([H])([H])[H])C([H])([H])[H])[C@]([H])(C(=O)N([H])[C@]([H])(C(=O)N([H])[C@]([H])(C(=O)N([H])[C@]([H])(C(=O)N([H])[C@]([H])(C(=O)N([H])[C@]([H])(C(=O)N([H])[C@]([H])(C(=O)N([H])[C@]([H])(C(=O)N1C([H])([H])C([H])([H])C([H])([H])[C@@]1([H])C(=O)N(C([H])([H])[H])C([H])([H])[H])C([H])([H])C([H])(C([H])([H])[H])C([H])([H])[H])C([H])([H])[H])C([H])([H])[H])C([H])([H])[H])C([H])([H])[H])C([H])([H])[H])C([H])([H])[H])C([H])([H])[H]


 68 68  0  0  0  0  0  0  0  0999 V2000
    3.8782    1.5350   20.6726 C   0  0  0  0  0  0  0  0  0  0  0  0
    4.5816    0.1841   20.8640 C   0  0  0  0  0  0  0  0  0  0  0  0
    4.3644    2.1324   19.4347 N   0  0  0  0  0  0  0  0  0  0  0  0
    3.9692    1.7985   18.1770 C   0  0  0  0  0  0  0  0  0  0  0  0
    3.1062    0.9160   17.8444 O   0  0  0  0  0  0  0  0  0  0  0  0
    5.0708    2.9068   19.5950 H   0  0  0  0  0  0  0  0  0  0  0  0
    4.5940    2.5562   17.0243 C   0  0  0  0  0  0  0  0  0  0  0  0
    5.1959    3.8424   17.6150 C   0  0  0  0  0  0  0  0  0  0  0  0
    3.3679    2.8308   16.2751 N   0  0  0  0  0  0  0  0  0  0  0  0
    3.2915    3.3717   15.0466 C   0  0  0  0  0  0  0  0  0  0  0  0
    4.3403    3.6284   14.3579 O   0  0  0  0  0  0  0  0  0  0  0  0
    2.4745    2.5096   16.7712 H   0  0  0  0  0  0  0  0  0  0  0  0
    1.9301    3.6968   14.4588 C   0  0  0  0  0  0  0  0  0  0  0  0
    1.4525    2.6541   13.5424 C   0  0  0  0  0  0  0  0  0  0  0  0
    2.1349    5.0174   13.9940 N   0  0  0  0  0  0  0  0  0  0  0  0
    0.9313    5.7783   13.6179 C   0  0  0  0  0  0  0  0  0  0  0  0
   -0.1975    5.4317   13.6368 O   0  0  0  0  0  0  0  0  0  0  0  0
    3.0763    5.3939   13.8992 H   0  0  0  0  0  0  0  0  0  0  0  0
    1.3066    7.1849   13.1263 C   0  0  0  0  0  0  0  0  0  0  0  0
    1.9667    7.0068   11.7966 C   0  0  0  0  0  0  0  0  0  0  0  0
    2.2945    7.5426   14.1613 N   0  0  0  0  0  0  0  0  0  0  0  0
    2.7715    8.7401   14.4957 C   0  0  0  0  0  0  0  0  0  0  0  0
    2.3176    9.7848   13.9107 O   0  0  0  0  0  0  0  0  0  0  0  0
    2.6372    6.6710   14.6821 H   0  0  0  0  0  0  0  0  0  0  0  0
    3.8158    9.0245   15.5054 C   0  0  0  0  0  0  0  0  0  0  0  0
    4.5118    7.9106   16.1548 C   0  0  0  0  0  0  0  0  0  0  0  0
    3.1504    9.9853   16.4279 N   0  0  0  0  0  0  0  0  0  0  0  0
    3.6671   11.2860   16.4809 C   0  0  0  0  0  0  0  0  0  0  0  0
    4.6432   11.6690   15.7605 O   0  0  0  0  0  0  0  0  0  0  0  0
    2.3795    9.6601   16.9924 H   0  0  0  0  0  0  0  0  0  0  0  0
    3.1086   12.2911   17.3882 C   0  0  0  0  0  0  0  0  0  0  0  0
    2.0914   11.5379   18.2600 C   0  0  0  0  0  0  0  0  0  0  0  0
    4.1599   12.9203   18.1766 C   0  0  0  0  0  0  0  0  0  0  0  0
    4.3482   12.5120   19.5964 C   0  0  0  0  0  0  0  0  0  0  0  0
    4.9060   13.7799   17.7160 O   0  0  0  0  0  0  0  0  0  0  0  0
    3.9192    3.7633   21.4743 N   0  0  0  0  0  0  0  0  0  0  0  0
    4.4862    2.5355   21.6809 C   0  0  0  0  0  0  0  0  0  0  0  0
    5.3226    2.1880   22.4784 O   0  0  0  0  0  0  0  0  0  0  0  0
    3.0875    3.8194   20.7783 H   0  0  0  0  0  0  0  0  0  0  0  0
    4.1580    5.0666   22.0561 C   0  0  0  0  0  0  0  0  0  0  0  0
    5.4595    5.2088   22.7392 C   0  0  0  0  0  0  0  0  0  0  0  0
    5.0465    6.8756   20.6501 N   0  0  0  0  0  0  0  0  0  0  0  0
    4.1189    5.8680   20.7244 C   0  0  0  0  0  0  0  0  0  0  0  0
    3.2888    5.4622   19.8902 O   0  0  0  0  0  0  0  0  0  0  0  0
    5.6329    7.0139   21.5870 H   0  0  0  0  0  0  0  0  0  0  0  0
    5.4882    7.7907   19.6795 C   0  0  0  0  0  0  0  0  0  0  0  0
    4.2824    8.8929   19.6600 C   0  0  0  0  0  0  0  0  0  0  0  0
    6.8160    8.8301   21.5738 N   0  0  0  0  0  0  0  0  0  0  0  0
    6.6027    8.6391   20.2131 C   0  0  0  0  0  0  0  0  0  0  0  0
    7.2810    9.1662   19.3318 O   0  0  0  0  0  0  0  0  0  0  0  0
    6.2662    8.3391   22.2707 H   0  0  0  0  0  0  0  0  0  0  0  0
    7.8557    9.7731   22.0981 C   0  0  0  0  0  0  0  0  0  0  0  0
    9.0495    9.0428   22.4466 C   0  0  0  0  0  0  0  0  0  0  0  0
   10.1013    9.8567   22.7492 O   0  0  0  0  0  0  0  0  0  0  0  0
    9.4995    7.7446   22.5729 N   0  0  0  0  0  0  0  0  0  0  0  0
   10.8443    7.3261   22.1148 C   0  0  0  0  0  0  0  0  0  0  0  0
   10.6699    5.8830   21.7823 C   0  0  0  0  0  0  0  0  0  0  0  0
    9.2715    5.4992   22.2659 C   0  0  0  0  0  0  0  0  0  0  0  0
    9.0487    6.5636   23.3165 C   0  0  0  0  0  0  0  0  0  0  0  0
    9.9858    6.3020   24.4136 C   0  0  0  0  0  0  0  0  0  0  0  0
   10.9582    5.4651   24.3503 O   0  0  0  0  0  0  0  0  0  0  0  0
    9.9011    6.9463   25.6605 N   0  0  0  0  0  0  0  0  0  0  0  0
   10.6568    6.4699   26.8248 C   0  0  0  0  0  0  0  0  0  0  0  0
    9.1172    8.1539   25.7749 C   0  0  0  0  0  0  0  0  0  0  0  0
    7.2739   10.8665   22.8539 C   0  0  0  0  0  0  0  0  0  0  0  0
    8.4996   13.0530   23.1049 C   0  0  0  0  0  0  0  0  0  0  0  0
    7.4317   12.2631   22.3833 C   0  0  0  0  0  0  0  0  0  0  0  0
    7.8651   12.2852   20.8997 C   0  0  0  0  0  0  0  0  0  0  0  0
 66 67  1  0  0  0
 67 68  1  0  0  0
 67 65  1  0  0  0
 65 52  1  0  0  0
 52 48  1  0  0  0
 48 49  1  0  0  0
 49 50  2  0  0  0
 49 46  1  0  0  0
 46 47  1  0  0  0
 46 42  1  0  0  0
 42 43  1  0  0  0
 43 44  2  0  0  0
 43 40  1  0  0  0
 40 41  1  0  0  0
 40 36  1  0  0  0
 36 37  1  0  0  0
 37 38  2  0  0  0
 37  1  1  0  0  0
  1  2  1  0  0  0
  1  3  1  0  0  0
  3  4  1  0  0  0
  4  5  2  0  0  0
  4  7  1  0  0  0
  7  8  1  0  0  0
  7  9  1  0  0  0
  9 10  1  0  0  0
 10 11  2  0  0  0
 10 13  1  0  0  0
 13 14  1  0  0  0
 13 15  1  0  0  0
 15 16  1  0  0  0
 16 17  2  0  0  0
 16 19  1  0  0  0
 19 20  1  0  0  0
 19 21  1  0  0  0
 21 22  1  0  0  0
 22 23  2  0  0  0
 22 25  1  0  0  0
 25 26  1  0  0  0
 25 27  1  0  0  0
 27 28  1  0  0  0
 28 29  2  0  0  0
 28 31  1  0  0  0
 31 32  1  0  0  0
 31 33  1  0  0  0
 33 34  1  0  0  0
 33 35  2  0  0  0
 52 53  1  0  0  0
 53 54  2  0  0  0
 53 55  1  0  0  0
 55 56  1  0  0  0
 56 57  1  0  0  0
 57 58  1  0  0  0
 58 59  1  0  0  0
 59 60  1  0  0  0
 60 61  2  0  0  0
 60 62  1  0  0  0
 62 63  1  0  0  0
 62 64  1  0  0  0
 59 55  1  0  0  0
 48 51  1  0  0  0
 42 45  1  0  0  0
 36 39  1  0  0  0
  3  6  1  0  0  0
  9 12  1  0  0  0
 15 18  1  0  0  0
 21 24  1  0  0  0
 27 30  1  0  0  0
M  END
> <minimizedAffinity>
-8.66965

> <CNNscore>
0.4205554128

> <CNNaffinity>
7.7046165466

> <CNN_VS>
3.2402181625

> <CNNaffinity_variance>
0.5576833487

$$$$
[H]N(C(=O)[C@]([H])(C(=O)C([H])([H])[H])C([H])([H])[H])[C@]([H])(C(=O)N([H])[C@]([H])(C(=O)N([H])[C@]([H])(C(=O)N([H])[C@]([H])(C(=O)N([H])[C@]([H])(C(=O)N([H])[C@]([H])(C(=O)N([H])[C@]([H])(C(=O)N([H])[C@]([H])(C(=O)N1C([H])([H])C([H])([H])C([H])([H])[C@@]1([H])C(=O)N(C([H])([H])[H])C([H])([H])[H])C([H])([H])C([H])(C([H])([H])[H])C([H])([H])[H])C([H])([H])[H])C([H])([H])[H])C([H])([H])[H])C([H])([H])[H])C([H])([H])[H])C([H])([H])[H])C([H])([H])[H]


 68 68  0  0  0  0  0  0  0  0999 V2000
    4.6455    0.9671   20.4760 C   0  0  0  0  0  0  0  0  0  0  0  0
    6.0154    0.6684   21.1010 C   0  0  0  0  0  0  0  0  0  0  0  0
    4.8449    1.8655   19.3452 N   0  0  0  0  0  0  0  0  0  0  0  0
    4.3917    1.6685   18.0782 C   0  0  0  0  0  0  0  0  0  0  0  0
    3.7105    0.6777   17.6441 O   0  0  0  0  0  0  0  0  0  0  0  0
    5.3785    2.7455   19.6010 H   0  0  0  0  0  0  0  0  0  0  0  0
    4.7001    2.7383   17.0518 C   0  0  0  0  0  0  0  0  0  0  0  0
    4.8263    4.0649   17.8200 C   0  0  0  0  0  0  0  0  0  0  0  0
    3.4453    2.6675   16.3031 N   0  0  0  0  0  0  0  0  0  0  0  0
    3.2560    3.0581   15.0307 C   0  0  0  0  0  0  0  0  0  0  0  0
    4.2256    3.4683   14.3012 O   0  0  0  0  0  0  0  0  0  0  0  0
    2.6420    2.2097   16.8440 H   0  0  0  0  0  0  0  0  0  0  0  0
    1.8578    3.0225   14.4403 C   0  0  0  0  0  0  0  0  0  0  0  0
    1.6164    1.8121   13.6455 C   0  0  0  0  0  0  0  0  0  0  0  0
    1.7763    4.3005   13.8387 N   0  0  0  0  0  0  0  0  0  0  0  0
    1.6652    5.4525   14.7495 C   0  0  0  0  0  0  0  0  0  0  0  0
    1.6201    5.4592   15.9297 O   0  0  0  0  0  0  0  0  0  0  0  0
    1.7626    4.3968   12.8250 H   0  0  0  0  0  0  0  0  0  0  0  0
    1.5769    6.7668   13.9586 C   0  0  0  0  0  0  0  0  0  0  0  0
    0.1327    6.9653   13.6267 C   0  0  0  0  0  0  0  0  0  0  0  0
    2.3438    6.3756   12.7612 N   0  0  0  0  0  0  0  0  0  0  0  0
    2.6681    7.1000   11.6918 C   0  0  0  0  0  0  0  0  0  0  0  0
    2.3434    8.3378   11.6475 O   0  0  0  0  0  0  0  0  0  0  0  0
    2.6557    5.3522   12.8228 H   0  0  0  0  0  0  0  0  0  0  0  0
    3.3878    6.6255   10.4885 C   0  0  0  0  0  0  0  0  0  0  0  0
    3.9378    7.6035    9.5462 C   0  0  0  0  0  0  0  0  0  0  0  0
    2.4527    5.6280    9.8989 N   0  0  0  0  0  0  0  0  0  0  0  0
    2.6288    4.2883   10.2669 C   0  0  0  0  0  0  0  0  0  0  0  0
    3.5213    3.9125   11.0920 O   0  0  0  0  0  0  0  0  0  0  0  0
    1.7537    5.9471    9.2445 H   0  0  0  0  0  0  0  0  0  0  0  0
    1.7872    3.2278    9.7080 C   0  0  0  0  0  0  0  0  0  0  0  0
    2.4591    1.9089   10.1218 C   0  0  0  0  0  0  0  0  0  0  0  0
    0.4205    3.3353   10.2012 C   0  0  0  0  0  0  0  0  0  0  0  0
   -0.6878    2.7295    9.4121 C   0  0  0  0  0  0  0  0  0  0  0  0
    0.1403    3.9077   11.2507 O   0  0  0  0  0  0  0  0  0  0  0  0
    4.3453    3.2007   21.2042 N   0  0  0  0  0  0  0  0  0  0  0  0
    3.8906    1.9288   21.4208 C   0  0  0  0  0  0  0  0  0  0  0  0
    3.0552    1.5206   22.1901 O   0  0  0  0  0  0  0  0  0  0  0  0
    5.0188    3.3553   20.3665 H   0  0  0  0  0  0  0  0  0  0  0  0
    4.0642    4.4674   21.8449 C   0  0  0  0  0  0  0  0  0  0  0  0
    4.0861    4.4311   23.3211 C   0  0  0  0  0  0  0  0  0  0  0  0
    4.9639    6.3812   20.5932 N   0  0  0  0  0  0  0  0  0  0  0  0
    5.2891    5.2346   21.2721 C   0  0  0  0  0  0  0  0  0  0  0  0
    6.3966    4.7352   21.5435 O   0  0  0  0  0  0  0  0  0  0  0  0
    3.8669    6.5444   20.4904 H   0  0  0  0  0  0  0  0  0  0  0  0
    5.6562    7.4485   19.9962 C   0  0  0  0  0  0  0  0  0  0  0  0
    4.5932    8.6809   20.1381 C   0  0  0  0  0  0  0  0  0  0  0  0
    6.7557    7.7157   22.2659 N   0  0  0  0  0  0  0  0  0  0  0  0
    6.7477    7.9464   20.8946 C   0  0  0  0  0  0  0  0  0  0  0  0
    7.6084    8.5979   20.3036 O   0  0  0  0  0  0  0  0  0  0  0  0
    6.0546    7.1320   22.7094 H   0  0  0  0  0  0  0  0  0  0  0  0
    7.7847    8.3166   23.1742 C   0  0  0  0  0  0  0  0  0  0  0  0
    7.5378    9.7291   23.3289 C   0  0  0  0  0  0  0  0  0  0  0  0
    6.2857   10.0019   23.7958 O   0  0  0  0  0  0  0  0  0  0  0  0
    8.1697   10.9422   23.1471 N   0  0  0  0  0  0  0  0  0  0  0  0
    7.4706   12.1212   22.5863 C   0  0  0  0  0  0  0  0  0  0  0  0
    8.5618   12.9000   21.9334 C   0  0  0  0  0  0  0  0  0  0  0  0
    9.8709   12.2208   22.3352 C   0  0  0  0  0  0  0  0  0  0  0  0
    9.4345   11.5261   23.6055 C   0  0  0  0  0  0  0  0  0  0  0  0
    9.1495   12.5654   24.5998 C   0  0  0  0  0  0  0  0  0  0  0  0
    8.0120   12.7240   25.1749 O   0  0  0  0  0  0  0  0  0  0  0  0
   10.1073   13.5066   25.0170 N   0  0  0  0  0  0  0  0  0  0  0  0
    9.7298   14.6992   25.7843 C   0  0  0  0  0  0  0  0  0  0  0  0
   11.5043   13.2494   24.7558 C   0  0  0  0  0  0  0  0  0  0  0  0
    9.0845    7.6899   23.0218 C   0  0  0  0  0  0  0  0  0  0  0  0
   10.0529    5.5174   22.1921 C   0  0  0  0  0  0  0  0  0  0  0  0
    9.2387    6.2329   23.2457 C   0  0  0  0  0  0  0  0  0  0  0  0
    9.9934    5.9687   24.5685 C   0  0  0  0  0  0  0  0  0  0  0  0
 66 67  1  0  0  0
 67 68  1  0  0  0
 67 65  1  0  0  0
 65 52  1  0  0  0
 52 48  1  0  0  0
 48 49  1  0  0  0
 49 50  2  0  0  0
 49 46  1  0  0  0
 46 47  1  0  0  0
 46 42  1  0  0  0
 42 43  1  0  0  0
 43 44  2  0  0  0
 43 40  1  0  0  0
 40 41  1  0  0  0
 40 36  1  0  0  0
 36 37  1  0  0  0
 37 38  2  0  0  0
 37  1  1  0  0  0
  1  2  1  0  0  0
  1  3  1  0  0  0
  3  4  1  0  0  0
  4  5  2  0  0  0
  4  7  1  0  0  0
  7  8  1  0  0  0
  7  9  1  0  0  0
  9 10  1  0  0  0
 10 11  2  0  0  0
 10 13  1  0  0  0
 13 14  1  0  0  0
 13 15  1  0  0  0
 15 16  1  0  0  0
 16 17  2  0  0  0
 16 19  1  0  0  0
 19 20  1  0  0  0
 19 21  1  0  0  0
 21 22  1  0  0  0
 22 23  2  0  0  0
 22 25  1  0  0  0
 25 26  1  0  0  0
 25 27  1  0  0  0
 27 28  1  0  0  0
 28 29  2  0  0  0
 28 31  1  0  0  0
 31 32  1  0  0  0
 31 33  1  0  0  0
 33 34  1  0  0  0
 33 35  2  0  0  0
 52 53  1  0  0  0
 53 54  2  0  0  0
 53 55  1  0  0  0
 55 56  1  0  0  0
 56 57  1  0  0  0
 57 58  1  0  0  0
 58 59  1  0  0  0
 59 60  1  0  0  0
 60 61  2  0  0  0
 60 62  1  0  0  0
 62 63  1  0  0  0
 62 64  1  0  0  0
 59 55  1  0  0  0
 48 51  1  0  0  0
 42 45  1  0  0  0
 36 39  1  0  0  0
  3  6  1  0  0  0
  9 12  1  0  0  0
 15 18  1  0  0  0
 21 24  1  0  0  0
 27 30  1  0  0  0
M  END
> <minimizedAffinity>
-8.10468

> <CNNscore>
0.3910859823

> <CNNaffinity>
7.3694953918

> <CNN_VS>
2.8821063042

> <CNNaffinity_variance>
0.2106359303

$$$$
[H]N(C(=O)[C@]([H])(C(=O)C([H])([H])[H])C([H])([H])[H])[C@]([H])(C(=O)N([H])[C@]([H])(C(=O)N([H])[C@]([H])(C(=O)N([H])[C@]([H])(C(=O)N([H])[C@]([H])(C(=O)N([H])[C@]([H])(C(=O)N([H])[C@]([H])(C(=O)N([H])[C@]([H])(C(=O)N1C([H])([H])C([H])([H])C([H])([H])[C@@]1([H])C(=O)N(C([H])([H])[H])C([H])([H])[H])C([H])([H])C([H])(C([H])([H])[H])C([H])([H])[H])C([H])([H])[H])C([H])([H])[H])C([H])([H])[H])C([H])([H])[H])C([H])([H])[H])C([H])([H])[H])C([H])([H])[H]


 68 68  0  0  0  0  0  0  0  0999 V2000
    4.5880    1.0717   20.5198 C   0  0  0  0  0  0  0  0  0  0  0  0
    5.9286    0.6198   21.1156 C   0  0  0  0  0  0  0  0  0  0  0  0
    4.8539    2.1089   19.5303 N   0  0  0  0  0  0  0  0  0  0  0  0
    4.5742    2.0364   18.2014 C   0  0  0  0  0  0  0  0  0  0  0  0
    4.0285    1.0640   17.5763 O   0  0  0  0  0  0  0  0  0  0  0  0
    5.2835    2.9836   19.9485 H   0  0  0  0  0  0  0  0  0  0  0  0
    4.9221    3.2379   17.3478 C   0  0  0  0  0  0  0  0  0  0  0  0
    4.4838    4.4830   18.1372 C   0  0  0  0  0  0  0  0  0  0  0  0
    4.0168    2.9619   16.2323 N   0  0  0  0  0  0  0  0  0  0  0  0
    3.7381    3.7908   15.2112 C   0  0  0  0  0  0  0  0  0  0  0  0
    4.3347    4.9160   15.0757 O   0  0  0  0  0  0  0  0  0  0  0  0
    3.5971    1.9764   16.2470 H   0  0  0  0  0  0  0  0  0  0  0  0
    2.6838    3.3923   14.1942 C   0  0  0  0  0  0  0  0  0  0  0  0
    2.7963    1.9845   13.7935 C   0  0  0  0  0  0  0  0  0  0  0  0
    2.8199    4.4217   13.2331 N   0  0  0  0  0  0  0  0  0  0  0  0
    1.7039    5.3770   13.1273 C   0  0  0  0  0  0  0  0  0  0  0  0
    0.6893    5.3974   13.7315 O   0  0  0  0  0  0  0  0  0  0  0  0
    3.6399    4.4641   12.6308 H   0  0  0  0  0  0  0  0  0  0  0  0
    1.9863    6.4279   12.0425 C   0  0  0  0  0  0  0  0  0  0  0  0
    2.6858    5.7125   10.9316 C   0  0  0  0  0  0  0  0  0  0  0  0
    2.9232    7.2909   12.7859 N   0  0  0  0  0  0  0  0  0  0  0  0
    2.6684    8.3425   13.5622 C   0  0  0  0  0  0  0  0  0  0  0  0
    1.4539    8.6840   13.7815 O   0  0  0  0  0  0  0  0  0  0  0  0
    3.9361    6.9732   12.6391 H   0  0  0  0  0  0  0  0  0  0  0  0
    3.6648    9.2093   14.2305 C   0  0  0  0  0  0  0  0  0  0  0  0
    5.0873    8.8676   14.1475 C   0  0  0  0  0  0  0  0  0  0  0  0
    3.1238    9.3561   15.6098 N   0  0  0  0  0  0  0  0  0  0  0  0
    3.5283   10.4799   16.3411 C   0  0  0  0  0  0  0  0  0  0  0  0
    4.3000   11.3712   15.8631 O   0  0  0  0  0  0  0  0  0  0  0  0
    2.5152    8.6362   15.9706 H   0  0  0  0  0  0  0  0  0  0  0  0
    3.0846   10.6912   17.7209 C   0  0  0  0  0  0  0  0  0  0  0  0
    4.3702   10.7548   18.5607 C   0  0  0  0  0  0  0  0  0  0  0  0
    2.2875   11.9058   17.8299 C   0  0  0  0  0  0  0  0  0  0  0  0
    2.9555   13.1838   18.2022 C   0  0  0  0  0  0  0  0  0  0  0  0
    1.0771   11.9219   17.6242 O   0  0  0  0  0  0  0  0  0  0  0  0
    4.2594    3.2288   21.4409 N   0  0  0  0  0  0  0  0  0  0  0  0
    3.8601    1.9278   21.5803 C   0  0  0  0  0  0  0  0  0  0  0  0
    3.0860    1.4299   22.3608 O   0  0  0  0  0  0  0  0  0  0  0  0
    4.8761    3.4734   20.5812 H   0  0  0  0  0  0  0  0  0  0  0  0
    3.9760    4.4302   22.1962 C   0  0  0  0  0  0  0  0  0  0  0  0
    4.1111    4.2858   23.6597 C   0  0  0  0  0  0  0  0  0  0  0  0
    4.7413    6.5650   21.2499 N   0  0  0  0  0  0  0  0  0  0  0  0
    5.1216    5.2937   21.5972 C   0  0  0  0  0  0  0  0  0  0  0  0
    6.2341    4.7367   21.5559 O   0  0  0  0  0  0  0  0  0  0  0  0
    3.6517    6.7569   21.3787 H   0  0  0  0  0  0  0  0  0  0  0  0
    5.3727    7.7315   20.7858 C   0  0  0  0  0  0  0  0  0  0  0  0
    4.7651    8.8790   21.7774 C   0  0  0  0  0  0  0  0  0  0  0  0
    7.2083    7.6390   22.5334 N   0  0  0  0  0  0  0  0  0  0  0  0
    6.8108    7.7641   21.2067 C   0  0  0  0  0  0  0  0  0  0  0  0
    7.5903    7.9413   20.2709 O   0  0  0  0  0  0  0  0  0  0  0  0
    6.5397    7.4445   23.2711 H   0  0  0  0  0  0  0  0  0  0  0  0
    8.6363    7.7918   22.9606 C   0  0  0  0  0  0  0  0  0  0  0  0
    8.9431    9.1873   23.1566 C   0  0  0  0  0  0  0  0  0  0  0  0
    9.7753    9.4050   24.2151 O   0  0  0  0  0  0  0  0  0  0  0  0
    8.6571   10.4226   22.6125 N   0  0  0  0  0  0  0  0  0  0  0  0
    8.4015   11.6159   23.4516 C   0  0  0  0  0  0  0  0  0  0  0  0
    7.5039   12.4549   22.6066 C   0  0  0  0  0  0  0  0  0  0  0  0
    7.4582   11.7831   21.2343 C   0  0  0  0  0  0  0  0  0  0  0  0
    8.7557   11.0074   21.2712 C   0  0  0  0  0  0  0  0  0  0  0  0
    9.8514   11.9816   21.2529 C   0  0  0  0  0  0  0  0  0  0  0  0
   10.7642   12.0607   22.1532 O   0  0  0  0  0  0  0  0  0  0  0  0
   10.0031   12.9417   20.2368 N   0  0  0  0  0  0  0  0  0  0  0  0
   10.9225   14.0762   20.3822 C   0  0  0  0  0  0  0  0  0  0  0  0
    9.2998   12.7598   18.9885 C   0  0  0  0  0  0  0  0  0  0  0  0
    9.5031    6.8072   22.3405 C   0  0  0  0  0  0  0  0  0  0  0  0
   11.8552    6.7319   23.2394 C   0  0  0  0  0  0  0  0  0  0  0  0
   10.4977    6.0720   23.1574 C   0  0  0  0  0  0  0  0  0  0  0  0
   10.0219    5.9740   24.6248 C   0  0  0  0  0  0  0  0  0  0  0  0
 66 67  1  0  0  0
 67 68  1  0  0  0
 67 65  1  0  0  0
 65 52  1  0  0  0
 52 48  1  0  0  0
 48 49  1  0  0  0
 49 50  2  0  0  0
 49 46  1  0  0  0
 46 47  1  0  0  0
 46 42  1  0  0  0
 42 43  1  0  0  0
 43 44  2  0  0  0
 43 40  1  0  0  0
 40 41  1  0  0  0
 40 36  1  0  0  0
 36 37  1  0  0  0
 37 38  2  0  0  0
 37  1  1  0  0  0
  1  2  1  0  0  0
  1  3  1  0  0  0
  3  4  1  0  0  0
  4  5  2  0  0  0
  4  7  1  0  0  0
  7  8  1  0  0  0
  7  9  1  0  0  0
  9 10  1  0  0  0
 10 11  2  0  0  0
 10 13  1  0  0  0
 13 14  1  0  0  0
 13 15  1  0  0  0
 15 16  1  0  0  0
 16 17  2  0  0  0
 16 19  1  0  0  0
 19 20  1  0  0  0
 19 21  1  0  0  0
 21 22  1  0  0  0
 22 23  2  0  0  0
 22 25  1  0  0  0
 25 26  1  0  0  0
 25 27  1  0  0  0
 27 28  1  0  0  0
 28 29  2  0  0  0
 28 31  1  0  0  0
 31 32  1  0  0  0
 31 33  1  0  0  0
 33 34  1  0  0  0
 33 35  2  0  0  0
 52 53  1  0  0  0
 53 54  2  0  0  0
 53 55  1  0  0  0
 55 56  1  0  0  0
 56 57  1  0  0  0
 57 58  1  0  0  0
 58 59  1  0  0  0
 59 60  1  0  0  0
 60 61  2  0  0  0
 60 62  1  0  0  0
 62 63  1  0  0  0
 62 64  1  0  0  0
 59 55  1  0  0  0
 48 51  1  0  0  0
 42 45  1  0  0  0
 36 39  1  0  0  0
  3  6  1  0  0  0
  9 12  1  0  0  0
 15 18  1  0  0  0
 21 24  1  0  0  0
 27 30  1  0  0  0
M  END
> <minimizedAffinity>
-8.55130

> <CNNscore>
0.3755645454

> <CNNaffinity>
7.5221185684

> <CNN_VS>
2.8250410557

> <CNNaffinity_variance>
0.2946317792

$$$$
[H]N(C(=O)[C@]([H])(C(=O)C([H])([H])[H])C([H])([H])[H])[C@]([H])(C(=O)N([H])[C@]([H])(C(=O)N([H])[C@]([H])(C(=O)N([H])[C@]([H])(C(=O)N([H])[C@]([H])(C(=O)N([H])[C@]([H])(C(=O)N([H])[C@]([H])(C(=O)N([H])[C@]([H])(C(=O)N1C([H])([H])C([H])([H])C([H])([H])[C@@]1([H])C(=O)N(C([H])([H])[H])C([H])([H])[H])C([H])([H])C([H])(C([H])([H])[H])C([H])([H])[H])C([H])([H])[H])C([H])([H])[H])C([H])([H])[H])C([H])([H])[H])C([H])([H])[H])C([H])([H])[H])C([H])([H])[H]


 68 68  0  0  0  0  0  0  0  0999 V2000
    4.3918    3.2380   17.3931 C   0  0  0  0  0  0  0  0  0  0  0  0
    3.6727    4.3084   18.2260 C   0  0  0  0  0  0  0  0  0  0  0  0
    3.5962    2.9764   16.1997 N   0  0  0  0  0  0  0  0  0  0  0  0
    2.7779    3.8642   15.5741 C   0  0  0  0  0  0  0  0  0  0  0  0
    2.5570    5.0796   15.9032 O   0  0  0  0  0  0  0  0  0  0  0  0
    3.7272    1.9956   15.8182 H   0  0  0  0  0  0  0  0  0  0  0  0
    2.0489    3.3890   14.3348 C   0  0  0  0  0  0  0  0  0  0  0  0
    3.1099    2.7751   13.4058 C   0  0  0  0  0  0  0  0  0  0  0  0
    1.6009    4.6949   13.8509 N   0  0  0  0  0  0  0  0  0  0  0  0
    0.5766    4.9223   13.0104 C   0  0  0  0  0  0  0  0  0  0  0  0
   -0.1859    3.9756   12.6069 O   0  0  0  0  0  0  0  0  0  0  0  0
    2.1382    5.5212   14.2703 H   0  0  0  0  0  0  0  0  0  0  0  0
    0.3172    6.3342   12.5164 C   0  0  0  0  0  0  0  0  0  0  0  0
   -0.8767    6.9307   13.1280 C   0  0  0  0  0  0  0  0  0  0  0  0
    0.3891    6.1571   11.1145 N   0  0  0  0  0  0  0  0  0  0  0  0
    1.1208    7.1862   10.3564 C   0  0  0  0  0  0  0  0  0  0  0  0
    1.6526    8.1611   10.7582 O   0  0  0  0  0  0  0  0  0  0  0  0
   -0.0762    5.3698   10.6665 H   0  0  0  0  0  0  0  0  0  0  0  0
    1.1086    6.8683    8.8532 C   0  0  0  0  0  0  0  0  0  0  0  0
    1.9384    7.9210    8.1909 C   0  0  0  0  0  0  0  0  0  0  0  0
   -0.3251    7.0769    8.5778 N   0  0  0  0  0  0  0  0  0  0  0  0
   -1.2138    6.2396    8.0461 C   0  0  0  0  0  0  0  0  0  0  0  0
   -0.8564    5.0459    7.7510 O   0  0  0  0  0  0  0  0  0  0  0  0
   -0.6328    8.0609    8.8703 H   0  0  0  0  0  0  0  0  0  0  0  0
   -2.6303    6.5355    7.7348 C   0  0  0  0  0  0  0  0  0  0  0  0
   -2.9880    7.8452    7.1837 C   0  0  0  0  0  0  0  0  0  0  0  0
   -3.3447    6.1526    8.9838 N   0  0  0  0  0  0  0  0  0  0  0  0
   -4.2356    5.0747    8.9082 C   0  0  0  0  0  0  0  0  0  0  0  0
   -4.4246    4.4113    7.8393 O   0  0  0  0  0  0  0  0  0  0  0  0
   -3.1822    6.6938    9.8201 H   0  0  0  0  0  0  0  0  0  0  0  0
   -5.0171    4.6493   10.0717 C   0  0  0  0  0  0  0  0  0  0  0  0
   -4.3545    3.3512   10.5594 C   0  0  0  0  0  0  0  0  0  0  0  0
   -5.0311    5.6861   11.0952 C   0  0  0  0  0  0  0  0  0  0  0  0
   -6.1464    6.6728   11.1165 C   0  0  0  0  0  0  0  0  0  0  0  0
   -4.1553    5.7814   11.9505 O   0  0  0  0  0  0  0  0  0  0  0  0
    4.4231    2.0593   19.4472 N   0  0  0  0  0  0  0  0  0  0  0  0
    4.2134    1.8795   18.1073 C   0  0  0  0  0  0  0  0  0  0  0  0
    3.9369    0.8806   17.4892 O   0  0  0  0  0  0  0  0  0  0  0  0
    4.5381    3.0788   19.8031 H   0  0  0  0  0  0  0  0  0  0  0  0
    4.4685    1.1432   20.5664 C   0  0  0  0  0  0  0  0  0  0  0  0
    5.8232    0.6848   20.9346 C   0  0  0  0  0  0  0  0  0  0  0  0
    4.2381    3.4340   21.4254 N   0  0  0  0  0  0  0  0  0  0  0  0
    3.8876    2.1229   21.6246 C   0  0  0  0  0  0  0  0  0  0  0  0
    3.1491    1.5981   22.4782 O   0  0  0  0  0  0  0  0  0  0  0  0
    4.9487    3.5838   20.5809 H   0  0  0  0  0  0  0  0  0  0  0  0
    3.9177    4.6773   21.9966 C   0  0  0  0  0  0  0  0  0  0  0  0
    4.5755    4.5600   23.4874 C   0  0  0  0  0  0  0  0  0  0  0  0
    4.5806    7.1097   21.7212 N   0  0  0  0  0  0  0  0  0  0  0  0
    4.7743    5.7653   21.4231 C   0  0  0  0  0  0  0  0  0  0  0  0
    5.6357    5.3520   20.6475 O   0  0  0  0  0  0  0  0  0  0  0  0
    3.8918    7.4076   22.4037 H   0  0  0  0  0  0  0  0  0  0  0  0
    5.3618    8.1999   21.0532 C   0  0  0  0  0  0  0  0  0  0  0  0
    6.6967    8.2509   21.5968 C   0  0  0  0  0  0  0  0  0  0  0  0
    7.6571    7.9475   20.6771 O   0  0  0  0  0  0  0  0  0  0  0  0
    7.3485    8.5072   22.7856 N   0  0  0  0  0  0  0  0  0  0  0  0
    8.5052    7.7029   23.2421 C   0  0  0  0  0  0  0  0  0  0  0  0
    8.4427    7.8079   24.7283 C   0  0  0  0  0  0  0  0  0  0  0  0
    7.3626    8.8442   25.0382 C   0  0  0  0  0  0  0  0  0  0  0  0
    7.3542    9.6203   23.7405 C   0  0  0  0  0  0  0  0  0  0  0  0
    8.6345   10.3283   23.6429 C   0  0  0  0  0  0  0  0  0  0  0  0
    9.6360   10.1228   24.4205 O   0  0  0  0  0  0  0  0  0  0  0  0
    8.8871   11.3208   22.6793 N   0  0  0  0  0  0  0  0  0  0  0  0
   10.0518   12.2082   22.7768 C   0  0  0  0  0  0  0  0  0  0  0  0
    8.0258   11.4123   21.5236 C   0  0  0  0  0  0  0  0  0  0  0  0
    4.5331    9.3431   20.7188 C   0  0  0  0  0  0  0  0  0  0  0  0
    5.4129   10.3474   18.5825 C   0  0  0  0  0  0  0  0  0  0  0  0
    4.2636    9.6770   19.3001 C   0  0  0  0  0  0  0  0  0  0  0  0
    3.9925    8.3909   18.4868 C   0  0  0  0  0  0  0  0  0  0  0  0
 66 67  1  0  0  0
 67 68  1  0  0  0
 67 65  1  0  0  0
 65 52  1  0  0  0
 52 48  1  0  0  0
 48 49  1  0  0  0
 49 50  2  0  0  0
 49 46  1  0  0  0
 46 47  1  0  0  0
 46 42  1  0  0  0
 42 43  1  0  0  0
 43 44  2  0  0  0
 43 40  1  0  0  0
 40 41  1  0  0  0
 40 36  1  0  0  0
 36 37  1  0  0  0
 37 38  2  0  0  0
 37  1  1  0  0  0
  1  2  1  0  0  0
  1  3  1  0  0  0
  3  4  1  0  0  0
  4  5  2  0  0  0
  4  7  1  0  0  0
  7  8  1  0  0  0
  7  9  1  0  0  0
  9 10  1  0  0  0
 10 11  2  0  0  0
 10 13  1  0  0  0
 13 14  1  0  0  0
 13 15  1  0  0  0
 15 16  1  0  0  0
 16 17  2  0  0  0
 16 19  1  0  0  0
 19 20  1  0  0  0
 19 21  1  0  0  0
 21 22  1  0  0  0
 22 23  2  0  0  0
 22 25  1  0  0  0
 25 26  1  0  0  0
 25 27  1  0  0  0
 27 28  1  0  0  0
 28 29  2  0  0  0
 28 31  1  0  0  0
 31 32  1  0  0  0
 31 33  1  0  0  0
 33 34  1  0  0  0
 33 35  2  0  0  0
 52 53  1  0  0  0
 53 54  2  0  0  0
 53 55  1  0  0  0
 55 56  1  0  0  0
 56 57  1  0  0  0
 57 58  1  0  0  0
 58 59  1  0  0  0
 59 60  1  0  0  0
 60 61  2  0  0  0
 60 62  1  0  0  0
 62 63  1  0  0  0
 62 64  1  0  0  0
 59 55  1  0  0  0
 48 51  1  0  0  0
 42 45  1  0  0  0
 36 39  1  0  0  0
  3  6  1  0  0  0
  9 12  1  0  0  0
 15 18  1  0  0  0
 21 24  1  0  0  0
 27 30  1  0  0  0
M  END
> <minimizedAffinity>
-8.54492

> <CNNscore>
0.3107001185

> <CNNaffinity>
6.7045021057

> <CNN_VS>
2.0830895901

> <CNNaffinity_variance>
0.5981621146

$$$$
[H]N(C(=O)[C@]([H])(C(=O)C([H])([H])[H])C([H])([H])[H])[C@]([H])(C(=O)N([H])[C@]([H])(C(=O)N([H])[C@]([H])(C(=O)N([H])[C@]([H])(C(=O)N([H])[C@]([H])(C(=O)N([H])[C@]([H])(C(=O)N([H])[C@]([H])(C(=O)N([H])[C@]([H])(C(=O)N1C([H])([H])C([H])([H])C([H])([H])[C@@]1([H])C(=O)N(C([H])([H])[H])C([H])([H])[H])C([H])([H])C([H])(C([H])([H])[H])C([H])([H])[H])C([H])([H])[H])C([H])([H])[H])C([H])([H])[H])C([H])([H])[H])C([H])([H])[H])C([H])([H])[H])C([H])([H])[H]


 68 68  0  0  0  0  0  0  0  0999 V2000
    2.9613    5.7821   15.6255 C   0  0  0  0  0  0  0  0  0  0  0  0
    4.1531    6.7380   15.4761 C   0  0  0  0  0  0  0  0  0  0  0  0
    3.4764    4.4225   15.7336 N   0  0  0  0  0  0  0  0  0  0  0  0
    3.6031    3.7046   16.8817 C   0  0  0  0  0  0  0  0  0  0  0  0
    3.2949    4.0755   18.0656 O   0  0  0  0  0  0  0  0  0  0  0  0
    3.7378    4.0000   14.7967 H   0  0  0  0  0  0  0  0  0  0  0  0
    4.1518    2.2977   16.7689 C   0  0  0  0  0  0  0  0  0  0  0  0
    3.0481    1.4432   16.1229 C   0  0  0  0  0  0  0  0  0  0  0  0
    4.2822    2.0167   18.1987 N   0  0  0  0  0  0  0  0  0  0  0  0
    3.6942    1.0095   18.8675 C   0  0  0  0  0  0  0  0  0  0  0  0
    3.0021    0.1155   18.2656 O   0  0  0  0  0  0  0  0  0  0  0  0
    4.9578    2.6718   18.7103 H   0  0  0  0  0  0  0  0  0  0  0  0
    3.8436    0.9293   20.3761 C   0  0  0  0  0  0  0  0  0  0  0  0
    2.7839    0.1287   21.0017 C   0  0  0  0  0  0  0  0  0  0  0  0
    4.0018    2.2941   20.7139 N   0  0  0  0  0  0  0  0  0  0  0  0
    4.9430    2.5986   21.8050 C   0  0  0  0  0  0  0  0  0  0  0  0
    5.5842    1.8516   22.4574 O   0  0  0  0  0  0  0  0  0  0  0  0
    3.4589    3.0126   20.2385 H   0  0  0  0  0  0  0  0  0  0  0  0
    5.0051    4.1116   22.0657 C   0  0  0  0  0  0  0  0  0  0  0  0
    3.7054    4.4852   22.7035 C   0  0  0  0  0  0  0  0  0  0  0  0
    5.0649    4.5905   20.6721 N   0  0  0  0  0  0  0  0  0  0  0  0
    5.8090    5.5601   20.1432 C   0  0  0  0  0  0  0  0  0  0  0  0
    6.6544    6.1782   20.8801 O   0  0  0  0  0  0  0  0  0  0  0  0
    4.3909    4.0389   20.0476 H   0  0  0  0  0  0  0  0  0  0  0  0
    5.7732    6.0370   18.7425 C   0  0  0  0  0  0  0  0  0  0  0  0
    6.7087    5.4731   17.7658 C   0  0  0  0  0  0  0  0  0  0  0  0
    5.8133    7.5188   18.8819 N   0  0  0  0  0  0  0  0  0  0  0  0
    4.5926    8.2023   18.8170 C   0  0  0  0  0  0  0  0  0  0  0  0
    3.4770    7.6072   18.6766 O   0  0  0  0  0  0  0  0  0  0  0  0
    6.7091    7.9711   18.9897 H   0  0  0  0  0  0  0  0  0  0  0  0
    4.5322    9.6633   18.9009 C   0  0  0  0  0  0  0  0  0  0  0  0
    3.0360   10.0103   18.9549 C   0  0  0  0  0  0  0  0  0  0  0  0
    5.2585   10.1470   20.0676 C   0  0  0  0  0  0  0  0  0  0  0  0
    6.3549   11.1380   19.8831 C   0  0  0  0  0  0  0  0  0  0  0  0
    5.0021    9.7706   21.2078 O   0  0  0  0  0  0  0  0  0  0  0  0
    2.8949    6.5092   13.3725 N   0  0  0  0  0  0  0  0  0  0  0  0
    2.2653    5.6701   14.2506 C   0  0  0  0  0  0  0  0  0  0  0  0
    1.3239    4.9334   14.0853 O   0  0  0  0  0  0  0  0  0  0  0  0
    3.8089    6.9900   13.7079 H   0  0  0  0  0  0  0  0  0  0  0  0
    2.6289    6.8716   11.9970 C   0  0  0  0  0  0  0  0  0  0  0  0
    2.1877    8.2672   11.8003 C   0  0  0  0  0  0  0  0  0  0  0  0
    4.6823    7.7850   11.0030 N   0  0  0  0  0  0  0  0  0  0  0  0
    4.0740    6.6475   11.4692 C   0  0  0  0  0  0  0  0  0  0  0  0
    4.5008    5.4836   11.5820 O   0  0  0  0  0  0  0  0  0  0  0  0
    4.0184    8.6794   11.0028 H   0  0  0  0  0  0  0  0  0  0  0  0
    5.9574    8.1457   10.5352 C   0  0  0  0  0  0  0  0  0  0  0  0
    6.8784    8.0015   11.8768 C   0  0  0  0  0  0  0  0  0  0  0  0
    6.1510    6.8084    8.3890 N   0  0  0  0  0  0  0  0  0  0  0  0
    6.5489    7.0513    9.6991 C   0  0  0  0  0  0  0  0  0  0  0  0
    7.3903    6.3803   10.2960 O   0  0  0  0  0  0  0  0  0  0  0  0
    5.4899    7.4142    7.9147 H   0  0  0  0  0  0  0  0  0  0  0  0
    6.6590    5.6403    7.6000 C   0  0  0  0  0  0  0  0  0  0  0  0
    7.4249    6.1068    6.4706 C   0  0  0  0  0  0  0  0  0  0  0  0
    8.4492    5.2689    6.1403 O   0  0  0  0  0  0  0  0  0  0  0  0
    7.4715    7.1636    5.5846 N   0  0  0  0  0  0  0  0  0  0  0  0
    8.7483    7.7780    5.1537 C   0  0  0  0  0  0  0  0  0  0  0  0
    8.3717    9.1848    4.8334 C   0  0  0  0  0  0  0  0  0  0  0  0
    6.8460    9.2453    4.9042 C   0  0  0  0  0  0  0  0  0  0  0  0
    6.5081    7.7896    4.6732 C   0  0  0  0  0  0  0  0  0  0  0  0
    6.8764    7.4663    3.2913 C   0  0  0  0  0  0  0  0  0  0  0  0
    7.8992    6.7631    2.9608 O   0  0  0  0  0  0  0  0  0  0  0  0
    6.1379    7.9104    2.1801 N   0  0  0  0  0  0  0  0  0  0  0  0
    6.6731    7.8225    0.8165 C   0  0  0  0  0  0  0  0  0  0  0  0
    4.7888    8.3862    2.3786 C   0  0  0  0  0  0  0  0  0  0  0  0
    5.7226    4.5318    7.5959 C   0  0  0  0  0  0  0  0  0  0  0  0
    6.6186    3.0273    9.4069 C   0  0  0  0  0  0  0  0  0  0  0  0
    6.1786    3.1715    7.9679 C   0  0  0  0  0  0  0  0  0  0  0  0
    5.0250    2.1550    7.8086 C   0  0  0  0  0  0  0  0  0  0  0  0
 66 67  1  0  0  0
 67 68  1  0  0  0
 67 65  1  0  0  0
 65 52  1  0  0  0
 52 48  1  0  0  0
 48 49  1  0  0  0
 49 50  2  0  0  0
 49 46  1  0  0  0
 46 47  1  0  0  0
 46 42  1  0  0  0
 42 43  1  0  0  0
 43 44  2  0  0  0
 43 40  1  0  0  0
 40 41  1  0  0  0
 40 36  1  0  0  0
 36 37  1  0  0  0
 37 38  2  0  0  0
 37  1  1  0  0  0
  1  2  1  0  0  0
  1  3  1  0  0  0
  3  4  1  0  0  0
  4  5  2  0  0  0
  4  7  1  0  0  0
  7  8  1  0  0  0
  7  9  1  0  0  0
  9 10  1  0  0  0
 10 11  2  0  0  0
 10 13  1  0  0  0
 13 14  1  0  0  0
 13 15  1  0  0  0
 15 16  1  0  0  0
 16 17  2  0  0  0
 16 19  1  0  0  0
 19 20  1  0  0  0
 19 21  1  0  0  0
 21 22  1  0  0  0
 22 23  2  0  0  0
 22 25  1  0  0  0
 25 26  1  0  0  0
 25 27  1  0  0  0
 27 28  1  0  0  0
 28 29  2  0  0  0
 28 31  1  0  0  0
 31 32  1  0  0  0
 31 33  1  0  0  0
 33 34  1  0  0  0
 33 35  2  0  0  0
 52 53  1  0  0  0
 53 54  2  0  0  0
 53 55  1  0  0  0
 55 56  1  0  0  0
 56 57  1  0  0  0
 57 58  1  0  0  0
 58 59  1  0  0  0
 59 60  1  0  0  0
 60 61  2  0  0  0
 60 62  1  0  0  0
 62 63  1  0  0  0
 62 64  1  0  0  0
 59 55  1  0  0  0
 48 51  1  0  0  0
 42 45  1  0  0  0
 36 39  1  0  0  0
  3  6  1  0  0  0
  9 12  1  0  0  0
 15 18  1  0  0  0
 21 24  1  0  0  0
 27 30  1  0  0  0
M  END
> <minimizedAffinity>
-8.06274

> <CNNscore>
0.3055962324

> <CNNaffinity>
6.8847532272

> <CNN_VS>
2.1039545536

> <CNNaffinity_variance>
0.3952984214

$$$$
[H]N(C(=O)[C@]([H])(C(=O)C([H])([H])[H])C([H])([H])[H])[C@]([H])(C(=O)N([H])[C@]([H])(C(=O)N([H])[C@]([H])(C(=O)N([H])[C@]([H])(C(=O)N([H])[C@]([H])(C(=O)N([H])[C@]([H])(C(=O)N([H])[C@]([H])(C(=O)N([H])[C@]([H])(C(=O)N1C([H])([H])C([H])([H])C([H])([H])[C@@]1([H])C(=O)N(C([H])([H])[H])C([H])([H])[H])C([H])([H])C([H])(C([H])([H])[H])C([H])([H])[H])C([H])([H])[H])C([H])([H])[H])C([H])([H])[H])C([H])([H])[H])C([H])([H])[H])C([H])([H])[H])C([H])([H])[H]


 68 68  0  0  0  0  0  0  0  0999 V2000
    4.0527    6.0703   18.2614 C   0  0  0  0  0  0  0  0  0  0  0  0
    5.4622    5.7630   17.7367 C   0  0  0  0  0  0  0  0  0  0  0  0
    3.1309    6.0552   17.1319 N   0  0  0  0  0  0  0  0  0  0  0  0
    2.6243    4.9469   16.5284 C   0  0  0  0  0  0  0  0  0  0  0  0
    2.8504    3.7263   16.8338 O   0  0  0  0  0  0  0  0  0  0  0  0
    2.8485    7.0258   16.8114 H   0  0  0  0  0  0  0  0  0  0  0  0
    1.6675    5.1561   15.3734 C   0  0  0  0  0  0  0  0  0  0  0  0
    1.8564    3.9632   14.4211 C   0  0  0  0  0  0  0  0  0  0  0  0
    2.2671    6.3761   14.8330 N   0  0  0  0  0  0  0  0  0  0  0  0
    3.2678    6.4405   13.9375 C   0  0  0  0  0  0  0  0  0  0  0  0
    3.7498    5.3877   13.3899 O   0  0  0  0  0  0  0  0  0  0  0  0
    1.8005    7.2777   15.1747 H   0  0  0  0  0  0  0  0  0  0  0  0
    3.8516    7.7924   13.5682 C   0  0  0  0  0  0  0  0  0  0  0  0
    2.8144    8.7865   13.2664 C   0  0  0  0  0  0  0  0  0  0  0  0
    4.7996    7.4274   12.5833 N   0  0  0  0  0  0  0  0  0  0  0  0
    5.9991    8.2751   12.4762 C   0  0  0  0  0  0  0  0  0  0  0  0
    6.2795    9.2399   13.0969 O   0  0  0  0  0  0  0  0  0  0  0  0
    4.6282    6.6354   11.9664 H   0  0  0  0  0  0  0  0  0  0  0  0
    6.9298    7.7658   11.3647 C   0  0  0  0  0  0  0  0  0  0  0  0
    8.3019    8.2527   11.7049 C   0  0  0  0  0  0  0  0  0  0  0  0
    6.3717    8.5169   10.2248 N   0  0  0  0  0  0  0  0  0  0  0  0
    5.4550    8.1429    9.3342 C   0  0  0  0  0  0  0  0  0  0  0  0
    4.8962    6.9965    9.4490 O   0  0  0  0  0  0  0  0  0  0  0  0
    6.8064    9.4943   10.1597 H   0  0  0  0  0  0  0  0  0  0  0  0
    4.9841    8.9253    8.1693 C   0  0  0  0  0  0  0  0  0  0  0  0
    3.5480    9.0085    7.8908 C   0  0  0  0  0  0  0  0  0  0  0  0
    5.8221    8.4143    7.0496 N   0  0  0  0  0  0  0  0  0  0  0  0
    6.2800    9.3492    6.1128 C   0  0  0  0  0  0  0  0  0  0  0  0
    6.0329   10.5938    6.2048 O   0  0  0  0  0  0  0  0  0  0  0  0
    6.0039    7.4230    6.9940 H   0  0  0  0  0  0  0  0  0  0  0  0
    7.0748    8.9389    4.9530 C   0  0  0  0  0  0  0  0  0  0  0  0
    7.7972    7.6527    5.3841 C   0  0  0  0  0  0  0  0  0  0  0  0
    6.2254    8.7364    3.7867 C   0  0  0  0  0  0  0  0  0  0  0  0
    6.7444    9.0940    2.4374 C   0  0  0  0  0  0  0  0  0  0  0  0
    5.0895    8.2774    3.8688 O   0  0  0  0  0  0  0  0  0  0  0  0
    4.0157    8.2919   17.4415 N   0  0  0  0  0  0  0  0  0  0  0  0
    3.9905    7.5751   18.6064 C   0  0  0  0  0  0  0  0  0  0  0  0
    3.9343    7.9514   19.7516 O   0  0  0  0  0  0  0  0  0  0  0  0
    3.9406    7.7371   16.5111 H   0  0  0  0  0  0  0  0  0  0  0  0
    4.0629    9.7109   17.1616 C   0  0  0  0  0  0  0  0  0  0  0  0
    3.2139   10.5420   18.0386 C   0  0  0  0  0  0  0  0  0  0  0  0
    5.8715    9.9140   18.8128 N   0  0  0  0  0  0  0  0  0  0  0  0
    5.5734    9.9057   17.4740 C   0  0  0  0  0  0  0  0  0  0  0  0
    6.3120    9.9808   16.4748 O   0  0  0  0  0  0  0  0  0  0  0  0
    4.9748    9.8577   19.4712 H   0  0  0  0  0  0  0  0  0  0  0  0
    7.0332    9.9507   19.6026 C   0  0  0  0  0  0  0  0  0  0  0  0
    6.5555   10.8346   20.8908 C   0  0  0  0  0  0  0  0  0  0  0  0
    6.4588    8.1531   21.2969 N   0  0  0  0  0  0  0  0  0  0  0  0
    7.2671    8.6294   20.2705 C   0  0  0  0  0  0  0  0  0  0  0  0
    8.2543    8.0326   19.8418 O   0  0  0  0  0  0  0  0  0  0  0  0
    5.6248    8.6509   21.5895 H   0  0  0  0  0  0  0  0  0  0  0  0
    6.7677    6.8893   22.0403 C   0  0  0  0  0  0  0  0  0  0  0  0
    7.9560    7.0672   22.8379 C   0  0  0  0  0  0  0  0  0  0  0  0
    8.8543    6.0520   22.6870 O   0  0  0  0  0  0  0  0  0  0  0  0
    8.5028    7.9535   23.7430 N   0  0  0  0  0  0  0  0  0  0  0  0
    9.2352    7.5014   24.9481 C   0  0  0  0  0  0  0  0  0  0  0  0
    9.0292    8.6111   25.9225 C   0  0  0  0  0  0  0  0  0  0  0  0
    8.3542    9.7416   25.1460 C   0  0  0  0  0  0  0  0  0  0  0  0
    8.7816    9.3933   23.7380 C   0  0  0  0  0  0  0  0  0  0  0  0
   10.2309    9.6001   23.6543 C   0  0  0  0  0  0  0  0  0  0  0  0
   11.0762    8.6821   23.3501 O   0  0  0  0  0  0  0  0  0  0  0  0
   10.8417   10.8402   23.9118 N   0  0  0  0  0  0  0  0  0  0  0  0
   12.2919   10.9578   24.1031 C   0  0  0  0  0  0  0  0  0  0  0  0
   10.0323   12.0363   23.9046 C   0  0  0  0  0  0  0  0  0  0  0  0
    6.4230    5.7049   21.2762 C   0  0  0  0  0  0  0  0  0  0  0  0
    4.0587    5.2771   22.0333 C   0  0  0  0  0  0  0  0  0  0  0  0
    5.4501    4.7269   21.8184 C   0  0  0  0  0  0  0  0  0  0  0  0
    5.2580    3.5545   20.8296 C   0  0  0  0  0  0  0  0  0  0  0  0
 66 67  1  0  0  0
 67 68  1  0  0  0
 67 65  1  0  0  0
 65 52  1  0  0  0
 52 48  1  0  0  0
 48 49  1  0  0  0
 49 50  2  0  0  0
 49 46  1  0  0  0
 46 47  1  0  0  0
 46 42  1  0  0  0
 42 43  1  0  0  0
 43 44  2  0  0  0
 43 40  1  0  0  0
 40 41  1  0  0  0
 40 36  1  0  0  0
 36 37  1  0  0  0
 37 38  2  0  0  0
 37  1  1  0  0  0
  1  2  1  0  0  0
  1  3  1  0  0  0
  3  4  1  0  0  0
  4  5  2  0  0  0
  4  7  1  0  0  0
  7  8  1  0  0  0
  7  9  1  0  0  0
  9 10  1  0  0  0
 10 11  2  0  0  0
 10 13  1  0  0  0
 13 14  1  0  0  0
 13 15  1  0  0  0
 15 16  1  0  0  0
 16 17  2  0  0  0
 16 19  1  0  0  0
 19 20  1  0  0  0
 19 21  1  0  0  0
 21 22  1  0  0  0
 22 23  2  0  0  0
 22 25  1  0  0  0
 25 26  1  0  0  0
 25 27  1  0  0  0
 27 28  1  0  0  0
 28 29  2  0  0  0
 28 31  1  0  0  0
 31 32  1  0  0  0
 31 33  1  0  0  0
 33 34  1  0  0  0
 33 35  2  0  0  0
 52 53  1  0  0  0
 53 54  2  0  0  0
 53 55  1  0  0  0
 55 56  1  0  0  0
 56 57  1  0  0  0
 57 58  1  0  0  0
 58 59  1  0  0  0
 59 60  1  0  0  0
 60 61  2  0  0  0
 60 62  1  0  0  0
 62 63  1  0  0  0
 62 64  1  0  0  0
 59 55  1  0  0  0
 48 51  1  0  0  0
 42 45  1  0  0  0
 36 39  1  0  0  0
  3  6  1  0  0  0
  9 12  1  0  0  0
 15 18  1  0  0  0
 21 24  1  0  0  0
 27 30  1  0  0  0
M  END
> <minimizedAffinity>
-8.22308

> <CNNscore>
0.2993002832

> <CNNaffinity>
6.3961744308

> <CNN_VS>
1.9143768549

> <CNNaffinity_variance>
0.2319590747

$$$$
[H]N(C(=O)[C@@]([H])(N([H])C(=O)[C@@]([H])(N([H])C(=O)[C@]([H])(N([H])C(=O)[C@@]([H])(C(=O)C([H])([H])[H])C([H])([H])[H])C([H])([H])[H])C([H])([H])[H])C([H])([H])[H])[C@]([H])(C(=O)N([H])[C@]([H])(C(=O)N([H])[C@]([H])(C(=O)N([H])[C@]([H])(C(=O)N([H])[C@]([H])(C(=O)N1C([H])([H])C([H])([H])C([H])([H])[C@]1([H])C(=O)N(C([H])([H])[H])C([H])([H])[H])C([H])([H])C([H])(C([H])([H])[H])C([H])([H])[H])C([H])([H])[H])C([H])([H])[H])C([H])([H])[H])C([H])([H])[H]


 68 68  0  0  0  0  0  0  0  0999 V2000
    3.6246    9.8929   16.6253 C   0  0  0  0  0  0  0  0  0  0  0  0
    4.5820   11.1326   16.6158 C   0  0  0  0  0  0  0  0  0  0  0  0
    4.4168    8.7717   17.1111 N   0  0  0  0  0  0  0  0  0  0  0  0
    4.2703    8.3277   18.4582 C   0  0  0  0  0  0  0  0  0  0  0  0
    3.4328    8.9627   19.1842 O   0  0  0  0  0  0  0  0  0  0  0  0
    5.0841    8.3035   16.4634 H   0  0  0  0  0  0  0  0  0  0  0  0
    5.0092    7.2180   19.0481 C   0  0  0  0  0  0  0  0  0  0  0  0
    4.1235    6.3290   19.8984 C   0  0  0  0  0  0  0  0  0  0  0  0
    6.0891    7.7406   19.8932 N   0  0  0  0  0  0  0  0  0  0  0  0
    7.4465    7.5710   19.6052 C   0  0  0  0  0  0  0  0  0  0  0  0
    7.7434    6.9046   18.5530 O   0  0  0  0  0  0  0  0  0  0  0  0
    5.7844    8.2605   20.7436 H   0  0  0  0  0  0  0  0  0  0  0  0
    8.5323    8.1037   20.4175 C   0  0  0  0  0  0  0  0  0  0  0  0
    9.6002    7.0000   20.6425 C   0  0  0  0  0  0  0  0  0  0  0  0
    8.0637    8.5335   21.7330 N   0  0  0  0  0  0  0  0  0  0  0  0
    8.5368    9.7518   22.3162 C   0  0  0  0  0  0  0  0  0  0  0  0
    9.3748   10.4066   21.6706 O   0  0  0  0  0  0  0  0  0  0  0  0
    7.3809    7.9207   22.2108 H   0  0  0  0  0  0  0  0  0  0  0  0
    8.0431   10.2119   23.6315 C   0  0  0  0  0  0  0  0  0  0  0  0
    7.0330    9.2201   24.2050 C   0  0  0  0  0  0  0  0  0  0  0  0
    7.4629   11.5119   23.5540 N   0  0  0  0  0  0  0  0  0  0  0  0
    8.1772   12.6976   23.7752 C   0  0  0  0  0  0  0  0  0  0  0  0
    9.4086   12.7613   24.0651 O   0  0  0  0  0  0  0  0  0  0  0  0
    6.4553   11.5963   23.3212 H   0  0  0  0  0  0  0  0  0  0  0  0
    7.4696   14.0283   23.6718 C   0  0  0  0  0  0  0  0  0  0  0  0
    8.4600   15.1496   23.5848 C   0  0  0  0  0  0  0  0  0  0  0  0
    6.5475   14.0017   22.5810 N   0  0  0  0  0  0  0  0  0  0  0  0
    6.8307   13.9572   21.2077 C   0  0  0  0  0  0  0  0  0  0  0  0
    8.0303   13.9338   20.8160 O   0  0  0  0  0  0  0  0  0  0  0  0
    5.5165   14.0140   22.8700 H   0  0  0  0  0  0  0  0  0  0  0  0
    5.7335   13.9351   20.2196 C   0  0  0  0  0  0  0  0  0  0  0  0
    4.6573   14.9325   20.6177 C   0  0  0  0  0  0  0  0  0  0  0  0
    5.1244   12.6247   20.0151 C   0  0  0  0  0  0  0  0  0  0  0  0
    5.8129   11.3141   20.1939 C   0  0  0  0  0  0  0  0  0  0  0  0
    3.9266   12.5226   19.6551 O   0  0  0  0  0  0  0  0  0  0  0  0
    2.6131    8.4580   14.8210 N   0  0  0  0  0  0  0  0  0  0  0  0
    3.0948    9.7255   15.2660 C   0  0  0  0  0  0  0  0  0  0  0  0
    3.0550   10.6870   14.4894 O   0  0  0  0  0  0  0  0  0  0  0  0
    2.6940    7.6492   15.4808 H   0  0  0  0  0  0  0  0  0  0  0  0
    2.0302    8.2212   13.5114 C   0  0  0  0  0  0  0  0  0  0  0  0
    3.1790    7.6805   12.6395 C   0  0  0  0  0  0  0  0  0  0  0  0
   -0.2740    7.2643   12.9297 N   0  0  0  0  0  0  0  0  0  0  0  0
    0.9534    7.2301   13.5982 C   0  0  0  0  0  0  0  0  0  0  0  0
    1.1567    6.2310   14.3726 O   0  0  0  0  0  0  0  0  0  0  0  0
   -0.4886    8.0518   12.2866 H   0  0  0  0  0  0  0  0  0  0  0  0
   -1.2861    6.2375   13.0855 C   0  0  0  0  0  0  0  0  0  0  0  0
   -2.4392    6.9133   13.8923 C   0  0  0  0  0  0  0  0  0  0  0  0
   -2.9900    4.9423   11.7146 N   0  0  0  0  0  0  0  0  0  0  0  0
   -1.8336    5.7362   11.8256 C   0  0  0  0  0  0  0  0  0  0  0  0
   -1.2286    6.0408   10.7620 O   0  0  0  0  0  0  0  0  0  0  0  0
   -3.4901    4.6497   12.5675 H   0  0  0  0  0  0  0  0  0  0  0  0
   -3.5578    4.4836   10.4018 C   0  0  0  0  0  0  0  0  0  0  0  0
   -4.8802    4.9729   10.2915 C   0  0  0  0  0  0  0  0  0  0  0  0
   -4.8237    6.3443   10.5645 O   0  0  0  0  0  0  0  0  0  0  0  0
   -6.1979    4.6566   10.0338 N   0  0  0  0  0  0  0  0  0  0  0  0
   -6.9578    3.4470    9.8888 C   0  0  0  0  0  0  0  0  0  0  0  0
   -8.2185    3.7561   10.7148 C   0  0  0  0  0  0  0  0  0  0  0  0
   -8.4560    5.2009   10.3647 C   0  0  0  0  0  0  0  0  0  0  0  0
   -7.2242    5.7195    9.7339 C   0  0  0  0  0  0  0  0  0  0  0  0
   -7.3670    5.8069    8.2450 C   0  0  0  0  0  0  0  0  0  0  0  0
   -8.1006    4.9576    7.6311 O   0  0  0  0  0  0  0  0  0  0  0  0
   -6.7331    6.7822    7.4519 N   0  0  0  0  0  0  0  0  0  0  0  0
   -5.8650    7.7602    8.0478 C   0  0  0  0  0  0  0  0  0  0  0  0
   -6.9513    6.8169    6.0303 C   0  0  0  0  0  0  0  0  0  0  0  0
   -2.9926    3.1846   10.1773 C   0  0  0  0  0  0  0  0  0  0  0  0
   -3.7962    2.6250    7.7776 C   0  0  0  0  0  0  0  0  0  0  0  0
   -3.2897    2.2589    9.0865 C   0  0  0  0  0  0  0  0  0  0  0  0
   -4.2493    1.1633    9.7029 C   0  0  0  0  0  0  0  0  0  0  0  0
 66 67  1  0  0  0
 67 68  1  0  0  0
 67 65  1  0  0  0
 65 52  1  0  0  0
 52 48  1  0  0  0
 48 49  1  0  0  0
 49 50  2  0  0  0
 49 46  1  0  0  0
 46 47  1  0  0  0
 46 42  1  0  0  0
 42 43  1  0  0  0
 43 44  2  0  0  0
 43 40  1  0  0  0
 40 41  1  0  0  0
 40 36  1  0  0  0
 36 37  1  0  0  0
 37 38  2  0  0  0
 37  1  1  0  0  0
  1  2  1  0  0  0
  1  3  1  0  0  0
  3  4  1  0  0  0
  4  5  2  0  0  0
  4  7  1  0  0  0
  7  8  1  0  0  0
  7  9  1  0  0  0
  9 10  1  0  0  0
 10 11  2  0  0  0
 10 13  1  0  0  0
 13 14  1  0  0  0
 13 15  1  0  0  0
 15 16  1  0  0  0
 16 17  2  0  0  0
 16 19  1  0  0  0
 19 20  1  0  0  0
 19 21  1  0  0  0
 21 22  1  0  0  0
 22 23  2  0  0  0
 22 25  1  0  0  0
 25 26  1  0  0  0
 25 27  1  0  0  0
 27 28  1  0  0  0
 28 29  2  0  0  0
 28 31  1  0  0  0
 31 32  1  0  0  0
 31 33  1  0  0  0
 33 34  1  0  0  0
 33 35  2  0  0  0
 52 53  1  0  0  0
 53 54  2  0  0  0
 53 55  1  0  0  0
 55 56  1  0  0  0
 56 57  1  0  0  0
 57 58  1  0  0  0
 58 59  1  0  0  0
 59 60  1  0  0  0
 60 61  2  0  0  0
 60 62  1  0  0  0
 62 63  1  0  0  0
 62 64  1  0  0  0
 59 55  1  0  0  0
 48 51  1  0  0  0
 42 45  1  0  0  0
 36 39  1  0  0  0
  3  6  1  0  0  0
  9 12  1  0  0  0
 15 18  1  0  0  0
 21 24  1  0  0  0
 27 30  1  0  0  0
M  END
> <minimizedAffinity>
-7.64429

> <CNNscore>
0.4797422886

> <CNNaffinity>
6.3404302597

> <CNN_VS>
3.0417726040

> <CNNaffinity_variance>
0.4932509065

$$$$
[H]N(C(=O)[C@@]([H])(N([H])C(=O)[C@@]([H])(N([H])C(=O)[C@]([H])(N([H])C(=O)[C@@]([H])(C(=O)C([H])([H])[H])C([H])([H])[H])C([H])([H])[H])C([H])([H])[H])C([H])([H])[H])[C@]([H])(C(=O)N([H])[C@]([H])(C(=O)N([H])[C@]([H])(C(=O)N([H])[C@]([H])(C(=O)N([H])[C@]([H])(C(=O)N1C([H])([H])C([H])([H])C([H])([H])[C@]1([H])C(=O)N(C([H])([H])[H])C([H])([H])[H])C([H])([H])C([H])(C([H])([H])[H])C([H])([H])[H])C([H])([H])[H])C([H])([H])[H])C([H])([H])[H])C([H])([H])[H]


 68 68  0  0  0  0  0  0  0  0999 V2000
    3.7474    1.8918   16.5349 C   0  0  0  0  0  0  0  0  0  0  0  0
    4.6762    3.1138   16.8474 C   0  0  0  0  0  0  0  0  0  0  0  0
    2.5367    2.4431   15.9425 N   0  0  0  0  0  0  0  0  0  0  0  0
    2.4532    2.6215   14.5302 C   0  0  0  0  0  0  0  0  0  0  0  0
    3.4785    2.2840   13.8471 O   0  0  0  0  0  0  0  0  0  0  0  0
    1.7403    2.7002   16.5619 H   0  0  0  0  0  0  0  0  0  0  0  0
    1.2929    3.1618   13.8321 C   0  0  0  0  0  0  0  0  0  0  0  0
    1.1204    2.5541   12.4542 C   0  0  0  0  0  0  0  0  0  0  0  0
    1.4414    4.6141   13.6829 N   0  0  0  0  0  0  0  0  0  0  0  0
    0.4007    5.4609   13.2902 C   0  0  0  0  0  0  0  0  0  0  0  0
   -0.7304    4.9187   13.0330 O   0  0  0  0  0  0  0  0  0  0  0  0
    2.3893    4.9940   13.8913 H   0  0  0  0  0  0  0  0  0  0  0  0
    0.5215    6.9070   13.1611 C   0  0  0  0  0  0  0  0  0  0  0  0
    1.0464    7.2582   11.7433 C   0  0  0  0  0  0  0  0  0  0  0  0
    1.4680    7.4596   14.1273 N   0  0  0  0  0  0  0  0  0  0  0  0
    2.5118    8.3434   13.7057 C   0  0  0  0  0  0  0  0  0  0  0  0
    2.5907    8.5956   12.4900 O   0  0  0  0  0  0  0  0  0  0  0  0
    1.3432    7.1838   15.1164 H   0  0  0  0  0  0  0  0  0  0  0  0
    3.4534    8.9341   14.6804 C   0  0  0  0  0  0  0  0  0  0  0  0
    4.0756    7.8476   15.5552 C   0  0  0  0  0  0  0  0  0  0  0  0
    2.8224    9.9182   15.4966 N   0  0  0  0  0  0  0  0  0  0  0  0
    3.4526   11.0947   15.9251 C   0  0  0  0  0  0  0  0  0  0  0  0
    4.6423   11.4264   15.6435 O   0  0  0  0  0  0  0  0  0  0  0  0
    1.8409    9.7645   15.7958 H   0  0  0  0  0  0  0  0  0  0  0  0
    2.6979   12.0756   16.7914 C   0  0  0  0  0  0  0  0  0  0  0  0
    3.2314   12.0654   18.1916 C   0  0  0  0  0  0  0  0  0  0  0  0
    2.7190   13.3698   16.1869 N   0  0  0  0  0  0  0  0  0  0  0  0
    1.8151   13.9075   15.2585 C   0  0  0  0  0  0  0  0  0  0  0  0
    0.8350   13.2159   14.8657 O   0  0  0  0  0  0  0  0  0  0  0  0
    3.5327   13.9926   16.4980 H   0  0  0  0  0  0  0  0  0  0  0  0
    2.0030   15.2778   14.7412 C   0  0  0  0  0  0  0  0  0  0  0  0
    3.3735   15.4045   14.0953 C   0  0  0  0  0  0  0  0  0  0  0  0
    1.8400   16.3324   15.7369 C   0  0  0  0  0  0  0  0  0  0  0  0
    1.1541   17.6368   15.5100 C   0  0  0  0  0  0  0  0  0  0  0  0
    2.2947   16.1945   16.8983 O   0  0  0  0  0  0  0  0  0  0  0  0
    4.3047    1.4620   18.9520 N   0  0  0  0  0  0  0  0  0  0  0  0
    3.5364    1.1571   17.7888 C   0  0  0  0  0  0  0  0  0  0  0  0
    2.6824    0.2650   17.8525 O   0  0  0  0  0  0  0  0  0  0  0  0
    5.0496    2.1924   18.8640 H   0  0  0  0  0  0  0  0  0  0  0  0
    4.1240    0.8164   20.2409 C   0  0  0  0  0  0  0  0  0  0  0  0
    5.4430    0.0713   20.5184 C   0  0  0  0  0  0  0  0  0  0  0  0
    4.5719    3.0121   21.4826 N   0  0  0  0  0  0  0  0  0  0  0  0
    3.8786    1.8139   21.2870 C   0  0  0  0  0  0  0  0  0  0  0  0
    2.9336    1.5571   22.1118 O   0  0  0  0  0  0  0  0  0  0  0  0
    5.3461    3.2702   20.8395 H   0  0  0  0  0  0  0  0  0  0  0  0
    4.2617    3.9368   22.5558 C   0  0  0  0  0  0  0  0  0  0  0  0
    4.5371    3.1469   23.8739 C   0  0  0  0  0  0  0  0  0  0  0  0
    6.4873    5.1644   22.5433 N   0  0  0  0  0  0  0  0  0  0  0  0
    5.0804    5.1485   22.5615 C   0  0  0  0  0  0  0  0  0  0  0  0
    4.4829    6.2587   22.5795 O   0  0  0  0  0  0  0  0  0  0  0  0
    7.0065    4.2736   22.5597 H   0  0  0  0  0  0  0  0  0  0  0  0
    7.3016    6.4258   22.4986 C   0  0  0  0  0  0  0  0  0  0  0  0
    6.9126    7.1688   21.3598 C   0  0  0  0  0  0  0  0  0  0  0  0
    7.6173    6.6363   20.2744 O   0  0  0  0  0  0  0  0  0  0  0  0
    6.1338    8.2016   20.8805 N   0  0  0  0  0  0  0  0  0  0  0  0
    5.3549    9.2594   21.4602 C   0  0  0  0  0  0  0  0  0  0  0  0
    5.7547   10.4670   20.5946 C   0  0  0  0  0  0  0  0  0  0  0  0
    5.8333    9.8399   19.2282 C   0  0  0  0  0  0  0  0  0  0  0  0
    5.8642    8.3732   19.4072 C   0  0  0  0  0  0  0  0  0  0  0  0
    4.5299    7.7580   19.1141 C   0  0  0  0  0  0  0  0  0  0  0  0
    3.4865    8.4977   19.0884 O   0  0  0  0  0  0  0  0  0  0  0  0
    4.3368    6.3869   18.8597 N   0  0  0  0  0  0  0  0  0  0  0  0
    5.4444    5.4719   18.8969 C   0  0  0  0  0  0  0  0  0  0  0  0
    3.0251    5.8824   18.5522 C   0  0  0  0  0  0  0  0  0  0  0  0
    8.5898    6.0640   23.0152 C   0  0  0  0  0  0  0  0  0  0  0  0
   10.5193    6.4003   24.7127 C   0  0  0  0  0  0  0  0  0  0  0  0
    9.4972    6.8906   23.8079 C   0  0  0  0  0  0  0  0  0  0  0  0
    8.5748    7.9019   24.6001 C   0  0  0  0  0  0  0  0  0  0  0  0
 66 67  1  0  0  0
 67 68  1  0  0  0
 67 65  1  0  0  0
 65 52  1  0  0  0
 52 48  1  0  0  0
 48 49  1  0  0  0
 49 50  2  0  0  0
 49 46  1  0  0  0
 46 47  1  0  0  0
 46 42  1  0  0  0
 42 43  1  0  0  0
 43 44  2  0  0  0
 43 40  1  0  0  0
 40 41  1  0  0  0
 40 36  1  0  0  0
 36 37  1  0  0  0
 37 38  2  0  0  0
 37  1  1  0  0  0
  1  2  1  0  0  0
  1  3  1  0  0  0
  3  4  1  0  0  0
  4  5  2  0  0  0
  4  7  1  0  0  0
  7  8  1  0  0  0
  7  9  1  0  0  0
  9 10  1  0  0  0
 10 11  2  0  0  0
 10 13  1  0  0  0
 13 14  1  0  0  0
 13 15  1  0  0  0
 15 16  1  0  0  0
 16 17  2  0  0  0
 16 19  1  0  0  0
 19 20  1  0  0  0
 19 21  1  0  0  0
 21 22  1  0  0  0
 22 23  2  0  0  0
 22 25  1  0  0  0
 25 26  1  0  0  0
 25 27  1  0  0  0
 27 28  1  0  0  0
 28 29  2  0  0  0
 28 31  1  0  0  0
 31 32  1  0  0  0
 31 33  1  0  0  0
 33 34  1  0  0  0
 33 35  2  0  0  0
 52 53  1  0  0  0
 53 54  2  0  0  0
 53 55  1  0  0  0
 55 56  1  0  0  0
 56 57  1  0  0  0
 57 58  1  0  0  0
 58 59  1  0  0  0
 59 60  1  0  0  0
 60 61  2  0  0  0
 60 62  1  0  0  0
 62 63  1  0  0  0
 62 64  1  0  0  0
 59 55  1  0  0  0
 48 51  1  0  0  0
 42 45  1  0  0  0
 36 39  1  0  0  0
  3  6  1  0  0  0
  9 12  1  0  0  0
 15 18  1  0  0  0
 21 24  1  0  0  0
 27 30  1  0  0  0
M  END
> <minimizedAffinity>
-9.21533

> <CNNscore>
0.4035902321

> <CNNaffinity>
7.4682259560

> <CNN_VS>
3.0141029358

> <CNNaffinity_variance>
0.4026825428

$$$$
[H]N(C(=O)[C@@]([H])(N([H])C(=O)[C@@]([H])(N([H])C(=O)[C@]([H])(N([H])C(=O)[C@@]([H])(C(=O)C([H])([H])[H])C([H])([H])[H])C([H])([H])[H])C([H])([H])[H])C([H])([H])[H])[C@]([H])(C(=O)N([H])[C@]([H])(C(=O)N([H])[C@]([H])(C(=O)N([H])[C@]([H])(C(=O)N([H])[C@]([H])(C(=O)N1C([H])([H])C([H])([H])C([H])([H])[C@]1([H])C(=O)N(C([H])([H])[H])C([H])([H])[H])C([H])([H])C([H])(C([H])([H])[H])C([H])([H])[H])C([H])([H])[H])C([H])([H])[H])C([H])([H])[H])C([H])([H])[H]


 68 68  0  0  0  0  0  0  0  0999 V2000
    8.6452   10.3187   26.2585 C   0  0  0  0  0  0  0  0  0  0  0  0
    9.7078    9.5052   27.0724 C   0  0  0  0  0  0  0  0  0  0  0  0
    8.8437    9.9613   24.8608 N   0  0  0  0  0  0  0  0  0  0  0  0
    7.7521    9.4593   24.0928 C   0  0  0  0  0  0  0  0  0  0  0  0
    6.6319    9.3421   24.6955 O   0  0  0  0  0  0  0  0  0  0  0  0
    9.7868   10.0794   24.4358 H   0  0  0  0  0  0  0  0  0  0  0  0
    7.8368    9.0727   22.6896 C   0  0  0  0  0  0  0  0  0  0  0  0
    8.2106   10.2392   21.7967 C   0  0  0  0  0  0  0  0  0  0  0  0
    6.5410    8.5459   22.2459 N   0  0  0  0  0  0  0  0  0  0  0  0
    6.3010    7.1908   22.0001 C   0  0  0  0  0  0  0  0  0  0  0  0
    7.2825    6.3840   22.1581 O   0  0  0  0  0  0  0  0  0  0  0  0
    5.7860    9.2535   22.1201 H   0  0  0  0  0  0  0  0  0  0  0  0
    5.0156    6.6457   21.5840 C   0  0  0  0  0  0  0  0  0  0  0  0
    5.2294    5.2498   20.9399 C   0  0  0  0  0  0  0  0  0  0  0  0
    4.3657    7.4927   20.5865 N   0  0  0  0  0  0  0  0  0  0  0  0
    5.0428    7.8510   19.3777 C   0  0  0  0  0  0  0  0  0  0  0  0
    6.2056    7.4344   19.2291 O   0  0  0  0  0  0  0  0  0  0  0  0
    3.4045    7.8119   20.7971 H   0  0  0  0  0  0  0  0  0  0  0  0
    4.3811    8.6795   18.3476 C   0  0  0  0  0  0  0  0  0  0  0  0
    3.3077    9.5656   18.9764 C   0  0  0  0  0  0  0  0  0  0  0  0
    3.8123    7.8819   17.3116 N   0  0  0  0  0  0  0  0  0  0  0  0
    4.3104    7.8360   16.0021 C   0  0  0  0  0  0  0  0  0  0  0  0
    5.3135    8.4858   15.5825 O   0  0  0  0  0  0  0  0  0  0  0  0
    2.9824    7.2983   17.5289 H   0  0  0  0  0  0  0  0  0  0  0  0
    3.6343    6.9594   14.9742 C   0  0  0  0  0  0  0  0  0  0  0  0
    3.9929    7.3970   13.5866 C   0  0  0  0  0  0  0  0  0  0  0  0
    3.9405    5.5881   15.2322 N   0  0  0  0  0  0  0  0  0  0  0  0
    3.2150    4.6687   16.0046 C   0  0  0  0  0  0  0  0  0  0  0  0
    2.1461    5.0311   16.5696 O   0  0  0  0  0  0  0  0  0  0  0  0
    4.8381    5.2375   14.7653 H   0  0  0  0  0  0  0  0  0  0  0  0
    3.6938    3.2801   16.1573 C   0  0  0  0  0  0  0  0  0  0  0  0
    2.5100    2.3345   16.2823 C   0  0  0  0  0  0  0  0  0  0  0  0
    4.6005    3.0687   17.2813 C   0  0  0  0  0  0  0  0  0  0  0  0
    4.5122    1.9512   18.2646 C   0  0  0  0  0  0  0  0  0  0  0  0
    5.5517    3.8585   17.4962 O   0  0  0  0  0  0  0  0  0  0  0  0
    8.4953   12.7461   25.6081 N   0  0  0  0  0  0  0  0  0  0  0  0
    8.8426   11.7421   26.5609 C   0  0  0  0  0  0  0  0  0  0  0  0
    9.3095   12.0887   27.6523 O   0  0  0  0  0  0  0  0  0  0  0  0
    8.1401   12.4284   24.6760 H   0  0  0  0  0  0  0  0  0  0  0  0
    8.6140   14.1740   25.8483 C   0  0  0  0  0  0  0  0  0  0  0  0
   10.0307   14.5554   25.3796 C   0  0  0  0  0  0  0  0  0  0  0  0
    7.3459   16.2833   25.1363 N   0  0  0  0  0  0  0  0  0  0  0  0
    7.6110   14.9119   25.0743 C   0  0  0  0  0  0  0  0  0  0  0  0
    6.8989   14.2267   24.2603 O   0  0  0  0  0  0  0  0  0  0  0  0
    7.8973   16.8860   25.7785 H   0  0  0  0  0  0  0  0  0  0  0  0
    6.3230   16.9261   24.3343 C   0  0  0  0  0  0  0  0  0  0  0  0
    6.0744   18.3095   25.0137 C   0  0  0  0  0  0  0  0  0  0  0  0
    6.5992   16.2002   21.9141 N   0  0  0  0  0  0  0  0  0  0  0  0
    6.7060   17.1555   22.9417 C   0  0  0  0  0  0  0  0  0  0  0  0
    7.1603   18.2921   22.6391 O   0  0  0  0  0  0  0  0  0  0  0  0
    6.2608   15.2515   22.1345 H   0  0  0  0  0  0  0  0  0  0  0  0
    6.9533   16.4806   20.4815 C   0  0  0  0  0  0  0  0  0  0  0  0
    5.7550   16.5897   19.7381 C   0  0  0  0  0  0  0  0  0  0  0  0
    6.1278   16.7451   18.3983 O   0  0  0  0  0  0  0  0  0  0  0  0
    4.3767   16.6130   19.7892 N   0  0  0  0  0  0  0  0  0  0  0  0
    3.3854   16.7055   20.8238 C   0  0  0  0  0  0  0  0  0  0  0  0
    2.4011   17.7325   20.2375 C   0  0  0  0  0  0  0  0  0  0  0  0
    2.3797   17.3289   18.7873 C   0  0  0  0  0  0  0  0  0  0  0  0
    3.5346   16.4376   18.5510 C   0  0  0  0  0  0  0  0  0  0  0  0
    3.1132   15.0013   18.4871 C   0  0  0  0  0  0  0  0  0  0  0  0
    2.9789   14.3348   19.5707 O   0  0  0  0  0  0  0  0  0  0  0  0
    2.8487   14.3137   17.2874 N   0  0  0  0  0  0  0  0  0  0  0  0
    3.0018   14.9698   16.0180 C   0  0  0  0  0  0  0  0  0  0  0  0
    2.4145   12.9425   17.3161 C   0  0  0  0  0  0  0  0  0  0  0  0
    8.1690   15.7579   20.2430 C   0  0  0  0  0  0  0  0  0  0  0  0
    9.8906   14.2793   21.4950 C   0  0  0  0  0  0  0  0  0  0  0  0
    8.6029   14.5109   20.8690 C   0  0  0  0  0  0  0  0  0  0  0  0
    8.3653   13.3823   19.7870 C   0  0  0  0  0  0  0  0  0  0  0  0
 66 67  1  0  0  0
 67 68  1  0  0  0
 67 65  1  0  0  0
 65 52  1  0  0  0
 52 48  1  0  0  0
 48 49  1  0  0  0
 49 50  2  0  0  0
 49 46  1  0  0  0
 46 47  1  0  0  0
 46 42  1  0  0  0
 42 43  1  0  0  0
 43 44  2  0  0  0
 43 40  1  0  0  0
 40 41  1  0  0  0
 40 36  1  0  0  0
 36 37  1  0  0  0
 37 38  2  0  0  0
 37  1  1  0  0  0
  1  2  1  0  0  0
  1  3  1  0  0  0
  3  4  1  0  0  0
  4  5  2  0  0  0
  4  7  1  0  0  0
  7  8  1  0  0  0
  7  9  1  0  0  0
  9 10  1  0  0  0
 10 11  2  0  0  0
 10 13  1  0  0  0
 13 14  1  0  0  0
 13 15  1  0  0  0
 15 16  1  0  0  0
 16 17  2  0  0  0
 16 19  1  0  0  0
 19 20  1  0  0  0
 19 21  1  0  0  0
 21 22  1  0  0  0
 22 23  2  0  0  0
 22 25  1  0  0  0
 25 26  1  0  0  0
 25 27  1  0  0  0
 27 28  1  0  0  0
 28 29  2  0  0  0
 28 31  1  0  0  0
 31 32  1  0  0  0
 31 33  1  0  0  0
 33 34  1  0  0  0
 33 35  2  0  0  0
 52 53  1  0  0  0
 53 54  2  0  0  0
 53 55  1  0  0  0
 55 56  1  0  0  0
 56 57  1  0  0  0
 57 58  1  0  0  0
 58 59  1  0  0  0
 59 60  1  0  0  0
 60 61  2  0  0  0
 60 62  1  0  0  0
 62 63  1  0  0  0
 62 64  1  0  0  0
 59 55  1  0  0  0
 48 51  1  0  0  0
 42 45  1  0  0  0
 36 39  1  0  0  0
  3  6  1  0  0  0
  9 12  1  0  0  0
 15 18  1  0  0  0
 21 24  1  0  0  0
 27 30  1  0  0  0
M  END
> <minimizedAffinity>
-7.91295

> <CNNscore>
0.2849107385

> <CNNaffinity>
6.3174238205

> <CNN_VS>
1.7999018431

> <CNNaffinity_variance>
0.4678603113

$$$$
[H]N(C(=O)[C@@]([H])(N([H])C(=O)[C@@]([H])(N([H])C(=O)[C@]([H])(N([H])C(=O)[C@@]([H])(C(=O)C([H])([H])[H])C([H])([H])[H])C([H])([H])[H])C([H])([H])[H])C([H])([H])[H])[C@]([H])(C(=O)N([H])[C@]([H])(C(=O)N([H])[C@]([H])(C(=O)N([H])[C@]([H])(C(=O)N([H])[C@]([H])(C(=O)N1C([H])([H])C([H])([H])C([H])([H])[C@]1([H])C(=O)N(C([H])([H])[H])C([H])([H])[H])C([H])([H])C([H])(C([H])([H])[H])C([H])([H])[H])C([H])([H])[H])C([H])([H])[H])C([H])([H])[H])C([H])([H])[H]


 68 68  0  0  0  0  0  0  0  0999 V2000
    4.5207    1.7400   19.7506 C   0  0  0  0  0  0  0  0  0  0  0  0
    3.4006    0.6535   19.6158 C   0  0  0  0  0  0  0  0  0  0  0  0
    4.1486    2.5678   20.8895 N   0  0  0  0  0  0  0  0  0  0  0  0
    5.0704    2.7608   21.9602 C   0  0  0  0  0  0  0  0  0  0  0  0
    6.2000    2.1731   21.8584 O   0  0  0  0  0  0  0  0  0  0  0  0
    3.2078    3.0134   20.9071 H   0  0  0  0  0  0  0  0  0  0  0  0
    4.8044    3.5677   23.1450 C   0  0  0  0  0  0  0  0  0  0  0  0
    3.3400    3.9398   23.2665 C   0  0  0  0  0  0  0  0  0  0  0  0
    5.5932    4.8038   23.0849 N   0  0  0  0  0  0  0  0  0  0  0  0
    5.5393    5.7036   22.0163 C   0  0  0  0  0  0  0  0  0  0  0  0
    4.7685    5.4061   21.0382 O   0  0  0  0  0  0  0  0  0  0  0  0
    6.2133    4.9829   23.9032 H   0  0  0  0  0  0  0  0  0  0  0  0
    6.2948    6.9475   21.9499 C   0  0  0  0  0  0  0  0  0  0  0  0
    7.4896    6.7761   20.9742 C   0  0  0  0  0  0  0  0  0  0  0  0
    6.8434    7.3180   23.2524 N   0  0  0  0  0  0  0  0  0  0  0  0
    6.8652    8.6850   23.6752 C   0  0  0  0  0  0  0  0  0  0  0  0
    6.4245    9.5357   22.8815 O   0  0  0  0  0  0  0  0  0  0  0  0
    7.2070    6.5508   23.8435 H   0  0  0  0  0  0  0  0  0  0  0  0
    7.3872    9.0657   25.0049 C   0  0  0  0  0  0  0  0  0  0  0  0
    8.1447   10.3897   24.9277 C   0  0  0  0  0  0  0  0  0  0  0  0
    8.2269    8.0526   25.5539 N   0  0  0  0  0  0  0  0  0  0  0  0
    9.4021    7.5982   24.9396 C   0  0  0  0  0  0  0  0  0  0  0  0
    9.8589    8.0255   23.8381 O   0  0  0  0  0  0  0  0  0  0  0  0
    7.9621    7.6207   26.4594 H   0  0  0  0  0  0  0  0  0  0  0  0
   10.2231    6.5166   25.6017 C   0  0  0  0  0  0  0  0  0  0  0  0
   11.3849    6.1298   24.7381 C   0  0  0  0  0  0  0  0  0  0  0  0
   10.6069    6.9357   26.9125 N   0  0  0  0  0  0  0  0  0  0  0  0
   10.7130    6.1573   28.0748 C   0  0  0  0  0  0  0  0  0  0  0  0
   10.4532    4.9230   28.0279 O   0  0  0  0  0  0  0  0  0  0  0  0
   10.8424    7.9770   26.9952 H   0  0  0  0  0  0  0  0  0  0  0  0
   11.1289    6.7737   29.3506 C   0  0  0  0  0  0  0  0  0  0  0  0
   12.3263    6.0294   29.9196 C   0  0  0  0  0  0  0  0  0  0  0  0
   10.0801    6.8451   30.3630 C   0  0  0  0  0  0  0  0  0  0  0  0
    9.2637    8.0525   30.6781 C   0  0  0  0  0  0  0  0  0  0  0  0
    9.7947    5.8438   31.0635 O   0  0  0  0  0  0  0  0  0  0  0  0
    4.3736    3.8650   18.4089 N   0  0  0  0  0  0  0  0  0  0  0  0
    4.6046    2.4583   18.4725 C   0  0  0  0  0  0  0  0  0  0  0  0
    4.8829    1.8498   17.4325 O   0  0  0  0  0  0  0  0  0  0  0  0
    4.0996    4.3524   19.2939 H   0  0  0  0  0  0  0  0  0  0  0  0
    4.4847    4.6555   17.1949 C   0  0  0  0  0  0  0  0  0  0  0  0
    3.6276    3.9234   16.1453 C   0  0  0  0  0  0  0  0  0  0  0  0
    4.3250    6.8895   18.4388 N   0  0  0  0  0  0  0  0  0  0  0  0
    3.9674    6.0099   17.4127 C   0  0  0  0  0  0  0  0  0  0  0  0
    3.0911    6.4285   16.5783 O   0  0  0  0  0  0  0  0  0  0  0  0
    5.0342    6.6006   19.1412 H   0  0  0  0  0  0  0  0  0  0  0  0
    3.7504    8.2135   18.5791 C   0  0  0  0  0  0  0  0  0  0  0  0
    4.3432    8.7824   19.9065 C   0  0  0  0  0  0  0  0  0  0  0  0
    3.1393    9.7803   16.6733 N   0  0  0  0  0  0  0  0  0  0  0  0
    4.0832    9.1323   17.4912 C   0  0  0  0  0  0  0  0  0  0  0  0
    5.3034    9.3640   17.2733 O   0  0  0  0  0  0  0  0  0  0  0  0
    2.1348    9.5884   16.8051 H   0  0  0  0  0  0  0  0  0  0  0  0
    3.5092   10.7587   15.5953 C   0  0  0  0  0  0  0  0  0  0  0  0
    3.0450   12.0394   15.9757 C   0  0  0  0  0  0  0  0  0  0  0  0
    2.0951   11.8379   16.9833 O   0  0  0  0  0  0  0  0  0  0  0  0
    3.1367   13.3988   15.7597 N   0  0  0  0  0  0  0  0  0  0  0  0
    3.7414   14.2465   14.7711 C   0  0  0  0  0  0  0  0  0  0  0  0
    2.6271   15.2720   14.4994 C   0  0  0  0  0  0  0  0  0  0  0  0
    2.0794   15.4894   15.8848 C   0  0  0  0  0  0  0  0  0  0  0  0
    2.5818   14.3969   16.7439 C   0  0  0  0  0  0  0  0  0  0  0  0
    3.7134   14.8586   17.6106 C   0  0  0  0  0  0  0  0  0  0  0  0
    4.6478   15.5689   17.1021 O   0  0  0  0  0  0  0  0  0  0  0  0
    3.8255   14.5572   18.9812 N   0  0  0  0  0  0  0  0  0  0  0  0
    2.8404   13.7400   19.6346 C   0  0  0  0  0  0  0  0  0  0  0  0
    4.9280   15.0699   19.7502 C   0  0  0  0  0  0  0  0  0  0  0  0
    3.4066   10.0259   14.3666 C   0  0  0  0  0  0  0  0  0  0  0  0
    5.4979    8.8046   13.4434 C   0  0  0  0  0  0  0  0  0  0  0  0
    4.1495    8.8295   13.9769 C   0  0  0  0  0  0  0  0  0  0  0  0
    3.2054    8.0438   12.9807 C   0  0  0  0  0  0  0  0  0  0  0  0
 66 67  1  0  0  0
 67 68  1  0  0  0
 67 65  1  0  0  0
 65 52  1  0  0  0
 52 48  1  0  0  0
 48 49  1  0  0  0
 49 50  2  0  0  0
 49 46  1  0  0  0
 46 47  1  0  0  0
 46 42  1  0  0  0
 42 43  1  0  0  0
 43 44  2  0  0  0
 43 40  1  0  0  0
 40 41  1  0  0  0
 40 36  1  0  0  0
 36 37  1  0  0  0
 37 38  2  0  0  0
 37  1  1  0  0  0
  1  2  1  0  0  0
  1  3  1  0  0  0
  3  4  1  0  0  0
  4  5  2  0  0  0
  4  7  1  0  0  0
  7  8  1  0  0  0
  7  9  1  0  0  0
  9 10  1  0  0  0
 10 11  2  0  0  0
 10 13  1  0  0  0
 13 14  1  0  0  0
 13 15  1  0  0  0
 15 16  1  0  0  0
 16 17  2  0  0  0
 16 19  1  0  0  0
 19 20  1  0  0  0
 19 21  1  0  0  0
 21 22  1  0  0  0
 22 23  2  0  0  0
 22 25  1  0  0  0
 25 26  1  0  0  0
 25 27  1  0  0  0
 27 28  1  0  0  0
 28 29  2  0  0  0
 28 31  1  0  0  0
 31 32  1  0  0  0
 31 33  1  0  0  0
 33 34  1  0  0  0
 33 35  2  0  0  0
 52 53  1  0  0  0
 53 54  2  0  0  0
 53 55  1  0  0  0
 55 56  1  0  0  0
 56 57  1  0  0  0
 57 58  1  0  0  0
 58 59  1  0  0  0
 59 60  1  0  0  0
 60 61  2  0  0  0
 60 62  1  0  0  0
 62 63  1  0  0  0
 62 64  1  0  0  0
 59 55  1  0  0  0
 48 51  1  0  0  0
 42 45  1  0  0  0
 36 39  1  0  0  0
  3  6  1  0  0  0
  9 12  1  0  0  0
 15 18  1  0  0  0
 21 24  1  0  0  0
 27 30  1  0  0  0
M  END
> <minimizedAffinity>
-8.88075

> <CNNscore>
0.2487663180

> <CNNaffinity>
7.0591254234

> <CNN_VS>
1.7560726404

> <CNNaffinity_variance>
0.2011910230

$$$$
[H]N(C(=O)[C@@]([H])(N([H])C(=O)[C@@]([H])(N([H])C(=O)[C@]([H])(N([H])C(=O)[C@@]([H])(C(=O)C([H])([H])[H])C([H])([H])[H])C([H])([H])[H])C([H])([H])[H])C([H])([H])[H])[C@]([H])(C(=O)N([H])[C@]([H])(C(=O)N([H])[C@]([H])(C(=O)N([H])[C@]([H])(C(=O)N([H])[C@]([H])(C(=O)N1C([H])([H])C([H])([H])C([H])([H])[C@]1([H])C(=O)N(C([H])([H])[H])C([H])([H])[H])C([H])([H])C([H])(C([H])([H])[H])C([H])([H])[H])C([H])([H])[H])C([H])([H])[H])C([H])([H])[H])C([H])([H])[H]


 68 68  0  0  0  0  0  0  0  0999 V2000
    8.6860   10.1499   26.0501 C   0  0  0  0  0  0  0  0  0  0  0  0
    9.7595    9.6466   27.0737 C   0  0  0  0  0  0  0  0  0  0  0  0
    9.0110    9.5199   24.7780 N   0  0  0  0  0  0  0  0  0  0  0  0
    7.9701    9.1894   23.8612 C   0  0  0  0  0  0  0  0  0  0  0  0
    6.7768    9.4671   24.2228 O   0  0  0  0  0  0  0  0  0  0  0  0
   10.0071    9.3187   24.5512 H   0  0  0  0  0  0  0  0  0  0  0  0
    8.1805    8.5597   22.5632 C   0  0  0  0  0  0  0  0  0  0  0  0
    8.2230    9.5727   21.4364 C   0  0  0  0  0  0  0  0  0  0  0  0
    7.0921    7.6127   22.2943 N   0  0  0  0  0  0  0  0  0  0  0  0
    7.2420    6.2243   22.3606 C   0  0  0  0  0  0  0  0  0  0  0  0
    8.4038    5.7739   22.6548 O   0  0  0  0  0  0  0  0  0  0  0  0
    6.1746    8.0396   22.0448 H   0  0  0  0  0  0  0  0  0  0  0  0
    6.1682    5.2691   22.1222 C   0  0  0  0  0  0  0  0  0  0  0  0
    6.7401    3.8267   22.1614 C   0  0  0  0  0  0  0  0  0  0  0  0
    5.5545    5.4607   20.8101 N   0  0  0  0  0  0  0  0  0  0  0  0
    4.1318    5.5306   20.6710 C   0  0  0  0  0  0  0  0  0  0  0  0
    3.4495    5.3965   21.7026 O   0  0  0  0  0  0  0  0  0  0  0  0
    6.1937    5.5440   20.0012 H   0  0  0  0  0  0  0  0  0  0  0  0
    3.5030    5.7580   19.3525 C   0  0  0  0  0  0  0  0  0  0  0  0
    4.4236    5.2878   18.2281 C   0  0  0  0  0  0  0  0  0  0  0  0
    3.1559    7.1275   19.1606 N   0  0  0  0  0  0  0  0  0  0  0  0
    4.0473    8.1914   19.3569 C   0  0  0  0  0  0  0  0  0  0  0  0
    5.2543    8.0709   19.7217 O   0  0  0  0  0  0  0  0  0  0  0  0
    2.1911    7.3607   18.8584 H   0  0  0  0  0  0  0  0  0  0  0  0
    3.5813    9.6103   19.1291 C   0  0  0  0  0  0  0  0  0  0  0  0
    4.5768   10.5888   19.6741 C   0  0  0  0  0  0  0  0  0  0  0  0
    3.2936    9.8077   17.7438 N   0  0  0  0  0  0  0  0  0  0  0  0
    4.1959    9.8673   16.6712 C   0  0  0  0  0  0  0  0  0  0  0  0
    5.4328    9.7354   16.8852 O   0  0  0  0  0  0  0  0  0  0  0  0
    2.2529    9.9182   17.5172 H   0  0  0  0  0  0  0  0  0  0  0  0
    3.7060   10.0805   15.2945 C   0  0  0  0  0  0  0  0  0  0  0  0
    4.5402    9.2693   14.3161 C   0  0  0  0  0  0  0  0  0  0  0  0
    3.6815   11.4755   14.8661 C   0  0  0  0  0  0  0  0  0  0  0  0
    2.6458   12.4785   15.2468 C   0  0  0  0  0  0  0  0  0  0  0  0
    4.5746   11.9311   14.1115 O   0  0  0  0  0  0  0  0  0  0  0  0
    8.3649   12.3493   24.8681 N   0  0  0  0  0  0  0  0  0  0  0  0
    8.7331   11.6176   26.0366 C   0  0  0  0  0  0  0  0  0  0  0  0
    9.0892   12.2393   27.0446 O   0  0  0  0  0  0  0  0  0  0  0  0
    8.1060   11.8019   24.0142 H   0  0  0  0  0  0  0  0  0  0  0  0
    8.3378   13.7998   24.7892 C   0  0  0  0  0  0  0  0  0  0  0  0
    9.7250   14.2108   24.2611 C   0  0  0  0  0  0  0  0  0  0  0  0
    6.7498   15.5307   23.7665 N   0  0  0  0  0  0  0  0  0  0  0  0
    7.2929   14.2460   23.8626 C   0  0  0  0  0  0  0  0  0  0  0  0
    6.8245   13.3642   23.0611 O   0  0  0  0  0  0  0  0  0  0  0  0
    7.0966   16.2847   24.3917 H   0  0  0  0  0  0  0  0  0  0  0  0
    5.7078   15.8779   22.8196 C   0  0  0  0  0  0  0  0  0  0  0  0
    4.9237   17.0544   23.4816 C   0  0  0  0  0  0  0  0  0  0  0  0
    6.1518   15.5606   20.3372 N   0  0  0  0  0  0  0  0  0  0  0  0
    6.2021   16.3244   21.5178 C   0  0  0  0  0  0  0  0  0  0  0  0
    6.7054   17.4784   21.4471 O   0  0  0  0  0  0  0  0  0  0  0  0
    5.7748   14.6013   20.3674 H   0  0  0  0  0  0  0  0  0  0  0  0
    6.6217   16.0651   19.0026 C   0  0  0  0  0  0  0  0  0  0  0  0
    5.5604   16.7752   18.3945 C   0  0  0  0  0  0  0  0  0  0  0  0
    6.1451   17.7859   17.6233 O   0  0  0  0  0  0  0  0  0  0  0  0
    4.1927   16.8866   18.2538 N   0  0  0  0  0  0  0  0  0  0  0  0
    3.0411   16.3235   18.9007 C   0  0  0  0  0  0  0  0  0  0  0  0
    2.1356   17.5547   19.0781 C   0  0  0  0  0  0  0  0  0  0  0  0
    2.3677   18.2834   17.7814 C   0  0  0  0  0  0  0  0  0  0  0  0
    3.5735   17.7068   17.1507 C   0  0  0  0  0  0  0  0  0  0  0  0
    3.2142   16.7724   16.0359 C   0  0  0  0  0  0  0  0  0  0  0  0
    2.2661   15.9295   16.2006 O   0  0  0  0  0  0  0  0  0  0  0  0
    3.8639   16.7543   14.7871 N   0  0  0  0  0  0  0  0  0  0  0  0
    4.9608   17.6432   14.5190 C   0  0  0  0  0  0  0  0  0  0  0  0
    3.4333   15.8471   13.7569 C   0  0  0  0  0  0  0  0  0  0  0  0
    7.5095   15.0540   18.5062 C   0  0  0  0  0  0  0  0  0  0  0  0
    9.4082   13.5809   19.4769 C   0  0  0  0  0  0  0  0  0  0  0  0
    8.0131   13.8815   19.2180 C   0  0  0  0  0  0  0  0  0  0  0  0
    7.3591   12.6317   18.5028 C   0  0  0  0  0  0  0  0  0  0  0  0
 66 67  1  0  0  0
 67 68  1  0  0  0
 67 65  1  0  0  0
 65 52  1  0  0  0
 52 48  1  0  0  0
 48 49  1  0  0  0
 49 50  2  0  0  0
 49 46  1  0  0  0
 46 47  1  0  0  0
 46 42  1  0  0  0
 42 43  1  0  0  0
 43 44  2  0  0  0
 43 40  1  0  0  0
 40 41  1  0  0  0
 40 36  1  0  0  0
 36 37  1  0  0  0
 37 38  2  0  0  0
 37  1  1  0  0  0
  1  2  1  0  0  0
  1  3  1  0  0  0
  3  4  1  0  0  0
  4  5  2  0  0  0
  4  7  1  0  0  0
  7  8  1  0  0  0
  7  9  1  0  0  0
  9 10  1  0  0  0
 10 11  2  0  0  0
 10 13  1  0  0  0
 13 14  1  0  0  0
 13 15  1  0  0  0
 15 16  1  0  0  0
 16 17  2  0  0  0
 16 19  1  0  0  0
 19 20  1  0  0  0
 19 21  1  0  0  0
 21 22  1  0  0  0
 22 23  2  0  0  0
 22 25  1  0  0  0
 25 26  1  0  0  0
 25 27  1  0  0  0
 27 28  1  0  0  0
 28 29  2  0  0  0
 28 31  1  0  0  0
 31 32  1  0  0  0
 31 33  1  0  0  0
 33 34  1  0  0  0
 33 35  2  0  0  0
 52 53  1  0  0  0
 53 54  2  0  0  0
 53 55  1  0  0  0
 55 56  1  0  0  0
 56 57  1  0  0  0
 57 58  1  0  0  0
 58 59  1  0  0  0
 59 60  1  0  0  0
 60 61  2  0  0  0
 60 62  1  0  0  0
 62 63  1  0  0  0
 62 64  1  0  0  0
 59 55  1  0  0  0
 48 51  1  0  0  0
 42 45  1  0  0  0
 36 39  1  0  0  0
  3  6  1  0  0  0
  9 12  1  0  0  0
 15 18  1  0  0  0
 21 24  1  0  0  0
 27 30  1  0  0  0
M  END
> <minimizedAffinity>
-7.73220

> <CNNscore>
0.2401504368

> <CNNaffinity>
5.9939069748

> <CNN_VS>
1.4394394159

> <CNNaffinity_variance>
0.9369039536

$$$$
[H]N(C(=O)[C@@]([H])(N([H])C(=O)[C@@]([H])(N([H])C(=O)[C@]([H])(N([H])C(=O)[C@@]([H])(C(=O)C([H])([H])[H])C([H])([H])[H])C([H])([H])[H])C([H])([H])[H])C([H])([H])[H])[C@]([H])(C(=O)N([H])[C@]([H])(C(=O)N([H])[C@]([H])(C(=O)N([H])[C@]([H])(C(=O)N([H])[C@]([H])(C(=O)N1C([H])([H])C([H])([H])C([H])([H])[C@]1([H])C(=O)N(C([H])([H])[H])C([H])([H])[H])C([H])([H])C([H])(C([H])([H])[H])C([H])([H])[H])C([H])([H])[H])C([H])([H])[H])C([H])([H])[H])C([H])([H])[H]


 68 68  0  0  0  0  0  0  0  0999 V2000
    9.0957    9.9062   24.2152 C   0  0  0  0  0  0  0  0  0  0  0  0
   10.4797   10.3203   23.6099 C   0  0  0  0  0  0  0  0  0  0  0  0
    8.1917    9.7402   23.0857 N   0  0  0  0  0  0  0  0  0  0  0  0
    7.3026    8.6262   23.0438 C   0  0  0  0  0  0  0  0  0  0  0  0
    7.3573    7.8105   24.0253 O   0  0  0  0  0  0  0  0  0  0  0  0
    8.2046   10.4432   22.3179 H   0  0  0  0  0  0  0  0  0  0  0  0
    6.3570    8.3630   21.9657 C   0  0  0  0  0  0  0  0  0  0  0  0
    5.2514    9.3985   21.9092 C   0  0  0  0  0  0  0  0  0  0  0  0
    5.7461    7.0428   22.1592 N   0  0  0  0  0  0  0  0  0  0  0  0
    6.1721    5.8893   21.4942 C   0  0  0  0  0  0  0  0  0  0  0  0
    7.1363    6.0156   20.6612 O   0  0  0  0  0  0  0  0  0  0  0  0
    4.9558    7.0071   22.8378 H   0  0  0  0  0  0  0  0  0  0  0  0
    5.5956    4.5660   21.6916 C   0  0  0  0  0  0  0  0  0  0  0  0
    6.6322    3.6493   22.3947 C   0  0  0  0  0  0  0  0  0  0  0  0
    5.2429    3.9342   20.4222 N   0  0  0  0  0  0  0  0  0  0  0  0
    4.1592    4.4340   19.6324 C   0  0  0  0  0  0  0  0  0  0  0  0
    3.5227    5.4031   20.0836 O   0  0  0  0  0  0  0  0  0  0  0  0
    5.8114    3.1211   20.1293 H   0  0  0  0  0  0  0  0  0  0  0  0
    3.8164    3.8225   18.3308 C   0  0  0  0  0  0  0  0  0  0  0  0
    4.6166    2.5403   18.1103 C   0  0  0  0  0  0  0  0  0  0  0  0
    4.0309    4.7257   17.2487 N   0  0  0  0  0  0  0  0  0  0  0  0
    2.9955    5.3315   16.5234 C   0  0  0  0  0  0  0  0  0  0  0  0
    1.7592    5.1565   16.7368 O   0  0  0  0  0  0  0  0  0  0  0  0
    5.0050    4.9544   16.9744 H   0  0  0  0  0  0  0  0  0  0  0  0
    3.3270    6.2740   15.3903 C   0  0  0  0  0  0  0  0  0  0  0  0
    2.2363    6.2716   14.3628 C   0  0  0  0  0  0  0  0  0  0  0  0
    3.6117    7.5737   15.9105 N   0  0  0  0  0  0  0  0  0  0  0  0
    4.7927    8.0237   16.5195 C   0  0  0  0  0  0  0  0  0  0  0  0
    5.7677    7.2338   16.6554 O   0  0  0  0  0  0  0  0  0  0  0  0
    2.8116    8.2781   15.8096 H   0  0  0  0  0  0  0  0  0  0  0  0
    4.9015    9.4161   16.9992 C   0  0  0  0  0  0  0  0  0  0  0  0
    5.7610    9.4669   18.2522 C   0  0  0  0  0  0  0  0  0  0  0  0
    3.6241   10.0706   17.2640 C   0  0  0  0  0  0  0  0  0  0  0  0
    3.0560   10.3424   18.6155 C   0  0  0  0  0  0  0  0  0  0  0  0
    2.8934   10.4577   16.3201 O   0  0  0  0  0  0  0  0  0  0  0  0
    9.2598   12.2551   25.1059 N   0  0  0  0  0  0  0  0  0  0  0  0
    8.6960   10.9458   25.1723 C   0  0  0  0  0  0  0  0  0  0  0  0
    7.8583   10.6986   26.0477 O   0  0  0  0  0  0  0  0  0  0  0  0
    9.9965   12.4302   24.3831 H   0  0  0  0  0  0  0  0  0  0  0  0
    8.8827   13.3506   25.9826 C   0  0  0  0  0  0  0  0  0  0  0  0
   10.1716   13.7460   26.7274 C   0  0  0  0  0  0  0  0  0  0  0  0
    8.9835   15.0618   24.0786 N   0  0  0  0  0  0  0  0  0  0  0  0
    8.3826   14.4864   25.2022 C   0  0  0  0  0  0  0  0  0  0  0  0
    7.2823   15.0103   25.5953 O   0  0  0  0  0  0  0  0  0  0  0  0
    9.8763   14.6730   23.7161 H   0  0  0  0  0  0  0  0  0  0  0  0
    8.4160   16.1948   23.3736 C   0  0  0  0  0  0  0  0  0  0  0  0
    9.5936   17.2048   23.1995 C   0  0  0  0  0  0  0  0  0  0  0  0
    7.6775   16.8103   21.0207 N   0  0  0  0  0  0  0  0  0  0  0  0
    7.8809   15.8739   22.0510 C   0  0  0  0  0  0  0  0  0  0  0  0
    7.5847   14.6710   21.8154 O   0  0  0  0  0  0  0  0  0  0  0  0
    7.8803   17.8068   21.1914 H   0  0  0  0  0  0  0  0  0  0  0  0
    7.1733   16.4431   19.6543 C   0  0  0  0  0  0  0  0  0  0  0  0
    5.7622   16.5393   19.6578 C   0  0  0  0  0  0  0  0  0  0  0  0
    5.4241   17.5008   18.6989 O   0  0  0  0  0  0  0  0  0  0  0  0
    4.5872   16.0838   20.2188 N   0  0  0  0  0  0  0  0  0  0  0  0
    4.2312   15.2791   21.3535 C   0  0  0  0  0  0  0  0  0  0  0  0
    3.0630   16.0751   21.9606 C   0  0  0  0  0  0  0  0  0  0  0  0
    2.3400   16.5329   20.7219 C   0  0  0  0  0  0  0  0  0  0  0  0
    3.2491   16.3396   19.5729 C   0  0  0  0  0  0  0  0  0  0  0  0
    2.8833   15.1187   18.7852 C   0  0  0  0  0  0  0  0  0  0  0  0
    2.5363   14.0521   19.4002 O   0  0  0  0  0  0  0  0  0  0  0  0
    2.8961   15.0595   17.3786 N   0  0  0  0  0  0  0  0  0  0  0  0
    3.3013   16.1981   16.6011 C   0  0  0  0  0  0  0  0  0  0  0  0
    2.4966   13.8565   16.6982 C   0  0  0  0  0  0  0  0  0  0  0  0
    8.0651   15.4238   19.1823 C   0  0  0  0  0  0  0  0  0  0  0  0
    9.3855   15.7553   16.9768 C   0  0  0  0  0  0  0  0  0  0  0  0
    9.2967   15.6010   18.4162 C   0  0  0  0  0  0  0  0  0  0  0  0
   10.2460   14.4125   18.8489 C   0  0  0  0  0  0  0  0  0  0  0  0
 66 67  1  0  0  0
 67 68  1  0  0  0
 67 65  1  0  0  0
 65 52  1  0  0  0
 52 48  1  0  0  0
 48 49  1  0  0  0
 49 50  2  0  0  0
 49 46  1  0  0  0
 46 47  1  0  0  0
 46 42  1  0  0  0
 42 43  1  0  0  0
 43 44  2  0  0  0
 43 40  1  0  0  0
 40 41  1  0  0  0
 40 36  1  0  0  0
 36 37  1  0  0  0
 37 38  2  0  0  0
 37  1  1  0  0  0
  1  2  1  0  0  0
  1  3  1  0  0  0
  3  4  1  0  0  0
  4  5  2  0  0  0
  4  7  1  0  0  0
  7  8  1  0  0  0
  7  9  1  0  0  0
  9 10  1  0  0  0
 10 11  2  0  0  0
 10 13  1  0  0  0
 13 14  1  0  0  0
 13 15  1  0  0  0
 15 16  1  0  0  0
 16 17  2  0  0  0
 16 19  1  0  0  0
 19 20  1  0  0  0
 19 21  1  0  0  0
 21 22  1  0  0  0
 22 23  2  0  0  0
 22 25  1  0  0  0
 25 26  1  0  0  0
 25 27  1  0  0  0
 27 28  1  0  0  0
 28 29  2  0  0  0
 28 31  1  0  0  0
 31 32  1  0  0  0
 31 33  1  0  0  0
 33 34  1  0  0  0
 33 35  2  0  0  0
 52 53  1  0  0  0
 53 54  2  0  0  0
 53 55  1  0  0  0
 55 56  1  0  0  0
 56 57  1  0  0  0
 57 58  1  0  0  0
 58 59  1  0  0  0
 59 60  1  0  0  0
 60 61  2  0  0  0
 60 62  1  0  0  0
 62 63  1  0  0  0
 62 64  1  0  0  0
 59 55  1  0  0  0
 48 51  1  0  0  0
 42 45  1  0  0  0
 36 39  1  0  0  0
  3  6  1  0  0  0
  9 12  1  0  0  0
 15 18  1  0  0  0
 21 24  1  0  0  0
 27 30  1  0  0  0
M  END
> <minimizedAffinity>
-7.62755

> <CNNscore>
0.2338802516

> <CNNaffinity>
6.3767857552

> <CNN_VS>
1.4914042950

> <CNNaffinity_variance>
0.6288582087

$$$$
[H]N(C(=O)[C@@]([H])(N([H])C(=O)[C@@]([H])(N([H])C(=O)[C@]([H])(N([H])C(=O)[C@@]([H])(C(=O)C([H])([H])[H])C([H])([H])[H])C([H])([H])[H])C([H])([H])[H])C([H])([H])[H])[C@]([H])(C(=O)N([H])[C@]([H])(C(=O)N([H])[C@]([H])(C(=O)N([H])[C@]([H])(C(=O)N([H])[C@]([H])(C(=O)N1C([H])([H])C([H])([H])C([H])([H])[C@]1([H])C(=O)N(C([H])([H])[H])C([H])([H])[H])C([H])([H])C([H])(C([H])([H])[H])C([H])([H])[H])C([H])([H])[H])C([H])([H])[H])C([H])([H])[H])C([H])([H])[H]


 68 68  0  0  0  0  0  0  0  0999 V2000
    3.5555    9.3813   14.6054 C   0  0  0  0  0  0  0  0  0  0  0  0
    5.0771    9.0702   14.4024 C   0  0  0  0  0  0  0  0  0  0  0  0
    3.3300    9.3848   16.0440 N   0  0  0  0  0  0  0  0  0  0  0  0
    3.3866   10.6107   16.7701 C   0  0  0  0  0  0  0  0  0  0  0  0
    3.6464   11.6651   16.0974 O   0  0  0  0  0  0  0  0  0  0  0  0
    3.1270    8.4856   16.5281 H   0  0  0  0  0  0  0  0  0  0  0  0
    3.1762   10.7308   18.2078 C   0  0  0  0  0  0  0  0  0  0  0  0
    1.9922   11.6169   18.5405 C   0  0  0  0  0  0  0  0  0  0  0  0
    4.3738   11.3033   18.8335 N   0  0  0  0  0  0  0  0  0  0  0  0
    4.9488   10.8010   20.0046 C   0  0  0  0  0  0  0  0  0  0  0  0
    4.3739    9.7988   20.5564 O   0  0  0  0  0  0  0  0  0  0  0  0
    4.7869   12.1270   18.3464 H   0  0  0  0  0  0  0  0  0  0  0  0
    6.1512   11.3393   20.6267 C   0  0  0  0  0  0  0  0  0  0  0  0
    7.1265   11.8346   19.5255 C   0  0  0  0  0  0  0  0  0  0  0  0
    6.8547   10.3269   21.4109 N   0  0  0  0  0  0  0  0  0  0  0  0
    7.3339   10.6230   22.7265 C   0  0  0  0  0  0  0  0  0  0  0  0
    7.1488   11.7758   23.1560 O   0  0  0  0  0  0  0  0  0  0  0  0
    6.9833    9.3993   20.9715 H   0  0  0  0  0  0  0  0  0  0  0  0
    8.0169    9.5951   23.5405 C   0  0  0  0  0  0  0  0  0  0  0  0
    7.0462    8.9640   24.5367 C   0  0  0  0  0  0  0  0  0  0  0  0
    9.1461   10.1286   24.2282 N   0  0  0  0  0  0  0  0  0  0  0  0
   10.3356    9.4178   24.4404 C   0  0  0  0  0  0  0  0  0  0  0  0
   10.5531    8.2319   24.0521 O   0  0  0  0  0  0  0  0  0  0  0  0
    9.0951   11.0973   24.5964 H   0  0  0  0  0  0  0  0  0  0  0  0
   11.4762   10.0719   25.1843 C   0  0  0  0  0  0  0  0  0  0  0  0
   12.4659   10.6602   24.2252 C   0  0  0  0  0  0  0  0  0  0  0  0
   10.9616   11.0210   26.1199 N   0  0  0  0  0  0  0  0  0  0  0  0
   10.9358   10.9315   27.5197 C   0  0  0  0  0  0  0  0  0  0  0  0
   11.4125    9.9119   28.0910 O   0  0  0  0  0  0  0  0  0  0  0  0
   10.5524   11.9056   25.6764 H   0  0  0  0  0  0  0  0  0  0  0  0
   10.3568   12.0240   28.3270 C   0  0  0  0  0  0  0  0  0  0  0  0
   11.2959   13.2195   28.3307 C   0  0  0  0  0  0  0  0  0  0  0  0
   10.0348   11.6597   29.7032 C   0  0  0  0  0  0  0  0  0  0  0  0
   10.9004   11.9156   30.8901 C   0  0  0  0  0  0  0  0  0  0  0  0
    8.9577   11.0774   29.9779 O   0  0  0  0  0  0  0  0  0  0  0  0
    3.4374    7.2309   13.3016 N   0  0  0  0  0  0  0  0  0  0  0  0
    2.7888    8.3691   13.8675 C   0  0  0  0  0  0  0  0  0  0  0  0
    1.5656    8.4898   13.7320 O   0  0  0  0  0  0  0  0  0  0  0  0
    4.4785    7.1700   13.3933 H   0  0  0  0  0  0  0  0  0  0  0  0
    2.7455    6.1628   12.6008 C   0  0  0  0  0  0  0  0  0  0  0  0
    3.7703    5.5916   11.6030 C   0  0  0  0  0  0  0  0  0  0  0  0
    3.0768    4.5705   14.5803 N   0  0  0  0  0  0  0  0  0  0  0  0
    2.3213    5.1202   13.5403 C   0  0  0  0  0  0  0  0  0  0  0  0
    1.1360    4.6607   13.3878 O   0  0  0  0  0  0  0  0  0  0  0  0
    4.0441    4.9100   14.7496 H   0  0  0  0  0  0  0  0  0  0  0  0
    2.5730    3.5314   15.4575 C   0  0  0  0  0  0  0  0  0  0  0  0
    3.3600    2.2417   15.0643 C   0  0  0  0  0  0  0  0  0  0  0  0
    3.7524    3.1440   17.6754 N   0  0  0  0  0  0  0  0  0  0  0  0
    2.7870    3.7895   16.8809 C   0  0  0  0  0  0  0  0  0  0  0  0
    2.0573    4.6557   17.4350 O   0  0  0  0  0  0  0  0  0  0  0  0
    4.3441    2.4086   17.2603 H   0  0  0  0  0  0  0  0  0  0  0  0
    3.9836    3.4660   19.1243 C   0  0  0  0  0  0  0  0  0  0  0  0
    4.5360    4.7652   19.2107 C   0  0  0  0  0  0  0  0  0  0  0  0
    3.8132    5.4426   20.1991 O   0  0  0  0  0  0  0  0  0  0  0  0
    5.4844    5.6386   18.7202 N   0  0  0  0  0  0  0  0  0  0  0  0
    6.3846    5.6603   17.6019 C   0  0  0  0  0  0  0  0  0  0  0  0
    6.2148    7.0970   17.0780 C   0  0  0  0  0  0  0  0  0  0  0  0
    6.1098    7.8717   18.3645 C   0  0  0  0  0  0  0  0  0  0  0  0
    5.8490    6.9054   19.4518 C   0  0  0  0  0  0  0  0  0  0  0  0
    7.0879    6.6303   20.2482 C   0  0  0  0  0  0  0  0  0  0  0  0
    8.2306    6.6859   19.6759 O   0  0  0  0  0  0  0  0  0  0  0  0
    7.0841    6.3049   21.6179 N   0  0  0  0  0  0  0  0  0  0  0  0
    5.8470    6.1889   22.3400 C   0  0  0  0  0  0  0  0  0  0  0  0
    8.3228    6.0892   22.3171 C   0  0  0  0  0  0  0  0  0  0  0  0
    4.3545    2.2222   19.7346 C   0  0  0  0  0  0  0  0  0  0  0  0
    6.1309    1.5719   21.5063 C   0  0  0  0  0  0  0  0  0  0  0  0
    4.8042    2.0013   21.1072 C   0  0  0  0  0  0  0  0  0  0  0  0
    3.7475    1.0169   21.7518 C   0  0  0  0  0  0  0  0  0  0  0  0
 66 67  1  0  0  0
 67 68  1  0  0  0
 67 65  1  0  0  0
 65 52  1  0  0  0
 52 48  1  0  0  0
 48 49  1  0  0  0
 49 50  2  0  0  0
 49 46  1  0  0  0
 46 47  1  0  0  0
 46 42  1  0  0  0
 42 43  1  0  0  0
 43 44  2  0  0  0
 43 40  1  0  0  0
 40 41  1  0  0  0
 40 36  1  0  0  0
 36 37  1  0  0  0
 37 38  2  0  0  0
 37  1  1  0  0  0
  1  2  1  0  0  0
  1  3  1  0  0  0
  3  4  1  0  0  0
  4  5  2  0  0  0
  4  7  1  0  0  0
  7  8  1  0  0  0
  7  9  1  0  0  0
  9 10  1  0  0  0
 10 11  2  0  0  0
 10 13  1  0  0  0
 13 14  1  0  0  0
 13 15  1  0  0  0
 15 16  1  0  0  0
 16 17  2  0  0  0
 16 19  1  0  0  0
 19 20  1  0  0  0
 19 21  1  0  0  0
 21 22  1  0  0  0
 22 23  2  0  0  0
 22 25  1  0  0  0
 25 26  1  0  0  0
 25 27  1  0  0  0
 27 28  1  0  0  0
 28 29  2  0  0  0
 28 31  1  0  0  0
 31 32  1  0  0  0
 31 33  1  0  0  0
 33 34  1  0  0  0
 33 35  2  0  0  0
 52 53  1  0  0  0
 53 54  2  0  0  0
 53 55  1  0  0  0
 55 56  1  0  0  0
 56 57  1  0  0  0
 57 58  1  0  0  0
 58 59  1  0  0  0
 59 60  1  0  0  0
 60 61  2  0  0  0
 60 62  1  0  0  0
 62 63  1  0  0  0
 62 64  1  0  0  0
 59 55  1  0  0  0
 48 51  1  0  0  0
 42 45  1  0  0  0
 36 39  1  0  0  0
  3  6  1  0  0  0
  9 12  1  0  0  0
 15 18  1  0  0  0
 21 24  1  0  0  0
 27 30  1  0  0  0
M  END
> <minimizedAffinity>
-8.18993

> <CNNscore>
0.2166331261

> <CNNaffinity>
6.9350638390

> <CNN_VS>
1.5023645163

> <CNNaffinity_variance>
0.5849776268

$$$$
[H]N(C(=O)[C@@]([H])(N([H])C(=O)[C@@]([H])(N([H])C(=O)[C@]([H])(N([H])C(=O)[C@@]([H])(C(=O)C([H])([H])[H])C([H])([H])[H])C([H])([H])[H])C([H])([H])[H])C([H])([H])[H])[C@]([H])(C(=O)N([H])[C@]([H])(C(=O)N([H])[C@]([H])(C(=O)N([H])[C@]([H])(C(=O)N([H])[C@]([H])(C(=O)N1C([H])([H])C([H])([H])C([H])([H])[C@]1([H])C(=O)N(C([H])([H])[H])C([H])([H])[H])C([H])([H])C([H])(C([H])([H])[H])C([H])([H])[H])C([H])([H])[H])C([H])([H])[H])C([H])([H])[H])C([H])([H])[H]


 68 68  0  0  0  0  0  0  0  0999 V2000
    7.6736    8.0597   23.9259 C   0  0  0  0  0  0  0  0  0  0  0  0
    9.1988    7.8336   23.6504 C   0  0  0  0  0  0  0  0  0  0  0  0
    7.0855    8.4556   22.6539 N   0  0  0  0  0  0  0  0  0  0  0  0
    6.2631    7.5395   21.9344 C   0  0  0  0  0  0  0  0  0  0  0  0
    6.0907    6.3879   22.4596 O   0  0  0  0  0  0  0  0  0  0  0  0
    7.2726    9.4106   22.2837 H   0  0  0  0  0  0  0  0  0  0  0  0
    5.6244    7.8296   20.6563 C   0  0  0  0  0  0  0  0  0  0  0  0
    4.7626    9.0752   20.7174 C   0  0  0  0  0  0  0  0  0  0  0  0
    4.7765    6.6983   20.2626 N   0  0  0  0  0  0  0  0  0  0  0  0
    5.1379    5.7648   19.2868 C   0  0  0  0  0  0  0  0  0  0  0  0
    6.2649    5.9339   18.7030 O   0  0  0  0  0  0  0  0  0  0  0  0
    3.8649    6.6231   20.7623 H   0  0  0  0  0  0  0  0  0  0  0  0
    4.3219    4.6214   18.9004 C   0  0  0  0  0  0  0  0  0  0  0  0
    5.0157    3.3113   19.3600 C   0  0  0  0  0  0  0  0  0  0  0  0
    4.1530    4.5418   17.4513 N   0  0  0  0  0  0  0  0  0  0  0  0
    2.8854    4.8160   16.8462 C   0  0  0  0  0  0  0  0  0  0  0  0
    1.9393    5.0965   17.6039 O   0  0  0  0  0  0  0  0  0  0  0  0
    4.9863    4.2831   16.8957 H   0  0  0  0  0  0  0  0  0  0  0  0
    2.7132    4.7710   15.3786 C   0  0  0  0  0  0  0  0  0  0  0  0
    3.8869    4.0486   14.7202 C   0  0  0  0  0  0  0  0  0  0  0  0
    2.5670    6.0756   14.8225 N   0  0  0  0  0  0  0  0  0  0  0  0
    3.4318    7.1427   15.1027 C   0  0  0  0  0  0  0  0  0  0  0  0
    4.4367    7.0816   15.8715 O   0  0  0  0  0  0  0  0  0  0  0  0
    1.7791    6.2560   14.1720 H   0  0  0  0  0  0  0  0  0  0  0  0
    3.1900    8.4900   14.4637 C   0  0  0  0  0  0  0  0  0  0  0  0
    2.0517    8.4188   13.4917 C   0  0  0  0  0  0  0  0  0  0  0  0
    3.0075    9.4798   15.4775 N   0  0  0  0  0  0  0  0  0  0  0  0
    3.8050   10.6022   15.7464 C   0  0  0  0  0  0  0  0  0  0  0  0
    4.8271   10.8279   15.0410 O   0  0  0  0  0  0  0  0  0  0  0  0
    2.1464    9.3293   16.0960 H   0  0  0  0  0  0  0  0  0  0  0  0
    3.4534   11.5212   16.8476 C   0  0  0  0  0  0  0  0  0  0  0  0
    2.7995   10.7464   17.9804 C   0  0  0  0  0  0  0  0  0  0  0  0
    2.5890   12.6320   16.4614 C   0  0  0  0  0  0  0  0  0  0  0  0
    2.6622   14.0159   17.0116 C   0  0  0  0  0  0  0  0  0  0  0  0
    1.6871   12.4752   15.6031 O   0  0  0  0  0  0  0  0  0  0  0  0
    8.7134    9.6991   25.5286 N   0  0  0  0  0  0  0  0  0  0  0  0
    7.5546    9.0605   24.9940 C   0  0  0  0  0  0  0  0  0  0  0  0
    6.4428    9.3665   25.4407 O   0  0  0  0  0  0  0  0  0  0  0  0
    9.6466    9.3953   25.1643 H   0  0  0  0  0  0  0  0  0  0  0  0
    8.6771   10.7321   26.5496 C   0  0  0  0  0  0  0  0  0  0  0  0
    9.9286   10.4999   27.4169 C   0  0  0  0  0  0  0  0  0  0  0  0
    7.8424   13.1227   26.1596 N   0  0  0  0  0  0  0  0  0  0  0  0
    8.7276   12.0635   25.9378 C   0  0  0  0  0  0  0  0  0  0  0  0
    9.6794   12.2760   25.1082 O   0  0  0  0  0  0  0  0  0  0  0  0
    7.0540   13.0041   26.8259 H   0  0  0  0  0  0  0  0  0  0  0  0
    7.9680   14.4073   25.4987 C   0  0  0  0  0  0  0  0  0  0  0  0
    9.4084   14.9061   25.8360 C   0  0  0  0  0  0  0  0  0  0  0  0
    7.3550   13.2365   23.3276 N   0  0  0  0  0  0  0  0  0  0  0  0
    7.8248   14.3524   24.0445 C   0  0  0  0  0  0  0  0  0  0  0  0
    8.1407   15.3803   23.3859 O   0  0  0  0  0  0  0  0  0  0  0  0
    7.1178   12.3698   23.8334 H   0  0  0  0  0  0  0  0  0  0  0  0
    7.1706   13.2263   21.8369 C   0  0  0  0  0  0  0  0  0  0  0  0
    8.4056   12.8881   21.2362 C   0  0  0  0  0  0  0  0  0  0  0  0
    8.1267   11.9187   20.2662 O   0  0  0  0  0  0  0  0  0  0  0  0
    9.7664   13.1132   21.2165 N   0  0  0  0  0  0  0  0  0  0  0  0
   10.7089   13.8021   22.0524 C   0  0  0  0  0  0  0  0  0  0  0  0
   11.8692   12.7947   22.1296 C   0  0  0  0  0  0  0  0  0  0  0  0
   11.8969   12.2650   20.7206 C   0  0  0  0  0  0  0  0  0  0  0  0
   10.6291   12.6544   20.0685 C   0  0  0  0  0  0  0  0  0  0  0  0
   10.8226   13.8221   19.1498 C   0  0  0  0  0  0  0  0  0  0  0  0
   11.6783   14.7247   19.4488 O   0  0  0  0  0  0  0  0  0  0  0  0
   10.1095   14.0025   17.9493 N   0  0  0  0  0  0  0  0  0  0  0  0
    9.1057   13.0572   17.5443 C   0  0  0  0  0  0  0  0  0  0  0  0
   10.3812   15.1360   17.1060 C   0  0  0  0  0  0  0  0  0  0  0  0
    6.2239   14.2688   21.5649 C   0  0  0  0  0  0  0  0  0  0  0  0
    4.4686   15.5172   20.1234 C   0  0  0  0  0  0  0  0  0  0  0  0
    5.4775   14.4958   20.3293 C   0  0  0  0  0  0  0  0  0  0  0  0
    4.8544   13.0951   19.9410 C   0  0  0  0  0  0  0  0  0  0  0  0
 66 67  1  0  0  0
 67 68  1  0  0  0
 67 65  1  0  0  0
 65 52  1  0  0  0
 52 48  1  0  0  0
 48 49  1  0  0  0
 49 50  2  0  0  0
 49 46  1  0  0  0
 46 47  1  0  0  0
 46 42  1  0  0  0
 42 43  1  0  0  0
 43 44  2  0  0  0
 43 40  1  0  0  0
 40 41  1  0  0  0
 40 36  1  0  0  0
 36 37  1  0  0  0
 37 38  2  0  0  0
 37  1  1  0  0  0
  1  2  1  0  0  0
  1  3  1  0  0  0
  3  4  1  0  0  0
  4  5  2  0  0  0
  4  7  1  0  0  0
  7  8  1  0  0  0
  7  9  1  0  0  0
  9 10  1  0  0  0
 10 11  2  0  0  0
 10 13  1  0  0  0
 13 14  1  0  0  0
 13 15  1  0  0  0
 15 16  1  0  0  0
 16 17  2  0  0  0
 16 19  1  0  0  0
 19 20  1  0  0  0
 19 21  1  0  0  0
 21 22  1  0  0  0
 22 23  2  0  0  0
 22 25  1  0  0  0
 25 26  1  0  0  0
 25 27  1  0  0  0
 27 28  1  0  0  0
 28 29  2  0  0  0
 28 31  1  0  0  0
 31 32  1  0  0  0
 31 33  1  0  0  0
 33 34  1  0  0  0
 33 35  2  0  0  0
 52 53  1  0  0  0
 53 54  2  0  0  0
 53 55  1  0  0  0
 55 56  1  0  0  0
 56 57  1  0  0  0
 57 58  1  0  0  0
 58 59  1  0  0  0
 59 60  1  0  0  0
 60 61  2  0  0  0
 60 62  1  0  0  0
 62 63  1  0  0  0
 62 64  1  0  0  0
 59 55  1  0  0  0
 48 51  1  0  0  0
 42 45  1  0  0  0
 36 39  1  0  0  0
  3  6  1  0  0  0
  9 12  1  0  0  0
 15 18  1  0  0  0
 21 24  1  0  0  0
 27 30  1  0  0  0
M  END
> <minimizedAffinity>
-7.90323

> <CNNscore>
0.1784536242

> <CNNaffinity>
6.5297498703

> <CNN_VS>
1.1652575731

> <CNNaffinity_variance>
0.5720761418

$$$$
[H]N(C(=O)[C@@]([H])(N([H])C(=O)[C@@]([H])(N([H])C(=O)[C@]([H])(N([H])C(=O)[C@@]([H])(C(=O)C([H])([H])[H])C([H])([H])[H])C([H])([H])[H])C([H])([H])[H])C([H])([H])[H])[C@]([H])(C(=O)N([H])[C@]([H])(C(=O)N([H])[C@]([H])(C(=O)N([H])[C@]([H])(C(=O)N([H])[C@]([H])(C(=O)N1C([H])([H])C([H])([H])C([H])([H])[C@]1([H])C(=O)N(C([H])([H])[H])C([H])([H])[H])C([H])([H])C([H])(C([H])([H])[H])C([H])([H])[H])C([H])([H])[H])C([H])([H])[H])C([H])([H])[H])C([H])([H])[H]


 68 68  0  0  0  0  0  0  0  0999 V2000
    8.1468    7.0020   11.3076 C   0  0  0  0  0  0  0  0  0  0  0  0
    8.2507    8.4182   11.9685 C   0  0  0  0  0  0  0  0  0  0  0  0
    9.1310    6.9813   10.2346 N   0  0  0  0  0  0  0  0  0  0  0  0
   10.5080    6.7662   10.5362 C   0  0  0  0  0  0  0  0  0  0  0  0
   10.8080    6.6063   11.7675 O   0  0  0  0  0  0  0  0  0  0  0  0
    8.8145    7.1231    9.2529 H   0  0  0  0  0  0  0  0  0  0  0  0
   11.5752    6.7249    9.5438 C   0  0  0  0  0  0  0  0  0  0  0  0
   12.8444    7.3881   10.0409 C   0  0  0  0  0  0  0  0  0  0  0  0
   11.1391    7.4147    8.3241 N   0  0  0  0  0  0  0  0  0  0  0  0
   11.5366    7.0364    7.0383 C   0  0  0  0  0  0  0  0  0  0  0  0
   12.3398    6.0439    6.9417 O   0  0  0  0  0  0  0  0  0  0  0  0
   10.4987    8.2242    8.4686 H   0  0  0  0  0  0  0  0  0  0  0  0
   11.0946    7.6920    5.8147 C   0  0  0  0  0  0  0  0  0  0  0  0
   11.8995    9.0033    5.6103 C   0  0  0  0  0  0  0  0  0  0  0  0
    9.6798    8.0520    5.8740 N   0  0  0  0  0  0  0  0  0  0  0  0
    8.9188    8.2283    4.6748 C   0  0  0  0  0  0  0  0  0  0  0  0
    9.5167    8.0880    3.5929 O   0  0  0  0  0  0  0  0  0  0  0  0
    9.2645    8.1681    6.8142 H   0  0  0  0  0  0  0  0  0  0  0  0
    7.4789    8.5593    4.7250 C   0  0  0  0  0  0  0  0  0  0  0  0
    7.2740   10.0728    4.7416 C   0  0  0  0  0  0  0  0  0  0  0  0
    6.8383    7.9662    5.8522 N   0  0  0  0  0  0  0  0  0  0  0  0
    6.0823    6.7875    5.7870 C   0  0  0  0  0  0  0  0  0  0  0  0
    5.8786    6.1115    4.7353 O   0  0  0  0  0  0  0  0  0  0  0  0
    6.9307    8.4250    6.7782 H   0  0  0  0  0  0  0  0  0  0  0  0
    5.4401    6.2396    7.0398 C   0  0  0  0  0  0  0  0  0  0  0  0
    3.9757    6.0047    6.8254 C   0  0  0  0  0  0  0  0  0  0  0  0
    6.1429    5.0736    7.4728 N   0  0  0  0  0  0  0  0  0  0  0  0
    7.5050    4.9488    7.7848 C   0  0  0  0  0  0  0  0  0  0  0  0
    8.2628    5.9542    7.6955 O   0  0  0  0  0  0  0  0  0  0  0  0
    5.5347    4.1975    7.5680 H   0  0  0  0  0  0  0  0  0  0  0  0
    8.0552    3.6491    8.2192 C   0  0  0  0  0  0  0  0  0  0  0  0
    9.4871    3.5028    7.7296 C   0  0  0  0  0  0  0  0  0  0  0  0
    7.2799    2.4873    7.7956 C   0  0  0  0  0  0  0  0  0  0  0  0
    6.8311    1.3771    8.6841 C   0  0  0  0  0  0  0  0  0  0  0  0
    6.9331    2.3490    6.5976 O   0  0  0  0  0  0  0  0  0  0  0  0
    6.0246    5.6490   11.2483 N   0  0  0  0  0  0  0  0  0  0  0  0
    6.7581    6.8129   10.8690 C   0  0  0  0  0  0  0  0  0  0  0  0
    6.2042    7.6669   10.1669 O   0  0  0  0  0  0  0  0  0  0  0  0
    6.5259    4.9205   11.8085 H   0  0  0  0  0  0  0  0  0  0  0  0
    4.6351    5.4106   10.8972 C   0  0  0  0  0  0  0  0  0  0  0  0
    4.5492    3.9139   10.5442 C   0  0  0  0  0  0  0  0  0  0  0  0
    3.6083    6.9460   12.6725 N   0  0  0  0  0  0  0  0  0  0  0  0
    3.7576    5.7121   12.0323 C   0  0  0  0  0  0  0  0  0  0  0  0
    3.0591    4.7411   12.4891 O   0  0  0  0  0  0  0  0  0  0  0  0
    4.1498    7.7679   12.3396 H   0  0  0  0  0  0  0  0  0  0  0  0
    2.7177    7.1477   13.7991 C   0  0  0  0  0  0  0  0  0  0  0  0
    1.2770    7.1036   13.1994 C   0  0  0  0  0  0  0  0  0  0  0  0
    4.0292    5.6307   15.3608 N   0  0  0  0  0  0  0  0  0  0  0  0
    2.8194    6.1231   14.8375 C   0  0  0  0  0  0  0  0  0  0  0  0
    1.7461    5.6502   15.3005 O   0  0  0  0  0  0  0  0  0  0  0  0
    4.9247    5.9739   14.9819 H   0  0  0  0  0  0  0  0  0  0  0  0
    4.1024    4.6136   16.4637 C   0  0  0  0  0  0  0  0  0  0  0  0
    4.6188    5.2442   17.6196 C   0  0  0  0  0  0  0  0  0  0  0  0
    5.9549    5.5550   17.3429 O   0  0  0  0  0  0  0  0  0  0  0  0
    4.3523    5.6713   18.9039 N   0  0  0  0  0  0  0  0  0  0  0  0
    3.2864    5.4919   19.8491 C   0  0  0  0  0  0  0  0  0  0  0  0
    4.0541    5.2127   21.1529 C   0  0  0  0  0  0  0  0  0  0  0  0
    5.2066    6.1735   21.0305 C   0  0  0  0  0  0  0  0  0  0  0  0
    5.2652    6.6295   19.6260 C   0  0  0  0  0  0  0  0  0  0  0  0
    4.6929    8.0057   19.4732 C   0  0  0  0  0  0  0  0  0  0  0  0
    3.5305    8.1517   18.9596 O   0  0  0  0  0  0  0  0  0  0  0  0
    5.3616    9.1814   19.8638 N   0  0  0  0  0  0  0  0  0  0  0  0
    6.6842    9.1208   20.4226 C   0  0  0  0  0  0  0  0  0  0  0  0
    4.7257   10.4632   19.7139 C   0  0  0  0  0  0  0  0  0  0  0  0
    4.4304    3.3760   15.8172 C   0  0  0  0  0  0  0  0  0  0  0  0
    2.2758    2.1328   15.0896 C   0  0  0  0  0  0  0  0  0  0  0  0
    3.5933    2.1848   15.6939 C   0  0  0  0  0  0  0  0  0  0  0  0
    3.4975    1.5751   17.1500 C   0  0  0  0  0  0  0  0  0  0  0  0
 66 67  1  0  0  0
 67 68  1  0  0  0
 67 65  1  0  0  0
 65 52  1  0  0  0
 52 48  1  0  0  0
 48 49  1  0  0  0
 49 50  2  0  0  0
 49 46  1  0  0  0
 46 47  1  0  0  0
 46 42  1  0  0  0
 42 43  1  0  0  0
 43 44  2  0  0  0
 43 40  1  0  0  0
 40 41  1  0  0  0
 40 36  1  0  0  0
 36 37  1  0  0  0
 37 38  2  0  0  0
 37  1  1  0  0  0
  1  2  1  0  0  0
  1  3  1  0  0  0
  3  4  1  0  0  0
  4  5  2  0  0  0
  4  7  1  0  0  0
  7  8  1  0  0  0
  7  9  1  0  0  0
  9 10  1  0  0  0
 10 11  2  0  0  0
 10 13  1  0  0  0
 13 14  1  0  0  0
 13 15  1  0  0  0
 15 16  1  0  0  0
 16 17  2  0  0  0
 16 19  1  0  0  0
 19 20  1  0  0  0
 19 21  1  0  0  0
 21 22  1  0  0  0
 22 23  2  0  0  0
 22 25  1  0  0  0
 25 26  1  0  0  0
 25 27  1  0  0  0
 27 28  1  0  0  0
 28 29  2  0  0  0
 28 31  1  0  0  0
 31 32  1  0  0  0
 31 33  1  0  0  0
 33 34  1  0  0  0
 33 35  2  0  0  0
 52 53  1  0  0  0
 53 54  2  0  0  0
 53 55  1  0  0  0
 55 56  1  0  0  0
 56 57  1  0  0  0
 57 58  1  0  0  0
 58 59  1  0  0  0
 59 60  1  0  0  0
 60 61  2  0  0  0
 60 62  1  0  0  0
 62 63  1  0  0  0
 62 64  1  0  0  0
 59 55  1  0  0  0
 48 51  1  0  0  0
 42 45  1  0  0  0
 36 39  1  0  0  0
  3  6  1  0  0  0
  9 12  1  0  0  0
 15 18  1  0  0  0
 21 24  1  0  0  0
 27 30  1  0  0  0
M  END
> <minimizedAffinity>
-7.82265

> <CNNscore>
0.1725089252

> <CNNaffinity>
6.6794867516

> <CNN_VS>
1.1522710323

> <CNNaffinity_variance>
0.3968552649

$$$$
[H]c1nc(N([H])[H])c(C(F)(F)F)nc1-c1c([H])nc([H])c(C(=O)N([H])[C@]([H])(c2c([H])c([H])c(F)c(C(F)(F)F)c2[H])C([H])([H])C([H])(C([H])([H])[H])C([H])([H])[H])c1[H]


 39 41  0  0  0  0  0  0  0  0999 V2000
    2.6243    2.8961   11.5643 N   0  0  0  0  0  0  0  0  0  0  0  0
    2.2252    2.3775   12.8240 C   0  0  0  0  0  0  0  0  0  0  0  0
    1.2452    1.5615   12.8933 O   0  0  0  0  0  0  0  0  0  0  0  0
    3.4219    3.5601   11.5228 H   0  0  0  0  0  0  0  0  0  0  0  0
    2.8819    2.7297   14.0670 C   0  0  0  0  0  0  0  0  0  0  0  0
    3.6390    3.8672   14.2280 C   0  0  0  0  0  0  0  0  0  0  0  0
    4.2366    4.1559   15.4244 N   0  0  0  0  0  0  0  0  0  0  0  0
    4.1308    3.3698   16.5022 C   0  0  0  0  0  0  0  0  0  0  0  0
    3.3782    2.2122   16.3892 C   0  0  0  0  0  0  0  0  0  0  0  0
    2.7723    1.9115   15.1905 C   0  0  0  0  0  0  0  0  0  0  0  0
    3.2659    1.3592   17.5669 C   0  0  0  0  0  0  0  0  0  0  0  0
    2.4298    0.2777   17.6185 C   0  0  0  0  0  0  0  0  0  0  0  0
    2.3697   -0.4816   18.7508 N   0  0  0  0  0  0  0  0  0  0  0  0
    3.0984   -0.2244   19.8408 C   0  0  0  0  0  0  0  0  0  0  0  0
    3.0284   -1.0226   21.0168 N   0  0  0  0  0  0  0  0  0  0  0  0
    3.9522    0.8750   19.7964 C   0  0  0  0  0  0  0  0  0  0  0  0
    4.0003    1.6108   18.6779 N   0  0  0  0  0  0  0  0  0  0  0  0
    2.7843   -0.5940   21.9344 H   0  0  0  0  0  0  0  0  0  0  0  0
    3.2145   -2.0530   21.0139 H   0  0  0  0  0  0  0  0  0  0  0  0
    4.8005    1.2468   20.9445 C   0  0  0  0  0  0  0  0  0  0  0  0
    4.0506    1.4676   22.0836 F   0  0  0  0  0  0  0  0  0  0  0  0
    5.5459    2.3720   20.6034 F   0  0  0  0  0  0  0  0  0  0  0  0
    5.7111    0.2425   21.1824 F   0  0  0  0  0  0  0  0  0  0  0  0
    1.9153    2.5003   10.3209 C   0  0  0  0  0  0  0  0  0  0  0  0
    2.6895    1.4380    9.7047 C   0  0  0  0  0  0  0  0  0  0  0  0
    2.0644    0.2564    9.3619 C   0  0  0  0  0  0  0  0  0  0  0  0
    2.7357   -0.7916    8.7859 C   0  0  0  0  0  0  0  0  0  0  0  0
    4.0669   -0.7134    8.5226 C   0  0  0  0  0  0  0  0  0  0  0  0
    4.7683   -1.7317    7.9522 F   0  0  0  0  0  0  0  0  0  0  0  0
    4.7218    0.4603    8.8557 C   0  0  0  0  0  0  0  0  0  0  0  0
    4.0425    1.5016    9.4307 C   0  0  0  0  0  0  0  0  0  0  0  0
    6.1708    0.6066    8.5943 C   0  0  0  0  0  0  0  0  0  0  0  0
    6.5552    1.8546    9.0439 F   0  0  0  0  0  0  0  0  0  0  0  0
    6.8596   -0.3989    9.2653 F   0  0  0  0  0  0  0  0  0  0  0  0
    6.4369    0.5255    7.2561 F   0  0  0  0  0  0  0  0  0  0  0  0
    1.6123    3.7177    9.5484 C   0  0  0  0  0  0  0  0  0  0  0  0
   -0.7055    2.8805    9.1145 C   0  0  0  0  0  0  0  0  0  0  0  0
    0.4726    3.6955    8.6005 C   0  0  0  0  0  0  0  0  0  0  0  0
    0.7337    3.3468    7.1918 C   0  0  0  0  0  0  0  0  0  0  0  0
 37 38  1  0  0  0
 38 39  1  0  0  0
 38 36  1  0  0  0
 36 24  1  0  0  0
 24  1  1  0  0  0
  1  2  1  0  0  0
  2  3  2  0  0  0
  2  5  1  0  0  0
  5  6  2  0  0  0
  6  7  1  0  0  0
  7  8  2  0  0  0
  8  9  1  0  0  0
  9 10  2  0  0  0
  9 11  1  0  0  0
 11 12  2  0  0  0
 12 13  1  0  0  0
 13 14  2  0  0  0
 14 15  1  0  0  0
 14 16  1  0  0  0
 16 17  2  0  0  0
 16 20  1  0  0  0
 20 21  1  0  0  0
 20 22  1  0  0  0
 20 23  1  0  0  0
 24 25  1  0  0  0
 25 26  2  0  0  0
 26 27  1  0  0  0
 27 28  2  0  0  0
 28 29  1  0  0  0
 28 30  1  0  0  0
 30 31  2  0  0  0
 30 32  1  0  0  0
 32 33  1  0  0  0
 32 34  1  0  0  0
 32 35  1  0  0  0
 10  5  1  0  0  0
 17 11  1  0  0  0
 31 25  1  0  0  0
  1  4  1  0  0  0
 15 18  1  0  0  0
 15 19  1  0  0  0
M  END
> <minimizedAffinity>
-7.89192

> <CNNscore>
0.8009926677

> <CNNaffinity>
7.1826157570

> <CNN_VS>
5.7532224655

> <CNNaffinity_variance>
0.0814090520

$$$$
[H]c1nc(N([H])[H])c(C(F)(F)F)nc1-c1c([H])nc([H])c(C(=O)N([H])[C@]([H])(c2c([H])c([H])c(F)c(C(F)(F)F)c2[H])C([H])([H])C([H])(C([H])([H])[H])C([H])([H])[H])c1[H]


 39 41  0  0  0  0  0  0  0  0999 V2000
    1.8291    3.1470   14.0311 N   0  0  0  0  0  0  0  0  0  0  0  0
    3.0993    3.1886   14.6633 C   0  0  0  0  0  0  0  0  0  0  0  0
    4.0655    3.8117   14.1073 O   0  0  0  0  0  0  0  0  0  0  0  0
    1.0526    2.6353   14.4937 H   0  0  0  0  0  0  0  0  0  0  0  0
    3.3697    2.5484   15.9352 C   0  0  0  0  0  0  0  0  0  0  0  0
    3.2760    1.1902   16.1347 C   0  0  0  0  0  0  0  0  0  0  0  0
    3.5449    0.6344   17.3556 N   0  0  0  0  0  0  0  0  0  0  0  0
    3.9108    1.3555   18.4219 C   0  0  0  0  0  0  0  0  0  0  0  0
    4.0190    2.7282   18.2702 C   0  0  0  0  0  0  0  0  0  0  0  0
    3.7510    3.2986   17.0466 C   0  0  0  0  0  0  0  0  0  0  0  0
    4.4184    3.5094   19.4354 C   0  0  0  0  0  0  0  0  0  0  0  0
    5.1522    4.6597   19.3373 C   0  0  0  0  0  0  0  0  0  0  0  0
    5.4950    5.3457   20.4659 N   0  0  0  0  0  0  0  0  0  0  0  0
    5.1471    4.9499   21.6938 C   0  0  0  0  0  0  0  0  0  0  0  0
    5.5096    5.6727   22.8648 N   0  0  0  0  0  0  0  0  0  0  0  0
    4.3998    3.7797   21.8024 C   0  0  0  0  0  0  0  0  0  0  0  0
    4.0710    3.1172   20.6854 N   0  0  0  0  0  0  0  0  0  0  0  0
    6.0476    5.2103   23.6276 H   0  0  0  0  0  0  0  0  0  0  0  0
    5.2583    6.6788   23.0099 H   0  0  0  0  0  0  0  0  0  0  0  0
    3.9638    3.2549   23.1103 C   0  0  0  0  0  0  0  0  0  0  0  0
    5.0364    3.0076   23.9451 F   0  0  0  0  0  0  0  0  0  0  0  0
    3.2098    2.1035   22.9008 F   0  0  0  0  0  0  0  0  0  0  0  0
    3.1182    4.1625   23.7065 F   0  0  0  0  0  0  0  0  0  0  0  0
    1.6075    3.8218   12.7269 C   0  0  0  0  0  0  0  0  0  0  0  0
    0.5155    4.7609   12.9092 C   0  0  0  0  0  0  0  0  0  0  0  0
    0.6640    5.8074   13.7963 C   0  0  0  0  0  0  0  0  0  0  0  0
   -0.3290    6.7253   14.0250 C   0  0  0  0  0  0  0  0  0  0  0  0
   -1.5222    6.6450   13.3790 C   0  0  0  0  0  0  0  0  0  0  0  0
   -2.5320    7.5364   13.5788 F   0  0  0  0  0  0  0  0  0  0  0  0
   -1.7008    5.6051   12.4823 C   0  0  0  0  0  0  0  0  0  0  0  0
   -0.7029    4.6931   12.2607 C   0  0  0  0  0  0  0  0  0  0  0  0
   -2.9775    5.4634   11.7481 C   0  0  0  0  0  0  0  0  0  0  0  0
   -3.9637    6.0738   12.4978 F   0  0  0  0  0  0  0  0  0  0  0  0
   -2.8557    6.0658   10.4999 F   0  0  0  0  0  0  0  0  0  0  0  0
   -3.3058    4.1463   11.5875 F   0  0  0  0  0  0  0  0  0  0  0  0
    1.5094    2.7912   11.6785 C   0  0  0  0  0  0  0  0  0  0  0  0
    3.7020    3.3086   10.5893 C   0  0  0  0  0  0  0  0  0  0  0  0
    2.7588    2.2329   11.1083 C   0  0  0  0  0  0  0  0  0  0  0  0
    2.6573    1.1477   10.1151 C   0  0  0  0  0  0  0  0  0  0  0  0
 37 38  1  0  0  0
 38 39  1  0  0  0
 38 36  1  0  0  0
 36 24  1  0  0  0
 24  1  1  0  0  0
  1  2  1  0  0  0
  2  3  2  0  0  0
  2  5  1  0  0  0
  5  6  2  0  0  0
  6  7  1  0  0  0
  7  8  2  0  0  0
  8  9  1  0  0  0
  9 10  2  0  0  0
  9 11  1  0  0  0
 11 12  2  0  0  0
 12 13  1  0  0  0
 13 14  2  0  0  0
 14 15  1  0  0  0
 14 16  1  0  0  0
 16 17  2  0  0  0
 16 20  1  0  0  0
 20 21  1  0  0  0
 20 22  1  0  0  0
 20 23  1  0  0  0
 24 25  1  0  0  0
 25 26  2  0  0  0
 26 27  1  0  0  0
 27 28  2  0  0  0
 28 29  1  0  0  0
 28 30  1  0  0  0
 30 31  2  0  0  0
 30 32  1  0  0  0
 32 33  1  0  0  0
 32 34  1  0  0  0
 32 35  1  0  0  0
 10  5  1  0  0  0
 17 11  1  0  0  0
 31 25  1  0  0  0
  1  4  1  0  0  0
 15 18  1  0  0  0
 15 19  1  0  0  0
M  END
> <minimizedAffinity>
-9.48415

> <CNNscore>
0.4834791124

> <CNNaffinity>
7.0068449974

> <CNN_VS>
3.3876631260

> <CNNaffinity_variance>
0.5740412474

$$$$
[H]c1nc(N([H])[H])c(C(F)(F)F)nc1-c1c([H])nc([H])c(C(=O)N([H])[C@]([H])(c2c([H])c([H])c(F)c(C(F)(F)F)c2[H])C([H])([H])C([H])(C([H])([H])[H])C([H])([H])[H])c1[H]


 39 41  0  0  0  0  0  0  0  0999 V2000
    3.3715    4.0199   14.6928 N   0  0  0  0  0  0  0  0  0  0  0  0
    2.9030    2.6819   14.7653 C   0  0  0  0  0  0  0  0  0  0  0  0
    2.3806    2.1352   13.7361 O   0  0  0  0  0  0  0  0  0  0  0  0
    3.7926    4.4526   15.5379 H   0  0  0  0  0  0  0  0  0  0  0  0
    2.9852    1.8806   15.9701 C   0  0  0  0  0  0  0  0  0  0  0  0
    2.4809    0.6040   16.0667 C   0  0  0  0  0  0  0  0  0  0  0  0
    2.5868   -0.1124   17.2274 N   0  0  0  0  0  0  0  0  0  0  0  0
    3.1757    0.3657   18.3298 C   0  0  0  0  0  0  0  0  0  0  0  0
    3.6991    1.6474   18.2814 C   0  0  0  0  0  0  0  0  0  0  0  0
    3.5986    2.3776   17.1191 C   0  0  0  0  0  0  0  0  0  0  0  0
    4.3402    2.1636   19.4856 C   0  0  0  0  0  0  0  0  0  0  0  0
    5.1813    1.4085   20.2562 C   0  0  0  0  0  0  0  0  0  0  0  0
    5.7500    1.9495   21.3723 N   0  0  0  0  0  0  0  0  0  0  0  0
    5.5282    3.2065   21.7676 C   0  0  0  0  0  0  0  0  0  0  0  0
    6.1264    3.7614   22.9334 N   0  0  0  0  0  0  0  0  0  0  0  0
    4.6731    3.9820   20.9885 C   0  0  0  0  0  0  0  0  0  0  0  0
    4.1223    3.4369   19.8957 N   0  0  0  0  0  0  0  0  0  0  0  0
    5.5360    4.1601   23.6934 H   0  0  0  0  0  0  0  0  0  0  0  0
    7.1631    3.7935   23.0776 H   0  0  0  0  0  0  0  0  0  0  0  0
    4.3609    5.3814   21.3353 C   0  0  0  0  0  0  0  0  0  0  0  0
    3.7083    5.4737   22.5494 F   0  0  0  0  0  0  0  0  0  0  0  0
    3.6017    5.9373   20.3092 F   0  0  0  0  0  0  0  0  0  0  0  0
    5.5278    6.1096   21.3852 F   0  0  0  0  0  0  0  0  0  0  0  0
    3.2626    4.7954   13.4310 C   0  0  0  0  0  0  0  0  0  0  0  0
    1.8935    5.2687   13.3346 C   0  0  0  0  0  0  0  0  0  0  0  0
    1.4252    6.1785   14.2605 C   0  0  0  0  0  0  0  0  0  0  0  0
    0.1415    6.6603   14.2353 C   0  0  0  0  0  0  0  0  0  0  0  0
   -0.7412    6.2578   13.2832 C   0  0  0  0  0  0  0  0  0  0  0  0
   -2.0233    6.7129   13.2247 F   0  0  0  0  0  0  0  0  0  0  0  0
   -0.3001    5.3451   12.3400 C   0  0  0  0  0  0  0  0  0  0  0  0
    0.9842    4.8696   12.3735 C   0  0  0  0  0  0  0  0  0  0  0  0
   -1.2136    4.8682   11.2782 C   0  0  0  0  0  0  0  0  0  0  0  0
   -1.5404    5.9518   10.4867 F   0  0  0  0  0  0  0  0  0  0  0  0
   -0.5734    3.8824   10.5339 F   0  0  0  0  0  0  0  0  0  0  0  0
   -2.3631    4.3590   11.8145 F   0  0  0  0  0  0  0  0  0  0  0  0
    3.8288    3.9882   12.3363 C   0  0  0  0  0  0  0  0  0  0  0  0
    4.8302    6.0725   11.3801 C   0  0  0  0  0  0  0  0  0  0  0  0
    4.9286    4.5605   11.5234 C   0  0  0  0  0  0  0  0  0  0  0  0
    5.2194    3.9604   10.2083 C   0  0  0  0  0  0  0  0  0  0  0  0
 37 38  1  0  0  0
 38 39  1  0  0  0
 38 36  1  0  0  0
 36 24  1  0  0  0
 24  1  1  0  0  0
  1  2  1  0  0  0
  2  3  2  0  0  0
  2  5  1  0  0  0
  5  6  2  0  0  0
  6  7  1  0  0  0
  7  8  2  0  0  0
  8  9  1  0  0  0
  9 10  2  0  0  0
  9 11  1  0  0  0
 11 12  2  0  0  0
 12 13  1  0  0  0
 13 14  2  0  0  0
 14 15  1  0  0  0
 14 16  1  0  0  0
 16 17  2  0  0  0
 16 20  1  0  0  0
 20 21  1  0  0  0
 20 22  1  0  0  0
 20 23  1  0  0  0
 24 25  1  0  0  0
 25 26  2  0  0  0
 26 27  1  0  0  0
 27 28  2  0  0  0
 28 29  1  0  0  0
 28 30  1  0  0  0
 30 31  2  0  0  0
 30 32  1  0  0  0
 32 33  1  0  0  0
 32 34  1  0  0  0
 32 35  1  0  0  0
 10  5  1  0  0  0
 17 11  1  0  0  0
 31 25  1  0  0  0
  1  4  1  0  0  0
 15 18  1  0  0  0
 15 19  1  0  0  0
M  END
> <minimizedAffinity>
-8.59449

> <CNNscore>
0.4514219463

> <CNNaffinity>
7.0808091164

> <CNN_VS>
3.1964325905

> <CNNaffinity_variance>
0.5328372717

$$$$
[H]c1nc(N([H])[H])c(C(F)(F)F)nc1-c1c([H])nc([H])c(C(=O)N([H])[C@]([H])(c2c([H])c([H])c(F)c(C(F)(F)F)c2[H])C([H])([H])C([H])(C([H])([H])[H])C([H])([H])[H])c1[H]


 39 41  0  0  0  0  0  0  0  0999 V2000
    2.4914    2.3193   13.7501 N   0  0  0  0  0  0  0  0  0  0  0  0
    3.4473    2.7393   14.7117 C   0  0  0  0  0  0  0  0  0  0  0  0
    4.2950    3.6459   14.4107 O   0  0  0  0  0  0  0  0  0  0  0  0
    1.8090    1.5799   14.0079 H   0  0  0  0  0  0  0  0  0  0  0  0
    3.5188    2.1845   16.0488 C   0  0  0  0  0  0  0  0  0  0  0  0
    3.2030    0.8785   16.3449 C   0  0  0  0  0  0  0  0  0  0  0  0
    3.2898    0.4025   17.6246 N   0  0  0  0  0  0  0  0  0  0  0  0
    3.6798    1.1560   18.6595 C   0  0  0  0  0  0  0  0  0  0  0  0
    4.0085    2.4786   18.4110 C   0  0  0  0  0  0  0  0  0  0  0  0
    3.9250    2.9686   17.1276 C   0  0  0  0  0  0  0  0  0  0  0  0
    4.4331    3.2954   19.5423 C   0  0  0  0  0  0  0  0  0  0  0  0
    5.1850    4.4286   19.3942 C   0  0  0  0  0  0  0  0  0  0  0  0
    5.5511    5.1500   20.4931 N   0  0  0  0  0  0  0  0  0  0  0  0
    5.2096    4.8059   21.7383 C   0  0  0  0  0  0  0  0  0  0  0  0
    5.5966    5.5652   22.8779 N   0  0  0  0  0  0  0  0  0  0  0  0
    4.4441    3.6534   21.8977 C   0  0  0  0  0  0  0  0  0  0  0  0
    4.0924    2.9557   20.8094 N   0  0  0  0  0  0  0  0  0  0  0  0
    6.1347    5.1222   23.6520 H   0  0  0  0  0  0  0  0  0  0  0  0
    5.3637    6.5801   22.9880 H   0  0  0  0  0  0  0  0  0  0  0  0
    4.0132    3.1849   23.2284 C   0  0  0  0  0  0  0  0  0  0  0  0
    3.2240    4.1208   23.8687 F   0  0  0  0  0  0  0  0  0  0  0  0
    5.1430    2.8761   23.9808 F   0  0  0  0  0  0  0  0  0  0  0  0
    3.3112    2.0090   23.0923 F   0  0  0  0  0  0  0  0  0  0  0  0
    2.4631    2.9229   12.3936 C   0  0  0  0  0  0  0  0  0  0  0  0
    1.6423    4.1178   12.4723 C   0  0  0  0  0  0  0  0  0  0  0  0
    0.2683    3.9940   12.5061 C   0  0  0  0  0  0  0  0  0  0  0  0
   -0.5674    5.0794   12.5705 C   0  0  0  0  0  0  0  0  0  0  0  0
   -0.0734    6.3453   12.6044 C   0  0  0  0  0  0  0  0  0  0  0  0
   -0.8701    7.4478   12.6683 F   0  0  0  0  0  0  0  0  0  0  0  0
    1.3020    6.5014   12.5717 C   0  0  0  0  0  0  0  0  0  0  0  0
    2.1286    5.4109   12.5074 C   0  0  0  0  0  0  0  0  0  0  0  0
    1.9009    7.8539   12.6057 C   0  0  0  0  0  0  0  0  0  0  0  0
    3.2717    7.7092   12.5200 F   0  0  0  0  0  0  0  0  0  0  0  0
    1.4105    8.5973   11.5367 F   0  0  0  0  0  0  0  0  0  0  0  0
    1.6032    8.4913   13.7776 F   0  0  0  0  0  0  0  0  0  0  0  0
    2.1195    1.8707   11.4212 C   0  0  0  0  0  0  0  0  0  0  0  0
    3.5280    0.4528    9.9156 C   0  0  0  0  0  0  0  0  0  0  0  0
    2.8710    1.8063   10.1449 C   0  0  0  0  0  0  0  0  0  0  0  0
    3.8359    2.8787    9.8399 C   0  0  0  0  0  0  0  0  0  0  0  0
 37 38  1  0  0  0
 38 39  1  0  0  0
 38 36  1  0  0  0
 36 24  1  0  0  0
 24  1  1  0  0  0
  1  2  1  0  0  0
  2  3  2  0  0  0
  2  5  1  0  0  0
  5  6  2  0  0  0
  6  7  1  0  0  0
  7  8  2  0  0  0
  8  9  1  0  0  0
  9 10  2  0  0  0
  9 11  1  0  0  0
 11 12  2  0  0  0
 12 13  1  0  0  0
 13 14  2  0  0  0
 14 15  1  0  0  0
 14 16  1  0  0  0
 16 17  2  0  0  0
 16 20  1  0  0  0
 20 21  1  0  0  0
 20 22  1  0  0  0
 20 23  1  0  0  0
 24 25  1  0  0  0
 25 26  2  0  0  0
 26 27  1  0  0  0
 27 28  2  0  0  0
 28 29  1  0  0  0
 28 30  1  0  0  0
 30 31  2  0  0  0
 30 32  1  0  0  0
 32 33  1  0  0  0
 32 34  1  0  0  0
 32 35  1  0  0  0
 10  5  1  0  0  0
 17 11  1  0  0  0
 31 25  1  0  0  0
  1  4  1  0  0  0
 15 18  1  0  0  0
 15 19  1  0  0  0
M  END
> <minimizedAffinity>
-8.72982

> <CNNscore>
0.4294668138

> <CNNaffinity>
7.0182647705

> <CNN_VS>
3.0141117573

> <CNNaffinity_variance>
0.4719345570

$$$$
[H]c1nc(N([H])[H])c(C(F)(F)F)nc1-c1c([H])nc([H])c(C(=O)N([H])[C@]([H])(c2c([H])c([H])c(F)c(C(F)(F)F)c2[H])C([H])([H])C([H])(C([H])([H])[H])C([H])([H])[H])c1[H]


 39 41  0  0  0  0  0  0  0  0999 V2000
    1.7636    6.0618   14.9677 N   0  0  0  0  0  0  0  0  0  0  0  0
    2.3749    4.8484   14.5568 C   0  0  0  0  0  0  0  0  0  0  0  0
    2.6301    4.6525   13.3209 O   0  0  0  0  0  0  0  0  0  0  0  0
    1.5602    6.2072   15.9758 H   0  0  0  0  0  0  0  0  0  0  0  0
    2.7350    3.7926   15.4821 C   0  0  0  0  0  0  0  0  0  0  0  0
    2.4864    2.4602   15.2450 C   0  0  0  0  0  0  0  0  0  0  0  0
    2.8492    1.5009   16.1505 N   0  0  0  0  0  0  0  0  0  0  0  0
    3.4590    1.7823   17.3079 C   0  0  0  0  0  0  0  0  0  0  0  0
    3.7307    3.1108   17.5916 C   0  0  0  0  0  0  0  0  0  0  0  0
    3.3704    4.0845   16.6881 C   0  0  0  0  0  0  0  0  0  0  0  0
    4.3958    3.4119   18.8542 C   0  0  0  0  0  0  0  0  0  0  0  0
    4.6158    4.6910   19.2865 C   0  0  0  0  0  0  0  0  0  0  0  0
    5.2444    4.9072   20.4782 N   0  0  0  0  0  0  0  0  0  0  0  0
    5.6690    3.9172   21.2688 C   0  0  0  0  0  0  0  0  0  0  0  0
    6.3237    4.1533   22.5100 N   0  0  0  0  0  0  0  0  0  0  0  0
    5.4489    2.6119   20.8359 C   0  0  0  0  0  0  0  0  0  0  0  0
    4.8305    2.4156   19.6638 N   0  0  0  0  0  0  0  0  0  0  0  0
    7.2724    3.7631   22.6914 H   0  0  0  0  0  0  0  0  0  0  0  0
    5.8921    4.7169   23.2798 H   0  0  0  0  0  0  0  0  0  0  0  0
    5.8775    1.4466   21.6324 C   0  0  0  0  0  0  0  0  0  0  0  0
    5.4859    0.2570   21.0491 F   0  0  0  0  0  0  0  0  0  0  0  0
    5.3632    1.5720   22.9200 F   0  0  0  0  0  0  0  0  0  0  0  0
    7.2473    1.4637   21.7643 F   0  0  0  0  0  0  0  0  0  0  0  0
    1.4161    7.1110   13.9759 C   0  0  0  0  0  0  0  0  0  0  0  0
    0.1076    6.7801   13.4412 C   0  0  0  0  0  0  0  0  0  0  0  0
   -1.0117    6.9692   14.2258 C   0  0  0  0  0  0  0  0  0  0  0  0
   -2.2766    6.6692   13.7888 C   0  0  0  0  0  0  0  0  0  0  0  0
   -2.4886    6.1645   12.5446 C   0  0  0  0  0  0  0  0  0  0  0  0
   -3.7284    5.8543   12.0746 F   0  0  0  0  0  0  0  0  0  0  0  0
   -1.3842    5.9637   11.7338 C   0  0  0  0  0  0  0  0  0  0  0  0
   -0.1248    6.2664   12.1794 C   0  0  0  0  0  0  0  0  0  0  0  0
   -1.5497    5.4167   10.3690 C   0  0  0  0  0  0  0  0  0  0  0  0
   -0.3088    5.4166    9.7628 F   0  0  0  0  0  0  0  0  0  0  0  0
   -2.0633    4.1264   10.4534 F   0  0  0  0  0  0  0  0  0  0  0  0
   -2.3951    6.1954    9.6293 F   0  0  0  0  0  0  0  0  0  0  0  0
    2.5539    7.2785   13.0550 C   0  0  0  0  0  0  0  0  0  0  0  0
    4.8815    8.1872   13.1877 C   0  0  0  0  0  0  0  0  0  0  0  0
    3.3914    8.4963   13.1704 C   0  0  0  0  0  0  0  0  0  0  0  0
    3.0792    9.4686   14.2340 C   0  0  0  0  0  0  0  0  0  0  0  0
 37 38  1  0  0  0
 38 39  1  0  0  0
 38 36  1  0  0  0
 36 24  1  0  0  0
 24  1  1  0  0  0
  1  2  1  0  0  0
  2  3  2  0  0  0
  2  5  1  0  0  0
  5  6  2  0  0  0
  6  7  1  0  0  0
  7  8  2  0  0  0
  8  9  1  0  0  0
  9 10  2  0  0  0
  9 11  1  0  0  0
 11 12  2  0  0  0
 12 13  1  0  0  0
 13 14  2  0  0  0
 14 15  1  0  0  0
 14 16  1  0  0  0
 16 17  2  0  0  0
 16 20  1  0  0  0
 20 21  1  0  0  0
 20 22  1  0  0  0
 20 23  1  0  0  0
 24 25  1  0  0  0
 25 26  2  0  0  0
 26 27  1  0  0  0
 27 28  2  0  0  0
 28 29  1  0  0  0
 28 30  1  0  0  0
 30 31  2  0  0  0
 30 32  1  0  0  0
 32 33  1  0  0  0
 32 34  1  0  0  0
 32 35  1  0  0  0
 10  5  1  0  0  0
 17 11  1  0  0  0
 31 25  1  0  0  0
  1  4  1  0  0  0
 15 18  1  0  0  0
 15 19  1  0  0  0
M  END
> <minimizedAffinity>
-8.45950

> <CNNscore>
0.3184929788

> <CNNaffinity>
6.8019599915

> <CNN_VS>
2.1663765907

> <CNNaffinity_variance>
0.4189467430

$$$$
[H]c1nc(N([H])[H])c(C(F)(F)F)nc1-c1c([H])nc([H])c(C(=O)N([H])[C@]([H])(c2c([H])c([H])c(F)c(C(F)(F)F)c2[H])C([H])([H])C([H])(C([H])([H])[H])C([H])([H])[H])c1[H]


 39 41  0  0  0  0  0  0  0  0999 V2000
    1.6660    5.4556   13.3455 N   0  0  0  0  0  0  0  0  0  0  0  0
    1.6852    4.0458   13.5088 C   0  0  0  0  0  0  0  0  0  0  0  0
    1.1462    3.2967   12.6260 O   0  0  0  0  0  0  0  0  0  0  0  0
    2.1067    6.0530   14.0720 H   0  0  0  0  0  0  0  0  0  0  0  0
    2.2964    3.3909   14.6483 C   0  0  0  0  0  0  0  0  0  0  0  0
    2.6688    2.0664   14.6509 C   0  0  0  0  0  0  0  0  0  0  0  0
    3.2454    1.4959   15.7526 N   0  0  0  0  0  0  0  0  0  0  0  0
    3.4839    2.1698   16.8839 C   0  0  0  0  0  0  0  0  0  0  0  0
    3.1261    3.5074   16.9296 C   0  0  0  0  0  0  0  0  0  0  0  0
    2.5454    4.0921   15.8272 C   0  0  0  0  0  0  0  0  0  0  0  0
    3.3886    4.2373   18.1647 C   0  0  0  0  0  0  0  0  0  0  0  0
    3.0687    5.5578   18.3245 C   0  0  0  0  0  0  0  0  0  0  0  0
    3.3406    6.1849   19.5055 N   0  0  0  0  0  0  0  0  0  0  0  0
    3.9160    5.5693   20.5426 C   0  0  0  0  0  0  0  0  0  0  0  0
    4.1953    6.2325   21.7702 N   0  0  0  0  0  0  0  0  0  0  0  0
    4.2448    4.2248   20.3880 C   0  0  0  0  0  0  0  0  0  0  0  0
    3.9717    3.6228   19.2227 N   0  0  0  0  0  0  0  0  0  0  0  0
    5.1656    6.2612   22.1482 H   0  0  0  0  0  0  0  0  0  0  0  0
    3.4559    6.7109   22.3366 H   0  0  0  0  0  0  0  0  0  0  0  0
    4.8826    3.4516   21.4703 C   0  0  0  0  0  0  0  0  0  0  0  0
    4.1058    3.4349   22.6126 F   0  0  0  0  0  0  0  0  0  0  0  0
    6.1414    3.9904   21.7222 F   0  0  0  0  0  0  0  0  0  0  0  0
    5.0975    2.1612   21.0428 F   0  0  0  0  0  0  0  0  0  0  0  0
    1.0256    6.0738   12.1568 C   0  0  0  0  0  0  0  0  0  0  0  0
   -0.3860    6.2261   12.4598 C   0  0  0  0  0  0  0  0  0  0  0  0
   -0.7639    6.9042   13.6007 C   0  0  0  0  0  0  0  0  0  0  0  0
   -2.0779    7.0771   13.9533 C   0  0  0  0  0  0  0  0  0  0  0  0
   -3.0827    6.5811   13.1840 C   0  0  0  0  0  0  0  0  0  0  0  0
   -4.3986    6.7318   13.5002 F   0  0  0  0  0  0  0  0  0  0  0  0
   -2.7344    5.8955   12.0325 C   0  0  0  0  0  0  0  0  0  0  0  0
   -1.4190    5.7281   11.6887 C   0  0  0  0  0  0  0  0  0  0  0  0
   -3.7826    5.3315   11.1535 C   0  0  0  0  0  0  0  0  0  0  0  0
   -4.5988    6.3708   10.7521 F   0  0  0  0  0  0  0  0  0  0  0  0
   -3.1799    4.7197   10.0589 F   0  0  0  0  0  0  0  0  0  0  0  0
   -4.5431    4.4156   11.8249 F   0  0  0  0  0  0  0  0  0  0  0  0
    1.4321    5.3163   10.9603 C   0  0  0  0  0  0  0  0  0  0  0  0
    2.8685    7.1294   10.0060 C   0  0  0  0  0  0  0  0  0  0  0  0
    1.8150    6.0640    9.7388 C   0  0  0  0  0  0  0  0  0  0  0  0
    0.7467    6.6304    8.8949 C   0  0  0  0  0  0  0  0  0  0  0  0
 37 38  1  0  0  0
 38 39  1  0  0  0
 38 36  1  0  0  0
 36 24  1  0  0  0
 24  1  1  0  0  0
  1  2  1  0  0  0
  2  3  2  0  0  0
  2  5  1  0  0  0
  5  6  2  0  0  0
  6  7  1  0  0  0
  7  8  2  0  0  0
  8  9  1  0  0  0
  9 10  2  0  0  0
  9 11  1  0  0  0
 11 12  2  0  0  0
 12 13  1  0  0  0
 13 14  2  0  0  0
 14 15  1  0  0  0
 14 16  1  0  0  0
 16 17  2  0  0  0
 16 20  1  0  0  0
 20 21  1  0  0  0
 20 22  1  0  0  0
 20 23  1  0  0  0
 24 25  1  0  0  0
 25 26  2  0  0  0
 26 27  1  0  0  0
 27 28  2  0  0  0
 28 29  1  0  0  0
 28 30  1  0  0  0
 30 31  2  0  0  0
 30 32  1  0  0  0
 32 33  1  0  0  0
 32 34  1  0  0  0
 32 35  1  0  0  0
 10  5  1  0  0  0
 17 11  1  0  0  0
 31 25  1  0  0  0
  1  4  1  0  0  0
 15 18  1  0  0  0
 15 19  1  0  0  0
M  END
> <minimizedAffinity>
-8.38722

> <CNNscore>
0.3053927124

> <CNNaffinity>
6.6126174927

> <CNN_VS>
2.0194451809

> <CNNaffinity_variance>
0.3933416009

$$$$
[H]c1nc(N([H])[H])c(C(F)(F)F)nc1-c1c([H])nc([H])c(C(=O)N([H])[C@]([H])(c2c([H])c([H])c(F)c(C(F)(F)F)c2[H])C([H])([H])C([H])(C([H])([H])[H])C([H])([H])[H])c1[H]


 39 41  0  0  0  0  0  0  0  0999 V2000
    2.7626    3.7143   15.7866 N   0  0  0  0  0  0  0  0  0  0  0  0
    3.1449    2.3483   15.7349 C   0  0  0  0  0  0  0  0  0  0  0  0
    3.6097    1.8594   14.6505 O   0  0  0  0  0  0  0  0  0  0  0  0
    2.3846    4.0984   16.6745 H   0  0  0  0  0  0  0  0  0  0  0  0
    3.0351    1.4539   16.8701 C   0  0  0  0  0  0  0  0  0  0  0  0
    2.4788    0.1978   16.7938 C   0  0  0  0  0  0  0  0  0  0  0  0
    2.4014   -0.6096   17.8955 N   0  0  0  0  0  0  0  0  0  0  0  0
    2.8512   -0.2446   19.1018 C   0  0  0  0  0  0  0  0  0  0  0  0
    3.4202    1.0122   19.2286 C   0  0  0  0  0  0  0  0  0  0  0  0
    3.5035    1.8332   18.1272 C   0  0  0  0  0  0  0  0  0  0  0  0
    3.9091    1.4049   20.5454 C   0  0  0  0  0  0  0  0  0  0  0  0
    3.6411    0.6856   21.6777 C   0  0  0  0  0  0  0  0  0  0  0  0
    4.1275    1.1060   22.8813 N   0  0  0  0  0  0  0  0  0  0  0  0
    4.8698    2.2080   23.0231 C   0  0  0  0  0  0  0  0  0  0  0  0
    5.3724    2.6380   24.2831 N   0  0  0  0  0  0  0  0  0  0  0  0
    5.1472    2.9461   21.8751 C   0  0  0  0  0  0  0  0  0  0  0  0
    4.6628    2.5207   20.7008 N   0  0  0  0  0  0  0  0  0  0  0  0
    5.1486    3.5882   24.6466 H   0  0  0  0  0  0  0  0  0  0  0  0
    5.9759    2.0332   24.8885 H   0  0  0  0  0  0  0  0  0  0  0  0
    5.9574    4.1780   21.9205 C   0  0  0  0  0  0  0  0  0  0  0  0
    7.2525    3.9232   22.3287 F   0  0  0  0  0  0  0  0  0  0  0  0
    5.3323    5.0931   22.7631 F   0  0  0  0  0  0  0  0  0  0  0  0
    5.9755    4.7577   20.6724 F   0  0  0  0  0  0  0  0  0  0  0  0
    2.8972    4.5864   14.5921 C   0  0  0  0  0  0  0  0  0  0  0  0
    3.4317    5.8574   15.0464 C   0  0  0  0  0  0  0  0  0  0  0  0
    4.1080    5.9167   16.2478 C   0  0  0  0  0  0  0  0  0  0  0  0
    4.6303    7.0844   16.7420 C   0  0  0  0  0  0  0  0  0  0  0  0
    4.5038    8.2540   16.0611 C   0  0  0  0  0  0  0  0  0  0  0  0
    5.0081    9.4334   16.5184 F   0  0  0  0  0  0  0  0  0  0  0  0
    3.8299    8.2261   14.8518 C   0  0  0  0  0  0  0  0  0  0  0  0
    3.3117    7.0546   14.3665 C   0  0  0  0  0  0  0  0  0  0  0  0
    3.6590    9.4666   14.0636 C   0  0  0  0  0  0  0  0  0  0  0  0
    2.9731    9.1407   12.9101 F   0  0  0  0  0  0  0  0  0  0  0  0
    2.9496   10.3941   14.8201 F   0  0  0  0  0  0  0  0  0  0  0  0
    4.8703    9.9951   13.7148 F   0  0  0  0  0  0  0  0  0  0  0  0
    1.6256    4.5594   13.8484 C   0  0  0  0  0  0  0  0  0  0  0  0
    3.0609    3.9970   11.8774 C   0  0  0  0  0  0  0  0  0  0  0  0
    1.6553    4.2647   12.3958 C   0  0  0  0  0  0  0  0  0  0  0  0
    0.9589    5.1827   11.4757 C   0  0  0  0  0  0  0  0  0  0  0  0
 37 38  1  0  0  0
 38 39  1  0  0  0
 38 36  1  0  0  0
 36 24  1  0  0  0
 24  1  1  0  0  0
  1  2  1  0  0  0
  2  3  2  0  0  0
  2  5  1  0  0  0
  5  6  2  0  0  0
  6  7  1  0  0  0
  7  8  2  0  0  0
  8  9  1  0  0  0
  9 10  2  0  0  0
  9 11  1  0  0  0
 11 12  2  0  0  0
 12 13  1  0  0  0
 13 14  2  0  0  0
 14 15  1  0  0  0
 14 16  1  0  0  0
 16 17  2  0  0  0
 16 20  1  0  0  0
 20 21  1  0  0  0
 20 22  1  0  0  0
 20 23  1  0  0  0
 24 25  1  0  0  0
 25 26  2  0  0  0
 26 27  1  0  0  0
 27 28  2  0  0  0
 28 29  1  0  0  0
 28 30  1  0  0  0
 30 31  2  0  0  0
 30 32  1  0  0  0
 32 33  1  0  0  0
 32 34  1  0  0  0
 32 35  1  0  0  0
 10  5  1  0  0  0
 17 11  1  0  0  0
 31 25  1  0  0  0
  1  4  1  0  0  0
 15 18  1  0  0  0
 15 19  1  0  0  0
M  END
> <minimizedAffinity>
-8.22494

> <CNNscore>
0.2325925529

> <CNNaffinity>
6.9574866295

> <CNN_VS>
1.6182595491

> <CNNaffinity_variance>
0.2025507689

$$$$
[H]c1nc(N([H])[H])c(C(F)(F)F)nc1-c1c([H])nc([H])c(C(=O)N([H])[C@]([H])(c2c([H])c([H])c(F)c(C(F)(F)F)c2[H])C([H])([H])C([H])(C([H])([H])[H])C([H])([H])[H])c1[H]


 39 41  0  0  0  0  0  0  0  0999 V2000
    1.9549    4.6328   14.7721 N   0  0  0  0  0  0  0  0  0  0  0  0
    3.0497    3.7296   14.7947 C   0  0  0  0  0  0  0  0  0  0  0  0
    3.9579    3.8097   13.9004 O   0  0  0  0  0  0  0  0  0  0  0  0
    1.2226    4.5552   15.5046 H   0  0  0  0  0  0  0  0  0  0  0  0
    3.1999    2.6957   15.7992 C   0  0  0  0  0  0  0  0  0  0  0  0
    2.8703    1.3772   15.5845 C   0  0  0  0  0  0  0  0  0  0  0  0
    3.0339    0.4382   16.5659 N   0  0  0  0  0  0  0  0  0  0  0  0
    3.5160    0.7273   17.7804 C   0  0  0  0  0  0  0  0  0  0  0  0
    3.8623    2.0424   18.0444 C   0  0  0  0  0  0  0  0  0  0  0  0
    3.7021    2.9957   17.0647 C   0  0  0  0  0  0  0  0  0  0  0  0
    4.3875    2.3519   19.3694 C   0  0  0  0  0  0  0  0  0  0  0  0
    5.0642    1.4366   20.1281 C   0  0  0  0  0  0  0  0  0  0  0  0
    5.5308    1.7878   21.3614 N   0  0  0  0  0  0  0  0  0  0  0  0
    5.3614    3.0051   21.8857 C   0  0  0  0  0  0  0  0  0  0  0  0
    5.8520    3.3614   23.1730 N   0  0  0  0  0  0  0  0  0  0  0  0
    4.6733    3.9429   21.1196 C   0  0  0  0  0  0  0  0  0  0  0  0
    4.2213    3.5833   19.9109 N   0  0  0  0  0  0  0  0  0  0  0  0
    5.2050    3.7219   23.9056 H   0  0  0  0  0  0  0  0  0  0  0  0
    6.8620    3.2795   23.4369 H   0  0  0  0  0  0  0  0  0  0  0  0
    4.4318    5.3151   21.6041 C   0  0  0  0  0  0  0  0  0  0  0  0
    5.6065    5.9400   21.9757 F   0  0  0  0  0  0  0  0  0  0  0  0
    3.5296    5.2628   22.6630 F   0  0  0  0  0  0  0  0  0  0  0  0
    3.8168    6.0464   20.6135 F   0  0  0  0  0  0  0  0  0  0  0  0
    1.8514    5.6744   13.7186 C   0  0  0  0  0  0  0  0  0  0  0  0
    0.9345    5.1752   12.7098 C   0  0  0  0  0  0  0  0  0  0  0  0
    1.4039    4.3236   11.7307 C   0  0  0  0  0  0  0  0  0  0  0  0
    0.5965    3.8221   10.7420 C   0  0  0  0  0  0  0  0  0  0  0  0
   -0.7222    4.1457   10.6804 C   0  0  0  0  0  0  0  0  0  0  0  0
   -1.5557    3.6687    9.7150 F   0  0  0  0  0  0  0  0  0  0  0  0
   -1.2224    4.9987   11.6497 C   0  0  0  0  0  0  0  0  0  0  0  0
   -0.4079    5.4945   12.6332 C   0  0  0  0  0  0  0  0  0  0  0  0
   -2.6496    5.3887   11.6364 C   0  0  0  0  0  0  0  0  0  0  0  0
   -2.9003    6.0262   10.4373 F   0  0  0  0  0  0  0  0  0  0  0  0
   -3.4357    4.2483   11.7685 F   0  0  0  0  0  0  0  0  0  0  0  0
   -2.9294    6.2547   12.6562 F   0  0  0  0  0  0  0  0  0  0  0  0
    3.2127    6.0772   13.3246 C   0  0  0  0  0  0  0  0  0  0  0  0
    2.4618    8.4628   13.2455 C   0  0  0  0  0  0  0  0  0  0  0  0
    3.4097    7.4059   12.6972 C   0  0  0  0  0  0  0  0  0  0  0  0
    3.4440    7.4927   11.2256 C   0  0  0  0  0  0  0  0  0  0  0  0
 37 38  1  0  0  0
 38 39  1  0  0  0
 38 36  1  0  0  0
 36 24  1  0  0  0
 24  1  1  0  0  0
  1  2  1  0  0  0
  2  3  2  0  0  0
  2  5  1  0  0  0
  5  6  2  0  0  0
  6  7  1  0  0  0
  7  8  2  0  0  0
  8  9  1  0  0  0
  9 10  2  0  0  0
  9 11  1  0  0  0
 11 12  2  0  0  0
 12 13  1  0  0  0
 13 14  2  0  0  0
 14 15  1  0  0  0
 14 16  1  0  0  0
 16 17  2  0  0  0
 16 20  1  0  0  0
 20 21  1  0  0  0
 20 22  1  0  0  0
 20 23  1  0  0  0
 24 25  1  0  0  0
 25 26  2  0  0  0
 26 27  1  0  0  0
 27 28  2  0  0  0
 28 29  1  0  0  0
 28 30  1  0  0  0
 30 31  2  0  0  0
 30 32  1  0  0  0
 32 33  1  0  0  0
 32 34  1  0  0  0
 32 35  1  0  0  0
 10  5  1  0  0  0
 17 11  1  0  0  0
 31 25  1  0  0  0
  1  4  1  0  0  0
 15 18  1  0  0  0
 15 19  1  0  0  0
M  END
> <minimizedAffinity>
-8.36660

> <CNNscore>
0.2310740054

> <CNNaffinity>
6.6274995804

> <CNN_VS>
1.5314428806

> <CNNaffinity_variance>
0.7772635818

$$$$
[H]c1nc(N([H])[H])c(C(F)(F)F)nc1-c1c([H])nc([H])c(C(=O)N([H])[C@]([H])(c2c([H])c([H])c(F)c(C(F)(F)F)c2[H])C([H])([H])C([H])(C([H])([H])[H])C([H])([H])[H])c1[H]


 39 41  0  0  0  0  0  0  0  0999 V2000
    3.5356    4.8251   18.3943 N   0  0  0  0  0  0  0  0  0  0  0  0
    4.2501    4.2175   17.3288 C   0  0  0  0  0  0  0  0  0  0  0  0
    5.5098    4.3997   17.2235 O   0  0  0  0  0  0  0  0  0  0  0  0
    2.5112    4.6698   18.4669 H   0  0  0  0  0  0  0  0  0  0  0  0
    3.6167    3.3817   16.3285 C   0  0  0  0  0  0  0  0  0  0  0  0
    3.6754    2.0071   16.3423 C   0  0  0  0  0  0  0  0  0  0  0  0
    3.0572    1.2629   15.3750 N   0  0  0  0  0  0  0  0  0  0  0  0
    2.3653    1.8058   14.3664 C   0  0  0  0  0  0  0  0  0  0  0  0
    2.2778    3.1872   14.3096 C   0  0  0  0  0  0  0  0  0  0  0  0
    2.8957    3.9462   15.2773 C   0  0  0  0  0  0  0  0  0  0  0  0
    1.5223    3.7737   13.2085 C   0  0  0  0  0  0  0  0  0  0  0  0
    1.4683    3.2063   11.9649 C   0  0  0  0  0  0  0  0  0  0  0  0
    0.7437    3.8047   10.9755 N   0  0  0  0  0  0  0  0  0  0  0  0
    0.0657    4.9422   11.1542 C   0  0  0  0  0  0  0  0  0  0  0  0
   -0.6871    5.5583   10.1157 N   0  0  0  0  0  0  0  0  0  0  0  0
    0.1156    5.5263   12.4175 C   0  0  0  0  0  0  0  0  0  0  0  0
    0.8311    4.9271   13.3787 N   0  0  0  0  0  0  0  0  0  0  0  0
   -0.4903    6.5404    9.8296 H   0  0  0  0  0  0  0  0  0  0  0  0
   -1.4553    5.0644    9.6035 H   0  0  0  0  0  0  0  0  0  0  0  0
   -0.5968    6.7818   12.7216 C   0  0  0  0  0  0  0  0  0  0  0  0
   -1.9558    6.6641   12.5026 F   0  0  0  0  0  0  0  0  0  0  0  0
   -0.0473    7.8046   11.9534 F   0  0  0  0  0  0  0  0  0  0  0  0
   -0.3720    7.1268   14.0348 F   0  0  0  0  0  0  0  0  0  0  0  0
    4.2360    5.6725   19.3926 C   0  0  0  0  0  0  0  0  0  0  0  0
    4.3834    4.8804   20.6003 C   0  0  0  0  0  0  0  0  0  0  0  0
    4.0486    5.4353   21.8186 C   0  0  0  0  0  0  0  0  0  0  0  0
    4.1717    4.7486   22.9993 C   0  0  0  0  0  0  0  0  0  0  0  0
    4.6360    3.4713   23.0238 C   0  0  0  0  0  0  0  0  0  0  0  0
    4.7726    2.7568   24.1750 F   0  0  0  0  0  0  0  0  0  0  0  0
    4.9803    2.8875   21.8164 C   0  0  0  0  0  0  0  0  0  0  0  0
    4.8537    3.5816   20.6422 C   0  0  0  0  0  0  0  0  0  0  0  0
    5.4922    1.4998   21.7773 C   0  0  0  0  0  0  0  0  0  0  0  0
    4.5098    0.6746   22.2886 F   0  0  0  0  0  0  0  0  0  0  0  0
    5.7928    1.1610   20.4617 F   0  0  0  0  0  0  0  0  0  0  0  0
    6.6135    1.3703   22.5480 F   0  0  0  0  0  0  0  0  0  0  0  0
    3.5529    6.9762   19.4601 C   0  0  0  0  0  0  0  0  0  0  0  0
    5.1679    8.5567   20.5348 C   0  0  0  0  0  0  0  0  0  0  0  0
    4.3560    8.2113   19.2947 C   0  0  0  0  0  0  0  0  0  0  0  0
    3.6870    9.4253   18.7919 C   0  0  0  0  0  0  0  0  0  0  0  0
 37 38  1  0  0  0
 38 39  1  0  0  0
 38 36  1  0  0  0
 36 24  1  0  0  0
 24  1  1  0  0  0
  1  2  1  0  0  0
  2  3  2  0  0  0
  2  5  1  0  0  0
  5  6  2  0  0  0
  6  7  1  0  0  0
  7  8  2  0  0  0
  8  9  1  0  0  0
  9 10  2  0  0  0
  9 11  1  0  0  0
 11 12  2  0  0  0
 12 13  1  0  0  0
 13 14  2  0  0  0
 14 15  1  0  0  0
 14 16  1  0  0  0
 16 17  2  0  0  0
 16 20  1  0  0  0
 20 21  1  0  0  0
 20 22  1  0  0  0
 20 23  1  0  0  0
 24 25  1  0  0  0
 25 26  2  0  0  0
 26 27  1  0  0  0
 27 28  2  0  0  0
 28 29  1  0  0  0
 28 30  1  0  0  0
 30 31  2  0  0  0
 30 32  1  0  0  0
 32 33  1  0  0  0
 32 34  1  0  0  0
 32 35  1  0  0  0
 10  5  1  0  0  0
 17 11  1  0  0  0
 31 25  1  0  0  0
  1  4  1  0  0  0
 15 18  1  0  0  0
 15 19  1  0  0  0
M  END
> <minimizedAffinity>
-8.87340

> <CNNscore>
0.1576609761

> <CNNaffinity>
6.6777930260

> <CNN_VS>
1.0528273582

> <CNNaffinity_variance>
0.4031655192

$$$$
[H]c1nc(C(F)(F)F)c([H])c(-c2c([H])c([H])c3c(nc(C4([H])C([H])([H])C([H])([H])N(C(=O)[C@@]([H])(N([H])C(=O)C(C([H])([H])[H])(C([H])([H])[H])C([H])([H])[H])C([H])([H])C([H])(C([H])([H])[H])C([H])([H])[H])C([H])([H])C4([H])[H])n3[H])c2[H])c1[H]


 41 44  0  0  0  0  0  0  0  0999 V2000
    1.3625    3.8997    9.8590 C   0  0  0  0  0  0  0  0  0  0  0  0
    1.7538    5.0709    9.5874 O   0  0  0  0  0  0  0  0  0  0  0  0
    1.4498    3.4262   11.1752 N   0  0  0  0  0  0  0  0  0  0  0  0
    1.0280    2.0858   11.4946 C   0  0  0  0  0  0  0  0  0  0  0  0
    1.1771    1.9395   13.0229 C   0  0  0  0  0  0  0  0  0  0  0  0
    2.6364    2.1580   13.3029 C   0  0  0  0  0  0  0  0  0  0  0  0
    3.0769    3.5740   12.9389 C   0  0  0  0  0  0  0  0  0  0  0  0
    1.9282    4.2641   12.2677 C   0  0  0  0  0  0  0  0  0  0  0  0
    2.8992    1.9329   14.7286 C   0  0  0  0  0  0  0  0  0  0  0  0
    3.6636    2.7001   15.5119 N   0  0  0  0  0  0  0  0  0  0  0  0
    3.6449    2.0928   16.7315 C   0  0  0  0  0  0  0  0  0  0  0  0
    4.2676    2.4446   17.9089 C   0  0  0  0  0  0  0  0  0  0  0  0
    4.1320    1.6821   19.0462 C   0  0  0  0  0  0  0  0  0  0  0  0
    3.3427    0.5491   18.9472 C   0  0  0  0  0  0  0  0  0  0  0  0
    2.7110    0.1777   17.7859 C   0  0  0  0  0  0  0  0  0  0  0  0
    2.8655    0.9621   16.6623 C   0  0  0  0  0  0  0  0  0  0  0  0
    2.4097    0.8779   15.4164 N   0  0  0  0  0  0  0  0  0  0  0  0
    1.7869    0.1340   15.0322 H   0  0  0  0  0  0  0  0  0  0  0  0
    4.7706    2.0369   20.3243 C   0  0  0  0  0  0  0  0  0  0  0  0
    5.8113    1.3312   20.8355 C   0  0  0  0  0  0  0  0  0  0  0  0
    6.3625    1.6927   22.0640 C   0  0  0  0  0  0  0  0  0  0  0  0
    5.8585    2.7438   22.7402 N   0  0  0  0  0  0  0  0  0  0  0  0
    4.8286    3.4543   22.2496 C   0  0  0  0  0  0  0  0  0  0  0  0
    4.2627    3.1074   21.0182 C   0  0  0  0  0  0  0  0  0  0  0  0
    4.2869    4.5878   23.0167 C   0  0  0  0  0  0  0  0  0  0  0  0
    5.2972    5.5106   23.2146 F   0  0  0  0  0  0  0  0  0  0  0  0
    3.2774    5.2087   22.2645 F   0  0  0  0  0  0  0  0  0  0  0  0
    3.7658    4.1516   24.2153 F   0  0  0  0  0  0  0  0  0  0  0  0
    0.7970    3.0217    8.7608 C   0  0  0  0  0  0  0  0  0  0  0  0
   -0.6071    3.3839    8.7370 N   0  0  0  0  0  0  0  0  0  0  0  0
   -1.5816    2.3698    8.8421 C   0  0  0  0  0  0  0  0  0  0  0  0
   -1.1615    1.1629    8.9350 O   0  0  0  0  0  0  0  0  0  0  0  0
   -0.9104    4.3808    8.6415 H   0  0  0  0  0  0  0  0  0  0  0  0
   -3.0253    2.5801    8.8587 C   0  0  0  0  0  0  0  0  0  0  0  0
   -3.5711    2.9673    7.4964 C   0  0  0  0  0  0  0  0  0  0  0  0
   -3.7392    1.2570    9.1932 C   0  0  0  0  0  0  0  0  0  0  0  0
   -3.4314    3.5676    9.8920 C   0  0  0  0  0  0  0  0  0  0  0  0
    1.5343    3.1471    7.4986 C   0  0  0  0  0  0  0  0  0  0  0  0
    3.3314    2.2278    6.0093 C   0  0  0  0  0  0  0  0  0  0  0  0
    2.1372    1.9480    6.8848 C   0  0  0  0  0  0  0  0  0  0  0  0
    2.5240    0.9222    7.9077 C   0  0  0  0  0  0  0  0  0  0  0  0
 39 40  1  0  0  0
 40 41  1  0  0  0
 40 38  1  0  0  0
 38 29  1  0  0  0
 29 30  1  0  0  0
 30 31  1  0  0  0
 31 32  2  0  0  0
 31 34  1  0  0  0
 34 35  1  0  0  0
 34 36  1  0  0  0
 34 37  1  0  0  0
 29  1  1  0  0  0
  1  2  2  0  0  0
  1  3  1  0  0  0
  3  4  1  0  0  0
  4  5  1  0  0  0
  5  6  1  0  0  0
  6  7  1  0  0  0
  7  8  1  0  0  0
  6  9  1  0  0  0
  9 10  2  0  0  0
 10 11  1  0  0  0
 11 12  2  0  0  0
 12 13  1  0  0  0
 13 14  2  0  0  0
 14 15  1  0  0  0
 15 16  2  0  0  0
 16 17  1  0  0  0
 13 19  1  0  0  0
 19 20  2  0  0  0
 20 21  1  0  0  0
 21 22  2  0  0  0
 22 23  1  0  0  0
 23 24  2  0  0  0
 23 25  1  0  0  0
 25 26  1  0  0  0
 25 27  1  0  0  0
 25 28  1  0  0  0
  8  3  1  0  0  0
 17  9  1  0  0  0
 24 19  1  0  0  0
 16 11  1  0  0  0
 30 33  1  0  0  0
 17 18  1  0  0  0
M  END
> <minimizedAffinity>
-8.38888

> <CNNscore>
0.4370449185

> <CNNaffinity>
7.0478105545

> <CNN_VS>
3.0802097321

> <CNNaffinity_variance>
0.4021397233

$$$$
[H]c1nc(C(F)(F)F)c([H])c(-c2c([H])c([H])c3c(nc(C4([H])C([H])([H])C([H])([H])N(C(=O)[C@@]([H])(N([H])C(=O)C(C([H])([H])[H])(C([H])([H])[H])C([H])([H])[H])C([H])([H])C([H])(C([H])([H])[H])C([H])([H])[H])C([H])([H])C4([H])[H])n3[H])c2[H])c1[H]


 41 44  0  0  0  0  0  0  0  0999 V2000
    1.5577    4.1969    9.9330 C   0  0  0  0  0  0  0  0  0  0  0  0
    2.1054    5.3027    9.6578 O   0  0  0  0  0  0  0  0  0  0  0  0
    1.6013    3.7083   11.2458 N   0  0  0  0  0  0  0  0  0  0  0  0
    1.0004    2.4390   11.5689 C   0  0  0  0  0  0  0  0  0  0  0  0
    1.1552    2.2642   13.0937 C   0  0  0  0  0  0  0  0  0  0  0  0
    2.6355    2.2732   13.3468 C   0  0  0  0  0  0  0  0  0  0  0  0
    3.2647    3.6150   12.9791 C   0  0  0  0  0  0  0  0  0  0  0  0
    2.2129    4.4640   12.3318 C   0  0  0  0  0  0  0  0  0  0  0  0
    2.8898    2.0050   14.7667 C   0  0  0  0  0  0  0  0  0  0  0  0
    3.5986    2.7808   15.5926 N   0  0  0  0  0  0  0  0  0  0  0  0
    3.5963    2.1243   16.7865 C   0  0  0  0  0  0  0  0  0  0  0  0
    4.1812    2.4618   17.9873 C   0  0  0  0  0  0  0  0  0  0  0  0
    4.0719    1.6472   19.0909 C   0  0  0  0  0  0  0  0  0  0  0  0
    3.3488    0.4772   18.9336 C   0  0  0  0  0  0  0  0  0  0  0  0
    2.7559    0.1191   17.7479 C   0  0  0  0  0  0  0  0  0  0  0  0
    2.8825    0.9560   16.6593 C   0  0  0  0  0  0  0  0  0  0  0  0
    2.4502    0.8975   15.4036 N   0  0  0  0  0  0  0  0  0  0  0  0
    1.8757    0.1365   14.9796 H   0  0  0  0  0  0  0  0  0  0  0  0
    4.6711    1.9845   20.3926 C   0  0  0  0  0  0  0  0  0  0  0  0
    5.6342    1.2201   20.9674 C   0  0  0  0  0  0  0  0  0  0  0  0
    6.1492    1.5690   22.2152 C   0  0  0  0  0  0  0  0  0  0  0  0
    5.6874    2.6663   22.8466 N   0  0  0  0  0  0  0  0  0  0  0  0
    4.7342    3.4351   22.2928 C   0  0  0  0  0  0  0  0  0  0  0  0
    4.2059    3.1018   21.0412 C   0  0  0  0  0  0  0  0  0  0  0  0
    4.2362    4.6192   23.0116 C   0  0  0  0  0  0  0  0  0  0  0  0
    3.2723    5.2348   22.2347 F   0  0  0  0  0  0  0  0  0  0  0  0
    3.6271    4.2063   24.2069 F   0  0  0  0  0  0  0  0  0  0  0  0
    5.2738    5.4798   23.2968 F   0  0  0  0  0  0  0  0  0  0  0  0
    0.8541    3.4137    8.8429 C   0  0  0  0  0  0  0  0  0  0  0  0
    1.4876    2.1108    8.9097 N   0  0  0  0  0  0  0  0  0  0  0  0
    2.6306    1.8598    8.1224 C   0  0  0  0  0  0  0  0  0  0  0  0
    3.0390    2.8096    7.3656 O   0  0  0  0  0  0  0  0  0  0  0  0
    1.1124    1.3543    9.5276 H   0  0  0  0  0  0  0  0  0  0  0  0
    3.3883    0.6131    8.1015 C   0  0  0  0  0  0  0  0  0  0  0  0
    3.3212   -0.1291    9.4237 C   0  0  0  0  0  0  0  0  0  0  0  0
    2.7599   -0.3596    7.0861 C   0  0  0  0  0  0  0  0  0  0  0  0
    4.7985    0.8266    7.6851 C   0  0  0  0  0  0  0  0  0  0  0  0
   -0.6067    3.4468    8.9738 C   0  0  0  0  0  0  0  0  0  0  0  0
   -2.2789    5.2083    8.3462 C   0  0  0  0  0  0  0  0  0  0  0  0
   -1.2759    4.7066    9.3527 C   0  0  0  0  0  0  0  0  0  0  0  0
   -1.9471    4.6109   10.6900 C   0  0  0  0  0  0  0  0  0  0  0  0
 39 40  1  0  0  0
 40 41  1  0  0  0
 40 38  1  0  0  0
 38 29  1  0  0  0
 29 30  1  0  0  0
 30 31  1  0  0  0
 31 32  2  0  0  0
 31 34  1  0  0  0
 34 35  1  0  0  0
 34 36  1  0  0  0
 34 37  1  0  0  0
 29  1  1  0  0  0
  1  2  2  0  0  0
  1  3  1  0  0  0
  3  4  1  0  0  0
  4  5  1  0  0  0
  5  6  1  0  0  0
  6  7  1  0  0  0
  7  8  1  0  0  0
  6  9  1  0  0  0
  9 10  2  0  0  0
 10 11  1  0  0  0
 11 12  2  0  0  0
 12 13  1  0  0  0
 13 14  2  0  0  0
 14 15  1  0  0  0
 15 16  2  0  0  0
 16 17  1  0  0  0
 13 19  1  0  0  0
 19 20  2  0  0  0
 20 21  1  0  0  0
 21 22  2  0  0  0
 22 23  1  0  0  0
 23 24  2  0  0  0
 23 25  1  0  0  0
 25 26  1  0  0  0
 25 27  1  0  0  0
 25 28  1  0  0  0
  8  3  1  0  0  0
 17  9  1  0  0  0
 24 19  1  0  0  0
 16 11  1  0  0  0
 30 33  1  0  0  0
 17 18  1  0  0  0
M  END
> <minimizedAffinity>
-8.44995

> <CNNscore>
0.3571941555

> <CNNaffinity>
6.9634437561

> <CNN_VS>
2.4873013496

> <CNNaffinity_variance>
0.1969811618

$$$$
[H]c1nc(C(F)(F)F)c([H])c(-c2c([H])c([H])c3c(nc(C4([H])C([H])([H])C([H])([H])N(C(=O)[C@@]([H])(N([H])C(=O)C(C([H])([H])[H])(C([H])([H])[H])C([H])([H])[H])C([H])([H])C([H])(C([H])([H])[H])C([H])([H])[H])C([H])([H])C4([H])[H])n3[H])c2[H])c1[H]


 41 44  0  0  0  0  0  0  0  0999 V2000
    1.8872    4.8298    9.3840 C   0  0  0  0  0  0  0  0  0  0  0  0
    2.4795    5.8463    8.9207 O   0  0  0  0  0  0  0  0  0  0  0  0
    2.0240    4.5047   10.7404 N   0  0  0  0  0  0  0  0  0  0  0  0
    1.3725    3.3367   11.2768 C   0  0  0  0  0  0  0  0  0  0  0  0
    1.6614    3.3393   12.7921 C   0  0  0  0  0  0  0  0  0  0  0  0
    3.1565    3.2616   12.9120 C   0  0  0  0  0  0  0  0  0  0  0  0
    3.8368    4.4937   12.3195 C   0  0  0  0  0  0  0  0  0  0  0  0
    2.7874    5.3374   11.6615 C   0  0  0  0  0  0  0  0  0  0  0  0
    3.5278    3.1511   14.3270 C   0  0  0  0  0  0  0  0  0  0  0  0
    3.0696    2.2340   15.1847 N   0  0  0  0  0  0  0  0  0  0  0  0
    3.6545    2.5387   16.3769 C   0  0  0  0  0  0  0  0  0  0  0  0
    3.5330    1.9310   17.6073 C   0  0  0  0  0  0  0  0  0  0  0  0
    4.2077    2.4041   18.7093 C   0  0  0  0  0  0  0  0  0  0  0  0
    5.0099    3.5163   18.5196 C   0  0  0  0  0  0  0  0  0  0  0  0
    5.1483    4.1391   17.3037 C   0  0  0  0  0  0  0  0  0  0  0  0
    4.4597    3.6418   16.2173 C   0  0  0  0  0  0  0  0  0  0  0  0
    4.3718    4.0080   14.9425 N   0  0  0  0  0  0  0  0  0  0  0  0
    4.8625    4.8113   14.4921 H   0  0  0  0  0  0  0  0  0  0  0  0
    4.1126    1.7702   20.0345 C   0  0  0  0  0  0  0  0  0  0  0  0
    3.5699    0.5388   20.2121 C   0  0  0  0  0  0  0  0  0  0  0  0
    3.4787   -0.0050   21.4926 C   0  0  0  0  0  0  0  0  0  0  0  0
    3.9309    0.6959   22.5510 N   0  0  0  0  0  0  0  0  0  0  0  0
    4.4715    1.9163   22.3944 C   0  0  0  0  0  0  0  0  0  0  0  0
    4.5725    2.4783   21.1173 C   0  0  0  0  0  0  0  0  0  0  0  0
    4.9429    2.6671   23.5695 C   0  0  0  0  0  0  0  0  0  0  0  0
    3.9699    3.5810   23.9296 F   0  0  0  0  0  0  0  0  0  0  0  0
    5.1165    1.7777   24.6414 F   0  0  0  0  0  0  0  0  0  0  0  0
    6.1388    3.2927   23.2919 F   0  0  0  0  0  0  0  0  0  0  0  0
    1.0303    3.9768    8.4704 C   0  0  0  0  0  0  0  0  0  0  0  0
    0.1026    4.9333    7.8979 N   0  0  0  0  0  0  0  0  0  0  0  0
   -1.2138    5.0007    8.3998 C   0  0  0  0  0  0  0  0  0  0  0  0
   -1.5245    4.1843    9.3370 O   0  0  0  0  0  0  0  0  0  0  0  0
    0.3898    5.5715    7.1200 H   0  0  0  0  0  0  0  0  0  0  0  0
   -2.2480    5.9241    7.9450 C   0  0  0  0  0  0  0  0  0  0  0  0
   -3.0080    5.3973    6.7414 C   0  0  0  0  0  0  0  0  0  0  0  0
   -3.3231    6.0786    9.0370 C   0  0  0  0  0  0  0  0  0  0  0  0
   -1.7031    7.2799    7.6753 C   0  0  0  0  0  0  0  0  0  0  0  0
    1.8247    3.1803    7.5286 C   0  0  0  0  0  0  0  0  0  0  0  0
    3.0614    1.2472    8.5417 C   0  0  0  0  0  0  0  0  0  0  0  0
    1.9039    1.7163    7.6986 C   0  0  0  0  0  0  0  0  0  0  0  0
    0.6384    1.1427    8.2620 C   0  0  0  0  0  0  0  0  0  0  0  0
 39 40  1  0  0  0
 40 41  1  0  0  0
 40 38  1  0  0  0
 38 29  1  0  0  0
 29 30  1  0  0  0
 30 31  1  0  0  0
 31 32  2  0  0  0
 31 34  1  0  0  0
 34 35  1  0  0  0
 34 36  1  0  0  0
 34 37  1  0  0  0
 29  1  1  0  0  0
  1  2  2  0  0  0
  1  3  1  0  0  0
  3  4  1  0  0  0
  4  5  1  0  0  0
  5  6  1  0  0  0
  6  7  1  0  0  0
  7  8  1  0  0  0
  6  9  1  0  0  0
  9 10  2  0  0  0
 10 11  1  0  0  0
 11 12  2  0  0  0
 12 13  1  0  0  0
 13 14  2  0  0  0
 14 15  1  0  0  0
 15 16  2  0  0  0
 16 17  1  0  0  0
 13 19  1  0  0  0
 19 20  2  0  0  0
 20 21  1  0  0  0
 21 22  2  0  0  0
 22 23  1  0  0  0
 23 24  2  0  0  0
 23 25  1  0  0  0
 25 26  1  0  0  0
 25 27  1  0  0  0
 25 28  1  0  0  0
  8  3  1  0  0  0
 17  9  1  0  0  0
 24 19  1  0  0  0
 16 11  1  0  0  0
 30 33  1  0  0  0
 17 18  1  0  0  0
M  END
> <minimizedAffinity>
-7.67979

> <CNNscore>
0.3441908360

> <CNNaffinity>
6.8688788414

> <CNN_VS>
2.3642051220

> <CNNaffinity_variance>
0.5156959295

$$$$
[H]c1nc(C(F)(F)F)c([H])c(-c2c([H])c([H])c3c(nc(C4([H])C([H])([H])C([H])([H])N(C(=O)[C@@]([H])(N([H])C(=O)C(C([H])([H])[H])(C([H])([H])[H])C([H])([H])[H])C([H])([H])C([H])(C([H])([H])[H])C([H])([H])[H])C([H])([H])C4([H])[H])n3[H])c2[H])c1[H]


 41 44  0  0  0  0  0  0  0  0999 V2000
    1.1131    4.9273    8.9205 C   0  0  0  0  0  0  0  0  0  0  0  0
    1.7731    5.9038    8.4628 O   0  0  0  0  0  0  0  0  0  0  0  0
    1.2795    4.5427   10.2579 N   0  0  0  0  0  0  0  0  0  0  0  0
    0.5501    3.4178   10.7864 C   0  0  0  0  0  0  0  0  0  0  0  0
    0.9041    3.3404   12.2858 C   0  0  0  0  0  0  0  0  0  0  0  0
    2.3901    3.1273   12.3331 C   0  0  0  0  0  0  0  0  0  0  0  0
    3.1513    4.3153   11.7494 C   0  0  0  0  0  0  0  0  0  0  0  0
    2.1538    5.2713   11.1685 C   0  0  0  0  0  0  0  0  0  0  0  0
    2.8115    2.9335   13.7250 C   0  0  0  0  0  0  0  0  0  0  0  0
    3.3132    3.8777   14.5271 N   0  0  0  0  0  0  0  0  0  0  0  0
    3.5902    3.2388   15.6983 C   0  0  0  0  0  0  0  0  0  0  0  0
    4.1306    3.7240   16.8689 C   0  0  0  0  0  0  0  0  0  0  0  0
    4.3466    2.9032   17.9520 C   0  0  0  0  0  0  0  0  0  0  0  0
    3.9955    1.5721   17.8058 C   0  0  0  0  0  0  0  0  0  0  0  0
    3.4546    1.0646   16.6501 C   0  0  0  0  0  0  0  0  0  0  0  0
    3.2496    1.9118   15.5815 C   0  0  0  0  0  0  0  0  0  0  0  0
    2.7674    1.7390   14.3548 N   0  0  0  0  0  0  0  0  0  0  0  0
    2.4174    0.8452   13.9456 H   0  0  0  0  0  0  0  0  0  0  0  0
    4.9078    3.3914   19.2223 C   0  0  0  0  0  0  0  0  0  0  0  0
    5.2759    4.6853   19.4028 C   0  0  0  0  0  0  0  0  0  0  0  0
    5.8282    5.0904   20.6171 C   0  0  0  0  0  0  0  0  0  0  0  0
    5.9946    4.1934   21.6089 N   0  0  0  0  0  0  0  0  0  0  0  0
    5.6358    2.9081   21.4485 C   0  0  0  0  0  0  0  0  0  0  0  0
    5.0791    2.4829   20.2376 C   0  0  0  0  0  0  0  0  0  0  0  0
    5.8436    1.9456   22.5426 C   0  0  0  0  0  0  0  0  0  0  0  0
    6.9204    1.1392   22.2233 F   0  0  0  0  0  0  0  0  0  0  0  0
    6.1637    2.6476   23.7151 F   0  0  0  0  0  0  0  0  0  0  0  0
    4.7037    1.1996   22.7491 F   0  0  0  0  0  0  0  0  0  0  0  0
    0.1442    4.1863    8.0210 C   0  0  0  0  0  0  0  0  0  0  0  0
   -0.8941    5.1680    7.7728 N   0  0  0  0  0  0  0  0  0  0  0  0
   -2.1923    4.9387    8.2741 C   0  0  0  0  0  0  0  0  0  0  0  0
   -2.3868    3.8466    8.9154 O   0  0  0  0  0  0  0  0  0  0  0  0
   -0.6996    6.0402    7.2283 H   0  0  0  0  0  0  0  0  0  0  0  0
   -3.3291    5.8417    8.1279 C   0  0  0  0  0  0  0  0  0  0  0  0
   -4.0263    6.1155    9.4480 C   0  0  0  0  0  0  0  0  0  0  0  0
   -2.8371    7.2250    7.6626 C   0  0  0  0  0  0  0  0  0  0  0  0
   -4.2960    5.3576    7.1088 C   0  0  0  0  0  0  0  0  0  0  0  0
    0.7969    3.6016    6.8444 C   0  0  0  0  0  0  0  0  0  0  0  0
    0.8532    2.0224    4.8962 C   0  0  0  0  0  0  0  0  0  0  0  0
    0.0281    2.7135    5.9508 C   0  0  0  0  0  0  0  0  0  0  0  0
   -0.7433    1.6762    6.7105 C   0  0  0  0  0  0  0  0  0  0  0  0
 39 40  1  0  0  0
 40 41  1  0  0  0
 40 38  1  0  0  0
 38 29  1  0  0  0
 29 30  1  0  0  0
 30 31  1  0  0  0
 31 32  2  0  0  0
 31 34  1  0  0  0
 34 35  1  0  0  0
 34 36  1  0  0  0
 34 37  1  0  0  0
 29  1  1  0  0  0
  1  2  2  0  0  0
  1  3  1  0  0  0
  3  4  1  0  0  0
  4  5  1  0  0  0
  5  6  1  0  0  0
  6  7  1  0  0  0
  7  8  1  0  0  0
  6  9  1  0  0  0
  9 10  2  0  0  0
 10 11  1  0  0  0
 11 12  2  0  0  0
 12 13  1  0  0  0
 13 14  2  0  0  0
 14 15  1  0  0  0
 15 16  2  0  0  0
 16 17  1  0  0  0
 13 19  1  0  0  0
 19 20  2  0  0  0
 20 21  1  0  0  0
 21 22  2  0  0  0
 22 23  1  0  0  0
 23 24  2  0  0  0
 23 25  1  0  0  0
 25 26  1  0  0  0
 25 27  1  0  0  0
 25 28  1  0  0  0
  8  3  1  0  0  0
 17  9  1  0  0  0
 24 19  1  0  0  0
 16 11  1  0  0  0
 30 33  1  0  0  0
 17 18  1  0  0  0
M  END
> <minimizedAffinity>
-7.27959

> <CNNscore>
0.2380432487

> <CNNaffinity>
6.4763898849

> <CNN_VS>
1.5416609049

> <CNNaffinity_variance>
0.5284444690

$$$$
[H]c1nc(C(F)(F)F)c([H])c(-c2c([H])c([H])c3c(nc(C4([H])C([H])([H])C([H])([H])N(C(=O)[C@@]([H])(N([H])C(=O)C(C([H])([H])[H])(C([H])([H])[H])C([H])([H])[H])C([H])([H])C([H])(C([H])([H])[H])C([H])([H])[H])C([H])([H])C4([H])[H])n3[H])c2[H])c1[H]


 41 44  0  0  0  0  0  0  0  0999 V2000
    2.5094    7.4849    9.9899 C   0  0  0  0  0  0  0  0  0  0  0  0
    2.0467    8.6006   10.3640 O   0  0  0  0  0  0  0  0  0  0  0  0
    2.5119    6.4012   10.8786 N   0  0  0  0  0  0  0  0  0  0  0  0
    3.0563    5.1302   10.4728 C   0  0  0  0  0  0  0  0  0  0  0  0
    2.8146    4.1621   11.6492 C   0  0  0  0  0  0  0  0  0  0  0  0
    3.5593    4.7545   12.8112 C   0  0  0  0  0  0  0  0  0  0  0  0
    2.9883    6.1113   13.2171 C   0  0  0  0  0  0  0  0  0  0  0  0
    1.9416    6.4976   12.2165 C   0  0  0  0  0  0  0  0  0  0  0  0
    3.4772    3.8444   13.9590 C   0  0  0  0  0  0  0  0  0  0  0  0
    3.9271    4.1000   15.1913 N   0  0  0  0  0  0  0  0  0  0  0  0
    3.6698    2.9685   15.9055 C   0  0  0  0  0  0  0  0  0  0  0  0
    3.9310    2.6721   17.2252 C   0  0  0  0  0  0  0  0  0  0  0  0
    3.5997    1.4499   17.7637 C   0  0  0  0  0  0  0  0  0  0  0  0
    2.9945    0.5381   16.9159 C   0  0  0  0  0  0  0  0  0  0  0  0
    2.7228    0.8098   15.5975 C   0  0  0  0  0  0  0  0  0  0  0  0
    3.0663    2.0436   15.0863 C   0  0  0  0  0  0  0  0  0  0  0  0
    2.9525    2.6015   13.8851 N   0  0  0  0  0  0  0  0  0  0  0  0
    2.5353    2.1641   13.0345 H   0  0  0  0  0  0  0  0  0  0  0  0
    3.8504    1.1058   19.1729 C   0  0  0  0  0  0  0  0  0  0  0  0
    3.1052    0.1872   19.8387 C   0  0  0  0  0  0  0  0  0  0  0  0
    3.3666   -0.0822   21.1814 C   0  0  0  0  0  0  0  0  0  0  0  0
    4.3604    0.5722   21.8139 N   0  0  0  0  0  0  0  0  0  0  0  0
    5.1088    1.4848   21.1709 C   0  0  0  0  0  0  0  0  0  0  0  0
    4.8622    1.7680   19.8233 C   0  0  0  0  0  0  0  0  0  0  0  0
    6.1776    2.1968   21.8902 C   0  0  0  0  0  0  0  0  0  0  0  0
    5.9163    2.1327   23.2464 F   0  0  0  0  0  0  0  0  0  0  0  0
    7.3991    1.5464   21.6555 F   0  0  0  0  0  0  0  0  0  0  0  0
    6.2605    3.5024   21.4577 F   0  0  0  0  0  0  0  0  0  0  0  0
    3.0507    7.3283    8.5830 C   0  0  0  0  0  0  0  0  0  0  0  0
    2.0944    8.0622    7.7767 N   0  0  0  0  0  0  0  0  0  0  0  0
    1.4917    7.4242    6.6726 C   0  0  0  0  0  0  0  0  0  0  0  0
    1.8452    6.2167    6.4308 O   0  0  0  0  0  0  0  0  0  0  0  0
    1.8452    9.0545    7.9964 H   0  0  0  0  0  0  0  0  0  0  0  0
    0.4974    8.0216    5.7875 C   0  0  0  0  0  0  0  0  0  0  0  0
   -0.1059    7.0126    4.8275 C   0  0  0  0  0  0  0  0  0  0  0  0
   -0.7004    8.5234    6.6154 C   0  0  0  0  0  0  0  0  0  0  0  0
    1.0402    9.1931    5.0522 C   0  0  0  0  0  0  0  0  0  0  0  0
    4.4575    7.7284    8.4691 C   0  0  0  0  0  0  0  0  0  0  0  0
    5.3612    9.8128    7.4054 C   0  0  0  0  0  0  0  0  0  0  0  0
    4.9321    8.3787    7.2321 C   0  0  0  0  0  0  0  0  0  0  0  0
    6.0523    7.6190    6.5872 C   0  0  0  0  0  0  0  0  0  0  0  0
 39 40  1  0  0  0
 40 41  1  0  0  0
 40 38  1  0  0  0
 38 29  1  0  0  0
 29 30  1  0  0  0
 30 31  1  0  0  0
 31 32  2  0  0  0
 31 34  1  0  0  0
 34 35  1  0  0  0
 34 36  1  0  0  0
 34 37  1  0  0  0
 29  1  1  0  0  0
  1  2  2  0  0  0
  1  3  1  0  0  0
  3  4  1  0  0  0
  4  5  1  0  0  0
  5  6  1  0  0  0
  6  7  1  0  0  0
  7  8  1  0  0  0
  6  9  1  0  0  0
  9 10  2  0  0  0
 10 11  1  0  0  0
 11 12  2  0  0  0
 12 13  1  0  0  0
 13 14  2  0  0  0
 14 15  1  0  0  0
 15 16  2  0  0  0
 16 17  1  0  0  0
 13 19  1  0  0  0
 19 20  2  0  0  0
 20 21  1  0  0  0
 21 22  2  0  0  0
 22 23  1  0  0  0
 23 24  2  0  0  0
 23 25  1  0  0  0
 25 26  1  0  0  0
 25 27  1  0  0  0
 25 28  1  0  0  0
  8  3  1  0  0  0
 17  9  1  0  0  0
 24 19  1  0  0  0
 16 11  1  0  0  0
 30 33  1  0  0  0
 17 18  1  0  0  0
M  END
> <minimizedAffinity>
-8.62824

> <CNNscore>
0.2247364670

> <CNNaffinity>
6.3018102646

> <CNN_VS>
1.4162465334

> <CNNaffinity_variance>
0.2043441087

$$$$
[H]c1nc(C(F)(F)F)c([H])c(-c2c([H])c([H])c3c(nc(C4([H])C([H])([H])C([H])([H])N(C(=O)[C@@]([H])(N([H])C(=O)C(C([H])([H])[H])(C([H])([H])[H])C([H])([H])[H])C([H])([H])C([H])(C([H])([H])[H])C([H])([H])[H])C([H])([H])C4([H])[H])n3[H])c2[H])c1[H]


 41 44  0  0  0  0  0  0  0  0999 V2000
    4.9700    5.9769   21.0622 C   0  0  0  0  0  0  0  0  0  0  0  0
    4.5160    7.1406   21.2579 O   0  0  0  0  0  0  0  0  0  0  0  0
    4.8617    5.3940   19.7922 N   0  0  0  0  0  0  0  0  0  0  0  0
    5.3550    4.0599   19.5609 C   0  0  0  0  0  0  0  0  0  0  0  0
    5.1561    3.7815   18.0567 C   0  0  0  0  0  0  0  0  0  0  0  0
    3.6761    3.8885   17.8247 C   0  0  0  0  0  0  0  0  0  0  0  0
    3.1612    5.3003   18.0954 C   0  0  0  0  0  0  0  0  0  0  0  0
    4.2890    6.1103   18.6594 C   0  0  0  0  0  0  0  0  0  0  0  0
    3.3729    3.5332   16.4339 C   0  0  0  0  0  0  0  0  0  0  0  0
    3.9797    4.0300   15.3515 N   0  0  0  0  0  0  0  0  0  0  0  0
    3.3527    3.4450   14.2927 C   0  0  0  0  0  0  0  0  0  0  0  0
    3.5638    3.5978   12.9399 C   0  0  0  0  0  0  0  0  0  0  0  0
    2.8057    2.9165   12.0155 C   0  0  0  0  0  0  0  0  0  0  0  0
    1.8249    2.0748   12.5116 C   0  0  0  0  0  0  0  0  0  0  0  0
    1.5956    1.9047   13.8547 C   0  0  0  0  0  0  0  0  0  0  0  0
    2.3718    2.6009   14.7573 C   0  0  0  0  0  0  0  0  0  0  0  0
    2.3981    2.6653   16.0848 N   0  0  0  0  0  0  0  0  0  0  0  0
    1.7800    2.1433   16.7440 H   0  0  0  0  0  0  0  0  0  0  0  0
    3.0144    3.0445   10.5639 C   0  0  0  0  0  0  0  0  0  0  0  0
    2.4754    4.0586    9.8404 C   0  0  0  0  0  0  0  0  0  0  0  0
    2.6810    4.1185    8.4628 C   0  0  0  0  0  0  0  0  0  0  0  0
    3.4158    3.1670    7.8540 N   0  0  0  0  0  0  0  0  0  0  0  0
    3.9574    2.1556    8.5539 C   0  0  0  0  0  0  0  0  0  0  0  0
    3.7630    2.0790    9.9372 C   0  0  0  0  0  0  0  0  0  0  0  0
    4.7422    1.1206    7.8614 C   0  0  0  0  0  0  0  0  0  0  0  0
    4.0025    0.6451    6.7945 F   0  0  0  0  0  0  0  0  0  0  0  0
    5.9135    1.7004    7.3494 F   0  0  0  0  0  0  0  0  0  0  0  0
    5.0735    0.1057    8.7325 F   0  0  0  0  0  0  0  0  0  0  0  0
    5.6323    5.2264   22.2000 C   0  0  0  0  0  0  0  0  0  0  0  0
    6.2319    6.2845   22.9901 N   0  0  0  0  0  0  0  0  0  0  0  0
    7.6070    6.5602   22.8411 C   0  0  0  0  0  0  0  0  0  0  0  0
    8.2626    5.8332   22.0145 O   0  0  0  0  0  0  0  0  0  0  0  0
    5.6656    6.8446   23.6688 H   0  0  0  0  0  0  0  0  0  0  0  0
    8.3430    7.6053   23.5446 C   0  0  0  0  0  0  0  0  0  0  0  0
    7.4887    8.3260   24.5714 C   0  0  0  0  0  0  0  0  0  0  0  0
    9.4799    6.9742   24.3701 C   0  0  0  0  0  0  0  0  0  0  0  0
    8.9705    8.5712   22.6060 C   0  0  0  0  0  0  0  0  0  0  0  0
    4.7097    4.3225   22.8959 C   0  0  0  0  0  0  0  0  0  0  0  0
    5.4180    2.2785   24.1660 C   0  0  0  0  0  0  0  0  0  0  0  0
    4.9502    2.8668   22.8599 C   0  0  0  0  0  0  0  0  0  0  0  0
    3.7445    2.1052   22.3970 C   0  0  0  0  0  0  0  0  0  0  0  0
 39 40  1  0  0  0
 40 41  1  0  0  0
 40 38  1  0  0  0
 38 29  1  0  0  0
 29 30  1  0  0  0
 30 31  1  0  0  0
 31 32  2  0  0  0
 31 34  1  0  0  0
 34 35  1  0  0  0
 34 36  1  0  0  0
 34 37  1  0  0  0
 29  1  1  0  0  0
  1  2  2  0  0  0
  1  3  1  0  0  0
  3  4  1  0  0  0
  4  5  1  0  0  0
  5  6  1  0  0  0
  6  7  1  0  0  0
  7  8  1  0  0  0
  6  9  1  0  0  0
  9 10  2  0  0  0
 10 11  1  0  0  0
 11 12  2  0  0  0
 12 13  1  0  0  0
 13 14  2  0  0  0
 14 15  1  0  0  0
 15 16  2  0  0  0
 16 17  1  0  0  0
 13 19  1  0  0  0
 19 20  2  0  0  0
 20 21  1  0  0  0
 21 22  2  0  0  0
 22 23  1  0  0  0
 23 24  2  0  0  0
 23 25  1  0  0  0
 25 26  1  0  0  0
 25 27  1  0  0  0
 25 28  1  0  0  0
  8  3  1  0  0  0
 17  9  1  0  0  0
 24 19  1  0  0  0
 16 11  1  0  0  0
 30 33  1  0  0  0
 17 18  1  0  0  0
M  END
> <minimizedAffinity>
-8.19005

> <CNNscore>
0.2163149714

> <CNNaffinity>
6.6805562973

> <CNN_VS>
1.4451043606

> <CNNaffinity_variance>
0.2704699039

$$$$
[H]c1nc(C(F)(F)F)c([H])c(-c2c([H])c([H])c3c(nc(C4([H])C([H])([H])C([H])([H])N(C(=O)[C@@]([H])(N([H])C(=O)C(C([H])([H])[H])(C([H])([H])[H])C([H])([H])[H])C([H])([H])C([H])(C([H])([H])[H])C([H])([H])[H])C([H])([H])C4([H])[H])n3[H])c2[H])c1[H]


 41 44  0  0  0  0  0  0  0  0999 V2000
    1.2504    4.2490    9.6098 C   0  0  0  0  0  0  0  0  0  0  0  0
    0.4971    5.2644    9.6200 O   0  0  0  0  0  0  0  0  0  0  0  0
    1.5759    3.6140   10.8161 N   0  0  0  0  0  0  0  0  0  0  0  0
    2.4512    2.4692   10.8212 C   0  0  0  0  0  0  0  0  0  0  0  0
    2.5149    1.9817   12.2834 C   0  0  0  0  0  0  0  0  0  0  0  0
    3.0814    3.1339   13.0625 C   0  0  0  0  0  0  0  0  0  0  0  0
    2.1564    4.3484   13.0305 C   0  0  0  0  0  0  0  0  0  0  0  0
    1.0255    4.0515   12.0928 C   0  0  0  0  0  0  0  0  0  0  0  0
    3.2811    2.7284   14.4583 C   0  0  0  0  0  0  0  0  0  0  0  0
    3.8905    3.4529   15.4018 N   0  0  0  0  0  0  0  0  0  0  0  0
    3.8735    2.6704   16.5171 C   0  0  0  0  0  0  0  0  0  0  0  0
    4.3711    2.9110   17.7790 C   0  0  0  0  0  0  0  0  0  0  0  0
    4.2633    1.9747   18.7816 C   0  0  0  0  0  0  0  0  0  0  0  0
    3.6335    0.7849   18.4591 C   0  0  0  0  0  0  0  0  0  0  0  0
    3.1285    0.5216   17.2096 C   0  0  0  0  0  0  0  0  0  0  0  0
    3.2512    1.4795   16.2251 C   0  0  0  0  0  0  0  0  0  0  0  0
    2.8888    1.5316   14.9472 N   0  0  0  0  0  0  0  0  0  0  0  0
    2.3917    0.7862   14.4121 H   0  0  0  0  0  0  0  0  0  0  0  0
    4.7700    2.2049   20.1445 C   0  0  0  0  0  0  0  0  0  0  0  0
    5.6688    1.3758   20.7337 C   0  0  0  0  0  0  0  0  0  0  0  0
    6.0959    1.6237   22.0375 C   0  0  0  0  0  0  0  0  0  0  0  0
    5.6134    2.6879   22.7087 N   0  0  0  0  0  0  0  0  0  0  0  0
    4.7231    3.5198   22.1416 C   0  0  0  0  0  0  0  0  0  0  0  0
    4.2833    3.2881   20.8340 C   0  0  0  0  0  0  0  0  0  0  0  0
    4.1999    4.6656   22.9031 C   0  0  0  0  0  0  0  0  0  0  0  0
    3.6521    4.1987   24.0835 F   0  0  0  0  0  0  0  0  0  0  0  0
    5.2632    5.5215   23.2304 F   0  0  0  0  0  0  0  0  0  0  0  0
    3.2681    5.3534   22.1567 F   0  0  0  0  0  0  0  0  0  0  0  0
    1.7889    3.7247    8.2938 C   0  0  0  0  0  0  0  0  0  0  0  0
    0.5870    3.3986    7.5506 N   0  0  0  0  0  0  0  0  0  0  0  0
    0.3318    2.0540    7.2098 C   0  0  0  0  0  0  0  0  0  0  0  0
    1.2029    1.1851    7.5672 O   0  0  0  0  0  0  0  0  0  0  0  0
   -0.0919    4.1404    7.2610 H   0  0  0  0  0  0  0  0  0  0  0  0
   -0.8415    1.5701    6.4900 C   0  0  0  0  0  0  0  0  0  0  0  0
   -0.7830    0.0774    6.2217 C   0  0  0  0  0  0  0  0  0  0  0  0
   -2.0977    1.7516    7.3625 C   0  0  0  0  0  0  0  0  0  0  0  0
   -1.0723    2.3256    5.2315 C   0  0  0  0  0  0  0  0  0  0  0  0
    2.7299    4.6524    7.6564 C   0  0  0  0  0  0  0  0  0  0  0  0
    4.4098    2.8280    7.2796 C   0  0  0  0  0  0  0  0  0  0  0  0
    3.8069    4.1221    6.7977 C   0  0  0  0  0  0  0  0  0  0  0  0
    3.3616    3.9426    5.3773 C   0  0  0  0  0  0  0  0  0  0  0  0
 39 40  1  0  0  0
 40 41  1  0  0  0
 40 38  1  0  0  0
 38 29  1  0  0  0
 29 30  1  0  0  0
 30 31  1  0  0  0
 31 32  2  0  0  0
 31 34  1  0  0  0
 34 35  1  0  0  0
 34 36  1  0  0  0
 34 37  1  0  0  0
 29  1  1  0  0  0
  1  2  2  0  0  0
  1  3  1  0  0  0
  3  4  1  0  0  0
  4  5  1  0  0  0
  5  6  1  0  0  0
  6  7  1  0  0  0
  7  8  1  0  0  0
  6  9  1  0  0  0
  9 10  2  0  0  0
 10 11  1  0  0  0
 11 12  2  0  0  0
 12 13  1  0  0  0
 13 14  2  0  0  0
 14 15  1  0  0  0
 15 16  2  0  0  0
 16 17  1  0  0  0
 13 19  1  0  0  0
 19 20  2  0  0  0
 20 21  1  0  0  0
 21 22  2  0  0  0
 22 23  1  0  0  0
 23 24  2  0  0  0
 23 25  1  0  0  0
 25 26  1  0  0  0
 25 27  1  0  0  0
 25 28  1  0  0  0
  8  3  1  0  0  0
 17  9  1  0  0  0
 24 19  1  0  0  0
 16 11  1  0  0  0
 30 33  1  0  0  0
 17 18  1  0  0  0
M  END
> <minimizedAffinity>
-7.48204

> <CNNscore>
0.2077299654

> <CNNaffinity>
6.5661191940

> <CNN_VS>
1.3639796972

> <CNNaffinity_variance>
0.4478290081

$$$$
[H]c1nc(C(F)(F)F)c([H])c(-c2c([H])c([H])c3c(nc(C4([H])C([H])([H])C([H])([H])N(C(=O)[C@@]([H])(N([H])C(=O)C(C([H])([H])[H])(C([H])([H])[H])C([H])([H])[H])C([H])([H])C([H])(C([H])([H])[H])C([H])([H])[H])C([H])([H])C4([H])[H])n3[H])c2[H])c1[H]


 41 44  0  0  0  0  0  0  0  0999 V2000
    2.1559    4.5745    9.3967 C   0  0  0  0  0  0  0  0  0  0  0  0
    0.9751    4.1842    9.1687 O   0  0  0  0  0  0  0  0  0  0  0  0
    2.7475    4.3078   10.6389 N   0  0  0  0  0  0  0  0  0  0  0  0
    4.0845    4.7660   10.9200 C   0  0  0  0  0  0  0  0  0  0  0  0
    4.4402    4.2253   12.3203 C   0  0  0  0  0  0  0  0  0  0  0  0
    3.4255    4.8283   13.2490 C   0  0  0  0  0  0  0  0  0  0  0  0
    2.0104    4.3537   12.9267 C   0  0  0  0  0  0  0  0  0  0  0  0
    2.0645    3.5377   11.6708 C   0  0  0  0  0  0  0  0  0  0  0  0
    3.7461    4.4552   14.6312 C   0  0  0  0  0  0  0  0  0  0  0  0
    3.2560    3.3993   15.2881 N   0  0  0  0  0  0  0  0  0  0  0  0
    3.7987    3.4737   16.5357 C   0  0  0  0  0  0  0  0  0  0  0  0
    3.6325    2.6502   17.6276 C   0  0  0  0  0  0  0  0  0  0  0  0
    4.2684    2.9059   18.8206 C   0  0  0  0  0  0  0  0  0  0  0  0
    5.0789    4.0272   18.8678 C   0  0  0  0  0  0  0  0  0  0  0  0
    5.2616    4.8628   17.7935 C   0  0  0  0  0  0  0  0  0  0  0  0
    4.6111    4.5805   16.6107 C   0  0  0  0  0  0  0  0  0  0  0  0
    4.5693    5.1765   15.4233 N   0  0  0  0  0  0  0  0  0  0  0  0
    5.0772    6.0451   15.1464 H   0  0  0  0  0  0  0  0  0  0  0  0
    4.1252    2.0390   20.0017 C   0  0  0  0  0  0  0  0  0  0  0  0
    3.6093    0.7860   19.9233 C   0  0  0  0  0  0  0  0  0  0  0  0
    3.4695    0.0158   21.0770 C   0  0  0  0  0  0  0  0  0  0  0  0
    3.8483    0.5199   22.2679 N   0  0  0  0  0  0  0  0  0  0  0  0
    4.3613    1.7583   22.3650 C   0  0  0  0  0  0  0  0  0  0  0  0
    4.5101    2.5459   21.2184 C   0  0  0  0  0  0  0  0  0  0  0  0
    4.7519    2.2905   23.6806 C   0  0  0  0  0  0  0  0  0  0  0  0
    3.9713    3.3972   23.9592 F   0  0  0  0  0  0  0  0  0  0  0  0
    4.4914    1.3214   24.6620 F   0  0  0  0  0  0  0  0  0  0  0  0
    6.0925    2.6083   23.6916 F   0  0  0  0  0  0  0  0  0  0  0  0
    2.9222    5.3208    8.3231 C   0  0  0  0  0  0  0  0  0  0  0  0
    3.3835    4.2606    7.4477 N   0  0  0  0  0  0  0  0  0  0  0  0
    4.7472    4.2056    7.0924 C   0  0  0  0  0  0  0  0  0  0  0  0
    5.5099    5.1242    7.5574 O   0  0  0  0  0  0  0  0  0  0  0  0
    2.7249    3.5385    7.0737 H   0  0  0  0  0  0  0  0  0  0  0  0
    5.3620    3.1892    6.2450 C   0  0  0  0  0  0  0  0  0  0  0  0
    4.3522    2.4862    5.3563 C   0  0  0  0  0  0  0  0  0  0  0  0
    6.3385    3.8566    5.2585 C   0  0  0  0  0  0  0  0  0  0  0  0
    6.1462    2.2059    7.0362 C   0  0  0  0  0  0  0  0  0  0  0  0
    2.1339    6.3930    7.7056 C   0  0  0  0  0  0  0  0  0  0  0  0
    3.3922    7.5289    5.8565 C   0  0  0  0  0  0  0  0  0  0  0  0
    2.8101    7.6208    7.2434 C   0  0  0  0  0  0  0  0  0  0  0  0
    1.9118    8.8196    7.3065 C   0  0  0  0  0  0  0  0  0  0  0  0
 39 40  1  0  0  0
 40 41  1  0  0  0
 40 38  1  0  0  0
 38 29  1  0  0  0
 29 30  1  0  0  0
 30 31  1  0  0  0
 31 32  2  0  0  0
 31 34  1  0  0  0
 34 35  1  0  0  0
 34 36  1  0  0  0
 34 37  1  0  0  0
 29  1  1  0  0  0
  1  2  2  0  0  0
  1  3  1  0  0  0
  3  4  1  0  0  0
  4  5  1  0  0  0
  5  6  1  0  0  0
  6  7  1  0  0  0
  7  8  1  0  0  0
  6  9  1  0  0  0
  9 10  2  0  0  0
 10 11  1  0  0  0
 11 12  2  0  0  0
 12 13  1  0  0  0
 13 14  2  0  0  0
 14 15  1  0  0  0
 15 16  2  0  0  0
 16 17  1  0  0  0
 13 19  1  0  0  0
 19 20  2  0  0  0
 20 21  1  0  0  0
 21 22  2  0  0  0
 22 23  1  0  0  0
 23 24  2  0  0  0
 23 25  1  0  0  0
 25 26  1  0  0  0
 25 27  1  0  0  0
 25 28  1  0  0  0
  8  3  1  0  0  0
 17  9  1  0  0  0
 24 19  1  0  0  0
 16 11  1  0  0  0
 30 33  1  0  0  0
 17 18  1  0  0  0
M  END
> <minimizedAffinity>
-7.22866

> <CNNscore>
0.1845716238

> <CNNaffinity>
6.6299409866

> <CNN_VS>
1.2236989737

> <CNNaffinity_variance>
0.4505589008

$$$$
[H]c1nc(C(F)(F)F)c([H])c(-c2c([H])c([H])c3c(nc(C4([H])C([H])([H])C([H])([H])N(C(=O)[C@@]([H])(N([H])C(=O)C(C([H])([H])[H])(C([H])([H])[H])C([H])([H])[H])C([H])([H])C([H])(C([H])([H])[H])C([H])([H])[H])C([H])([H])C4([H])[H])n3[H])c2[H])c1[H]


 41 44  0  0  0  0  0  0  0  0999 V2000
    3.9140    6.1558    7.8604 C   0  0  0  0  0  0  0  0  0  0  0  0
    3.8488    5.2739    6.9567 O   0  0  0  0  0  0  0  0  0  0  0  0
    4.0649    5.7684    9.1988 N   0  0  0  0  0  0  0  0  0  0  0  0
    4.1184    6.7621   10.2411 C   0  0  0  0  0  0  0  0  0  0  0  0
    4.3767    5.9957   11.5547 C   0  0  0  0  0  0  0  0  0  0  0  0
    3.2049    5.0696   11.7119 C   0  0  0  0  0  0  0  0  0  0  0  0
    3.1454    4.0362   10.5894 C   0  0  0  0  0  0  0  0  0  0  0  0
    4.2084    4.3709    9.5874 C   0  0  0  0  0  0  0  0  0  0  0  0
    3.3062    4.3676   12.9962 C   0  0  0  0  0  0  0  0  0  0  0  0
    3.7603    4.8921   14.1386 N   0  0  0  0  0  0  0  0  0  0  0  0
    3.7052    3.8749   15.0434 C   0  0  0  0  0  0  0  0  0  0  0  0
    4.0596    3.8495   16.3745 C   0  0  0  0  0  0  0  0  0  0  0  0
    3.9381    2.7032   17.1259 C   0  0  0  0  0  0  0  0  0  0  0  0
    3.4449    1.5828   16.4796 C   0  0  0  0  0  0  0  0  0  0  0  0
    3.0839    1.5829   15.1547 C   0  0  0  0  0  0  0  0  0  0  0  0
    3.2167    2.7469   14.4272 C   0  0  0  0  0  0  0  0  0  0  0  0
    2.9729    3.0686   13.1607 N   0  0  0  0  0  0  0  0  0  0  0  0
    2.5936    2.4369   12.4217 H   0  0  0  0  0  0  0  0  0  0  0  0
    4.2930    2.6451   18.5535 C   0  0  0  0  0  0  0  0  0  0  0  0
    5.1386    3.5382   19.1275 C   0  0  0  0  0  0  0  0  0  0  0  0
    5.4637    3.4221   20.4783 C   0  0  0  0  0  0  0  0  0  0  0  0
    4.9355    2.4213   21.2099 N   0  0  0  0  0  0  0  0  0  0  0  0
    4.0964    1.5278   20.6588 C   0  0  0  0  0  0  0  0  0  0  0  0
    3.7576    1.6284   19.3053 C   0  0  0  0  0  0  0  0  0  0  0  0
    3.5465    0.4347   21.4771 C   0  0  0  0  0  0  0  0  0  0  0  0
    2.2199    0.2503   21.1343 F   0  0  0  0  0  0  0  0  0  0  0  0
    4.2371   -0.7508   21.1806 F   0  0  0  0  0  0  0  0  0  0  0  0
    3.6815    0.7233   22.8176 F   0  0  0  0  0  0  0  0  0  0  0  0
    3.8350    7.6226    7.4875 C   0  0  0  0  0  0  0  0  0  0  0  0
    4.7177    7.7208    6.3410 N   0  0  0  0  0  0  0  0  0  0  0  0
    5.6199    8.8017    6.2574 C   0  0  0  0  0  0  0  0  0  0  0  0
    5.5932    9.6602    7.2081 O   0  0  0  0  0  0  0  0  0  0  0  0
    4.6967    7.0080    5.5752 H   0  0  0  0  0  0  0  0  0  0  0  0
    6.5828    9.0209    5.1833 C   0  0  0  0  0  0  0  0  0  0  0  0
    7.7491    8.0515    5.2426 C   0  0  0  0  0  0  0  0  0  0  0  0
    5.9182    8.7350    3.8236 C   0  0  0  0  0  0  0  0  0  0  0  0
    7.0638   10.4263    5.1462 C   0  0  0  0  0  0  0  0  0  0  0  0
    2.4557    8.0870    7.3025 C   0  0  0  0  0  0  0  0  0  0  0  0
    1.3814    8.5098    5.0755 C   0  0  0  0  0  0  0  0  0  0  0  0
    2.1534    9.0686    6.2427 C   0  0  0  0  0  0  0  0  0  0  0  0
    1.4210   10.2652    6.7717 C   0  0  0  0  0  0  0  0  0  0  0  0
 39 40  1  0  0  0
 40 41  1  0  0  0
 40 38  1  0  0  0
 38 29  1  0  0  0
 29 30  1  0  0  0
 30 31  1  0  0  0
 31 32  2  0  0  0
 31 34  1  0  0  0
 34 35  1  0  0  0
 34 36  1  0  0  0
 34 37  1  0  0  0
 29  1  1  0  0  0
  1  2  2  0  0  0
  1  3  1  0  0  0
  3  4  1  0  0  0
  4  5  1  0  0  0
  5  6  1  0  0  0
  6  7  1  0  0  0
  7  8  1  0  0  0
  6  9  1  0  0  0
  9 10  2  0  0  0
 10 11  1  0  0  0
 11 12  2  0  0  0
 12 13  1  0  0  0
 13 14  2  0  0  0
 14 15  1  0  0  0
 15 16  2  0  0  0
 16 17  1  0  0  0
 13 19  1  0  0  0
 19 20  2  0  0  0
 20 21  1  0  0  0
 21 22  2  0  0  0
 22 23  1  0  0  0
 23 24  2  0  0  0
 23 25  1  0  0  0
 25 26  1  0  0  0
 25 27  1  0  0  0
 25 28  1  0  0  0
  8  3  1  0  0  0
 17  9  1  0  0  0
 24 19  1  0  0  0
 16 11  1  0  0  0
 30 33  1  0  0  0
 17 18  1  0  0  0
M  END
> <minimizedAffinity>
-8.65420

> <CNNscore>
0.1832387447

> <CNNaffinity>
6.1419324875

> <CNN_VS>
1.1254400015

> <CNNaffinity_variance>
0.2035868466

$$$$
[H]c1c(C(F)(F)F)c([H])c2nc(C3([H])C([H])([H])C([H])([H])N(C(=O)[C@@]([H])(N([H])C(=O)C(C([H])([H])[H])(C([H])([H])[H])C([H])([H])[H])C([H])([H])C([H])(C([H])([H])[H])C([H])([H])[H])C([H])([H])C3([H])[H])n([H])c2c1[H]


 35 37  0  0  0  0  0  0  0  0999 V2000
    1.8815    3.0475   10.5053 C   0  0  0  0  0  0  0  0  0  0  0  0
    0.6537    2.6974   10.2355 O   0  0  0  0  0  0  0  0  0  0  0  0
    2.1835    3.2688   11.8641 N   0  0  0  0  0  0  0  0  0  0  0  0
    1.1126    3.1465   12.8710 C   0  0  0  0  0  0  0  0  0  0  0  0
    1.4409    1.9806   13.7431 C   0  0  0  0  0  0  0  0  0  0  0  0
    2.9107    2.0904   14.1776 C   0  0  0  0  0  0  0  0  0  0  0  0
    3.4427    3.4300   13.9461 C   0  0  0  0  0  0  0  0  0  0  0  0
    3.4690    3.6005   12.3885 C   0  0  0  0  0  0  0  0  0  0  0  0
    2.9678    1.5785   15.5698 C   0  0  0  0  0  0  0  0  0  0  0  0
    3.7392    2.1401   16.5546 N   0  0  0  0  0  0  0  0  0  0  0  0
    3.5705    1.4732   17.6964 C   0  0  0  0  0  0  0  0  0  0  0  0
    4.1370    1.6546   18.9740 C   0  0  0  0  0  0  0  0  0  0  0  0
    3.8185    0.8333   20.0268 C   0  0  0  0  0  0  0  0  0  0  0  0
    2.9249   -0.1833   19.8132 C   0  0  0  0  0  0  0  0  0  0  0  0
    2.3625   -0.3663   18.5445 C   0  0  0  0  0  0  0  0  0  0  0  0
    2.6895    0.4693   17.4831 C   0  0  0  0  0  0  0  0  0  0  0  0
    2.3405    0.5606   16.1720 N   0  0  0  0  0  0  0  0  0  0  0  0
    1.6809   -0.0821   15.6835 H   0  0  0  0  0  0  0  0  0  0  0  0
    4.4379    1.0302   21.3823 C   0  0  0  0  0  0  0  0  0  0  0  0
    3.7032    0.3571   22.3737 F   0  0  0  0  0  0  0  0  0  0  0  0
    4.5786    2.3398   21.7363 F   0  0  0  0  0  0  0  0  0  0  0  0
    5.7103    0.4454   21.4448 F   0  0  0  0  0  0  0  0  0  0  0  0
    2.7256    3.1422    9.3488 C   0  0  0  0  0  0  0  0  0  0  0  0
    3.8905    3.9943    9.4735 N   0  0  0  0  0  0  0  0  0  0  0  0
    4.5258    4.8828    8.6195 C   0  0  0  0  0  0  0  0  0  0  0  0
    4.0559    5.0874    7.4564 O   0  0  0  0  0  0  0  0  0  0  0  0
    4.3416    3.8982   10.4719 H   0  0  0  0  0  0  0  0  0  0  0  0
    5.7754    5.6108    9.0378 C   0  0  0  0  0  0  0  0  0  0  0  0
    6.9602    5.2394    8.2119 C   0  0  0  0  0  0  0  0  0  0  0  0
    6.0538    5.4033   10.4986 C   0  0  0  0  0  0  0  0  0  0  0  0
    5.5722    7.1184    8.8167 C   0  0  0  0  0  0  0  0  0  0  0  0
    3.2267    1.8559    8.7067 C   0  0  0  0  0  0  0  0  0  0  0  0
    3.9180   -0.3124    9.5309 C   0  0  0  0  0  0  0  0  0  0  0  0
    4.3755    1.1725    9.3459 C   0  0  0  0  0  0  0  0  0  0  0  0
    5.4708    0.9627    8.2329 C   0  0  0  0  0  0  0  0  0  0  0  0
 33 34  1  0  0  0
 34 35  1  0  0  0
 34 32  1  0  0  0
 32 23  1  0  0  0
 23 24  1  0  0  0
 24 25  1  0  0  0
 25 26  2  0  0  0
 25 28  1  0  0  0
 28 29  1  0  0  0
 28 30  1  0  0  0
 28 31  1  0  0  0
 23  1  1  0  0  0
  1  2  2  0  0  0
  1  3  1  0  0  0
  3  4  1  0  0  0
  4  5  1  0  0  0
  5  6  1  0  0  0
  6  7  1  0  0  0
  7  8  1  0  0  0
  6  9  1  0  0  0
  9 10  2  0  0  0
 10 11  1  0  0  0
 11 12  2  0  0  0
 12 13  1  0  0  0
 13 14  2  0  0  0
 14 15  1  0  0  0
 15 16  2  0  0  0
 16 17  1  0  0  0
 13 19  1  0  0  0
 19 20  1  0  0  0
 19 21  1  0  0  0
 19 22  1  0  0  0
  8  3  1  0  0  0
 17  9  1  0  0  0
 16 11  1  0  0  0
 24 27  1  0  0  0
 17 18  1  0  0  0
M  END
> <minimizedAffinity>
-7.52846

> <CNNscore>
0.5879629254

> <CNNaffinity>
6.7725539207

> <CNN_VS>
3.9820106030

> <CNNaffinity_variance>
0.2601931989

$$$$
[H]c1c(C(F)(F)F)c([H])c2nc(C3([H])C([H])([H])C([H])([H])N(C(=O)[C@@]([H])(N([H])C(=O)C(C([H])([H])[H])(C([H])([H])[H])C([H])([H])[H])C([H])([H])C([H])(C([H])([H])[H])C([H])([H])[H])C([H])([H])C3([H])[H])n([H])c2c1[H]


 35 37  0  0  0  0  0  0  0  0999 V2000
    2.0948    3.0745   10.4568 C   0  0  0  0  0  0  0  0  0  0  0  0
    0.9145    2.6324   10.1190 O   0  0  0  0  0  0  0  0  0  0  0  0
    2.3070    3.3006   11.8317 N   0  0  0  0  0  0  0  0  0  0  0  0
    1.1980    3.0807   12.7792 C   0  0  0  0  0  0  0  0  0  0  0  0
    1.5719    1.9327   13.6566 C   0  0  0  0  0  0  0  0  0  0  0  0
    3.0037    2.1521   14.1696 C   0  0  0  0  0  0  0  0  0  0  0  0
    3.4389    3.5324   13.9791 C   0  0  0  0  0  0  0  0  0  0  0  0
    3.5329    3.7255   12.4268 C   0  0  0  0  0  0  0  0  0  0  0  0
    3.0284    1.6275   15.5581 C   0  0  0  0  0  0  0  0  0  0  0  0
    3.8139    2.1497   16.5534 N   0  0  0  0  0  0  0  0  0  0  0  0
    3.6089    1.4814   17.6884 C   0  0  0  0  0  0  0  0  0  0  0  0
    4.1717    1.6298   18.9719 C   0  0  0  0  0  0  0  0  0  0  0  0
    3.8115    0.8140   20.0155 C   0  0  0  0  0  0  0  0  0  0  0  0
    2.8792   -0.1638   19.7866 C   0  0  0  0  0  0  0  0  0  0  0  0
    2.3202   -0.3140   18.5121 C   0  0  0  0  0  0  0  0  0  0  0  0
    2.6896    0.5159   17.4600 C   0  0  0  0  0  0  0  0  0  0  0  0
    2.3554    0.6314   16.1470 N   0  0  0  0  0  0  0  0  0  0  0  0
    1.6744    0.0198   15.6482 H   0  0  0  0  0  0  0  0  0  0  0  0
    4.4272    0.9751   21.3774 C   0  0  0  0  0  0  0  0  0  0  0  0
    5.7235    0.4330   21.4108 F   0  0  0  0  0  0  0  0  0  0  0  0
    3.6844    0.4302   22.3832 F   0  0  0  0  0  0  0  0  0  0  0  0
    4.6155    2.3289   21.6884 F   0  0  0  0  0  0  0  0  0  0  0  0
    2.9880    3.2511    9.3477 C   0  0  0  0  0  0  0  0  0  0  0  0
    3.6914    4.5159    9.2863 N   0  0  0  0  0  0  0  0  0  0  0  0
    3.2841    5.8362    9.1702 C   0  0  0  0  0  0  0  0  0  0  0  0
    2.0447    6.1134    9.1206 O   0  0  0  0  0  0  0  0  0  0  0  0
    4.7784    4.3639    9.3548 H   0  0  0  0  0  0  0  0  0  0  0  0
    4.2844    6.9585    9.0916 C   0  0  0  0  0  0  0  0  0  0  0  0
    5.3932    6.6738    8.1358 C   0  0  0  0  0  0  0  0  0  0  0  0
    4.8226    7.2940   10.4525 C   0  0  0  0  0  0  0  0  0  0  0  0
    3.5831    8.2148    8.5504 C   0  0  0  0  0  0  0  0  0  0  0  0
    4.0416    2.1839    9.0854 C   0  0  0  0  0  0  0  0  0  0  0  0
    6.3530    1.4687    9.0154 C   0  0  0  0  0  0  0  0  0  0  0  0
    5.3810    2.6367    8.6420 C   0  0  0  0  0  0  0  0  0  0  0  0
    5.4207    2.5065    7.0723 C   0  0  0  0  0  0  0  0  0  0  0  0
 33 34  1  0  0  0
 34 35  1  0  0  0
 34 32  1  0  0  0
 32 23  1  0  0  0
 23 24  1  0  0  0
 24 25  1  0  0  0
 25 26  2  0  0  0
 25 28  1  0  0  0
 28 29  1  0  0  0
 28 30  1  0  0  0
 28 31  1  0  0  0
 23  1  1  0  0  0
  1  2  2  0  0  0
  1  3  1  0  0  0
  3  4  1  0  0  0
  4  5  1  0  0  0
  5  6  1  0  0  0
  6  7  1  0  0  0
  7  8  1  0  0  0
  6  9  1  0  0  0
  9 10  2  0  0  0
 10 11  1  0  0  0
 11 12  2  0  0  0
 12 13  1  0  0  0
 13 14  2  0  0  0
 14 15  1  0  0  0
 15 16  2  0  0  0
 16 17  1  0  0  0
 13 19  1  0  0  0
 19 20  1  0  0  0
 19 21  1  0  0  0
 19 22  1  0  0  0
  8  3  1  0  0  0
 17  9  1  0  0  0
 16 11  1  0  0  0
 24 27  1  0  0  0
 17 18  1  0  0  0
M  END
> <minimizedAffinity>
-7.42224

> <CNNscore>
0.5590792298

> <CNNaffinity>
6.6930198669

> <CNN_VS>
3.7419283390

> <CNNaffinity_variance>
0.3305250704

$$$$
[H]c1c(C(F)(F)F)c([H])c2nc(C3([H])C([H])([H])C([H])([H])N(C(=O)[C@@]([H])(N([H])C(=O)C(C([H])([H])[H])(C([H])([H])[H])C([H])([H])[H])C([H])([H])C([H])(C([H])([H])[H])C([H])([H])[H])C([H])([H])C3([H])[H])n([H])c2c1[H]


 35 37  0  0  0  0  0  0  0  0999 V2000
    2.6998    4.0913   10.4924 C   0  0  0  0  0  0  0  0  0  0  0  0
    1.5170    3.7878   10.0324 O   0  0  0  0  0  0  0  0  0  0  0  0
    2.8329    4.1314   11.8950 N   0  0  0  0  0  0  0  0  0  0  0  0
    1.6490    3.8862   12.7400 C   0  0  0  0  0  0  0  0  0  0  0  0
    1.8797    2.6143   13.4860 C   0  0  0  0  0  0  0  0  0  0  0  0
    3.2850    2.6563   14.1063 C   0  0  0  0  0  0  0  0  0  0  0  0
    3.8289    4.0109   14.1175 C   0  0  0  0  0  0  0  0  0  0  0  0
    4.0423    4.3830   12.6102 C   0  0  0  0  0  0  0  0  0  0  0  0
    3.1775    1.9668   15.4165 C   0  0  0  0  0  0  0  0  0  0  0  0
    3.8992    2.3265   16.5255 N   0  0  0  0  0  0  0  0  0  0  0  0
    3.5779    1.5361   17.5498 C   0  0  0  0  0  0  0  0  0  0  0  0
    4.0404    1.5009   18.8805 C   0  0  0  0  0  0  0  0  0  0  0  0
    3.5662    0.5827   19.7842 C   0  0  0  0  0  0  0  0  0  0  0  0
    2.6190   -0.3145   19.3655 C   0  0  0  0  0  0  0  0  0  0  0  0
    2.1596   -0.2824   18.0437 C   0  0  0  0  0  0  0  0  0  0  0  0
    2.6440    0.6503   17.1341 C   0  0  0  0  0  0  0  0  0  0  0  0
    2.4217    0.9398   15.8243 N   0  0  0  0  0  0  0  0  0  0  0  0
    1.7605    0.4263   15.2031 H   0  0  0  0  0  0  0  0  0  0  0  0
    4.0755    0.5481   21.1982 C   0  0  0  0  0  0  0  0  0  0  0  0
    3.5398    1.6067   21.9518 F   0  0  0  0  0  0  0  0  0  0  0  0
    5.4359    0.5707   21.2920 F   0  0  0  0  0  0  0  0  0  0  0  0
    3.6336   -0.6030   21.8649 F   0  0  0  0  0  0  0  0  0  0  0  0
    3.6770    4.3302    9.4691 C   0  0  0  0  0  0  0  0  0  0  0  0
    4.2918    3.1566    8.8834 N   0  0  0  0  0  0  0  0  0  0  0  0
    5.5737    2.6290    8.9117 C   0  0  0  0  0  0  0  0  0  0  0  0
    6.4814    3.2094    9.5861 O   0  0  0  0  0  0  0  0  0  0  0  0
    3.5582    2.5776    8.3035 H   0  0  0  0  0  0  0  0  0  0  0  0
    5.9213    1.3789    8.1483 C   0  0  0  0  0  0  0  0  0  0  0  0
    4.7268    0.7284    7.5369 C   0  0  0  0  0  0  0  0  0  0  0  0
    6.6731    0.4116    9.0165 C   0  0  0  0  0  0  0  0  0  0  0  0
    6.8381    1.7515    6.9719 C   0  0  0  0  0  0  0  0  0  0  0  0
    3.2975    5.2222    8.2951 C   0  0  0  0  0  0  0  0  0  0  0  0
    2.8682    7.5008    8.9893 C   0  0  0  0  0  0  0  0  0  0  0  0
    3.8904    6.5792    8.2450 C   0  0  0  0  0  0  0  0  0  0  0  0
    5.0683    6.6118    9.2909 C   0  0  0  0  0  0  0  0  0  0  0  0
 33 34  1  0  0  0
 34 35  1  0  0  0
 34 32  1  0  0  0
 32 23  1  0  0  0
 23 24  1  0  0  0
 24 25  1  0  0  0
 25 26  2  0  0  0
 25 28  1  0  0  0
 28 29  1  0  0  0
 28 30  1  0  0  0
 28 31  1  0  0  0
 23  1  1  0  0  0
  1  2  2  0  0  0
  1  3  1  0  0  0
  3  4  1  0  0  0
  4  5  1  0  0  0
  5  6  1  0  0  0
  6  7  1  0  0  0
  7  8  1  0  0  0
  6  9  1  0  0  0
  9 10  2  0  0  0
 10 11  1  0  0  0
 11 12  2  0  0  0
 12 13  1  0  0  0
 13 14  2  0  0  0
 14 15  1  0  0  0
 15 16  2  0  0  0
 16 17  1  0  0  0
 13 19  1  0  0  0
 19 20  1  0  0  0
 19 21  1  0  0  0
 19 22  1  0  0  0
  8  3  1  0  0  0
 17  9  1  0  0  0
 16 11  1  0  0  0
 24 27  1  0  0  0
 17 18  1  0  0  0
M  END
> <minimizedAffinity>
-7.56131

> <CNNscore>
0.4898916781

> <CNNaffinity>
6.6106886864

> <CNN_VS>
3.2385213375

> <CNNaffinity_variance>
0.1698258817

$$$$
[H]c1c(C(F)(F)F)c([H])c2nc(C3([H])C([H])([H])C([H])([H])N(C(=O)[C@@]([H])(N([H])C(=O)C(C([H])([H])[H])(C([H])([H])[H])C([H])([H])[H])C([H])([H])C([H])(C([H])([H])[H])C([H])([H])[H])C([H])([H])C3([H])[H])n([H])c2c1[H]


 35 37  0  0  0  0  0  0  0  0999 V2000
    1.8776    1.9770   10.8692 C   0  0  0  0  0  0  0  0  0  0  0  0
    0.8897    1.1247   10.8856 O   0  0  0  0  0  0  0  0  0  0  0  0
    2.1251    2.6693   12.0717 N   0  0  0  0  0  0  0  0  0  0  0  0
    1.2459    2.4366   13.2330 C   0  0  0  0  0  0  0  0  0  0  0  0
    2.0625    1.7804   14.2960 C   0  0  0  0  0  0  0  0  0  0  0  0
    3.3771    2.5597   14.4572 C   0  0  0  0  0  0  0  0  0  0  0  0
    3.3028    3.8770   13.8326 C   0  0  0  0  0  0  0  0  0  0  0  0
    3.1849    3.5991   12.2948 C   0  0  0  0  0  0  0  0  0  0  0  0
    3.7030    2.5223   15.9050 C   0  0  0  0  0  0  0  0  0  0  0  0
    3.3062    1.5154   16.7471 N   0  0  0  0  0  0  0  0  0  0  0  0
    3.7603    1.7507   17.9781 C   0  0  0  0  0  0  0  0  0  0  0  0
    3.6183    1.0255   19.1781 C   0  0  0  0  0  0  0  0  0  0  0  0
    4.1767    1.4614   20.3540 C   0  0  0  0  0  0  0  0  0  0  0  0
    4.8876    2.6328   20.3430 C   0  0  0  0  0  0  0  0  0  0  0  0
    5.0283    3.3555   19.1525 C   0  0  0  0  0  0  0  0  0  0  0  0
    4.4602    2.9080   17.9655 C   0  0  0  0  0  0  0  0  0  0  0  0
    4.4053    3.3554   16.6826 N   0  0  0  0  0  0  0  0  0  0  0  0
    4.8386    4.2393   16.3394 H   0  0  0  0  0  0  0  0  0  0  0  0
    4.0090    0.6845   21.6300 C   0  0  0  0  0  0  0  0  0  0  0  0
    2.6995    0.8075   22.1254 F   0  0  0  0  0  0  0  0  0  0  0  0
    4.8953    1.0344   22.6058 F   0  0  0  0  0  0  0  0  0  0  0  0
    4.1612   -0.6909   21.4063 F   0  0  0  0  0  0  0  0  0  0  0  0
    2.5546    2.0569    9.6065 C   0  0  0  0  0  0  0  0  0  0  0  0
    2.7077    3.3831    9.0442 N   0  0  0  0  0  0  0  0  0  0  0  0
    2.6803    3.8873    7.7529 C   0  0  0  0  0  0  0  0  0  0  0  0
    2.4586    3.1071    6.7742 O   0  0  0  0  0  0  0  0  0  0  0  0
    2.8738    4.1280    9.8360 H   0  0  0  0  0  0  0  0  0  0  0  0
    2.9182    5.3484    7.4793 C   0  0  0  0  0  0  0  0  0  0  0  0
    2.1551    5.8431    6.2974 C   0  0  0  0  0  0  0  0  0  0  0  0
    4.3845    5.6344    7.3288 C   0  0  0  0  0  0  0  0  0  0  0  0
    2.4085    6.1692    8.6749 C   0  0  0  0  0  0  0  0  0  0  0  0
    3.9184    1.3944    9.4693 C   0  0  0  0  0  0  0  0  0  0  0  0
    3.1206   -0.7717    8.7412 C   0  0  0  0  0  0  0  0  0  0  0  0
    4.0173   -0.0468    9.7990 C   0  0  0  0  0  0  0  0  0  0  0  0
    5.4320   -0.5402    9.3117 C   0  0  0  0  0  0  0  0  0  0  0  0
 33 34  1  0  0  0
 34 35  1  0  0  0
 34 32  1  0  0  0
 32 23  1  0  0  0
 23 24  1  0  0  0
 24 25  1  0  0  0
 25 26  2  0  0  0
 25 28  1  0  0  0
 28 29  1  0  0  0
 28 30  1  0  0  0
 28 31  1  0  0  0
 23  1  1  0  0  0
  1  2  2  0  0  0
  1  3  1  0  0  0
  3  4  1  0  0  0
  4  5  1  0  0  0
  5  6  1  0  0  0
  6  7  1  0  0  0
  7  8  1  0  0  0
  6  9  1  0  0  0
  9 10  2  0  0  0
 10 11  1  0  0  0
 11 12  2  0  0  0
 12 13  1  0  0  0
 13 14  2  0  0  0
 14 15  1  0  0  0
 15 16  2  0  0  0
 16 17  1  0  0  0
 13 19  1  0  0  0
 19 20  1  0  0  0
 19 21  1  0  0  0
 19 22  1  0  0  0
  8  3  1  0  0  0
 17  9  1  0  0  0
 16 11  1  0  0  0
 24 27  1  0  0  0
 17 18  1  0  0  0
M  END
> <minimizedAffinity>
-7.20954

> <CNNscore>
0.4170286953

> <CNNaffinity>
6.6764893532

> <CNN_VS>
2.7842876911

> <CNNaffinity_variance>
0.5759348273

$$$$
[H]c1c(C(F)(F)F)c([H])c2nc(C3([H])C([H])([H])C([H])([H])N(C(=O)[C@@]([H])(N([H])C(=O)C(C([H])([H])[H])(C([H])([H])[H])C([H])([H])[H])C([H])([H])C([H])(C([H])([H])[H])C([H])([H])[H])C([H])([H])C3([H])[H])n([H])c2c1[H]


 35 37  0  0  0  0  0  0  0  0999 V2000
    1.5281    4.2612   11.3783 C   0  0  0  0  0  0  0  0  0  0  0  0
    2.2021    5.2688   10.8954 O   0  0  0  0  0  0  0  0  0  0  0  0
    2.1709    3.5005   12.3756 N   0  0  0  0  0  0  0  0  0  0  0  0
    3.5502    3.8445   12.7694 C   0  0  0  0  0  0  0  0  0  0  0  0
    3.5132    4.3188   14.1839 C   0  0  0  0  0  0  0  0  0  0  0  0
    2.6908    3.3220   15.0153 C   0  0  0  0  0  0  0  0  0  0  0  0
    2.5065    2.0563   14.3116 C   0  0  0  0  0  0  0  0  0  0  0  0
    1.6007    2.3971   13.0790 C   0  0  0  0  0  0  0  0  0  0  0  0
    3.3439    3.2590   16.3469 C   0  0  0  0  0  0  0  0  0  0  0  0
    3.5743    2.0899   17.0253 N   0  0  0  0  0  0  0  0  0  0  0  0
    4.1862    2.3508   18.1805 C   0  0  0  0  0  0  0  0  0  0  0  0
    4.6232    1.5009   19.2163 C   0  0  0  0  0  0  0  0  0  0  0  0
    5.2388    1.9925   20.3405 C   0  0  0  0  0  0  0  0  0  0  0  0
    5.4260    3.3462   20.4418 C   0  0  0  0  0  0  0  0  0  0  0  0
    4.9911    4.1922   19.4150 C   0  0  0  0  0  0  0  0  0  0  0  0
    4.3686    3.6873   18.2793 C   0  0  0  0  0  0  0  0  0  0  0  0
    3.8414    4.2142   17.1420 N   0  0  0  0  0  0  0  0  0  0  0  0
    3.8102    5.2308   16.9135 H   0  0  0  0  0  0  0  0  0  0  0  0
    5.6907    1.0767   21.4436 C   0  0  0  0  0  0  0  0  0  0  0  0
    7.0921    0.9711   21.4674 F   0  0  0  0  0  0  0  0  0  0  0  0
    5.1453   -0.1717   21.3783 F   0  0  0  0  0  0  0  0  0  0  0  0
    5.3671    1.6047   22.7012 F   0  0  0  0  0  0  0  0  0  0  0  0
    0.2235    4.1055   10.8013 C   0  0  0  0  0  0  0  0  0  0  0  0
   -0.0790    2.8035   10.2429 N   0  0  0  0  0  0  0  0  0  0  0  0
    0.4634    2.0516    9.2120 C   0  0  0  0  0  0  0  0  0  0  0  0
    1.4610    2.4966    8.5620 O   0  0  0  0  0  0  0  0  0  0  0  0
   -0.9189    2.3339   10.7753 H   0  0  0  0  0  0  0  0  0  0  0  0
   -0.1120    0.7125    8.8349 C   0  0  0  0  0  0  0  0  0  0  0  0
    0.4076    0.2109    7.5302 C   0  0  0  0  0  0  0  0  0  0  0  0
   -1.6129    0.7544    8.8339 C   0  0  0  0  0  0  0  0  0  0  0  0
    0.3197   -0.3283    9.8806 C   0  0  0  0  0  0  0  0  0  0  0  0
   -0.9913    4.4844   11.6370 C   0  0  0  0  0  0  0  0  0  0  0  0
   -2.9175    5.9308   11.8741 C   0  0  0  0  0  0  0  0  0  0  0  0
   -1.3629    5.9175   11.6968 C   0  0  0  0  0  0  0  0  0  0  0  0
   -0.9418    6.4490   13.1190 C   0  0  0  0  0  0  0  0  0  0  0  0
 33 34  1  0  0  0
 34 35  1  0  0  0
 34 32  1  0  0  0
 32 23  1  0  0  0
 23 24  1  0  0  0
 24 25  1  0  0  0
 25 26  2  0  0  0
 25 28  1  0  0  0
 28 29  1  0  0  0
 28 30  1  0  0  0
 28 31  1  0  0  0
 23  1  1  0  0  0
  1  2  2  0  0  0
  1  3  1  0  0  0
  3  4  1  0  0  0
  4  5  1  0  0  0
  5  6  1  0  0  0
  6  7  1  0  0  0
  7  8  1  0  0  0
  6  9  1  0  0  0
  9 10  2  0  0  0
 10 11  1  0  0  0
 11 12  2  0  0  0
 12 13  1  0  0  0
 13 14  2  0  0  0
 14 15  1  0  0  0
 15 16  2  0  0  0
 16 17  1  0  0  0
 13 19  1  0  0  0
 19 20  1  0  0  0
 19 21  1  0  0  0
 19 22  1  0  0  0
  8  3  1  0  0  0
 17  9  1  0  0  0
 16 11  1  0  0  0
 24 27  1  0  0  0
 17 18  1  0  0  0
M  END
> <minimizedAffinity>
-7.57049

> <CNNscore>
0.4168136418

> <CNNaffinity>
6.5166296959

> <CNN_VS>
2.7162201405

> <CNNaffinity_variance>
0.4628342986

$$$$
[H]c1c(C(F)(F)F)c([H])c2nc(C3([H])C([H])([H])C([H])([H])N(C(=O)[C@@]([H])(N([H])C(=O)C(C([H])([H])[H])(C([H])([H])[H])C([H])([H])[H])C([H])([H])C([H])(C([H])([H])[H])C([H])([H])[H])C([H])([H])C3([H])[H])n([H])c2c1[H]


 35 37  0  0  0  0  0  0  0  0999 V2000
    2.3342    2.5879   11.5683 C   0  0  0  0  0  0  0  0  0  0  0  0
    1.3780    1.7251   11.3584 O   0  0  0  0  0  0  0  0  0  0  0  0
    2.4812    3.0473   12.8926 N   0  0  0  0  0  0  0  0  0  0  0  0
    1.5398    2.5801   13.9276 C   0  0  0  0  0  0  0  0  0  0  0  0
    2.3111    1.7549   14.9031 C   0  0  0  0  0  0  0  0  0  0  0  0
    3.5844    2.5201   15.2957 C   0  0  0  0  0  0  0  0  0  0  0  0
    3.5027    3.9294   14.9235 C   0  0  0  0  0  0  0  0  0  0  0  0
    3.4913    3.9428   13.3565 C   0  0  0  0  0  0  0  0  0  0  0  0
    3.8201    2.2188   16.7300 C   0  0  0  0  0  0  0  0  0  0  0  0
    4.5822    3.0045   17.5560 N   0  0  0  0  0  0  0  0  0  0  0  0
    4.5966    2.4877   18.7846 C   0  0  0  0  0  0  0  0  0  0  0  0
    5.2314    2.9151   19.9680 C   0  0  0  0  0  0  0  0  0  0  0  0
    5.1121    2.2155   21.1430 C   0  0  0  0  0  0  0  0  0  0  0  0
    4.3522    1.0752   21.1483 C   0  0  0  0  0  0  0  0  0  0  0  0
    3.7223    0.6479   19.9735 C   0  0  0  0  0  0  0  0  0  0  0  0
    3.8474    1.3616   18.7873 C   0  0  0  0  0  0  0  0  0  0  0  0
    3.3874    1.2245   17.5151 N   0  0  0  0  0  0  0  0  0  0  0  0
    2.7858    0.4424   17.1786 H   0  0  0  0  0  0  0  0  0  0  0  0
    5.8031    2.6756   22.3963 C   0  0  0  0  0  0  0  0  0  0  0  0
    6.9059    3.4921   22.0918 F   0  0  0  0  0  0  0  0  0  0  0  0
    6.2072    1.6554   23.2062 F   0  0  0  0  0  0  0  0  0  0  0  0
    4.9664    3.5027   23.1584 F   0  0  0  0  0  0  0  0  0  0  0  0
    3.0856    2.9194   10.3916 C   0  0  0  0  0  0  0  0  0  0  0  0
    3.4430    4.3140   10.2312 N   0  0  0  0  0  0  0  0  0  0  0  0
    2.7146    5.4719   10.0052 C   0  0  0  0  0  0  0  0  0  0  0  0
    1.4472    5.4160    9.9259 O   0  0  0  0  0  0  0  0  0  0  0  0
    4.5305    4.4527   10.3183 H   0  0  0  0  0  0  0  0  0  0  0  0
    3.3958    6.8043    9.8410 C   0  0  0  0  0  0  0  0  0  0  0  0
    3.7786    7.0833    8.4270 C   0  0  0  0  0  0  0  0  0  0  0  0
    4.5857    6.9143   10.7503 C   0  0  0  0  0  0  0  0  0  0  0  0
    2.4121    7.9190   10.2319 C   0  0  0  0  0  0  0  0  0  0  0  0
    4.3561    2.1348   10.0950 C   0  0  0  0  0  0  0  0  0  0  0  0
    5.7838    1.0072    8.4984 C   0  0  0  0  0  0  0  0  0  0  0  0
    4.3071    1.1388    8.9990 C   0  0  0  0  0  0  0  0  0  0  0  0
    4.1389   -0.2790    9.6652 C   0  0  0  0  0  0  0  0  0  0  0  0
 33 34  1  0  0  0
 34 35  1  0  0  0
 34 32  1  0  0  0
 32 23  1  0  0  0
 23 24  1  0  0  0
 24 25  1  0  0  0
 25 26  2  0  0  0
 25 28  1  0  0  0
 28 29  1  0  0  0
 28 30  1  0  0  0
 28 31  1  0  0  0
 23  1  1  0  0  0
  1  2  2  0  0  0
  1  3  1  0  0  0
  3  4  1  0  0  0
  4  5  1  0  0  0
  5  6  1  0  0  0
  6  7  1  0  0  0
  7  8  1  0  0  0
  6  9  1  0  0  0
  9 10  2  0  0  0
 10 11  1  0  0  0
 11 12  2  0  0  0
 12 13  1  0  0  0
 13 14  2  0  0  0
 14 15  1  0  0  0
 15 16  2  0  0  0
 16 17  1  0  0  0
 13 19  1  0  0  0
 19 20  1  0  0  0
 19 21  1  0  0  0
 19 22  1  0  0  0
  8  3  1  0  0  0
 17  9  1  0  0  0
 16 11  1  0  0  0
 24 27  1  0  0  0
 17 18  1  0  0  0
M  END
> <minimizedAffinity>
-7.35555

> <CNNscore>
0.3753421307

> <CNNaffinity>
6.5914902687

> <CNN_VS>
2.4740641117

> <CNNaffinity_variance>
0.4847283363

$$$$
[H]c1c(C(F)(F)F)c([H])c2nc(C3([H])C([H])([H])C([H])([H])N(C(=O)[C@@]([H])(N([H])C(=O)C(C([H])([H])[H])(C([H])([H])[H])C([H])([H])[H])C([H])([H])C([H])(C([H])([H])[H])C([H])([H])[H])C([H])([H])C3([H])[H])n([H])c2c1[H]


 35 37  0  0  0  0  0  0  0  0999 V2000
    2.8251    2.8104   11.7912 C   0  0  0  0  0  0  0  0  0  0  0  0
    2.0903    1.7856   11.4556 O   0  0  0  0  0  0  0  0  0  0  0  0
    2.7812    3.1931   13.1470 N   0  0  0  0  0  0  0  0  0  0  0  0
    1.8926    2.4670   14.0738 C   0  0  0  0  0  0  0  0  0  0  0  0
    2.7536    1.7511   15.0605 C   0  0  0  0  0  0  0  0  0  0  0  0
    3.8059    2.7333   15.5982 C   0  0  0  0  0  0  0  0  0  0  0  0
    3.4523    4.1181   15.3011 C   0  0  0  0  0  0  0  0  0  0  0  0
    3.5444    4.2425   13.7416 C   0  0  0  0  0  0  0  0  0  0  0  0
    4.0026    2.3842   17.0276 C   0  0  0  0  0  0  0  0  0  0  0  0
    4.6725    3.1821   17.9191 N   0  0  0  0  0  0  0  0  0  0  0  0
    4.6723    2.6124   19.1243 C   0  0  0  0  0  0  0  0  0  0  0  0
    5.2258    3.0283   20.3518 C   0  0  0  0  0  0  0  0  0  0  0  0
    5.1074    2.2696   21.4897 C   0  0  0  0  0  0  0  0  0  0  0  0
    4.4301    1.0809   21.4128 C   0  0  0  0  0  0  0  0  0  0  0  0
    3.8811    0.6651   20.1942 C   0  0  0  0  0  0  0  0  0  0  0  0
    4.0048    1.4386   19.0460 C   0  0  0  0  0  0  0  0  0  0  0  0
    3.6088    1.3281   17.7499 N   0  0  0  0  0  0  0  0  0  0  0  0
    3.0783    0.5226   17.3542 H   0  0  0  0  0  0  0  0  0  0  0  0
    5.7117    2.7188   22.7908 C   0  0  0  0  0  0  0  0  0  0  0  0
    6.3446    1.6493   23.4473 F   0  0  0  0  0  0  0  0  0  0  0  0
    4.8170    3.3027   23.6386 F   0  0  0  0  0  0  0  0  0  0  0  0
    6.7422    3.6443   22.5749 F   0  0  0  0  0  0  0  0  0  0  0  0
    3.5669    3.3750   10.7003 C   0  0  0  0  0  0  0  0  0  0  0  0
    4.2001    2.4329    9.8003 N   0  0  0  0  0  0  0  0  0  0  0  0
    5.4465    2.3717    9.1962 C   0  0  0  0  0  0  0  0  0  0  0  0
    6.3078    3.2767    9.4305 O   0  0  0  0  0  0  0  0  0  0  0  0
    3.5250    1.5956    9.5706 H   0  0  0  0  0  0  0  0  0  0  0  0
    5.8041    1.2535    8.2538 C   0  0  0  0  0  0  0  0  0  0  0  0
    4.6365    0.7782    7.4571 C   0  0  0  0  0  0  0  0  0  0  0  0
    6.4489    0.1156    8.9913 C   0  0  0  0  0  0  0  0  0  0  0  0
    6.8228    1.7734    7.2266 C   0  0  0  0  0  0  0  0  0  0  0  0
    2.8798    4.3971    9.8054 C   0  0  0  0  0  0  0  0  0  0  0  0
    3.8378    6.4299   10.7047 C   0  0  0  0  0  0  0  0  0  0  0  0
    2.4897    5.6902   10.4148 C   0  0  0  0  0  0  0  0  0  0  0  0
    1.9434    6.6059    9.2548 C   0  0  0  0  0  0  0  0  0  0  0  0
 33 34  1  0  0  0
 34 35  1  0  0  0
 34 32  1  0  0  0
 32 23  1  0  0  0
 23 24  1  0  0  0
 24 25  1  0  0  0
 25 26  2  0  0  0
 25 28  1  0  0  0
 28 29  1  0  0  0
 28 30  1  0  0  0
 28 31  1  0  0  0
 23  1  1  0  0  0
  1  2  2  0  0  0
  1  3  1  0  0  0
  3  4  1  0  0  0
  4  5  1  0  0  0
  5  6  1  0  0  0
  6  7  1  0  0  0
  7  8  1  0  0  0
  6  9  1  0  0  0
  9 10  2  0  0  0
 10 11  1  0  0  0
 11 12  2  0  0  0
 12 13  1  0  0  0
 13 14  2  0  0  0
 14 15  1  0  0  0
 15 16  2  0  0  0
 16 17  1  0  0  0
 13 19  1  0  0  0
 19 20  1  0  0  0
 19 21  1  0  0  0
 19 22  1  0  0  0
  8  3  1  0  0  0
 17  9  1  0  0  0
 16 11  1  0  0  0
 24 27  1  0  0  0
 17 18  1  0  0  0
M  END
> <minimizedAffinity>
-7.66144

> <CNNscore>
0.3749359846

> <CNNaffinity>
6.5502672195

> <CNN_VS>
2.4559309483

> <CNNaffinity_variance>
0.4244682193

$$$$
[H]c1c(C(F)(F)F)c([H])c2nc(C3([H])C([H])([H])C([H])([H])N(C(=O)[C@@]([H])(N([H])C(=O)C(C([H])([H])[H])(C([H])([H])[H])C([H])([H])[H])C([H])([H])C([H])(C([H])([H])[H])C([H])([H])[H])C([H])([H])C3([H])[H])n([H])c2c1[H]


 35 37  0  0  0  0  0  0  0  0999 V2000
    2.9642    2.9295   12.3389 C   0  0  0  0  0  0  0  0  0  0  0  0
    2.7657    1.7496   11.8181 O   0  0  0  0  0  0  0  0  0  0  0  0
    2.6287    3.0759   13.6999 N   0  0  0  0  0  0  0  0  0  0  0  0
    2.0399    1.9344   14.4253 C   0  0  0  0  0  0  0  0  0  0  0  0
    3.0190    1.5050   15.4667 C   0  0  0  0  0  0  0  0  0  0  0  0
    3.5017    2.7483   16.2299 C   0  0  0  0  0  0  0  0  0  0  0  0
    2.6304    3.8961   15.9963 C   0  0  0  0  0  0  0  0  0  0  0  0
    2.8167    4.2549   14.4822 C   0  0  0  0  0  0  0  0  0  0  0  0
    3.6833    2.3212   17.6399 C   0  0  0  0  0  0  0  0  0  0  0  0
    4.0510    3.1726   18.6500 N   0  0  0  0  0  0  0  0  0  0  0  0
    4.1181    2.5048   19.8018 C   0  0  0  0  0  0  0  0  0  0  0  0
    4.4523    2.9254   21.1047 C   0  0  0  0  0  0  0  0  0  0  0  0
    4.4611    2.0522   22.1639 C   0  0  0  0  0  0  0  0  0  0  0  0
    4.1335    0.7422   21.9312 C   0  0  0  0  0  0  0  0  0  0  0  0
    3.8030    0.3220   20.6376 C   0  0  0  0  0  0  0  0  0  0  0  0
    3.7959    1.2118   19.5698 C   0  0  0  0  0  0  0  0  0  0  0  0
    3.5362    1.1324   18.2374 N   0  0  0  0  0  0  0  0  0  0  0  0
    3.2696    0.2605   17.7320 H   0  0  0  0  0  0  0  0  0  0  0  0
    4.8301    2.5106   23.5472 C   0  0  0  0  0  0  0  0  0  0  0  0
    6.1308    3.0426   23.5706 F   0  0  0  0  0  0  0  0  0  0  0  0
    4.7244    1.5354   24.4948 F   0  0  0  0  0  0  0  0  0  0  0  0
    4.0181    3.5768   23.9581 F   0  0  0  0  0  0  0  0  0  0  0  0
    3.5048    3.8874   11.4172 C   0  0  0  0  0  0  0  0  0  0  0  0
    2.6578    5.0184   11.0980 N   0  0  0  0  0  0  0  0  0  0  0  0
    1.9327    5.3881    9.9756 C   0  0  0  0  0  0  0  0  0  0  0  0
    1.9205    4.6324    8.9536 O   0  0  0  0  0  0  0  0  0  0  0  0
    2.5905    5.7107   11.9499 H   0  0  0  0  0  0  0  0  0  0  0  0
    1.1599    6.6794    9.9349 C   0  0  0  0  0  0  0  0  0  0  0  0
    1.0812    7.3439   11.2676 C   0  0  0  0  0  0  0  0  0  0  0  0
   -0.2107    6.4667    9.3600 C   0  0  0  0  0  0  0  0  0  0  0  0
    1.8949    7.6720    9.0196 C   0  0  0  0  0  0  0  0  0  0  0  0
    4.8806    4.4740   11.7015 C   0  0  0  0  0  0  0  0  0  0  0  0
    5.3057    3.3796    9.5849 C   0  0  0  0  0  0  0  0  0  0  0  0
    5.9016    4.3780   10.6320 C   0  0  0  0  0  0  0  0  0  0  0  0
    5.8198    5.7067    9.7893 C   0  0  0  0  0  0  0  0  0  0  0  0
 33 34  1  0  0  0
 34 35  1  0  0  0
 34 32  1  0  0  0
 32 23  1  0  0  0
 23 24  1  0  0  0
 24 25  1  0  0  0
 25 26  2  0  0  0
 25 28  1  0  0  0
 28 29  1  0  0  0
 28 30  1  0  0  0
 28 31  1  0  0  0
 23  1  1  0  0  0
  1  2  2  0  0  0
  1  3  1  0  0  0
  3  4  1  0  0  0
  4  5  1  0  0  0
  5  6  1  0  0  0
  6  7  1  0  0  0
  7  8  1  0  0  0
  6  9  1  0  0  0
  9 10  2  0  0  0
 10 11  1  0  0  0
 11 12  2  0  0  0
 12 13  1  0  0  0
 13 14  2  0  0  0
 14 15  1  0  0  0
 15 16  2  0  0  0
 16 17  1  0  0  0
 13 19  1  0  0  0
 19 20  1  0  0  0
 19 21  1  0  0  0
 19 22  1  0  0  0
  8  3  1  0  0  0
 17  9  1  0  0  0
 16 11  1  0  0  0
 24 27  1  0  0  0
 17 18  1  0  0  0
M  END
> <minimizedAffinity>
-7.75142

> <CNNscore>
0.3545145392

> <CNNaffinity>
6.3963599205

> <CNN_VS>
2.2676026821

> <CNNaffinity_variance>
0.4411135614

$$$$
[H]c1c(C(F)(F)F)c([H])c2nc(C3([H])C([H])([H])C([H])([H])N(C(=O)[C@@]([H])(N([H])C(=O)C(C([H])([H])[H])(C([H])([H])[H])C([H])([H])[H])C([H])([H])C([H])(C([H])([H])[H])C([H])([H])[H])C([H])([H])C3([H])[H])n([H])c2c1[H]


 35 37  0  0  0  0  0  0  0  0999 V2000
    1.8305    4.3801   12.1929 C   0  0  0  0  0  0  0  0  0  0  0  0
    2.4594    5.4888   11.9137 O   0  0  0  0  0  0  0  0  0  0  0  0
    2.4754    3.5053   13.0903 N   0  0  0  0  0  0  0  0  0  0  0  0
    3.8107    3.8579   13.6085 C   0  0  0  0  0  0  0  0  0  0  0  0
    3.6798    4.0942   15.0763 C   0  0  0  0  0  0  0  0  0  0  0  0
    2.8865    2.9313   15.6926 C   0  0  0  0  0  0  0  0  0  0  0  0
    2.8156    1.7880   14.7877 C   0  0  0  0  0  0  0  0  0  0  0  0
    1.9461    2.2723   13.5773 C   0  0  0  0  0  0  0  0  0  0  0  0
    3.4818    2.6904   17.0309 C   0  0  0  0  0  0  0  0  0  0  0  0
    3.8842    3.6935   17.8750 N   0  0  0  0  0  0  0  0  0  0  0  0
    4.3621    3.1697   19.0038 C   0  0  0  0  0  0  0  0  0  0  0  0
    4.8943    3.7750   20.1598 C   0  0  0  0  0  0  0  0  0  0  0  0
    5.3395    3.0301   21.2235 C   0  0  0  0  0  0  0  0  0  0  0  0
    5.2565    1.6648   21.1431 C   0  0  0  0  0  0  0  0  0  0  0  0
    4.7300    1.0614   19.9950 C   0  0  0  0  0  0  0  0  0  0  0  0
    4.2808    1.8220   18.9218 C   0  0  0  0  0  0  0  0  0  0  0  0
    3.7389    1.5612   17.7023 N   0  0  0  0  0  0  0  0  0  0  0  0
    3.5553    0.6081   17.3220 H   0  0  0  0  0  0  0  0  0  0  0  0
    5.9153    3.6872   22.4468 C   0  0  0  0  0  0  0  0  0  0  0  0
    6.1569    2.7422   23.4588 F   0  0  0  0  0  0  0  0  0  0  0  0
    5.1411    4.6936   22.9449 F   0  0  0  0  0  0  0  0  0  0  0  0
    7.1793    4.2309   22.1791 F   0  0  0  0  0  0  0  0  0  0  0  0
    0.5658    4.2468   11.5281 C   0  0  0  0  0  0  0  0  0  0  0  0
    0.3278    2.9891   10.8498 N   0  0  0  0  0  0  0  0  0  0  0  0
   -0.2285    2.6486    9.6263 C   0  0  0  0  0  0  0  0  0  0  0  0
   -0.6307    3.5615    8.8387 O   0  0  0  0  0  0  0  0  0  0  0  0
    0.6796    2.1429   11.4578 H   0  0  0  0  0  0  0  0  0  0  0  0
   -0.3769    1.2098    9.2087 C   0  0  0  0  0  0  0  0  0  0  0  0
   -1.8000    0.8161    9.0003 C   0  0  0  0  0  0  0  0  0  0  0  0
    0.2945    0.2939   10.1909 C   0  0  0  0  0  0  0  0  0  0  0  0
    0.3115    1.0117    7.8485 C   0  0  0  0  0  0  0  0  0  0  0  0
   -0.7044    4.5328   12.3172 C   0  0  0  0  0  0  0  0  0  0  0  0
   -2.8660    5.4846   11.7881 C   0  0  0  0  0  0  0  0  0  0  0  0
   -1.3722    5.8364   12.0931 C   0  0  0  0  0  0  0  0  0  0  0  0
   -1.5552    6.5145   13.5035 C   0  0  0  0  0  0  0  0  0  0  0  0
 33 34  1  0  0  0
 34 35  1  0  0  0
 34 32  1  0  0  0
 32 23  1  0  0  0
 23 24  1  0  0  0
 24 25  1  0  0  0
 25 26  2  0  0  0
 25 28  1  0  0  0
 28 29  1  0  0  0
 28 30  1  0  0  0
 28 31  1  0  0  0
 23  1  1  0  0  0
  1  2  2  0  0  0
  1  3  1  0  0  0
  3  4  1  0  0  0
  4  5  1  0  0  0
  5  6  1  0  0  0
  6  7  1  0  0  0
  7  8  1  0  0  0
  6  9  1  0  0  0
  9 10  2  0  0  0
 10 11  1  0  0  0
 11 12  2  0  0  0
 12 13  1  0  0  0
 13 14  2  0  0  0
 14 15  1  0  0  0
 15 16  2  0  0  0
 16 17  1  0  0  0
 13 19  1  0  0  0
 19 20  1  0  0  0
 19 21  1  0  0  0
 19 22  1  0  0  0
  8  3  1  0  0  0
 17  9  1  0  0  0
 16 11  1  0  0  0
 24 27  1  0  0  0
 17 18  1  0  0  0
M  END
> <minimizedAffinity>
-8.05031

> <CNNscore>
0.3166454136

> <CNNaffinity>
6.3922600746

> <CNN_VS>
2.0240797997

> <CNNaffinity_variance>
0.4818978906

$$$$
[H]c1nc(N([H])C(=O)[C@@]([H])(N([H])C(=O)c2c([H])c([H])c([H])c(C(F)(F)F)c2[H])C([H])([H])C([H])(C([H])([H])[H])C([H])([H])[H])c2c([H])c([H])n([H])c2n1


 33 35  0  0  0  0  0  0  0  0999 V2000
    4.5970    7.5742   18.8795 C   0  0  0  0  0  0  0  0  0  0  0  0
    3.9240    6.9539   17.7165 N   0  0  0  0  0  0  0  0  0  0  0  0
    4.1284    7.5060   16.4262 C   0  0  0  0  0  0  0  0  0  0  0  0
    4.8381    8.5021   16.2834 O   0  0  0  0  0  0  0  0  0  0  0  0
    3.3222    6.1387   17.8137 H   0  0  0  0  0  0  0  0  0  0  0  0
    3.4983    6.8655   15.2793 C   0  0  0  0  0  0  0  0  0  0  0  0
    2.6432    5.7554   15.4996 C   0  0  0  0  0  0  0  0  0  0  0  0
    1.9750    5.1777   14.4485 C   0  0  0  0  0  0  0  0  0  0  0  0
    2.0820    5.6197   13.1465 C   0  0  0  0  0  0  0  0  0  0  0  0
    2.9339    6.7227   12.9192 C   0  0  0  0  0  0  0  0  0  0  0  0
    3.5904    7.2846   13.9802 C   0  0  0  0  0  0  0  0  0  0  0  0
    3.0305    7.1829   11.5072 C   0  0  0  0  0  0  0  0  0  0  0  0
    2.5504    6.2257   10.6437 F   0  0  0  0  0  0  0  0  0  0  0  0
    4.3427    7.5330   11.1901 F   0  0  0  0  0  0  0  0  0  0  0  0
    2.2173    8.2987   11.3721 F   0  0  0  0  0  0  0  0  0  0  0  0
    4.7288    6.5050   19.8830 C   0  0  0  0  0  0  0  0  0  0  0  0
    5.9305    6.1607   20.2792 O   0  0  0  0  0  0  0  0  0  0  0  0
    3.6735    5.8002   20.4066 N   0  0  0  0  0  0  0  0  0  0  0  0
    2.6950    6.0381   20.1273 H   0  0  0  0  0  0  0  0  0  0  0  0
    3.8629    4.6719   21.3053 C   0  0  0  0  0  0  0  0  0  0  0  0
    3.7599    4.8092   22.6408 N   0  0  0  0  0  0  0  0  0  0  0  0
    3.9098    3.7712   23.4866 C   0  0  0  0  0  0  0  0  0  0  0  0
    4.1746    2.5297   23.0091 N   0  0  0  0  0  0  0  0  0  0  0  0
    4.2929    2.3036   21.7217 C   0  0  0  0  0  0  0  0  0  0  0  0
    4.6008    1.2154   21.0059 N   0  0  0  0  0  0  0  0  0  0  0  0
    4.6590    1.5282   19.7066 C   0  0  0  0  0  0  0  0  0  0  0  0
    4.3666    2.8879   19.5993 C   0  0  0  0  0  0  0  0  0  0  0  0
    4.1310    3.4073   20.8508 C   0  0  0  0  0  0  0  0  0  0  0  0
    4.7938    0.2411   21.3749 H   0  0  0  0  0  0  0  0  0  0  0  0
    4.0077    8.8263   19.3046 C   0  0  0  0  0  0  0  0  0  0  0  0
    6.3491    9.5134   19.0197 C   0  0  0  0  0  0  0  0  0  0  0  0
    5.0532    9.8368   19.7268 C   0  0  0  0  0  0  0  0  0  0  0  0
    5.1814    9.6625   21.2574 C   0  0  0  0  0  0  0  0  0  0  0  0
 31 32  1  0  0  0
 32 33  1  0  0  0
 32 30  1  0  0  0
 30  1  1  0  0  0
  1  2  1  0  0  0
  2  3  1  0  0  0
  3  4  2  0  0  0
  3  6  1  0  0  0
  6  7  2  0  0  0
  7  8  1  0  0  0
  8  9  2  0  0  0
  9 10  1  0  0  0
 10 11  2  0  0  0
 10 12  1  0  0  0
 12 13  1  0  0  0
 12 14  1  0  0  0
 12 15  1  0  0  0
  1 16  1  0  0  0
 16 17  2  0  0  0
 16 18  1  0  0  0
 18 20  1  0  0  0
 20 21  2  0  0  0
 21 22  1  0  0  0
 22 23  2  0  0  0
 23 24  1  0  0  0
 24 25  1  0  0  0
 25 26  1  0  0  0
 26 27  2  0  0  0
 27 28  1  0  0  0
 11  6  1  0  0  0
 28 20  1  0  0  0
 28 24  2  0  0  0
  2  5  1  0  0  0
 18 19  1  0  0  0
 25 29  1  0  0  0
M  END
> <minimizedAffinity>
-7.44114

> <CNNscore>
0.1734197140

> <CNNaffinity>
5.5926666260

> <CNN_VS>
0.9698786736

> <CNNaffinity_variance>
0.6208907962

$$$$
[H]c1nc(N([H])C(=O)[C@@]([H])(N([H])C(=O)c2c([H])c([H])c([H])c(C(F)(F)F)c2[H])C([H])([H])C([H])(C([H])([H])[H])C([H])([H])[H])c2c([H])c([H])n([H])c2n1


 33 35  0  0  0  0  0  0  0  0999 V2000
    2.3717    5.1627   13.2709 C   0  0  0  0  0  0  0  0  0  0  0  0
    1.8840    3.9924   12.5076 N   0  0  0  0  0  0  0  0  0  0  0  0
    2.7854    3.2956   11.6630 C   0  0  0  0  0  0  0  0  0  0  0  0
    3.9508    3.6769   11.5512 O   0  0  0  0  0  0  0  0  0  0  0  0
    0.9213    3.6684   12.5744 H   0  0  0  0  0  0  0  0  0  0  0  0
    2.3114    2.1183   10.9474 C   0  0  0  0  0  0  0  0  0  0  0  0
    0.9239    1.9913   10.6820 C   0  0  0  0  0  0  0  0  0  0  0  0
    0.4548    0.9325    9.9443 C   0  0  0  0  0  0  0  0  0  0  0  0
    1.2704   -0.0506    9.4246 C   0  0  0  0  0  0  0  0  0  0  0  0
    2.6529    0.0677    9.6873 C   0  0  0  0  0  0  0  0  0  0  0  0
    3.1003    1.1305   10.4240 C   0  0  0  0  0  0  0  0  0  0  0  0
    3.5124   -1.0032    9.1138 C   0  0  0  0  0  0  0  0  0  0  0  0
    3.5354   -0.9331    7.7402 F   0  0  0  0  0  0  0  0  0  0  0  0
    3.0904   -2.2603    9.5459 F   0  0  0  0  0  0  0  0  0  0  0  0
    4.8091   -0.7830    9.5551 F   0  0  0  0  0  0  0  0  0  0  0  0
    2.7140    4.6536   14.6092 C   0  0  0  0  0  0  0  0  0  0  0  0
    1.9873    5.0366   15.6313 O   0  0  0  0  0  0  0  0  0  0  0  0
    3.7820    3.8330   14.8756 N   0  0  0  0  0  0  0  0  0  0  0  0
    4.3901    3.4955   14.0958 H   0  0  0  0  0  0  0  0  0  0  0  0
    4.1505    3.4536   16.2310 C   0  0  0  0  0  0  0  0  0  0  0  0
    4.9468    4.2311   16.9889 N   0  0  0  0  0  0  0  0  0  0  0  0
    5.2799    3.9067   18.2535 C   0  0  0  0  0  0  0  0  0  0  0  0
    4.8137    2.7631   18.8141 N   0  0  0  0  0  0  0  0  0  0  0  0
    4.0325    1.9449   18.1485 C   0  0  0  0  0  0  0  0  0  0  0  0
    3.4939    0.7538   18.4359 N   0  0  0  0  0  0  0  0  0  0  0  0
    2.8186    0.2936   17.3769 C   0  0  0  0  0  0  0  0  0  0  0  0
    2.9353    1.2511   16.3692 C   0  0  0  0  0  0  0  0  0  0  0  0
    3.6942    2.3048   16.8223 C   0  0  0  0  0  0  0  0  0  0  0  0
    3.5801    0.2158   19.3446 H   0  0  0  0  0  0  0  0  0  0  0  0
    1.5068    6.3210   13.1931 C   0  0  0  0  0  0  0  0  0  0  0  0
   -0.0857    6.6426   11.3504 C   0  0  0  0  0  0  0  0  0  0  0  0
    0.1236    5.9696   12.6871 C   0  0  0  0  0  0  0  0  0  0  0  0
   -0.8450    6.5196   13.7590 C   0  0  0  0  0  0  0  0  0  0  0  0
 31 32  1  0  0  0
 32 33  1  0  0  0
 32 30  1  0  0  0
 30  1  1  0  0  0
  1  2  1  0  0  0
  2  3  1  0  0  0
  3  4  2  0  0  0
  3  6  1  0  0  0
  6  7  2  0  0  0
  7  8  1  0  0  0
  8  9  2  0  0  0
  9 10  1  0  0  0
 10 11  2  0  0  0
 10 12  1  0  0  0
 12 13  1  0  0  0
 12 14  1  0  0  0
 12 15  1  0  0  0
  1 16  1  0  0  0
 16 17  2  0  0  0
 16 18  1  0  0  0
 18 20  1  0  0  0
 20 21  2  0  0  0
 21 22  1  0  0  0
 22 23  2  0  0  0
 23 24  1  0  0  0
 24 25  1  0  0  0
 25 26  1  0  0  0
 26 27  2  0  0  0
 27 28  1  0  0  0
 11  6  1  0  0  0
 28 20  1  0  0  0
 28 24  2  0  0  0
  2  5  1  0  0  0
 18 19  1  0  0  0
 25 29  1  0  0  0
M  END
> <minimizedAffinity>
-6.57176

> <CNNscore>
0.1329497695

> <CNNaffinity>
5.5196909904

> <CNN_VS>
0.7338416576

> <CNNaffinity_variance>
0.2770102322

$$$$
[H]c1nc(N([H])C(=O)[C@@]([H])(N([H])C(=O)c2c([H])c([H])c([H])c(C(F)(F)F)c2[H])C([H])([H])C([H])(C([H])([H])[H])C([H])([H])[H])c2c([H])c([H])n([H])c2n1


 33 35  0  0  0  0  0  0  0  0999 V2000
    4.0558    5.4753   15.8112 C   0  0  0  0  0  0  0  0  0  0  0  0
    3.4799    4.2717   16.4513 N   0  0  0  0  0  0  0  0  0  0  0  0
    4.3532    3.2892   16.9840 C   0  0  0  0  0  0  0  0  0  0  0  0
    5.5731    3.4288   16.8919 O   0  0  0  0  0  0  0  0  0  0  0  0
    2.4747    4.1296   16.5259 H   0  0  0  0  0  0  0  0  0  0  0  0
    3.7812    2.1274   17.6515 C   0  0  0  0  0  0  0  0  0  0  0  0
    3.0247    1.2025   16.8872 C   0  0  0  0  0  0  0  0  0  0  0  0
    2.5366    0.0591   17.4702 C   0  0  0  0  0  0  0  0  0  0  0  0
    2.7401   -0.2630   18.7956 C   0  0  0  0  0  0  0  0  0  0  0  0
    3.4900    0.6547   19.5634 C   0  0  0  0  0  0  0  0  0  0  0  0
    3.9680    1.7880   18.9637 C   0  0  0  0  0  0  0  0  0  0  0  0
    3.6984    0.2838   20.9895 C   0  0  0  0  0  0  0  0  0  0  0  0
    2.6924    0.7874   21.7811 F   0  0  0  0  0  0  0  0  0  0  0  0
    4.9492    0.7114   21.4339 F   0  0  0  0  0  0  0  0  0  0  0  0
    3.6333   -1.0992   21.0781 F   0  0  0  0  0  0  0  0  0  0  0  0
    4.4375    6.3719   16.9148 C   0  0  0  0  0  0  0  0  0  0  0  0
    5.6613    6.8419   16.9471 O   0  0  0  0  0  0  0  0  0  0  0  0
    3.6084    6.7191   17.9524 N   0  0  0  0  0  0  0  0  0  0  0  0
    2.6219    6.3748   17.9720 H   0  0  0  0  0  0  0  0  0  0  0  0
    4.0688    7.5112   19.0826 C   0  0  0  0  0  0  0  0  0  0  0  0
    4.0052    8.8562   19.0735 N   0  0  0  0  0  0  0  0  0  0  0  0
    4.4058    9.6046   20.1197 C   0  0  0  0  0  0  0  0  0  0  0  0
    4.8959    9.0142   21.2380 N   0  0  0  0  0  0  0  0  0  0  0  0
    4.9950    7.7090   21.3343 C   0  0  0  0  0  0  0  0  0  0  0  0
    5.4842    6.8931   22.2757 N   0  0  0  0  0  0  0  0  0  0  0  0
    5.4135    5.6243   21.8582 C   0  0  0  0  0  0  0  0  0  0  0  0
    4.8437    5.6434   20.5851 C   0  0  0  0  0  0  0  0  0  0  0  0
    4.5680    6.9416   20.2246 C   0  0  0  0  0  0  0  0  0  0  0  0
    5.8906    7.1709   23.2140 H   0  0  0  0  0  0  0  0  0  0  0  0
    3.2417    6.0261   14.7484 C   0  0  0  0  0  0  0  0  0  0  0  0
    2.3592    4.4133   13.1189 C   0  0  0  0  0  0  0  0  0  0  0  0
    2.0626    5.1378   14.4115 C   0  0  0  0  0  0  0  0  0  0  0  0
    0.8654    6.1040   14.2606 C   0  0  0  0  0  0  0  0  0  0  0  0
 31 32  1  0  0  0
 32 33  1  0  0  0
 32 30  1  0  0  0
 30  1  1  0  0  0
  1  2  1  0  0  0
  2  3  1  0  0  0
  3  4  2  0  0  0
  3  6  1  0  0  0
  6  7  2  0  0  0
  7  8  1  0  0  0
  8  9  2  0  0  0
  9 10  1  0  0  0
 10 11  2  0  0  0
 10 12  1  0  0  0
 12 13  1  0  0  0
 12 14  1  0  0  0
 12 15  1  0  0  0
  1 16  1  0  0  0
 16 17  2  0  0  0
 16 18  1  0  0  0
 18 20  1  0  0  0
 20 21  2  0  0  0
 21 22  1  0  0  0
 22 23  2  0  0  0
 23 24  1  0  0  0
 24 25  1  0  0  0
 25 26  1  0  0  0
 26 27  2  0  0  0
 27 28  1  0  0  0
 11  6  1  0  0  0
 28 20  1  0  0  0
 28 24  2  0  0  0
  2  5  1  0  0  0
 18 19  1  0  0  0
 25 29  1  0  0  0
M  END
> <minimizedAffinity>
-8.54973

> <CNNscore>
0.1182416603

> <CNNaffinity>
6.0326910019

> <CNN_VS>
0.7133154273

> <CNNaffinity_variance>
0.2129534483

$$$$
[H]c1nc(N([H])C(=O)[C@@]([H])(N([H])C(=O)c2c([H])c([H])c([H])c(C(F)(F)F)c2[H])C([H])([H])C([H])(C([H])([H])[H])C([H])([H])[H])c2c([H])c([H])n([H])c2n1


 33 35  0  0  0  0  0  0  0  0999 V2000
    4.0995    7.1828   18.6181 C   0  0  0  0  0  0  0  0  0  0  0  0
    3.5305    6.7014   17.3395 N   0  0  0  0  0  0  0  0  0  0  0  0
    4.3139    5.8591   16.5099 C   0  0  0  0  0  0  0  0  0  0  0  0
    5.4598    5.5542   16.8417 O   0  0  0  0  0  0  0  0  0  0  0  0
    2.5908    6.9523   17.0394 H   0  0  0  0  0  0  0  0  0  0  0  0
    3.7332    5.3528   15.2733 C   0  0  0  0  0  0  0  0  0  0  0  0
    3.5915    6.2355   14.1721 C   0  0  0  0  0  0  0  0  0  0  0  0
    3.1187    5.7710   12.9696 C   0  0  0  0  0  0  0  0  0  0  0  0
    2.7602    4.4573   12.7517 C   0  0  0  0  0  0  0  0  0  0  0  0
    2.8959    3.5733   13.8446 C   0  0  0  0  0  0  0  0  0  0  0  0
    3.3694    4.0557   15.0343 C   0  0  0  0  0  0  0  0  0  0  0  0
    2.5056    2.1610   13.5841 C   0  0  0  0  0  0  0  0  0  0  0  0
    2.9079    1.7624   12.3305 F   0  0  0  0  0  0  0  0  0  0  0  0
    1.1314    1.9895   13.7490 F   0  0  0  0  0  0  0  0  0  0  0  0
    3.1760    1.3637   14.5003 F   0  0  0  0  0  0  0  0  0  0  0  0
    3.9030    6.0871   19.5816 C   0  0  0  0  0  0  0  0  0  0  0  0
    2.7297    5.5043   19.6388 O   0  0  0  0  0  0  0  0  0  0  0  0
    4.8574    5.6564   20.4695 N   0  0  0  0  0  0  0  0  0  0  0  0
    5.8105    6.0848   20.4622 H   0  0  0  0  0  0  0  0  0  0  0  0
    4.5773    4.6515   21.4836 C   0  0  0  0  0  0  0  0  0  0  0  0
    4.1349    4.9909   22.7093 N   0  0  0  0  0  0  0  0  0  0  0  0
    3.8490    4.0728   23.6530 C   0  0  0  0  0  0  0  0  0  0  0  0
    4.0011    2.7506   23.3924 N   0  0  0  0  0  0  0  0  0  0  0  0
    4.4281    2.3288   22.2252 C   0  0  0  0  0  0  0  0  0  0  0  0
    4.7153    1.1162   21.7369 N   0  0  0  0  0  0  0  0  0  0  0  0
    5.1888    1.2290   20.4910 C   0  0  0  0  0  0  0  0  0  0  0  0
    5.1951    2.5881   20.1769 C   0  0  0  0  0  0  0  0  0  0  0  0
    4.7218    3.3094   21.2480 C   0  0  0  0  0  0  0  0  0  0  0  0
    4.6141    0.1863   22.2346 H   0  0  0  0  0  0  0  0  0  0  0  0
    3.6525    8.5048   19.0031 C   0  0  0  0  0  0  0  0  0  0  0  0
    6.0595    8.8955   18.7044 C   0  0  0  0  0  0  0  0  0  0  0  0
    4.8059    9.4148   19.3696 C   0  0  0  0  0  0  0  0  0  0  0  0
    4.9040    9.3338   20.9102 C   0  0  0  0  0  0  0  0  0  0  0  0
 31 32  1  0  0  0
 32 33  1  0  0  0
 32 30  1  0  0  0
 30  1  1  0  0  0
  1  2  1  0  0  0
  2  3  1  0  0  0
  3  4  2  0  0  0
  3  6  1  0  0  0
  6  7  2  0  0  0
  7  8  1  0  0  0
  8  9  2  0  0  0
  9 10  1  0  0  0
 10 11  2  0  0  0
 10 12  1  0  0  0
 12 13  1  0  0  0
 12 14  1  0  0  0
 12 15  1  0  0  0
  1 16  1  0  0  0
 16 17  2  0  0  0
 16 18  1  0  0  0
 18 20  1  0  0  0
 20 21  2  0  0  0
 21 22  1  0  0  0
 22 23  2  0  0  0
 23 24  1  0  0  0
 24 25  1  0  0  0
 25 26  1  0  0  0
 26 27  2  0  0  0
 27 28  1  0  0  0
 11  6  1  0  0  0
 28 20  1  0  0  0
 28 24  2  0  0  0
  2  5  1  0  0  0
 18 19  1  0  0  0
 25 29  1  0  0  0
M  END
> <minimizedAffinity>
-8.09319

> <CNNscore>
0.1136074439

> <CNNaffinity>
5.8387665749

> <CNN_VS>
0.6633273363

> <CNNaffinity_variance>
0.6197923422

$$$$
[H]c1nc(N([H])C(=O)[C@@]([H])(N([H])C(=O)c2c([H])c([H])c([H])c(C(F)(F)F)c2[H])C([H])([H])C([H])(C([H])([H])[H])C([H])([H])[H])c2c([H])c([H])n([H])c2n1


 33 35  0  0  0  0  0  0  0  0999 V2000
    3.1918    4.4127   12.7411 C   0  0  0  0  0  0  0  0  0  0  0  0
    3.1894    3.3806   13.8018 N   0  0  0  0  0  0  0  0  0  0  0  0
    3.6602    3.7205   15.0957 C   0  0  0  0  0  0  0  0  0  0  0  0
    4.0862    4.8532   15.3227 O   0  0  0  0  0  0  0  0  0  0  0  0
    2.8546    2.4343   13.6323 H   0  0  0  0  0  0  0  0  0  0  0  0
    3.6151    2.7132   16.1475 C   0  0  0  0  0  0  0  0  0  0  0  0
    3.0691    1.4381   15.8511 C   0  0  0  0  0  0  0  0  0  0  0  0
    3.0815    0.4434   16.7975 C   0  0  0  0  0  0  0  0  0  0  0  0
    3.6084    0.6054   18.0616 C   0  0  0  0  0  0  0  0  0  0  0  0
    4.1512    1.8733   18.3647 C   0  0  0  0  0  0  0  0  0  0  0  0
    4.1297    2.8511   17.4077 C   0  0  0  0  0  0  0  0  0  0  0  0
    4.7161    2.0226   19.7334 C   0  0  0  0  0  0  0  0  0  0  0  0
    5.5232    3.1336   19.8143 F   0  0  0  0  0  0  0  0  0  0  0  0
    5.4065    0.8713   20.1116 F   0  0  0  0  0  0  0  0  0  0  0  0
    3.6564    2.2240   20.6059 F   0  0  0  0  0  0  0  0  0  0  0  0
    1.8332    4.4070   12.1738 C   0  0  0  0  0  0  0  0  0  0  0  0
    1.4467    3.3631   11.4807 O   0  0  0  0  0  0  0  0  0  0  0  0
    0.9459    5.4493   12.2790 N   0  0  0  0  0  0  0  0  0  0  0  0
    1.2031    6.3027   12.8244 H   0  0  0  0  0  0  0  0  0  0  0  0
   -0.3405    5.4454   11.5994 C   0  0  0  0  0  0  0  0  0  0  0  0
   -1.4456    4.9460   12.1847 N   0  0  0  0  0  0  0  0  0  0  0  0
   -2.6493    4.9547   11.5794 C   0  0  0  0  0  0  0  0  0  0  0  0
   -2.7882    5.4776   10.3357 N   0  0  0  0  0  0  0  0  0  0  0  0
   -1.7647    5.9852    9.6896 C   0  0  0  0  0  0  0  0  0  0  0  0
   -1.6177    6.4985    8.4624 N   0  0  0  0  0  0  0  0  0  0  0  0
   -0.3360    6.8204    8.2555 C   0  0  0  0  0  0  0  0  0  0  0  0
    0.3607    6.4957    9.4196 C   0  0  0  0  0  0  0  0  0  0  0  0
   -0.5099    5.9669   10.3436 C   0  0  0  0  0  0  0  0  0  0  0  0
   -2.3720    6.6304    7.7300 H   0  0  0  0  0  0  0  0  0  0  0  0
    4.3050    4.3118   11.8212 C   0  0  0  0  0  0  0  0  0  0  0  0
    4.2061    4.7927    9.4140 C   0  0  0  0  0  0  0  0  0  0  0  0
    4.2950    5.4178   10.7871 C   0  0  0  0  0  0  0  0  0  0  0  0
    5.6342    6.1634   10.9872 C   0  0  0  0  0  0  0  0  0  0  0  0
 31 32  1  0  0  0
 32 33  1  0  0  0
 32 30  1  0  0  0
 30  1  1  0  0  0
  1  2  1  0  0  0
  2  3  1  0  0  0
  3  4  2  0  0  0
  3  6  1  0  0  0
  6  7  2  0  0  0
  7  8  1  0  0  0
  8  9  2  0  0  0
  9 10  1  0  0  0
 10 11  2  0  0  0
 10 12  1  0  0  0
 12 13  1  0  0  0
 12 14  1  0  0  0
 12 15  1  0  0  0
  1 16  1  0  0  0
 16 17  2  0  0  0
 16 18  1  0  0  0
 18 20  1  0  0  0
 20 21  2  0  0  0
 21 22  1  0  0  0
 22 23  2  0  0  0
 23 24  1  0  0  0
 24 25  1  0  0  0
 25 26  1  0  0  0
 26 27  2  0  0  0
 27 28  1  0  0  0
 11  6  1  0  0  0
 28 20  1  0  0  0
 28 24  2  0  0  0
  2  5  1  0  0  0
 18 19  1  0  0  0
 25 29  1  0  0  0
M  END
> <minimizedAffinity>
-6.77658

> <CNNscore>
0.1052456647

> <CNNaffinity>
5.3391742706

> <CNN_VS>
0.5619249344

> <CNNaffinity_variance>
0.4177594185

$$$$
[H]c1nc(N([H])C(=O)[C@@]([H])(N([H])C(=O)c2c([H])c([H])c([H])c(C(F)(F)F)c2[H])C([H])([H])C([H])(C([H])([H])[H])C([H])([H])[H])c2c([H])c([H])n([H])c2n1


 33 35  0  0  0  0  0  0  0  0999 V2000
    3.2897    5.8982   13.2437 C   0  0  0  0  0  0  0  0  0  0  0  0
    3.3088    4.6671   14.0648 N   0  0  0  0  0  0  0  0  0  0  0  0
    3.7565    4.7413   15.4085 C   0  0  0  0  0  0  0  0  0  0  0  0
    4.1451    5.8129   15.8742 O   0  0  0  0  0  0  0  0  0  0  0  0
    3.0051    3.7684   13.6958 H   0  0  0  0  0  0  0  0  0  0  0  0
    3.7323    3.5352   16.2254 C   0  0  0  0  0  0  0  0  0  0  0  0
    3.3009    2.3187   15.6372 C   0  0  0  0  0  0  0  0  0  0  0  0
    3.3385    1.1505   16.3577 C   0  0  0  0  0  0  0  0  0  0  0  0
    3.7841    1.0767   17.6607 C   0  0  0  0  0  0  0  0  0  0  0  0
    4.2125    2.2845   18.2538 C   0  0  0  0  0  0  0  0  0  0  0  0
    4.1677    3.4379   17.5188 C   0  0  0  0  0  0  0  0  0  0  0  0
    4.6913    2.1788   19.6589 C   0  0  0  0  0  0  0  0  0  0  0  0
    3.6335    2.1215   20.5364 F   0  0  0  0  0  0  0  0  0  0  0  0
    5.5461    3.2358   19.9707 F   0  0  0  0  0  0  0  0  0  0  0  0
    5.3851    0.9834   19.7778 F   0  0  0  0  0  0  0  0  0  0  0  0
    1.8679    6.2131   13.0272 C   0  0  0  0  0  0  0  0  0  0  0  0
    1.5602    7.2929   12.3498 O   0  0  0  0  0  0  0  0  0  0  0  0
    0.8259    5.4740   13.5300 N   0  0  0  0  0  0  0  0  0  0  0  0
    1.0169    4.6019   14.0731 H   0  0  0  0  0  0  0  0  0  0  0  0
   -0.5607    5.8918   13.3908 C   0  0  0  0  0  0  0  0  0  0  0  0
   -1.1506    6.6917   14.2992 N   0  0  0  0  0  0  0  0  0  0  0  0
   -2.4264    7.1068   14.1747 C   0  0  0  0  0  0  0  0  0  0  0  0
   -3.1716    6.7239   13.1082 N   0  0  0  0  0  0  0  0  0  0  0  0
   -2.6785    5.9444   12.1745 C   0  0  0  0  0  0  0  0  0  0  0  0
   -3.2007    5.3842   11.0769 N   0  0  0  0  0  0  0  0  0  0  0  0
   -2.2872    4.6061   10.4858 C   0  0  0  0  0  0  0  0  0  0  0  0
   -1.1243    4.6854   11.2521 C   0  0  0  0  0  0  0  0  0  0  0  0
   -1.3366    5.5205   12.3240 C   0  0  0  0  0  0  0  0  0  0  0  0
   -4.1872    5.4997   10.7079 H   0  0  0  0  0  0  0  0  0  0  0  0
    4.1514    5.8468   12.0816 C   0  0  0  0  0  0  0  0  0  0  0  0
    5.7694    4.3834   10.9521 C   0  0  0  0  0  0  0  0  0  0  0  0
    4.4196    4.4266   11.6302 C   0  0  0  0  0  0  0  0  0  0  0  0
    3.2761    4.0991   10.6429 C   0  0  0  0  0  0  0  0  0  0  0  0
 31 32  1  0  0  0
 32 33  1  0  0  0
 32 30  1  0  0  0
 30  1  1  0  0  0
  1  2  1  0  0  0
  2  3  1  0  0  0
  3  4  2  0  0  0
  3  6  1  0  0  0
  6  7  2  0  0  0
  7  8  1  0  0  0
  8  9  2  0  0  0
  9 10  1  0  0  0
 10 11  2  0  0  0
 10 12  1  0  0  0
 12 13  1  0  0  0
 12 14  1  0  0  0
 12 15  1  0  0  0
  1 16  1  0  0  0
 16 17  2  0  0  0
 16 18  1  0  0  0
 18 20  1  0  0  0
 20 21  2  0  0  0
 21 22  1  0  0  0
 22 23  2  0  0  0
 23 24  1  0  0  0
 24 25  1  0  0  0
 25 26  1  0  0  0
 26 27  2  0  0  0
 27 28  1  0  0  0
 11  6  1  0  0  0
 28 20  1  0  0  0
 28 24  2  0  0  0
  2  5  1  0  0  0
 18 19  1  0  0  0
 25 29  1  0  0  0
M  END
> <minimizedAffinity>
-7.34802

> <CNNscore>
0.0992617682

> <CNNaffinity>
5.2457056046

> <CNN_VS>
0.5206980109

> <CNNaffinity_variance>
0.2541215420

$$$$
[H]c1nc(N([H])C(=O)[C@@]([H])(N([H])C(=O)c2c([H])c([H])c([H])c(C(F)(F)F)c2[H])C([H])([H])C([H])(C([H])([H])[H])C([H])([H])[H])c2c([H])c([H])n([H])c2n1


 33 35  0  0  0  0  0  0  0  0999 V2000
    4.3442    3.2674   19.6986 C   0  0  0  0  0  0  0  0  0  0  0  0
    3.9920    3.5405   18.2874 N   0  0  0  0  0  0  0  0  0  0  0  0
    3.4762    2.4877   17.4891 C   0  0  0  0  0  0  0  0  0  0  0  0
    3.3470    1.3579   17.9613 O   0  0  0  0  0  0  0  0  0  0  0  0
    4.1037    4.4635   17.8729 H   0  0  0  0  0  0  0  0  0  0  0  0
    3.0905    2.7724   16.1133 C   0  0  0  0  0  0  0  0  0  0  0  0
    3.1886    1.7387   15.1471 C   0  0  0  0  0  0  0  0  0  0  0  0
    2.7617    1.9523   13.8597 C   0  0  0  0  0  0  0  0  0  0  0  0
    2.2239    3.1463   13.4271 C   0  0  0  0  0  0  0  0  0  0  0  0
    2.1258    4.1811   14.3830 C   0  0  0  0  0  0  0  0  0  0  0  0
    2.5563    3.9479   15.6607 C   0  0  0  0  0  0  0  0  0  0  0  0
    1.5399    5.4583   13.8930 C   0  0  0  0  0  0  0  0  0  0  0  0
    0.6028    5.2261   12.9131 F   0  0  0  0  0  0  0  0  0  0  0  0
    2.5393    6.3186   13.4388 F   0  0  0  0  0  0  0  0  0  0  0  0
    0.8780    6.0529   14.9575 F   0  0  0  0  0  0  0  0  0  0  0  0
    4.8021    4.5521   20.2529 C   0  0  0  0  0  0  0  0  0  0  0  0
    3.9522    5.5491   20.3115 O   0  0  0  0  0  0  0  0  0  0  0  0
    6.0846    4.8001   20.6752 N   0  0  0  0  0  0  0  0  0  0  0  0
    6.7994    4.0382   20.6534 H   0  0  0  0  0  0  0  0  0  0  0  0
    6.5195    6.1209   21.1031 C   0  0  0  0  0  0  0  0  0  0  0  0
    6.3703    6.5343   22.3758 N   0  0  0  0  0  0  0  0  0  0  0  0
    6.7875    7.7449   22.7948 C   0  0  0  0  0  0  0  0  0  0  0  0
    7.3832    8.6028   21.9296 N   0  0  0  0  0  0  0  0  0  0  0  0
    7.5688    8.2839   20.6700 C   0  0  0  0  0  0  0  0  0  0  0  0
    8.0640    8.9481   19.6189 N   0  0  0  0  0  0  0  0  0  0  0  0
    7.9720    8.1917   18.5195 C   0  0  0  0  0  0  0  0  0  0  0  0
    7.3908    6.9826   18.9019 C   0  0  0  0  0  0  0  0  0  0  0  0
    7.1241    7.0074   20.2509 C   0  0  0  0  0  0  0  0  0  0  0  0
    8.4612    9.9304   19.6128 H   0  0  0  0  0  0  0  0  0  0  0  0
    5.1989    2.1134   19.8815 C   0  0  0  0  0  0  0  0  0  0  0  0
    6.5564    1.2878   21.7553 C   0  0  0  0  0  0  0  0  0  0  0  0
    5.1461    1.5807   21.2978 C   0  0  0  0  0  0  0  0  0  0  0  0
    4.2978    0.2916   21.2079 C   0  0  0  0  0  0  0  0  0  0  0  0
 31 32  1  0  0  0
 32 33  1  0  0  0
 32 30  1  0  0  0
 30  1  1  0  0  0
  1  2  1  0  0  0
  2  3  1  0  0  0
  3  4  2  0  0  0
  3  6  1  0  0  0
  6  7  2  0  0  0
  7  8  1  0  0  0
  8  9  2  0  0  0
  9 10  1  0  0  0
 10 11  2  0  0  0
 10 12  1  0  0  0
 12 13  1  0  0  0
 12 14  1  0  0  0
 12 15  1  0  0  0
  1 16  1  0  0  0
 16 17  2  0  0  0
 16 18  1  0  0  0
 18 20  1  0  0  0
 20 21  2  0  0  0
 21 22  1  0  0  0
 22 23  2  0  0  0
 23 24  1  0  0  0
 24 25  1  0  0  0
 25 26  1  0  0  0
 26 27  2  0  0  0
 27 28  1  0  0  0
 11  6  1  0  0  0
 28 20  1  0  0  0
 28 24  2  0  0  0
  2  5  1  0  0  0
 18 19  1  0  0  0
 25 29  1  0  0  0
M  END
> <minimizedAffinity>
-7.88217

> <CNNscore>
0.0950212255

> <CNNaffinity>
5.8264455795

> <CNN_VS>
0.5536360145

> <CNNaffinity_variance>
0.2214739621

$$$$
[H]c1nc(N([H])C(=O)[C@@]([H])(N([H])C(=O)c2c([H])c([H])c([H])c(C(F)(F)F)c2[H])C([H])([H])C([H])(C([H])([H])[H])C([H])([H])[H])c2c([H])c([H])n([H])c2n1


 33 35  0  0  0  0  0  0  0  0999 V2000
    3.7693    7.3191   18.6516 C   0  0  0  0  0  0  0  0  0  0  0  0
    3.5572    6.3608   19.7592 N   0  0  0  0  0  0  0  0  0  0  0  0
    4.5752    5.4210   20.0625 C   0  0  0  0  0  0  0  0  0  0  0  0
    5.6099    5.3911   19.3956 O   0  0  0  0  0  0  0  0  0  0  0  0
    2.7039    6.3588   20.3143 H   0  0  0  0  0  0  0  0  0  0  0  0
    4.3795    4.5087   21.1815 C   0  0  0  0  0  0  0  0  0  0  0  0
    4.2965    5.0422   22.4931 C   0  0  0  0  0  0  0  0  0  0  0  0
    4.0367    4.2178   23.5600 C   0  0  0  0  0  0  0  0  0  0  0  0
    3.8431    2.8578   23.4384 C   0  0  0  0  0  0  0  0  0  0  0  0
    3.9271    2.3192   22.1357 C   0  0  0  0  0  0  0  0  0  0  0  0
    4.1864    3.1576   21.0858 C   0  0  0  0  0  0  0  0  0  0  0  0
    3.7119    0.8505   22.0299 C   0  0  0  0  0  0  0  0  0  0  0  0
    3.5325    0.2885   23.2726 F   0  0  0  0  0  0  0  0  0  0  0  0
    4.7687    0.2435   21.3518 F   0  0  0  0  0  0  0  0  0  0  0  0
    2.5389    0.6477   21.3175 F   0  0  0  0  0  0  0  0  0  0  0  0
    3.5673    6.5501   17.4125 C   0  0  0  0  0  0  0  0  0  0  0  0
    4.4202    6.7087   16.4292 O   0  0  0  0  0  0  0  0  0  0  0  0
    2.5102    5.7027   17.1908 N   0  0  0  0  0  0  0  0  0  0  0  0
    1.8046    5.5378   17.9438 H   0  0  0  0  0  0  0  0  0  0  0  0
    2.2886    5.0575   15.9058 C   0  0  0  0  0  0  0  0  0  0  0  0
    1.7839    5.7324   14.8557 N   0  0  0  0  0  0  0  0  0  0  0  0
    1.5932    5.1571   13.6524 C   0  0  0  0  0  0  0  0  0  0  0  0
    1.9104    3.8529   13.4573 N   0  0  0  0  0  0  0  0  0  0  0  0
    2.4068    3.1183   14.4250 C   0  0  0  0  0  0  0  0  0  0  0  0
    2.7429    1.8259   14.5157 N   0  0  0  0  0  0  0  0  0  0  0  0
    3.1453    1.5478   15.7607 C   0  0  0  0  0  0  0  0  0  0  0  0
    3.0619    2.7326   16.4922 C   0  0  0  0  0  0  0  0  0  0  0  0
    2.5999    3.7421   15.6805 C   0  0  0  0  0  0  0  0  0  0  0  0
    2.6954    1.0977   13.7475 H   0  0  0  0  0  0  0  0  0  0  0  0
    4.9837    8.0983   18.7690 C   0  0  0  0  0  0  0  0  0  0  0  0
    4.8655    9.3896   20.8555 C   0  0  0  0  0  0  0  0  0  0  0  0
    4.7284    9.4718   19.3528 C   0  0  0  0  0  0  0  0  0  0  0  0
    3.2829    9.8220   18.9316 C   0  0  0  0  0  0  0  0  0  0  0  0
 31 32  1  0  0  0
 32 33  1  0  0  0
 32 30  1  0  0  0
 30  1  1  0  0  0
  1  2  1  0  0  0
  2  3  1  0  0  0
  3  4  2  0  0  0
  3  6  1  0  0  0
  6  7  2  0  0  0
  7  8  1  0  0  0
  8  9  2  0  0  0
  9 10  1  0  0  0
 10 11  2  0  0  0
 10 12  1  0  0  0
 12 13  1  0  0  0
 12 14  1  0  0  0
 12 15  1  0  0  0
  1 16  1  0  0  0
 16 17  2  0  0  0
 16 18  1  0  0  0
 18 20  1  0  0  0
 20 21  2  0  0  0
 21 22  1  0  0  0
 22 23  2  0  0  0
 23 24  1  0  0  0
 24 25  1  0  0  0
 25 26  1  0  0  0
 26 27  2  0  0  0
 27 28  1  0  0  0
 11  6  1  0  0  0
 28 20  1  0  0  0
 28 24  2  0  0  0
  2  5  1  0  0  0
 18 19  1  0  0  0
 25 29  1  0  0  0
M  END
> <minimizedAffinity>
-8.98180

> <CNNscore>
0.0895085335

> <CNNaffinity>
5.9747495651

> <CNN_VS>
0.5347910523

> <CNNaffinity_variance>
0.2264693975

$$$$
[H]c1nc(N([H])C(=O)[C@@]([H])(N([H])C(=O)c2c([H])c([H])c([H])c(C(F)(F)F)c2[H])C([H])([H])C([H])(C([H])([H])[H])C([H])([H])[H])c2c([H])c([H])n([H])c2n1


 33 35  0  0  0  0  0  0  0  0999 V2000
    3.7061    4.4428   16.7079 C   0  0  0  0  0  0  0  0  0  0  0  0
    3.4410    3.5257   17.8387 N   0  0  0  0  0  0  0  0  0  0  0  0
    4.4892    3.2301   18.7472 C   0  0  0  0  0  0  0  0  0  0  0  0
    5.6092    3.7135   18.5799 O   0  0  0  0  0  0  0  0  0  0  0  0
    2.5265    3.1042   17.9879 H   0  0  0  0  0  0  0  0  0  0  0  0
    4.2112    2.3613   19.8832 C   0  0  0  0  0  0  0  0  0  0  0  0
    3.6579    1.0774   19.6436 C   0  0  0  0  0  0  0  0  0  0  0  0
    3.4551    0.2062   20.6853 C   0  0  0  0  0  0  0  0  0  0  0  0
    3.7647    0.5051   21.9956 C   0  0  0  0  0  0  0  0  0  0  0  0
    4.3133    1.7827   22.2420 C   0  0  0  0  0  0  0  0  0  0  0  0
    4.5081    2.6361   21.1902 C   0  0  0  0  0  0  0  0  0  0  0  0
    4.6417    2.0806   23.6626 C   0  0  0  0  0  0  0  0  0  0  0  0
    4.0965    3.2820   24.0523 F   0  0  0  0  0  0  0  0  0  0  0  0
    6.0215    2.0658   23.8647 F   0  0  0  0  0  0  0  0  0  0  0  0
    4.0575    1.0949   24.4448 F   0  0  0  0  0  0  0  0  0  0  0  0
    4.0355    5.7428   17.3153 C   0  0  0  0  0  0  0  0  0  0  0  0
    4.9930    6.4612   16.7799 O   0  0  0  0  0  0  0  0  0  0  0  0
    3.4371    6.2434   18.4449 N   0  0  0  0  0  0  0  0  0  0  0  0
    2.6655    5.7122   18.9078 H   0  0  0  0  0  0  0  0  0  0  0  0
    3.8799    7.4772   19.0763 C   0  0  0  0  0  0  0  0  0  0  0  0
    3.5489    8.6830   18.5768 N   0  0  0  0  0  0  0  0  0  0  0  0
    3.9310    9.8355   19.1608 C   0  0  0  0  0  0  0  0  0  0  0  0
    4.6763    9.8166   20.2937 N   0  0  0  0  0  0  0  0  0  0  0  0
    5.0456    8.6865   20.8499 C   0  0  0  0  0  0  0  0  0  0  0  0
    5.8109    8.3917   21.9076 N   0  0  0  0  0  0  0  0  0  0  0  0
    5.9383    7.0649   22.0201 C   0  0  0  0  0  0  0  0  0  0  0  0
    5.2083    6.4937   20.9775 C   0  0  0  0  0  0  0  0  0  0  0  0
    4.6331    7.4877   20.2210 C   0  0  0  0  0  0  0  0  0  0  0  0
    6.2776    9.0752   22.5692 H   0  0  0  0  0  0  0  0  0  0  0  0
    2.6889    4.4203   15.6780 C   0  0  0  0  0  0  0  0  0  0  0  0
    2.2629    4.2272   13.2663 C   0  0  0  0  0  0  0  0  0  0  0  0
    3.1991    3.8254   14.3825 C   0  0  0  0  0  0  0  0  0  0  0  0
    3.1866    2.2969   14.6131 C   0  0  0  0  0  0  0  0  0  0  0  0
 31 32  1  0  0  0
 32 33  1  0  0  0
 32 30  1  0  0  0
 30  1  1  0  0  0
  1  2  1  0  0  0
  2  3  1  0  0  0
  3  4  2  0  0  0
  3  6  1  0  0  0
  6  7  2  0  0  0
  7  8  1  0  0  0
  8  9  2  0  0  0
  9 10  1  0  0  0
 10 11  2  0  0  0
 10 12  1  0  0  0
 12 13  1  0  0  0
 12 14  1  0  0  0
 12 15  1  0  0  0
  1 16  1  0  0  0
 16 17  2  0  0  0
 16 18  1  0  0  0
 18 20  1  0  0  0
 20 21  2  0  0  0
 21 22  1  0  0  0
 22 23  2  0  0  0
 23 24  1  0  0  0
 24 25  1  0  0  0
 25 26  1  0  0  0
 26 27  2  0  0  0
 27 28  1  0  0  0
 11  6  1  0  0  0
 28 20  1  0  0  0
 28 24  2  0  0  0
  2  5  1  0  0  0
 18 19  1  0  0  0
 25 29  1  0  0  0
M  END
> <minimizedAffinity>
-8.50685

> <CNNscore>
0.0826227516

> <CNNaffinity>
5.8804974556

> <CNN_VS>
0.4858628809

> <CNNaffinity_variance>
0.3019202352

$$$$
