[H]c1c([H])c([H])c(C(=C2C(=O)N(N([H])C(=O)C([H])([H])C([H])([H])C([H])([H])C([H])([H])C([H])([H])C([H])([H])C([H])([H])C([H])([H])C([H])([H])C([H])([H])C([H])([H])c3c([H])c([H])c(OC([H])([H])[H])c([H])c3[H])c3c([H])c([H])c([H])c([H])c32)c2c([H])c([H])c([H])c([H])c2[H])c([H])c1[H]


 46 50  0  0  0  0  0  0  0  0999 V2000
    2.9473    3.9091   14.6143 C   0  0  0  0  0  0  0  0  0  0  0  0
    2.0521    4.3184   15.3828 O   0  0  0  0  0  0  0  0  0  0  0  0
    4.0530    3.2065   15.1966 N   0  0  0  0  0  0  0  0  0  0  0  0
    4.8175    2.8587   14.5449 H   0  0  0  0  0  0  0  0  0  0  0  0
    4.1263    2.9842   16.5713 N   0  0  0  0  0  0  0  0  0  0  0  0
    4.6763    3.9378   17.4870 C   0  0  0  0  0  0  0  0  0  0  0  0
    5.1547    5.0624   17.1479 O   0  0  0  0  0  0  0  0  0  0  0  0
    4.6176    3.4399   18.8595 C   0  0  0  0  0  0  0  0  0  0  0  0
    4.9206    4.0282   19.9752 C   0  0  0  0  0  0  0  0  0  0  0  0
    3.9827    2.0988   18.7013 C   0  0  0  0  0  0  0  0  0  0  0  0
    3.6020    1.1012   19.5632 C   0  0  0  0  0  0  0  0  0  0  0  0
    2.9897   -0.0595   19.0903 C   0  0  0  0  0  0  0  0  0  0  0  0
    2.7474   -0.2408   17.7533 C   0  0  0  0  0  0  0  0  0  0  0  0
    3.1086    0.7274   16.8746 C   0  0  0  0  0  0  0  0  0  0  0  0
    3.7215    1.8896   17.3526 C   0  0  0  0  0  0  0  0  0  0  0  0
    4.9980    3.4090   21.3022 C   0  0  0  0  0  0  0  0  0  0  0  0
    4.0601    3.7591   22.2532 C   0  0  0  0  0  0  0  0  0  0  0  0
    4.1066    3.3026   23.5605 C   0  0  0  0  0  0  0  0  0  0  0  0
    5.1363    2.4614   23.9259 C   0  0  0  0  0  0  0  0  0  0  0  0
    6.0856    2.1022   22.9789 C   0  0  0  0  0  0  0  0  0  0  0  0
    6.0326    2.5607   21.6794 C   0  0  0  0  0  0  0  0  0  0  0  0
    5.3871    5.4343   19.9655 C   0  0  0  0  0  0  0  0  0  0  0  0
    6.6908    5.7883   19.9669 C   0  0  0  0  0  0  0  0  0  0  0  0
    7.0063    7.1380   19.9591 C   0  0  0  0  0  0  0  0  0  0  0  0
    6.0001    8.0768   19.9503 C   0  0  0  0  0  0  0  0  0  0  0  0
    4.6636    7.7246   19.9488 C   0  0  0  0  0  0  0  0  0  0  0  0
    4.3631    6.3836   19.9563 C   0  0  0  0  0  0  0  0  0  0  0  0
    2.8717    4.1359   13.1775 C   0  0  0  0  0  0  0  0  0  0  0  0
    4.1438    4.0472   12.4325 C   0  0  0  0  0  0  0  0  0  0  0  0
    4.2668    4.9732   11.2501 C   0  0  0  0  0  0  0  0  0  0  0  0
    4.0192    6.4054   11.6758 C   0  0  0  0  0  0  0  0  0  0  0  0
    2.9203    7.0825   10.9335 C   0  0  0  0  0  0  0  0  0  0  0  0
    2.2656    8.1993   11.7091 C   0  0  0  0  0  0  0  0  0  0  0  0
    0.8898    7.8309   12.1939 C   0  0  0  0  0  0  0  0  0  0  0  0
    0.8333    7.1390   13.4790 C   0  0  0  0  0  0  0  0  0  0  0  0
   -0.4119    6.6650   14.0732 C   0  0  0  0  0  0  0  0  0  0  0  0
   -1.6064    6.3726   13.2541 C   0  0  0  0  0  0  0  0  0  0  0  0
   -1.5880    5.2123   12.3344 C   0  0  0  0  0  0  0  0  0  0  0  0
   -5.4639    5.2242   10.5665 C   0  0  0  0  0  0  0  0  0  0  0  0
   -5.1754    6.1035   11.5590 C   0  0  0  0  0  0  0  0  0  0  0  0
   -3.8950    6.0837   12.1271 C   0  0  0  0  0  0  0  0  0  0  0  0
   -2.9557    5.1838   11.6780 C   0  0  0  0  0  0  0  0  0  0  0  0
   -3.2278    4.2894   10.6785 C   0  0  0  0  0  0  0  0  0  0  0  0
   -4.5023    4.3297   10.1333 C   0  0  0  0  0  0  0  0  0  0  0  0
   -7.7333    4.3002   10.3261 C   0  0  0  0  0  0  0  0  0  0  0  0
   -6.7149    5.1834    9.9526 O   0  0  0  0  0  0  0  0  0  0  0  0
 45 46  1  0  0  0
 46 39  1  0  0  0
 39 40  2  0  0  0
 40 41  1  0  0  0
 41 42  2  0  0  0
 42 38  1  0  0  0
 38 37  1  0  0  0
 37 36  1  0  0  0
 36 35  1  0  0  0
 35 34  1  0  0  0
 34 33  1  0  0  0
 33 32  1  0  0  0
 32 31  1  0  0  0
 31 30  1  0  0  0
 30 29  1  0  0  0
 29 28  1  0  0  0
 28  1  1  0  0  0
  1  2  2  0  0  0
  1  3  1  0  0  0
  3  5  1  0  0  0
  5  6  1  0  0  0
  6  7  2  0  0  0
  6  8  1  0  0  0
  8  9  2  0  0  0
  9 22  1  0  0  0
 22 23  2  0  0  0
 23 24  1  0  0  0
 24 25  2  0  0  0
 25 26  1  0  0  0
 26 27  2  0  0  0
  9 16  1  0  0  0
 16 17  2  0  0  0
 17 18  1  0  0  0
 18 19  2  0  0  0
 19 20  1  0  0  0
 20 21  2  0  0  0
  8 10  1  0  0  0
 10 11  2  0  0  0
 11 12  1  0  0  0
 12 13  2  0  0  0
 13 14  1  0  0  0
 14 15  2  0  0  0
 42 43  1  0  0  0
 43 44  2  0  0  0
 44 39  1  0  0  0
 15  5  1  0  0  0
 27 22  1  0  0  0
 21 16  1  0  0  0
 15 10  1  0  0  0
  3  4  1  0  0  0
M  END
> <minimizedAffinity>
-8.60069

> <CNNscore>
0.1902743429

> <CNNaffinity>
6.7570257187

> <CNN_VS>
1.2856886387

> <CNNaffinity_variance>
0.5892623067

$$$$
[H]c1c([H])c([H])c(C(=C2C(=O)N(N([H])C(=O)C([H])([H])C([H])([H])C([H])([H])C([H])([H])C([H])([H])C([H])([H])C([H])([H])C([H])([H])C([H])([H])C([H])([H])C([H])([H])c3c([H])c([H])c(OC([H])([H])[H])c([H])c3[H])c3c([H])c([H])c([H])c([H])c32)c2c([H])c([H])c([H])c([H])c2[H])c([H])c1[H]


 46 50  0  0  0  0  0  0  0  0999 V2000
    3.7998    6.3013   15.1294 C   0  0  0  0  0  0  0  0  0  0  0  0
    2.7124    6.0996   15.7093 O   0  0  0  0  0  0  0  0  0  0  0  0
    4.9929    5.8353   15.7733 N   0  0  0  0  0  0  0  0  0  0  0  0
    5.9201    6.0075   15.2826 H   0  0  0  0  0  0  0  0  0  0  0  0
    4.9427    5.1771   17.0017 N   0  0  0  0  0  0  0  0  0  0  0  0
    5.3141    5.8008   18.2360 C   0  0  0  0  0  0  0  0  0  0  0  0
    5.7293    6.9949   18.3382 O   0  0  0  0  0  0  0  0  0  0  0  0
    5.1561    4.8774   19.3574 C   0  0  0  0  0  0  0  0  0  0  0  0
    5.2926    5.0796   20.6315 C   0  0  0  0  0  0  0  0  0  0  0  0
    4.6550    3.6355   18.6993 C   0  0  0  0  0  0  0  0  0  0  0  0
    4.2722    2.3940   19.1409 C   0  0  0  0  0  0  0  0  0  0  0  0
    3.8107    1.4266   18.2480 C   0  0  0  0  0  0  0  0  0  0  0  0
    3.7233    1.6839   16.9044 C   0  0  0  0  0  0  0  0  0  0  0  0
    4.0909    2.9024   16.4353 C   0  0  0  0  0  0  0  0  0  0  0  0
    4.5523    3.8695   17.3334 C   0  0  0  0  0  0  0  0  0  0  0  0
    5.2845    4.0629   21.6882 C   0  0  0  0  0  0  0  0  0  0  0  0
    4.2446    4.0589   22.5967 C   0  0  0  0  0  0  0  0  0  0  0  0
    4.1980    3.2016   23.6841 C   0  0  0  0  0  0  0  0  0  0  0  0
    5.2375    2.3137   23.8652 C   0  0  0  0  0  0  0  0  0  0  0  0
    6.2888    2.3082   22.9587 C   0  0  0  0  0  0  0  0  0  0  0  0
    6.3281    3.1647   21.8786 C   0  0  0  0  0  0  0  0  0  0  0  0
    5.6388    6.4304   21.1318 C   0  0  0  0  0  0  0  0  0  0  0  0
    4.7370    7.4251   21.2807 C   0  0  0  0  0  0  0  0  0  0  0  0
    5.1799    8.6492   21.7566 C   0  0  0  0  0  0  0  0  0  0  0  0
    6.5099    8.8246   22.0634 C   0  0  0  0  0  0  0  0  0  0  0  0
    7.4400    7.8132   21.9146 C   0  0  0  0  0  0  0  0  0  0  0  0
    6.9891    6.6039   21.4422 C   0  0  0  0  0  0  0  0  0  0  0  0
    3.8554    6.9846   13.8443 C   0  0  0  0  0  0  0  0  0  0  0  0
    2.5844    7.0821   13.0986 C   0  0  0  0  0  0  0  0  0  0  0  0
    2.7155    7.4398   11.6407 C   0  0  0  0  0  0  0  0  0  0  0  0
    4.1614    7.3363   11.2019 C   0  0  0  0  0  0  0  0  0  0  0  0
    4.3434    7.1483    9.7361 C   0  0  0  0  0  0  0  0  0  0  0  0
    3.3233    6.2266    9.1136 C   0  0  0  0  0  0  0  0  0  0  0  0
    2.7421    6.7881    7.8446 C   0  0  0  0  0  0  0  0  0  0  0  0
    1.7470    7.8437    8.0143 C   0  0  0  0  0  0  0  0  0  0  0  0
    1.6379    8.9862    7.1138 C   0  0  0  0  0  0  0  0  0  0  0  0
    2.7933    9.4820    6.3375 C   0  0  0  0  0  0  0  0  0  0  0  0
    4.1155    9.5895    6.9952 C   0  0  0  0  0  0  0  0  0  0  0  0
    7.0602    9.4242    3.9212 C   0  0  0  0  0  0  0  0  0  0  0  0
    7.2338   10.2633    4.9735 C   0  0  0  0  0  0  0  0  0  0  0  0
    6.2541   10.3026    5.9740 C   0  0  0  0  0  0  0  0  0  0  0  0
    5.1402    9.5000    5.8797 C   0  0  0  0  0  0  0  0  0  0  0  0
    4.9474    8.6477    4.8264 C   0  0  0  0  0  0  0  0  0  0  0  0
    5.9318    8.6280    3.8499 C   0  0  0  0  0  0  0  0  0  0  0  0
    9.1352    8.5271    2.9459 C   0  0  0  0  0  0  0  0  0  0  0  0
    7.9907    9.3292    2.8874 O   0  0  0  0  0  0  0  0  0  0  0  0
 45 46  1  0  0  0
 46 39  1  0  0  0
 39 40  2  0  0  0
 40 41  1  0  0  0
 41 42  2  0  0  0
 42 38  1  0  0  0
 38 37  1  0  0  0
 37 36  1  0  0  0
 36 35  1  0  0  0
 35 34  1  0  0  0
 34 33  1  0  0  0
 33 32  1  0  0  0
 32 31  1  0  0  0
 31 30  1  0  0  0
 30 29  1  0  0  0
 29 28  1  0  0  0
 28  1  1  0  0  0
  1  2  2  0  0  0
  1  3  1  0  0  0
  3  5  1  0  0  0
  5  6  1  0  0  0
  6  7  2  0  0  0
  6  8  1  0  0  0
  8  9  2  0  0  0
  9 22  1  0  0  0
 22 23  2  0  0  0
 23 24  1  0  0  0
 24 25  2  0  0  0
 25 26  1  0  0  0
 26 27  2  0  0  0
  9 16  1  0  0  0
 16 17  2  0  0  0
 17 18  1  0  0  0
 18 19  2  0  0  0
 19 20  1  0  0  0
 20 21  2  0  0  0
  8 10  1  0  0  0
 10 11  2  0  0  0
 11 12  1  0  0  0
 12 13  2  0  0  0
 13 14  1  0  0  0
 14 15  2  0  0  0
 42 43  1  0  0  0
 43 44  2  0  0  0
 44 39  1  0  0  0
 15  5  1  0  0  0
 27 22  1  0  0  0
 21 16  1  0  0  0
 15 10  1  0  0  0
  3  4  1  0  0  0
M  END
> <minimizedAffinity>
-8.36834

> <CNNscore>
0.1058533862

> <CNNaffinity>
6.0866432190

> <CNN_VS>
0.6442918181

> <CNNaffinity_variance>
0.5344523191

$$$$
[H]c1c([H])c([H])c(C(=C2C(=O)N(N([H])C(=O)C([H])([H])C([H])([H])C([H])([H])C([H])([H])C([H])([H])C([H])([H])C([H])([H])C([H])([H])C([H])([H])C([H])([H])C([H])([H])c3c([H])c([H])c(OC([H])([H])[H])c([H])c3[H])c3c([H])c([H])c([H])c([H])c32)c2c([H])c([H])c([H])c([H])c2[H])c([H])c1[H]


 46 50  0  0  0  0  0  0  0  0999 V2000
    4.3798    5.5629   18.0904 C   0  0  0  0  0  0  0  0  0  0  0  0
    5.3721    5.9798   17.4572 O   0  0  0  0  0  0  0  0  0  0  0  0
    4.0499    6.2237   19.3190 N   0  0  0  0  0  0  0  0  0  0  0  0
    3.2067    5.8694   19.8611 H   0  0  0  0  0  0  0  0  0  0  0  0
    4.8067    7.2960   19.7902 N   0  0  0  0  0  0  0  0  0  0  0  0
    6.0170    7.1276   20.5366 C   0  0  0  0  0  0  0  0  0  0  0  0
    6.5145    6.0036   20.8497 O   0  0  0  0  0  0  0  0  0  0  0  0
    6.5968    8.4207   20.8925 C   0  0  0  0  0  0  0  0  0  0  0  0
    7.7218    8.6999   21.4750 C   0  0  0  0  0  0  0  0  0  0  0  0
    5.6344    9.3933   20.2972 C   0  0  0  0  0  0  0  0  0  0  0  0
    5.5650   10.7617   20.2210 C   0  0  0  0  0  0  0  0  0  0  0  0
    4.5155   11.3897   19.5499 C   0  0  0  0  0  0  0  0  0  0  0  0
    3.5230   10.6630   18.9451 C   0  0  0  0  0  0  0  0  0  0  0  0
    3.5634    9.3083   18.9991 C   0  0  0  0  0  0  0  0  0  0  0  0
    4.6171    8.6825   19.6721 C   0  0  0  0  0  0  0  0  0  0  0  0
    8.1609   10.0146   21.9536 C   0  0  0  0  0  0  0  0  0  0  0  0
    9.0874   10.7163   21.2081 C   0  0  0  0  0  0  0  0  0  0  0  0
    9.6338   11.9194   21.6248 C   0  0  0  0  0  0  0  0  0  0  0  0
    9.2331   12.4371   22.8385 C   0  0  0  0  0  0  0  0  0  0  0  0
    8.3022   11.7409   23.5973 C   0  0  0  0  0  0  0  0  0  0  0  0
    7.7628   10.5438   23.1758 C   0  0  0  0  0  0  0  0  0  0  0  0
    8.6458    7.6072   21.8584 C   0  0  0  0  0  0  0  0  0  0  0  0
    8.5885    6.9628   23.0443 C   0  0  0  0  0  0  0  0  0  0  0  0
    9.5090    5.9564   23.2916 C   0  0  0  0  0  0  0  0  0  0  0  0
   10.4492    5.6383   22.3384 C   0  0  0  0  0  0  0  0  0  0  0  0
   10.5159    6.2917   21.1223 C   0  0  0  0  0  0  0  0  0  0  0  0
    9.5979    7.2875   20.8883 C   0  0  0  0  0  0  0  0  0  0  0  0
    3.5847    4.4459   17.5989 C   0  0  0  0  0  0  0  0  0  0  0  0
    2.3729    4.7928   16.8293 C   0  0  0  0  0  0  0  0  0  0  0  0
    2.5664    5.8250   15.7487 C   0  0  0  0  0  0  0  0  0  0  0  0
    3.1791    5.1894   14.5181 C   0  0  0  0  0  0  0  0  0  0  0  0
    2.2152    4.4219   13.6822 C   0  0  0  0  0  0  0  0  0  0  0  0
    2.7311    3.0708   13.2509 C   0  0  0  0  0  0  0  0  0  0  0  0
    3.3394    2.2990   14.3902 C   0  0  0  0  0  0  0  0  0  0  0  0
    2.4712    1.3085   15.0216 C   0  0  0  0  0  0  0  0  0  0  0  0
    2.3265    1.1842   16.4679 C   0  0  0  0  0  0  0  0  0  0  0  0
    3.1082    0.2039   17.2496 C   0  0  0  0  0  0  0  0  0  0  0  0
    2.5251   -0.3684   18.4845 C   0  0  0  0  0  0  0  0  0  0  0  0
    4.2838    1.6642   21.7896 C   0  0  0  0  0  0  0  0  0  0  0  0
    3.3423    0.7121   22.0101 C   0  0  0  0  0  0  0  0  0  0  0  0
    2.7763    0.0552   20.9099 C   0  0  0  0  0  0  0  0  0  0  0  0
    3.1764    0.3787   19.6335 C   0  0  0  0  0  0  0  0  0  0  0  0
    4.1241    1.3358   19.3910 C   0  0  0  0  0  0  0  0  0  0  0  0
    4.6684    1.9709   20.4972 C   0  0  0  0  0  0  0  0  0  0  0  0
    6.1472    2.9700   22.7299 C   0  0  0  0  0  0  0  0  0  0  0  0
    4.8923    2.3608   22.8328 O   0  0  0  0  0  0  0  0  0  0  0  0
 45 46  1  0  0  0
 46 39  1  0  0  0
 39 40  2  0  0  0
 40 41  1  0  0  0
 41 42  2  0  0  0
 42 38  1  0  0  0
 38 37  1  0  0  0
 37 36  1  0  0  0
 36 35  1  0  0  0
 35 34  1  0  0  0
 34 33  1  0  0  0
 33 32  1  0  0  0
 32 31  1  0  0  0
 31 30  1  0  0  0
 30 29  1  0  0  0
 29 28  1  0  0  0
 28  1  1  0  0  0
  1  2  2  0  0  0
  1  3  1  0  0  0
  3  5  1  0  0  0
  5  6  1  0  0  0
  6  7  2  0  0  0
  6  8  1  0  0  0
  8  9  2  0  0  0
  9 22  1  0  0  0
 22 23  2  0  0  0
 23 24  1  0  0  0
 24 25  2  0  0  0
 25 26  1  0  0  0
 26 27  2  0  0  0
  9 16  1  0  0  0
 16 17  2  0  0  0
 17 18  1  0  0  0
 18 19  2  0  0  0
 19 20  1  0  0  0
 20 21  2  0  0  0
  8 10  1  0  0  0
 10 11  2  0  0  0
 11 12  1  0  0  0
 12 13  2  0  0  0
 13 14  1  0  0  0
 14 15  2  0  0  0
 42 43  1  0  0  0
 43 44  2  0  0  0
 44 39  1  0  0  0
 15  5  1  0  0  0
 27 22  1  0  0  0
 21 16  1  0  0  0
 15 10  1  0  0  0
  3  4  1  0  0  0
M  END
> <minimizedAffinity>
-8.69348

> <CNNscore>
0.1006773114

> <CNNaffinity>
6.9962358475

> <CNN_VS>
0.7043622136

> <CNNaffinity_variance>
0.5235046148

$$$$
[H]c1c([H])c([H])c(C(=C2C(=O)N(N([H])C(=O)C([H])([H])C([H])([H])C([H])([H])C([H])([H])C([H])([H])C([H])([H])C([H])([H])C([H])([H])C([H])([H])C([H])([H])C([H])([H])c3c([H])c([H])c(OC([H])([H])[H])c([H])c3[H])c3c([H])c([H])c([H])c([H])c32)c2c([H])c([H])c([H])c([H])c2[H])c([H])c1[H]


 46 50  0  0  0  0  0  0  0  0999 V2000
    4.5543    3.6490   22.9263 C   0  0  0  0  0  0  0  0  0  0  0  0
    3.6860    4.5016   23.2069 O   0  0  0  0  0  0  0  0  0  0  0  0
    5.4884    3.9690   21.8870 N   0  0  0  0  0  0  0  0  0  0  0  0
    6.2274    3.2441   21.6448 H   0  0  0  0  0  0  0  0  0  0  0  0
    5.4333    5.1894   21.2146 N   0  0  0  0  0  0  0  0  0  0  0  0
    6.2318    6.3194   21.5832 C   0  0  0  0  0  0  0  0  0  0  0  0
    7.0529    6.3309   22.5499 O   0  0  0  0  0  0  0  0  0  0  0  0
    5.9699    7.4553   20.7022 C   0  0  0  0  0  0  0  0  0  0  0  0
    6.5465    8.6158   20.6417 C   0  0  0  0  0  0  0  0  0  0  0  0
    4.9418    6.9192   19.7629 C   0  0  0  0  0  0  0  0  0  0  0  0
    4.2698    7.4200   18.6763 C   0  0  0  0  0  0  0  0  0  0  0  0
    3.3596    6.6323   17.9713 C   0  0  0  0  0  0  0  0  0  0  0  0
    3.1083    5.3357   18.3385 C   0  0  0  0  0  0  0  0  0  0  0  0
    3.7581    4.8090   19.4063 C   0  0  0  0  0  0  0  0  0  0  0  0
    4.6701    5.6014   20.1100 C   0  0  0  0  0  0  0  0  0  0  0  0
    6.1174    9.7695   19.8447 C   0  0  0  0  0  0  0  0  0  0  0  0
    6.8388   10.1001   18.7146 C   0  0  0  0  0  0  0  0  0  0  0  0
    6.5703   11.2255   17.9524 C   0  0  0  0  0  0  0  0  0  0  0  0
    5.5364   12.0507   18.3416 C   0  0  0  0  0  0  0  0  0  0  0  0
    4.8039   11.7291   19.4761 C   0  0  0  0  0  0  0  0  0  0  0  0
    5.0771   10.6071   20.2297 C   0  0  0  0  0  0  0  0  0  0  0  0
    7.6740    8.9283   21.5504 C   0  0  0  0  0  0  0  0  0  0  0  0
    8.9626    8.6367   21.2689 C   0  0  0  0  0  0  0  0  0  0  0  0
    9.9326    8.9763   22.1989 C   0  0  0  0  0  0  0  0  0  0  0  0
    9.5691    9.5946   23.3735 C   0  0  0  0  0  0  0  0  0  0  0  0
    8.2537    9.8970   23.6706 C   0  0  0  0  0  0  0  0  0  0  0  0
    7.3008    9.5558   22.7407 C   0  0  0  0  0  0  0  0  0  0  0  0
    4.6174    2.3751   23.6296 C   0  0  0  0  0  0  0  0  0  0  0  0
    3.6630    1.3368   23.1911 C   0  0  0  0  0  0  0  0  0  0  0  0
    4.1813    0.3807   22.1481 C   0  0  0  0  0  0  0  0  0  0  0  0
    3.4214    0.5565   20.8498 C   0  0  0  0  0  0  0  0  0  0  0  0
    4.1944    1.2409   19.7769 C   0  0  0  0  0  0  0  0  0  0  0  0
    3.4752    1.2898   18.4510 C   0  0  0  0  0  0  0  0  0  0  0  0
    4.4166    1.4935   17.2953 C   0  0  0  0  0  0  0  0  0  0  0  0
    4.0488    2.5486   16.3546 C   0  0  0  0  0  0  0  0  0  0  0  0
    2.8240    2.5168   15.5627 C   0  0  0  0  0  0  0  0  0  0  0  0
    2.7932    1.9609   14.1940 C   0  0  0  0  0  0  0  0  0  0  0  0
    1.5175    1.9567   13.4423 C   0  0  0  0  0  0  0  0  0  0  0  0
    2.5093    2.1595    9.3043 C   0  0  0  0  0  0  0  0  0  0  0  0
    1.5411    1.3055    9.7220 C   0  0  0  0  0  0  0  0  0  0  0  0
    1.2296    1.2540   11.0869 C   0  0  0  0  0  0  0  0  0  0  0  0
    1.9008    2.0600   11.9777 C   0  0  0  0  0  0  0  0  0  0  0  0
    2.8801    2.9273   11.5757 C   0  0  0  0  0  0  0  0  0  0  0  0
    3.1692    2.9589   10.2198 C   0  0  0  0  0  0  0  0  0  0  0  0
    4.1211    2.7358    7.5346 C   0  0  0  0  0  0  0  0  0  0  0  0
    2.8747    2.2673    7.9631 O   0  0  0  0  0  0  0  0  0  0  0  0
 45 46  1  0  0  0
 46 39  1  0  0  0
 39 40  2  0  0  0
 40 41  1  0  0  0
 41 42  2  0  0  0
 42 38  1  0  0  0
 38 37  1  0  0  0
 37 36  1  0  0  0
 36 35  1  0  0  0
 35 34  1  0  0  0
 34 33  1  0  0  0
 33 32  1  0  0  0
 32 31  1  0  0  0
 31 30  1  0  0  0
 30 29  1  0  0  0
 29 28  1  0  0  0
 28  1  1  0  0  0
  1  2  2  0  0  0
  1  3  1  0  0  0
  3  5  1  0  0  0
  5  6  1  0  0  0
  6  7  2  0  0  0
  6  8  1  0  0  0
  8  9  2  0  0  0
  9 22  1  0  0  0
 22 23  2  0  0  0
 23 24  1  0  0  0
 24 25  2  0  0  0
 25 26  1  0  0  0
 26 27  2  0  0  0
  9 16  1  0  0  0
 16 17  2  0  0  0
 17 18  1  0  0  0
 18 19  2  0  0  0
 19 20  1  0  0  0
 20 21  2  0  0  0
  8 10  1  0  0  0
 10 11  2  0  0  0
 11 12  1  0  0  0
 12 13  2  0  0  0
 13 14  1  0  0  0
 14 15  2  0  0  0
 42 43  1  0  0  0
 43 44  2  0  0  0
 44 39  1  0  0  0
 15  5  1  0  0  0
 27 22  1  0  0  0
 21 16  1  0  0  0
 15 10  1  0  0  0
  3  4  1  0  0  0
M  END
> <minimizedAffinity>
-7.76403

> <CNNscore>
0.0990222543

> <CNNaffinity>
6.8740777969

> <CNN_VS>
0.6806866527

> <CNNaffinity_variance>
0.3546701372

$$$$
[H]c1c([H])c([H])c(C(=C2C(=O)N(N([H])C(=O)C([H])([H])C([H])([H])C([H])([H])C([H])([H])C([H])([H])C([H])([H])C([H])([H])C([H])([H])C([H])([H])C([H])([H])C([H])([H])c3c([H])c([H])c(OC([H])([H])[H])c([H])c3[H])c3c([H])c([H])c([H])c([H])c32)c2c([H])c([H])c([H])c([H])c2[H])c([H])c1[H]


 46 50  0  0  0  0  0  0  0  0999 V2000
    2.8686    3.8122   14.7665 C   0  0  0  0  0  0  0  0  0  0  0  0
    1.9554    4.2024   15.5237 O   0  0  0  0  0  0  0  0  0  0  0  0
    4.0116    3.1913   15.3689 N   0  0  0  0  0  0  0  0  0  0  0  0
    4.7914    2.8600   14.7267 H   0  0  0  0  0  0  0  0  0  0  0  0
    4.1010    3.0250   16.7506 N   0  0  0  0  0  0  0  0  0  0  0  0
    4.6190    4.0335   17.6253 C   0  0  0  0  0  0  0  0  0  0  0  0
    5.0519    5.1618   17.2400 O   0  0  0  0  0  0  0  0  0  0  0  0
    4.5870    3.5870   19.0161 C   0  0  0  0  0  0  0  0  0  0  0  0
    4.8733    4.2290   20.1064 C   0  0  0  0  0  0  0  0  0  0  0  0
    4.0033    2.2175   18.9138 C   0  0  0  0  0  0  0  0  0  0  0  0
    3.6660    1.2401   19.8160 C   0  0  0  0  0  0  0  0  0  0  0  0
    3.0961    0.0395   19.3920 C   0  0  0  0  0  0  0  0  0  0  0  0
    2.8537   -0.2023   18.0647 C   0  0  0  0  0  0  0  0  0  0  0  0
    3.1725    0.7443   17.1471 C   0  0  0  0  0  0  0  0  0  0  0  0
    3.7429    1.9467   17.5760 C   0  0  0  0  0  0  0  0  0  0  0  0
    4.9818    3.6648   21.4555 C   0  0  0  0  0  0  0  0  0  0  0  0
    5.9718    2.7360   21.7084 C   0  0  0  0  0  0  0  0  0  0  0  0
    6.0943    2.0771   22.9210 C   0  0  0  0  0  0  0  0  0  0  0  0
    5.1858    2.3629   23.9182 C   0  0  0  0  0  0  0  0  0  0  0  0
    4.1857    3.2947   23.6761 C   0  0  0  0  0  0  0  0  0  0  0  0
    4.0703    3.9466   22.4664 C   0  0  0  0  0  0  0  0  0  0  0  0
    5.2853    5.6505   20.0396 C   0  0  0  0  0  0  0  0  0  0  0  0
    4.4121    6.6810   20.0252 C   0  0  0  0  0  0  0  0  0  0  0  0
    4.9165    7.9703   19.9589 C   0  0  0  0  0  0  0  0  0  0  0  0
    6.2769    8.1721   19.9097 C   0  0  0  0  0  0  0  0  0  0  0  0
    7.1783    7.1245   19.9240 C   0  0  0  0  0  0  0  0  0  0  0  0
    6.6664    5.8507   19.9901 C   0  0  0  0  0  0  0  0  0  0  0  0
    2.7765    3.9805   13.3226 C   0  0  0  0  0  0  0  0  0  0  0  0
    3.8430    4.7803   12.6869 C   0  0  0  0  0  0  0  0  0  0  0  0
    4.0152    4.5674   11.2052 C   0  0  0  0  0  0  0  0  0  0  0  0
    2.6923    4.1916   10.5707 C   0  0  0  0  0  0  0  0  0  0  0  0
    2.7856    3.0978    9.5648 C   0  0  0  0  0  0  0  0  0  0  0  0
    1.5358    2.2575    9.4679 C   0  0  0  0  0  0  0  0  0  0  0  0
    0.3776    2.8645   10.2121 C   0  0  0  0  0  0  0  0  0  0  0  0
   -0.6494    3.4931    9.3854 C   0  0  0  0  0  0  0  0  0  0  0  0
   -1.5492    4.5273    9.8844 C   0  0  0  0  0  0  0  0  0  0  0  0
   -1.0453    5.7460   10.5507 C   0  0  0  0  0  0  0  0  0  0  0  0
   -1.0143    5.8027   12.0300 C   0  0  0  0  0  0  0  0  0  0  0  0
    2.3676    8.2404   12.9067 C   0  0  0  0  0  0  0  0  0  0  0  0
    2.0160    8.0185   11.6149 C   0  0  0  0  0  0  0  0  0  0  0  0
    0.9006    7.2142   11.3477 C   0  0  0  0  0  0  0  0  0  0  0  0
    0.1827    6.6648   12.3853 C   0  0  0  0  0  0  0  0  0  0  0  0
    0.5217    6.8769   13.6942 C   0  0  0  0  0  0  0  0  0  0  0  0
    1.6297    7.6765   13.9314 C   0  0  0  0  0  0  0  0  0  0  0  0
    3.6199    9.6360   14.5022 C   0  0  0  0  0  0  0  0  0  0  0  0
    3.4643    9.0290   13.2516 O   0  0  0  0  0  0  0  0  0  0  0  0
 45 46  1  0  0  0
 46 39  1  0  0  0
 39 40  2  0  0  0
 40 41  1  0  0  0
 41 42  2  0  0  0
 42 38  1  0  0  0
 38 37  1  0  0  0
 37 36  1  0  0  0
 36 35  1  0  0  0
 35 34  1  0  0  0
 34 33  1  0  0  0
 33 32  1  0  0  0
 32 31  1  0  0  0
 31 30  1  0  0  0
 30 29  1  0  0  0
 29 28  1  0  0  0
 28  1  1  0  0  0
  1  2  2  0  0  0
  1  3  1  0  0  0
  3  5  1  0  0  0
  5  6  1  0  0  0
  6  7  2  0  0  0
  6  8  1  0  0  0
  8  9  2  0  0  0
  9 22  1  0  0  0
 22 23  2  0  0  0
 23 24  1  0  0  0
 24 25  2  0  0  0
 25 26  1  0  0  0
 26 27  2  0  0  0
  9 16  1  0  0  0
 16 17  2  0  0  0
 17 18  1  0  0  0
 18 19  2  0  0  0
 19 20  1  0  0  0
 20 21  2  0  0  0
  8 10  1  0  0  0
 10 11  2  0  0  0
 11 12  1  0  0  0
 12 13  2  0  0  0
 13 14  1  0  0  0
 14 15  2  0  0  0
 42 43  1  0  0  0
 43 44  2  0  0  0
 44 39  1  0  0  0
 15  5  1  0  0  0
 27 22  1  0  0  0
 21 16  1  0  0  0
 15 10  1  0  0  0
  3  4  1  0  0  0
M  END
> <minimizedAffinity>
-7.76253

> <CNNscore>
0.0980233103

> <CNNaffinity>
6.8768410683

> <CNN_VS>
0.6740907431

> <CNNaffinity_variance>
0.4757846892

$$$$
[H]c1c([H])c([H])c(C(=C2C(=O)N(N([H])C(=O)C([H])([H])C([H])([H])C([H])([H])C([H])([H])C([H])([H])C([H])([H])C([H])([H])C([H])([H])C([H])([H])C([H])([H])C([H])([H])c3c([H])c([H])c(OC([H])([H])[H])c([H])c3[H])c3c([H])c([H])c([H])c([H])c32)c2c([H])c([H])c([H])c([H])c2[H])c([H])c1[H]


 46 50  0  0  0  0  0  0  0  0999 V2000
    3.4530    5.7253   16.4726 C   0  0  0  0  0  0  0  0  0  0  0  0
    4.5789    5.2302   16.2565 O   0  0  0  0  0  0  0  0  0  0  0  0
    3.2786    6.4777   17.6803 N   0  0  0  0  0  0  0  0  0  0  0  0
    2.3205    6.8987   17.8676 H   0  0  0  0  0  0  0  0  0  0  0  0
    4.3283    6.6544   18.5812 N   0  0  0  0  0  0  0  0  0  0  0  0
    4.4534    5.8977   19.7904 C   0  0  0  0  0  0  0  0  0  0  0  0
    3.6311    5.0084   20.1668 O   0  0  0  0  0  0  0  0  0  0  0  0
    5.6491    6.2909   20.5326 C   0  0  0  0  0  0  0  0  0  0  0  0
    6.1649    5.7891   21.6120 C   0  0  0  0  0  0  0  0  0  0  0  0
    6.2432    7.3536   19.6699 C   0  0  0  0  0  0  0  0  0  0  0  0
    7.3705    8.1333   19.7340 C   0  0  0  0  0  0  0  0  0  0  0  0
    7.6687    9.0464   18.7224 C   0  0  0  0  0  0  0  0  0  0  0  0
    6.8490    9.1934   17.6336 C   0  0  0  0  0  0  0  0  0  0  0  0
    5.7281    8.4356   17.5379 C   0  0  0  0  0  0  0  0  0  0  0  0
    5.4329    7.5211   18.5535 C   0  0  0  0  0  0  0  0  0  0  0  0
    7.2732    6.3434   22.3959 C   0  0  0  0  0  0  0  0  0  0  0  0
    8.4976    5.7061   22.3562 C   0  0  0  0  0  0  0  0  0  0  0  0
    9.5754    6.0966   23.1342 C   0  0  0  0  0  0  0  0  0  0  0  0
    9.4160    7.1696   23.9855 C   0  0  0  0  0  0  0  0  0  0  0  0
    8.1899    7.8185   24.0347 C   0  0  0  0  0  0  0  0  0  0  0  0
    7.1216    7.4240   23.2570 C   0  0  0  0  0  0  0  0  0  0  0  0
    5.5299    4.6167   22.2578 C   0  0  0  0  0  0  0  0  0  0  0  0
    4.5005    4.7100   23.1275 C   0  0  0  0  0  0  0  0  0  0  0  0
    3.9893    3.5414   23.6700 C   0  0  0  0  0  0  0  0  0  0  0  0
    4.5325    2.3272   23.3171 C   0  0  0  0  0  0  0  0  0  0  0  0
    5.5855    2.2214   22.4283 C   0  0  0  0  0  0  0  0  0  0  0  0
    6.0839    3.3868   21.8968 C   0  0  0  0  0  0  0  0  0  0  0  0
    2.3557    5.5463   15.5317 C   0  0  0  0  0  0  0  0  0  0  0  0
    2.5000    6.2139   14.2222 C   0  0  0  0  0  0  0  0  0  0  0  0
    1.4859    7.2892   13.9291 C   0  0  0  0  0  0  0  0  0  0  0  0
    0.0872    6.7081   13.9336 C   0  0  0  0  0  0  0  0  0  0  0  0
   -0.5545    6.6490   12.5913 C   0  0  0  0  0  0  0  0  0  0  0  0
   -0.0484    5.5190   11.7285 C   0  0  0  0  0  0  0  0  0  0  0  0
   -0.1249    4.1875   12.4248 C   0  0  0  0  0  0  0  0  0  0  0  0
    1.0880    3.3752   12.3774 C   0  0  0  0  0  0  0  0  0  0  0  0
    1.2225    2.1045   13.0814 C   0  0  0  0  0  0  0  0  0  0  0  0
    1.7087    2.0313   14.4748 C   0  0  0  0  0  0  0  0  0  0  0  0
    3.1647    1.9470   14.7306 C   0  0  0  0  0  0  0  0  0  0  0  0
    3.6467    0.7809   18.7995 C   0  0  0  0  0  0  0  0  0  0  0  0
    4.3928    1.7979   18.2991 C   0  0  0  0  0  0  0  0  0  0  0  0
    4.2192    2.1663   16.9588 C   0  0  0  0  0  0  0  0  0  0  0  0
    3.3053    1.5009   16.1741 C   0  0  0  0  0  0  0  0  0  0  0  0
    2.5439    0.4729   16.6605 C   0  0  0  0  0  0  0  0  0  0  0  0
    2.7352    0.1280   17.9900 C   0  0  0  0  0  0  0  0  0  0  0  0
    2.6679    0.0542   20.9385 C   0  0  0  0  0  0  0  0  0  0  0  0
    3.7629    0.3574   20.1228 O   0  0  0  0  0  0  0  0  0  0  0  0
 45 46  1  0  0  0
 46 39  1  0  0  0
 39 40  2  0  0  0
 40 41  1  0  0  0
 41 42  2  0  0  0
 42 38  1  0  0  0
 38 37  1  0  0  0
 37 36  1  0  0  0
 36 35  1  0  0  0
 35 34  1  0  0  0
 34 33  1  0  0  0
 33 32  1  0  0  0
 32 31  1  0  0  0
 31 30  1  0  0  0
 30 29  1  0  0  0
 29 28  1  0  0  0
 28  1  1  0  0  0
  1  2  2  0  0  0
  1  3  1  0  0  0
  3  5  1  0  0  0
  5  6  1  0  0  0
  6  7  2  0  0  0
  6  8  1  0  0  0
  8  9  2  0  0  0
  9 22  1  0  0  0
 22 23  2  0  0  0
 23 24  1  0  0  0
 24 25  2  0  0  0
 25 26  1  0  0  0
 26 27  2  0  0  0
  9 16  1  0  0  0
 16 17  2  0  0  0
 17 18  1  0  0  0
 18 19  2  0  0  0
 19 20  1  0  0  0
 20 21  2  0  0  0
  8 10  1  0  0  0
 10 11  2  0  0  0
 11 12  1  0  0  0
 12 13  2  0  0  0
 13 14  1  0  0  0
 14 15  2  0  0  0
 42 43  1  0  0  0
 43 44  2  0  0  0
 44 39  1  0  0  0
 15  5  1  0  0  0
 27 22  1  0  0  0
 21 16  1  0  0  0
 15 10  1  0  0  0
  3  4  1  0  0  0
M  END
> <minimizedAffinity>
-9.21782

> <CNNscore>
0.0969773009

> <CNNaffinity>
7.0831856728

> <CNN_VS>
0.6869082451

> <CNNaffinity_variance>
0.5293924809

$$$$
[H]c1c([H])c([H])c(C(=C2C(=O)N(N([H])C(=O)C([H])([H])C([H])([H])C([H])([H])C([H])([H])C([H])([H])C([H])([H])C([H])([H])C([H])([H])C([H])([H])C([H])([H])C([H])([H])c3c([H])c([H])c(OC([H])([H])[H])c([H])c3[H])c3c([H])c([H])c([H])c([H])c32)c2c([H])c([H])c([H])c([H])c2[H])c([H])c1[H]


 46 50  0  0  0  0  0  0  0  0999 V2000
    4.1139    6.0290   18.1490 C   0  0  0  0  0  0  0  0  0  0  0  0
    3.5010    6.6382   19.0505 O   0  0  0  0  0  0  0  0  0  0  0  0
    5.4543    6.4459   17.8580 N   0  0  0  0  0  0  0  0  0  0  0  0
    5.9777    5.9302   17.0897 H   0  0  0  0  0  0  0  0  0  0  0  0
    6.0551    7.4918   18.5578 N   0  0  0  0  0  0  0  0  0  0  0  0
    6.9516    7.2825   19.6546 C   0  0  0  0  0  0  0  0  0  0  0  0
    7.2805    6.1424   20.1028 O   0  0  0  0  0  0  0  0  0  0  0  0
    7.4302    8.5551   20.1897 C   0  0  0  0  0  0  0  0  0  0  0  0
    8.3150    8.7954   21.1076 C   0  0  0  0  0  0  0  0  0  0  0  0
    6.7478    9.5597   19.3228 C   0  0  0  0  0  0  0  0  0  0  0  0
    6.7554   10.9294   19.2395 C   0  0  0  0  0  0  0  0  0  0  0  0
    6.0031   11.5924   18.2698 C   0  0  0  0  0  0  0  0  0  0  0  0
    5.2350   10.9000   17.3701 C   0  0  0  0  0  0  0  0  0  0  0  0
    5.2075    9.5449   17.4231 C   0  0  0  0  0  0  0  0  0  0  0  0
    5.9635    8.8838   18.3960 C   0  0  0  0  0  0  0  0  0  0  0  0
    8.6216   10.0951   21.7134 C   0  0  0  0  0  0  0  0  0  0  0  0
    7.7736   10.5911   22.6838 C   0  0  0  0  0  0  0  0  0  0  0  0
    7.9252   11.8488   23.2449 C   0  0  0  0  0  0  0  0  0  0  0  0
    8.9699   12.6387   22.8134 C   0  0  0  0  0  0  0  0  0  0  0  0
    9.8292   12.1513   21.8382 C   0  0  0  0  0  0  0  0  0  0  0  0
    9.6719   10.8982   21.2843 C   0  0  0  0  0  0  0  0  0  0  0  0
    9.0254    7.6714   21.7607 C   0  0  0  0  0  0  0  0  0  0  0  0
    8.5751    7.0482   22.8713 C   0  0  0  0  0  0  0  0  0  0  0  0
    9.3282    6.0084   23.3938 C   0  0  0  0  0  0  0  0  0  0  0  0
   10.5025    5.6371   22.7799 C   0  0  0  0  0  0  0  0  0  0  0  0
   10.9715    6.2684   21.6434 C   0  0  0  0  0  0  0  0  0  0  0  0
   10.2162    7.2977   21.1344 C   0  0  0  0  0  0  0  0  0  0  0  0
    3.4908    4.9333   17.4191 C   0  0  0  0  0  0  0  0  0  0  0  0
    4.3579    3.7806   17.1019 C   0  0  0  0  0  0  0  0  0  0  0  0
    4.2017    3.2165   15.7134 C   0  0  0  0  0  0  0  0  0  0  0  0
    2.7440    3.2271   15.3024 C   0  0  0  0  0  0  0  0  0  0  0  0
    2.0832    1.8940   15.3591 C   0  0  0  0  0  0  0  0  0  0  0  0
    2.9156    0.8352   16.0400 C   0  0  0  0  0  0  0  0  0  0  0  0
    2.2279    0.2519   17.2444 C   0  0  0  0  0  0  0  0  0  0  0  0
    3.0728    0.0372   18.4163 C   0  0  0  0  0  0  0  0  0  0  0  0
    2.5402   -0.0880   19.7687 C   0  0  0  0  0  0  0  0  0  0  0  0
    3.3712   -0.5627   20.8945 C   0  0  0  0  0  0  0  0  0  0  0  0
    4.7168    0.0208   21.0982 C   0  0  0  0  0  0  0  0  0  0  0  0
    4.1220    4.1149   22.1148 C   0  0  0  0  0  0  0  0  0  0  0  0
    4.7663    3.7950   20.9641 C   0  0  0  0  0  0  0  0  0  0  0  0
    4.9516    2.4430   20.6478 C   0  0  0  0  0  0  0  0  0  0  0  0
    4.4841    1.4663   21.4971 C   0  0  0  0  0  0  0  0  0  0  0  0
    3.8321    1.7689   22.6617 C   0  0  0  0  0  0  0  0  0  0  0  0
    3.6618    3.1144   22.9513 C   0  0  0  0  0  0  0  0  0  0  0  0
    4.7658    6.4902   22.1849 C   0  0  0  0  0  0  0  0  0  0  0  0
    3.8998    5.4370   22.4972 O   0  0  0  0  0  0  0  0  0  0  0  0
 45 46  1  0  0  0
 46 39  1  0  0  0
 39 40  2  0  0  0
 40 41  1  0  0  0
 41 42  2  0  0  0
 42 38  1  0  0  0
 38 37  1  0  0  0
 37 36  1  0  0  0
 36 35  1  0  0  0
 35 34  1  0  0  0
 34 33  1  0  0  0
 33 32  1  0  0  0
 32 31  1  0  0  0
 31 30  1  0  0  0
 30 29  1  0  0  0
 29 28  1  0  0  0
 28  1  1  0  0  0
  1  2  2  0  0  0
  1  3  1  0  0  0
  3  5  1  0  0  0
  5  6  1  0  0  0
  6  7  2  0  0  0
  6  8  1  0  0  0
  8  9  2  0  0  0
  9 22  1  0  0  0
 22 23  2  0  0  0
 23 24  1  0  0  0
 24 25  2  0  0  0
 25 26  1  0  0  0
 26 27  2  0  0  0
  9 16  1  0  0  0
 16 17  2  0  0  0
 17 18  1  0  0  0
 18 19  2  0  0  0
 19 20  1  0  0  0
 20 21  2  0  0  0
  8 10  1  0  0  0
 10 11  2  0  0  0
 11 12  1  0  0  0
 12 13  2  0  0  0
 13 14  1  0  0  0
 14 15  2  0  0  0
 42 43  1  0  0  0
 43 44  2  0  0  0
 44 39  1  0  0  0
 15  5  1  0  0  0
 27 22  1  0  0  0
 21 16  1  0  0  0
 15 10  1  0  0  0
  3  4  1  0  0  0
M  END
> <minimizedAffinity>
-7.52477

> <CNNscore>
0.0904355347

> <CNNaffinity>
7.0551614761

> <CNN_VS>
0.6380373240

> <CNNaffinity_variance>
0.4064933658

$$$$
[H]c1c([H])c([H])c(C(=C2C(=O)N(N([H])C(=O)C([H])([H])C([H])([H])C([H])([H])C([H])([H])C([H])([H])C([H])([H])C([H])([H])C([H])([H])C([H])([H])C([H])([H])C([H])([H])c3c([H])c([H])c(OC([H])([H])[H])c([H])c3[H])c3c([H])c([H])c([H])c([H])c32)c2c([H])c([H])c([H])c([H])c2[H])c([H])c1[H]


 46 50  0  0  0  0  0  0  0  0999 V2000
    4.1413    2.6169   17.0299 C   0  0  0  0  0  0  0  0  0  0  0  0
    5.3768    2.6891   16.8634 O   0  0  0  0  0  0  0  0  0  0  0  0
    3.5979    3.1858   18.2284 N   0  0  0  0  0  0  0  0  0  0  0  0
    2.5466    3.1239   18.3736 H   0  0  0  0  0  0  0  0  0  0  0  0
    4.4177    3.8011   19.1739 N   0  0  0  0  0  0  0  0  0  0  0  0
    4.8032    5.1778   19.0935 C   0  0  0  0  0  0  0  0  0  0  0  0
    4.4524    5.9664   18.1640 O   0  0  0  0  0  0  0  0  0  0  0  0
    5.6570    5.5490   20.2196 C   0  0  0  0  0  0  0  0  0  0  0  0
    6.1323    6.7067   20.5615 C   0  0  0  0  0  0  0  0  0  0  0  0
    5.7583    4.2781   20.9950 C   0  0  0  0  0  0  0  0  0  0  0  0
    6.3706    3.9053   22.1651 C   0  0  0  0  0  0  0  0  0  0  0  0
    6.2509    2.6041   22.6534 C   0  0  0  0  0  0  0  0  0  0  0  0
    5.5189    1.6583   21.9836 C   0  0  0  0  0  0  0  0  0  0  0  0
    4.8983    1.9949   20.8254 C   0  0  0  0  0  0  0  0  0  0  0  0
    5.0201    3.3002   20.3395 C   0  0  0  0  0  0  0  0  0  0  0  0
    7.1226    6.9752   21.6091 C   0  0  0  0  0  0  0  0  0  0  0  0
    6.6961    7.5354   22.7970 C   0  0  0  0  0  0  0  0  0  0  0  0
    7.5665    7.9134   23.8066 C   0  0  0  0  0  0  0  0  0  0  0  0
    8.9183    7.7207   23.6143 C   0  0  0  0  0  0  0  0  0  0  0  0
    9.3595    7.1585   22.4242 C   0  0  0  0  0  0  0  0  0  0  0  0
    8.4870    6.7848   21.4238 C   0  0  0  0  0  0  0  0  0  0  0  0
    5.7956    7.9081   19.7628 C   0  0  0  0  0  0  0  0  0  0  0  0
    6.5590    8.3675   18.7475 C   0  0  0  0  0  0  0  0  0  0  0  0
    6.1423    9.5044   18.0729 C   0  0  0  0  0  0  0  0  0  0  0  0
    4.9763   10.1335   18.4455 C   0  0  0  0  0  0  0  0  0  0  0  0
    4.1886    9.6712   19.4828 C   0  0  0  0  0  0  0  0  0  0  0  0
    4.6118    8.5432   20.1440 C   0  0  0  0  0  0  0  0  0  0  0  0
    3.2817    1.9786   16.0424 C   0  0  0  0  0  0  0  0  0  0  0  0
    3.2494    2.5998   14.7028 C   0  0  0  0  0  0  0  0  0  0  0  0
    2.2946    1.9710   13.7211 C   0  0  0  0  0  0  0  0  0  0  0  0
    2.1803    2.8271   12.4770 C   0  0  0  0  0  0  0  0  0  0  0  0
    2.4004    4.2807   12.7128 C   0  0  0  0  0  0  0  0  0  0  0  0
    1.2399    5.1451   12.2842 C   0  0  0  0  0  0  0  0  0  0  0  0
    0.0904    4.3365   11.7471 C   0  0  0  0  0  0  0  0  0  0  0  0
   -0.6821    4.9632   10.6776 C   0  0  0  0  0  0  0  0  0  0  0  0
   -1.9123    5.7098   10.9172 C   0  0  0  0  0  0  0  0  0  0  0  0
   -2.8260    5.3736   12.0287 C   0  0  0  0  0  0  0  0  0  0  0  0
   -4.0140    6.2233   12.2722 C   0  0  0  0  0  0  0  0  0  0  0  0
   -7.0830    4.4939    9.8768 C   0  0  0  0  0  0  0  0  0  0  0  0
   -6.2982    3.6949   10.6430 C   0  0  0  0  0  0  0  0  0  0  0  0
   -5.2947    4.2830   11.4237 C   0  0  0  0  0  0  0  0  0  0  0  0
   -5.1181    5.6477   11.4051 C   0  0  0  0  0  0  0  0  0  0  0  0
   -5.8993    6.4698   10.6390 C   0  0  0  0  0  0  0  0  0  0  0  0
   -6.8850    5.8625    9.8757 C   0  0  0  0  0  0  0  0  0  0  0  0
   -8.7180    2.7468    9.2968 C   0  0  0  0  0  0  0  0  0  0  0  0
   -8.1016    3.9825    9.0738 O   0  0  0  0  0  0  0  0  0  0  0  0
 45 46  1  0  0  0
 46 39  1  0  0  0
 39 40  2  0  0  0
 40 41  1  0  0  0
 41 42  2  0  0  0
 42 38  1  0  0  0
 38 37  1  0  0  0
 37 36  1  0  0  0
 36 35  1  0  0  0
 35 34  1  0  0  0
 34 33  1  0  0  0
 33 32  1  0  0  0
 32 31  1  0  0  0
 31 30  1  0  0  0
 30 29  1  0  0  0
 29 28  1  0  0  0
 28  1  1  0  0  0
  1  2  2  0  0  0
  1  3  1  0  0  0
  3  5  1  0  0  0
  5  6  1  0  0  0
  6  7  2  0  0  0
  6  8  1  0  0  0
  8  9  2  0  0  0
  9 22  1  0  0  0
 22 23  2  0  0  0
 23 24  1  0  0  0
 24 25  2  0  0  0
 25 26  1  0  0  0
 26 27  2  0  0  0
  9 16  1  0  0  0
 16 17  2  0  0  0
 17 18  1  0  0  0
 18 19  2  0  0  0
 19 20  1  0  0  0
 20 21  2  0  0  0
  8 10  1  0  0  0
 10 11  2  0  0  0
 11 12  1  0  0  0
 12 13  2  0  0  0
 13 14  1  0  0  0
 14 15  2  0  0  0
 42 43  1  0  0  0
 43 44  2  0  0  0
 44 39  1  0  0  0
 15  5  1  0  0  0
 27 22  1  0  0  0
 21 16  1  0  0  0
 15 10  1  0  0  0
  3  4  1  0  0  0
M  END
> <minimizedAffinity>
-8.13915

> <CNNscore>
0.0813561007

> <CNNaffinity>
6.2932138443

> <CNN_VS>
0.5119913220

> <CNNaffinity_variance>
0.2247077525

$$$$
[H]c1c([H])c([H])c(C(=C2C(=O)N(N([H])C(=O)C([H])([H])C([H])([H])C([H])([H])C([H])([H])C([H])([H])C([H])([H])C([H])([H])C([H])([H])C([H])([H])C([H])([H])C([H])([H])c3c([H])c([H])c(OC([H])([H])[H])c([H])c3[H])c3c([H])c([H])c([H])c([H])c32)c2c([H])c([H])c([H])c([H])c2[H])c([H])c1[H]


 46 50  0  0  0  0  0  0  0  0999 V2000
    2.1857    5.8459   14.2900 C   0  0  0  0  0  0  0  0  0  0  0  0
    1.4948    5.6745   15.3160 O   0  0  0  0  0  0  0  0  0  0  0  0
    3.4976    6.3993   14.4569 N   0  0  0  0  0  0  0  0  0  0  0  0
    4.0871    6.5480   13.5848 H   0  0  0  0  0  0  0  0  0  0  0  0
    3.9877    6.7319   15.7194 N   0  0  0  0  0  0  0  0  0  0  0  0
    3.9750    8.0684   16.2333 C   0  0  0  0  0  0  0  0  0  0  0  0
    3.5321    9.0745   15.6006 O   0  0  0  0  0  0  0  0  0  0  0  0
    4.5445    8.1175   17.5780 C   0  0  0  0  0  0  0  0  0  0  0  0
    4.6275    9.1057   18.4144 C   0  0  0  0  0  0  0  0  0  0  0  0
    4.9053    6.6936   17.8401 C   0  0  0  0  0  0  0  0  0  0  0  0
    5.4500    6.0133   18.9001 C   0  0  0  0  0  0  0  0  0  0  0  0
    5.6443    4.6331   18.8421 C   0  0  0  0  0  0  0  0  0  0  0  0
    5.2973    3.9129   17.7286 C   0  0  0  0  0  0  0  0  0  0  0  0
    4.7536    4.5544   16.6643 C   0  0  0  0  0  0  0  0  0  0  0  0
    4.5598    5.9377   16.7265 C   0  0  0  0  0  0  0  0  0  0  0  0
    5.3654    9.1247   19.6814 C   0  0  0  0  0  0  0  0  0  0  0  0
    6.7449    9.1737   19.6448 C   0  0  0  0  0  0  0  0  0  0  0  0
    7.5316    9.0988   20.7829 C   0  0  0  0  0  0  0  0  0  0  0  0
    6.9069    8.9695   22.0054 C   0  0  0  0  0  0  0  0  0  0  0  0
    5.5206    8.9190   22.0553 C   0  0  0  0  0  0  0  0  0  0  0  0
    4.7442    8.9941   20.9181 C   0  0  0  0  0  0  0  0  0  0  0  0
    4.0652   10.4279   18.0532 C   0  0  0  0  0  0  0  0  0  0  0  0
    4.7674   11.3880   17.4130 C   0  0  0  0  0  0  0  0  0  0  0  0
    4.1342   12.5880   17.1293 C   0  0  0  0  0  0  0  0  0  0  0  0
    2.8221   12.7747   17.5000 C   0  0  0  0  0  0  0  0  0  0  0  0
    2.0954   11.7986   18.1552 C   0  0  0  0  0  0  0  0  0  0  0  0
    2.7337   10.6131   18.4310 C   0  0  0  0  0  0  0  0  0  0  0  0
    1.6785    5.4956   12.9703 C   0  0  0  0  0  0  0  0  0  0  0  0
    0.9377    4.2219   12.8700 C   0  0  0  0  0  0  0  0  0  0  0  0
    1.7562    3.0290   12.4489 C   0  0  0  0  0  0  0  0  0  0  0  0
    2.7301    2.6464   13.5439 C   0  0  0  0  0  0  0  0  0  0  0  0
    2.2394    1.5719   14.4504 C   0  0  0  0  0  0  0  0  0  0  0  0
    2.5508    1.8202   15.9060 C   0  0  0  0  0  0  0  0  0  0  0  0
    3.1882    0.6286   16.5674 C   0  0  0  0  0  0  0  0  0  0  0  0
    3.2354    0.6618   18.0269 C   0  0  0  0  0  0  0  0  0  0  0  0
    2.5670   -0.3258   18.8671 C   0  0  0  0  0  0  0  0  0  0  0  0
    2.5363   -0.2061   20.3395 C   0  0  0  0  0  0  0  0  0  0  0  0
    3.7580   -0.5148   21.1171 C   0  0  0  0  0  0  0  0  0  0  0  0
    5.3107    3.2809   22.2700 C   0  0  0  0  0  0  0  0  0  0  0  0
    4.0472    2.9360   22.6248 C   0  0  0  0  0  0  0  0  0  0  0  0
    3.5553    1.6832   22.2362 C   0  0  0  0  0  0  0  0  0  0  0  0
    4.3491    0.8269   21.5078 C   0  0  0  0  0  0  0  0  0  0  0  0
    5.6255    1.1569   21.1405 C   0  0  0  0  0  0  0  0  0  0  0  0
    6.0881    2.4024   21.5377 C   0  0  0  0  0  0  0  0  0  0  0  0
    7.1491    4.9181   22.2285 C   0  0  0  0  0  0  0  0  0  0  0  0
    5.8698    4.5093   22.6197 O   0  0  0  0  0  0  0  0  0  0  0  0
 45 46  1  0  0  0
 46 39  1  0  0  0
 39 40  2  0  0  0
 40 41  1  0  0  0
 41 42  2  0  0  0
 42 38  1  0  0  0
 38 37  1  0  0  0
 37 36  1  0  0  0
 36 35  1  0  0  0
 35 34  1  0  0  0
 34 33  1  0  0  0
 33 32  1  0  0  0
 32 31  1  0  0  0
 31 30  1  0  0  0
 30 29  1  0  0  0
 29 28  1  0  0  0
 28  1  1  0  0  0
  1  2  2  0  0  0
  1  3  1  0  0  0
  3  5  1  0  0  0
  5  6  1  0  0  0
  6  7  2  0  0  0
  6  8  1  0  0  0
  8  9  2  0  0  0
  9 22  1  0  0  0
 22 23  2  0  0  0
 23 24  1  0  0  0
 24 25  2  0  0  0
 25 26  1  0  0  0
 26 27  2  0  0  0
  9 16  1  0  0  0
 16 17  2  0  0  0
 17 18  1  0  0  0
 18 19  2  0  0  0
 19 20  1  0  0  0
 20 21  2  0  0  0
  8 10  1  0  0  0
 10 11  2  0  0  0
 11 12  1  0  0  0
 12 13  2  0  0  0
 13 14  1  0  0  0
 14 15  2  0  0  0
 42 43  1  0  0  0
 43 44  2  0  0  0
 44 39  1  0  0  0
 15  5  1  0  0  0
 27 22  1  0  0  0
 21 16  1  0  0  0
 15 10  1  0  0  0
  3  4  1  0  0  0
M  END
> <minimizedAffinity>
-8.98917

> <CNNscore>
0.0698470548

> <CNNaffinity>
7.0249161720

> <CNN_VS>
0.4906696975

> <CNNaffinity_variance>
0.6445630789

$$$$
[H]c1nc(N([H])[H])c2nc(-c3c([H])c([H])c(C([H])([H])N4C([H])([H])C([H])([H])N(C([H])([H])[H])C([H])([H])C4([H])[H])c([H])c3[H])c([H])n2c1-c1c([H])c([H])c(N2C([H])([H])C([H])([H])N(C(=O)C([H])([H])[H])C([H])([H])C2([H])[H])c([H])c1[H]


 41 46  0  0  0  0  0  0  0  0999 V2000
    4.3726    3.0768   19.8838 C   0  0  0  0  0  0  0  0  0  0  0  0
    4.1203    3.0556   18.5406 C   0  0  0  0  0  0  0  0  0  0  0  0
    3.5862    1.8652   18.2362 N   0  0  0  0  0  0  0  0  0  0  0  0
    3.1715    1.3596   17.0723 C   0  0  0  0  0  0  0  0  0  0  0  0
    2.6558    0.0808   17.0591 C   0  0  0  0  0  0  0  0  0  0  0  0
    2.5600   -0.6668   18.1845 N   0  0  0  0  0  0  0  0  0  0  0  0
    2.9758   -0.1591   19.3529 C   0  0  0  0  0  0  0  0  0  0  0  0
    2.8902   -0.9172   20.5608 N   0  0  0  0  0  0  0  0  0  0  0  0
    3.4935    1.1192   19.3777 C   0  0  0  0  0  0  0  0  0  0  0  0
    3.9802    1.8758   20.3833 N   0  0  0  0  0  0  0  0  0  0  0  0
    3.0060   -0.4191   21.4756 H   0  0  0  0  0  0  0  0  0  0  0  0
    2.7186   -1.9401   20.5718 H   0  0  0  0  0  0  0  0  0  0  0  0
    6.0126    6.2076   22.1651 C   0  0  0  0  0  0  0  0  0  0  0  0
    4.8795    6.4630   21.4433 C   0  0  0  0  0  0  0  0  0  0  0  0
    4.3585    5.4029   20.6942 C   0  0  0  0  0  0  0  0  0  0  0  0
    4.9461    4.1604   20.6746 C   0  0  0  0  0  0  0  0  0  0  0  0
    6.0825    3.9515   21.4148 C   0  0  0  0  0  0  0  0  0  0  0  0
    6.6249    4.9753   22.1668 C   0  0  0  0  0  0  0  0  0  0  0  0
    6.6142    7.2892   22.9720 C   0  0  0  0  0  0  0  0  0  0  0  0
   11.1361    9.5604   22.8813 C   0  0  0  0  0  0  0  0  0  0  0  0
    9.7170    9.7430   22.6576 N   0  0  0  0  0  0  0  0  0  0  0  0
    9.3422    9.1597   21.4030 C   0  0  0  0  0  0  0  0  0  0  0  0
    8.0047    8.4486   21.4838 C   0  0  0  0  0  0  0  0  0  0  0  0
    7.9777    7.4532   22.5122 N   0  0  0  0  0  0  0  0  0  0  0  0
    8.8384    7.7367   23.6196 C   0  0  0  0  0  0  0  0  0  0  0  0
    8.9713    9.2349   23.7728 C   0  0  0  0  0  0  0  0  0  0  0  0
    3.2349    2.1110   15.8137 C   0  0  0  0  0  0  0  0  0  0  0  0
    3.8935    3.3168   15.7283 C   0  0  0  0  0  0  0  0  0  0  0  0
    3.9502    4.0208   14.5200 C   0  0  0  0  0  0  0  0  0  0  0  0
    3.3593    3.5544   13.3666 C   0  0  0  0  0  0  0  0  0  0  0  0
    2.6950    2.3315   13.4699 C   0  0  0  0  0  0  0  0  0  0  0  0
    2.6401    1.6372   14.6620 C   0  0  0  0  0  0  0  0  0  0  0  0
    3.4048    4.2704   12.1436 N   0  0  0  0  0  0  0  0  0  0  0  0
    4.6504    4.8469   11.6033 C   0  0  0  0  0  0  0  0  0  0  0  0
    5.0332    3.9189   10.4708 C   0  0  0  0  0  0  0  0  0  0  0  0
    3.8426    3.2908    9.9033 N   0  0  0  0  0  0  0  0  0  0  0  0
    2.5468    3.9248    9.9385 C   0  0  0  0  0  0  0  0  0  0  0  0
    2.2512    4.4861   11.2979 C   0  0  0  0  0  0  0  0  0  0  0  0
    3.9534    2.0144    9.2900 C   0  0  0  0  0  0  0  0  0  0  0  0
    2.7960    1.3355    8.6967 C   0  0  0  0  0  0  0  0  0  0  0  0
    5.0805    1.4565    9.2584 O   0  0  0  0  0  0  0  0  0  0  0  0
 20 21  1  0  0  0
 21 22  1  0  0  0
 22 23  1  0  0  0
 23 24  1  0  0  0
 24 19  1  0  0  0
 19 13  1  0  0  0
 13 14  2  0  0  0
 14 15  1  0  0  0
 15 16  2  0  0  0
 16 17  1  0  0  0
 17 18  2  0  0  0
 16  1  1  0  0  0
  1  2  2  0  0  0
  2  3  1  0  0  0
  3  4  1  0  0  0
  4  5  2  0  0  0
  5  6  1  0  0  0
  6  7  2  0  0  0
  7  8  1  0  0  0
  7  9  1  0  0  0
  9 10  2  0  0  0
  4 27  1  0  0  0
 27 28  2  0  0  0
 28 29  1  0  0  0
 29 30  2  0  0  0
 30 31  1  0  0  0
 31 32  2  0  0  0
 30 33  1  0  0  0
 33 34  1  0  0  0
 34 35  1  0  0  0
 35 36  1  0  0  0
 36 37  1  0  0  0
 37 38  1  0  0  0
 36 39  1  0  0  0
 39 40  1  0  0  0
 39 41  2  0  0  0
 24 25  1  0  0  0
 25 26  1  0  0  0
 26 21  1  0  0  0
 18 13  1  0  0  0
 10  1  1  0  0  0
 32 27  1  0  0  0
 38 33  1  0  0  0
  9  3  1  0  0  0
  8 11  1  0  0  0
  8 12  1  0  0  0
M  END
> <minimizedAffinity>
-10.07729

> <CNNscore>
0.8466753364

> <CNNaffinity>
7.6921067238

> <CNN_VS>
6.5127172470

> <CNNaffinity_variance>
0.1550447941

$$$$
[H]c1nc(N([H])[H])c2nc(-c3c([H])c([H])c(C([H])([H])N4C([H])([H])C([H])([H])N(C([H])([H])[H])C([H])([H])C4([H])[H])c([H])c3[H])c([H])n2c1-c1c([H])c([H])c(N2C([H])([H])C([H])([H])N(C(=O)C([H])([H])[H])C([H])([H])C2([H])[H])c([H])c1[H]


 41 46  0  0  0  0  0  0  0  0999 V2000
    4.4660    3.3132   19.4068 C   0  0  0  0  0  0  0  0  0  0  0  0
    4.0837    3.1930   18.1000 C   0  0  0  0  0  0  0  0  0  0  0  0
    3.5479    1.9765   17.9333 N   0  0  0  0  0  0  0  0  0  0  0  0
    3.0320    1.3835   16.8541 C   0  0  0  0  0  0  0  0  0  0  0  0
    2.5448    0.0998   16.9808 C   0  0  0  0  0  0  0  0  0  0  0  0
    2.5757   -0.5673   18.1592 N   0  0  0  0  0  0  0  0  0  0  0  0
    3.0932    0.0280   19.2426 C   0  0  0  0  0  0  0  0  0  0  0  0
    3.1426   -0.6435   20.5026 N   0  0  0  0  0  0  0  0  0  0  0  0
    3.5834    1.3121   19.1272 C   0  0  0  0  0  0  0  0  0  0  0  0
    4.1502    2.1451   20.0248 N   0  0  0  0  0  0  0  0  0  0  0  0
    3.3369   -0.0801   21.3646 H   0  0  0  0  0  0  0  0  0  0  0  0
    2.9947   -1.6655   20.6014 H   0  0  0  0  0  0  0  0  0  0  0  0
    6.2675    6.6229   21.2765 C   0  0  0  0  0  0  0  0  0  0  0  0
    6.4125    6.4912   19.9231 C   0  0  0  0  0  0  0  0  0  0  0  0
    5.8033    5.3804   19.3304 C   0  0  0  0  0  0  0  0  0  0  0  0
    5.0911    4.4583   20.0598 C   0  0  0  0  0  0  0  0  0  0  0  0
    4.9731    4.6323   21.4157 C   0  0  0  0  0  0  0  0  0  0  0  0
    5.5613    5.7178   22.0351 C   0  0  0  0  0  0  0  0  0  0  0  0
    6.8933    7.7727   21.9615 C   0  0  0  0  0  0  0  0  0  0  0  0
    9.5005    8.2198   26.2763 C   0  0  0  0  0  0  0  0  0  0  0  0
    9.5815    8.2999   24.8326 N   0  0  0  0  0  0  0  0  0  0  0  0
    9.6201    6.9810   24.2725 C   0  0  0  0  0  0  0  0  0  0  0  0
    8.7891    6.8761   23.0077 C   0  0  0  0  0  0  0  0  0  0  0  0
    7.4310    7.2798   23.2126 N   0  0  0  0  0  0  0  0  0  0  0  0
    7.2642    8.2621   24.2396 C   0  0  0  0  0  0  0  0  0  0  0  0
    8.5134    9.1099   24.3216 C   0  0  0  0  0  0  0  0  0  0  0  0
    2.9556    2.0445   15.5465 C   0  0  0  0  0  0  0  0  0  0  0  0
    3.7546    3.1220   15.2374 C   0  0  0  0  0  0  0  0  0  0  0  0
    3.6747    3.7401   13.9843 C   0  0  0  0  0  0  0  0  0  0  0  0
    2.8057    3.3121   13.0053 C   0  0  0  0  0  0  0  0  0  0  0  0
    2.0022    2.2196   13.3343 C   0  0  0  0  0  0  0  0  0  0  0  0
    2.0820    1.6099   14.5704 C   0  0  0  0  0  0  0  0  0  0  0  0
    2.7139    3.9430   11.7387 N   0  0  0  0  0  0  0  0  0  0  0  0
    2.7187    5.4090   11.5763 C   0  0  0  0  0  0  0  0  0  0  0  0
    4.1024    5.7238   11.0499 C   0  0  0  0  0  0  0  0  0  0  0  0
    4.6301    4.5890   10.2962 N   0  0  0  0  0  0  0  0  0  0  0  0
    3.7710    3.6516    9.6137 C   0  0  0  0  0  0  0  0  0  0  0  0
    2.6306    3.2210   10.4880 C   0  0  0  0  0  0  0  0  0  0  0  0
    6.0352    4.3944   10.2227 C   0  0  0  0  0  0  0  0  0  0  0  0
    6.6259    3.2780    9.4762 C   0  0  0  0  0  0  0  0  0  0  0  0
    6.7884    5.2076   10.8175 O   0  0  0  0  0  0  0  0  0  0  0  0
 20 21  1  0  0  0
 21 22  1  0  0  0
 22 23  1  0  0  0
 23 24  1  0  0  0
 24 19  1  0  0  0
 19 13  1  0  0  0
 13 14  2  0  0  0
 14 15  1  0  0  0
 15 16  2  0  0  0
 16 17  1  0  0  0
 17 18  2  0  0  0
 16  1  1  0  0  0
  1  2  2  0  0  0
  2  3  1  0  0  0
  3  4  1  0  0  0
  4  5  2  0  0  0
  5  6  1  0  0  0
  6  7  2  0  0  0
  7  8  1  0  0  0
  7  9  1  0  0  0
  9 10  2  0  0  0
  4 27  1  0  0  0
 27 28  2  0  0  0
 28 29  1  0  0  0
 29 30  2  0  0  0
 30 31  1  0  0  0
 31 32  2  0  0  0
 30 33  1  0  0  0
 33 34  1  0  0  0
 34 35  1  0  0  0
 35 36  1  0  0  0
 36 37  1  0  0  0
 37 38  1  0  0  0
 36 39  1  0  0  0
 39 40  1  0  0  0
 39 41  2  0  0  0
 24 25  1  0  0  0
 25 26  1  0  0  0
 26 21  1  0  0  0
 18 13  1  0  0  0
 10  1  1  0  0  0
 32 27  1  0  0  0
 38 33  1  0  0  0
  9  3  1  0  0  0
  8 11  1  0  0  0
  8 12  1  0  0  0
M  END
> <minimizedAffinity>
-10.00548

> <CNNscore>
0.7963711619

> <CNNaffinity>
7.6016798019

> <CNN_VS>
6.0537586212

> <CNNaffinity_variance>
0.1579560041

$$$$
[H]c1nc(N([H])[H])c2nc(-c3c([H])c([H])c(C([H])([H])N4C([H])([H])C([H])([H])N(C([H])([H])[H])C([H])([H])C4([H])[H])c([H])c3[H])c([H])n2c1-c1c([H])c([H])c(N2C([H])([H])C([H])([H])N(C(=O)C([H])([H])[H])C([H])([H])C2([H])[H])c([H])c1[H]


 41 46  0  0  0  0  0  0  0  0999 V2000
    4.4654    3.3098   19.5259 C   0  0  0  0  0  0  0  0  0  0  0  0
    4.1325    3.1920   18.2055 C   0  0  0  0  0  0  0  0  0  0  0  0
    3.5870    1.9825   18.0200 N   0  0  0  0  0  0  0  0  0  0  0  0
    3.1052    1.3944   16.9225 C   0  0  0  0  0  0  0  0  0  0  0  0
    2.5961    0.1176   17.0322 C   0  0  0  0  0  0  0  0  0  0  0  0
    2.5721   -0.5473   18.2120 N   0  0  0  0  0  0  0  0  0  0  0  0
    3.0552    0.0432   19.3137 C   0  0  0  0  0  0  0  0  0  0  0  0
    3.0466   -0.6263   20.5758 N   0  0  0  0  0  0  0  0  0  0  0  0
    3.5671    1.3202   19.2154 C   0  0  0  0  0  0  0  0  0  0  0  0
    4.1099    2.1474   20.1330 N   0  0  0  0  0  0  0  0  0  0  0  0
    3.2150   -0.0638   21.4438 H   0  0  0  0  0  0  0  0  0  0  0  0
    2.8811   -1.6460   20.6703 H   0  0  0  0  0  0  0  0  0  0  0  0
    6.2390    6.5827   21.4849 C   0  0  0  0  0  0  0  0  0  0  0  0
    5.5194    5.6958   22.2372 C   0  0  0  0  0  0  0  0  0  0  0  0
    4.9410    4.6188   21.5576 C   0  0  0  0  0  0  0  0  0  0  0  0
    5.0803    4.4477   20.2008 C   0  0  0  0  0  0  0  0  0  0  0  0
    5.8115    5.3638   19.4876 C   0  0  0  0  0  0  0  0  0  0  0  0
    6.3973    6.4399   20.1256 C   0  0  0  0  0  0  0  0  0  0  0  0
    6.8694    7.7446   22.1447 C   0  0  0  0  0  0  0  0  0  0  0  0
    9.5551    8.2531   26.4042 C   0  0  0  0  0  0  0  0  0  0  0  0
    9.6131    8.2977   24.9578 N   0  0  0  0  0  0  0  0  0  0  0  0
    9.6221    6.9654   24.4290 C   0  0  0  0  0  0  0  0  0  0  0  0
    8.7685    6.8435   23.1809 C   0  0  0  0  0  0  0  0  0  0  0  0
    7.4204    7.2732   23.3984 N   0  0  0  0  0  0  0  0  0  0  0  0
    7.2859    8.2821   24.4040 C   0  0  0  0  0  0  0  0  0  0  0  0
    8.5490    9.1119   24.4452 C   0  0  0  0  0  0  0  0  0  0  0  0
    3.0887    2.0536   15.6119 C   0  0  0  0  0  0  0  0  0  0  0  0
    3.8675    3.1587   15.3527 C   0  0  0  0  0  0  0  0  0  0  0  0
    3.8454    3.7748   14.0962 C   0  0  0  0  0  0  0  0  0  0  0  0
    3.0556    3.3177   13.0647 C   0  0  0  0  0  0  0  0  0  0  0  0
    2.2715    2.1974   13.3436 C   0  0  0  0  0  0  0  0  0  0  0  0
    2.2943    1.5897   14.5830 C   0  0  0  0  0  0  0  0  0  0  0  0
    3.0220    3.9462   11.7941 N   0  0  0  0  0  0  0  0  0  0  0  0
    1.9793    3.6604   10.7907 C   0  0  0  0  0  0  0  0  0  0  0  0
    1.0747    4.8730   10.8336 C   0  0  0  0  0  0  0  0  0  0  0  0
    1.8271    6.0544   11.2484 N   0  0  0  0  0  0  0  0  0  0  0  0
    3.2424    6.1916   11.0020 C   0  0  0  0  0  0  0  0  0  0  0  0
    3.9830    4.9388   11.3655 C   0  0  0  0  0  0  0  0  0  0  0  0
    1.1520    7.1120   11.9143 C   0  0  0  0  0  0  0  0  0  0  0  0
    1.8510    8.3263   12.3496 C   0  0  0  0  0  0  0  0  0  0  0  0
   -0.0813    6.9965   12.1334 O   0  0  0  0  0  0  0  0  0  0  0  0
 20 21  1  0  0  0
 21 22  1  0  0  0
 22 23  1  0  0  0
 23 24  1  0  0  0
 24 19  1  0  0  0
 19 13  1  0  0  0
 13 14  2  0  0  0
 14 15  1  0  0  0
 15 16  2  0  0  0
 16 17  1  0  0  0
 17 18  2  0  0  0
 16  1  1  0  0  0
  1  2  2  0  0  0
  2  3  1  0  0  0
  3  4  1  0  0  0
  4  5  2  0  0  0
  5  6  1  0  0  0
  6  7  2  0  0  0
  7  8  1  0  0  0
  7  9  1  0  0  0
  9 10  2  0  0  0
  4 27  1  0  0  0
 27 28  2  0  0  0
 28 29  1  0  0  0
 29 30  2  0  0  0
 30 31  1  0  0  0
 31 32  2  0  0  0
 30 33  1  0  0  0
 33 34  1  0  0  0
 34 35  1  0  0  0
 35 36  1  0  0  0
 36 37  1  0  0  0
 37 38  1  0  0  0
 36 39  1  0  0  0
 39 40  1  0  0  0
 39 41  2  0  0  0
 24 25  1  0  0  0
 25 26  1  0  0  0
 26 21  1  0  0  0
 18 13  1  0  0  0
 10  1  1  0  0  0
 32 27  1  0  0  0
 38 33  1  0  0  0
  9  3  1  0  0  0
  8 11  1  0  0  0
  8 12  1  0  0  0
M  END
> <minimizedAffinity>
-10.34366

> <CNNscore>
0.7590072155

> <CNNaffinity>
7.5529146194

> <CNN_VS>
5.7327165604

> <CNNaffinity_variance>
0.1360927969

$$$$
[H]c1nc(N([H])[H])c2nc(-c3c([H])c([H])c(C([H])([H])N4C([H])([H])C([H])([H])N(C([H])([H])[H])C([H])([H])C4([H])[H])c([H])c3[H])c([H])n2c1-c1c([H])c([H])c(N2C([H])([H])C([H])([H])N(C(=O)C([H])([H])[H])C([H])([H])C2([H])[H])c([H])c1[H]


 41 46  0  0  0  0  0  0  0  0999 V2000
    4.3701    3.0800   19.8857 C   0  0  0  0  0  0  0  0  0  0  0  0
    4.1237    3.0588   18.5415 C   0  0  0  0  0  0  0  0  0  0  0  0
    3.5882    1.8697   18.2351 N   0  0  0  0  0  0  0  0  0  0  0  0
    3.1774    1.3646   17.0695 C   0  0  0  0  0  0  0  0  0  0  0  0
    2.6586    0.0871   17.0544 C   0  0  0  0  0  0  0  0  0  0  0  0
    2.5560   -0.6598   18.1797 N   0  0  0  0  0  0  0  0  0  0  0  0
    2.9679   -0.1527   19.3498 C   0  0  0  0  0  0  0  0  0  0  0  0
    2.8751   -0.9102   20.5575 N   0  0  0  0  0  0  0  0  0  0  0  0
    3.4886    1.1242   19.3763 C   0  0  0  0  0  0  0  0  0  0  0  0
    3.9726    1.8800   20.3839 N   0  0  0  0  0  0  0  0  0  0  0  0
    2.9881   -0.4120   21.4726 H   0  0  0  0  0  0  0  0  0  0  0  0
    2.7009   -1.9327   20.5681 H   0  0  0  0  0  0  0  0  0  0  0  0
    6.0076    6.2075   22.1732 C   0  0  0  0  0  0  0  0  0  0  0  0
    4.8765    6.4645   21.4489 C   0  0  0  0  0  0  0  0  0  0  0  0
    4.3564    5.4055   20.6978 C   0  0  0  0  0  0  0  0  0  0  0  0
    4.9428    4.1624   20.6787 C   0  0  0  0  0  0  0  0  0  0  0  0
    6.0772    3.9519   21.4214 C   0  0  0  0  0  0  0  0  0  0  0  0
    6.6188    4.9747   22.1755 C   0  0  0  0  0  0  0  0  0  0  0  0
    6.6083    7.2880   22.9823 C   0  0  0  0  0  0  0  0  0  0  0  0
   11.1293    9.5614   22.8977 C   0  0  0  0  0  0  0  0  0  0  0  0
    9.7103    9.7433   22.6723 N   0  0  0  0  0  0  0  0  0  0  0  0
    9.3373    9.1603   21.4171 C   0  0  0  0  0  0  0  0  0  0  0  0
    8.0000    8.4485   21.4961 C   0  0  0  0  0  0  0  0  0  0  0  0
    7.9723    7.4528   22.5242 N   0  0  0  0  0  0  0  0  0  0  0  0
    8.8315    7.7363   23.6327 C   0  0  0  0  0  0  0  0  0  0  0  0
    8.9635    9.2346   23.7865 C   0  0  0  0  0  0  0  0  0  0  0  0
    3.2482    2.1155   15.8109 C   0  0  0  0  0  0  0  0  0  0  0  0
    3.9029    3.3237   15.7300 C   0  0  0  0  0  0  0  0  0  0  0  0
    3.9667    4.0270   14.5217 C   0  0  0  0  0  0  0  0  0  0  0  0
    3.3870    3.5577   13.3640 C   0  0  0  0  0  0  0  0  0  0  0  0
    2.7265    2.3323   13.4626 C   0  0  0  0  0  0  0  0  0  0  0  0
    2.6645    1.6387   14.6548 C   0  0  0  0  0  0  0  0  0  0  0  0
    3.4397    4.2730   12.1408 N   0  0  0  0  0  0  0  0  0  0  0  0
    2.2391    4.8337   11.4929 C   0  0  0  0  0  0  0  0  0  0  0  0
    2.3266    6.3203   11.7626 C   0  0  0  0  0  0  0  0  0  0  0  0
    3.7215    6.7298   11.9068 N   0  0  0  0  0  0  0  0  0  0  0  0
    4.8011    6.0281   11.2553 C   0  0  0  0  0  0  0  0  0  0  0  0
    4.6662    4.5436   11.4230 C   0  0  0  0  0  0  0  0  0  0  0  0
    4.0369    7.8581   12.7100 C   0  0  0  0  0  0  0  0  0  0  0  0
    5.4172    8.3222   12.8883 C   0  0  0  0  0  0  0  0  0  0  0  0
    3.0995    8.4721   13.2817 O   0  0  0  0  0  0  0  0  0  0  0  0
 20 21  1  0  0  0
 21 22  1  0  0  0
 22 23  1  0  0  0
 23 24  1  0  0  0
 24 19  1  0  0  0
 19 13  1  0  0  0
 13 14  2  0  0  0
 14 15  1  0  0  0
 15 16  2  0  0  0
 16 17  1  0  0  0
 17 18  2  0  0  0
 16  1  1  0  0  0
  1  2  2  0  0  0
  2  3  1  0  0  0
  3  4  1  0  0  0
  4  5  2  0  0  0
  5  6  1  0  0  0
  6  7  2  0  0  0
  7  8  1  0  0  0
  7  9  1  0  0  0
  9 10  2  0  0  0
  4 27  1  0  0  0
 27 28  2  0  0  0
 28 29  1  0  0  0
 29 30  2  0  0  0
 30 31  1  0  0  0
 31 32  2  0  0  0
 30 33  1  0  0  0
 33 34  1  0  0  0
 34 35  1  0  0  0
 35 36  1  0  0  0
 36 37  1  0  0  0
 37 38  1  0  0  0
 36 39  1  0  0  0
 39 40  1  0  0  0
 39 41  2  0  0  0
 24 25  1  0  0  0
 25 26  1  0  0  0
 26 21  1  0  0  0
 18 13  1  0  0  0
 10  1  1  0  0  0
 32 27  1  0  0  0
 38 33  1  0  0  0
  9  3  1  0  0  0
  8 11  1  0  0  0
  8 12  1  0  0  0
M  END
> <minimizedAffinity>
-10.40578

> <CNNscore>
0.7444908619

> <CNNaffinity>
7.6464586258

> <CNN_VS>
5.6927185059

> <CNNaffinity_variance>
0.1263473183

$$$$
[H]c1nc(N([H])[H])c2nc(-c3c([H])c([H])c(C([H])([H])N4C([H])([H])C([H])([H])N(C([H])([H])[H])C([H])([H])C4([H])[H])c([H])c3[H])c([H])n2c1-c1c([H])c([H])c(N2C([H])([H])C([H])([H])N(C(=O)C([H])([H])[H])C([H])([H])C2([H])[H])c([H])c1[H]


 41 46  0  0  0  0  0  0  0  0999 V2000
    4.5257    3.0241   19.4111 C   0  0  0  0  0  0  0  0  0  0  0  0
    4.1253    3.2584   18.1253 C   0  0  0  0  0  0  0  0  0  0  0  0
    3.4807    2.1695   17.6851 N   0  0  0  0  0  0  0  0  0  0  0  0
    2.9061    1.9033   16.5098 C   0  0  0  0  0  0  0  0  0  0  0  0
    2.3058    0.6740   16.3367 C   0  0  0  0  0  0  0  0  0  0  0  0
    2.2843   -0.2595   17.3178 N   0  0  0  0  0  0  0  0  0  0  0  0
    2.8607    0.0079   18.4977 C   0  0  0  0  0  0  0  0  0  0  0  0
    2.8578   -0.9514   19.5563 N   0  0  0  0  0  0  0  0  0  0  0  0
    3.4641    1.2344   18.6818 C   0  0  0  0  0  0  0  0  0  0  0  0
    4.1098    1.7725   19.7374 N   0  0  0  0  0  0  0  0  0  0  0  0
    3.1080   -0.6332   20.5230 H   0  0  0  0  0  0  0  0  0  0  0  0
    2.6189   -1.9502   19.4096 H   0  0  0  0  0  0  0  0  0  0  0  0
    6.6232    5.6136   21.9783 C   0  0  0  0  0  0  0  0  0  0  0  0
    6.0668    6.1418   20.8462 C   0  0  0  0  0  0  0  0  0  0  0  0
    5.3768    5.2561   20.0121 C   0  0  0  0  0  0  0  0  0  0  0  0
    5.2561    3.9181   20.3031 C   0  0  0  0  0  0  0  0  0  0  0  0
    5.8315    3.4335   21.4506 C   0  0  0  0  0  0  0  0  0  0  0  0
    6.5204    4.2792   22.2982 C   0  0  0  0  0  0  0  0  0  0  0  0
    7.3699    6.4979   22.8965 C   0  0  0  0  0  0  0  0  0  0  0  0
   11.0565    9.8020   21.8442 C   0  0  0  0  0  0  0  0  0  0  0  0
   10.0194    9.4503   22.7919 N   0  0  0  0  0  0  0  0  0  0  0  0
    8.7382    9.8368   22.2783 C   0  0  0  0  0  0  0  0  0  0  0  0
    7.6713    8.7994   22.5727 C   0  0  0  0  0  0  0  0  0  0  0  0
    8.0227    7.5015   22.0815 N   0  0  0  0  0  0  0  0  0  0  0  0
    9.4320    7.2575   22.0375 C   0  0  0  0  0  0  0  0  0  0  0  0
   10.1076    8.0584   23.1274 C   0  0  0  0  0  0  0  0  0  0  0  0
    2.8809    2.8663   15.4032 C   0  0  0  0  0  0  0  0  0  0  0  0
    3.7008    2.7235   14.3067 C   0  0  0  0  0  0  0  0  0  0  0  0
    3.6630    3.6472   13.2559 C   0  0  0  0  0  0  0  0  0  0  0  0
    2.8170    4.7339   13.2597 C   0  0  0  0  0  0  0  0  0  0  0  0
    1.9930    4.8650   14.3783 C   0  0  0  0  0  0  0  0  0  0  0  0
    2.0303    3.9531   15.4143 C   0  0  0  0  0  0  0  0  0  0  0  0
    2.7841    5.6780   12.2022 N   0  0  0  0  0  0  0  0  0  0  0  0
    3.4137    5.4292   10.8917 C   0  0  0  0  0  0  0  0  0  0  0  0
    2.2523    5.1349    9.9671 C   0  0  0  0  0  0  0  0  0  0  0  0
    1.0465    5.8157   10.4325 N   0  0  0  0  0  0  0  0  0  0  0  0
    1.0991    7.0414   11.1923 C   0  0  0  0  0  0  0  0  0  0  0  0
    2.1166    6.9583   12.2914 C   0  0  0  0  0  0  0  0  0  0  0  0
   -0.2265    5.2634   10.1291 C   0  0  0  0  0  0  0  0  0  0  0  0
   -1.4734    5.9036   10.5627 C   0  0  0  0  0  0  0  0  0  0  0  0
   -0.2778    4.1940    9.4686 O   0  0  0  0  0  0  0  0  0  0  0  0
 20 21  1  0  0  0
 21 22  1  0  0  0
 22 23  1  0  0  0
 23 24  1  0  0  0
 24 19  1  0  0  0
 19 13  1  0  0  0
 13 14  2  0  0  0
 14 15  1  0  0  0
 15 16  2  0  0  0
 16 17  1  0  0  0
 17 18  2  0  0  0
 16  1  1  0  0  0
  1  2  2  0  0  0
  2  3  1  0  0  0
  3  4  1  0  0  0
  4  5  2  0  0  0
  5  6  1  0  0  0
  6  7  2  0  0  0
  7  8  1  0  0  0
  7  9  1  0  0  0
  9 10  2  0  0  0
  4 27  1  0  0  0
 27 28  2  0  0  0
 28 29  1  0  0  0
 29 30  2  0  0  0
 30 31  1  0  0  0
 31 32  2  0  0  0
 30 33  1  0  0  0
 33 34  1  0  0  0
 34 35  1  0  0  0
 35 36  1  0  0  0
 36 37  1  0  0  0
 37 38  1  0  0  0
 36 39  1  0  0  0
 39 40  1  0  0  0
 39 41  2  0  0  0
 24 25  1  0  0  0
 25 26  1  0  0  0
 26 21  1  0  0  0
 18 13  1  0  0  0
 10  1  1  0  0  0
 32 27  1  0  0  0
 38 33  1  0  0  0
  9  3  1  0  0  0
  8 11  1  0  0  0
  8 12  1  0  0  0
M  END
> <minimizedAffinity>
-8.77022

> <CNNscore>
0.7334312201

> <CNNaffinity>
7.3629822731

> <CNN_VS>
5.4002408981

> <CNNaffinity_variance>
0.0687834471

$$$$
[H]c1nc(N([H])[H])c2nc(-c3c([H])c([H])c(C([H])([H])N4C([H])([H])C([H])([H])N(C([H])([H])[H])C([H])([H])C4([H])[H])c([H])c3[H])c([H])n2c1-c1c([H])c([H])c(N2C([H])([H])C([H])([H])N(C(=O)C([H])([H])[H])C([H])([H])C2([H])[H])c([H])c1[H]


 41 46  0  0  0  0  0  0  0  0999 V2000
    4.5013    3.3151   19.6547 C   0  0  0  0  0  0  0  0  0  0  0  0
    4.1745    3.1677   18.3357 C   0  0  0  0  0  0  0  0  0  0  0  0
    3.6275    1.9553   18.1754 N   0  0  0  0  0  0  0  0  0  0  0  0
    3.1499    1.3430   17.0894 C   0  0  0  0  0  0  0  0  0  0  0  0
    2.6376    0.0700   17.2260 C   0  0  0  0  0  0  0  0  0  0  0  0
    2.6066   -0.5675   18.4206 N   0  0  0  0  0  0  0  0  0  0  0  0
    3.0857    0.0472   19.5108 C   0  0  0  0  0  0  0  0  0  0  0  0
    3.0696   -0.5931   20.7878 N   0  0  0  0  0  0  0  0  0  0  0  0
    3.6005    1.3207   19.3857 C   0  0  0  0  0  0  0  0  0  0  0  0
    4.1406    2.1677   20.2866 N   0  0  0  0  0  0  0  0  0  0  0  0
    3.2349   -0.0110   21.6435 H   0  0  0  0  0  0  0  0  0  0  0  0
    2.9015   -1.6100   20.9050 H   0  0  0  0  0  0  0  0  0  0  0  0
    6.2705    6.6445   21.5204 C   0  0  0  0  0  0  0  0  0  0  0  0
    6.4220    6.5093   20.1680 C   0  0  0  0  0  0  0  0  0  0  0  0
    5.8234    5.3920   19.5766 C   0  0  0  0  0  0  0  0  0  0  0  0
    5.1152    4.4671   20.3063 C   0  0  0  0  0  0  0  0  0  0  0  0
    4.9904    4.6447   21.6611 C   0  0  0  0  0  0  0  0  0  0  0  0
    5.5680    5.7367   22.2792 C   0  0  0  0  0  0  0  0  0  0  0  0
    6.8849    7.8012   22.2039 C   0  0  0  0  0  0  0  0  0  0  0  0
    9.5502    8.2657   26.4813 C   0  0  0  0  0  0  0  0  0  0  0  0
    9.6092    8.3498   25.0367 N   0  0  0  0  0  0  0  0  0  0  0  0
    9.6533    7.0327   24.4730 C   0  0  0  0  0  0  0  0  0  0  0  0
    8.8050    6.9220   23.2202 C   0  0  0  0  0  0  0  0  0  0  0  0
    7.4460    7.3111   23.4459 N   0  0  0  0  0  0  0  0  0  0  0  0
    7.2841    8.2894   24.4775 C   0  0  0  0  0  0  0  0  0  0  0  0
    8.5255    9.1499   24.5433 C   0  0  0  0  0  0  0  0  0  0  0  0
    3.1410    1.9719   15.7639 C   0  0  0  0  0  0  0  0  0  0  0  0
    2.3947    1.4566   14.7283 C   0  0  0  0  0  0  0  0  0  0  0  0
    2.3918    2.0696   13.4701 C   0  0  0  0  0  0  0  0  0  0  0  0
    3.1240    3.2047   13.2013 C   0  0  0  0  0  0  0  0  0  0  0  0
    3.8757    3.7140   14.2610 C   0  0  0  0  0  0  0  0  0  0  0  0
    3.8776    3.1093   15.5021 C   0  0  0  0  0  0  0  0  0  0  0  0
    3.1325    3.8217   11.9247 N   0  0  0  0  0  0  0  0  0  0  0  0
    2.6350    3.1481   10.7105 C   0  0  0  0  0  0  0  0  0  0  0  0
    1.2974    3.8023   10.4396 C   0  0  0  0  0  0  0  0  0  0  0  0
    1.2873    5.1704   10.9518 N   0  0  0  0  0  0  0  0  0  0  0  0
    2.4906    5.9589   11.0653 C   0  0  0  0  0  0  0  0  0  0  0  0
    3.6030    5.1692   11.6891 C   0  0  0  0  0  0  0  0  0  0  0  0
    0.0562    5.7559   11.3510 C   0  0  0  0  0  0  0  0  0  0  0  0
   -0.0197    7.1271   11.8670 C   0  0  0  0  0  0  0  0  0  0  0  0
   -0.9954    5.0720   11.2559 O   0  0  0  0  0  0  0  0  0  0  0  0
 20 21  1  0  0  0
 21 22  1  0  0  0
 22 23  1  0  0  0
 23 24  1  0  0  0
 24 19  1  0  0  0
 19 13  1  0  0  0
 13 14  2  0  0  0
 14 15  1  0  0  0
 15 16  2  0  0  0
 16 17  1  0  0  0
 17 18  2  0  0  0
 16  1  1  0  0  0
  1  2  2  0  0  0
  2  3  1  0  0  0
  3  4  1  0  0  0
  4  5  2  0  0  0
  5  6  1  0  0  0
  6  7  2  0  0  0
  7  8  1  0  0  0
  7  9  1  0  0  0
  9 10  2  0  0  0
  4 27  1  0  0  0
 27 28  2  0  0  0
 28 29  1  0  0  0
 29 30  2  0  0  0
 30 31  1  0  0  0
 31 32  2  0  0  0
 30 33  1  0  0  0
 33 34  1  0  0  0
 34 35  1  0  0  0
 35 36  1  0  0  0
 36 37  1  0  0  0
 37 38  1  0  0  0
 36 39  1  0  0  0
 39 40  1  0  0  0
 39 41  2  0  0  0
 24 25  1  0  0  0
 25 26  1  0  0  0
 26 21  1  0  0  0
 18 13  1  0  0  0
 10  1  1  0  0  0
 32 27  1  0  0  0
 38 33  1  0  0  0
  9  3  1  0  0  0
  8 11  1  0  0  0
  8 12  1  0  0  0
M  END
> <minimizedAffinity>
-10.24430

> <CNNscore>
0.7161349654

> <CNNaffinity>
7.4957160950

> <CNN_VS>
5.3679442406

> <CNNaffinity_variance>
0.1669766754

$$$$
[H]c1nc(N([H])[H])c2nc(-c3c([H])c([H])c(C([H])([H])N4C([H])([H])C([H])([H])N(C([H])([H])[H])C([H])([H])C4([H])[H])c([H])c3[H])c([H])n2c1-c1c([H])c([H])c(N2C([H])([H])C([H])([H])N(C(=O)C([H])([H])[H])C([H])([H])C2([H])[H])c([H])c1[H]


 41 46  0  0  0  0  0  0  0  0999 V2000
    4.3622    2.9509   20.1495 C   0  0  0  0  0  0  0  0  0  0  0  0
    3.9460    2.9189   18.8480 C   0  0  0  0  0  0  0  0  0  0  0  0
    3.4439    1.7015   18.6014 N   0  0  0  0  0  0  0  0  0  0  0  0
    2.9156    1.1765   17.4934 C   0  0  0  0  0  0  0  0  0  0  0  0
    2.4726   -0.1288   17.5327 C   0  0  0  0  0  0  0  0  0  0  0  0
    2.5586   -0.8831   18.6545 N   0  0  0  0  0  0  0  0  0  0  0  0
    3.0885   -0.3559   19.7667 C   0  0  0  0  0  0  0  0  0  0  0  0
    3.1955   -1.1203   20.9689 N   0  0  0  0  0  0  0  0  0  0  0  0
    3.5348    0.9489   19.7386 C   0  0  0  0  0  0  0  0  0  0  0  0
    4.1011    1.7289   20.6829 N   0  0  0  0  0  0  0  0  0  0  0  0
    3.3970   -0.6187   21.8667 H   0  0  0  0  0  0  0  0  0  0  0  0
    3.0825   -2.1512   20.9918 H   0  0  0  0  0  0  0  0  0  0  0  0
    6.1069    6.1525   22.2474 C   0  0  0  0  0  0  0  0  0  0  0  0
    4.8840    5.7022   22.6621 C   0  0  0  0  0  0  0  0  0  0  0  0
    4.3292    4.6376   21.9444 C   0  0  0  0  0  0  0  0  0  0  0  0
    4.9700    4.0627   20.8727 C   0  0  0  0  0  0  0  0  0  0  0  0
    6.1957    4.5487   20.4931 C   0  0  0  0  0  0  0  0  0  0  0  0
    6.7742    5.5990   21.1789 C   0  0  0  0  0  0  0  0  0  0  0  0
    6.7422    7.2789   22.9619 C   0  0  0  0  0  0  0  0  0  0  0  0
    5.3362    9.8292   18.8226 C   0  0  0  0  0  0  0  0  0  0  0  0
    5.8823    8.5809   19.3132 N   0  0  0  0  0  0  0  0  0  0  0  0
    7.2645    8.7531   19.6518 C   0  0  0  0  0  0  0  0  0  0  0  0
    7.6348    8.0126   20.9229 C   0  0  0  0  0  0  0  0  0  0  0  0
    6.8103    8.3869   22.0318 N   0  0  0  0  0  0  0  0  0  0  0  0
    5.4910    8.8001   21.6630 C   0  0  0  0  0  0  0  0  0  0  0  0
    5.0834    8.0832   20.3958 C   0  0  0  0  0  0  0  0  0  0  0  0
    2.7806    1.9331   16.2437 C   0  0  0  0  0  0  0  0  0  0  0  0
    3.3127    1.4702   15.0615 C   0  0  0  0  0  0  0  0  0  0  0  0
    3.1723    2.2001   13.8756 C   0  0  0  0  0  0  0  0  0  0  0  0
    2.5049    3.4037   13.8253 C   0  0  0  0  0  0  0  0  0  0  0  0
    1.9722    3.8597   15.0319 C   0  0  0  0  0  0  0  0  0  0  0  0
    2.1104    3.1389   16.2013 C   0  0  0  0  0  0  0  0  0  0  0  0
    2.3707    4.1515   12.6281 N   0  0  0  0  0  0  0  0  0  0  0  0
    1.9620    3.5414   11.3488 C   0  0  0  0  0  0  0  0  0  0  0  0
    0.5246    3.9789   11.1666 C   0  0  0  0  0  0  0  0  0  0  0  0
    0.2941    5.2584   11.8327 N   0  0  0  0  0  0  0  0  0  0  0  0
    1.3466    6.2266   12.0256 C   0  0  0  0  0  0  0  0  0  0  0  0
    2.5956    5.5781   12.5447 C   0  0  0  0  0  0  0  0  0  0  0  0
   -1.0075    5.5723   12.3073 C   0  0  0  0  0  0  0  0  0  0  0  0
   -1.3032    6.8431   12.9781 C   0  0  0  0  0  0  0  0  0  0  0  0
   -1.9281    4.7308   12.1434 O   0  0  0  0  0  0  0  0  0  0  0  0
 20 21  1  0  0  0
 21 22  1  0  0  0
 22 23  1  0  0  0
 23 24  1  0  0  0
 24 19  1  0  0  0
 19 13  1  0  0  0
 13 14  2  0  0  0
 14 15  1  0  0  0
 15 16  2  0  0  0
 16 17  1  0  0  0
 17 18  2  0  0  0
 16  1  1  0  0  0
  1  2  2  0  0  0
  2  3  1  0  0  0
  3  4  1  0  0  0
  4  5  2  0  0  0
  5  6  1  0  0  0
  6  7  2  0  0  0
  7  8  1  0  0  0
  7  9  1  0  0  0
  9 10  2  0  0  0
  4 27  1  0  0  0
 27 28  2  0  0  0
 28 29  1  0  0  0
 29 30  2  0  0  0
 30 31  1  0  0  0
 31 32  2  0  0  0
 30 33  1  0  0  0
 33 34  1  0  0  0
 34 35  1  0  0  0
 35 36  1  0  0  0
 36 37  1  0  0  0
 37 38  1  0  0  0
 36 39  1  0  0  0
 39 40  1  0  0  0
 39 41  2  0  0  0
 24 25  1  0  0  0
 25 26  1  0  0  0
 26 21  1  0  0  0
 18 13  1  0  0  0
 10  1  1  0  0  0
 32 27  1  0  0  0
 38 33  1  0  0  0
  9  3  1  0  0  0
  8 11  1  0  0  0
  8 12  1  0  0  0
M  END
> <minimizedAffinity>
-9.39393

> <CNNscore>
0.6844922304

> <CNNaffinity>
7.7468023300

> <CNN_VS>
5.3026261330

> <CNNaffinity_variance>
0.1592534333

$$$$
[H]c1nc(N([H])[H])c2nc(-c3c([H])c([H])c(C([H])([H])N4C([H])([H])C([H])([H])N(C([H])([H])[H])C([H])([H])C4([H])[H])c([H])c3[H])c([H])n2c1-c1c([H])c([H])c(N2C([H])([H])C([H])([H])N(C(=O)C([H])([H])[H])C([H])([H])C2([H])[H])c([H])c1[H]


 41 46  0  0  0  0  0  0  0  0999 V2000
    3.5280    1.9073   17.2951 C   0  0  0  0  0  0  0  0  0  0  0  0
    4.2600    2.4417   18.3182 C   0  0  0  0  0  0  0  0  0  0  0  0
    4.0223    1.7199   19.4215 N   0  0  0  0  0  0  0  0  0  0  0  0
    4.4909    1.8365   20.6662 C   0  0  0  0  0  0  0  0  0  0  0  0
    4.0621    0.9333   21.6158 C   0  0  0  0  0  0  0  0  0  0  0  0
    3.1878   -0.0584   21.3210 N   0  0  0  0  0  0  0  0  0  0  0  0
    2.7178   -0.1757   20.0715 C   0  0  0  0  0  0  0  0  0  0  0  0
    1.7948   -1.2089   19.7227 N   0  0  0  0  0  0  0  0  0  0  0  0
    3.1400    0.7224   19.1136 C   0  0  0  0  0  0  0  0  0  0  0  0
    2.8441    0.8489   17.8032 N   0  0  0  0  0  0  0  0  0  0  0  0
    1.6282   -1.4118   18.7082 H   0  0  0  0  0  0  0  0  0  0  0  0
    1.2819   -1.7673   20.4306 H   0  0  0  0  0  0  0  0  0  0  0  0
    3.3348    3.1760   13.2890 C   0  0  0  0  0  0  0  0  0  0  0  0
    2.7476    1.9848   13.6154 C   0  0  0  0  0  0  0  0  0  0  0  0
    2.8293    1.5893   14.9545 C   0  0  0  0  0  0  0  0  0  0  0  0
    3.4655    2.3501   15.9064 C   0  0  0  0  0  0  0  0  0  0  0  0
    4.0404    3.5382   15.5315 C   0  0  0  0  0  0  0  0  0  0  0  0
    3.9791    3.9606   14.2178 C   0  0  0  0  0  0  0  0  0  0  0  0
    3.2873    3.6451   11.8889 C   0  0  0  0  0  0  0  0  0  0  0  0
    2.2409    8.2703   10.1203 C   0  0  0  0  0  0  0  0  0  0  0  0
    2.8911    7.0106    9.8240 N   0  0  0  0  0  0  0  0  0  0  0  0
    4.1414    6.9316   10.5206 C   0  0  0  0  0  0  0  0  0  0  0  0
    4.3960    5.5429   11.0756 C   0  0  0  0  0  0  0  0  0  0  0  0
    3.3350    5.0921   11.9244 N   0  0  0  0  0  0  0  0  0  0  0  0
    2.0531    5.6339   11.5918 C   0  0  0  0  0  0  0  0  0  0  0  0
    2.0055    5.9183   10.1076 C   0  0  0  0  0  0  0  0  0  0  0  0
    5.4463    2.8781   21.0594 C   0  0  0  0  0  0  0  0  0  0  0  0
    6.4232    2.6402   21.9997 C   0  0  0  0  0  0  0  0  0  0  0  0
    7.3312    3.6417   22.3619 C   0  0  0  0  0  0  0  0  0  0  0  0
    7.2989    4.9019   21.8072 C   0  0  0  0  0  0  0  0  0  0  0  0
    6.3025    5.1275   20.8566 C   0  0  0  0  0  0  0  0  0  0  0  0
    5.4075    4.1388   20.4992 C   0  0  0  0  0  0  0  0  0  0  0  0
    8.2099    5.9225   22.1802 N   0  0  0  0  0  0  0  0  0  0  0  0
    9.2066    6.4812   21.2474 C   0  0  0  0  0  0  0  0  0  0  0  0
    8.6506    7.8379   20.8723 C   0  0  0  0  0  0  0  0  0  0  0  0
    7.8244    8.3660   21.9551 N   0  0  0  0  0  0  0  0  0  0  0  0
    8.0449    8.0093   23.3359 C   0  0  0  0  0  0  0  0  0  0  0  0
    8.2391    6.5302   23.4926 C   0  0  0  0  0  0  0  0  0  0  0  0
    6.7677    9.2651   21.6504 C   0  0  0  0  0  0  0  0  0  0  0  0
    5.9079    9.8342   22.6940 C   0  0  0  0  0  0  0  0  0  0  0  0
    6.5701    9.5776   20.4480 O   0  0  0  0  0  0  0  0  0  0  0  0
 20 21  1  0  0  0
 21 22  1  0  0  0
 22 23  1  0  0  0
 23 24  1  0  0  0
 24 19  1  0  0  0
 19 13  1  0  0  0
 13 14  2  0  0  0
 14 15  1  0  0  0
 15 16  2  0  0  0
 16 17  1  0  0  0
 17 18  2  0  0  0
 16  1  1  0  0  0
  1  2  2  0  0  0
  2  3  1  0  0  0
  3  4  1  0  0  0
  4  5  2  0  0  0
  5  6  1  0  0  0
  6  7  2  0  0  0
  7  8  1  0  0  0
  7  9  1  0  0  0
  9 10  2  0  0  0
  4 27  1  0  0  0
 27 28  2  0  0  0
 28 29  1  0  0  0
 29 30  2  0  0  0
 30 31  1  0  0  0
 31 32  2  0  0  0
 30 33  1  0  0  0
 33 34  1  0  0  0
 34 35  1  0  0  0
 35 36  1  0  0  0
 36 37  1  0  0  0
 37 38  1  0  0  0
 36 39  1  0  0  0
 39 40  1  0  0  0
 39 41  2  0  0  0
 24 25  1  0  0  0
 25 26  1  0  0  0
 26 21  1  0  0  0
 18 13  1  0  0  0
 10  1  1  0  0  0
 32 27  1  0  0  0
 38 33  1  0  0  0
  9  3  1  0  0  0
  8 11  1  0  0  0
  8 12  1  0  0  0
M  END
> <minimizedAffinity>
-8.41264

> <CNNscore>
0.6308899522

> <CNNaffinity>
7.4417786598

> <CNN_VS>
4.6949434280

> <CNNaffinity_variance>
0.1692707837

$$$$
[H]c1nc(N([H])[H])c2nc(-c3c([H])c([H])c(C([H])([H])N4C([H])([H])C([H])([H])N(C([H])([H])[H])C([H])([H])C4([H])[H])c([H])c3[H])c([H])n2c1-c1c([H])c([H])c(N2C([H])([H])C([H])([H])N(C(=O)C([H])([H])[H])C([H])([H])C2([H])[H])c([H])c1[H]


 41 46  0  0  0  0  0  0  0  0999 V2000
    3.7044    2.1174   18.0033 C   0  0  0  0  0  0  0  0  0  0  0  0
    4.1073    2.9257   19.0293 C   0  0  0  0  0  0  0  0  0  0  0  0
    4.0663    2.2118   20.1622 N   0  0  0  0  0  0  0  0  0  0  0  0
    4.3612    2.5435   21.4214 C   0  0  0  0  0  0  0  0  0  0  0  0
    4.2216    1.5844   22.4022 C   0  0  0  0  0  0  0  0  0  0  0  0
    3.7981    0.3284   22.1237 N   0  0  0  0  0  0  0  0  0  0  0  0
    3.5026   -0.0047   20.8597 C   0  0  0  0  0  0  0  0  0  0  0  0
    3.0534   -1.3195   20.5273 N   0  0  0  0  0  0  0  0  0  0  0  0
    3.6385    0.9469   19.8706 C   0  0  0  0  0  0  0  0  0  0  0  0
    3.4196    0.9021   18.5399 N   0  0  0  0  0  0  0  0  0  0  0  0
    3.0522   -1.6102   19.5204 H   0  0  0  0  0  0  0  0  0  0  0  0
    2.7280   -1.9996   21.2398 H   0  0  0  0  0  0  0  0  0  0  0  0
    3.3674    3.0661   13.9189 C   0  0  0  0  0  0  0  0  0  0  0  0
    2.8843    1.8582   14.3406 C   0  0  0  0  0  0  0  0  0  0  0  0
    3.0116    1.5709   15.7035 C   0  0  0  0  0  0  0  0  0  0  0  0
    3.5918    2.4496   16.5871 C   0  0  0  0  0  0  0  0  0  0  0  0
    4.0625    3.6499   16.1175 C   0  0  0  0  0  0  0  0  0  0  0  0
    3.9535    3.9675   14.7776 C   0  0  0  0  0  0  0  0  0  0  0  0
    3.2674    3.4247   12.4892 C   0  0  0  0  0  0  0  0  0  0  0  0
   -0.4684    5.5127    9.7873 C   0  0  0  0  0  0  0  0  0  0  0  0
    0.9652    5.4731    9.9888 N   0  0  0  0  0  0  0  0  0  0  0  0
    1.3137    6.2214   11.1608 C   0  0  0  0  0  0  0  0  0  0  0  0
    2.4024    5.5395   11.9676 C   0  0  0  0  0  0  0  0  0  0  0  0
    2.0539    4.1991   12.3300 N   0  0  0  0  0  0  0  0  0  0  0  0
    1.1781    3.5537   11.4006 C   0  0  0  0  0  0  0  0  0  0  0  0
    1.4232    4.1139   10.0179 C   0  0  0  0  0  0  0  0  0  0  0  0
    4.8339    3.8800   21.7994 C   0  0  0  0  0  0  0  0  0  0  0  0
    6.1747    4.1915   21.8131 C   0  0  0  0  0  0  0  0  0  0  0  0
    6.6114    5.4721   22.1712 C   0  0  0  0  0  0  0  0  0  0  0  0
    5.7382    6.4767   22.5248 C   0  0  0  0  0  0  0  0  0  0  0  0
    4.3828    6.1449   22.5069 C   0  0  0  0  0  0  0  0  0  0  0  0
    3.9526    4.8817   22.1528 C   0  0  0  0  0  0  0  0  0  0  0  0
    6.1777    7.7718   22.8993 N   0  0  0  0  0  0  0  0  0  0  0  0
    7.3548    7.9964   23.7594 C   0  0  0  0  0  0  0  0  0  0  0  0
    8.4288    8.4771   22.8076 C   0  0  0  0  0  0  0  0  0  0  0  0
    7.8272    9.1588   21.6642 N   0  0  0  0  0  0  0  0  0  0  0  0
    6.5560    9.8361   21.7532 C   0  0  0  0  0  0  0  0  0  0  0  0
    5.5375    8.9930   22.4617 C   0  0  0  0  0  0  0  0  0  0  0  0
    8.5097    9.1648   20.4185 C   0  0  0  0  0  0  0  0  0  0  0  0
    7.9604    9.8374   19.2360 C   0  0  0  0  0  0  0  0  0  0  0  0
    9.6173    8.5741   20.3350 O   0  0  0  0  0  0  0  0  0  0  0  0
 20 21  1  0  0  0
 21 22  1  0  0  0
 22 23  1  0  0  0
 23 24  1  0  0  0
 24 19  1  0  0  0
 19 13  1  0  0  0
 13 14  2  0  0  0
 14 15  1  0  0  0
 15 16  2  0  0  0
 16 17  1  0  0  0
 17 18  2  0  0  0
 16  1  1  0  0  0
  1  2  2  0  0  0
  2  3  1  0  0  0
  3  4  1  0  0  0
  4  5  2  0  0  0
  5  6  1  0  0  0
  6  7  2  0  0  0
  7  8  1  0  0  0
  7  9  1  0  0  0
  9 10  2  0  0  0
  4 27  1  0  0  0
 27 28  2  0  0  0
 28 29  1  0  0  0
 29 30  2  0  0  0
 30 31  1  0  0  0
 31 32  2  0  0  0
 30 33  1  0  0  0
 33 34  1  0  0  0
 34 35  1  0  0  0
 35 36  1  0  0  0
 36 37  1  0  0  0
 37 38  1  0  0  0
 36 39  1  0  0  0
 39 40  1  0  0  0
 39 41  2  0  0  0
 24 25  1  0  0  0
 25 26  1  0  0  0
 26 21  1  0  0  0
 18 13  1  0  0  0
 10  1  1  0  0  0
 32 27  1  0  0  0
 38 33  1  0  0  0
  9  3  1  0  0  0
  8 11  1  0  0  0
  8 12  1  0  0  0
M  END
> <minimizedAffinity>
-8.75503

> <CNNscore>
0.6165317893

> <CNNaffinity>
7.4635376930

> <CNN_VS>
4.6015081406

> <CNNaffinity_variance>
0.0908164382

$$$$
[H]c1nc2c([H])c([H])c(N(C([H])([H])[H])S(=O)(=O)c3c([H])c(F)c([H])c([H])c3F)nc2c([H])c1-c1c([H])nn(C2([H])C([H])([H])N([H])C([H])([H])C2([H])[H])c1[H]


 34 38  0  0  0  0  0  0  0  0999 V2000
    4.7043    1.2547   20.5115 C   0  0  0  0  0  0  0  0  0  0  0  0
    3.8335    0.2153   20.7550 C   0  0  0  0  0  0  0  0  0  0  0  0
    2.9929   -0.2013   19.7507 C   0  0  0  0  0  0  0  0  0  0  0  0
    3.0558    0.4479   18.5202 C   0  0  0  0  0  0  0  0  0  0  0  0
    2.2495    0.0694   17.5123 N   0  0  0  0  0  0  0  0  0  0  0  0
    2.2778    0.6751   16.2956 C   0  0  0  0  0  0  0  0  0  0  0  0
    3.1496    1.7231   16.0364 C   0  0  0  0  0  0  0  0  0  0  0  0
    3.9782    2.1099   17.0769 C   0  0  0  0  0  0  0  0  0  0  0  0
    3.9334    1.4856   18.2957 C   0  0  0  0  0  0  0  0  0  0  0  0
    4.7433    1.8586   19.3235 N   0  0  0  0  0  0  0  0  0  0  0  0
    3.1674    2.3560   14.7383 C   0  0  0  0  0  0  0  0  0  0  0  0
    2.4833    1.9424   13.6217 C   0  0  0  0  0  0  0  0  0  0  0  0
    2.7768    2.8032   12.6427 N   0  0  0  0  0  0  0  0  0  0  0  0
    3.6096    3.7384   13.0815 N   0  0  0  0  0  0  0  0  0  0  0  0
    3.8728    3.4874   14.3861 C   0  0  0  0  0  0  0  0  0  0  0  0
    4.1492    4.8401   12.3084 C   0  0  0  0  0  0  0  0  0  0  0  0
    3.1851    6.0022   12.2455 C   0  0  0  0  0  0  0  0  0  0  0  0
    2.6934    6.0490   10.7968 C   0  0  0  0  0  0  0  0  0  0  0  0
    3.8311    5.5313   10.0560 N   0  0  0  0  0  0  0  0  0  0  0  0
    4.2887    4.4149   10.8554 C   0  0  0  0  0  0  0  0  0  0  0  0
    4.5505    6.2735    9.9380 H   0  0  0  0  0  0  0  0  0  0  0  0
    6.8331    0.9624   21.6909 C   0  0  0  0  0  0  0  0  0  0  0  0
    5.5573    1.6363   21.6173 N   0  0  0  0  0  0  0  0  0  0  0  0
    4.9821    2.8200   22.7049 S   0  0  0  0  0  0  0  0  0  0  0  0
    3.4748    2.7580   22.8345 O   0  0  0  0  0  0  0  0  0  0  0  0
    5.5402    2.5260   24.0796 O   0  0  0  0  0  0  0  0  0  0  0  0
    5.4725    4.4598   22.2916 C   0  0  0  0  0  0  0  0  0  0  0  0
    6.8401    4.7550   22.1679 C   0  0  0  0  0  0  0  0  0  0  0  0
    7.2629    6.0063   21.8235 C   0  0  0  0  0  0  0  0  0  0  0  0
    8.6003    6.2747   21.7079 F   0  0  0  0  0  0  0  0  0  0  0  0
    6.3126    6.9707   21.6007 C   0  0  0  0  0  0  0  0  0  0  0  0
    4.9696    6.7085   21.7152 C   0  0  0  0  0  0  0  0  0  0  0  0
    4.5276    5.4298   22.0680 C   0  0  0  0  0  0  0  0  0  0  0  0
    3.1963    5.2003   22.2001 F   0  0  0  0  0  0  0  0  0  0  0  0
 22 23  1  0  0  0
 23  1  1  0  0  0
  1  2  2  0  0  0
  2  3  1  0  0  0
  3  4  2  0  0  0
  4  5  1  0  0  0
  5  6  2  0  0  0
  6  7  1  0  0  0
  7  8  2  0  0  0
  8  9  1  0  0  0
  9 10  2  0  0  0
  7 11  1  0  0  0
 11 12  1  0  0  0
 12 13  2  0  0  0
 13 14  1  0  0  0
 14 15  1  0  0  0
 14 16  1  0  0  0
 16 17  1  0  0  0
 17 18  1  0  0  0
 18 19  1  0  0  0
 19 20  1  0  0  0
 23 24  1  0  0  0
 24 25  2  0  0  0
 24 26  2  0  0  0
 24 27  1  0  0  0
 27 28  2  0  0  0
 28 29  1  0  0  0
 29 30  1  0  0  0
 29 31  2  0  0  0
 31 32  1  0  0  0
 32 33  2  0  0  0
 33 34  1  0  0  0
 10  1  1  0  0  0
 15 11  2  0  0  0
 20 16  1  0  0  0
 33 27  1  0  0  0
  9  4  1  0  0  0
 19 21  1  0  0  0
M  END
> <minimizedAffinity>
-9.53401

> <CNNscore>
0.7706471682

> <CNNaffinity>
7.4970421791

> <CNN_VS>
5.7775745392

> <CNNaffinity_variance>
0.1648380160

$$$$
[H]c1nc2c([H])c([H])c(N(C([H])([H])[H])S(=O)(=O)c3c([H])c(F)c([H])c([H])c3F)nc2c([H])c1-c1c([H])nn(C2([H])C([H])([H])N([H])C([H])([H])C2([H])[H])c1[H]


 34 38  0  0  0  0  0  0  0  0999 V2000
    4.7150    1.2720   20.4648 C   0  0  0  0  0  0  0  0  0  0  0  0
    3.8327    0.2352   20.6755 C   0  0  0  0  0  0  0  0  0  0  0  0
    3.0024   -0.1540   19.6519 C   0  0  0  0  0  0  0  0  0  0  0  0
    3.0871    0.5194   18.4358 C   0  0  0  0  0  0  0  0  0  0  0  0
    2.2915    0.1679   17.4097 N   0  0  0  0  0  0  0  0  0  0  0  0
    2.3411    0.7977   16.2060 C   0  0  0  0  0  0  0  0  0  0  0  0
    3.2247    1.8434   15.9797 C   0  0  0  0  0  0  0  0  0  0  0  0
    4.0423    2.2023   17.0388 C   0  0  0  0  0  0  0  0  0  0  0  0
    3.9760    1.5540   18.2440 C   0  0  0  0  0  0  0  0  0  0  0  0
    4.7750    1.8995   19.2899 N   0  0  0  0  0  0  0  0  0  0  0  0
    3.2652    2.5022   14.6951 C   0  0  0  0  0  0  0  0  0  0  0  0
    3.8634    3.7066   14.4165 C   0  0  0  0  0  0  0  0  0  0  0  0
    3.6685    3.9482   13.1169 N   0  0  0  0  0  0  0  0  0  0  0  0
    2.9791    2.9607   12.5598 N   0  0  0  0  0  0  0  0  0  0  0  0
    2.7119    2.0423   13.5187 C   0  0  0  0  0  0  0  0  0  0  0  0
    2.5772    2.8707   11.1694 C   0  0  0  0  0  0  0  0  0  0  0  0
    2.1884    1.4601   10.7916 C   0  0  0  0  0  0  0  0  0  0  0  0
    3.2924    0.9681    9.8525 C   0  0  0  0  0  0  0  0  0  0  0  0
    3.7294    2.1925    9.2036 N   0  0  0  0  0  0  0  0  0  0  0  0
    3.7754    3.1597   10.2793 C   0  0  0  0  0  0  0  0  0  0  0  0
    3.0666    2.4534    8.4453 H   0  0  0  0  0  0  0  0  0  0  0  0
    6.8216    0.9322   21.6710 C   0  0  0  0  0  0  0  0  0  0  0  0
    5.5561    1.6242   21.5894 N   0  0  0  0  0  0  0  0  0  0  0  0
    4.9801    2.7976   22.6875 S   0  0  0  0  0  0  0  0  0  0  0  0
    3.4716    2.7425   22.8062 O   0  0  0  0  0  0  0  0  0  0  0  0
    5.5272    2.4837   24.0622 O   0  0  0  0  0  0  0  0  0  0  0  0
    5.4822    4.4396   22.2977 C   0  0  0  0  0  0  0  0  0  0  0  0
    6.8523    4.7284   22.1858 C   0  0  0  0  0  0  0  0  0  0  0  0
    7.2843    5.9815   21.8595 C   0  0  0  0  0  0  0  0  0  0  0  0
    8.6238    6.2435   21.7552 F   0  0  0  0  0  0  0  0  0  0  0  0
    6.3408    6.9541   21.6433 C   0  0  0  0  0  0  0  0  0  0  0  0
    4.9957    6.6983   21.7466 C   0  0  0  0  0  0  0  0  0  0  0  0
    4.5443    5.4178   22.0808 C   0  0  0  0  0  0  0  0  0  0  0  0
    3.2110    5.1944   22.2022 F   0  0  0  0  0  0  0  0  0  0  0  0
 22 23  1  0  0  0
 23  1  1  0  0  0
  1  2  2  0  0  0
  2  3  1  0  0  0
  3  4  2  0  0  0
  4  5  1  0  0  0
  5  6  2  0  0  0
  6  7  1  0  0  0
  7  8  2  0  0  0
  8  9  1  0  0  0
  9 10  2  0  0  0
  7 11  1  0  0  0
 11 12  1  0  0  0
 12 13  2  0  0  0
 13 14  1  0  0  0
 14 15  1  0  0  0
 14 16  1  0  0  0
 16 17  1  0  0  0
 17 18  1  0  0  0
 18 19  1  0  0  0
 19 20  1  0  0  0
 23 24  1  0  0  0
 24 25  2  0  0  0
 24 26  2  0  0  0
 24 27  1  0  0  0
 27 28  2  0  0  0
 28 29  1  0  0  0
 29 30  1  0  0  0
 29 31  2  0  0  0
 31 32  1  0  0  0
 32 33  2  0  0  0
 33 34  1  0  0  0
 10  1  1  0  0  0
 15 11  2  0  0  0
 20 16  1  0  0  0
 33 27  1  0  0  0
  9  4  1  0  0  0
 19 21  1  0  0  0
M  END
> <minimizedAffinity>
-9.61709

> <CNNscore>
0.7316778302

> <CNNaffinity>
7.4119582176

> <CNN_VS>
5.4231653214

> <CNNaffinity_variance>
0.1423421800

$$$$
[H]c1nc2c([H])c([H])c(N(C([H])([H])[H])S(=O)(=O)c3c([H])c(F)c([H])c([H])c3F)nc2c([H])c1-c1c([H])nn(C2([H])C([H])([H])N([H])C([H])([H])C2([H])[H])c1[H]


 34 38  0  0  0  0  0  0  0  0999 V2000
    4.6992    1.3742   20.3531 C   0  0  0  0  0  0  0  0  0  0  0  0
    3.8589    0.3113   20.6019 C   0  0  0  0  0  0  0  0  0  0  0  0
    3.0312   -0.1350   19.5996 C   0  0  0  0  0  0  0  0  0  0  0  0
    3.0759    0.5090   18.3657 C   0  0  0  0  0  0  0  0  0  0  0  0
    2.2814    0.1017   17.3596 N   0  0  0  0  0  0  0  0  0  0  0  0
    2.2927    0.7014   16.1396 C   0  0  0  0  0  0  0  0  0  0  0  0
    3.1338    1.7728   15.8749 C   0  0  0  0  0  0  0  0  0  0  0  0
    3.9503    2.1892   16.9135 C   0  0  0  0  0  0  0  0  0  0  0  0
    3.9231    1.5705   18.1358 C   0  0  0  0  0  0  0  0  0  0  0  0
    4.7213    1.9725   19.1618 N   0  0  0  0  0  0  0  0  0  0  0  0
    3.1339    2.3989   14.5734 C   0  0  0  0  0  0  0  0  0  0  0  0
    3.8106    3.5403   14.2194 C   0  0  0  0  0  0  0  0  0  0  0  0
    3.5399    3.7712   12.9314 N   0  0  0  0  0  0  0  0  0  0  0  0
    2.7284    2.8366   12.4531 N   0  0  0  0  0  0  0  0  0  0  0  0
    2.4563    1.9651   13.4535 C   0  0  0  0  0  0  0  0  0  0  0  0
    2.2168    2.7535   11.0988 C   0  0  0  0  0  0  0  0  0  0  0  0
    1.4834    4.0137   10.7015 C   0  0  0  0  0  0  0  0  0  0  0  0
    0.0072    3.6186   10.6142 C   0  0  0  0  0  0  0  0  0  0  0  0
    0.0728    2.2217   10.2201 N   0  0  0  0  0  0  0  0  0  0  0  0
    1.1419    1.6804   11.0317 C   0  0  0  0  0  0  0  0  0  0  0  0
    0.2540    2.1449    9.1985 H   0  0  0  0  0  0  0  0  0  0  0  0
    6.7449    1.0139   21.6543 C   0  0  0  0  0  0  0  0  0  0  0  0
    5.5403    1.7865   21.4570 N   0  0  0  0  0  0  0  0  0  0  0  0
    5.0345    3.1171   22.3995 S   0  0  0  0  0  0  0  0  0  0  0  0
    3.5445    3.0659   22.6639 O   0  0  0  0  0  0  0  0  0  0  0  0
    5.7097    3.0377   23.7506 O   0  0  0  0  0  0  0  0  0  0  0  0
    5.4578    4.6788   21.7050 C   0  0  0  0  0  0  0  0  0  0  0  0
    4.4899    5.3890   20.9759 C   0  0  0  0  0  0  0  0  0  0  0  0
    4.7676    6.6146   20.4430 C   0  0  0  0  0  0  0  0  0  0  0  0
    3.8110    7.2916   19.7354 F   0  0  0  0  0  0  0  0  0  0  0  0
    6.0218    7.1353   20.6395 C   0  0  0  0  0  0  0  0  0  0  0  0
    6.9862    6.4616   21.3478 C   0  0  0  0  0  0  0  0  0  0  0  0
    6.7105    5.2055   21.8968 C   0  0  0  0  0  0  0  0  0  0  0  0
    7.6871    4.5469   22.5713 F   0  0  0  0  0  0  0  0  0  0  0  0
 22 23  1  0  0  0
 23  1  1  0  0  0
  1  2  2  0  0  0
  2  3  1  0  0  0
  3  4  2  0  0  0
  4  5  1  0  0  0
  5  6  2  0  0  0
  6  7  1  0  0  0
  7  8  2  0  0  0
  8  9  1  0  0  0
  9 10  2  0  0  0
  7 11  1  0  0  0
 11 12  1  0  0  0
 12 13  2  0  0  0
 13 14  1  0  0  0
 14 15  1  0  0  0
 14 16  1  0  0  0
 16 17  1  0  0  0
 17 18  1  0  0  0
 18 19  1  0  0  0
 19 20  1  0  0  0
 23 24  1  0  0  0
 24 25  2  0  0  0
 24 26  2  0  0  0
 24 27  1  0  0  0
 27 28  2  0  0  0
 28 29  1  0  0  0
 29 30  1  0  0  0
 29 31  2  0  0  0
 31 32  1  0  0  0
 32 33  2  0  0  0
 33 34  1  0  0  0
 10  1  1  0  0  0
 15 11  2  0  0  0
 20 16  1  0  0  0
 33 27  1  0  0  0
  9  4  1  0  0  0
 19 21  1  0  0  0
M  END
> <minimizedAffinity>
-9.18582

> <CNNscore>
0.6447497010

> <CNNaffinity>
7.2897124290

> <CNN_VS>
4.7000398636

> <CNNaffinity_variance>
0.2481951714

$$$$
[H]c1nc2c([H])c([H])c(N(C([H])([H])[H])S(=O)(=O)c3c([H])c(F)c([H])c([H])c3F)nc2c([H])c1-c1c([H])nn(C2([H])C([H])([H])N([H])C([H])([H])C2([H])[H])c1[H]


 34 38  0  0  0  0  0  0  0  0999 V2000
    4.7563    2.6733   20.2743 C   0  0  0  0  0  0  0  0  0  0  0  0
    4.2208    1.4507   20.6154 C   0  0  0  0  0  0  0  0  0  0  0  0
    3.5989    0.7000   19.6468 C   0  0  0  0  0  0  0  0  0  0  0  0
    3.5349    1.2085   18.3518 C   0  0  0  0  0  0  0  0  0  0  0  0
    2.9346    0.5037   17.3760 N   0  0  0  0  0  0  0  0  0  0  0  0
    2.8498    0.9619   16.0989 C   0  0  0  0  0  0  0  0  0  0  0  0
    3.3846    2.1913   15.7412 C   0  0  0  0  0  0  0  0  0  0  0  0
    4.0019    2.9139   16.7489 C   0  0  0  0  0  0  0  0  0  0  0  0
    4.0764    2.4334   18.0298 C   0  0  0  0  0  0  0  0  0  0  0  0
    4.6807    3.1360   19.0261 N   0  0  0  0  0  0  0  0  0  0  0  0
    3.2863    2.6639   14.3799 C   0  0  0  0  0  0  0  0  0  0  0  0
    3.8636    3.8005   13.8693 C   0  0  0  0  0  0  0  0  0  0  0  0
    3.5246    3.8647   12.5784 N   0  0  0  0  0  0  0  0  0  0  0  0
    2.7640    2.8293   12.2465 N   0  0  0  0  0  0  0  0  0  0  0  0
    2.5967    2.0609   13.3492 C   0  0  0  0  0  0  0  0  0  0  0  0
    2.2049    2.5584   10.9362 C   0  0  0  0  0  0  0  0  0  0  0  0
    1.4921    3.7664   10.3736 C   0  0  0  0  0  0  0  0  0  0  0  0
    0.0039    3.4090   10.3908 C   0  0  0  0  0  0  0  0  0  0  0  0
    0.0191    1.9672   10.2120 N   0  0  0  0  0  0  0  0  0  0  0  0
    1.1004    1.5217   11.0647 C   0  0  0  0  0  0  0  0  0  0  0  0
    0.1636    1.7312    9.2091 H   0  0  0  0  0  0  0  0  0  0  0  0
    6.3453    2.6598   22.1405 C   0  0  0  0  0  0  0  0  0  0  0  0
    5.3948    3.4051   21.3480 N   0  0  0  0  0  0  0  0  0  0  0  0
    4.9683    5.0434   21.5689 S   0  0  0  0  0  0  0  0  0  0  0  0
    3.5637    5.1741   22.1188 O   0  0  0  0  0  0  0  0  0  0  0  0
    5.8894    5.6477   22.6053 O   0  0  0  0  0  0  0  0  0  0  0  0
    5.1251    6.0188   20.1115 C   0  0  0  0  0  0  0  0  0  0  0  0
    6.3872    6.5239   19.7579 C   0  0  0  0  0  0  0  0  0  0  0  0
    6.5582    7.2624   18.6228 C   0  0  0  0  0  0  0  0  0  0  0  0
    7.7962    7.7461   18.2950 F   0  0  0  0  0  0  0  0  0  0  0  0
    5.4604    7.4986   17.8342 C   0  0  0  0  0  0  0  0  0  0  0  0
    4.2158    7.0168   18.1571 C   0  0  0  0  0  0  0  0  0  0  0  0
    4.0313    6.2598   19.3182 C   0  0  0  0  0  0  0  0  0  0  0  0
    2.7874    5.8155   19.6306 F   0  0  0  0  0  0  0  0  0  0  0  0
 22 23  1  0  0  0
 23  1  1  0  0  0
  1  2  2  0  0  0
  2  3  1  0  0  0
  3  4  2  0  0  0
  4  5  1  0  0  0
  5  6  2  0  0  0
  6  7  1  0  0  0
  7  8  2  0  0  0
  8  9  1  0  0  0
  9 10  2  0  0  0
  7 11  1  0  0  0
 11 12  1  0  0  0
 12 13  2  0  0  0
 13 14  1  0  0  0
 14 15  1  0  0  0
 14 16  1  0  0  0
 16 17  1  0  0  0
 17 18  1  0  0  0
 18 19  1  0  0  0
 19 20  1  0  0  0
 23 24  1  0  0  0
 24 25  2  0  0  0
 24 26  2  0  0  0
 24 27  1  0  0  0
 27 28  2  0  0  0
 28 29  1  0  0  0
 29 30  1  0  0  0
 29 31  2  0  0  0
 31 32  1  0  0  0
 32 33  2  0  0  0
 33 34  1  0  0  0
 10  1  1  0  0  0
 15 11  2  0  0  0
 20 16  1  0  0  0
 33 27  1  0  0  0
  9  4  1  0  0  0
 19 21  1  0  0  0
M  END
> <minimizedAffinity>
-8.99598

> <CNNscore>
0.4454270899

> <CNNaffinity>
6.8395605087

> <CNN_VS>
3.0465254784

> <CNNaffinity_variance>
0.4116827548

$$$$
[H]c1nc2c([H])c([H])c(N(C([H])([H])[H])S(=O)(=O)c3c([H])c(F)c([H])c([H])c3F)nc2c([H])c1-c1c([H])nn(C2([H])C([H])([H])N([H])C([H])([H])C2([H])[H])c1[H]


 34 38  0  0  0  0  0  0  0  0999 V2000
    4.7324    2.5329   20.2192 C   0  0  0  0  0  0  0  0  0  0  0  0
    4.2021    1.3116   20.5733 C   0  0  0  0  0  0  0  0  0  0  0  0
    3.5528    0.5637   19.6206 C   0  0  0  0  0  0  0  0  0  0  0  0
    3.4566    1.0735   18.3282 C   0  0  0  0  0  0  0  0  0  0  0  0
    2.8289    0.3714   17.3678 N   0  0  0  0  0  0  0  0  0  0  0  0
    2.7121    0.8310   16.0937 C   0  0  0  0  0  0  0  0  0  0  0  0
    3.2412    2.0591   15.7231 C   0  0  0  0  0  0  0  0  0  0  0  0
    3.8869    2.7789   16.7149 C   0  0  0  0  0  0  0  0  0  0  0  0
    3.9933    2.2970   17.9931 C   0  0  0  0  0  0  0  0  0  0  0  0
    4.6256    2.9969   18.9739 N   0  0  0  0  0  0  0  0  0  0  0  0
    3.1089    2.5331   14.3653 C   0  0  0  0  0  0  0  0  0  0  0  0
    2.4016    1.9262   13.3566 C   0  0  0  0  0  0  0  0  0  0  0  0
    2.5393    2.6898   12.2687 N   0  0  0  0  0  0  0  0  0  0  0  0
    3.2957    3.7466   12.5366 N   0  0  0  0  0  0  0  0  0  0  0  0
    3.6673    3.6780   13.8371 C   0  0  0  0  0  0  0  0  0  0  0  0
    3.6656    4.7966   11.6073 C   0  0  0  0  0  0  0  0  0  0  0  0
    4.6436    4.3014   10.5670 C   0  0  0  0  0  0  0  0  0  0  0  0
    5.9726    4.9864   10.8947 C   0  0  0  0  0  0  0  0  0  0  0  0
    5.5471    6.2446   11.4838 N   0  0  0  0  0  0  0  0  0  0  0  0
    4.4469    5.8710   12.3467 C   0  0  0  0  0  0  0  0  0  0  0  0
    5.2737    6.9161   10.7377 H   0  0  0  0  0  0  0  0  0  0  0  0
    6.4616    2.5547   21.9563 C   0  0  0  0  0  0  0  0  0  0  0  0
    5.4009    3.2617   21.2765 N   0  0  0  0  0  0  0  0  0  0  0  0
    4.8789    4.8525   21.6107 S   0  0  0  0  0  0  0  0  0  0  0  0
    3.6444    5.2037   20.8073 O   0  0  0  0  0  0  0  0  0  0  0  0
    4.4770    4.9342   23.0666 O   0  0  0  0  0  0  0  0  0  0  0  0
    6.1197    6.0745   21.3512 C   0  0  0  0  0  0  0  0  0  0  0  0
    6.6252    6.7821   22.4542 C   0  0  0  0  0  0  0  0  0  0  0  0
    7.6060    7.7191   22.3013 C   0  0  0  0  0  0  0  0  0  0  0  0
    8.0859    8.3985   23.3885 F   0  0  0  0  0  0  0  0  0  0  0  0
    8.0861    7.9513   21.0370 C   0  0  0  0  0  0  0  0  0  0  0  0
    7.6091    7.2738   19.9421 C   0  0  0  0  0  0  0  0  0  0  0  0
    6.6041    6.3128   20.0894 C   0  0  0  0  0  0  0  0  0  0  0  0
    6.1302    5.6737   18.9897 F   0  0  0  0  0  0  0  0  0  0  0  0
 22 23  1  0  0  0
 23  1  1  0  0  0
  1  2  2  0  0  0
  2  3  1  0  0  0
  3  4  2  0  0  0
  4  5  1  0  0  0
  5  6  2  0  0  0
  6  7  1  0  0  0
  7  8  2  0  0  0
  8  9  1  0  0  0
  9 10  2  0  0  0
  7 11  1  0  0  0
 11 12  1  0  0  0
 12 13  2  0  0  0
 13 14  1  0  0  0
 14 15  1  0  0  0
 14 16  1  0  0  0
 16 17  1  0  0  0
 17 18  1  0  0  0
 18 19  1  0  0  0
 19 20  1  0  0  0
 23 24  1  0  0  0
 24 25  2  0  0  0
 24 26  2  0  0  0
 24 27  1  0  0  0
 27 28  2  0  0  0
 28 29  1  0  0  0
 29 30  1  0  0  0
 29 31  2  0  0  0
 31 32  1  0  0  0
 32 33  2  0  0  0
 33 34  1  0  0  0
 10  1  1  0  0  0
 15 11  2  0  0  0
 20 16  1  0  0  0
 33 27  1  0  0  0
  9  4  1  0  0  0
 19 21  1  0  0  0
M  END
> <minimizedAffinity>
-8.88712

> <CNNscore>
0.4344862401

> <CNNaffinity>
6.9755005836

> <CNN_VS>
3.0307590961

> <CNNaffinity_variance>
0.5245774984

$$$$
[H]c1nc2c([H])c([H])c(N(C([H])([H])[H])S(=O)(=O)c3c([H])c(F)c([H])c([H])c3F)nc2c([H])c1-c1c([H])nn(C2([H])C([H])([H])N([H])C([H])([H])C2([H])[H])c1[H]


 34 38  0  0  0  0  0  0  0  0999 V2000
    2.2680    4.1947   13.8095 C   0  0  0  0  0  0  0  0  0  0  0  0
    2.0160    2.9571   13.2592 C   0  0  0  0  0  0  0  0  0  0  0  0
    2.2658    1.8305   14.0057 C   0  0  0  0  0  0  0  0  0  0  0  0
    2.7666    1.9865   15.2958 C   0  0  0  0  0  0  0  0  0  0  0  0
    3.0239    0.9083   16.0578 N   0  0  0  0  0  0  0  0  0  0  0  0
    3.5128    1.0147   17.3218 C   0  0  0  0  0  0  0  0  0  0  0  0
    3.7713    2.2545   17.8887 C   0  0  0  0  0  0  0  0  0  0  0  0
    3.5050    3.3623   17.1008 C   0  0  0  0  0  0  0  0  0  0  0  0
    3.0123    3.2326   15.8289 C   0  0  0  0  0  0  0  0  0  0  0  0
    2.7477    4.3148   15.0477 N   0  0  0  0  0  0  0  0  0  0  0  0
    4.2906    2.3506   19.2329 C   0  0  0  0  0  0  0  0  0  0  0  0
    4.8167    1.3236   19.9775 C   0  0  0  0  0  0  0  0  0  0  0  0
    5.1765    1.8401   21.1562 N   0  0  0  0  0  0  0  0  0  0  0  0
    4.9057    3.1385   21.1957 N   0  0  0  0  0  0  0  0  0  0  0  0
    4.3519    3.4880   20.0102 C   0  0  0  0  0  0  0  0  0  0  0  0
    5.1549    4.0351   22.3078 C   0  0  0  0  0  0  0  0  0  0  0  0
    4.3205    5.2912   22.2093 C   0  0  0  0  0  0  0  0  0  0  0  0
    5.3093    6.4166   21.8953 C   0  0  0  0  0  0  0  0  0  0  0  0
    6.5277    5.9618   22.5430 N   0  0  0  0  0  0  0  0  0  0  0  0
    6.5832    4.5500   22.2290 C   0  0  0  0  0  0  0  0  0  0  0  0
    6.4844    6.1534   23.5647 H   0  0  0  0  0  0  0  0  0  0  0  0
    2.9242    5.5815   11.8980 C   0  0  0  0  0  0  0  0  0  0  0  0
    1.9799    5.3331   12.9627 N   0  0  0  0  0  0  0  0  0  0  0  0
    0.5818    6.2528   13.3005 S   0  0  0  0  0  0  0  0  0  0  0  0
    0.2626    6.2402   14.7805 O   0  0  0  0  0  0  0  0  0  0  0  0
    0.8517    7.6955   12.9353 O   0  0  0  0  0  0  0  0  0  0  0  0
   -0.8359    5.7483   12.3863 C   0  0  0  0  0  0  0  0  0  0  0  0
   -0.6956    4.7671   11.3911 C   0  0  0  0  0  0  0  0  0  0  0  0
   -1.7728    4.3281   10.6769 C   0  0  0  0  0  0  0  0  0  0  0  0
   -1.6159    3.3709    9.7108 F   0  0  0  0  0  0  0  0  0  0  0  0
   -3.0002    4.8733   10.9585 C   0  0  0  0  0  0  0  0  0  0  0  0
   -3.1646    5.8338   11.9258 C   0  0  0  0  0  0  0  0  0  0  0  0
   -2.0666    6.2897   12.6619 C   0  0  0  0  0  0  0  0  0  0  0  0
   -2.2488    7.2580   13.5954 F   0  0  0  0  0  0  0  0  0  0  0  0
 22 23  1  0  0  0
 23  1  1  0  0  0
  1  2  2  0  0  0
  2  3  1  0  0  0
  3  4  2  0  0  0
  4  5  1  0  0  0
  5  6  2  0  0  0
  6  7  1  0  0  0
  7  8  2  0  0  0
  8  9  1  0  0  0
  9 10  2  0  0  0
  7 11  1  0  0  0
 11 12  1  0  0  0
 12 13  2  0  0  0
 13 14  1  0  0  0
 14 15  1  0  0  0
 14 16  1  0  0  0
 16 17  1  0  0  0
 17 18  1  0  0  0
 18 19  1  0  0  0
 19 20  1  0  0  0
 23 24  1  0  0  0
 24 25  2  0  0  0
 24 26  2  0  0  0
 24 27  1  0  0  0
 27 28  2  0  0  0
 28 29  1  0  0  0
 29 30  1  0  0  0
 29 31  2  0  0  0
 31 32  1  0  0  0
 32 33  2  0  0  0
 33 34  1  0  0  0
 10  1  1  0  0  0
 15 11  2  0  0  0
 20 16  1  0  0  0
 33 27  1  0  0  0
  9  4  1  0  0  0
 19 21  1  0  0  0
M  END
> <minimizedAffinity>
-8.83764

> <CNNscore>
0.4244309366

> <CNNaffinity>
6.7779860497

> <CNN_VS>
2.8767869473

> <CNNaffinity_variance>
0.3441520333

$$$$
[H]c1nc2c([H])c([H])c(N(C([H])([H])[H])S(=O)(=O)c3c([H])c(F)c([H])c([H])c3F)nc2c([H])c1-c1c([H])nn(C2([H])C([H])([H])N([H])C([H])([H])C2([H])[H])c1[H]


 34 38  0  0  0  0  0  0  0  0999 V2000
    3.5269    4.3415   13.4698 C   0  0  0  0  0  0  0  0  0  0  0  0
    2.9370    3.2541   12.8636 C   0  0  0  0  0  0  0  0  0  0  0  0
    2.7326    2.1098   13.5966 C   0  0  0  0  0  0  0  0  0  0  0  0
    3.1324    2.0956   14.9306 C   0  0  0  0  0  0  0  0  0  0  0  0
    2.9494    0.9945   15.6812 N   0  0  0  0  0  0  0  0  0  0  0  0
    3.3243    0.9372   16.9866 C   0  0  0  0  0  0  0  0  0  0  0  0
    3.9195    2.0246   17.6101 C   0  0  0  0  0  0  0  0  0  0  0  0
    4.1062    3.1566   16.8338 C   0  0  0  0  0  0  0  0  0  0  0  0
    3.7208    3.1930   15.5195 C   0  0  0  0  0  0  0  0  0  0  0  0
    3.9001    4.3003   14.7492 N   0  0  0  0  0  0  0  0  0  0  0  0
    4.3119    1.9479   18.9979 C   0  0  0  0  0  0  0  0  0  0  0  0
    4.3232    0.8186   19.7793 C   0  0  0  0  0  0  0  0  0  0  0  0
    4.7497    1.1863   20.9910 N   0  0  0  0  0  0  0  0  0  0  0  0
    5.0084    2.4875   21.0167 N   0  0  0  0  0  0  0  0  0  0  0  0
    4.7451    2.9920   19.7877 C   0  0  0  0  0  0  0  0  0  0  0  0
    5.4890    3.2460   22.1552 C   0  0  0  0  0  0  0  0  0  0  0  0
    4.6992    2.9355   23.4057 C   0  0  0  0  0  0  0  0  0  0  0  0
    3.8878    4.1990   23.7024 C   0  0  0  0  0  0  0  0  0  0  0  0
    4.7384    5.2551   23.1810 N   0  0  0  0  0  0  0  0  0  0  0  0
    5.2218    4.7247   21.9241 C   0  0  0  0  0  0  0  0  0  0  0  0
    5.5005    5.4688   23.8563 H   0  0  0  0  0  0  0  0  0  0  0  0
    4.7402    5.4094   11.6271 C   0  0  0  0  0  0  0  0  0  0  0  0
    3.7088    5.5094   12.6338 N   0  0  0  0  0  0  0  0  0  0  0  0
    2.7080    6.8635   12.9157 S   0  0  0  0  0  0  0  0  0  0  0  0
    2.9759    7.4681   14.2778 O   0  0  0  0  0  0  0  0  0  0  0  0
    3.0446    7.9335   11.9011 O   0  0  0  0  0  0  0  0  0  0  0  0
    0.9890    6.5207   12.7494 C   0  0  0  0  0  0  0  0  0  0  0  0
    0.1155    6.8791   13.7894 C   0  0  0  0  0  0  0  0  0  0  0  0
   -1.2275    6.6556   13.6906 C   0  0  0  0  0  0  0  0  0  0  0  0
   -2.0628    7.0119   14.7149 F   0  0  0  0  0  0  0  0  0  0  0  0
   -1.7022    6.0695   12.5442 C   0  0  0  0  0  0  0  0  0  0  0  0
   -0.8699    5.7093   11.5132 C   0  0  0  0  0  0  0  0  0  0  0  0
    0.5070    5.9341   11.6061 C   0  0  0  0  0  0  0  0  0  0  0  0
    1.3134    5.5466   10.5853 F   0  0  0  0  0  0  0  0  0  0  0  0
 22 23  1  0  0  0
 23  1  1  0  0  0
  1  2  2  0  0  0
  2  3  1  0  0  0
  3  4  2  0  0  0
  4  5  1  0  0  0
  5  6  2  0  0  0
  6  7  1  0  0  0
  7  8  2  0  0  0
  8  9  1  0  0  0
  9 10  2  0  0  0
  7 11  1  0  0  0
 11 12  1  0  0  0
 12 13  2  0  0  0
 13 14  1  0  0  0
 14 15  1  0  0  0
 14 16  1  0  0  0
 16 17  1  0  0  0
 17 18  1  0  0  0
 18 19  1  0  0  0
 19 20  1  0  0  0
 23 24  1  0  0  0
 24 25  2  0  0  0
 24 26  2  0  0  0
 24 27  1  0  0  0
 27 28  2  0  0  0
 28 29  1  0  0  0
 29 30  1  0  0  0
 29 31  2  0  0  0
 31 32  1  0  0  0
 32 33  2  0  0  0
 33 34  1  0  0  0
 10  1  1  0  0  0
 15 11  2  0  0  0
 20 16  1  0  0  0
 33 27  1  0  0  0
  9  4  1  0  0  0
 19 21  1  0  0  0
M  END
> <minimizedAffinity>
-9.47044

> <CNNscore>
0.3520961404

> <CNNaffinity>
6.9123315811

> <CNN_VS>
2.4338052273

> <CNNaffinity_variance>
0.3613355756

$$$$
[H]c1nc2c([H])c([H])c(N(C([H])([H])[H])S(=O)(=O)c3c([H])c(F)c([H])c([H])c3F)nc2c([H])c1-c1c([H])nn(C2([H])C([H])([H])N([H])C([H])([H])C2([H])[H])c1[H]


 34 38  0  0  0  0  0  0  0  0999 V2000
    4.8086    1.6135   20.1479 C   0  0  0  0  0  0  0  0  0  0  0  0
    3.9843    0.5160   20.0291 C   0  0  0  0  0  0  0  0  0  0  0  0
    3.2449    0.3570   18.8817 C   0  0  0  0  0  0  0  0  0  0  0  0
    3.3594    1.3172   17.8795 C   0  0  0  0  0  0  0  0  0  0  0  0
    2.6521    1.1969   16.7417 N   0  0  0  0  0  0  0  0  0  0  0  0
    2.7337    2.1103   15.7382 C   0  0  0  0  0  0  0  0  0  0  0  0
    3.5596    3.2203   15.8443 C   0  0  0  0  0  0  0  0  0  0  0  0
    4.2863    3.3406   17.0174 C   0  0  0  0  0  0  0  0  0  0  0  0
    4.1892    2.4081   18.0167 C   0  0  0  0  0  0  0  0  0  0  0  0
    4.8989    2.5178   19.1724 N   0  0  0  0  0  0  0  0  0  0  0  0
    3.6352    4.1816   14.7690 C   0  0  0  0  0  0  0  0  0  0  0  0
    3.9292    3.9115   13.4550 C   0  0  0  0  0  0  0  0  0  0  0  0
    3.8946    5.0755   12.7997 N   0  0  0  0  0  0  0  0  0  0  0  0
    3.5944    6.0663   13.6298 N   0  0  0  0  0  0  0  0  0  0  0  0
    3.4264    5.5411   14.8668 C   0  0  0  0  0  0  0  0  0  0  0  0
    3.4661    7.4686   13.2836 C   0  0  0  0  0  0  0  0  0  0  0  0
    4.4527    8.3234   14.0450 C   0  0  0  0  0  0  0  0  0  0  0  0
    3.6132    9.1369   15.0332 C   0  0  0  0  0  0  0  0  0  0  0  0
    2.3500    9.2875   14.3313 N   0  0  0  0  0  0  0  0  0  0  0  0
    2.1143    7.9816   13.7536 C   0  0  0  0  0  0  0  0  0  0  0  0
    2.4221   10.0437   13.6204 H   0  0  0  0  0  0  0  0  0  0  0  0
    6.6852    0.8210   21.5111 C   0  0  0  0  0  0  0  0  0  0  0  0
    5.5551    1.7119   21.3845 N   0  0  0  0  0  0  0  0  0  0  0  0
    5.0353    2.8470   22.5490 S   0  0  0  0  0  0  0  0  0  0  0  0
    3.5350    2.7841   22.7433 O   0  0  0  0  0  0  0  0  0  0  0  0
    5.6528    2.4895   23.8826 O   0  0  0  0  0  0  0  0  0  0  0  0
    5.5152    4.5023   22.1883 C   0  0  0  0  0  0  0  0  0  0  0  0
    6.8816    4.8236   22.1378 C   0  0  0  0  0  0  0  0  0  0  0  0
    7.2978    6.0881   21.8360 C   0  0  0  0  0  0  0  0  0  0  0  0
    8.6341    6.3819   21.7917 F   0  0  0  0  0  0  0  0  0  0  0  0
    6.3420    7.0395   21.5824 C   0  0  0  0  0  0  0  0  0  0  0  0
    5.0001    6.7517   21.6254 C   0  0  0  0  0  0  0  0  0  0  0  0
    4.5648    5.4593   21.9343 C   0  0  0  0  0  0  0  0  0  0  0  0
    3.2331    5.2042   21.9961 F   0  0  0  0  0  0  0  0  0  0  0  0
 22 23  1  0  0  0
 23  1  1  0  0  0
  1  2  2  0  0  0
  2  3  1  0  0  0
  3  4  2  0  0  0
  4  5  1  0  0  0
  5  6  2  0  0  0
  6  7  1  0  0  0
  7  8  2  0  0  0
  8  9  1  0  0  0
  9 10  2  0  0  0
  7 11  1  0  0  0
 11 12  1  0  0  0
 12 13  2  0  0  0
 13 14  1  0  0  0
 14 15  1  0  0  0
 14 16  1  0  0  0
 16 17  1  0  0  0
 17 18  1  0  0  0
 18 19  1  0  0  0
 19 20  1  0  0  0
 23 24  1  0  0  0
 24 25  2  0  0  0
 24 26  2  0  0  0
 24 27  1  0  0  0
 27 28  2  0  0  0
 28 29  1  0  0  0
 29 30  1  0  0  0
 29 31  2  0  0  0
 31 32  1  0  0  0
 32 33  2  0  0  0
 33 34  1  0  0  0
 10  1  1  0  0  0
 15 11  2  0  0  0
 20 16  1  0  0  0
 33 27  1  0  0  0
  9  4  1  0  0  0
 19 21  1  0  0  0
M  END
> <minimizedAffinity>
-9.23732

> <CNNscore>
0.3447140157

> <CNNaffinity>
6.9621672630

> <CNN_VS>
2.3999567032

> <CNNaffinity_variance>
0.2540632784

$$$$
[H]c1nc2c([H])c([H])c(N(C([H])([H])[H])S(=O)(=O)c3c([H])c(F)c([H])c([H])c3F)nc2c([H])c1-c1c([H])nn(C2([H])C([H])([H])N([H])C([H])([H])C2([H])[H])c1[H]


 34 38  0  0  0  0  0  0  0  0999 V2000
    3.3969    3.6680   13.7944 C   0  0  0  0  0  0  0  0  0  0  0  0
    2.5704    2.6404   13.3957 C   0  0  0  0  0  0  0  0  0  0  0  0
    2.3078    1.6156   14.2729 C   0  0  0  0  0  0  0  0  0  0  0  0
    2.8914    1.6575   15.5367 C   0  0  0  0  0  0  0  0  0  0  0  0
    2.6587    0.6732   16.4235 N   0  0  0  0  0  0  0  0  0  0  0  0
    3.2073    0.6743   17.6673 C   0  0  0  0  0  0  0  0  0  0  0  0
    4.0415    1.7026   18.0822 C   0  0  0  0  0  0  0  0  0  0  0  0
    4.2786    2.7143   17.1661 C   0  0  0  0  0  0  0  0  0  0  0  0
    3.7153    2.6936   15.9173 C   0  0  0  0  0  0  0  0  0  0  0  0
    3.9424    3.6828   15.0109 N   0  0  0  0  0  0  0  0  0  0  0  0
    4.6164    1.6892   19.4070 C   0  0  0  0  0  0  0  0  0  0  0  0
    5.2028    0.6143   20.0289 C   0  0  0  0  0  0  0  0  0  0  0  0
    5.5996    1.0297   21.2354 N   0  0  0  0  0  0  0  0  0  0  0  0
    5.2951    2.3095   21.4085 N   0  0  0  0  0  0  0  0  0  0  0  0
    4.6804    2.7505   20.2851 C   0  0  0  0  0  0  0  0  0  0  0  0
    5.5682    3.1059   22.5892 C   0  0  0  0  0  0  0  0  0  0  0  0
    4.4787    2.9576   23.6260 C   0  0  0  0  0  0  0  0  0  0  0  0
    3.7525    4.3047   23.6530 C   0  0  0  0  0  0  0  0  0  0  0  0
    4.8045    5.2424   23.2993 N   0  0  0  0  0  0  0  0  0  0  0  0
    5.5142    4.5810   22.2252 C   0  0  0  0  0  0  0  0  0  0  0  0
    5.4036    5.4389   24.1269 H   0  0  0  0  0  0  0  0  0  0  0  0
    4.7300    4.4929   11.9102 C   0  0  0  0  0  0  0  0  0  0  0  0
    3.6258    4.7104   12.8160 N   0  0  0  0  0  0  0  0  0  0  0  0
    2.5905    6.0677   12.8304 S   0  0  0  0  0  0  0  0  0  0  0  0
    2.2816    6.5355   11.4239 O   0  0  0  0  0  0  0  0  0  0  0  0
    1.2689    5.6618   13.4441 O   0  0  0  0  0  0  0  0  0  0  0  0
    3.2047    7.4172   13.7801 C   0  0  0  0  0  0  0  0  0  0  0  0
    4.2566    7.1957   14.6842 C   0  0  0  0  0  0  0  0  0  0  0  0
    4.7802    8.2186   15.4208 C   0  0  0  0  0  0  0  0  0  0  0  0
    5.8054    7.9829   16.2968 F   0  0  0  0  0  0  0  0  0  0  0  0
    4.2494    9.4728   15.2535 C   0  0  0  0  0  0  0  0  0  0  0  0
    3.2209    9.7162   14.3769 C   0  0  0  0  0  0  0  0  0  0  0  0
    2.6781    8.6743   13.6187 C   0  0  0  0  0  0  0  0  0  0  0  0
    1.6450    8.9336   12.7773 F   0  0  0  0  0  0  0  0  0  0  0  0
 22 23  1  0  0  0
 23  1  1  0  0  0
  1  2  2  0  0  0
  2  3  1  0  0  0
  3  4  2  0  0  0
  4  5  1  0  0  0
  5  6  2  0  0  0
  6  7  1  0  0  0
  7  8  2  0  0  0
  8  9  1  0  0  0
  9 10  2  0  0  0
  7 11  1  0  0  0
 11 12  1  0  0  0
 12 13  2  0  0  0
 13 14  1  0  0  0
 14 15  1  0  0  0
 14 16  1  0  0  0
 16 17  1  0  0  0
 17 18  1  0  0  0
 18 19  1  0  0  0
 19 20  1  0  0  0
 23 24  1  0  0  0
 24 25  2  0  0  0
 24 26  2  0  0  0
 24 27  1  0  0  0
 27 28  2  0  0  0
 28 29  1  0  0  0
 29 30  1  0  0  0
 29 31  2  0  0  0
 31 32  1  0  0  0
 32 33  2  0  0  0
 33 34  1  0  0  0
 10  1  1  0  0  0
 15 11  2  0  0  0
 20 16  1  0  0  0
 33 27  1  0  0  0
  9  4  1  0  0  0
 19 21  1  0  0  0
M  END
> <minimizedAffinity>
-9.01914

> <CNNscore>
0.3136031628

> <CNNaffinity>
6.9023880959

> <CNN_VS>
2.1646106243

> <CNNaffinity_variance>
0.3130485117

$$$$
[H]c1nc2c([H])c(OC([H])([H])C([H])([H])C([H])([H])N3C([H])([H])C([H])([H])N(C([H])([H])[H])C([H])([H])C3([H])[H])c(OC([H])([H])[H])c([H])c2c(Oc2c([H])c([H])c(N([H])C(=O)N([H])c3c([H])c(C([H])([H])[H])c(C([H])([H])[H])n3[H])c([H])c2F)c1[H]


 45 49  0  0  0  0  0  0  0  0999 V2000
    4.9260    2.7524   17.7177 C   0  0  0  0  0  0  0  0  0  0  0  0
    5.1688    2.4154   19.0457 C   0  0  0  0  0  0  0  0  0  0  0  0
    4.3565    1.5165   19.6973 C   0  0  0  0  0  0  0  0  0  0  0  0
    4.6021    1.1098   20.9946 C   0  0  0  0  0  0  0  0  0  0  0  0
    3.7890    0.1673   21.5731 C   0  0  0  0  0  0  0  0  0  0  0  0
    2.7112   -0.3937   20.8749 C   0  0  0  0  0  0  0  0  0  0  0  0
    2.4990    0.0073   19.6432 N   0  0  0  0  0  0  0  0  0  0  0  0
    3.2931    0.9421   19.0417 C   0  0  0  0  0  0  0  0  0  0  0  0
    3.0199    1.2569   17.7029 C   0  0  0  0  0  0  0  0  0  0  0  0
    3.8556    2.1628   17.0662 C   0  0  0  0  0  0  0  0  0  0  0  0
    5.7777    5.0275   17.4102 C   0  0  0  0  0  0  0  0  0  0  0  0
    5.7081    3.6595   17.0306 O   0  0  0  0  0  0  0  0  0  0  0  0
    5.7086    1.6620   21.7151 O   0  0  0  0  0  0  0  0  0  0  0  0
    5.5618    3.0466   21.8994 C   0  0  0  0  0  0  0  0  0  0  0  0
    6.4043    3.8244   21.1124 C   0  0  0  0  0  0  0  0  0  0  0  0
    6.3730    5.1842   21.2288 C   0  0  0  0  0  0  0  0  0  0  0  0
    5.4851    5.8040   22.1406 C   0  0  0  0  0  0  0  0  0  0  0  0
    4.6496    5.0054   22.8997 C   0  0  0  0  0  0  0  0  0  0  0  0
    4.6868    3.6011   22.7782 C   0  0  0  0  0  0  0  0  0  0  0  0
    3.8417    2.8334   23.5041 F   0  0  0  0  0  0  0  0  0  0  0  0
    5.6559    7.1046   22.4241 N   0  0  0  0  0  0  0  0  0  0  0  0
    6.9479    7.8760   22.4884 C   0  0  0  0  0  0  0  0  0  0  0  0
    7.9088    7.0101   22.2631 O   0  0  0  0  0  0  0  0  0  0  0  0
    7.0102    9.0497   22.7324 N   0  0  0  0  0  0  0  0  0  0  0  0
    4.8418    7.7740   22.6462 H   0  0  0  0  0  0  0  0  0  0  0  0
    5.7540    9.3964   22.7763 H   0  0  0  0  0  0  0  0  0  0  0  0
    7.4423   10.3499   23.2631 C   0  0  0  0  0  0  0  0  0  0  0  0
    8.4072   10.5728   24.2359 C   0  0  0  0  0  0  0  0  0  0  0  0
    8.5678   11.9249   24.3746 C   0  0  0  0  0  0  0  0  0  0  0  0
    9.5118   12.6464   25.2696 C   0  0  0  0  0  0  0  0  0  0  0  0
    7.7137   12.5662   23.5083 C   0  0  0  0  0  0  0  0  0  0  0  0
    7.4509   14.0163   23.3207 C   0  0  0  0  0  0  0  0  0  0  0  0
    7.0549   11.5596   22.8551 N   0  0  0  0  0  0  0  0  0  0  0  0
    6.3411   11.8061   22.1288 H   0  0  0  0  0  0  0  0  0  0  0  0
    3.6604    2.5021   15.7657 O   0  0  0  0  0  0  0  0  0  0  0  0
    3.0530    1.8568   14.7045 C   0  0  0  0  0  0  0  0  0  0  0  0
    3.0318    2.9295   13.5683 C   0  0  0  0  0  0  0  0  0  0  0  0
    2.9651    4.2364   14.3718 C   0  0  0  0  0  0  0  0  0  0  0  0
    1.6876    4.8153   14.0434 N   0  0  0  0  0  0  0  0  0  0  0  0
    1.0888    4.2034   12.8903 C   0  0  0  0  0  0  0  0  0  0  0  0
    0.3929    5.2892   12.0787 C   0  0  0  0  0  0  0  0  0  0  0  0
    1.3808    6.2473   11.6278 N   0  0  0  0  0  0  0  0  0  0  0  0
    2.2431    5.5254   10.6735 C   0  0  0  0  0  0  0  0  0  0  0  0
    2.1921    6.7915   12.7102 C   0  0  0  0  0  0  0  0  0  0  0  0
    1.6922    6.2450   14.0376 C   0  0  0  0  0  0  0  0  0  0  0  0
 11 12  1  0  0  0
 12  1  1  0  0  0
  1  2  2  0  0  0
  2  3  1  0  0  0
  3  4  2  0  0  0
  4 13  1  0  0  0
 13 14  1  0  0  0
 14 15  2  0  0  0
 15 16  1  0  0  0
 16 17  2  0  0  0
 17 21  1  0  0  0
 21 22  1  0  0  0
 22 23  2  0  0  0
 22 24  1  0  0  0
 24 27  1  0  0  0
 27 28  2  0  0  0
 28 29  1  0  0  0
 29 30  1  0  0  0
 29 31  2  0  0  0
 31 32  1  0  0  0
 31 33  1  0  0  0
 17 18  1  0  0  0
 18 19  2  0  0  0
 19 20  1  0  0  0
  4  5  1  0  0  0
  5  6  2  0  0  0
  6  7  1  0  0  0
  7  8  2  0  0  0
  8  9  1  0  0  0
  9 10  2  0  0  0
 10 35  1  0  0  0
 35 36  1  0  0  0
 36 37  1  0  0  0
 37 38  1  0  0  0
 38 39  1  0  0  0
 39 40  1  0  0  0
 40 41  1  0  0  0
 41 42  1  0  0  0
 42 43  1  0  0  0
 42 44  1  0  0  0
 44 45  1  0  0  0
 10  1  1  0  0  0
 45 39  1  0  0  0
  8  3  1  0  0  0
 19 14  1  0  0  0
 33 27  1  0  0  0
 21 25  1  0  0  0
 24 26  1  0  0  0
 33 34  1  0  0  0
M  END
> <minimizedAffinity>
-8.39189

> <CNNscore>
0.5591096282

> <CNNaffinity>
7.4297637939

> <CNN_VS>
4.1540522575

> <CNNaffinity_variance>
0.1470226496

$$$$
[H]c1nc2c([H])c(OC([H])([H])C([H])([H])C([H])([H])N3C([H])([H])C([H])([H])N(C([H])([H])[H])C([H])([H])C3([H])[H])c(OC([H])([H])[H])c([H])c2c(Oc2c([H])c([H])c(N([H])C(=O)N([H])c3c([H])c(C([H])([H])[H])c(C([H])([H])[H])n3[H])c([H])c2F)c1[H]


 45 49  0  0  0  0  0  0  0  0999 V2000
    5.1331    2.9888   17.7432 C   0  0  0  0  0  0  0  0  0  0  0  0
    5.3209    2.7973   19.1085 C   0  0  0  0  0  0  0  0  0  0  0  0
    4.5418    1.8997   19.8010 C   0  0  0  0  0  0  0  0  0  0  0  0
    4.7394    1.6365   21.1428 C   0  0  0  0  0  0  0  0  0  0  0  0
    3.9672    0.6886   21.7668 C   0  0  0  0  0  0  0  0  0  0  0  0
    2.9789   -0.0205   21.0710 C   0  0  0  0  0  0  0  0  0  0  0  0
    2.8109    0.2459   19.7967 N   0  0  0  0  0  0  0  0  0  0  0  0
    3.5662    1.1823   19.1496 C   0  0  0  0  0  0  0  0  0  0  0  0
    3.3504    1.3482   17.7740 C   0  0  0  0  0  0  0  0  0  0  0  0
    4.1514    2.2561   17.0969 C   0  0  0  0  0  0  0  0  0  0  0  0
    6.2471    5.1596   17.5361 C   0  0  0  0  0  0  0  0  0  0  0  0
    5.8836    3.8889   17.0130 O   0  0  0  0  0  0  0  0  0  0  0  0
    5.7556    2.3413   21.8631 O   0  0  0  0  0  0  0  0  0  0  0  0
    5.5098    3.7240   21.8771 C   0  0  0  0  0  0  0  0  0  0  0  0
    4.1747    4.0730   21.7045 C   0  0  0  0  0  0  0  0  0  0  0  0
    3.8198    5.3907   21.6691 C   0  0  0  0  0  0  0  0  0  0  0  0
    4.8017    6.4003   21.8127 C   0  0  0  0  0  0  0  0  0  0  0  0
    6.1192    6.0228   21.9967 C   0  0  0  0  0  0  0  0  0  0  0  0
    6.4819    4.6605   22.0302 C   0  0  0  0  0  0  0  0  0  0  0  0
    7.7699    4.3050   22.2426 F   0  0  0  0  0  0  0  0  0  0  0  0
    4.4730    7.6668   21.5146 N   0  0  0  0  0  0  0  0  0  0  0  0
    4.9054    8.4792   20.3223 C   0  0  0  0  0  0  0  0  0  0  0  0
    5.7283    7.7211   19.6353 O   0  0  0  0  0  0  0  0  0  0  0  0
    4.5472    9.6071   20.1209 N   0  0  0  0  0  0  0  0  0  0  0  0
    3.8268    8.2709   22.1290 H   0  0  0  0  0  0  0  0  0  0  0  0
    3.6779    9.8019   21.0730 H   0  0  0  0  0  0  0  0  0  0  0  0
    4.5342   11.0278   19.7461 C   0  0  0  0  0  0  0  0  0  0  0  0
    3.5653   11.6824   18.9981 C   0  0  0  0  0  0  0  0  0  0  0  0
    3.8870   13.0121   18.9546 C   0  0  0  0  0  0  0  0  0  0  0  0
    3.1321   14.1144   18.3007 C   0  0  0  0  0  0  0  0  0  0  0  0
    5.0511   13.2120   19.6590 C   0  0  0  0  0  0  0  0  0  0  0  0
    5.8521   14.4480   19.8540 C   0  0  0  0  0  0  0  0  0  0  0  0
    5.3996   11.9715   20.1211 N   0  0  0  0  0  0  0  0  0  0  0  0
    6.2674   11.8691   20.6992 H   0  0  0  0  0  0  0  0  0  0  0  0
    4.0092    2.4563   15.7612 O   0  0  0  0  0  0  0  0  0  0  0  0
    2.9751    2.9491   14.9871 C   0  0  0  0  0  0  0  0  0  0  0  0
    3.4271    4.4011   14.6275 C   0  0  0  0  0  0  0  0  0  0  0  0
    2.6650    4.6517   13.3180 C   0  0  0  0  0  0  0  0  0  0  0  0
    1.2894    4.8221   13.7099 N   0  0  0  0  0  0  0  0  0  0  0  0
    0.3724    4.4185   12.6809 C   0  0  0  0  0  0  0  0  0  0  0  0
   -0.8045    5.3863   12.6814 C   0  0  0  0  0  0  0  0  0  0  0  0
   -0.3222    6.7157   12.3696 N   0  0  0  0  0  0  0  0  0  0  0  0
    0.1501    6.6611   10.9733 C   0  0  0  0  0  0  0  0  0  0  0  0
    0.7627    7.1542   13.2394 C   0  0  0  0  0  0  0  0  0  0  0  0
    1.0164    6.0953   14.3002 C   0  0  0  0  0  0  0  0  0  0  0  0
 11 12  1  0  0  0
 12  1  1  0  0  0
  1  2  2  0  0  0
  2  3  1  0  0  0
  3  4  2  0  0  0
  4 13  1  0  0  0
 13 14  1  0  0  0
 14 15  2  0  0  0
 15 16  1  0  0  0
 16 17  2  0  0  0
 17 21  1  0  0  0
 21 22  1  0  0  0
 22 23  2  0  0  0
 22 24  1  0  0  0
 24 27  1  0  0  0
 27 28  2  0  0  0
 28 29  1  0  0  0
 29 30  1  0  0  0
 29 31  2  0  0  0
 31 32  1  0  0  0
 31 33  1  0  0  0
 17 18  1  0  0  0
 18 19  2  0  0  0
 19 20  1  0  0  0
  4  5  1  0  0  0
  5  6  2  0  0  0
  6  7  1  0  0  0
  7  8  2  0  0  0
  8  9  1  0  0  0
  9 10  2  0  0  0
 10 35  1  0  0  0
 35 36  1  0  0  0
 36 37  1  0  0  0
 37 38  1  0  0  0
 38 39  1  0  0  0
 39 40  1  0  0  0
 40 41  1  0  0  0
 41 42  1  0  0  0
 42 43  1  0  0  0
 42 44  1  0  0  0
 44 45  1  0  0  0
 10  1  1  0  0  0
 45 39  1  0  0  0
  8  3  1  0  0  0
 19 14  1  0  0  0
 33 27  1  0  0  0
 21 25  1  0  0  0
 24 26  1  0  0  0
 33 34  1  0  0  0
M  END
> <minimizedAffinity>
-9.52339

> <CNNscore>
0.3890294731

> <CNNaffinity>
7.0333528519

> <CNN_VS>
2.7361814976

> <CNNaffinity_variance>
0.2629289329

$$$$
[H]c1nc2c([H])c(OC([H])([H])C([H])([H])C([H])([H])N3C([H])([H])C([H])([H])N(C([H])([H])[H])C([H])([H])C3([H])[H])c(OC([H])([H])[H])c([H])c2c(Oc2c([H])c([H])c(N([H])C(=O)N([H])c3c([H])c(C([H])([H])[H])c(C([H])([H])[H])n3[H])c([H])c2F)c1[H]


 45 49  0  0  0  0  0  0  0  0999 V2000
    5.3588    4.0833   18.3371 C   0  0  0  0  0  0  0  0  0  0  0  0
    4.9020    3.7556   17.0644 C   0  0  0  0  0  0  0  0  0  0  0  0
    4.1576    2.6166   16.8619 C   0  0  0  0  0  0  0  0  0  0  0  0
    3.6341    2.2905   15.6256 C   0  0  0  0  0  0  0  0  0  0  0  0
    2.8515    1.1702   15.4969 C   0  0  0  0  0  0  0  0  0  0  0  0
    2.5708    0.3464   16.5954 C   0  0  0  0  0  0  0  0  0  0  0  0
    3.0780    0.6777   17.7598 N   0  0  0  0  0  0  0  0  0  0  0  0
    3.8583    1.7879   17.9175 C   0  0  0  0  0  0  0  0  0  0  0  0
    4.3004    2.0880   19.2139 C   0  0  0  0  0  0  0  0  0  0  0  0
    5.0458    3.2440   19.3934 C   0  0  0  0  0  0  0  0  0  0  0  0
    6.2805    6.2313   17.6074 C   0  0  0  0  0  0  0  0  0  0  0  0
    6.1195    5.2093   18.5821 O   0  0  0  0  0  0  0  0  0  0  0  0
    3.8988    3.1306   14.4976 O   0  0  0  0  0  0  0  0  0  0  0  0
    2.7439    3.3301   13.7236 C   0  0  0  0  0  0  0  0  0  0  0  0
    1.9552    4.4003   14.1318 C   0  0  0  0  0  0  0  0  0  0  0  0
    0.7905    4.6711   13.4734 C   0  0  0  0  0  0  0  0  0  0  0  0
    0.3863    3.8727   12.3766 C   0  0  0  0  0  0  0  0  0  0  0  0
    1.1978    2.8238   11.9849 C   0  0  0  0  0  0  0  0  0  0  0  0
    2.3990    2.5460   12.6692 C   0  0  0  0  0  0  0  0  0  0  0  0
    3.1991    1.5364   12.2556 F   0  0  0  0  0  0  0  0  0  0  0  0
   -0.8703    3.9919   11.9204 N   0  0  0  0  0  0  0  0  0  0  0  0
   -1.4118    5.0147   10.9564 C   0  0  0  0  0  0  0  0  0  0  0  0
   -0.4168    5.8242   10.6763 O   0  0  0  0  0  0  0  0  0  0  0  0
   -2.5526    5.0385   10.5837 N   0  0  0  0  0  0  0  0  0  0  0  0
   -1.6700    3.3308   12.2090 H   0  0  0  0  0  0  0  0  0  0  0  0
   -3.0460    3.9542   11.1138 H   0  0  0  0  0  0  0  0  0  0  0  0
   -3.8835    5.5067   10.1731 C   0  0  0  0  0  0  0  0  0  0  0  0
   -4.1854    6.2933    9.0699 C   0  0  0  0  0  0  0  0  0  0  0  0
   -5.5459    6.4259    9.0009 C   0  0  0  0  0  0  0  0  0  0  0  0
   -6.3430    7.1491    7.9740 C   0  0  0  0  0  0  0  0  0  0  0  0
   -6.1141    5.7403   10.0488 C   0  0  0  0  0  0  0  0  0  0  0  0
   -7.5369    5.6303   10.4620 C   0  0  0  0  0  0  0  0  0  0  0  0
   -5.0567    5.1980   10.7284 N   0  0  0  0  0  0  0  0  0  0  0  0
   -5.2433    4.6173   11.5802 H   0  0  0  0  0  0  0  0  0  0  0  0
    5.4932    3.6055   20.6237 O   0  0  0  0  0  0  0  0  0  0  0  0
    4.8556    3.8303   21.8297 C   0  0  0  0  0  0  0  0  0  0  0  0
    4.1563    5.2147   21.6384 C   0  0  0  0  0  0  0  0  0  0  0  0
    5.1358    6.1616   22.3472 C   0  0  0  0  0  0  0  0  0  0  0  0
    5.7872    6.8901   21.2889 N   0  0  0  0  0  0  0  0  0  0  0  0
    7.1095    7.3178   21.6512 C   0  0  0  0  0  0  0  0  0  0  0  0
    7.3427    8.7040   21.0632 C   0  0  0  0  0  0  0  0  0  0  0  0
    6.3883    9.6278   21.6400 N   0  0  0  0  0  0  0  0  0  0  0  0
    6.7376    9.7356   23.0690 C   0  0  0  0  0  0  0  0  0  0  0  0
    5.0049    9.1878   21.5033 C   0  0  0  0  0  0  0  0  0  0  0  0
    4.9641    7.8990   20.6983 C   0  0  0  0  0  0  0  0  0  0  0  0
 11 12  1  0  0  0
 12  1  1  0  0  0
  1  2  2  0  0  0
  2  3  1  0  0  0
  3  4  2  0  0  0
  4 13  1  0  0  0
 13 14  1  0  0  0
 14 15  2  0  0  0
 15 16  1  0  0  0
 16 17  2  0  0  0
 17 21  1  0  0  0
 21 22  1  0  0  0
 22 23  2  0  0  0
 22 24  1  0  0  0
 24 27  1  0  0  0
 27 28  2  0  0  0
 28 29  1  0  0  0
 29 30  1  0  0  0
 29 31  2  0  0  0
 31 32  1  0  0  0
 31 33  1  0  0  0
 17 18  1  0  0  0
 18 19  2  0  0  0
 19 20  1  0  0  0
  4  5  1  0  0  0
  5  6  2  0  0  0
  6  7  1  0  0  0
  7  8  2  0  0  0
  8  9  1  0  0  0
  9 10  2  0  0  0
 10 35  1  0  0  0
 35 36  1  0  0  0
 36 37  1  0  0  0
 37 38  1  0  0  0
 38 39  1  0  0  0
 39 40  1  0  0  0
 40 41  1  0  0  0
 41 42  1  0  0  0
 42 43  1  0  0  0
 42 44  1  0  0  0
 44 45  1  0  0  0
 10  1  1  0  0  0
 45 39  1  0  0  0
  8  3  1  0  0  0
 19 14  1  0  0  0
 33 27  1  0  0  0
 21 25  1  0  0  0
 24 26  1  0  0  0
 33 34  1  0  0  0
M  END
> <minimizedAffinity>
-9.00979

> <CNNscore>
0.2662107944

> <CNNaffinity>
6.6431388855

> <CNN_VS>
1.7684752941

> <CNNaffinity_variance>
0.1404302418

$$$$
[H]c1nc2c([H])c(OC([H])([H])C([H])([H])C([H])([H])N3C([H])([H])C([H])([H])N(C([H])([H])[H])C([H])([H])C3([H])[H])c(OC([H])([H])[H])c([H])c2c(Oc2c([H])c([H])c(N([H])C(=O)N([H])c3c([H])c(C([H])([H])[H])c(C([H])([H])[H])n3[H])c([H])c2F)c1[H]


 45 49  0  0  0  0  0  0  0  0999 V2000
    5.3437    5.2465   20.2036 C   0  0  0  0  0  0  0  0  0  0  0  0
    5.2904    3.8882   19.9067 C   0  0  0  0  0  0  0  0  0  0  0  0
    4.6913    3.0067   20.7763 C   0  0  0  0  0  0  0  0  0  0  0  0
    4.5636    1.6615   20.4879 C   0  0  0  0  0  0  0  0  0  0  0  0
    3.9058    0.8405   21.3695 C   0  0  0  0  0  0  0  0  0  0  0  0
    3.3590    1.3377   22.5602 C   0  0  0  0  0  0  0  0  0  0  0  0
    3.4916    2.6192   22.8114 N   0  0  0  0  0  0  0  0  0  0  0  0
    4.1394    3.4599   21.9513 C   0  0  0  0  0  0  0  0  0  0  0  0
    4.1730    4.8221   22.2820 C   0  0  0  0  0  0  0  0  0  0  0  0
    4.7789    5.6918   21.3872 C   0  0  0  0  0  0  0  0  0  0  0  0
    6.1765    5.8837   17.9908 C   0  0  0  0  0  0  0  0  0  0  0  0
    5.9468    6.1632   19.3654 O   0  0  0  0  0  0  0  0  0  0  0  0
    5.1030    1.1418   19.2684 O   0  0  0  0  0  0  0  0  0  0  0  0
    4.2138    1.3212   18.1961 C   0  0  0  0  0  0  0  0  0  0  0  0
    4.5350    2.3793   17.3527 C   0  0  0  0  0  0  0  0  0  0  0  0
    3.7244    2.6691   16.2933 C   0  0  0  0  0  0  0  0  0  0  0  0
    2.5646    1.8957   16.0472 C   0  0  0  0  0  0  0  0  0  0  0  0
    2.2782    0.8413   16.8948 C   0  0  0  0  0  0  0  0  0  0  0  0
    3.1169    0.5468   17.9894 C   0  0  0  0  0  0  0  0  0  0  0  0
    2.8421   -0.5071   18.7920 F   0  0  0  0  0  0  0  0  0  0  0  0
    1.6566    2.3553   15.1723 N   0  0  0  0  0  0  0  0  0  0  0  0
    1.7523    2.3863   13.6695 C   0  0  0  0  0  0  0  0  0  0  0  0
    2.9404    1.9186   13.3635 O   0  0  0  0  0  0  0  0  0  0  0  0
    0.8802    2.8001   12.9560 N   0  0  0  0  0  0  0  0  0  0  0  0
    0.7083    2.7722   15.4673 H   0  0  0  0  0  0  0  0  0  0  0  0
   -0.0835    3.0441   13.7998 H   0  0  0  0  0  0  0  0  0  0  0  0
    0.1641    3.4714   11.8626 C   0  0  0  0  0  0  0  0  0  0  0  0
    0.4827    3.4335   10.5121 C   0  0  0  0  0  0  0  0  0  0  0  0
   -0.4854    4.1163    9.8267 C   0  0  0  0  0  0  0  0  0  0  0  0
   -0.5947    4.3186    8.3570 C   0  0  0  0  0  0  0  0  0  0  0  0
   -1.4125    4.5943   10.7228 C   0  0  0  0  0  0  0  0  0  0  0  0
   -2.6069    5.4494   10.5005 C   0  0  0  0  0  0  0  0  0  0  0  0
   -0.9693    4.1703   11.9466 N   0  0  0  0  0  0  0  0  0  0  0  0
   -1.5241    4.4143   12.8013 H   0  0  0  0  0  0  0  0  0  0  0  0
    4.8338    7.0261   21.6347 O   0  0  0  0  0  0  0  0  0  0  0  0
    5.8034    7.9864   21.4128 C   0  0  0  0  0  0  0  0  0  0  0  0
    4.9901    9.2929   21.1410 C   0  0  0  0  0  0  0  0  0  0  0  0
    5.5748    9.7526   19.7975 C   0  0  0  0  0  0  0  0  0  0  0  0
    4.7138    9.1776   18.7960 N   0  0  0  0  0  0  0  0  0  0  0  0
    5.1741    9.4402   17.4611 C   0  0  0  0  0  0  0  0  0  0  0  0
    3.9597    9.6959   16.5770 C   0  0  0  0  0  0  0  0  0  0  0  0
    3.2630   10.8697   17.0606 N   0  0  0  0  0  0  0  0  0  0  0  0
    4.1724   12.0078   16.8296 C   0  0  0  0  0  0  0  0  0  0  0  0
    2.9187   10.7939   18.4754 C   0  0  0  0  0  0  0  0  0  0  0  0
    3.3252    9.4342   19.0200 C   0  0  0  0  0  0  0  0  0  0  0  0
 11 12  1  0  0  0
 12  1  1  0  0  0
  1  2  2  0  0  0
  2  3  1  0  0  0
  3  4  2  0  0  0
  4 13  1  0  0  0
 13 14  1  0  0  0
 14 15  2  0  0  0
 15 16  1  0  0  0
 16 17  2  0  0  0
 17 21  1  0  0  0
 21 22  1  0  0  0
 22 23  2  0  0  0
 22 24  1  0  0  0
 24 27  1  0  0  0
 27 28  2  0  0  0
 28 29  1  0  0  0
 29 30  1  0  0  0
 29 31  2  0  0  0
 31 32  1  0  0  0
 31 33  1  0  0  0
 17 18  1  0  0  0
 18 19  2  0  0  0
 19 20  1  0  0  0
  4  5  1  0  0  0
  5  6  2  0  0  0
  6  7  1  0  0  0
  7  8  2  0  0  0
  8  9  1  0  0  0
  9 10  2  0  0  0
 10 35  1  0  0  0
 35 36  1  0  0  0
 36 37  1  0  0  0
 37 38  1  0  0  0
 38 39  1  0  0  0
 39 40  1  0  0  0
 40 41  1  0  0  0
 41 42  1  0  0  0
 42 43  1  0  0  0
 42 44  1  0  0  0
 44 45  1  0  0  0
 10  1  1  0  0  0
 45 39  1  0  0  0
  8  3  1  0  0  0
 19 14  1  0  0  0
 33 27  1  0  0  0
 21 25  1  0  0  0
 24 26  1  0  0  0
 33 34  1  0  0  0
M  END
> <minimizedAffinity>
-9.44459

> <CNNscore>
0.1491816640

> <CNNaffinity>
6.9368219376

> <CNN_VS>
1.0348466635

> <CNNaffinity_variance>
0.2542809844

$$$$
[H]c1nc2c([H])c(OC([H])([H])C([H])([H])C([H])([H])N3C([H])([H])C([H])([H])N(C([H])([H])[H])C([H])([H])C3([H])[H])c(OC([H])([H])[H])c([H])c2c(Oc2c([H])c([H])c(N([H])C(=O)N([H])c3c([H])c(C([H])([H])[H])c(C([H])([H])[H])n3[H])c([H])c2F)c1[H]


 45 49  0  0  0  0  0  0  0  0999 V2000
   -2.8470    4.5199    9.7158 C   0  0  0  0  0  0  0  0  0  0  0  0
   -1.5765    4.5825   10.2797 C   0  0  0  0  0  0  0  0  0  0  0  0
   -1.3608    5.2948   11.4367 C   0  0  0  0  0  0  0  0  0  0  0  0
   -0.1283    5.3289   12.0601 C   0  0  0  0  0  0  0  0  0  0  0  0
    0.0124    6.0107   13.2431 C   0  0  0  0  0  0  0  0  0  0  0  0
   -1.0700    6.6756   13.8349 C   0  0  0  0  0  0  0  0  0  0  0  0
   -2.2312    6.6275   13.2248 N   0  0  0  0  0  0  0  0  0  0  0  0
   -2.4006    5.9550   12.0478 C   0  0  0  0  0  0  0  0  0  0  0  0
   -3.6944    5.9120   11.5087 C   0  0  0  0  0  0  0  0  0  0  0  0
   -3.8876    5.1839   10.3438 C   0  0  0  0  0  0  0  0  0  0  0  0
   -2.7031    2.4751    8.3764 C   0  0  0  0  0  0  0  0  0  0  0  0
   -3.1045    3.8277    8.5492 O   0  0  0  0  0  0  0  0  0  0  0  0
    0.9828    4.6415   11.4761 O   0  0  0  0  0  0  0  0  0  0  0  0
    1.8177    4.0863   12.4597 C   0  0  0  0  0  0  0  0  0  0  0  0
    1.3778    2.8688   12.9678 C   0  0  0  0  0  0  0  0  0  0  0  0
    2.0923    2.2496   13.9523 C   0  0  0  0  0  0  0  0  0  0  0  0
    3.2789    2.8374   14.4529 C   0  0  0  0  0  0  0  0  0  0  0  0
    3.6990    4.0417   13.9187 C   0  0  0  0  0  0  0  0  0  0  0  0
    2.9566    4.6792   12.9034 C   0  0  0  0  0  0  0  0  0  0  0  0
    3.3960    5.8413   12.3677 F   0  0  0  0  0  0  0  0  0  0  0  0
    3.8119    2.3512   15.5846 N   0  0  0  0  0  0  0  0  0  0  0  0
    3.2036    2.3364   16.9623 C   0  0  0  0  0  0  0  0  0  0  0  0
    2.0473    2.9506   16.8642 O   0  0  0  0  0  0  0  0  0  0  0  0
    3.7445    1.8615   17.9229 N   0  0  0  0  0  0  0  0  0  0  0  0
    4.7849    1.8918   15.6309 H   0  0  0  0  0  0  0  0  0  0  0  0
    4.8140    1.3224   17.4075 H   0  0  0  0  0  0  0  0  0  0  0  0
    4.2290    1.6407   19.2924 C   0  0  0  0  0  0  0  0  0  0  0  0
    3.4554    1.4174   20.4232 C   0  0  0  0  0  0  0  0  0  0  0  0
    4.2976    1.1727   21.4740 C   0  0  0  0  0  0  0  0  0  0  0  0
    3.9351    0.8465   22.8793 C   0  0  0  0  0  0  0  0  0  0  0  0
    5.5969    1.2438   21.0293 C   0  0  0  0  0  0  0  0  0  0  0  0
    6.8736    1.1277   21.7801 C   0  0  0  0  0  0  0  0  0  0  0  0
    5.4963    1.5287   19.6942 N   0  0  0  0  0  0  0  0  0  0  0  0
    6.3721    1.6293   19.1279 H   0  0  0  0  0  0  0  0  0  0  0  0
   -5.1167    5.0855    9.7746 O   0  0  0  0  0  0  0  0  0  0  0  0
   -6.3962    5.0440   10.2966 C   0  0  0  0  0  0  0  0  0  0  0  0
   -7.2661    4.4786    9.1280 C   0  0  0  0  0  0  0  0  0  0  0  0
   -7.2319    2.9700    9.4127 C   0  0  0  0  0  0  0  0  0  0  0  0
   -6.2835    2.4310    8.4720 N   0  0  0  0  0  0  0  0  0  0  0  0
   -6.4284    2.9994    7.1610 C   0  0  0  0  0  0  0  0  0  0  0  0
   -6.1919    1.8998    6.1331 C   0  0  0  0  0  0  0  0  0  0  0  0
   -7.1990    0.8727    6.3009 N   0  0  0  0  0  0  0  0  0  0  0  0
   -8.4833    1.4965    5.9309 C   0  0  0  0  0  0  0  0  0  0  0  0
   -7.2761    0.3579    7.6628 C   0  0  0  0  0  0  0  0  0  0  0  0
   -6.1903    1.0047    8.5075 C   0  0  0  0  0  0  0  0  0  0  0  0
 11 12  1  0  0  0
 12  1  1  0  0  0
  1  2  2  0  0  0
  2  3  1  0  0  0
  3  4  2  0  0  0
  4 13  1  0  0  0
 13 14  1  0  0  0
 14 15  2  0  0  0
 15 16  1  0  0  0
 16 17  2  0  0  0
 17 21  1  0  0  0
 21 22  1  0  0  0
 22 23  2  0  0  0
 22 24  1  0  0  0
 24 27  1  0  0  0
 27 28  2  0  0  0
 28 29  1  0  0  0
 29 30  1  0  0  0
 29 31  2  0  0  0
 31 32  1  0  0  0
 31 33  1  0  0  0
 17 18  1  0  0  0
 18 19  2  0  0  0
 19 20  1  0  0  0
  4  5  1  0  0  0
  5  6  2  0  0  0
  6  7  1  0  0  0
  7  8  2  0  0  0
  8  9  1  0  0  0
  9 10  2  0  0  0
 10 35  1  0  0  0
 35 36  1  0  0  0
 36 37  1  0  0  0
 37 38  1  0  0  0
 38 39  1  0  0  0
 39 40  1  0  0  0
 40 41  1  0  0  0
 41 42  1  0  0  0
 42 43  1  0  0  0
 42 44  1  0  0  0
 44 45  1  0  0  0
 10  1  1  0  0  0
 45 39  1  0  0  0
  8  3  1  0  0  0
 19 14  1  0  0  0
 33 27  1  0  0  0
 21 25  1  0  0  0
 24 26  1  0  0  0
 33 34  1  0  0  0
M  END
> <minimizedAffinity>
-6.87793

> <CNNscore>
0.1405999213

> <CNNaffinity>
6.4525861740

> <CNN_VS>
0.9072331190

> <CNNaffinity_variance>
0.0796914175

$$$$
[H]c1nc2c([H])c(OC([H])([H])C([H])([H])C([H])([H])N3C([H])([H])C([H])([H])N(C([H])([H])[H])C([H])([H])C3([H])[H])c(OC([H])([H])[H])c([H])c2c(Oc2c([H])c([H])c(N([H])C(=O)N([H])c3c([H])c(C([H])([H])[H])c(C([H])([H])[H])n3[H])c([H])c2F)c1[H]


 45 49  0  0  0  0  0  0  0  0999 V2000
   -3.6894    4.4944   10.1681 C   0  0  0  0  0  0  0  0  0  0  0  0
   -2.4120    4.8150   10.6167 C   0  0  0  0  0  0  0  0  0  0  0  0
   -2.2408    5.6351   11.7078 C   0  0  0  0  0  0  0  0  0  0  0  0
   -0.9911    5.9255   12.2205 C   0  0  0  0  0  0  0  0  0  0  0  0
   -0.8863    6.7045   13.3458 C   0  0  0  0  0  0  0  0  0  0  0  0
   -2.0225    7.2141   13.9885 C   0  0  0  0  0  0  0  0  0  0  0  0
   -3.1987    6.9232   13.4838 N   0  0  0  0  0  0  0  0  0  0  0  0
   -3.3330    6.1487   12.3664 C   0  0  0  0  0  0  0  0  0  0  0  0
   -4.6349    5.8453   11.9433 C   0  0  0  0  0  0  0  0  0  0  0  0
   -4.7818    5.0130   10.8433 C   0  0  0  0  0  0  0  0  0  0  0  0
   -3.1503    2.5024    8.8500 C   0  0  0  0  0  0  0  0  0  0  0  0
   -3.9058    3.6862    9.0696 O   0  0  0  0  0  0  0  0  0  0  0  0
    0.1779    5.3992   11.5843 O   0  0  0  0  0  0  0  0  0  0  0  0
    1.1172    4.9499   12.5270 C   0  0  0  0  0  0  0  0  0  0  0  0
    0.8751    3.6707   13.0160 C   0  0  0  0  0  0  0  0  0  0  0  0
    1.7047    3.1405   13.9616 C   0  0  0  0  0  0  0  0  0  0  0  0
    2.8104    3.8832   14.4408 C   0  0  0  0  0  0  0  0  0  0  0  0
    3.0339    5.1470   13.9259 C   0  0  0  0  0  0  0  0  0  0  0  0
    2.1731    5.6919   12.9510 C   0  0  0  0  0  0  0  0  0  0  0  0
    2.4217    6.9167   12.4330 F   0  0  0  0  0  0  0  0  0  0  0  0
    3.4463    3.4551   15.5425 N   0  0  0  0  0  0  0  0  0  0  0  0
    3.0856    3.7191   16.9808 C   0  0  0  0  0  0  0  0  0  0  0  0
    2.0382    4.5105   16.9616 O   0  0  0  0  0  0  0  0  0  0  0  0
    3.7019    3.2793   17.9123 N   0  0  0  0  0  0  0  0  0  0  0  0
    4.3304    2.8407   15.5145 H   0  0  0  0  0  0  0  0  0  0  0  0
    4.5723    2.5003   17.3330 H   0  0  0  0  0  0  0  0  0  0  0  0
    4.3718    3.1485   19.2135 C   0  0  0  0  0  0  0  0  0  0  0  0
    5.0476    2.0350   19.6935 C   0  0  0  0  0  0  0  0  0  0  0  0
    5.5976    2.3597   20.9040 C   0  0  0  0  0  0  0  0  0  0  0  0
    6.4396    1.5057   21.7842 C   0  0  0  0  0  0  0  0  0  0  0  0
    5.2757    3.6624   21.2045 C   0  0  0  0  0  0  0  0  0  0  0  0
    5.5657    4.4642   22.4213 C   0  0  0  0  0  0  0  0  0  0  0  0
    4.5312    4.0948   20.1403 N   0  0  0  0  0  0  0  0  0  0  0  0
    4.1680    5.0776   20.1392 H   0  0  0  0  0  0  0  0  0  0  0  0
   -6.0128    4.6639   10.3879 O   0  0  0  0  0  0  0  0  0  0  0  0
   -7.1865    5.3719   10.2078 C   0  0  0  0  0  0  0  0  0  0  0  0
   -7.6140    5.0341    8.7432 C   0  0  0  0  0  0  0  0  0  0  0  0
   -6.9515    6.1717    7.9526 C   0  0  0  0  0  0  0  0  0  0  0  0
   -6.1794    5.5176    6.9275 N   0  0  0  0  0  0  0  0  0  0  0  0
   -5.0847    6.3250    6.4666 C   0  0  0  0  0  0  0  0  0  0  0  0
   -4.9407    6.1239    4.9631 C   0  0  0  0  0  0  0  0  0  0  0  0
   -6.1507    6.5761    4.3086 N   0  0  0  0  0  0  0  0  0  0  0  0
   -6.2041    8.0358    4.5136 C   0  0  0  0  0  0  0  0  0  0  0  0
   -7.3596    5.9597    4.8420 C   0  0  0  0  0  0  0  0  0  0  0  0
   -6.9779    4.9327    5.8957 C   0  0  0  0  0  0  0  0  0  0  0  0
 11 12  1  0  0  0
 12  1  1  0  0  0
  1  2  2  0  0  0
  2  3  1  0  0  0
  3  4  2  0  0  0
  4 13  1  0  0  0
 13 14  1  0  0  0
 14 15  2  0  0  0
 15 16  1  0  0  0
 16 17  2  0  0  0
 17 21  1  0  0  0
 21 22  1  0  0  0
 22 23  2  0  0  0
 22 24  1  0  0  0
 24 27  1  0  0  0
 27 28  2  0  0  0
 28 29  1  0  0  0
 29 30  1  0  0  0
 29 31  2  0  0  0
 31 32  1  0  0  0
 31 33  1  0  0  0
 17 18  1  0  0  0
 18 19  2  0  0  0
 19 20  1  0  0  0
  4  5  1  0  0  0
  5  6  2  0  0  0
  6  7  1  0  0  0
  7  8  2  0  0  0
  8  9  1  0  0  0
  9 10  2  0  0  0
 10 35  1  0  0  0
 35 36  1  0  0  0
 36 37  1  0  0  0
 37 38  1  0  0  0
 38 39  1  0  0  0
 39 40  1  0  0  0
 40 41  1  0  0  0
 41 42  1  0  0  0
 42 43  1  0  0  0
 42 44  1  0  0  0
 44 45  1  0  0  0
 10  1  1  0  0  0
 45 39  1  0  0  0
  8  3  1  0  0  0
 19 14  1  0  0  0
 33 27  1  0  0  0
 21 25  1  0  0  0
 24 26  1  0  0  0
 33 34  1  0  0  0
M  END
> <minimizedAffinity>
-7.61868

> <CNNscore>
0.1193324476

> <CNNaffinity>
6.4001855850

> <CNN_VS>
0.7637498379

> <CNNaffinity_variance>
0.0624452606

$$$$
[H]c1nc2c([H])c(OC([H])([H])C([H])([H])C([H])([H])N3C([H])([H])C([H])([H])N(C([H])([H])[H])C([H])([H])C3([H])[H])c(OC([H])([H])[H])c([H])c2c(Oc2c([H])c([H])c(N([H])C(=O)N([H])c3c([H])c(C([H])([H])[H])c(C([H])([H])[H])n3[H])c([H])c2F)c1[H]


 45 49  0  0  0  0  0  0  0  0999 V2000
    4.7620    7.7164   18.1340 C   0  0  0  0  0  0  0  0  0  0  0  0
    4.1467    6.9715   17.1328 C   0  0  0  0  0  0  0  0  0  0  0  0
    4.2420    7.3588   15.8162 C   0  0  0  0  0  0  0  0  0  0  0  0
    3.6982    6.6120   14.7889 C   0  0  0  0  0  0  0  0  0  0  0  0
    3.8743    7.0197   13.4901 C   0  0  0  0  0  0  0  0  0  0  0  0
    4.5956    8.1808   13.1815 C   0  0  0  0  0  0  0  0  0  0  0  0
    5.1041    8.8727   14.1743 N   0  0  0  0  0  0  0  0  0  0  0  0
    4.9464    8.4896   15.4761 C   0  0  0  0  0  0  0  0  0  0  0  0
    5.5808    9.2632   16.4586 C   0  0  0  0  0  0  0  0  0  0  0  0
    5.4738    8.8500   17.7785 C   0  0  0  0  0  0  0  0  0  0  0  0
    4.4691    6.0276   19.8828 C   0  0  0  0  0  0  0  0  0  0  0  0
    4.6803    7.3707   19.4684 O   0  0  0  0  0  0  0  0  0  0  0  0
    2.9724    5.4152   15.0873 O   0  0  0  0  0  0  0  0  0  0  0  0
    1.8194    5.3024   14.2932 C   0  0  0  0  0  0  0  0  0  0  0  0
    0.8698    6.2943   14.5132 C   0  0  0  0  0  0  0  0  0  0  0  0
   -0.3064    6.2693   13.8208 C   0  0  0  0  0  0  0  0  0  0  0  0
   -0.5602    5.2439   12.8783 C   0  0  0  0  0  0  0  0  0  0  0  0
    0.4085    4.2791   12.6709 C   0  0  0  0  0  0  0  0  0  0  0  0
    1.6211    4.3073   13.3900 C   0  0  0  0  0  0  0  0  0  0  0  0
    2.5730    3.3753   13.1542 F   0  0  0  0  0  0  0  0  0  0  0  0
   -1.8091    5.0917   12.4113 N   0  0  0  0  0  0  0  0  0  0  0  0
   -2.3470    5.4869   11.0611 C   0  0  0  0  0  0  0  0  0  0  0  0
   -1.3590    6.0724   10.4248 O   0  0  0  0  0  0  0  0  0  0  0  0
   -3.4805    5.2962   10.7151 N   0  0  0  0  0  0  0  0  0  0  0  0
   -2.6044    4.6436   12.9830 H   0  0  0  0  0  0  0  0  0  0  0  0
   -3.9678    4.6082   11.7098 H   0  0  0  0  0  0  0  0  0  0  0  0
   -4.8099    5.4676   10.1133 C   0  0  0  0  0  0  0  0  0  0  0  0
   -6.0263    5.0791   10.6576 C   0  0  0  0  0  0  0  0  0  0  0  0
   -7.0224    5.5017    9.8194 C   0  0  0  0  0  0  0  0  0  0  0  0
   -8.4916    5.3491    9.9955 C   0  0  0  0  0  0  0  0  0  0  0  0
   -6.4567    6.1481    8.7455 C   0  0  0  0  0  0  0  0  0  0  0  0
   -7.0911    6.7248    7.5322 C   0  0  0  0  0  0  0  0  0  0  0  0
   -5.1084    6.1003    8.9772 N   0  0  0  0  0  0  0  0  0  0  0  0
   -4.4571    6.5396    8.2840 H   0  0  0  0  0  0  0  0  0  0  0  0
    6.0758    9.5415   18.7804 O   0  0  0  0  0  0  0  0  0  0  0  0
    6.2213   10.8920   19.0380 C   0  0  0  0  0  0  0  0  0  0  0  0
    5.6593   11.0662   20.4858 C   0  0  0  0  0  0  0  0  0  0  0  0
    6.9452   11.0545   21.3251 C   0  0  0  0  0  0  0  0  0  0  0  0
    6.5575   10.5070   22.5998 N   0  0  0  0  0  0  0  0  0  0  0  0
    7.6567   10.4312   23.5210 C   0  0  0  0  0  0  0  0  0  0  0  0
    7.5193    9.1450   24.3263 C   0  0  0  0  0  0  0  0  0  0  0  0
    7.5977    8.0139   23.4256 N   0  0  0  0  0  0  0  0  0  0  0  0
    8.9743    8.0089   22.8960 C   0  0  0  0  0  0  0  0  0  0  0  0
    6.6464    8.0877   22.3231 C   0  0  0  0  0  0  0  0  0  0  0  0
    5.7704    9.3179   22.4959 C   0  0  0  0  0  0  0  0  0  0  0  0
 11 12  1  0  0  0
 12  1  1  0  0  0
  1  2  2  0  0  0
  2  3  1  0  0  0
  3  4  2  0  0  0
  4 13  1  0  0  0
 13 14  1  0  0  0
 14 15  2  0  0  0
 15 16  1  0  0  0
 16 17  2  0  0  0
 17 21  1  0  0  0
 21 22  1  0  0  0
 22 23  2  0  0  0
 22 24  1  0  0  0
 24 27  1  0  0  0
 27 28  2  0  0  0
 28 29  1  0  0  0
 29 30  1  0  0  0
 29 31  2  0  0  0
 31 32  1  0  0  0
 31 33  1  0  0  0
 17 18  1  0  0  0
 18 19  2  0  0  0
 19 20  1  0  0  0
  4  5  1  0  0  0
  5  6  2  0  0  0
  6  7  1  0  0  0
  7  8  2  0  0  0
  8  9  1  0  0  0
  9 10  2  0  0  0
 10 35  1  0  0  0
 35 36  1  0  0  0
 36 37  1  0  0  0
 37 38  1  0  0  0
 38 39  1  0  0  0
 39 40  1  0  0  0
 40 41  1  0  0  0
 41 42  1  0  0  0
 42 43  1  0  0  0
 42 44  1  0  0  0
 44 45  1  0  0  0
 10  1  1  0  0  0
 45 39  1  0  0  0
  8  3  1  0  0  0
 19 14  1  0  0  0
 33 27  1  0  0  0
 21 25  1  0  0  0
 24 26  1  0  0  0
 33 34  1  0  0  0
M  END
> <minimizedAffinity>
-7.50022

> <CNNscore>
0.1006974727

> <CNNaffinity>
5.7764806747

> <CNN_VS>
0.5816770196

> <CNNaffinity_variance>
0.2022017539

$$$$
[H]c1nc2c([H])c(OC([H])([H])C([H])([H])C([H])([H])N3C([H])([H])C([H])([H])N(C([H])([H])[H])C([H])([H])C3([H])[H])c(OC([H])([H])[H])c([H])c2c(Oc2c([H])c([H])c(N([H])C(=O)N([H])c3c([H])c(C([H])([H])[H])c(C([H])([H])[H])n3[H])c([H])c2F)c1[H]


 45 49  0  0  0  0  0  0  0  0999 V2000
    5.4335    5.0521   18.2076 C   0  0  0  0  0  0  0  0  0  0  0  0
    5.0343    4.3436   17.0786 C   0  0  0  0  0  0  0  0  0  0  0  0
    4.4226    3.1178   17.2041 C   0  0  0  0  0  0  0  0  0  0  0  0
    3.9564    2.4134   16.1108 C   0  0  0  0  0  0  0  0  0  0  0  0
    3.3037    1.2213   16.3028 C   0  0  0  0  0  0  0  0  0  0  0  0
    3.0992    0.7003   17.5876 C   0  0  0  0  0  0  0  0  0  0  0  0
    3.5497    1.3884   18.6105 N   0  0  0  0  0  0  0  0  0  0  0  0
    4.2009    2.5785   18.4492 C   0  0  0  0  0  0  0  0  0  0  0  0
    4.5882    3.2653   19.6087 C   0  0  0  0  0  0  0  0  0  0  0  0
    5.1993    4.5013   19.4566 C   0  0  0  0  0  0  0  0  0  0  0  0
    5.7216    7.2304   17.1270 C   0  0  0  0  0  0  0  0  0  0  0  0
    6.0622    6.2788   18.1263 O   0  0  0  0  0  0  0  0  0  0  0  0
    4.1437    2.9403   14.7933 O   0  0  0  0  0  0  0  0  0  0  0  0
    2.9199    3.3002   14.2055 C   0  0  0  0  0  0  0  0  0  0  0  0
    2.1791    2.2294   13.7169 C   0  0  0  0  0  0  0  0  0  0  0  0
    0.9858    2.4608   13.0957 C   0  0  0  0  0  0  0  0  0  0  0  0
    0.4982    3.7820   12.9521 C   0  0  0  0  0  0  0  0  0  0  0  0
    1.2502    4.8254   13.4601 C   0  0  0  0  0  0  0  0  0  0  0  0
    2.4835    4.5822   14.0990 C   0  0  0  0  0  0  0  0  0  0  0  0
    3.1936    5.6095   14.6193 F   0  0  0  0  0  0  0  0  0  0  0  0
   -0.5302    4.0030   12.1186 N   0  0  0  0  0  0  0  0  0  0  0  0
   -1.5874    5.0713   12.2160 C   0  0  0  0  0  0  0  0  0  0  0  0
   -1.3457    5.7329   13.3241 O   0  0  0  0  0  0  0  0  0  0  0  0
   -2.4674    5.2113   11.4117 N   0  0  0  0  0  0  0  0  0  0  0  0
   -0.7189    3.4085   11.2406 H   0  0  0  0  0  0  0  0  0  0  0  0
   -2.1530    4.3397   10.4942 H   0  0  0  0  0  0  0  0  0  0  0  0
   -3.7786    5.4629   10.7982 C   0  0  0  0  0  0  0  0  0  0  0  0
   -5.0138    5.0436   11.2729 C   0  0  0  0  0  0  0  0  0  0  0  0
   -5.9823    5.5627   10.4569 C   0  0  0  0  0  0  0  0  0  0  0  0
   -7.4575    5.4183   10.5824 C   0  0  0  0  0  0  0  0  0  0  0  0
   -5.3804    6.3012    9.4652 C   0  0  0  0  0  0  0  0  0  0  0  0
   -5.9757    7.0042    8.2996 C   0  0  0  0  0  0  0  0  0  0  0  0
   -4.0392    6.2084    9.7229 N   0  0  0  0  0  0  0  0  0  0  0  0
   -3.3644    6.7023    9.0917 H   0  0  0  0  0  0  0  0  0  0  0  0
    5.5861    5.2295   20.5357 O   0  0  0  0  0  0  0  0  0  0  0  0
    4.9455    6.1781   21.3111 C   0  0  0  0  0  0  0  0  0  0  0  0
    6.0576    6.6906   22.2819 C   0  0  0  0  0  0  0  0  0  0  0  0
    7.0574    7.3273   21.3056 C   0  0  0  0  0  0  0  0  0  0  0  0
    8.0413    7.9688   22.1397 N   0  0  0  0  0  0  0  0  0  0  0  0
    9.1315    8.5145   21.3805 C   0  0  0  0  0  0  0  0  0  0  0  0
   10.4185    8.2988   22.1673 C   0  0  0  0  0  0  0  0  0  0  0  0
   10.6396    6.8769   22.3293 N   0  0  0  0  0  0  0  0  0  0  0  0
   10.9038    6.3486   20.9778 C   0  0  0  0  0  0  0  0  0  0  0  0
    9.5017    6.1796   22.9166 C   0  0  0  0  0  0  0  0  0  0  0  0
    8.4236    7.1893   23.2757 C   0  0  0  0  0  0  0  0  0  0  0  0
 11 12  1  0  0  0
 12  1  1  0  0  0
  1  2  2  0  0  0
  2  3  1  0  0  0
  3  4  2  0  0  0
  4 13  1  0  0  0
 13 14  1  0  0  0
 14 15  2  0  0  0
 15 16  1  0  0  0
 16 17  2  0  0  0
 17 21  1  0  0  0
 21 22  1  0  0  0
 22 23  2  0  0  0
 22 24  1  0  0  0
 24 27  1  0  0  0
 27 28  2  0  0  0
 28 29  1  0  0  0
 29 30  1  0  0  0
 29 31  2  0  0  0
 31 32  1  0  0  0
 31 33  1  0  0  0
 17 18  1  0  0  0
 18 19  2  0  0  0
 19 20  1  0  0  0
  4  5  1  0  0  0
  5  6  2  0  0  0
  6  7  1  0  0  0
  7  8  2  0  0  0
  8  9  1  0  0  0
  9 10  2  0  0  0
 10 35  1  0  0  0
 35 36  1  0  0  0
 36 37  1  0  0  0
 37 38  1  0  0  0
 38 39  1  0  0  0
 39 40  1  0  0  0
 40 41  1  0  0  0
 41 42  1  0  0  0
 42 43  1  0  0  0
 42 44  1  0  0  0
 44 45  1  0  0  0
 10  1  1  0  0  0
 45 39  1  0  0  0
  8  3  1  0  0  0
 19 14  1  0  0  0
 33 27  1  0  0  0
 21 25  1  0  0  0
 24 26  1  0  0  0
 33 34  1  0  0  0
M  END
> <minimizedAffinity>
-8.85014

> <CNNscore>
0.0911789760

> <CNNaffinity>
6.1792368889

> <CNN_VS>
0.5634164810

> <CNNaffinity_variance>
0.2448467761

$$$$
[H]c1nc2c([H])c(OC([H])([H])C([H])([H])C([H])([H])N3C([H])([H])C([H])([H])N(C([H])([H])[H])C([H])([H])C3([H])[H])c(OC([H])([H])[H])c([H])c2c(Oc2c([H])c([H])c(N([H])C(=O)N([H])c3c([H])c(C([H])([H])[H])c(C([H])([H])[H])n3[H])c([H])c2F)c1[H]


 45 49  0  0  0  0  0  0  0  0999 V2000
    4.7751    6.9410   17.9191 C   0  0  0  0  0  0  0  0  0  0  0  0
    4.5132    6.9037   16.5531 C   0  0  0  0  0  0  0  0  0  0  0  0
    4.0268    8.0154   15.9051 C   0  0  0  0  0  0  0  0  0  0  0  0
    3.8137    8.0364   14.5402 C   0  0  0  0  0  0  0  0  0  0  0  0
    3.3805    9.1930   13.9412 C   0  0  0  0  0  0  0  0  0  0  0  0
    3.1483   10.3573   14.6859 C   0  0  0  0  0  0  0  0  0  0  0  0
    3.3594   10.3132   15.9806 N   0  0  0  0  0  0  0  0  0  0  0  0
    3.7923    9.1767   16.6029 C   0  0  0  0  0  0  0  0  0  0  0  0
    4.0467    9.2510   17.9799 C   0  0  0  0  0  0  0  0  0  0  0  0
    4.5407    8.1182   18.6100 C   0  0  0  0  0  0  0  0  0  0  0  0
    5.8375    4.7349   17.9436 C   0  0  0  0  0  0  0  0  0  0  0  0
    5.2510    5.8447   18.6106 O   0  0  0  0  0  0  0  0  0  0  0  0
    4.0615    6.8598   13.7640 O   0  0  0  0  0  0  0  0  0  0  0  0
    2.8703    6.3271   13.2445 C   0  0  0  0  0  0  0  0  0  0  0  0
    2.5678    6.7453   11.9531 C   0  0  0  0  0  0  0  0  0  0  0  0
    1.4173    6.3170   11.3562 C   0  0  0  0  0  0  0  0  0  0  0  0
    0.5362    5.4469   12.0424 C   0  0  0  0  0  0  0  0  0  0  0  0
    0.8703    5.0370   13.3201 C   0  0  0  0  0  0  0  0  0  0  0  0
    2.0586    5.4837   13.9339 C   0  0  0  0  0  0  0  0  0  0  0  0
    2.3887    5.0498   15.1721 F   0  0  0  0  0  0  0  0  0  0  0  0
   -0.6959    5.2541   11.5465 N   0  0  0  0  0  0  0  0  0  0  0  0
   -1.9824    5.9020   11.9863 C   0  0  0  0  0  0  0  0  0  0  0  0
   -1.6808    6.6711   13.0068 O   0  0  0  0  0  0  0  0  0  0  0  0
   -3.0455    5.6855   11.4726 N   0  0  0  0  0  0  0  0  0  0  0  0
   -0.9081    4.5796   10.7341 H   0  0  0  0  0  0  0  0  0  0  0  0
   -2.7231    4.9202   10.4673 H   0  0  0  0  0  0  0  0  0  0  0  0
   -4.4796    5.4381   11.2693 C   0  0  0  0  0  0  0  0  0  0  0  0
   -5.2578    5.8784   10.2075 C   0  0  0  0  0  0  0  0  0  0  0  0
   -6.5145    5.3567   10.3554 C   0  0  0  0  0  0  0  0  0  0  0  0
   -7.6841    5.5190    9.4507 C   0  0  0  0  0  0  0  0  0  0  0  0
   -6.5490    4.5958   11.5004 C   0  0  0  0  0  0  0  0  0  0  0  0
   -7.6828    3.8807   12.1411 C   0  0  0  0  0  0  0  0  0  0  0  0
   -5.2833    4.6783   12.0154 N   0  0  0  0  0  0  0  0  0  0  0  0
   -5.0606    4.1671   12.9023 H   0  0  0  0  0  0  0  0  0  0  0  0
    4.8251    8.1227   19.9380 O   0  0  0  0  0  0  0  0  0  0  0  0
    4.7425    9.0964   20.9160 C   0  0  0  0  0  0  0  0  0  0  0  0
    6.1961    9.1921   21.4816 C   0  0  0  0  0  0  0  0  0  0  0  0
    6.4931    7.7272   21.8336 C   0  0  0  0  0  0  0  0  0  0  0  0
    7.0615    7.7659   23.1566 N   0  0  0  0  0  0  0  0  0  0  0  0
    7.0700    9.0907   23.7110 C   0  0  0  0  0  0  0  0  0  0  0  0
    8.3613    9.2720   24.4993 C   0  0  0  0  0  0  0  0  0  0  0  0
    9.4866    9.1459   23.5968 N   0  0  0  0  0  0  0  0  0  0  0  0
    9.4094   10.3024   22.6845 C   0  0  0  0  0  0  0  0  0  0  0  0
    9.4714    7.9086   22.8255 C   0  0  0  0  0  0  0  0  0  0  0  0
    8.2959    7.0533   23.2697 C   0  0  0  0  0  0  0  0  0  0  0  0
 11 12  1  0  0  0
 12  1  1  0  0  0
  1  2  2  0  0  0
  2  3  1  0  0  0
  3  4  2  0  0  0
  4 13  1  0  0  0
 13 14  1  0  0  0
 14 15  2  0  0  0
 15 16  1  0  0  0
 16 17  2  0  0  0
 17 21  1  0  0  0
 21 22  1  0  0  0
 22 23  2  0  0  0
 22 24  1  0  0  0
 24 27  1  0  0  0
 27 28  2  0  0  0
 28 29  1  0  0  0
 29 30  1  0  0  0
 29 31  2  0  0  0
 31 32  1  0  0  0
 31 33  1  0  0  0
 17 18  1  0  0  0
 18 19  2  0  0  0
 19 20  1  0  0  0
  4  5  1  0  0  0
  5  6  2  0  0  0
  6  7  1  0  0  0
  7  8  2  0  0  0
  8  9  1  0  0  0
  9 10  2  0  0  0
 10 35  1  0  0  0
 35 36  1  0  0  0
 36 37  1  0  0  0
 37 38  1  0  0  0
 38 39  1  0  0  0
 39 40  1  0  0  0
 40 41  1  0  0  0
 41 42  1  0  0  0
 42 43  1  0  0  0
 42 44  1  0  0  0
 44 45  1  0  0  0
 10  1  1  0  0  0
 45 39  1  0  0  0
  8  3  1  0  0  0
 19 14  1  0  0  0
 33 27  1  0  0  0
 21 25  1  0  0  0
 24 26  1  0  0  0
 33 34  1  0  0  0
M  END
> <minimizedAffinity>
-7.56440

> <CNNscore>
0.0878153071

> <CNNaffinity>
5.9480161667

> <CNN_VS>
0.5223268867

> <CNNaffinity_variance>
0.2143727243

$$$$
[H]c1nc2c([H])c(OC([H])([H])C([H])([H])C([H])([H])N3C([H])([H])C([H])([H])C3([H])[H])c(OC([H])([H])[H])c([H])c2c(N([H])c2c([H])nc(N3C([H])([H])C([H])([H])N(C4([H])C([H])([H])C([H])([H])N(C([H])([H])[H])C([H])([H])C4([H])[H])C([H])([H])C3([H])[H])c([H])c2[H])c1C#N


 43 48  0  0  0  0  0  0  0  0999 V2000
    4.1767    2.5033   16.9837 C   0  0  0  0  0  0  0  0  0  0  0  0
    3.7239    1.4742   17.7961 C   0  0  0  0  0  0  0  0  0  0  0  0
    2.6595    0.7240   17.3591 C   0  0  0  0  0  0  0  0  0  0  0  0
    2.0668    0.9803   16.1632 N   0  0  0  0  0  0  0  0  0  0  0  0
    2.4984    1.9738   15.3706 C   0  0  0  0  0  0  0  0  0  0  0  0
    1.9255    2.1864   14.1275 C   0  0  0  0  0  0  0  0  0  0  0  0
    2.3601    3.1534   13.2467 C   0  0  0  0  0  0  0  0  0  0  0  0
    3.4456    3.9361   13.7041 C   0  0  0  0  0  0  0  0  0  0  0  0
    4.0316    3.7499   14.9208 C   0  0  0  0  0  0  0  0  0  0  0  0
    3.5617    2.7608   15.7616 C   0  0  0  0  0  0  0  0  0  0  0  0
    5.3368    3.2096   17.3067 N   0  0  0  0  0  0  0  0  0  0  0  0
    6.3071    2.8075   17.0514 H   0  0  0  0  0  0  0  0  0  0  0  0
    5.5389    6.9154   19.3080 C   0  0  0  0  0  0  0  0  0  0  0  0
    6.3967    6.6166   18.2528 C   0  0  0  0  0  0  0  0  0  0  0  0
    6.2963    5.4250   17.5997 C   0  0  0  0  0  0  0  0  0  0  0  0
    5.3330    4.4634   17.9626 C   0  0  0  0  0  0  0  0  0  0  0  0
    4.5029    4.7946   18.9989 C   0  0  0  0  0  0  0  0  0  0  0  0
    4.6176    5.9605   19.6217 N   0  0  0  0  0  0  0  0  0  0  0  0
    6.2050   10.2562   21.8277 N   0  0  0  0  0  0  0  0  0  0  0  0
    6.1433    8.8945   22.2452 C   0  0  0  0  0  0  0  0  0  0  0  0
    6.6983    7.9849   21.1558 C   0  0  0  0  0  0  0  0  0  0  0  0
    5.6771    8.0738   20.0829 N   0  0  0  0  0  0  0  0  0  0  0  0
    4.9587    9.2561   19.9191 C   0  0  0  0  0  0  0  0  0  0  0  0
    5.5348   10.4797   20.6034 C   0  0  0  0  0  0  0  0  0  0  0  0
   10.0517   13.5848   20.2351 C   0  0  0  0  0  0  0  0  0  0  0  0
    8.7245   13.2890   20.6823 N   0  0  0  0  0  0  0  0  0  0  0  0
    8.0624   12.2307   19.9873 C   0  0  0  0  0  0  0  0  0  0  0  0
    8.1841   10.8745   20.6253 C   0  0  0  0  0  0  0  0  0  0  0  0
    7.4753   10.8736   21.9607 C   0  0  0  0  0  0  0  0  0  0  0  0
    7.4297   12.3193   22.4083 C   0  0  0  0  0  0  0  0  0  0  0  0
    8.8112   12.9115   22.0820 C   0  0  0  0  0  0  0  0  0  0  0  0
    3.8948    4.9268   12.8418 O   0  0  0  0  0  0  0  0  0  0  0  0
    3.8065    6.3072   13.0964 C   0  0  0  0  0  0  0  0  0  0  0  0
    4.3871    1.2163   19.0458 C   0  0  0  0  0  0  0  0  0  0  0  0
    4.9530    1.0079   20.0520 N   0  0  0  0  0  0  0  0  0  0  0  0
    1.8505    3.3987   11.9963 O   0  0  0  0  0  0  0  0  0  0  0  0
    0.9650    4.4285   11.7049 C   0  0  0  0  0  0  0  0  0  0  0  0
   -0.3890    4.1923   12.3075 C   0  0  0  0  0  0  0  0  0  0  0  0
   -1.4921    5.0869   11.9856 C   0  0  0  0  0  0  0  0  0  0  0  0
   -2.7781    4.6791   11.7025 N   0  0  0  0  0  0  0  0  0  0  0  0
   -3.8129    5.7334   11.6713 C   0  0  0  0  0  0  0  0  0  0  0  0
   -4.6988    4.6556   11.0450 C   0  0  0  0  0  0  0  0  0  0  0  0
   -3.3141    4.1748   10.5215 C   0  0  0  0  0  0  0  0  0  0  0  0
 25 26  1  0  0  0
 26 27  1  0  0  0
 27 28  1  0  0  0
 28 29  1  0  0  0
 29 30  1  0  0  0
 30 31  1  0  0  0
 29 19  1  0  0  0
 19 20  1  0  0  0
 20 21  1  0  0  0
 21 22  1  0  0  0
 22 23  1  0  0  0
 23 24  1  0  0  0
 22 13  1  0  0  0
 13 14  2  0  0  0
 14 15  1  0  0  0
 15 16  2  0  0  0
 16 11  1  0  0  0
 11  1  1  0  0  0
  1  2  2  0  0  0
  2  3  1  0  0  0
  3  4  2  0  0  0
  4  5  1  0  0  0
  5  6  2  0  0  0
  6  7  1  0  0  0
  7 36  1  0  0  0
 36 37  1  0  0  0
 37 38  1  0  0  0
 38 39  1  0  0  0
 39 40  1  0  0  0
 40 41  1  0  0  0
 41 42  1  0  0  0
 42 43  1  0  0  0
  7  8  2  0  0  0
  8 32  1  0  0  0
 32 33  1  0  0  0
  8  9  1  0  0  0
  9 10  2  0  0  0
  2 34  1  0  0  0
 34 35  3  0  0  0
 16 17  1  0  0  0
 17 18  2  0  0  0
 31 26  1  0  0  0
 24 19  1  0  0  0
 18 13  1  0  0  0
 10  1  1  0  0  0
 10  5  1  0  0  0
 43 40  1  0  0  0
 11 12  1  0  0  0
M  END
> <minimizedAffinity>
-7.57722

> <CNNscore>
0.6165928841

> <CNNaffinity>
7.2355017662

> <CNN_VS>
4.4613590240

> <CNNaffinity_variance>
0.1682516932

$$$$
[H]c1nc2c([H])c(OC([H])([H])C([H])([H])C([H])([H])N3C([H])([H])C([H])([H])C3([H])[H])c(OC([H])([H])[H])c([H])c2c(N([H])c2c([H])nc(N3C([H])([H])C([H])([H])N(C4([H])C([H])([H])C([H])([H])N(C([H])([H])[H])C([H])([H])C4([H])[H])C([H])([H])C3([H])[H])c([H])c2[H])c1C#N


 43 48  0  0  0  0  0  0  0  0999 V2000
    3.3613    3.0294   17.8275 C   0  0  0  0  0  0  0  0  0  0  0  0
    3.6850    1.7332   18.2003 C   0  0  0  0  0  0  0  0  0  0  0  0
    4.5088    1.5575   19.2854 C   0  0  0  0  0  0  0  0  0  0  0  0
    4.9922    2.6231   19.9768 N   0  0  0  0  0  0  0  0  0  0  0  0
    4.6841    3.8807   19.6233 C   0  0  0  0  0  0  0  0  0  0  0  0
    5.1334    4.9560   20.3720 C   0  0  0  0  0  0  0  0  0  0  0  0
    4.8061    6.2653   20.0923 C   0  0  0  0  0  0  0  0  0  0  0  0
    3.9711    6.4466   18.9652 C   0  0  0  0  0  0  0  0  0  0  0  0
    3.5113    5.4089   18.2101 C   0  0  0  0  0  0  0  0  0  0  0  0
    3.8635    4.1152   18.5395 C   0  0  0  0  0  0  0  0  0  0  0  0
    2.4218    3.2695   16.8231 N   0  0  0  0  0  0  0  0  0  0  0  0
    1.3712    3.3414   17.0672 H   0  0  0  0  0  0  0  0  0  0  0  0
    3.5361    3.5802   12.7685 C   0  0  0  0  0  0  0  0  0  0  0  0
    2.8467    2.4684   13.2449 C   0  0  0  0  0  0  0  0  0  0  0  0
    2.4698    2.3998   14.5525 C   0  0  0  0  0  0  0  0  0  0  0  0
    2.7593    3.4381   15.4594 C   0  0  0  0  0  0  0  0  0  0  0  0
    3.4315    4.5177   14.9541 C   0  0  0  0  0  0  0  0  0  0  0  0
    3.7895    4.5645   13.6773 N   0  0  0  0  0  0  0  0  0  0  0  0
    5.3216    3.9887    8.9477 N   0  0  0  0  0  0  0  0  0  0  0  0
    5.1093    5.0399    9.8869 C   0  0  0  0  0  0  0  0  0  0  0  0
    5.2419    4.5091   11.3091 C   0  0  0  0  0  0  0  0  0  0  0  0
    4.0448    3.6464   11.4652 N   0  0  0  0  0  0  0  0  0  0  0  0
    3.5317    2.9813   10.3538 C   0  0  0  0  0  0  0  0  0  0  0  0
    4.4524    2.8931    9.1532 C   0  0  0  0  0  0  0  0  0  0  0  0
    9.4204    2.8798    5.7252 C   0  0  0  0  0  0  0  0  0  0  0  0
    8.3835    3.7312    6.2243 N   0  0  0  0  0  0  0  0  0  0  0  0
    7.0907    3.1316    6.3262 C   0  0  0  0  0  0  0  0  0  0  0  0
    6.7597    2.5546    7.6748 C   0  0  0  0  0  0  0  0  0  0  0  0
    6.6801    3.6640    8.6987 C   0  0  0  0  0  0  0  0  0  0  0  0
    7.5088    4.8028    8.1432 C   0  0  0  0  0  0  0  0  0  0  0  0
    8.7767    4.1613    7.5546 C   0  0  0  0  0  0  0  0  0  0  0  0
    3.6368    7.7571   18.6529 O   0  0  0  0  0  0  0  0  0  0  0  0
    4.2267    8.5071   17.6195 C   0  0  0  0  0  0  0  0  0  0  0  0
    3.1394    0.6277   17.4599 C   0  0  0  0  0  0  0  0  0  0  0  0
    2.6725   -0.2750   16.8740 N   0  0  0  0  0  0  0  0  0  0  0  0
    5.1999    7.3694   20.8059 O   0  0  0  0  0  0  0  0  0  0  0  0
    6.4765    7.9148   20.7546 C   0  0  0  0  0  0  0  0  0  0  0  0
    7.1966    7.7830   22.0647 C   0  0  0  0  0  0  0  0  0  0  0  0
    8.0901    8.8429   22.5108 C   0  0  0  0  0  0  0  0  0  0  0  0
    8.3811    9.1228   23.8289 N   0  0  0  0  0  0  0  0  0  0  0  0
    8.4399   10.5512   24.2026 C   0  0  0  0  0  0  0  0  0  0  0  0
    8.4542   10.0340   25.6418 C   0  0  0  0  0  0  0  0  0  0  0  0
    7.6274    8.8955   24.9763 C   0  0  0  0  0  0  0  0  0  0  0  0
 25 26  1  0  0  0
 26 27  1  0  0  0
 27 28  1  0  0  0
 28 29  1  0  0  0
 29 30  1  0  0  0
 30 31  1  0  0  0
 29 19  1  0  0  0
 19 20  1  0  0  0
 20 21  1  0  0  0
 21 22  1  0  0  0
 22 23  1  0  0  0
 23 24  1  0  0  0
 22 13  1  0  0  0
 13 14  2  0  0  0
 14 15  1  0  0  0
 15 16  2  0  0  0
 16 11  1  0  0  0
 11  1  1  0  0  0
  1  2  2  0  0  0
  2  3  1  0  0  0
  3  4  2  0  0  0
  4  5  1  0  0  0
  5  6  2  0  0  0
  6  7  1  0  0  0
  7 36  1  0  0  0
 36 37  1  0  0  0
 37 38  1  0  0  0
 38 39  1  0  0  0
 39 40  1  0  0  0
 40 41  1  0  0  0
 41 42  1  0  0  0
 42 43  1  0  0  0
  7  8  2  0  0  0
  8 32  1  0  0  0
 32 33  1  0  0  0
  8  9  1  0  0  0
  9 10  2  0  0  0
  2 34  1  0  0  0
 34 35  3  0  0  0
 16 17  1  0  0  0
 17 18  2  0  0  0
 31 26  1  0  0  0
 24 19  1  0  0  0
 18 13  1  0  0  0
 10  1  1  0  0  0
 10  5  1  0  0  0
 43 40  1  0  0  0
 11 12  1  0  0  0
M  END
> <minimizedAffinity>
-7.23209

> <CNNscore>
0.4334444404

> <CNNaffinity>
6.9460921288

> <CNN_VS>
3.0107450485

> <CNNaffinity_variance>
0.3317160010

$$$$
[H]c1nc2c([H])c(OC([H])([H])C([H])([H])C([H])([H])N3C([H])([H])C([H])([H])C3([H])[H])c(OC([H])([H])[H])c([H])c2c(N([H])c2c([H])nc(N3C([H])([H])C([H])([H])N(C4([H])C([H])([H])C([H])([H])N(C([H])([H])[H])C([H])([H])C4([H])[H])C([H])([H])C3([H])[H])c([H])c2[H])c1C#N


 43 48  0  0  0  0  0  0  0  0999 V2000
    4.5764    2.7480   17.9210 C   0  0  0  0  0  0  0  0  0  0  0  0
    3.8798    1.7430   18.5757 C   0  0  0  0  0  0  0  0  0  0  0  0
    3.6370    1.8921   19.9195 C   0  0  0  0  0  0  0  0  0  0  0  0
    4.0649    2.9943   20.5898 N   0  0  0  0  0  0  0  0  0  0  0  0
    4.7394    3.9718   19.9644 C   0  0  0  0  0  0  0  0  0  0  0  0
    5.1170    5.1176   20.6448 C   0  0  0  0  0  0  0  0  0  0  0  0
    5.7621    6.1783   20.0459 C   0  0  0  0  0  0  0  0  0  0  0  0
    6.0262    6.0171   18.6659 C   0  0  0  0  0  0  0  0  0  0  0  0
    5.6655    4.9027   17.9685 C   0  0  0  0  0  0  0  0  0  0  0  0
    5.0137    3.8722   18.6161 C   0  0  0  0  0  0  0  0  0  0  0  0
    4.7332    2.7207   16.5340 N   0  0  0  0  0  0  0  0  0  0  0  0
    5.6948    2.4848   16.1001 H   0  0  0  0  0  0  0  0  0  0  0  0
    1.7363    3.4294   13.6540 C   0  0  0  0  0  0  0  0  0  0  0  0
    2.3143    2.1712   13.8005 C   0  0  0  0  0  0  0  0  0  0  0  0
    3.2606    1.9548   14.7566 C   0  0  0  0  0  0  0  0  0  0  0  0
    3.6837    2.9827   15.6221 C   0  0  0  0  0  0  0  0  0  0  0  0
    3.0887    4.2035   15.4536 C   0  0  0  0  0  0  0  0  0  0  0  0
    2.1691    4.3930   14.5160 N   0  0  0  0  0  0  0  0  0  0  0  0
   -1.0139    4.6420   10.6675 N   0  0  0  0  0  0  0  0  0  0  0  0
   -1.1820    4.8059   12.0736 C   0  0  0  0  0  0  0  0  0  0  0  0
    0.1675    5.0437   12.7403 C   0  0  0  0  0  0  0  0  0  0  0  0
    0.8471    3.7307   12.6148 N   0  0  0  0  0  0  0  0  0  0  0  0
    0.5733    2.9216   11.5142 C   0  0  0  0  0  0  0  0  0  0  0  0
   -0.1100    3.6039   10.3460 C   0  0  0  0  0  0  0  0  0  0  0  0
   -0.0017    7.3784    6.2065 C   0  0  0  0  0  0  0  0  0  0  0  0
   -0.7577    6.4486    6.9894 N   0  0  0  0  0  0  0  0  0  0  0  0
    0.0062    5.4438    7.6588 C   0  0  0  0  0  0  0  0  0  0  0  0
    0.3825    5.7683    9.0780 C   0  0  0  0  0  0  0  0  0  0  0  0
   -0.8633    5.8452    9.9311 C   0  0  0  0  0  0  0  0  0  0  0  0
   -2.0010    6.1483    8.9793 C   0  0  0  0  0  0  0  0  0  0  0  0
   -1.4689    7.2096    8.0014 C   0  0  0  0  0  0  0  0  0  0  0  0
    6.6873    7.0652   18.0406 O   0  0  0  0  0  0  0  0  0  0  0  0
    6.0630    8.0388   17.2401 C   0  0  0  0  0  0  0  0  0  0  0  0
    3.4229    0.6000   17.8322 C   0  0  0  0  0  0  0  0  0  0  0  0
    3.0368   -0.3417   17.2488 N   0  0  0  0  0  0  0  0  0  0  0  0
    6.1419    7.3462   20.6584 O   0  0  0  0  0  0  0  0  0  0  0  0
    5.2836    8.1554   21.3918 C   0  0  0  0  0  0  0  0  0  0  0  0
    5.5494    9.6138   21.1576 C   0  0  0  0  0  0  0  0  0  0  0  0
    6.6423   10.2733   21.8585 C   0  0  0  0  0  0  0  0  0  0  0  0
    7.9696    9.9144   21.7599 N   0  0  0  0  0  0  0  0  0  0  0  0
    8.9614   10.9472   22.1247 C   0  0  0  0  0  0  0  0  0  0  0  0
    9.9709    9.7992   22.0822 C   0  0  0  0  0  0  0  0  0  0  0  0
    8.7047    9.0015   22.5102 C   0  0  0  0  0  0  0  0  0  0  0  0
 25 26  1  0  0  0
 26 27  1  0  0  0
 27 28  1  0  0  0
 28 29  1  0  0  0
 29 30  1  0  0  0
 30 31  1  0  0  0
 29 19  1  0  0  0
 19 20  1  0  0  0
 20 21  1  0  0  0
 21 22  1  0  0  0
 22 23  1  0  0  0
 23 24  1  0  0  0
 22 13  1  0  0  0
 13 14  2  0  0  0
 14 15  1  0  0  0
 15 16  2  0  0  0
 16 11  1  0  0  0
 11  1  1  0  0  0
  1  2  2  0  0  0
  2  3  1  0  0  0
  3  4  2  0  0  0
  4  5  1  0  0  0
  5  6  2  0  0  0
  6  7  1  0  0  0
  7 36  1  0  0  0
 36 37  1  0  0  0
 37 38  1  0  0  0
 38 39  1  0  0  0
 39 40  1  0  0  0
 40 41  1  0  0  0
 41 42  1  0  0  0
 42 43  1  0  0  0
  7  8  2  0  0  0
  8 32  1  0  0  0
 32 33  1  0  0  0
  8  9  1  0  0  0
  9 10  2  0  0  0
  2 34  1  0  0  0
 34 35  3  0  0  0
 16 17  1  0  0  0
 17 18  2  0  0  0
 31 26  1  0  0  0
 24 19  1  0  0  0
 18 13  1  0  0  0
 10  1  1  0  0  0
 10  5  1  0  0  0
 43 40  1  0  0  0
 11 12  1  0  0  0
M  END
> <minimizedAffinity>
-7.21164

> <CNNscore>
0.3869935274

> <CNNaffinity>
6.8623566628

> <CNN_VS>
2.6556875706

> <CNNaffinity_variance>
0.0905268714

$$$$
[H]c1nc2c([H])c(OC([H])([H])C([H])([H])C([H])([H])N3C([H])([H])C([H])([H])C3([H])[H])c(OC([H])([H])[H])c([H])c2c(N([H])c2c([H])nc(N3C([H])([H])C([H])([H])N(C4([H])C([H])([H])C([H])([H])N(C([H])([H])[H])C([H])([H])C4([H])[H])C([H])([H])C3([H])[H])c([H])c2[H])c1C#N


 43 48  0  0  0  0  0  0  0  0999 V2000
    4.6518    2.4292   20.5703 C   0  0  0  0  0  0  0  0  0  0  0  0
    3.8762    1.6473   21.4135 C   0  0  0  0  0  0  0  0  0  0  0  0
    3.4430    2.2003   22.5940 C   0  0  0  0  0  0  0  0  0  0  0  0
    3.7628    3.4787   22.9267 N   0  0  0  0  0  0  0  0  0  0  0  0
    4.5126    4.2425   22.1168 C   0  0  0  0  0  0  0  0  0  0  0  0
    4.7809    5.5628   22.4384 C   0  0  0  0  0  0  0  0  0  0  0  0
    5.4972    6.4123   21.6229 C   0  0  0  0  0  0  0  0  0  0  0  0
    5.9567    5.8375   20.4151 C   0  0  0  0  0  0  0  0  0  0  0  0
    5.7073    4.5425   20.0698 C   0  0  0  0  0  0  0  0  0  0  0  0
    4.9773    3.7367   20.9205 C   0  0  0  0  0  0  0  0  0  0  0  0
    5.0052    1.9733   19.2989 N   0  0  0  0  0  0  0  0  0  0  0  0
    5.8028    1.2531   19.1818 H   0  0  0  0  0  0  0  0  0  0  0  0
    3.1171    3.4439   15.8275 C   0  0  0  0  0  0  0  0  0  0  0  0
    4.3729    3.9027   16.2162 C   0  0  0  0  0  0  0  0  0  0  0  0
    4.9792    3.3940   17.3253 C   0  0  0  0  0  0  0  0  0  0  0  0
    4.3665    2.3971   18.1097 C   0  0  0  0  0  0  0  0  0  0  0  0
    3.1365    1.9656   17.6932 C   0  0  0  0  0  0  0  0  0  0  0  0
    2.5634    2.4744   16.6101 N   0  0  0  0  0  0  0  0  0  0  0  0
    0.9068    4.8522   12.4982 N   0  0  0  0  0  0  0  0  0  0  0  0
    1.8853    3.8157   12.4729 C   0  0  0  0  0  0  0  0  0  0  0  0
    1.8647    3.0412   13.7851 C   0  0  0  0  0  0  0  0  0  0  0  0
    2.4046    4.0151   14.7656 N   0  0  0  0  0  0  0  0  0  0  0  0
    2.1708    5.3756   14.5777 C   0  0  0  0  0  0  0  0  0  0  0  0
    1.0714    5.7277   13.5957 C   0  0  0  0  0  0  0  0  0  0  0  0
   -4.0555    5.6724   10.7330 C   0  0  0  0  0  0  0  0  0  0  0  0
   -2.6365    5.5953   10.5614 N   0  0  0  0  0  0  0  0  0  0  0  0
   -1.8605    6.3114   11.5240 C   0  0  0  0  0  0  0  0  0  0  0  0
   -1.3927    5.4978   12.6989 C   0  0  0  0  0  0  0  0  0  0  0  0
   -0.4230    4.4366   12.2308 C   0  0  0  0  0  0  0  0  0  0  0  0
   -0.7300    4.2098   10.7657 C   0  0  0  0  0  0  0  0  0  0  0  0
   -2.2635    4.1943   10.6478 C   0  0  0  0  0  0  0  0  0  0  0  0
    6.6927    6.6676   19.5809 O   0  0  0  0  0  0  0  0  0  0  0  0
    7.0302    6.3653   18.2493 C   0  0  0  0  0  0  0  0  0  0  0  0
    3.5384    0.3056   21.0213 C   0  0  0  0  0  0  0  0  0  0  0  0
    3.2717   -0.7981   20.7266 N   0  0  0  0  0  0  0  0  0  0  0  0
    5.7772    7.7321   21.8739 O   0  0  0  0  0  0  0  0  0  0  0  0
    4.8988    8.7769   21.6163 C   0  0  0  0  0  0  0  0  0  0  0  0
    5.5574    9.8894   20.8542 C   0  0  0  0  0  0  0  0  0  0  0  0
    7.0093    9.9391   20.7535 C   0  0  0  0  0  0  0  0  0  0  0  0
    7.8155   10.8195   21.4429 N   0  0  0  0  0  0  0  0  0  0  0  0
    7.5386   10.9763   22.8859 C   0  0  0  0  0  0  0  0  0  0  0  0
    8.8760   11.7170   22.9234 C   0  0  0  0  0  0  0  0  0  0  0  0
    9.1692   10.7331   21.7535 C   0  0  0  0  0  0  0  0  0  0  0  0
 25 26  1  0  0  0
 26 27  1  0  0  0
 27 28  1  0  0  0
 28 29  1  0  0  0
 29 30  1  0  0  0
 30 31  1  0  0  0
 29 19  1  0  0  0
 19 20  1  0  0  0
 20 21  1  0  0  0
 21 22  1  0  0  0
 22 23  1  0  0  0
 23 24  1  0  0  0
 22 13  1  0  0  0
 13 14  2  0  0  0
 14 15  1  0  0  0
 15 16  2  0  0  0
 16 11  1  0  0  0
 11  1  1  0  0  0
  1  2  2  0  0  0
  2  3  1  0  0  0
  3  4  2  0  0  0
  4  5  1  0  0  0
  5  6  2  0  0  0
  6  7  1  0  0  0
  7 36  1  0  0  0
 36 37  1  0  0  0
 37 38  1  0  0  0
 38 39  1  0  0  0
 39 40  1  0  0  0
 40 41  1  0  0  0
 41 42  1  0  0  0
 42 43  1  0  0  0
  7  8  2  0  0  0
  8 32  1  0  0  0
 32 33  1  0  0  0
  8  9  1  0  0  0
  9 10  2  0  0  0
  2 34  1  0  0  0
 34 35  3  0  0  0
 16 17  1  0  0  0
 17 18  2  0  0  0
 31 26  1  0  0  0
 24 19  1  0  0  0
 18 13  1  0  0  0
 10  1  1  0  0  0
 10  5  1  0  0  0
 43 40  1  0  0  0
 11 12  1  0  0  0
M  END
> <minimizedAffinity>
-7.91437

> <CNNscore>
0.3633968830

> <CNNaffinity>
7.1370553970

> <CNN_VS>
2.5935835838

> <CNNaffinity_variance>
0.1461573243

$$$$
[H]c1nc2c([H])c(OC([H])([H])C([H])([H])C([H])([H])N3C([H])([H])C([H])([H])C3([H])[H])c(OC([H])([H])[H])c([H])c2c(N([H])c2c([H])nc(N3C([H])([H])C([H])([H])N(C4([H])C([H])([H])C([H])([H])N(C([H])([H])[H])C([H])([H])C4([H])[H])C([H])([H])C3([H])[H])c([H])c2[H])c1C#N


 43 48  0  0  0  0  0  0  0  0999 V2000
    4.7277    2.5012   20.7564 C   0  0  0  0  0  0  0  0  0  0  0  0
    3.9215    1.7685   21.6149 C   0  0  0  0  0  0  0  0  0  0  0  0
    3.4693    2.3796   22.7590 C   0  0  0  0  0  0  0  0  0  0  0  0
    3.8001    3.6671   23.0422 N   0  0  0  0  0  0  0  0  0  0  0  0
    4.5796    4.3837   22.2172 C   0  0  0  0  0  0  0  0  0  0  0  0
    4.8598    5.7132   22.4861 C   0  0  0  0  0  0  0  0  0  0  0  0
    5.6071    6.5155   21.6508 C   0  0  0  0  0  0  0  0  0  0  0  0
    6.0859    5.8810   20.4811 C   0  0  0  0  0  0  0  0  0  0  0  0
    5.8255    4.5754   20.1877 C   0  0  0  0  0  0  0  0  0  0  0  0
    5.0642    3.8185   21.0559 C   0  0  0  0  0  0  0  0  0  0  0  0
    5.1037    1.9841   19.5154 N   0  0  0  0  0  0  0  0  0  0  0  0
    5.9493    1.3151   19.4386 H   0  0  0  0  0  0  0  0  0  0  0  0
    3.1966    2.6918   15.8221 C   0  0  0  0  0  0  0  0  0  0  0  0
    3.1121    1.4536   16.4531 C   0  0  0  0  0  0  0  0  0  0  0  0
    3.7111    1.2533   17.6604 C   0  0  0  0  0  0  0  0  0  0  0  0
    4.4285    2.2787   18.3074 C   0  0  0  0  0  0  0  0  0  0  0  0
    4.4841    3.4836   17.6611 C   0  0  0  0  0  0  0  0  0  0  0  0
    3.8938    3.6575   16.4856 N   0  0  0  0  0  0  0  0  0  0  0  0
    1.6343    3.6877   12.0115 N   0  0  0  0  0  0  0  0  0  0  0  0
    1.1013    4.1025   13.2669 C   0  0  0  0  0  0  0  0  0  0  0  0
    2.2255    4.2958   14.2773 C   0  0  0  0  0  0  0  0  0  0  0  0
    2.6981    2.9126   14.5320 N   0  0  0  0  0  0  0  0  0  0  0  0
    2.6252    1.9665   13.5120 C   0  0  0  0  0  0  0  0  0  0  0  0
    2.4179    2.5157   12.1147 C   0  0  0  0  0  0  0  0  0  0  0  0
    1.7299    6.7551    7.6531 C   0  0  0  0  0  0  0  0  0  0  0  0
    1.1194    6.2511    8.8457 N   0  0  0  0  0  0  0  0  0  0  0  0
    1.1197    4.8289    8.9834 C   0  0  0  0  0  0  0  0  0  0  0  0
    2.2683    4.2649    9.7732 C   0  0  0  0  0  0  0  0  0  0  0  0
    2.1747    4.7260   11.2099 C   0  0  0  0  0  0  0  0  0  0  0  0
    1.3521    5.9969   11.1860 C   0  0  0  0  0  0  0  0  0  0  0  0
    1.8476    6.8040    9.9741 C   0  0  0  0  0  0  0  0  0  0  0  0
    6.8530    6.6628   19.6284 O   0  0  0  0  0  0  0  0  0  0  0  0
    6.4499    7.0780   18.3465 C   0  0  0  0  0  0  0  0  0  0  0  0
    3.5732    0.4153   21.2748 C   0  0  0  0  0  0  0  0  0  0  0  0
    3.2969   -0.6967   21.0233 N   0  0  0  0  0  0  0  0  0  0  0  0
    5.9006    7.8413   21.8495 O   0  0  0  0  0  0  0  0  0  0  0  0
    4.9748    8.8699   21.7300 C   0  0  0  0  0  0  0  0  0  0  0  0
    5.4342    9.9306   20.7727 C   0  0  0  0  0  0  0  0  0  0  0  0
    6.8541   10.0854   20.4888 C   0  0  0  0  0  0  0  0  0  0  0  0
    7.6858   10.9921   21.1105 N   0  0  0  0  0  0  0  0  0  0  0  0
    7.2837   11.4386   22.4604 C   0  0  0  0  0  0  0  0  0  0  0  0
    8.6898   12.0355   22.5336 C   0  0  0  0  0  0  0  0  0  0  0  0
    8.9803   10.8288   21.5943 C   0  0  0  0  0  0  0  0  0  0  0  0
 25 26  1  0  0  0
 26 27  1  0  0  0
 27 28  1  0  0  0
 28 29  1  0  0  0
 29 30  1  0  0  0
 30 31  1  0  0  0
 29 19  1  0  0  0
 19 20  1  0  0  0
 20 21  1  0  0  0
 21 22  1  0  0  0
 22 23  1  0  0  0
 23 24  1  0  0  0
 22 13  1  0  0  0
 13 14  2  0  0  0
 14 15  1  0  0  0
 15 16  2  0  0  0
 16 11  1  0  0  0
 11  1  1  0  0  0
  1  2  2  0  0  0
  2  3  1  0  0  0
  3  4  2  0  0  0
  4  5  1  0  0  0
  5  6  2  0  0  0
  6  7  1  0  0  0
  7 36  1  0  0  0
 36 37  1  0  0  0
 37 38  1  0  0  0
 38 39  1  0  0  0
 39 40  1  0  0  0
 40 41  1  0  0  0
 41 42  1  0  0  0
 42 43  1  0  0  0
  7  8  2  0  0  0
  8 32  1  0  0  0
 32 33  1  0  0  0
  8  9  1  0  0  0
  9 10  2  0  0  0
  2 34  1  0  0  0
 34 35  3  0  0  0
 16 17  1  0  0  0
 17 18  2  0  0  0
 31 26  1  0  0  0
 24 19  1  0  0  0
 18 13  1  0  0  0
 10  1  1  0  0  0
 10  5  1  0  0  0
 43 40  1  0  0  0
 11 12  1  0  0  0
M  END
> <minimizedAffinity>
-7.79176

> <CNNscore>
0.3607883155

> <CNNaffinity>
7.1715598106

> <CNN_VS>
2.5874149799

> <CNNaffinity_variance>
0.1038095504

$$$$
[H]c1nc2c([H])c(OC([H])([H])C([H])([H])C([H])([H])N3C([H])([H])C([H])([H])C3([H])[H])c(OC([H])([H])[H])c([H])c2c(N([H])c2c([H])nc(N3C([H])([H])C([H])([H])N(C4([H])C([H])([H])C([H])([H])N(C([H])([H])[H])C([H])([H])C4([H])[H])C([H])([H])C3([H])[H])c([H])c2[H])c1C#N


 43 48  0  0  0  0  0  0  0  0999 V2000
    3.8057    3.5321   18.7738 C   0  0  0  0  0  0  0  0  0  0  0  0
    4.0891    2.1817   18.9156 C   0  0  0  0  0  0  0  0  0  0  0  0
    5.0337    1.8115   19.8417 C   0  0  0  0  0  0  0  0  0  0  0  0
    5.6720    2.7413   20.6002 N   0  0  0  0  0  0  0  0  0  0  0  0
    5.4039    4.0500   20.4699 C   0  0  0  0  0  0  0  0  0  0  0  0
    6.0166    4.9825   21.2906 C   0  0  0  0  0  0  0  0  0  0  0  0
    5.7426    6.3325   21.2424 C   0  0  0  0  0  0  0  0  0  0  0  0
    4.7819    6.7148   20.2775 C   0  0  0  0  0  0  0  0  0  0  0  0
    4.1605    5.8208   19.4571 C   0  0  0  0  0  0  0  0  0  0  0  0
    4.4666    4.4779   19.5527 C   0  0  0  0  0  0  0  0  0  0  0  0
    2.7613    3.9595   17.9518 N   0  0  0  0  0  0  0  0  0  0  0  0
    1.7807    4.1415   18.3687 H   0  0  0  0  0  0  0  0  0  0  0  0
    3.3858    4.7001   13.8481 C   0  0  0  0  0  0  0  0  0  0  0  0
    4.2158    3.8391   14.5612 C   0  0  0  0  0  0  0  0  0  0  0  0
    3.9801    3.5901   15.8799 C   0  0  0  0  0  0  0  0  0  0  0  0
    2.9013    4.1862   16.5622 C   0  0  0  0  0  0  0  0  0  0  0  0
    2.1031    5.0205   15.8277 C   0  0  0  0  0  0  0  0  0  0  0  0
    2.3504    5.2497   14.5444 N   0  0  0  0  0  0  0  0  0  0  0  0
    3.9225    6.0510    9.8681 N   0  0  0  0  0  0  0  0  0  0  0  0
    2.6771    5.7151   10.4752 C   0  0  0  0  0  0  0  0  0  0  0  0
    2.7036    6.0654   11.9580 C   0  0  0  0  0  0  0  0  0  0  0  0
    3.6534    5.0771   12.5261 N   0  0  0  0  0  0  0  0  0  0  0  0
    4.7085    4.6144   11.7428 C   0  0  0  0  0  0  0  0  0  0  0  0
    5.0219    5.4327   10.5062 C   0  0  0  0  0  0  0  0  0  0  0  0
    5.6089   10.0063    6.7177 C   0  0  0  0  0  0  0  0  0  0  0  0
    4.8156    8.8483    6.9983 N   0  0  0  0  0  0  0  0  0  0  0  0
    5.5213    7.7403    7.5603 C   0  0  0  0  0  0  0  0  0  0  0  0
    5.4997    7.6658    9.0620 C   0  0  0  0  0  0  0  0  0  0  0  0
    4.0865    7.4215    9.5403 C   0  0  0  0  0  0  0  0  0  0  0  0
    3.1811    7.9174    8.4328 C   0  0  0  0  0  0  0  0  0  0  0  0
    3.7886    9.2439    7.9459 C   0  0  0  0  0  0  0  0  0  0  0  0
    4.4968    8.0709   20.1984 O   0  0  0  0  0  0  0  0  0  0  0  0
    3.8947    8.6972   19.0922 C   0  0  0  0  0  0  0  0  0  0  0  0
    3.3802    1.2226   18.1122 C   0  0  0  0  0  0  0  0  0  0  0  0
    2.7844    0.4355   17.4784 N   0  0  0  0  0  0  0  0  0  0  0  0
    6.2978    7.3011   22.0404 O   0  0  0  0  0  0  0  0  0  0  0  0
    7.6643    7.5155   22.1681 C   0  0  0  0  0  0  0  0  0  0  0  0
    8.0549    7.8204   23.5848 C   0  0  0  0  0  0  0  0  0  0  0  0
    7.2775    8.7757   24.3618 C   0  0  0  0  0  0  0  0  0  0  0  0
    7.6766   10.0630   24.6517 N   0  0  0  0  0  0  0  0  0  0  0  0
    8.6520   10.2198   25.7505 C   0  0  0  0  0  0  0  0  0  0  0  0
    8.7867   11.6564   25.2438 C   0  0  0  0  0  0  0  0  0  0  0  0
    8.4415   10.9501   23.9005 C   0  0  0  0  0  0  0  0  0  0  0  0
 25 26  1  0  0  0
 26 27  1  0  0  0
 27 28  1  0  0  0
 28 29  1  0  0  0
 29 30  1  0  0  0
 30 31  1  0  0  0
 29 19  1  0  0  0
 19 20  1  0  0  0
 20 21  1  0  0  0
 21 22  1  0  0  0
 22 23  1  0  0  0
 23 24  1  0  0  0
 22 13  1  0  0  0
 13 14  2  0  0  0
 14 15  1  0  0  0
 15 16  2  0  0  0
 16 11  1  0  0  0
 11  1  1  0  0  0
  1  2  2  0  0  0
  2  3  1  0  0  0
  3  4  2  0  0  0
  4  5  1  0  0  0
  5  6  2  0  0  0
  6  7  1  0  0  0
  7 36  1  0  0  0
 36 37  1  0  0  0
 37 38  1  0  0  0
 38 39  1  0  0  0
 39 40  1  0  0  0
 40 41  1  0  0  0
 41 42  1  0  0  0
 42 43  1  0  0  0
  7  8  2  0  0  0
  8 32  1  0  0  0
 32 33  1  0  0  0
  8  9  1  0  0  0
  9 10  2  0  0  0
  2 34  1  0  0  0
 34 35  3  0  0  0
 16 17  1  0  0  0
 17 18  2  0  0  0
 31 26  1  0  0  0
 24 19  1  0  0  0
 18 13  1  0  0  0
 10  1  1  0  0  0
 10  5  1  0  0  0
 43 40  1  0  0  0
 11 12  1  0  0  0
M  END
> <minimizedAffinity>
-7.33432

> <CNNscore>
0.3245349228

> <CNNaffinity>
6.6440834999

> <CNN_VS>
2.1562371254

> <CNNaffinity_variance>
0.3439517021

$$$$
[H]c1nc2c([H])c(OC([H])([H])C([H])([H])C([H])([H])N3C([H])([H])C([H])([H])C3([H])[H])c(OC([H])([H])[H])c([H])c2c(N([H])c2c([H])nc(N3C([H])([H])C([H])([H])N(C4([H])C([H])([H])C([H])([H])N(C([H])([H])[H])C([H])([H])C4([H])[H])C([H])([H])C3([H])[H])c([H])c2[H])c1C#N


 43 48  0  0  0  0  0  0  0  0999 V2000
    4.7579    3.0268   17.9407 C   0  0  0  0  0  0  0  0  0  0  0  0
    4.0767    1.9670   18.5210 C   0  0  0  0  0  0  0  0  0  0  0  0
    3.8758    1.9918   19.8797 C   0  0  0  0  0  0  0  0  0  0  0  0
    4.3296    3.0264   20.6353 N   0  0  0  0  0  0  0  0  0  0  0  0
    4.9895    4.0561   20.0822 C   0  0  0  0  0  0  0  0  0  0  0  0
    5.3936    5.1333   20.8535 C   0  0  0  0  0  0  0  0  0  0  0  0
    6.0253    6.2434   20.3353 C   0  0  0  0  0  0  0  0  0  0  0  0
    6.2462    6.2098   18.9388 C   0  0  0  0  0  0  0  0  0  0  0  0
    5.8587    5.1654   18.1530 C   0  0  0  0  0  0  0  0  0  0  0  0
    5.2219    4.0809   18.7226 C   0  0  0  0  0  0  0  0  0  0  0  0
    4.8721    3.1273   16.5529 N   0  0  0  0  0  0  0  0  0  0  0  0
    5.8079    2.8916   16.0658 H   0  0  0  0  0  0  0  0  0  0  0  0
    1.8435    4.2891   13.8591 C   0  0  0  0  0  0  0  0  0  0  0  0
    2.5207    3.0820   13.7077 C   0  0  0  0  0  0  0  0  0  0  0  0
    3.4761    2.7109   14.6055 C   0  0  0  0  0  0  0  0  0  0  0  0
    3.8098    3.5238   15.7066 C   0  0  0  0  0  0  0  0  0  0  0  0
    3.1188    4.6988   15.8269 C   0  0  0  0  0  0  0  0  0  0  0  0
    2.1921    5.0415   14.9414 N   0  0  0  0  0  0  0  0  0  0  0  0
   -0.6825    6.0038   10.9210 N   0  0  0  0  0  0  0  0  0  0  0  0
   -0.0229    6.7090   11.9698 C   0  0  0  0  0  0  0  0  0  0  0  0
    1.3198    6.0577   12.2781 C   0  0  0  0  0  0  0  0  0  0  0  0
    0.9385    4.7672   12.9031 N   0  0  0  0  0  0  0  0  0  0  0  0
   -0.2407    4.1387   12.5091 C   0  0  0  0  0  0  0  0  0  0  0  0
   -0.8502    4.6307   11.2116 C   0  0  0  0  0  0  0  0  0  0  0  0
   -0.1161    4.9321    5.7303 C   0  0  0  0  0  0  0  0  0  0  0  0
   -0.8964    5.1864    6.9030 N   0  0  0  0  0  0  0  0  0  0  0  0
   -0.5423    4.4203    8.0559 C   0  0  0  0  0  0  0  0  0  0  0  0
    0.4188    5.0918    8.9974 C   0  0  0  0  0  0  0  0  0  0  0  0
   -0.2344    6.3098    9.6102 C   0  0  0  0  0  0  0  0  0  0  0  0
   -1.3298    6.7218    8.6496 C   0  0  0  0  0  0  0  0  0  0  0  0
   -0.7326    6.5900    7.2384 C   0  0  0  0  0  0  0  0  0  0  0  0
    6.8931    7.3098   18.3927 O   0  0  0  0  0  0  0  0  0  0  0  0
    6.4232    8.0466   17.2906 C   0  0  0  0  0  0  0  0  0  0  0  0
    3.5915    0.8986   17.6897 C   0  0  0  0  0  0  0  0  0  0  0  0
    3.1950    0.0448   16.9897 N   0  0  0  0  0  0  0  0  0  0  0  0
    6.4295    7.3489   21.0409 O   0  0  0  0  0  0  0  0  0  0  0  0
    5.5608    8.2297   21.6726 C   0  0  0  0  0  0  0  0  0  0  0  0
    5.9445    9.6617   21.4388 C   0  0  0  0  0  0  0  0  0  0  0  0
    5.6056   10.3066   20.1778 C   0  0  0  0  0  0  0  0  0  0  0  0
    4.3257   10.4450   19.6848 N   0  0  0  0  0  0  0  0  0  0  0  0
    4.1678   11.2993   18.4896 C   0  0  0  0  0  0  0  0  0  0  0  0
    2.7578   10.7109   18.4226 C   0  0  0  0  0  0  0  0  0  0  0  0
    3.4993    9.5071   19.0734 C   0  0  0  0  0  0  0  0  0  0  0  0
 25 26  1  0  0  0
 26 27  1  0  0  0
 27 28  1  0  0  0
 28 29  1  0  0  0
 29 30  1  0  0  0
 30 31  1  0  0  0
 29 19  1  0  0  0
 19 20  1  0  0  0
 20 21  1  0  0  0
 21 22  1  0  0  0
 22 23  1  0  0  0
 23 24  1  0  0  0
 22 13  1  0  0  0
 13 14  2  0  0  0
 14 15  1  0  0  0
 15 16  2  0  0  0
 16 11  1  0  0  0
 11  1  1  0  0  0
  1  2  2  0  0  0
  2  3  1  0  0  0
  3  4  2  0  0  0
  4  5  1  0  0  0
  5  6  2  0  0  0
  6  7  1  0  0  0
  7 36  1  0  0  0
 36 37  1  0  0  0
 37 38  1  0  0  0
 38 39  1  0  0  0
 39 40  1  0  0  0
 40 41  1  0  0  0
 41 42  1  0  0  0
 42 43  1  0  0  0
  7  8  2  0  0  0
  8 32  1  0  0  0
 32 33  1  0  0  0
  8  9  1  0  0  0
  9 10  2  0  0  0
  2 34  1  0  0  0
 34 35  3  0  0  0
 16 17  1  0  0  0
 17 18  2  0  0  0
 31 26  1  0  0  0
 24 19  1  0  0  0
 18 13  1  0  0  0
 10  1  1  0  0  0
 10  5  1  0  0  0
 43 40  1  0  0  0
 11 12  1  0  0  0
M  END
> <minimizedAffinity>
-7.77026

> <CNNscore>
0.2868047953

> <CNNaffinity>
6.7908377647

> <CNN_VS>
1.9476448298

> <CNNaffinity_variance>
0.2156340629

$$$$
[H]c1nc2c([H])c(OC([H])([H])C([H])([H])C([H])([H])N3C([H])([H])C([H])([H])C3([H])[H])c(OC([H])([H])[H])c([H])c2c(N([H])c2c([H])nc(N3C([H])([H])C([H])([H])N(C4([H])C([H])([H])C([H])([H])N(C([H])([H])[H])C([H])([H])C4([H])[H])C([H])([H])C3([H])[H])c([H])c2[H])c1C#N


 43 48  0  0  0  0  0  0  0  0999 V2000
    4.6807    2.7247   20.7454 C   0  0  0  0  0  0  0  0  0  0  0  0
    3.9553    1.9943   21.6750 C   0  0  0  0  0  0  0  0  0  0  0  0
    3.6467    2.5933   22.8720 C   0  0  0  0  0  0  0  0  0  0  0  0
    4.0388    3.8671   23.1387 N   0  0  0  0  0  0  0  0  0  0  0  0
    4.7408    4.5813   22.2450 C   0  0  0  0  0  0  0  0  0  0  0  0
    5.0822    5.8986   22.5038 C   0  0  0  0  0  0  0  0  0  0  0  0
    5.7533    6.6994   21.6049 C   0  0  0  0  0  0  0  0  0  0  0  0
    6.0849    6.0770   20.3790 C   0  0  0  0  0  0  0  0  0  0  0  0
    5.7613    4.7837   20.0943 C   0  0  0  0  0  0  0  0  0  0  0  0
    5.0809    4.0278   21.0281 C   0  0  0  0  0  0  0  0  0  0  0  0
    4.9052    2.2233   19.4620 N   0  0  0  0  0  0  0  0  0  0  0  0
    5.6842    1.4934   19.2919 H   0  0  0  0  0  0  0  0  0  0  0  0
    2.8536    3.3731   15.9624 C   0  0  0  0  0  0  0  0  0  0  0  0
    3.6059    2.2023   16.0070 C   0  0  0  0  0  0  0  0  0  0  0  0
    4.2378    1.8330   17.1562 C   0  0  0  0  0  0  0  0  0  0  0  0
    4.1543    2.6115   18.3273 C   0  0  0  0  0  0  0  0  0  0  0  0
    3.4007    3.7510   18.2481 C   0  0  0  0  0  0  0  0  0  0  0  0
    2.7935    4.0926   17.1189 N   0  0  0  0  0  0  0  0  0  0  0  0
    1.2213    5.1437   12.4762 N   0  0  0  0  0  0  0  0  0  0  0  0
    1.1056    5.6516   13.8032 C   0  0  0  0  0  0  0  0  0  0  0  0
    2.3613    5.3251   14.6025 C   0  0  0  0  0  0  0  0  0  0  0  0
    2.2825    3.8538   14.7773 N   0  0  0  0  0  0  0  0  0  0  0  0
    1.6781    3.0792   13.7896 C   0  0  0  0  0  0  0  0  0  0  0  0
    1.4829    3.7549   12.4470 C   0  0  0  0  0  0  0  0  0  0  0  0
    1.9219    7.8938    7.9640 C   0  0  0  0  0  0  0  0  0  0  0  0
    1.2786    7.6409    9.2175 N   0  0  0  0  0  0  0  0  0  0  0  0
    0.8533    6.2936    9.4301 C   0  0  0  0  0  0  0  0  0  0  0  0
    1.8300    5.4264   10.1752 C   0  0  0  0  0  0  0  0  0  0  0  0
    1.9916    5.9383   11.5885 C   0  0  0  0  0  0  0  0  0  0  0  0
    1.5990    7.4000   11.5488 C   0  0  0  0  0  0  0  0  0  0  0  0
    2.2247    7.9760   10.2672 C   0  0  0  0  0  0  0  0  0  0  0  0
    6.7733    6.8572   19.4604 O   0  0  0  0  0  0  0  0  0  0  0  0
    6.5155    6.8775   18.0779 C   0  0  0  0  0  0  0  0  0  0  0  0
    3.5379    0.6564   21.3526 C   0  0  0  0  0  0  0  0  0  0  0  0
    3.2212   -0.4384   21.0749 N   0  0  0  0  0  0  0  0  0  0  0  0
    6.1001    8.0140   21.7923 O   0  0  0  0  0  0  0  0  0  0  0  0
    5.1914    9.0646   21.8049 C   0  0  0  0  0  0  0  0  0  0  0  0
    5.0497    9.7008   20.4531 C   0  0  0  0  0  0  0  0  0  0  0  0
    3.9840    9.2721   19.5580 C   0  0  0  0  0  0  0  0  0  0  0  0
    3.3022   10.1016   18.6935 N   0  0  0  0  0  0  0  0  0  0  0  0
    3.5575   11.5505   18.8302 C   0  0  0  0  0  0  0  0  0  0  0  0
    2.8135   11.6692   17.4993 C   0  0  0  0  0  0  0  0  0  0  0  0
    3.4276   10.2508   17.3156 C   0  0  0  0  0  0  0  0  0  0  0  0
 25 26  1  0  0  0
 26 27  1  0  0  0
 27 28  1  0  0  0
 28 29  1  0  0  0
 29 30  1  0  0  0
 30 31  1  0  0  0
 29 19  1  0  0  0
 19 20  1  0  0  0
 20 21  1  0  0  0
 21 22  1  0  0  0
 22 23  1  0  0  0
 23 24  1  0  0  0
 22 13  1  0  0  0
 13 14  2  0  0  0
 14 15  1  0  0  0
 15 16  2  0  0  0
 16 11  1  0  0  0
 11  1  1  0  0  0
  1  2  2  0  0  0
  2  3  1  0  0  0
  3  4  2  0  0  0
  4  5  1  0  0  0
  5  6  2  0  0  0
  6  7  1  0  0  0
  7 36  1  0  0  0
 36 37  1  0  0  0
 37 38  1  0  0  0
 38 39  1  0  0  0
 39 40  1  0  0  0
 40 41  1  0  0  0
 41 42  1  0  0  0
 42 43  1  0  0  0
  7  8  2  0  0  0
  8 32  1  0  0  0
 32 33  1  0  0  0
  8  9  1  0  0  0
  9 10  2  0  0  0
  2 34  1  0  0  0
 34 35  3  0  0  0
 16 17  1  0  0  0
 17 18  2  0  0  0
 31 26  1  0  0  0
 24 19  1  0  0  0
 18 13  1  0  0  0
 10  1  1  0  0  0
 10  5  1  0  0  0
 43 40  1  0  0  0
 11 12  1  0  0  0
M  END
> <minimizedAffinity>
-8.63643

> <CNNscore>
0.2846056521

> <CNNaffinity>
7.0075006485

> <CNN_VS>
1.9943742752

> <CNNaffinity_variance>
0.2203517854

$$$$
[H]c1nc2c([H])c(OC([H])([H])C([H])([H])C([H])([H])N3C([H])([H])C([H])([H])C3([H])[H])c(OC([H])([H])[H])c([H])c2c(N([H])c2c([H])nc(N3C([H])([H])C([H])([H])N(C4([H])C([H])([H])C([H])([H])N(C([H])([H])[H])C([H])([H])C4([H])[H])C([H])([H])C3([H])[H])c([H])c2[H])c1C#N


 43 48  0  0  0  0  0  0  0  0999 V2000
    4.7208    3.0909   20.0780 C   0  0  0  0  0  0  0  0  0  0  0  0
    4.0388    2.2316   20.9268 C   0  0  0  0  0  0  0  0  0  0  0  0
    3.7892    2.6516   22.2106 C   0  0  0  0  0  0  0  0  0  0  0  0
    4.1967    3.8758   22.6380 N   0  0  0  0  0  0  0  0  0  0  0  0
    4.8569    4.7138   21.8236 C   0  0  0  0  0  0  0  0  0  0  0  0
    5.2133    5.9820   22.2518 C   0  0  0  0  0  0  0  0  0  0  0  0
    5.8426    6.9063   21.4461 C   0  0  0  0  0  0  0  0  0  0  0  0
    6.1139    6.4674   20.1293 C   0  0  0  0  0  0  0  0  0  0  0  0
    5.7739    5.2268   19.6779 C   0  0  0  0  0  0  0  0  0  0  0  0
    5.1372    4.3419   20.5251 C   0  0  0  0  0  0  0  0  0  0  0  0
    4.8826    2.7796   18.7267 N   0  0  0  0  0  0  0  0  0  0  0  0
    5.4805    1.9284   18.4326 H   0  0  0  0  0  0  0  0  0  0  0  0
    2.9634    4.8419   15.5895 C   0  0  0  0  0  0  0  0  0  0  0  0
    2.2985    4.5555   16.7789 C   0  0  0  0  0  0  0  0  0  0  0  0
    2.9449    3.9138   17.7922 C   0  0  0  0  0  0  0  0  0  0  0  0
    4.2930    3.5217   17.6762 C   0  0  0  0  0  0  0  0  0  0  0  0
    4.9159    3.8261   16.4964 C   0  0  0  0  0  0  0  0  0  0  0  0
    4.2680    4.4515   15.5219 N   0  0  0  0  0  0  0  0  0  0  0  0
    1.0940    6.8226   12.3437 N   0  0  0  0  0  0  0  0  0  0  0  0
    1.0676    7.2431   13.7056 C   0  0  0  0  0  0  0  0  0  0  0  0
    2.3754    6.8741   14.3952 C   0  0  0  0  0  0  0  0  0  0  0  0
    2.3120    5.3941   14.4795 N   0  0  0  0  0  0  0  0  0  0  0  0
    1.6436    4.6808   13.4868 C   0  0  0  0  0  0  0  0  0  0  0  0
    1.3561    5.4403   12.2071 C   0  0  0  0  0  0  0  0  0  0  0  0
    5.1077    7.9370    9.0177 C   0  0  0  0  0  0  0  0  0  0  0  0
    3.9542    7.1916    9.4211 N   0  0  0  0  0  0  0  0  0  0  0  0
    3.9663    6.7211   10.7701 C   0  0  0  0  0  0  0  0  0  0  0  0
    3.2800    7.6167   11.7641 C   0  0  0  0  0  0  0  0  0  0  0  0
    1.8005    7.6778   11.4592 C   0  0  0  0  0  0  0  0  0  0  0  0
    1.6628    7.3220    9.9941 C   0  0  0  0  0  0  0  0  0  0  0  0
    2.7998    8.0592    9.2665 C   0  0  0  0  0  0  0  0  0  0  0  0
    6.7595    7.3743   19.3003 O   0  0  0  0  0  0  0  0  0  0  0  0
    8.1370    7.3566   19.0169 C   0  0  0  0  0  0  0  0  0  0  0  0
    3.6033    0.9519   20.4363 C   0  0  0  0  0  0  0  0  0  0  0  0
    3.2546   -0.0838   20.0099 N   0  0  0  0  0  0  0  0  0  0  0  0
    6.2011    8.1820   21.8032 O   0  0  0  0  0  0  0  0  0  0  0  0
    5.3123    9.2465   21.8843 C   0  0  0  0  0  0  0  0  0  0  0  0
    5.5634   10.2704   20.8161 C   0  0  0  0  0  0  0  0  0  0  0  0
    6.6977   11.1762   20.9322 C   0  0  0  0  0  0  0  0  0  0  0  0
    7.0164   11.8958   22.0640 N   0  0  0  0  0  0  0  0  0  0  0  0
    8.2980   11.5618   22.7192 C   0  0  0  0  0  0  0  0  0  0  0  0
    8.0649   12.8420   23.5226 C   0  0  0  0  0  0  0  0  0  0  0  0
    7.3428   13.2414   22.2029 C   0  0  0  0  0  0  0  0  0  0  0  0
 25 26  1  0  0  0
 26 27  1  0  0  0
 27 28  1  0  0  0
 28 29  1  0  0  0
 29 30  1  0  0  0
 30 31  1  0  0  0
 29 19  1  0  0  0
 19 20  1  0  0  0
 20 21  1  0  0  0
 21 22  1  0  0  0
 22 23  1  0  0  0
 23 24  1  0  0  0
 22 13  1  0  0  0
 13 14  2  0  0  0
 14 15  1  0  0  0
 15 16  2  0  0  0
 16 11  1  0  0  0
 11  1  1  0  0  0
  1  2  2  0  0  0
  2  3  1  0  0  0
  3  4  2  0  0  0
  4  5  1  0  0  0
  5  6  2  0  0  0
  6  7  1  0  0  0
  7 36  1  0  0  0
 36 37  1  0  0  0
 37 38  1  0  0  0
 38 39  1  0  0  0
 39 40  1  0  0  0
 40 41  1  0  0  0
 41 42  1  0  0  0
 42 43  1  0  0  0
  7  8  2  0  0  0
  8 32  1  0  0  0
 32 33  1  0  0  0
  8  9  1  0  0  0
  9 10  2  0  0  0
  2 34  1  0  0  0
 34 35  3  0  0  0
 16 17  1  0  0  0
 17 18  2  0  0  0
 31 26  1  0  0  0
 24 19  1  0  0  0
 18 13  1  0  0  0
 10  1  1  0  0  0
 10  5  1  0  0  0
 43 40  1  0  0  0
 11 12  1  0  0  0
M  END
> <minimizedAffinity>
-7.53871

> <CNNscore>
0.2667138875

> <CNNaffinity>
6.8186254501

> <CNN_VS>
1.8186221123

> <CNNaffinity_variance>
0.1701119840

$$$$
[H]c1nc(N([H])[H])c(-c2c([H])c([H])c([H])c(N([H])C(=O)c3c([H])c(C([H])([H])N4C([H])([H])C([H])([H])N(C([H])([H])[H])C([H])([H])C4([H])[H])c([H])c([H])c3Cl)c2[H])nc1-c1c([H])nn(C([H])([H])C([H])([H])[H])c1[H]


 41 45  0  0  0  0  0  0  0  0999 V2000
    4.7306    1.7555   20.0104 C   0  0  0  0  0  0  0  0  0  0  0  0
    5.4685    0.8912   20.8120 C   0  0  0  0  0  0  0  0  0  0  0  0
    6.2608    1.3986   21.8057 C   0  0  0  0  0  0  0  0  0  0  0  0
    6.3763    2.7623   22.0703 C   0  0  0  0  0  0  0  0  0  0  0  0
    5.6493    3.6272   21.2815 C   0  0  0  0  0  0  0  0  0  0  0  0
    4.8389    3.0968   20.2647 C   0  0  0  0  0  0  0  0  0  0  0  0
    3.0542    1.3637   16.7510 C   0  0  0  0  0  0  0  0  0  0  0  0
    2.2655    0.2629   17.0052 C   0  0  0  0  0  0  0  0  0  0  0  0
    2.2570   -0.3632   18.1935 N   0  0  0  0  0  0  0  0  0  0  0  0
    3.0720    0.1307   19.1728 C   0  0  0  0  0  0  0  0  0  0  0  0
    3.0663   -0.5100   20.4392 N   0  0  0  0  0  0  0  0  0  0  0  0
    3.8671    1.2222   18.9502 C   0  0  0  0  0  0  0  0  0  0  0  0
    3.8340    1.8179   17.7225 N   0  0  0  0  0  0  0  0  0  0  0  0
    2.8051    0.0277   21.3147 H   0  0  0  0  0  0  0  0  0  0  0  0
    3.3060   -1.4987   20.5809 H   0  0  0  0  0  0  0  0  0  0  0  0
    3.4313    3.3356   13.6954 N   0  0  0  0  0  0  0  0  0  0  0  0
    3.7724    3.0400   14.9845 C   0  0  0  0  0  0  0  0  0  0  0  0
    3.0093    1.9948   15.4254 C   0  0  0  0  0  0  0  0  0  0  0  0
    2.1901    1.6611   14.3621 C   0  0  0  0  0  0  0  0  0  0  0  0
    2.4876    2.4982   13.3531 N   0  0  0  0  0  0  0  0  0  0  0  0
    3.9886    4.1038   11.4419 C   0  0  0  0  0  0  0  0  0  0  0  0
    4.0425    4.3931   12.9135 C   0  0  0  0  0  0  0  0  0  0  0  0
    5.6680    5.0246   21.4022 N   0  0  0  0  0  0  0  0  0  0  0  0
    6.0445    5.9813   20.4511 C   0  0  0  0  0  0  0  0  0  0  0  0
    6.4252    5.6376   19.3112 O   0  0  0  0  0  0  0  0  0  0  0  0
    5.3608    5.4323   22.3513 H   0  0  0  0  0  0  0  0  0  0  0  0
    6.0044    7.4357   20.7632 C   0  0  0  0  0  0  0  0  0  0  0  0
    6.9544    8.0518   21.5411 C   0  0  0  0  0  0  0  0  0  0  0  0
    6.9174    9.3985   21.8308 C   0  0  0  0  0  0  0  0  0  0  0  0
    5.8635   10.1223   21.2969 C   0  0  0  0  0  0  0  0  0  0  0  0
    4.9093    9.5079   20.5169 C   0  0  0  0  0  0  0  0  0  0  0  0
    4.9530    8.1402   20.2265 C   0  0  0  0  0  0  0  0  0  0  0  0
    3.7180    7.4017   19.2293 Cl  0  0  0  0  0  0  0  0  0  0  0  0
    7.9372   10.0749   22.6668 C   0  0  0  0  0  0  0  0  0  0  0  0
    7.6209   10.2020   24.0389 N   0  0  0  0  0  0  0  0  0  0  0  0
    7.1809    9.0448   24.7303 C   0  0  0  0  0  0  0  0  0  0  0  0
    8.4365    8.2565   25.1450 C   0  0  0  0  0  0  0  0  0  0  0  0
    9.1121    9.1042   26.1185 N   0  0  0  0  0  0  0  0  0  0  0  0
   10.0673    8.4052   26.9150 C   0  0  0  0  0  0  0  0  0  0  0  0
    9.6102   10.2646   25.4476 C   0  0  0  0  0  0  0  0  0  0  0  0
    8.4898   11.0140   24.8119 C   0  0  0  0  0  0  0  0  0  0  0  0
 21 22  1  0  0  0
 22 16  1  0  0  0
 16 17  1  0  0  0
 17 18  2  0  0  0
 18 19  1  0  0  0
 19 20  2  0  0  0
 18  7  1  0  0  0
  7  8  2  0  0  0
  8  9  1  0  0  0
  9 10  2  0  0  0
 10 11  1  0  0  0
 10 12  1  0  0  0
 12 13  2  0  0  0
 12  1  1  0  0  0
  1  2  2  0  0  0
  2  3  1  0  0  0
  3  4  2  0  0  0
  4  5  1  0  0  0
  5 23  1  0  0  0
 23 24  1  0  0  0
 24 25  2  0  0  0
 24 27  1  0  0  0
 27 28  2  0  0  0
 28 29  1  0  0  0
 29 34  1  0  0  0
 34 35  1  0  0  0
 35 36  1  0  0  0
 36 37  1  0  0  0
 37 38  1  0  0  0
 38 39  1  0  0  0
 38 40  1  0  0  0
 40 41  1  0  0  0
 29 30  2  0  0  0
 30 31  1  0  0  0
 31 32  2  0  0  0
 32 33  1  0  0  0
  5  6  2  0  0  0
 20 16  1  0  0  0
 13  7  1  0  0  0
  6  1  1  0  0  0
 32 27  1  0  0  0
 41 35  1  0  0  0
 11 14  1  0  0  0
 11 15  1  0  0  0
 23 26  1  0  0  0
M  END
> <minimizedAffinity>
-10.19564

> <CNNscore>
0.6613630652

> <CNNaffinity>
7.4944152832

> <CNN_VS>
4.9565296173

> <CNNaffinity_variance>
0.1662964821

$$$$
[H]c1nc(N([H])[H])c(-c2c([H])c([H])c([H])c(N([H])C(=O)c3c([H])c(C([H])([H])N4C([H])([H])C([H])([H])N(C([H])([H])[H])C([H])([H])C4([H])[H])c([H])c([H])c3Cl)c2[H])nc1-c1c([H])nn(C([H])([H])C([H])([H])[H])c1[H]


 41 45  0  0  0  0  0  0  0  0999 V2000
    4.7431    1.9766   19.9301 C   0  0  0  0  0  0  0  0  0  0  0  0
    5.2756    1.1288   20.8955 C   0  0  0  0  0  0  0  0  0  0  0  0
    6.0265    1.6490   21.9145 C   0  0  0  0  0  0  0  0  0  0  0  0
    6.2970    3.0099   22.0474 C   0  0  0  0  0  0  0  0  0  0  0  0
    5.7741    3.8584   21.0958 C   0  0  0  0  0  0  0  0  0  0  0  0
    5.0045    3.3151   20.0544 C   0  0  0  0  0  0  0  0  0  0  0  0
    3.1703    1.5766   16.6206 C   0  0  0  0  0  0  0  0  0  0  0  0
    2.4062    0.4511   16.8402 C   0  0  0  0  0  0  0  0  0  0  0  0
    2.3824   -0.1890   18.0207 N   0  0  0  0  0  0  0  0  0  0  0  0
    3.1553    0.3159   19.0281 C   0  0  0  0  0  0  0  0  0  0  0  0
    3.1324   -0.3396   20.2866 N   0  0  0  0  0  0  0  0  0  0  0  0
    3.9251    1.4319   18.8401 C   0  0  0  0  0  0  0  0  0  0  0  0
    3.9094    2.0409   17.6186 N   0  0  0  0  0  0  0  0  0  0  0  0
    2.8316    0.1802   21.1603 H   0  0  0  0  0  0  0  0  0  0  0  0
    3.3960   -1.3228   20.4241 H   0  0  0  0  0  0  0  0  0  0  0  0
    3.4890    3.6578   13.6315 N   0  0  0  0  0  0  0  0  0  0  0  0
    3.7484    3.3960   14.9467 C   0  0  0  0  0  0  0  0  0  0  0  0
    3.1446    2.2218   15.3012 C   0  0  0  0  0  0  0  0  0  0  0  0
    2.5073    1.7742   14.1581 C   0  0  0  0  0  0  0  0  0  0  0  0
    2.7487    2.6751   13.1899 N   0  0  0  0  0  0  0  0  0  0  0  0
    4.6916    4.4538   11.6569 C   0  0  0  0  0  0  0  0  0  0  0  0
    3.9757    4.8255   12.9225 C   0  0  0  0  0  0  0  0  0  0  0  0
    5.9679    5.2475   21.0721 N   0  0  0  0  0  0  0  0  0  0  0  0
    5.1423    6.2562   21.5845 C   0  0  0  0  0  0  0  0  0  0  0  0
    4.0695    5.9760   22.1615 O   0  0  0  0  0  0  0  0  0  0  0  0
    6.8649    5.6026   20.5919 H   0  0  0  0  0  0  0  0  0  0  0  0
    5.5123    7.6922   21.4603 C   0  0  0  0  0  0  0  0  0  0  0  0
    4.8518    8.5565   20.6213 C   0  0  0  0  0  0  0  0  0  0  0  0
    5.1945    9.8861   20.5057 C   0  0  0  0  0  0  0  0  0  0  0  0
    6.2527   10.3272   21.2837 C   0  0  0  0  0  0  0  0  0  0  0  0
    6.9172    9.4635   22.1257 C   0  0  0  0  0  0  0  0  0  0  0  0
    6.5640    8.1147   22.2384 C   0  0  0  0  0  0  0  0  0  0  0  0
    7.4370    7.0532   23.3229 Cl  0  0  0  0  0  0  0  0  0  0  0  0
    4.4885   10.8287   19.6059 C   0  0  0  0  0  0  0  0  0  0  0  0
    3.5722   10.2447   18.7012 N   0  0  0  0  0  0  0  0  0  0  0  0
    2.3703   10.9451   18.4266 C   0  0  0  0  0  0  0  0  0  0  0  0
    2.6905   11.9939   17.3460 C   0  0  0  0  0  0  0  0  0  0  0  0
    3.0169   11.2225   16.1539 N   0  0  0  0  0  0  0  0  0  0  0  0
    2.9547   11.9843   14.9493 C   0  0  0  0  0  0  0  0  0  0  0  0
    4.2505   10.5347   16.3772 C   0  0  0  0  0  0  0  0  0  0  0  0
    4.1297    9.6268   17.5527 C   0  0  0  0  0  0  0  0  0  0  0  0
 21 22  1  0  0  0
 22 16  1  0  0  0
 16 17  1  0  0  0
 17 18  2  0  0  0
 18 19  1  0  0  0
 19 20  2  0  0  0
 18  7  1  0  0  0
  7  8  2  0  0  0
  8  9  1  0  0  0
  9 10  2  0  0  0
 10 11  1  0  0  0
 10 12  1  0  0  0
 12 13  2  0  0  0
 12  1  1  0  0  0
  1  2  2  0  0  0
  2  3  1  0  0  0
  3  4  2  0  0  0
  4  5  1  0  0  0
  5 23  1  0  0  0
 23 24  1  0  0  0
 24 25  2  0  0  0
 24 27  1  0  0  0
 27 28  2  0  0  0
 28 29  1  0  0  0
 29 34  1  0  0  0
 34 35  1  0  0  0
 35 36  1  0  0  0
 36 37  1  0  0  0
 37 38  1  0  0  0
 38 39  1  0  0  0
 38 40  1  0  0  0
 40 41  1  0  0  0
 29 30  2  0  0  0
 30 31  1  0  0  0
 31 32  2  0  0  0
 32 33  1  0  0  0
  5  6  2  0  0  0
 20 16  1  0  0  0
 13  7  1  0  0  0
  6  1  1  0  0  0
 32 27  1  0  0  0
 41 35  1  0  0  0
 11 14  1  0  0  0
 11 15  1  0  0  0
 23 26  1  0  0  0
M  END
> <minimizedAffinity>
-10.78806

> <CNNscore>
0.6214372516

> <CNNaffinity>
7.4962282181

> <CNN_VS>
4.6584353447

> <CNNaffinity_variance>
0.2400046140

$$$$
[H]c1nc(N([H])[H])c(-c2c([H])c([H])c([H])c(N([H])C(=O)c3c([H])c(C([H])([H])N4C([H])([H])C([H])([H])N(C([H])([H])[H])C([H])([H])C4([H])[H])c([H])c([H])c3Cl)c2[H])nc1-c1c([H])nn(C([H])([H])C([H])([H])[H])c1[H]


 41 45  0  0  0  0  0  0  0  0999 V2000
    2.2477    3.9076   14.5186 C   0  0  0  0  0  0  0  0  0  0  0  0
    2.4391    2.6737   13.9063 C   0  0  0  0  0  0  0  0  0  0  0  0
    2.9649    1.6346   14.6252 C   0  0  0  0  0  0  0  0  0  0  0  0
    3.3293    1.7399   15.9665 C   0  0  0  0  0  0  0  0  0  0  0  0
    3.1438    2.9586   16.5823 C   0  0  0  0  0  0  0  0  0  0  0  0
    2.6032    4.0184   15.8364 C   0  0  0  0  0  0  0  0  0  0  0  0
   -0.2252    6.2162   13.0550 C   0  0  0  0  0  0  0  0  0  0  0  0
    0.6058    7.0624   12.3535 C   0  0  0  0  0  0  0  0  0  0  0  0
    1.9411    6.9176   12.3381 N   0  0  0  0  0  0  0  0  0  0  0  0
    2.4718    5.8822   13.0546 C   0  0  0  0  0  0  0  0  0  0  0  0
    3.8799    5.7056   13.0390 N   0  0  0  0  0  0  0  0  0  0  0  0
    1.6722    5.0255   13.7616 C   0  0  0  0  0  0  0  0  0  0  0  0
    0.3215    5.2215   13.7403 N   0  0  0  0  0  0  0  0  0  0  0  0
    4.3065    4.8014   12.6865 H   0  0  0  0  0  0  0  0  0  0  0  0
    4.5490    6.4173   13.3567 H   0  0  0  0  0  0  0  0  0  0  0  0
   -3.8249    6.3676   12.4331 N   0  0  0  0  0  0  0  0  0  0  0  0
   -2.5697    5.9268   12.1243 C   0  0  0  0  0  0  0  0  0  0  0  0
   -1.6768    6.4389   13.0241 C   0  0  0  0  0  0  0  0  0  0  0  0
   -2.4287    7.2077   13.8939 C   0  0  0  0  0  0  0  0  0  0  0  0
   -3.7086    7.1274   13.4905 N   0  0  0  0  0  0  0  0  0  0  0  0
   -5.2978    4.5450   11.7346 C   0  0  0  0  0  0  0  0  0  0  0  0
   -5.0174    6.0186   11.6852 C   0  0  0  0  0  0  0  0  0  0  0  0
    3.4756    3.2373   17.9165 N   0  0  0  0  0  0  0  0  0  0  0  0
    4.2426    2.4748   18.8063 C   0  0  0  0  0  0  0  0  0  0  0  0
    4.7441    1.3863   18.4513 O   0  0  0  0  0  0  0  0  0  0  0  0
    3.0896    4.1549   18.3293 H   0  0  0  0  0  0  0  0  0  0  0  0
    4.4868    2.9324   20.2011 C   0  0  0  0  0  0  0  0  0  0  0  0
    5.1338    4.1091   20.4910 C   0  0  0  0  0  0  0  0  0  0  0  0
    5.3606    4.5329   21.7824 C   0  0  0  0  0  0  0  0  0  0  0  0
    4.9020    3.7099   22.7983 C   0  0  0  0  0  0  0  0  0  0  0  0
    4.2532    2.5297   22.5113 C   0  0  0  0  0  0  0  0  0  0  0  0
    4.0261    2.1054   21.1978 C   0  0  0  0  0  0  0  0  0  0  0  0
    3.1959    0.5970   20.8802 Cl  0  0  0  0  0  0  0  0  0  0  0  0
    6.0553    5.8009   22.1080 C   0  0  0  0  0  0  0  0  0  0  0  0
    7.3660    5.9327   21.5943 N   0  0  0  0  0  0  0  0  0  0  0  0
    7.6376    7.0294   20.7374 C   0  0  0  0  0  0  0  0  0  0  0  0
    7.9209    8.2488   21.6333 C   0  0  0  0  0  0  0  0  0  0  0  0
    9.1626    7.9303   22.3257 N   0  0  0  0  0  0  0  0  0  0  0  0
    9.8057    9.0706   22.8928 C   0  0  0  0  0  0  0  0  0  0  0  0
    8.9170    6.8541   23.2347 C   0  0  0  0  0  0  0  0  0  0  0  0
    8.4254    5.6568   22.4960 C   0  0  0  0  0  0  0  0  0  0  0  0
 21 22  1  0  0  0
 22 16  1  0  0  0
 16 17  1  0  0  0
 17 18  2  0  0  0
 18 19  1  0  0  0
 19 20  2  0  0  0
 18  7  1  0  0  0
  7  8  2  0  0  0
  8  9  1  0  0  0
  9 10  2  0  0  0
 10 11  1  0  0  0
 10 12  1  0  0  0
 12 13  2  0  0  0
 12  1  1  0  0  0
  1  2  2  0  0  0
  2  3  1  0  0  0
  3  4  2  0  0  0
  4  5  1  0  0  0
  5 23  1  0  0  0
 23 24  1  0  0  0
 24 25  2  0  0  0
 24 27  1  0  0  0
 27 28  2  0  0  0
 28 29  1  0  0  0
 29 34  1  0  0  0
 34 35  1  0  0  0
 35 36  1  0  0  0
 36 37  1  0  0  0
 37 38  1  0  0  0
 38 39  1  0  0  0
 38 40  1  0  0  0
 40 41  1  0  0  0
 29 30  2  0  0  0
 30 31  1  0  0  0
 31 32  2  0  0  0
 32 33  1  0  0  0
  5  6  2  0  0  0
 20 16  1  0  0  0
 13  7  1  0  0  0
  6  1  1  0  0  0
 32 27  1  0  0  0
 41 35  1  0  0  0
 11 14  1  0  0  0
 11 15  1  0  0  0
 23 26  1  0  0  0
M  END
> <minimizedAffinity>
-9.67203

> <CNNscore>
0.1680875123

> <CNNaffinity>
6.7295885086

> <CNN_VS>
1.1311597824

> <CNNaffinity_variance>
0.0425268784

$$$$
[H]c1nc(N([H])[H])c(-c2c([H])c([H])c([H])c(N([H])C(=O)c3c([H])c(C([H])([H])N4C([H])([H])C([H])([H])N(C([H])([H])[H])C([H])([H])C4([H])[H])c([H])c([H])c3Cl)c2[H])nc1-c1c([H])nn(C([H])([H])C([H])([H])[H])c1[H]


 41 45  0  0  0  0  0  0  0  0999 V2000
    5.4991    3.9008   21.5048 C   0  0  0  0  0  0  0  0  0  0  0  0
    5.0004    2.9836   22.4236 C   0  0  0  0  0  0  0  0  0  0  0  0
    4.2662    1.9153   21.9847 C   0  0  0  0  0  0  0  0  0  0  0  0
    3.9807    1.6845   20.6400 C   0  0  0  0  0  0  0  0  0  0  0  0
    4.4701    2.5877   19.7216 C   0  0  0  0  0  0  0  0  0  0  0  0
    5.2227    3.6803   20.1818 C   0  0  0  0  0  0  0  0  0  0  0  0
    8.3743    5.9060   22.6445 C   0  0  0  0  0  0  0  0  0  0  0  0
    7.7697    7.1308   22.8266 C   0  0  0  0  0  0  0  0  0  0  0  0
    6.4635    7.3358   22.5906 N   0  0  0  0  0  0  0  0  0  0  0  0
    5.7266    6.2715   22.1531 C   0  0  0  0  0  0  0  0  0  0  0  0
    4.3417    6.4662   21.9114 N   0  0  0  0  0  0  0  0  0  0  0  0
    6.2990    5.0430   21.9625 C   0  0  0  0  0  0  0  0  0  0  0  0
    7.6313    4.8937   22.2188 N   0  0  0  0  0  0  0  0  0  0  0  0
    3.6172    5.8971   22.4359 H   0  0  0  0  0  0  0  0  0  0  0  0
    3.9689    7.1460   21.2376 H   0  0  0  0  0  0  0  0  0  0  0  0
   11.7846    5.7717   23.9558 N   0  0  0  0  0  0  0  0  0  0  0  0
   10.4527    6.0390   24.0968 C   0  0  0  0  0  0  0  0  0  0  0  0
    9.8090    5.7593   22.9236 C   0  0  0  0  0  0  0  0  0  0  0  0
   10.7925    5.3117   22.0602 C   0  0  0  0  0  0  0  0  0  0  0  0
   11.9557    5.3406   22.7335 N   0  0  0  0  0  0  0  0  0  0  0  0
   12.2593    6.8501   26.0983 C   0  0  0  0  0  0  0  0  0  0  0  0
   12.7675    5.9549   25.0063 C   0  0  0  0  0  0  0  0  0  0  0  0
    4.2573    2.5129   18.3371 N   0  0  0  0  0  0  0  0  0  0  0  0
    3.5295    3.3817   17.5142 C   0  0  0  0  0  0  0  0  0  0  0  0
    2.9618    4.3895   17.9882 O   0  0  0  0  0  0  0  0  0  0  0  0
    4.7011    1.6756   17.8240 H   0  0  0  0  0  0  0  0  0  0  0  0
    3.4070    3.1365   16.0517 C   0  0  0  0  0  0  0  0  0  0  0  0
    3.7914    4.0616   15.1117 C   0  0  0  0  0  0  0  0  0  0  0  0
    3.6777    3.8351   13.7572 C   0  0  0  0  0  0  0  0  0  0  0  0
    3.1497    2.6136   13.3715 C   0  0  0  0  0  0  0  0  0  0  0  0
    2.7632    1.6840   14.3111 C   0  0  0  0  0  0  0  0  0  0  0  0
    2.8816    1.9203   15.6847 C   0  0  0  0  0  0  0  0  0  0  0  0
    2.3776    0.7085   16.8435 Cl  0  0  0  0  0  0  0  0  0  0  0  0
    4.0907    4.8241   12.7337 C   0  0  0  0  0  0  0  0  0  0  0  0
    3.4888    6.0995   12.8336 N   0  0  0  0  0  0  0  0  0  0  0  0
    4.2509    7.2279   12.4378 C   0  0  0  0  0  0  0  0  0  0  0  0
    4.1289    7.3465   10.9077 C   0  0  0  0  0  0  0  0  0  0  0  0
    2.7295    7.6694   10.6629 N   0  0  0  0  0  0  0  0  0  0  0  0
    2.4894    8.2083    9.3638 C   0  0  0  0  0  0  0  0  0  0  0  0
    1.9304    6.5354   11.0096 C   0  0  0  0  0  0  0  0  0  0  0  0
    2.1275    6.1846   12.4445 C   0  0  0  0  0  0  0  0  0  0  0  0
 21 22  1  0  0  0
 22 16  1  0  0  0
 16 17  1  0  0  0
 17 18  2  0  0  0
 18 19  1  0  0  0
 19 20  2  0  0  0
 18  7  1  0  0  0
  7  8  2  0  0  0
  8  9  1  0  0  0
  9 10  2  0  0  0
 10 11  1  0  0  0
 10 12  1  0  0  0
 12 13  2  0  0  0
 12  1  1  0  0  0
  1  2  2  0  0  0
  2  3  1  0  0  0
  3  4  2  0  0  0
  4  5  1  0  0  0
  5 23  1  0  0  0
 23 24  1  0  0  0
 24 25  2  0  0  0
 24 27  1  0  0  0
 27 28  2  0  0  0
 28 29  1  0  0  0
 29 34  1  0  0  0
 34 35  1  0  0  0
 35 36  1  0  0  0
 36 37  1  0  0  0
 37 38  1  0  0  0
 38 39  1  0  0  0
 38 40  1  0  0  0
 40 41  1  0  0  0
 29 30  2  0  0  0
 30 31  1  0  0  0
 31 32  2  0  0  0
 32 33  1  0  0  0
  5  6  2  0  0  0
 20 16  1  0  0  0
 13  7  1  0  0  0
  6  1  1  0  0  0
 32 27  1  0  0  0
 41 35  1  0  0  0
 11 14  1  0  0  0
 11 15  1  0  0  0
 23 26  1  0  0  0
M  END
> <minimizedAffinity>
-9.89295

> <CNNscore>
0.1387446076

> <CNNaffinity>
6.7210631371

> <CNN_VS>
0.9325112700

> <CNNaffinity_variance>
0.0453353971

$$$$
[H]c1nc(N([H])[H])c(-c2c([H])c([H])c([H])c(N([H])C(=O)c3c([H])c(C([H])([H])N4C([H])([H])C([H])([H])N(C([H])([H])[H])C([H])([H])C4([H])[H])c([H])c([H])c3Cl)c2[H])nc1-c1c([H])nn(C([H])([H])C([H])([H])[H])c1[H]


 41 45  0  0  0  0  0  0  0  0999 V2000
    5.4516    5.1439   21.4622 C   0  0  0  0  0  0  0  0  0  0  0  0
    5.2357    4.2716   22.5236 C   0  0  0  0  0  0  0  0  0  0  0  0
    4.5618    3.0996   22.3114 C   0  0  0  0  0  0  0  0  0  0  0  0
    4.0664    2.7171   21.0658 C   0  0  0  0  0  0  0  0  0  0  0  0
    4.2749    3.5747   20.0076 C   0  0  0  0  0  0  0  0  0  0  0  0
    4.9678    4.7746   20.2354 C   0  0  0  0  0  0  0  0  0  0  0  0
    6.3683    8.7110   21.3130 C   0  0  0  0  0  0  0  0  0  0  0  0
    7.5382    8.7001   22.0409 C   0  0  0  0  0  0  0  0  0  0  0  0
    8.0429    7.5801   22.5840 N   0  0  0  0  0  0  0  0  0  0  0  0
    7.3496    6.4182   22.3927 C   0  0  0  0  0  0  0  0  0  0  0  0
    7.8749    5.2224   22.9479 N   0  0  0  0  0  0  0  0  0  0  0  0
    6.1845    6.3975   21.6749 C   0  0  0  0  0  0  0  0  0  0  0  0
    5.7195    7.5668   21.1460 N   0  0  0  0  0  0  0  0  0  0  0  0
    8.1148    4.3984   22.3255 H   0  0  0  0  0  0  0  0  0  0  0  0
    8.0491    5.0860   23.9510 H   0  0  0  0  0  0  0  0  0  0  0  0
    4.6312   11.4868   19.6867 N   0  0  0  0  0  0  0  0  0  0  0  0
    4.7310   10.1694   20.0328 C   0  0  0  0  0  0  0  0  0  0  0  0
    5.8788    9.9763   20.7500 C   0  0  0  0  0  0  0  0  0  0  0  0
    6.4775   11.2206   20.8309 C   0  0  0  0  0  0  0  0  0  0  0  0
    5.6848   12.0865   20.1758 N   0  0  0  0  0  0  0  0  0  0  0  0
    2.5681   10.9892   18.4721 C   0  0  0  0  0  0  0  0  0  0  0  0
    3.5348   12.0463   18.9197 C   0  0  0  0  0  0  0  0  0  0  0  0
    3.8254    3.3503   18.6979 N   0  0  0  0  0  0  0  0  0  0  0  0
    4.3942    2.5465   17.7019 C   0  0  0  0  0  0  0  0  0  0  0  0
    5.4420    1.9006   17.9193 O   0  0  0  0  0  0  0  0  0  0  0  0
    2.9262    3.8644   18.4004 H   0  0  0  0  0  0  0  0  0  0  0  0
    3.7729    2.4335   16.3545 C   0  0  0  0  0  0  0  0  0  0  0  0
    3.9939    3.3534   15.3585 C   0  0  0  0  0  0  0  0  0  0  0  0
    3.4183    3.2494   14.1108 C   0  0  0  0  0  0  0  0  0  0  0  0
    2.5908    2.1594   13.8948 C   0  0  0  0  0  0  0  0  0  0  0  0
    2.3670    1.2354   14.8910 C   0  0  0  0  0  0  0  0  0  0  0  0
    2.9547    1.3469   16.1555 C   0  0  0  0  0  0  0  0  0  0  0  0
    2.6418    0.1474   17.3918 Cl  0  0  0  0  0  0  0  0  0  0  0  0
    3.6506    4.2340   13.0276 C   0  0  0  0  0  0  0  0  0  0  0  0
    3.0095    5.4841   13.1859 N   0  0  0  0  0  0  0  0  0  0  0  0
    3.8027    6.6556   13.0892 C   0  0  0  0  0  0  0  0  0  0  0  0
    3.9551    6.9807   11.5922 C   0  0  0  0  0  0  0  0  0  0  0  0
    2.6151    7.3342   11.1427 N   0  0  0  0  0  0  0  0  0  0  0  0
    2.5995    8.0443    9.9054 C   0  0  0  0  0  0  0  0  0  0  0  0
    1.7945    6.1638   11.1841 C   0  0  0  0  0  0  0  0  0  0  0  0
    1.7388    5.6215   12.5711 C   0  0  0  0  0  0  0  0  0  0  0  0
 21 22  1  0  0  0
 22 16  1  0  0  0
 16 17  1  0  0  0
 17 18  2  0  0  0
 18 19  1  0  0  0
 19 20  2  0  0  0
 18  7  1  0  0  0
  7  8  2  0  0  0
  8  9  1  0  0  0
  9 10  2  0  0  0
 10 11  1  0  0  0
 10 12  1  0  0  0
 12 13  2  0  0  0
 12  1  1  0  0  0
  1  2  2  0  0  0
  2  3  1  0  0  0
  3  4  2  0  0  0
  4  5  1  0  0  0
  5 23  1  0  0  0
 23 24  1  0  0  0
 24 25  2  0  0  0
 24 27  1  0  0  0
 27 28  2  0  0  0
 28 29  1  0  0  0
 29 34  1  0  0  0
 34 35  1  0  0  0
 35 36  1  0  0  0
 36 37  1  0  0  0
 37 38  1  0  0  0
 38 39  1  0  0  0
 38 40  1  0  0  0
 40 41  1  0  0  0
 29 30  2  0  0  0
 30 31  1  0  0  0
 31 32  2  0  0  0
 32 33  1  0  0  0
  5  6  2  0  0  0
 20 16  1  0  0  0
 13  7  1  0  0  0
  6  1  1  0  0  0
 32 27  1  0  0  0
 41 35  1  0  0  0
 11 14  1  0  0  0
 11 15  1  0  0  0
 23 26  1  0  0  0
M  END
> <minimizedAffinity>
-9.13215

> <CNNscore>
0.1235757321

> <CNNaffinity>
6.5490350723

> <CNN_VS>
0.8093017936

> <CNNaffinity_variance>
0.1243423447

$$$$
[H]c1nc(N([H])[H])c(-c2c([H])c([H])c([H])c(N([H])C(=O)c3c([H])c(C([H])([H])N4C([H])([H])C([H])([H])N(C([H])([H])[H])C([H])([H])C4([H])[H])c([H])c([H])c3Cl)c2[H])nc1-c1c([H])nn(C([H])([H])C([H])([H])[H])c1[H]


 41 45  0  0  0  0  0  0  0  0999 V2000
    2.7346    3.9439   14.3014 C   0  0  0  0  0  0  0  0  0  0  0  0
    2.2580    2.7864   13.6954 C   0  0  0  0  0  0  0  0  0  0  0  0
    2.1379    1.6374   14.4290 C   0  0  0  0  0  0  0  0  0  0  0  0
    2.4723    1.5541   15.7797 C   0  0  0  0  0  0  0  0  0  0  0  0
    2.9458    2.6955   16.3894 C   0  0  0  0  0  0  0  0  0  0  0  0
    3.0650    3.8696   15.6283 C   0  0  0  0  0  0  0  0  0  0  0  0
    3.9717    6.4340   11.8815 C   0  0  0  0  0  0  0  0  0  0  0  0
    3.0979    7.4722   12.1208 C   0  0  0  0  0  0  0  0  0  0  0  0
    2.1172    7.3972   13.0355 N   0  0  0  0  0  0  0  0  0  0  0  0
    2.0025    6.2342   13.7438 C   0  0  0  0  0  0  0  0  0  0  0  0
    0.9805    6.1418   14.7241 N   0  0  0  0  0  0  0  0  0  0  0  0
    2.8551    5.1855   13.5282 C   0  0  0  0  0  0  0  0  0  0  0  0
    3.8333    5.3190   12.5855 N   0  0  0  0  0  0  0  0  0  0  0  0
    1.2218    5.9535   15.7391 H   0  0  0  0  0  0  0  0  0  0  0  0
   -0.0203    6.2478   14.5185 H   0  0  0  0  0  0  0  0  0  0  0  0
    6.3634    6.2220    9.1242 N   0  0  0  0  0  0  0  0  0  0  0  0
    5.3293    5.7165    9.8595 C   0  0  0  0  0  0  0  0  0  0  0  0
    5.0193    6.5907   10.8638 C   0  0  0  0  0  0  0  0  0  0  0  0
    5.8987    7.6482   10.7178 C   0  0  0  0  0  0  0  0  0  0  0  0
    6.6801    7.3720    9.6592 N   0  0  0  0  0  0  0  0  0  0  0  0
    6.6499    6.2754    6.6965 C   0  0  0  0  0  0  0  0  0  0  0  0
    6.9501    5.5546    7.9781 C   0  0  0  0  0  0  0  0  0  0  0  0
    3.3445    2.7766   17.7319 N   0  0  0  0  0  0  0  0  0  0  0  0
    4.2163    1.9391   18.4391 C   0  0  0  0  0  0  0  0  0  0  0  0
    4.7642    0.9645   17.8803 O   0  0  0  0  0  0  0  0  0  0  0  0
    2.9265    3.5823   18.3128 H   0  0  0  0  0  0  0  0  0  0  0  0
    4.5198    2.1795   19.8759 C   0  0  0  0  0  0  0  0  0  0  0  0
    5.3408    3.1967   20.2984 C   0  0  0  0  0  0  0  0  0  0  0  0
    5.6226    3.4194   21.6287 C   0  0  0  0  0  0  0  0  0  0  0  0
    5.0345    2.5603   22.5429 C   0  0  0  0  0  0  0  0  0  0  0  0
    4.2111    1.5395   22.1229 C   0  0  0  0  0  0  0  0  0  0  0  0
    3.9291    1.3191   20.7706 C   0  0  0  0  0  0  0  0  0  0  0  0
    2.8756    0.0087   20.2827 Cl  0  0  0  0  0  0  0  0  0  0  0  0
    6.5048    4.5143   22.0970 C   0  0  0  0  0  0  0  0  0  0  0  0
    5.8544    5.7196   22.4481 N   0  0  0  0  0  0  0  0  0  0  0  0
    6.6542    6.8734   22.6484 C   0  0  0  0  0  0  0  0  0  0  0  0
    6.9281    7.4845   21.2622 C   0  0  0  0  0  0  0  0  0  0  0  0
    5.6294    7.9426   20.7866 N   0  0  0  0  0  0  0  0  0  0  0  0
    5.7153    8.8829   19.7170 C   0  0  0  0  0  0  0  0  0  0  0  0
    4.8069    6.8014   20.5303 C   0  0  0  0  0  0  0  0  0  0  0  0
    4.6380    5.9974   21.7737 C   0  0  0  0  0  0  0  0  0  0  0  0
 21 22  1  0  0  0
 22 16  1  0  0  0
 16 17  1  0  0  0
 17 18  2  0  0  0
 18 19  1  0  0  0
 19 20  2  0  0  0
 18  7  1  0  0  0
  7  8  2  0  0  0
  8  9  1  0  0  0
  9 10  2  0  0  0
 10 11  1  0  0  0
 10 12  1  0  0  0
 12 13  2  0  0  0
 12  1  1  0  0  0
  1  2  2  0  0  0
  2  3  1  0  0  0
  3  4  2  0  0  0
  4  5  1  0  0  0
  5 23  1  0  0  0
 23 24  1  0  0  0
 24 25  2  0  0  0
 24 27  1  0  0  0
 27 28  2  0  0  0
 28 29  1  0  0  0
 29 34  1  0  0  0
 34 35  1  0  0  0
 35 36  1  0  0  0
 36 37  1  0  0  0
 37 38  1  0  0  0
 38 39  1  0  0  0
 38 40  1  0  0  0
 40 41  1  0  0  0
 29 30  2  0  0  0
 30 31  1  0  0  0
 31 32  2  0  0  0
 32 33  1  0  0  0
  5  6  2  0  0  0
 20 16  1  0  0  0
 13  7  1  0  0  0
  6  1  1  0  0  0
 32 27  1  0  0  0
 41 35  1  0  0  0
 11 14  1  0  0  0
 11 15  1  0  0  0
 23 26  1  0  0  0
M  END
> <minimizedAffinity>
-8.55326

> <CNNscore>
0.0949790701

> <CNNaffinity>
6.7790617943

> <CNN_VS>
0.6438689828

> <CNNaffinity_variance>
0.0455349274

$$$$
[H]c1nc(N([H])[H])c(-c2c([H])c([H])c([H])c(N([H])C(=O)c3c([H])c(C([H])([H])N4C([H])([H])C([H])([H])N(C([H])([H])[H])C([H])([H])C4([H])[H])c([H])c([H])c3Cl)c2[H])nc1-c1c([H])nn(C([H])([H])C([H])([H])[H])c1[H]


 41 45  0  0  0  0  0  0  0  0999 V2000
    5.5599    4.1561   21.6283 C   0  0  0  0  0  0  0  0  0  0  0  0
    5.2217    3.1512   22.5283 C   0  0  0  0  0  0  0  0  0  0  0  0
    4.4407    2.1061   22.1152 C   0  0  0  0  0  0  0  0  0  0  0  0
    3.9516    1.9840   20.8156 C   0  0  0  0  0  0  0  0  0  0  0  0
    4.2808    2.9747   19.9163 C   0  0  0  0  0  0  0  0  0  0  0  0
    5.0830    4.0427   20.3496 C   0  0  0  0  0  0  0  0  0  0  0  0
    8.5144    6.0636   22.7325 C   0  0  0  0  0  0  0  0  0  0  0  0
    7.9660    7.3206   22.8661 C   0  0  0  0  0  0  0  0  0  0  0  0
    6.6732    7.5779   22.6082 N   0  0  0  0  0  0  0  0  0  0  0  0
    5.8917    6.5346   22.1985 C   0  0  0  0  0  0  0  0  0  0  0  0
    4.5200    6.7850   21.9344 N   0  0  0  0  0  0  0  0  0  0  0  0
    6.4078    5.2750   22.0562 C   0  0  0  0  0  0  0  0  0  0  0  0
    7.7291    5.0729   22.3328 N   0  0  0  0  0  0  0  0  0  0  0  0
    3.7644    6.2686   22.4695 H   0  0  0  0  0  0  0  0  0  0  0  0
    4.1861    7.4579   21.2338 H   0  0  0  0  0  0  0  0  0  0  0  0
   11.9061    5.8368   24.0788 N   0  0  0  0  0  0  0  0  0  0  0  0
   10.5897    6.1831   24.1904 C   0  0  0  0  0  0  0  0  0  0  0  0
    9.9378    5.8600   23.0329 C   0  0  0  0  0  0  0  0  0  0  0  0
   10.9002    5.3042   22.2096 C   0  0  0  0  0  0  0  0  0  0  0  0
   12.0600    5.3164   22.8894 N   0  0  0  0  0  0  0  0  0  0  0  0
   12.2522    6.3353   26.4474 C   0  0  0  0  0  0  0  0  0  0  0  0
   12.8922    6.0375   25.1231 C   0  0  0  0  0  0  0  0  0  0  0  0
    3.8554    3.0132   18.5801 N   0  0  0  0  0  0  0  0  0  0  0  0
    4.2629    2.2104   17.5073 C   0  0  0  0  0  0  0  0  0  0  0  0
    5.1132    1.3084   17.6676 O   0  0  0  0  0  0  0  0  0  0  0  0
    3.1215    3.7609   18.3276 H   0  0  0  0  0  0  0  0  0  0  0  0
    3.6994    2.4024   16.1435 C   0  0  0  0  0  0  0  0  0  0  0  0
    4.0238    3.4786   15.3538 C   0  0  0  0  0  0  0  0  0  0  0  0
    3.5019    3.6571   14.0910 C   0  0  0  0  0  0  0  0  0  0  0  0
    2.6189    2.6898   13.6389 C   0  0  0  0  0  0  0  0  0  0  0  0
    2.2914    1.6097   14.4280 C   0  0  0  0  0  0  0  0  0  0  0  0
    2.8251    1.4346   15.7091 C   0  0  0  0  0  0  0  0  0  0  0  0
    2.3804    0.0449   16.6767 Cl  0  0  0  0  0  0  0  0  0  0  0  0
    3.8456    4.8125   13.2289 C   0  0  0  0  0  0  0  0  0  0  0  0
    2.8355    5.7906   13.0810 N   0  0  0  0  0  0  0  0  0  0  0  0
    2.2624    6.3384   14.2566 C   0  0  0  0  0  0  0  0  0  0  0  0
    3.2022    7.4561   14.7438 C   0  0  0  0  0  0  0  0  0  0  0  0
    3.1322    8.4856   13.7152 N   0  0  0  0  0  0  0  0  0  0  0  0
    3.6059    9.7585   14.1519 C   0  0  0  0  0  0  0  0  0  0  0  0
    3.7425    7.9841   12.5233 C   0  0  0  0  0  0  0  0  0  0  0  0
    3.0384    6.7548   12.0608 C   0  0  0  0  0  0  0  0  0  0  0  0
 21 22  1  0  0  0
 22 16  1  0  0  0
 16 17  1  0  0  0
 17 18  2  0  0  0
 18 19  1  0  0  0
 19 20  2  0  0  0
 18  7  1  0  0  0
  7  8  2  0  0  0
  8  9  1  0  0  0
  9 10  2  0  0  0
 10 11  1  0  0  0
 10 12  1  0  0  0
 12 13  2  0  0  0
 12  1  1  0  0  0
  1  2  2  0  0  0
  2  3  1  0  0  0
  3  4  2  0  0  0
  4  5  1  0  0  0
  5 23  1  0  0  0
 23 24  1  0  0  0
 24 25  2  0  0  0
 24 27  1  0  0  0
 27 28  2  0  0  0
 28 29  1  0  0  0
 29 34  1  0  0  0
 34 35  1  0  0  0
 35 36  1  0  0  0
 36 37  1  0  0  0
 37 38  1  0  0  0
 38 39  1  0  0  0
 38 40  1  0  0  0
 40 41  1  0  0  0
 29 30  2  0  0  0
 30 31  1  0  0  0
 31 32  2  0  0  0
 32 33  1  0  0  0
  5  6  2  0  0  0
 20 16  1  0  0  0
 13  7  1  0  0  0
  6  1  1  0  0  0
 32 27  1  0  0  0
 41 35  1  0  0  0
 11 14  1  0  0  0
 11 15  1  0  0  0
 23 26  1  0  0  0
M  END
> <minimizedAffinity>
-9.95681

> <CNNscore>
0.0923680365

> <CNNaffinity>
6.6395797729

> <CNN_VS>
0.6132849455

> <CNNaffinity_variance>
0.0808242559

$$$$
[H]c1nc(N([H])[H])c(-c2c([H])c([H])c([H])c(N([H])C(=O)c3c([H])c(C([H])([H])N4C([H])([H])C([H])([H])N(C([H])([H])[H])C([H])([H])C4([H])[H])c([H])c([H])c3Cl)c2[H])nc1-c1c([H])nn(C([H])([H])C([H])([H])[H])c1[H]


 41 45  0  0  0  0  0  0  0  0999 V2000
    4.8711    6.7633   20.8588 C   0  0  0  0  0  0  0  0  0  0  0  0
    4.8065    6.0328   22.0405 C   0  0  0  0  0  0  0  0  0  0  0  0
    4.3866    4.7306   22.0102 C   0  0  0  0  0  0  0  0  0  0  0  0
    4.0106    4.0754   20.8387 C   0  0  0  0  0  0  0  0  0  0  0  0
    4.0709    4.7907   19.6624 C   0  0  0  0  0  0  0  0  0  0  0  0
    4.5033    6.1260   19.7038 C   0  0  0  0  0  0  0  0  0  0  0  0
    6.9236    9.7438   21.5592 C   0  0  0  0  0  0  0  0  0  0  0  0
    6.1739   10.7171   20.9353 C   0  0  0  0  0  0  0  0  0  0  0  0
    5.0273   10.4459   20.2905 N   0  0  0  0  0  0  0  0  0  0  0  0
    4.6091    9.1452   20.2667 C   0  0  0  0  0  0  0  0  0  0  0  0
    3.3928    8.8418   19.6015 N   0  0  0  0  0  0  0  0  0  0  0  0
    5.3324    8.1564   20.8769 C   0  0  0  0  0  0  0  0  0  0  0  0
    6.4903    8.4914   21.5175 N   0  0  0  0  0  0  0  0  0  0  0  0
    2.5891    8.3908   20.1256 H   0  0  0  0  0  0  0  0  0  0  0  0
    3.2217    9.0334   18.6070 H   0  0  0  0  0  0  0  0  0  0  0  0
   10.2270   10.0519   23.0956 N   0  0  0  0  0  0  0  0  0  0  0  0
    9.2857    9.3466   22.4014 C   0  0  0  0  0  0  0  0  0  0  0  0
    8.1678   10.1179   22.2444 C   0  0  0  0  0  0  0  0  0  0  0  0
    8.4575   11.3190   22.8660 C   0  0  0  0  0  0  0  0  0  0  0  0
    9.7049   11.2214   23.3578 N   0  0  0  0  0  0  0  0  0  0  0  0
   12.3274    9.1522   22.2251 C   0  0  0  0  0  0  0  0  0  0  0  0
   11.5381    9.5379   23.4419 C   0  0  0  0  0  0  0  0  0  0  0  0
    3.7099    4.2883   18.4035 N   0  0  0  0  0  0  0  0  0  0  0  0
    4.5401    3.8593   17.3603 C   0  0  0  0  0  0  0  0  0  0  0  0
    5.7843    3.8872   17.4775 O   0  0  0  0  0  0  0  0  0  0  0  0
    2.6550    4.2243   18.1925 H   0  0  0  0  0  0  0  0  0  0  0  0
    3.9720    3.3569   16.0800 C   0  0  0  0  0  0  0  0  0  0  0  0
    3.9407    4.1166   14.9359 C   0  0  0  0  0  0  0  0  0  0  0  0
    3.4143    3.6519   13.7503 C   0  0  0  0  0  0  0  0  0  0  0  0
    2.9069    2.3627   13.7562 C   0  0  0  0  0  0  0  0  0  0  0  0
    2.9365    1.5984   14.9014 C   0  0  0  0  0  0  0  0  0  0  0  0
    3.4726    2.0763   16.1018 C   0  0  0  0  0  0  0  0  0  0  0  0
    3.4896    1.0684   17.5332 Cl  0  0  0  0  0  0  0  0  0  0  0  0
    3.3767    4.4610   12.5091 C   0  0  0  0  0  0  0  0  0  0  0  0
    3.1287    5.8419   12.6832 N   0  0  0  0  0  0  0  0  0  0  0  0
    4.1293    6.7556   12.2649 C   0  0  0  0  0  0  0  0  0  0  0  0
    3.9499    6.9662   10.7505 C   0  0  0  0  0  0  0  0  0  0  0  0
    2.6678    7.6441   10.6112 N   0  0  0  0  0  0  0  0  0  0  0  0
    2.4960    8.2810    9.3462 C   0  0  0  0  0  0  0  0  0  0  0  0
    1.6272    6.7365   10.9830 C   0  0  0  0  0  0  0  0  0  0  0  0
    1.8138    6.2864   12.3914 C   0  0  0  0  0  0  0  0  0  0  0  0
 21 22  1  0  0  0
 22 16  1  0  0  0
 16 17  1  0  0  0
 17 18  2  0  0  0
 18 19  1  0  0  0
 19 20  2  0  0  0
 18  7  1  0  0  0
  7  8  2  0  0  0
  8  9  1  0  0  0
  9 10  2  0  0  0
 10 11  1  0  0  0
 10 12  1  0  0  0
 12 13  2  0  0  0
 12  1  1  0  0  0
  1  2  2  0  0  0
  2  3  1  0  0  0
  3  4  2  0  0  0
  4  5  1  0  0  0
  5 23  1  0  0  0
 23 24  1  0  0  0
 24 25  2  0  0  0
 24 27  1  0  0  0
 27 28  2  0  0  0
 28 29  1  0  0  0
 29 34  1  0  0  0
 34 35  1  0  0  0
 35 36  1  0  0  0
 36 37  1  0  0  0
 37 38  1  0  0  0
 38 39  1  0  0  0
 38 40  1  0  0  0
 40 41  1  0  0  0
 29 30  2  0  0  0
 30 31  1  0  0  0
 31 32  2  0  0  0
 32 33  1  0  0  0
  5  6  2  0  0  0
 20 16  1  0  0  0
 13  7  1  0  0  0
  6  1  1  0  0  0
 32 27  1  0  0  0
 41 35  1  0  0  0
 11 14  1  0  0  0
 11 15  1  0  0  0
 23 26  1  0  0  0
M  END
> <minimizedAffinity>
-8.84698

> <CNNscore>
0.0903131068

> <CNNaffinity>
6.3042173386

> <CNN_VS>
0.5693534613

> <CNNaffinity_variance>
0.0662861690

$$$$
[H]c1nc(N([H])[H])c(-c2c([H])c([H])c([H])c(N([H])C(=O)c3c([H])c(C([H])([H])N4C([H])([H])C([H])([H])N(C([H])([H])[H])C([H])([H])C4([H])[H])c([H])c([H])c3Cl)c2[H])nc1-c1c([H])nn(C([H])([H])C([H])([H])[H])c1[H]


 41 45  0  0  0  0  0  0  0  0999 V2000
    3.6375    1.7791   18.4517 C   0  0  0  0  0  0  0  0  0  0  0  0
    3.5207    0.4580   18.0332 C   0  0  0  0  0  0  0  0  0  0  0  0
    3.0221    0.1828   16.7888 C   0  0  0  0  0  0  0  0  0  0  0  0
    2.6141    1.1699   15.8930 C   0  0  0  0  0  0  0  0  0  0  0  0
    2.7256    2.4822   16.2983 C   0  0  0  0  0  0  0  0  0  0  0  0
    3.2388    2.7543   17.5768 C   0  0  0  0  0  0  0  0  0  0  0  0
    5.3946    3.5385   21.1728 C   0  0  0  0  0  0  0  0  0  0  0  0
    5.2094    2.6481   22.2080 C   0  0  0  0  0  0  0  0  0  0  0  0
    4.5322    1.4975   22.0613 N   0  0  0  0  0  0  0  0  0  0  0  0
    4.0162    1.2221   20.8264 C   0  0  0  0  0  0  0  0  0  0  0  0
    3.3090    0.0045   20.6492 N   0  0  0  0  0  0  0  0  0  0  0  0
    4.1832    2.0870   19.7789 C   0  0  0  0  0  0  0  0  0  0  0  0
    4.8810    3.2416   19.9870 N   0  0  0  0  0  0  0  0  0  0  0  0
    3.6338   -0.7092   19.9357 H   0  0  0  0  0  0  0  0  0  0  0  0
    2.4692   -0.2518   21.1821 H   0  0  0  0  0  0  0  0  0  0  0  0
    6.8239    6.8999   21.3335 N   0  0  0  0  0  0  0  0  0  0  0  0
    5.9033    6.0068   20.8641 C   0  0  0  0  0  0  0  0  0  0  0  0
    6.1469    4.7775   21.4106 C   0  0  0  0  0  0  0  0  0  0  0  0
    7.2477    4.9491   22.2303 C   0  0  0  0  0  0  0  0  0  0  0  0
    7.6099    6.2409   22.1440 N   0  0  0  0  0  0  0  0  0  0  0  0
    8.0518    8.6183   20.1012 C   0  0  0  0  0  0  0  0  0  0  0  0
    6.8630    8.3008   20.9605 C   0  0  0  0  0  0  0  0  0  0  0  0
    2.3426    3.5905   15.5286 N   0  0  0  0  0  0  0  0  0  0  0  0
    2.8316    4.0032   14.2827 C   0  0  0  0  0  0  0  0  0  0  0  0
    3.7279    3.3565   13.6989 O   0  0  0  0  0  0  0  0  0  0  0  0
    1.5746    4.2239   15.9413 H   0  0  0  0  0  0  0  0  0  0  0  0
    2.3027    5.2219   13.6124 C   0  0  0  0  0  0  0  0  0  0  0  0
    2.6508    6.4918   14.0043 C   0  0  0  0  0  0  0  0  0  0  0  0
    2.1609    7.6206   13.3842 C   0  0  0  0  0  0  0  0  0  0  0  0
    1.2855    7.4220   12.3288 C   0  0  0  0  0  0  0  0  0  0  0  0
    0.9343    6.1505   11.9334 C   0  0  0  0  0  0  0  0  0  0  0  0
    1.4355    5.0087   12.5673 C   0  0  0  0  0  0  0  0  0  0  0  0
    0.9615    3.4113   12.0298 Cl  0  0  0  0  0  0  0  0  0  0  0  0
    2.5305    8.9954   13.7963 C   0  0  0  0  0  0  0  0  0  0  0  0
    3.8089    9.1382   14.3829 N   0  0  0  0  0  0  0  0  0  0  0  0
    4.5604   10.2983   14.0664 C   0  0  0  0  0  0  0  0  0  0  0  0
    4.0669   11.4271   14.9896 C   0  0  0  0  0  0  0  0  0  0  0  0
    4.4587   11.0178   16.3318 N   0  0  0  0  0  0  0  0  0  0  0  0
    4.4551   12.0873   17.2760 C   0  0  0  0  0  0  0  0  0  0  0  0
    3.6875    9.8728   16.7048 C   0  0  0  0  0  0  0  0  0  0  0  0
    3.9221    8.7575   15.7445 C   0  0  0  0  0  0  0  0  0  0  0  0
 21 22  1  0  0  0
 22 16  1  0  0  0
 16 17  1  0  0  0
 17 18  2  0  0  0
 18 19  1  0  0  0
 19 20  2  0  0  0
 18  7  1  0  0  0
  7  8  2  0  0  0
  8  9  1  0  0  0
  9 10  2  0  0  0
 10 11  1  0  0  0
 10 12  1  0  0  0
 12 13  2  0  0  0
 12  1  1  0  0  0
  1  2  2  0  0  0
  2  3  1  0  0  0
  3  4  2  0  0  0
  4  5  1  0  0  0
  5 23  1  0  0  0
 23 24  1  0  0  0
 24 25  2  0  0  0
 24 27  1  0  0  0
 27 28  2  0  0  0
 28 29  1  0  0  0
 29 34  1  0  0  0
 34 35  1  0  0  0
 35 36  1  0  0  0
 36 37  1  0  0  0
 37 38  1  0  0  0
 38 39  1  0  0  0
 38 40  1  0  0  0
 40 41  1  0  0  0
 29 30  2  0  0  0
 30 31  1  0  0  0
 31 32  2  0  0  0
 32 33  1  0  0  0
  5  6  2  0  0  0
 20 16  1  0  0  0
 13  7  1  0  0  0
  6  1  1  0  0  0
 32 27  1  0  0  0
 41 35  1  0  0  0
 11 14  1  0  0  0
 11 15  1  0  0  0
 23 26  1  0  0  0
M  END
> <minimizedAffinity>
-8.64736

> <CNNscore>
0.0800562575

> <CNNaffinity>
6.6722779274

> <CNN_VS>
0.5341575742

> <CNNaffinity_variance>
0.1738499999

$$$$
[H]c1c([H])c(C([H])([H])N(C([H])([H])[H])C([H])([H])[H])c([H])c([H])c1N([H])c1nc([H])c2c(=O)c(C([H])(C([H])([H])[H])C([H])([H])[H])c([H])n(-c3c([H])c([H])c4c(c3[H])C([H])([H])C([H])([H])C4([H])[H])c2n1


 35 39  0  0  0  0  0  0  0  0999 V2000
    4.2935    1.8886   21.1435 C   0  0  0  0  0  0  0  0  0  0  0  0
    4.5297    2.9771   20.3366 C   0  0  0  0  0  0  0  0  0  0  0  0
    4.2114    3.0294   19.0318 N   0  0  0  0  0  0  0  0  0  0  0  0
    3.6146    1.9682   18.4115 C   0  0  0  0  0  0  0  0  0  0  0  0
    3.2999    2.0288   17.1074 N   0  0  0  0  0  0  0  0  0  0  0  0
    2.7031    0.9234   16.5568 C   0  0  0  0  0  0  0  0  0  0  0  0
    2.4611   -0.1493   17.3163 N   0  0  0  0  0  0  0  0  0  0  0  0
    2.7536   -0.2518   18.6010 C   0  0  0  0  0  0  0  0  0  0  0  0
    3.3606    0.8559   19.1873 C   0  0  0  0  0  0  0  0  0  0  0  0
    3.6888    0.8047   20.5285 C   0  0  0  0  0  0  0  0  0  0  0  0
    3.4526   -0.2167   21.2297 O   0  0  0  0  0  0  0  0  0  0  0  0
    4.4795    4.1898   18.2341 C   0  0  0  0  0  0  0  0  0  0  0  0
    5.7077    4.8175   18.3039 C   0  0  0  0  0  0  0  0  0  0  0  0
    5.9842    5.9296   17.5487 C   0  0  0  0  0  0  0  0  0  0  0  0
    5.0494    6.4676   16.6890 C   0  0  0  0  0  0  0  0  0  0  0  0
    5.0952    7.6425   15.7771 C   0  0  0  0  0  0  0  0  0  0  0  0
    4.0265    7.3208   14.7739 C   0  0  0  0  0  0  0  0  0  0  0  0
    2.9945    6.6087   15.6261 C   0  0  0  0  0  0  0  0  0  0  0  0
    3.8224    5.8429   16.6173 C   0  0  0  0  0  0  0  0  0  0  0  0
    3.5485    4.7251   17.3783 C   0  0  0  0  0  0  0  0  0  0  0  0
    3.9650    2.9798   23.3139 C   0  0  0  0  0  0  0  0  0  0  0  0
    4.6483    1.8374   22.5857 C   0  0  0  0  0  0  0  0  0  0  0  0
    6.1381    1.8396   22.8113 C   0  0  0  0  0  0  0  0  0  0  0  0
    2.3273    0.9239   15.2013 N   0  0  0  0  0  0  0  0  0  0  0  0
    2.0966   -0.0421   14.8029 H   0  0  0  0  0  0  0  0  0  0  0  0
    2.2059    2.0010   14.3110 C   0  0  0  0  0  0  0  0  0  0  0  0
    3.3145    2.8417   14.1314 C   0  0  0  0  0  0  0  0  0  0  0  0
    3.2823    3.9023   13.2657 C   0  0  0  0  0  0  0  0  0  0  0  0
    2.1654    4.2100   12.5198 C   0  0  0  0  0  0  0  0  0  0  0  0
    1.0706    3.3965   12.6831 C   0  0  0  0  0  0  0  0  0  0  0  0
    1.0950    2.3137   13.5627 C   0  0  0  0  0  0  0  0  0  0  0  0
    2.1496    5.3676   11.5834 C   0  0  0  0  0  0  0  0  0  0  0  0
    1.4133    6.4879   12.1453 N   0  0  0  0  0  0  0  0  0  0  0  0
    2.0599    7.7471   11.8363 C   0  0  0  0  0  0  0  0  0  0  0  0
    0.0586    6.5384   11.6272 C   0  0  0  0  0  0  0  0  0  0  0  0
 21 22  1  0  0  0
 22 23  1  0  0  0
 22  1  1  0  0  0
  1  2  2  0  0  0
  2  3  1  0  0  0
  3 12  1  0  0  0
 12 13  2  0  0  0
 13 14  1  0  0  0
 14 15  2  0  0  0
 15 16  1  0  0  0
 16 17  1  0  0  0
 17 18  1  0  0  0
 18 19  1  0  0  0
 19 20  2  0  0  0
  3  4  1  0  0  0
  4  5  2  0  0  0
  5  6  1  0  0  0
  6 24  1  0  0  0
 24 26  1  0  0  0
 26 27  2  0  0  0
 27 28  1  0  0  0
 28 29  2  0  0  0
 29 32  1  0  0  0
 32 33  1  0  0  0
 33 34  1  0  0  0
 33 35  1  0  0  0
 29 30  1  0  0  0
 30 31  2  0  0  0
  6  7  2  0  0  0
  7  8  1  0  0  0
  8  9  2  0  0  0
  9 10  1  0  0  0
 10 11  2  0  0  0
 10  1  1  0  0  0
 20 12  1  0  0  0
  9  4  1  0  0  0
 19 15  1  0  0  0
 31 26  1  0  0  0
 24 25  1  0  0  0
M  END
> <minimizedAffinity>
-8.63909

> <CNNscore>
0.9337214828

> <CNNaffinity>
7.6681451797

> <CNN_VS>
7.1599121094

> <CNNaffinity_variance>
0.1898248792

$$$$
[H]c1c([H])c(C([H])([H])N(C([H])([H])[H])C([H])([H])[H])c([H])c([H])c1N([H])c1nc([H])c2c(=O)c(C([H])(C([H])([H])[H])C([H])([H])[H])c([H])n(-c3c([H])c([H])c4c(c3[H])C([H])([H])C([H])([H])C4([H])[H])c2n1


 35 39  0  0  0  0  0  0  0  0999 V2000
    4.4907    1.7022   21.4356 C   0  0  0  0  0  0  0  0  0  0  0  0
    4.7570    2.8326   20.6987 C   0  0  0  0  0  0  0  0  0  0  0  0
    4.3982    2.9946   19.4136 N   0  0  0  0  0  0  0  0  0  0  0  0
    3.7256    2.0123   18.7431 C   0  0  0  0  0  0  0  0  0  0  0  0
    3.3709    2.1823   17.4591 N   0  0  0  0  0  0  0  0  0  0  0  0
    2.6982    1.1509   16.8550 C   0  0  0  0  0  0  0  0  0  0  0  0
    2.4253    0.0399   17.5459 N   0  0  0  0  0  0  0  0  0  0  0  0
    2.7550   -0.1694   18.8084 C   0  0  0  0  0  0  0  0  0  0  0  0
    3.4392    0.8612   19.4480 C   0  0  0  0  0  0  0  0  0  0  0  0
    3.8091    0.6972   20.7691 C   0  0  0  0  0  0  0  0  0  0  0  0
    3.5429   -0.3588   21.4052 O   0  0  0  0  0  0  0  0  0  0  0  0
    4.7004    4.1943   18.6898 C   0  0  0  0  0  0  0  0  0  0  0  0
    5.6368    4.1813   17.6747 C   0  0  0  0  0  0  0  0  0  0  0  0
    5.9405    5.3190   16.9698 C   0  0  0  0  0  0  0  0  0  0  0  0
    5.3251    6.5225   17.2441 C   0  0  0  0  0  0  0  0  0  0  0  0
    5.4701    7.8752   16.6413 C   0  0  0  0  0  0  0  0  0  0  0  0
    4.1672    8.5319   16.9919 C   0  0  0  0  0  0  0  0  0  0  0  0
    3.8724    7.9444   18.3580 C   0  0  0  0  0  0  0  0  0  0  0  0
    4.3899    6.5385   18.2571 C   0  0  0  0  0  0  0  0  0  0  0  0
    4.0875    5.3924   18.9632 C   0  0  0  0  0  0  0  0  0  0  0  0
    4.1909    2.5727   23.7075 C   0  0  0  0  0  0  0  0  0  0  0  0
    4.8905    1.5295   22.8565 C   0  0  0  0  0  0  0  0  0  0  0  0
    6.3855    1.5656   23.0410 C   0  0  0  0  0  0  0  0  0  0  0  0
    2.2776    1.2679   15.5178 N   0  0  0  0  0  0  0  0  0  0  0  0
    1.4919    0.5976   15.2380 H   0  0  0  0  0  0  0  0  0  0  0  0
    2.7325    2.1352   14.5136 C   0  0  0  0  0  0  0  0  0  0  0  0
    2.3178    1.8986   13.1945 C   0  0  0  0  0  0  0  0  0  0  0  0
    2.7022    2.7110   12.1612 C   0  0  0  0  0  0  0  0  0  0  0  0
    3.5162    3.8066   12.3499 C   0  0  0  0  0  0  0  0  0  0  0  0
    3.9312    4.0533   13.6360 C   0  0  0  0  0  0  0  0  0  0  0  0
    3.5440    3.2309   14.6945 C   0  0  0  0  0  0  0  0  0  0  0  0
    3.9233    4.6784   11.2135 C   0  0  0  0  0  0  0  0  0  0  0  0
    4.9677    4.0527   10.4193 N   0  0  0  0  0  0  0  0  0  0  0  0
    4.6046    4.0100    9.0173 C   0  0  0  0  0  0  0  0  0  0  0  0
    6.2210    4.7748   10.5380 C   0  0  0  0  0  0  0  0  0  0  0  0
 21 22  1  0  0  0
 22 23  1  0  0  0
 22  1  1  0  0  0
  1  2  2  0  0  0
  2  3  1  0  0  0
  3 12  1  0  0  0
 12 13  2  0  0  0
 13 14  1  0  0  0
 14 15  2  0  0  0
 15 16  1  0  0  0
 16 17  1  0  0  0
 17 18  1  0  0  0
 18 19  1  0  0  0
 19 20  2  0  0  0
  3  4  1  0  0  0
  4  5  2  0  0  0
  5  6  1  0  0  0
  6 24  1  0  0  0
 24 26  1  0  0  0
 26 27  2  0  0  0
 27 28  1  0  0  0
 28 29  2  0  0  0
 29 32  1  0  0  0
 32 33  1  0  0  0
 33 34  1  0  0  0
 33 35  1  0  0  0
 29 30  1  0  0  0
 30 31  2  0  0  0
  6  7  2  0  0  0
  7  8  1  0  0  0
  8  9  2  0  0  0
  9 10  1  0  0  0
 10 11  2  0  0  0
 10  1  1  0  0  0
 20 12  1  0  0  0
  9  4  1  0  0  0
 19 15  1  0  0  0
 31 26  1  0  0  0
 24 25  1  0  0  0
M  END
> <minimizedAffinity>
-8.70563

> <CNNscore>
0.8315025568

> <CNNaffinity>
7.6067643166

> <CNN_VS>
6.3250441551

> <CNNaffinity_variance>
0.2854283750

$$$$
[H]c1c([H])c(C([H])([H])N(C([H])([H])[H])C([H])([H])[H])c([H])c([H])c1N([H])c1nc([H])c2c(=O)c(C([H])(C([H])([H])[H])C([H])([H])[H])c([H])n(-c3c([H])c([H])c4c(c3[H])C([H])([H])C([H])([H])C4([H])[H])c2n1


 35 39  0  0  0  0  0  0  0  0999 V2000
    3.9494    1.4170   19.7857 C   0  0  0  0  0  0  0  0  0  0  0  0
    4.3440    2.7181   19.5781 C   0  0  0  0  0  0  0  0  0  0  0  0
    4.1901    3.3744   18.4152 N   0  0  0  0  0  0  0  0  0  0  0  0
    3.6131    2.7658   17.3365 C   0  0  0  0  0  0  0  0  0  0  0  0
    3.4632    3.4288   16.1783 N   0  0  0  0  0  0  0  0  0  0  0  0
    2.8751    2.7500   15.1415 C   0  0  0  0  0  0  0  0  0  0  0  0
    2.4814    1.4846   15.3136 N   0  0  0  0  0  0  0  0  0  0  0  0
    2.6093    0.7952   16.4339 C   0  0  0  0  0  0  0  0  0  0  0  0
    3.2032    1.4591   17.5043 C   0  0  0  0  0  0  0  0  0  0  0  0
    3.3626    0.7867   18.7008 C   0  0  0  0  0  0  0  0  0  0  0  0
    2.9847   -0.4080   18.8446 O   0  0  0  0  0  0  0  0  0  0  0  0
    4.6193    4.7321   18.2508 C   0  0  0  0  0  0  0  0  0  0  0  0
    5.8642    5.0126   17.7226 C   0  0  0  0  0  0  0  0  0  0  0  0
    6.2939    6.3054   17.5571 C   0  0  0  0  0  0  0  0  0  0  0  0
    5.5029    7.3787   17.9106 C   0  0  0  0  0  0  0  0  0  0  0  0
    5.7265    8.8478   17.8358 C   0  0  0  0  0  0  0  0  0  0  0  0
    4.3283    9.3925   17.8294 C   0  0  0  0  0  0  0  0  0  0  0  0
    3.6035    8.4185   18.7375 C   0  0  0  0  0  0  0  0  0  0  0  0
    4.2596    7.1015   18.4383 C   0  0  0  0  0  0  0  0  0  0  0  0
    3.8315    5.8003   18.6028 C   0  0  0  0  0  0  0  0  0  0  0  0
    3.0576   -0.3761   21.1995 C   0  0  0  0  0  0  0  0  0  0  0  0
    4.1228    0.6972   21.0742 C   0  0  0  0  0  0  0  0  0  0  0  0
    4.1216    1.6296   22.2579 C   0  0  0  0  0  0  0  0  0  0  0  0
    2.6675    3.3887   13.9056 N   0  0  0  0  0  0  0  0  0  0  0  0
    2.6920    4.4576   13.9472 H   0  0  0  0  0  0  0  0  0  0  0  0
    2.4435    2.8277   12.6396 C   0  0  0  0  0  0  0  0  0  0  0  0
    3.3934    3.0597   11.6335 C   0  0  0  0  0  0  0  0  0  0  0  0
    3.2572    2.5309   10.3777 C   0  0  0  0  0  0  0  0  0  0  0  0
    2.1846    1.7416   10.0237 C   0  0  0  0  0  0  0  0  0  0  0  0
    1.2450    1.5040   10.9972 C   0  0  0  0  0  0  0  0  0  0  0  0
    1.3763    2.0385   12.2793 C   0  0  0  0  0  0  0  0  0  0  0  0
    2.0541    1.1755    8.6528 C   0  0  0  0  0  0  0  0  0  0  0  0
    2.5809   -0.1779    8.5908 N   0  0  0  0  0  0  0  0  0  0  0  0
    3.7107   -0.3413    9.4828 C   0  0  0  0  0  0  0  0  0  0  0  0
    1.5706   -1.1518    8.9607 C   0  0  0  0  0  0  0  0  0  0  0  0
 21 22  1  0  0  0
 22 23  1  0  0  0
 22  1  1  0  0  0
  1  2  2  0  0  0
  2  3  1  0  0  0
  3 12  1  0  0  0
 12 13  2  0  0  0
 13 14  1  0  0  0
 14 15  2  0  0  0
 15 16  1  0  0  0
 16 17  1  0  0  0
 17 18  1  0  0  0
 18 19  1  0  0  0
 19 20  2  0  0  0
  3  4  1  0  0  0
  4  5  2  0  0  0
  5  6  1  0  0  0
  6 24  1  0  0  0
 24 26  1  0  0  0
 26 27  2  0  0  0
 27 28  1  0  0  0
 28 29  2  0  0  0
 29 32  1  0  0  0
 32 33  1  0  0  0
 33 34  1  0  0  0
 33 35  1  0  0  0
 29 30  1  0  0  0
 30 31  2  0  0  0
  6  7  2  0  0  0
  7  8  1  0  0  0
  8  9  2  0  0  0
  9 10  1  0  0  0
 10 11  2  0  0  0
 10  1  1  0  0  0
 20 12  1  0  0  0
  9  4  1  0  0  0
 19 15  1  0  0  0
 31 26  1  0  0  0
 24 25  1  0  0  0
M  END
> <minimizedAffinity>
-8.19768

> <CNNscore>
0.7127841115

> <CNNaffinity>
7.2385306358

> <CNN_VS>
5.1595096588

> <CNNaffinity_variance>
0.2905555069

$$$$
[H]c1c([H])c(C([H])([H])N(C([H])([H])[H])C([H])([H])[H])c([H])c([H])c1N([H])c1nc([H])c2c(=O)c(C([H])(C([H])([H])[H])C([H])([H])[H])c([H])n(-c3c([H])c([H])c4c(c3[H])C([H])([H])C([H])([H])C4([H])[H])c2n1


 35 39  0  0  0  0  0  0  0  0999 V2000
    3.6691    1.0285   19.5786 C   0  0  0  0  0  0  0  0  0  0  0  0
    4.0177    2.3590   19.5824 C   0  0  0  0  0  0  0  0  0  0  0  0
    3.9399    3.1600   18.5058 N   0  0  0  0  0  0  0  0  0  0  0  0
    3.4950    2.6819   17.3056 C   0  0  0  0  0  0  0  0  0  0  0  0
    3.4204    3.4890   16.2349 N   0  0  0  0  0  0  0  0  0  0  0  0
    2.9640    2.9355   15.0659 C   0  0  0  0  0  0  0  0  0  0  0  0
    2.6179    1.6451   15.0319 N   0  0  0  0  0  0  0  0  0  0  0  0
    2.6753    0.8161   16.0595 C   0  0  0  0  0  0  0  0  0  0  0  0
    3.1352    1.3507   17.2604 C   0  0  0  0  0  0  0  0  0  0  0  0
    3.2161    0.5294   18.3685 C   0  0  0  0  0  0  0  0  0  0  0  0
    2.8849   -0.6865   18.3174 O   0  0  0  0  0  0  0  0  0  0  0  0
    4.3161    4.5419   18.5630 C   0  0  0  0  0  0  0  0  0  0  0  0
    3.3566    5.5213   18.7291 C   0  0  0  0  0  0  0  0  0  0  0  0
    3.6960    6.8498   18.7862 C   0  0  0  0  0  0  0  0  0  0  0  0
    5.0074    7.2639   18.6803 C   0  0  0  0  0  0  0  0  0  0  0  0
    5.6305    8.6148   18.7098 C   0  0  0  0  0  0  0  0  0  0  0  0
    7.0450    8.3148   19.1109 C   0  0  0  0  0  0  0  0  0  0  0  0
    7.2944    6.9852   18.4264 C   0  0  0  0  0  0  0  0  0  0  0  0
    5.9673    6.2883   18.5143 C   0  0  0  0  0  0  0  0  0  0  0  0
    5.6219    4.9537   18.4575 C   0  0  0  0  0  0  0  0  0  0  0  0
    2.9380    0.7455   21.9013 C   0  0  0  0  0  0  0  0  0  0  0  0
    3.7578    0.1484   20.7728 C   0  0  0  0  0  0  0  0  0  0  0  0
    5.1820   -0.1113   21.1906 C   0  0  0  0  0  0  0  0  0  0  0  0
    2.8404    3.7269   13.9096 N   0  0  0  0  0  0  0  0  0  0  0  0
    3.4535    4.6039   13.9028 H   0  0  0  0  0  0  0  0  0  0  0  0
    2.0420    3.5262   12.7739 C   0  0  0  0  0  0  0  0  0  0  0  0
    1.9655    2.2325   12.2367 C   0  0  0  0  0  0  0  0  0  0  0  0
    1.1926    1.9511   11.1418 C   0  0  0  0  0  0  0  0  0  0  0  0
    0.4448    2.9151   10.5012 C   0  0  0  0  0  0  0  0  0  0  0  0
    0.5079    4.1877   11.0146 C   0  0  0  0  0  0  0  0  0  0  0  0
    1.2924    4.4829   12.1300 C   0  0  0  0  0  0  0  0  0  0  0  0
   -0.3896    2.5896    9.3118 C   0  0  0  0  0  0  0  0  0  0  0  0
   -0.0925    1.2582    8.8098 N   0  0  0  0  0  0  0  0  0  0  0  0
   -1.2836    0.4343    8.7738 C   0  0  0  0  0  0  0  0  0  0  0  0
    0.4572    1.3138    7.4678 C   0  0  0  0  0  0  0  0  0  0  0  0
 21 22  1  0  0  0
 22 23  1  0  0  0
 22  1  1  0  0  0
  1  2  2  0  0  0
  2  3  1  0  0  0
  3 12  1  0  0  0
 12 13  2  0  0  0
 13 14  1  0  0  0
 14 15  2  0  0  0
 15 16  1  0  0  0
 16 17  1  0  0  0
 17 18  1  0  0  0
 18 19  1  0  0  0
 19 20  2  0  0  0
  3  4  1  0  0  0
  4  5  2  0  0  0
  5  6  1  0  0  0
  6 24  1  0  0  0
 24 26  1  0  0  0
 26 27  2  0  0  0
 27 28  1  0  0  0
 28 29  2  0  0  0
 29 32  1  0  0  0
 32 33  1  0  0  0
 33 34  1  0  0  0
 33 35  1  0  0  0
 29 30  1  0  0  0
 30 31  2  0  0  0
  6  7  2  0  0  0
  7  8  1  0  0  0
  8  9  2  0  0  0
  9 10  1  0  0  0
 10 11  2  0  0  0
 10  1  1  0  0  0
 20 12  1  0  0  0
  9  4  1  0  0  0
 19 15  1  0  0  0
 31 26  1  0  0  0
 24 25  1  0  0  0
M  END
> <minimizedAffinity>
-7.54789

> <CNNscore>
0.7062772512

> <CNNaffinity>
7.1847181320

> <CNN_VS>
5.0744028091

> <CNNaffinity_variance>
0.2727621198

$$$$
[H]c1c([H])c(C([H])([H])N(C([H])([H])[H])C([H])([H])[H])c([H])c([H])c1N([H])c1nc([H])c2c(=O)c(C([H])(C([H])([H])[H])C([H])([H])[H])c([H])n(-c3c([H])c([H])c4c(c3[H])C([H])([H])C([H])([H])C4([H])[H])c2n1


 35 39  0  0  0  0  0  0  0  0999 V2000
    4.2873    1.8221   19.4866 C   0  0  0  0  0  0  0  0  0  0  0  0
    4.6523    3.1478   19.4534 C   0  0  0  0  0  0  0  0  0  0  0  0
    4.3935    3.9737   18.4251 N   0  0  0  0  0  0  0  0  0  0  0  0
    3.7305    3.5283   17.3164 C   0  0  0  0  0  0  0  0  0  0  0  0
    3.4760    4.3602   16.2934 N   0  0  0  0  0  0  0  0  0  0  0  0
    2.8062    3.8388   15.2160 C   0  0  0  0  0  0  0  0  0  0  0  0
    2.4388    2.5539   15.2198 N   0  0  0  0  0  0  0  0  0  0  0  0
    2.6683    1.7013   16.2032 C   0  0  0  0  0  0  0  0  0  0  0  0
    3.3469    2.2030   17.3108 C   0  0  0  0  0  0  0  0  0  0  0  0
    3.6142    1.3560   18.3693 C   0  0  0  0  0  0  0  0  0  0  0  0
    3.2596    0.1458   18.3550 O   0  0  0  0  0  0  0  0  0  0  0  0
    4.7962    5.3492   18.4404 C   0  0  0  0  0  0  0  0  0  0  0  0
    6.0642    5.7111   18.0298 C   0  0  0  0  0  0  0  0  0  0  0  0
    6.4692    7.0223   18.0369 C   0  0  0  0  0  0  0  0  0  0  0  0
    5.6292    8.0338   18.4538 C   0  0  0  0  0  0  0  0  0  0  0  0
    5.8181    9.5061   18.5567 C   0  0  0  0  0  0  0  0  0  0  0  0
    4.4092   10.0210   18.5182 C   0  0  0  0  0  0  0  0  0  0  0  0
    3.6543    8.9377   19.2632 C   0  0  0  0  0  0  0  0  0  0  0  0
    4.3627    7.6754   18.8643 C   0  0  0  0  0  0  0  0  0  0  0  0
    3.9596    6.3559   18.8555 C   0  0  0  0  0  0  0  0  0  0  0  0
    3.5438    1.1290   21.7173 C   0  0  0  0  0  0  0  0  0  0  0  0
    4.5769    0.9143   20.6270 C   0  0  0  0  0  0  0  0  0  0  0  0
    5.9822    1.0745   21.1464 C   0  0  0  0  0  0  0  0  0  0  0  0
    2.4877    4.6575   14.1175 N   0  0  0  0  0  0  0  0  0  0  0  0
    3.3338    5.0149   13.5685 H   0  0  0  0  0  0  0  0  0  0  0  0
    1.2312    5.0599   13.6410 C   0  0  0  0  0  0  0  0  0  0  0  0
    0.5685    4.2246   12.7293 C   0  0  0  0  0  0  0  0  0  0  0  0
   -0.6690    4.5371   12.2333 C   0  0  0  0  0  0  0  0  0  0  0  0
   -1.3389    5.6855   12.5957 C   0  0  0  0  0  0  0  0  0  0  0  0
   -0.7043    6.5148   13.4882 C   0  0  0  0  0  0  0  0  0  0  0  0
    0.5564    6.2037   13.9988 C   0  0  0  0  0  0  0  0  0  0  0  0
   -2.6843    6.0080   12.0454 C   0  0  0  0  0  0  0  0  0  0  0  0
   -3.1143    5.0039   11.0864 N   0  0  0  0  0  0  0  0  0  0  0  0
   -4.4161    4.4713   11.4342 C   0  0  0  0  0  0  0  0  0  0  0  0
   -3.1976    5.5581    9.7477 C   0  0  0  0  0  0  0  0  0  0  0  0
 21 22  1  0  0  0
 22 23  1  0  0  0
 22  1  1  0  0  0
  1  2  2  0  0  0
  2  3  1  0  0  0
  3 12  1  0  0  0
 12 13  2  0  0  0
 13 14  1  0  0  0
 14 15  2  0  0  0
 15 16  1  0  0  0
 16 17  1  0  0  0
 17 18  1  0  0  0
 18 19  1  0  0  0
 19 20  2  0  0  0
  3  4  1  0  0  0
  4  5  2  0  0  0
  5  6  1  0  0  0
  6 24  1  0  0  0
 24 26  1  0  0  0
 26 27  2  0  0  0
 27 28  1  0  0  0
 28 29  2  0  0  0
 29 32  1  0  0  0
 32 33  1  0  0  0
 33 34  1  0  0  0
 33 35  1  0  0  0
 29 30  1  0  0  0
 30 31  2  0  0  0
  6  7  2  0  0  0
  7  8  1  0  0  0
  8  9  2  0  0  0
  9 10  1  0  0  0
 10 11  2  0  0  0
 10  1  1  0  0  0
 20 12  1  0  0  0
  9  4  1  0  0  0
 19 15  1  0  0  0
 31 26  1  0  0  0
 24 25  1  0  0  0
M  END
> <minimizedAffinity>
-8.96217

> <CNNscore>
0.4495203793

> <CNNaffinity>
6.9117293358

> <CNN_VS>
3.1069631577

> <CNNaffinity_variance>
0.3856810927

$$$$
[H]c1c([H])c(C([H])([H])N(C([H])([H])[H])C([H])([H])[H])c([H])c([H])c1N([H])c1nc([H])c2c(=O)c(C([H])(C([H])([H])[H])C([H])([H])[H])c([H])n(-c3c([H])c([H])c4c(c3[H])C([H])([H])C([H])([H])C4([H])[H])c2n1


 35 39  0  0  0  0  0  0  0  0999 V2000
    4.2850    2.8011   21.4710 C   0  0  0  0  0  0  0  0  0  0  0  0
    4.5288    4.0341   20.9125 C   0  0  0  0  0  0  0  0  0  0  0  0
    4.5040    4.2796   19.5913 N   0  0  0  0  0  0  0  0  0  0  0  0
    4.2255    3.2845   18.6973 C   0  0  0  0  0  0  0  0  0  0  0  0
    4.2026    3.5384   17.3788 N   0  0  0  0  0  0  0  0  0  0  0  0
    3.9153    2.4877   16.5452 C   0  0  0  0  0  0  0  0  0  0  0  0
    3.6740    1.2779   17.0591 N   0  0  0  0  0  0  0  0  0  0  0  0
    3.6860    0.9840   18.3475 C   0  0  0  0  0  0  0  0  0  0  0  0
    3.9749    2.0317   19.2182 C   0  0  0  0  0  0  0  0  0  0  0  0
    4.0011    1.7820   20.5769 C   0  0  0  0  0  0  0  0  0  0  0  0
    3.7708    0.6332   21.0438 O   0  0  0  0  0  0  0  0  0  0  0  0
    4.7656    5.5848   19.0598 C   0  0  0  0  0  0  0  0  0  0  0  0
    5.8767    5.8083   18.2704 C   0  0  0  0  0  0  0  0  0  0  0  0
    6.1451    7.0504   17.7520 C   0  0  0  0  0  0  0  0  0  0  0  0
    5.3187    8.1273   17.9965 C   0  0  0  0  0  0  0  0  0  0  0  0
    5.3818    9.5493   17.5630 C   0  0  0  0  0  0  0  0  0  0  0  0
    3.9536    9.9933   17.6859 C   0  0  0  0  0  0  0  0  0  0  0  0
    3.4823    9.2160   18.8992 C   0  0  0  0  0  0  0  0  0  0  0  0
    4.2088    7.9070   18.7842 C   0  0  0  0  0  0  0  0  0  0  0  0
    3.9426    6.6567   19.3033 C   0  0  0  0  0  0  0  0  0  0  0  0
    3.6847    3.7041   23.6695 C   0  0  0  0  0  0  0  0  0  0  0  0
    4.3143    2.5365   22.9331 C   0  0  0  0  0  0  0  0  0  0  0  0
    5.7036    2.2399   23.4355 C   0  0  0  0  0  0  0  0  0  0  0  0
    3.8540    2.6851   15.1538 N   0  0  0  0  0  0  0  0  0  0  0  0
    4.7086    2.3310   14.6159 H   0  0  0  0  0  0  0  0  0  0  0  0
    2.8386    3.2668   14.3805 C   0  0  0  0  0  0  0  0  0  0  0  0
    2.9175    4.6403   14.1062 C   0  0  0  0  0  0  0  0  0  0  0  0
    1.9767    5.2782   13.3425 C   0  0  0  0  0  0  0  0  0  0  0  0
    0.8983    4.6157   12.7976 C   0  0  0  0  0  0  0  0  0  0  0  0
    0.8058    3.2697   13.0560 C   0  0  0  0  0  0  0  0  0  0  0  0
    1.7602    2.6120   13.8328 C   0  0  0  0  0  0  0  0  0  0  0  0
   -0.1145    5.3268   11.9697 C   0  0  0  0  0  0  0  0  0  0  0  0
   -1.4099    5.3495   12.6288 N   0  0  0  0  0  0  0  0  0  0  0  0
   -1.5536    6.5271   13.4605 C   0  0  0  0  0  0  0  0  0  0  0  0
   -2.4913    5.3472   11.6609 C   0  0  0  0  0  0  0  0  0  0  0  0
 21 22  1  0  0  0
 22 23  1  0  0  0
 22  1  1  0  0  0
  1  2  2  0  0  0
  2  3  1  0  0  0
  3 12  1  0  0  0
 12 13  2  0  0  0
 13 14  1  0  0  0
 14 15  2  0  0  0
 15 16  1  0  0  0
 16 17  1  0  0  0
 17 18  1  0  0  0
 18 19  1  0  0  0
 19 20  2  0  0  0
  3  4  1  0  0  0
  4  5  2  0  0  0
  5  6  1  0  0  0
  6 24  1  0  0  0
 24 26  1  0  0  0
 26 27  2  0  0  0
 27 28  1  0  0  0
 28 29  2  0  0  0
 29 32  1  0  0  0
 32 33  1  0  0  0
 33 34  1  0  0  0
 33 35  1  0  0  0
 29 30  1  0  0  0
 30 31  2  0  0  0
  6  7  2  0  0  0
  7  8  1  0  0  0
  8  9  2  0  0  0
  9 10  1  0  0  0
 10 11  2  0  0  0
 10  1  1  0  0  0
 20 12  1  0  0  0
  9  4  1  0  0  0
 19 15  1  0  0  0
 31 26  1  0  0  0
 24 25  1  0  0  0
M  END
> <minimizedAffinity>
-9.19186

> <CNNscore>
0.4146173298

> <CNNaffinity>
6.9665184021

> <CNN_VS>
2.8884391785

> <CNNaffinity_variance>
0.3746934831

$$$$
[H]c1c([H])c(C([H])([H])N(C([H])([H])[H])C([H])([H])[H])c([H])c([H])c1N([H])c1nc([H])c2c(=O)c(C([H])(C([H])([H])[H])C([H])([H])[H])c([H])n(-c3c([H])c([H])c4c(c3[H])C([H])([H])C([H])([H])C4([H])[H])c2n1


 35 39  0  0  0  0  0  0  0  0999 V2000
    4.7376    2.0262   20.3228 C   0  0  0  0  0  0  0  0  0  0  0  0
    4.9616    3.3371   19.9722 C   0  0  0  0  0  0  0  0  0  0  0  0
    4.5529    3.8868   18.8157 N   0  0  0  0  0  0  0  0  0  0  0  0
    3.8684    3.1495   17.8911 C   0  0  0  0  0  0  0  0  0  0  0  0
    3.4637    3.7065   16.7381 N   0  0  0  0  0  0  0  0  0  0  0  0
    2.7822    2.9019   15.8610 C   0  0  0  0  0  0  0  0  0  0  0  0
    2.5497    1.6237   16.1744 N   0  0  0  0  0  0  0  0  0  0  0  0
    2.9291    1.0356   17.2954 C   0  0  0  0  0  0  0  0  0  0  0  0
    3.6234    1.8286   18.2056 C   0  0  0  0  0  0  0  0  0  0  0  0
    4.0446    1.2660   19.3952 C   0  0  0  0  0  0  0  0  0  0  0  0
    3.8159    0.0574   19.6738 O   0  0  0  0  0  0  0  0  0  0  0  0
    4.8124    5.2602   18.4982 C   0  0  0  0  0  0  0  0  0  0  0  0
    5.8941    5.6035   17.7112 C   0  0  0  0  0  0  0  0  0  0  0  0
    6.1599    6.9124   17.3958 C   0  0  0  0  0  0  0  0  0  0  0  0
    5.3599    7.9400   17.8503 C   0  0  0  0  0  0  0  0  0  0  0  0
    5.4265    9.4138   17.6570 C   0  0  0  0  0  0  0  0  0  0  0  0
    4.0111    9.8423   17.9117 C   0  0  0  0  0  0  0  0  0  0  0  0
    3.5773    8.8773   18.9975 C   0  0  0  0  0  0  0  0  0  0  0  0
    4.2792    7.6002   18.6362 C   0  0  0  0  0  0  0  0  0  0  0  0
    4.0156    6.2830   18.9508 C   0  0  0  0  0  0  0  0  0  0  0  0
    4.5090    2.1274   22.7615 C   0  0  0  0  0  0  0  0  0  0  0  0
    5.1925    1.4246   21.6034 C   0  0  0  0  0  0  0  0  0  0  0  0
    6.6926    1.4400   21.7445 C   0  0  0  0  0  0  0  0  0  0  0  0
    2.3105    3.4237   14.6429 N   0  0  0  0  0  0  0  0  0  0  0  0
    1.3074    3.7947   14.6763 H   0  0  0  0  0  0  0  0  0  0  0  0
    2.9653    3.5324   13.4072 C   0  0  0  0  0  0  0  0  0  0  0  0
    2.5752    2.6703   12.3714 C   0  0  0  0  0  0  0  0  0  0  0  0
    3.1519    2.7270   11.1306 C   0  0  0  0  0  0  0  0  0  0  0  0
    4.1466    3.6292   10.8217 C   0  0  0  0  0  0  0  0  0  0  0  0
    4.5404    4.4813   11.8246 C   0  0  0  0  0  0  0  0  0  0  0  0
    3.9578    4.4306   13.0913 C   0  0  0  0  0  0  0  0  0  0  0  0
    4.7615    3.6755    9.4664 C   0  0  0  0  0  0  0  0  0  0  0  0
    5.2537    2.3673    9.0677 N   0  0  0  0  0  0  0  0  0  0  0  0
    4.7362    1.9866    7.7691 C   0  0  0  0  0  0  0  0  0  0  0  0
    6.7032    2.3510    8.9970 C   0  0  0  0  0  0  0  0  0  0  0  0
 21 22  1  0  0  0
 22 23  1  0  0  0
 22  1  1  0  0  0
  1  2  2  0  0  0
  2  3  1  0  0  0
  3 12  1  0  0  0
 12 13  2  0  0  0
 13 14  1  0  0  0
 14 15  2  0  0  0
 15 16  1  0  0  0
 16 17  1  0  0  0
 17 18  1  0  0  0
 18 19  1  0  0  0
 19 20  2  0  0  0
  3  4  1  0  0  0
  4  5  2  0  0  0
  5  6  1  0  0  0
  6 24  1  0  0  0
 24 26  1  0  0  0
 26 27  2  0  0  0
 27 28  1  0  0  0
 28 29  2  0  0  0
 29 32  1  0  0  0
 32 33  1  0  0  0
 33 34  1  0  0  0
 33 35  1  0  0  0
 29 30  1  0  0  0
 30 31  2  0  0  0
  6  7  2  0  0  0
  7  8  1  0  0  0
  8  9  2  0  0  0
  9 10  1  0  0  0
 10 11  2  0  0  0
 10  1  1  0  0  0
 20 12  1  0  0  0
  9  4  1  0  0  0
 19 15  1  0  0  0
 31 26  1  0  0  0
 24 25  1  0  0  0
M  END
> <minimizedAffinity>
-8.35204

> <CNNscore>
0.4038732052

> <CNNaffinity>
6.8889250755

> <CNN_VS>
2.7822523117

> <CNNaffinity_variance>
0.4826250672

$$$$
[H]c1c([H])c(C([H])([H])N(C([H])([H])[H])C([H])([H])[H])c([H])c([H])c1N([H])c1nc([H])c2c(=O)c(C([H])(C([H])([H])[H])C([H])([H])[H])c([H])n(-c3c([H])c([H])c4c(c3[H])C([H])([H])C([H])([H])C4([H])[H])c2n1


 35 39  0  0  0  0  0  0  0  0999 V2000
    4.4799    2.9198   21.3107 C   0  0  0  0  0  0  0  0  0  0  0  0
    4.7234    4.2160   20.9206 C   0  0  0  0  0  0  0  0  0  0  0  0
    4.7167    4.6306   19.6421 N   0  0  0  0  0  0  0  0  0  0  0  0
    4.4589    3.7584   18.6224 C   0  0  0  0  0  0  0  0  0  0  0  0
    4.4542    4.1809   17.3477 N   0  0  0  0  0  0  0  0  0  0  0  0
    4.1870    3.2458   16.3805 C   0  0  0  0  0  0  0  0  0  0  0  0
    3.9467    1.9783   16.7295 N   0  0  0  0  0  0  0  0  0  0  0  0
    3.9413    1.5199   17.9690 C   0  0  0  0  0  0  0  0  0  0  0  0
    4.2095    2.4473   18.9726 C   0  0  0  0  0  0  0  0  0  0  0  0
    4.2169    2.0237   20.2877 C   0  0  0  0  0  0  0  0  0  0  0  0
    3.9877    0.8229   20.5981 O   0  0  0  0  0  0  0  0  0  0  0  0
    4.9771    5.9950   19.2884 C   0  0  0  0  0  0  0  0  0  0  0  0
    3.9448    6.9104   19.2269 C   0  0  0  0  0  0  0  0  0  0  0  0
    4.1729    8.2212   18.8902 C   0  0  0  0  0  0  0  0  0  0  0  0
    5.4405    8.6804   18.5991 C   0  0  0  0  0  0  0  0  0  0  0  0
    5.9485   10.0248   18.2139 C   0  0  0  0  0  0  0  0  0  0  0  0
    7.3960    9.9524   18.6029 C   0  0  0  0  0  0  0  0  0  0  0  0
    7.7330    8.5045   18.3057 C   0  0  0  0  0  0  0  0  0  0  0  0
    6.4730    7.7686   18.6597 C   0  0  0  0  0  0  0  0  0  0  0  0
    6.2393    6.4518   18.9987 C   0  0  0  0  0  0  0  0  0  0  0  0
    3.8340    3.5241   23.5970 C   0  0  0  0  0  0  0  0  0  0  0  0
    4.4890    2.4680   22.7265 C   0  0  0  0  0  0  0  0  0  0  0  0
    5.8735    2.1221   23.2102 C   0  0  0  0  0  0  0  0  0  0  0  0
    4.1454    3.6216   15.0257 N   0  0  0  0  0  0  0  0  0  0  0  0
    4.8749    4.3519   14.7437 H   0  0  0  0  0  0  0  0  0  0  0  0
    3.2974    3.1728   14.0024 C   0  0  0  0  0  0  0  0  0  0  0  0
    3.5096    3.6591   12.7037 C   0  0  0  0  0  0  0  0  0  0  0  0
    2.7377    3.2546   11.6474 C   0  0  0  0  0  0  0  0  0  0  0  0
    1.7090    2.3492   11.7915 C   0  0  0  0  0  0  0  0  0  0  0  0
    1.4878    1.8624   13.0569 C   0  0  0  0  0  0  0  0  0  0  0  0
    2.2697    2.2690   14.1385 C   0  0  0  0  0  0  0  0  0  0  0  0
    0.8806    1.9214   10.6306 C   0  0  0  0  0  0  0  0  0  0  0  0
    1.2675    0.5989   10.1678 N   0  0  0  0  0  0  0  0  0  0  0  0
    0.1064   -0.2392    9.9475 C   0  0  0  0  0  0  0  0  0  0  0  0
    2.0106    0.6748    8.9235 C   0  0  0  0  0  0  0  0  0  0  0  0
 21 22  1  0  0  0
 22 23  1  0  0  0
 22  1  1  0  0  0
  1  2  2  0  0  0
  2  3  1  0  0  0
  3 12  1  0  0  0
 12 13  2  0  0  0
 13 14  1  0  0  0
 14 15  2  0  0  0
 15 16  1  0  0  0
 16 17  1  0  0  0
 17 18  1  0  0  0
 18 19  1  0  0  0
 19 20  2  0  0  0
  3  4  1  0  0  0
  4  5  2  0  0  0
  5  6  1  0  0  0
  6 24  1  0  0  0
 24 26  1  0  0  0
 26 27  2  0  0  0
 27 28  1  0  0  0
 28 29  2  0  0  0
 29 32  1  0  0  0
 32 33  1  0  0  0
 33 34  1  0  0  0
 33 35  1  0  0  0
 29 30  1  0  0  0
 30 31  2  0  0  0
  6  7  2  0  0  0
  7  8  1  0  0  0
  8  9  2  0  0  0
  9 10  1  0  0  0
 10 11  2  0  0  0
 10  1  1  0  0  0
 20 12  1  0  0  0
  9  4  1  0  0  0
 19 15  1  0  0  0
 31 26  1  0  0  0
 24 25  1  0  0  0
M  END
> <minimizedAffinity>
-8.55343

> <CNNscore>
0.3653799593

> <CNNaffinity>
6.8201627731

> <CNN_VS>
2.4919507504

> <CNNaffinity_variance>
0.2988409400

$$$$
[H]c1c([H])c(C([H])([H])N(C([H])([H])[H])C([H])([H])[H])c([H])c([H])c1N([H])c1nc([H])c2c(=O)c(C([H])(C([H])([H])[H])C([H])([H])[H])c([H])n(-c3c([H])c([H])c4c(c3[H])C([H])([H])C([H])([H])C4([H])[H])c2n1


 35 39  0  0  0  0  0  0  0  0999 V2000
    4.9210    2.3062   20.6965 C   0  0  0  0  0  0  0  0  0  0  0  0
    5.0835    3.6035   20.2696 C   0  0  0  0  0  0  0  0  0  0  0  0
    4.7026    4.0509   19.0607 N   0  0  0  0  0  0  0  0  0  0  0  0
    4.1120    3.2141   18.1564 C   0  0  0  0  0  0  0  0  0  0  0  0
    3.7344    3.6692   16.9507 N   0  0  0  0  0  0  0  0  0  0  0  0
    3.1485    2.7684   16.0983 C   0  0  0  0  0  0  0  0  0  0  0  0
    2.9775    1.5008   16.4854 N   0  0  0  0  0  0  0  0  0  0  0  0
    3.3334    1.0110   17.6602 C   0  0  0  0  0  0  0  0  0  0  0  0
    3.9310    1.9032   18.5469 C   0  0  0  0  0  0  0  0  0  0  0  0
    4.3236    1.4457   19.7902 C   0  0  0  0  0  0  0  0  0  0  0  0
    4.1540    0.2454   20.1382 O   0  0  0  0  0  0  0  0  0  0  0  0
    4.8949    5.4149   18.6643 C   0  0  0  0  0  0  0  0  0  0  0  0
    5.9337    5.7580   17.8214 C   0  0  0  0  0  0  0  0  0  0  0  0
    6.1351    7.0579   17.4301 C   0  0  0  0  0  0  0  0  0  0  0  0
    5.3106    8.0762   17.8610 C   0  0  0  0  0  0  0  0  0  0  0  0
    5.3107    9.5394   17.5907 C   0  0  0  0  0  0  0  0  0  0  0  0
    3.8889    9.9257   17.8755 C   0  0  0  0  0  0  0  0  0  0  0  0
    3.5327    9.0028   19.0243 C   0  0  0  0  0  0  0  0  0  0  0  0
    4.2727    7.7365   18.7027 C   0  0  0  0  0  0  0  0  0  0  0  0
    4.0738    6.4284   19.0935 C   0  0  0  0  0  0  0  0  0  0  0  0
    5.0245    2.8702   23.0799 C   0  0  0  0  0  0  0  0  0  0  0  0
    5.3448    1.8181   22.0347 C   0  0  0  0  0  0  0  0  0  0  0  0
    6.7974    1.4191   22.0671 C   0  0  0  0  0  0  0  0  0  0  0  0
    2.7095    3.1802   14.8269 N   0  0  0  0  0  0  0  0  0  0  0  0
    1.9404    2.5694   14.4022 H   0  0  0  0  0  0  0  0  0  0  0  0
    3.1275    4.2709   14.0503 C   0  0  0  0  0  0  0  0  0  0  0  0
    3.7532    4.0100   12.8220 C   0  0  0  0  0  0  0  0  0  0  0  0
    4.1720    5.0199   11.9974 C   0  0  0  0  0  0  0  0  0  0  0  0
    4.0068    6.3495   12.3194 C   0  0  0  0  0  0  0  0  0  0  0  0
    3.3954    6.6229   13.5187 C   0  0  0  0  0  0  0  0  0  0  0  0
    2.9653    5.6000   14.3646 C   0  0  0  0  0  0  0  0  0  0  0  0
    4.4690    7.4336   11.4095 C   0  0  0  0  0  0  0  0  0  0  0  0
    5.8568    7.2396   11.0233 N   0  0  0  0  0  0  0  0  0  0  0  0
    6.0196    7.3402    9.5872 C   0  0  0  0  0  0  0  0  0  0  0  0
    6.7178    8.2291   11.6444 C   0  0  0  0  0  0  0  0  0  0  0  0
 21 22  1  0  0  0
 22 23  1  0  0  0
 22  1  1  0  0  0
  1  2  2  0  0  0
  2  3  1  0  0  0
  3 12  1  0  0  0
 12 13  2  0  0  0
 13 14  1  0  0  0
 14 15  2  0  0  0
 15 16  1  0  0  0
 16 17  1  0  0  0
 17 18  1  0  0  0
 18 19  1  0  0  0
 19 20  2  0  0  0
  3  4  1  0  0  0
  4  5  2  0  0  0
  5  6  1  0  0  0
  6 24  1  0  0  0
 24 26  1  0  0  0
 26 27  2  0  0  0
 27 28  1  0  0  0
 28 29  2  0  0  0
 29 32  1  0  0  0
 32 33  1  0  0  0
 33 34  1  0  0  0
 33 35  1  0  0  0
 29 30  1  0  0  0
 30 31  2  0  0  0
  6  7  2  0  0  0
  7  8  1  0  0  0
  8  9  2  0  0  0
  9 10  1  0  0  0
 10 11  2  0  0  0
 10  1  1  0  0  0
 20 12  1  0  0  0
  9  4  1  0  0  0
 19 15  1  0  0  0
 31 26  1  0  0  0
 24 25  1  0  0  0
M  END
> <minimizedAffinity>
-8.51371

> <CNNscore>
0.3416770101

> <CNNaffinity>
6.7012572289

> <CNN_VS>
2.2896654606

> <CNNaffinity_variance>
0.6548265219

$$$$
[H]OC([H])([H])C([H])([H])n1c([H])c(C2=C(c3c([H])n(C([H])([H])C([H])([H])C([H])([H])S(=O)(=O)C([H])([H])[H])c4c([H])c([H])c([H])c([H])c34)C(=O)N([H])C2=O)c2c([H])c([H])c([H])c([H])c21


 37 41  0  0  0  0  0  0  0  0999 V2000
    4.0056    3.2077   17.6290 C   0  0  0  0  0  0  0  0  0  0  0  0
    4.0720    4.0706   16.6283 C   0  0  0  0  0  0  0  0  0  0  0  0
    3.7587    3.3150   15.3944 C   0  0  0  0  0  0  0  0  0  0  0  0
    3.7251    3.7899   14.2376 O   0  0  0  0  0  0  0  0  0  0  0  0
    3.5024    1.9627   15.7279 N   0  0  0  0  0  0  0  0  0  0  0  0
    3.6512    1.8677   17.1375 C   0  0  0  0  0  0  0  0  0  0  0  0
    3.5149    0.8507   17.8731 O   0  0  0  0  0  0  0  0  0  0  0  0
    3.2487    1.1658   15.0734 H   0  0  0  0  0  0  0  0  0  0  0  0
    4.2334    4.6559   20.9627 N   0  0  0  0  0  0  0  0  0  0  0  0
    3.8349    4.7055   19.6872 C   0  0  0  0  0  0  0  0  0  0  0  0
    4.2426    3.5524   19.0382 C   0  0  0  0  0  0  0  0  0  0  0  0
    4.9079    2.8078   19.9832 C   0  0  0  0  0  0  0  0  0  0  0  0
    5.5569    1.5761   19.9470 C   0  0  0  0  0  0  0  0  0  0  0  0
    6.1679    1.0682   21.0747 C   0  0  0  0  0  0  0  0  0  0  0  0
    6.1676    1.7502   22.2914 C   0  0  0  0  0  0  0  0  0  0  0  0
    5.5225    2.9615   22.3023 C   0  0  0  0  0  0  0  0  0  0  0  0
    4.9061    3.4901   21.1884 C   0  0  0  0  0  0  0  0  0  0  0  0
    3.9634    5.6598   21.9937 C   0  0  0  0  0  0  0  0  0  0  0  0
    4.8510    6.8793   21.7537 C   0  0  0  0  0  0  0  0  0  0  0  0
    6.2418    6.6868   22.2668 C   0  0  0  0  0  0  0  0  0  0  0  0
    8.3442    8.6394   21.8606 C   0  0  0  0  0  0  0  0  0  0  0  0
    6.9160    8.2346   22.7916 S   0  0  0  0  0  0  0  0  0  0  0  0
    7.2691    8.2369   24.2430 O   0  0  0  0  0  0  0  0  0  0  0  0
    5.9055    9.3372   22.5899 O   0  0  0  0  0  0  0  0  0  0  0  0
    4.4491    5.4743   16.7020 C   0  0  0  0  0  0  0  0  0  0  0  0
    3.7402    6.5279   16.1476 C   0  0  0  0  0  0  0  0  0  0  0  0
    4.3885    7.6749   16.4288 N   0  0  0  0  0  0  0  0  0  0  0  0
    5.5036    7.4297   17.1464 C   0  0  0  0  0  0  0  0  0  0  0  0
    6.4826    8.2538   17.6576 C   0  0  0  0  0  0  0  0  0  0  0  0
    7.5215    7.6810   18.3526 C   0  0  0  0  0  0  0  0  0  0  0  0
    7.5696    6.3200   18.5247 C   0  0  0  0  0  0  0  0  0  0  0  0
    6.5866    5.5033   18.0113 C   0  0  0  0  0  0  0  0  0  0  0  0
    5.5341    6.0400   17.3132 C   0  0  0  0  0  0  0  0  0  0  0  0
    3.9372    8.9922   16.0382 C   0  0  0  0  0  0  0  0  0  0  0  0
    4.3202    9.1093   14.5509 C   0  0  0  0  0  0  0  0  0  0  0  0
    5.4898    9.8232   14.4611 O   0  0  0  0  0  0  0  0  0  0  0  0
    5.4931   10.4255   13.6768 H   0  0  0  0  0  0  0  0  0  0  0  0
 21 22  1  0  0  0
 22 23  2  0  0  0
 22 24  2  0  0  0
 22 20  1  0  0  0
 20 19  1  0  0  0
 19 18  1  0  0  0
 18  9  1  0  0  0
  9 10  1  0  0  0
 10 11  2  0  0  0
 11  1  1  0  0  0
  1  2  2  0  0  0
  2  3  1  0  0  0
  3  4  2  0  0  0
  3  5  1  0  0  0
  5  6  1  0  0  0
  6  7  2  0  0  0
  2 25  1  0  0  0
 25 26  2  0  0  0
 26 27  1  0  0  0
 27 34  1  0  0  0
 34 35  1  0  0  0
 35 36  1  0  0  0
 27 28  1  0  0  0
 28 29  2  0  0  0
 29 30  1  0  0  0
 30 31  2  0  0  0
 31 32  1  0  0  0
 32 33  2  0  0  0
 11 12  1  0  0  0
 12 13  2  0  0  0
 13 14  1  0  0  0
 14 15  2  0  0  0
 15 16  1  0  0  0
 16 17  2  0  0  0
 17  9  1  0  0  0
  6  1  1  0  0  0
 33 25  1  0  0  0
 17 12  1  0  0  0
 33 28  1  0  0  0
  5  8  1  0  0  0
 36 37  1  0  0  0
M  END
> <minimizedAffinity>
-8.22158

> <CNNscore>
0.4618118107

> <CNNaffinity>
6.5694060326

> <CNN_VS>
3.0338292122

> <CNNaffinity_variance>
0.0934475735

$$$$
[H]OC([H])([H])C([H])([H])n1c([H])c(C2=C(c3c([H])n(C([H])([H])C([H])([H])C([H])([H])S(=O)(=O)C([H])([H])[H])c4c([H])c([H])c([H])c([H])c34)C(=O)N([H])C2=O)c2c([H])c([H])c([H])c([H])c21


 37 41  0  0  0  0  0  0  0  0999 V2000
    4.0968    3.1480   16.9873 C   0  0  0  0  0  0  0  0  0  0  0  0
    3.9583    2.4407   18.0967 C   0  0  0  0  0  0  0  0  0  0  0  0
    3.3722    1.1401   17.7008 C   0  0  0  0  0  0  0  0  0  0  0  0
    3.0902    0.2010   18.4776 O   0  0  0  0  0  0  0  0  0  0  0  0
    3.1778    1.1237   16.2981 N   0  0  0  0  0  0  0  0  0  0  0  0
    3.6294    2.3833   15.8213 C   0  0  0  0  0  0  0  0  0  0  0  0
    3.6476    2.8109   14.6335 O   0  0  0  0  0  0  0  0  0  0  0  0
    2.7777    0.3399   15.7037 H   0  0  0  0  0  0  0  0  0  0  0  0
    5.9822    6.2496   17.2850 N   0  0  0  0  0  0  0  0  0  0  0  0
    5.7957    4.9578   17.5762 C   0  0  0  0  0  0  0  0  0  0  0  0
    4.6546    4.5071   16.9346 C   0  0  0  0  0  0  0  0  0  0  0  0
    4.1615    5.5897   16.2456 C   0  0  0  0  0  0  0  0  0  0  0  0
    3.0448    5.7800   15.4356 C   0  0  0  0  0  0  0  0  0  0  0  0
    2.7833    7.0126   14.8740 C   0  0  0  0  0  0  0  0  0  0  0  0
    3.6108    8.1157   15.0840 C   0  0  0  0  0  0  0  0  0  0  0  0
    4.7043    7.9039   15.8858 C   0  0  0  0  0  0  0  0  0  0  0  0
    4.9856    6.6823   16.4590 C   0  0  0  0  0  0  0  0  0  0  0  0
    7.0994    7.0849   17.7296 C   0  0  0  0  0  0  0  0  0  0  0  0
    7.2182    6.9991   19.2498 C   0  0  0  0  0  0  0  0  0  0  0  0
    8.5112    7.5523   19.7566 C   0  0  0  0  0  0  0  0  0  0  0  0
    8.4954    7.2339   22.6369 C   0  0  0  0  0  0  0  0  0  0  0  0
    8.2611    8.3558   21.3115 S   0  0  0  0  0  0  0  0  0  0  0  0
    6.9001    8.9604   21.4255 O   0  0  0  0  0  0  0  0  0  0  0  0
    9.2511    9.4824   21.4797 O   0  0  0  0  0  0  0  0  0  0  0  0
    4.2523    2.8708   19.4556 C   0  0  0  0  0  0  0  0  0  0  0  0
    3.7139    3.9837   20.0814 C   0  0  0  0  0  0  0  0  0  0  0  0
    4.2110    4.0539   21.3316 N   0  0  0  0  0  0  0  0  0  0  0  0
    5.0618    3.0341   21.5653 C   0  0  0  0  0  0  0  0  0  0  0  0
    5.8134    2.6812   22.6650 C   0  0  0  0  0  0  0  0  0  0  0  0
    6.6086    1.5627   22.5814 C   0  0  0  0  0  0  0  0  0  0  0  0
    6.6433    0.8254   21.4239 C   0  0  0  0  0  0  0  0  0  0  0  0
    5.8883    1.1844   20.3294 C   0  0  0  0  0  0  0  0  0  0  0  0
    5.0822    2.2940   20.3772 C   0  0  0  0  0  0  0  0  0  0  0  0
    3.8601    5.0683   22.3007 C   0  0  0  0  0  0  0  0  0  0  0  0
    4.9683    6.1301   22.1708 C   0  0  0  0  0  0  0  0  0  0  0  0
    4.3869    7.3181   21.8011 O   0  0  0  0  0  0  0  0  0  0  0  0
    4.9497    7.8185   21.1603 H   0  0  0  0  0  0  0  0  0  0  0  0
 21 22  1  0  0  0
 22 23  2  0  0  0
 22 24  2  0  0  0
 22 20  1  0  0  0
 20 19  1  0  0  0
 19 18  1  0  0  0
 18  9  1  0  0  0
  9 10  1  0  0  0
 10 11  2  0  0  0
 11  1  1  0  0  0
  1  2  2  0  0  0
  2  3  1  0  0  0
  3  4  2  0  0  0
  3  5  1  0  0  0
  5  6  1  0  0  0
  6  7  2  0  0  0
  2 25  1  0  0  0
 25 26  2  0  0  0
 26 27  1  0  0  0
 27 34  1  0  0  0
 34 35  1  0  0  0
 35 36  1  0  0  0
 27 28  1  0  0  0
 28 29  2  0  0  0
 29 30  1  0  0  0
 30 31  2  0  0  0
 31 32  1  0  0  0
 32 33  2  0  0  0
 11 12  1  0  0  0
 12 13  2  0  0  0
 13 14  1  0  0  0
 14 15  2  0  0  0
 15 16  1  0  0  0
 16 17  2  0  0  0
 17  9  1  0  0  0
  6  1  1  0  0  0
 33 25  1  0  0  0
 17 12  1  0  0  0
 33 28  1  0  0  0
  5  8  1  0  0  0
 36 37  1  0  0  0
M  END
> <minimizedAffinity>
-8.39481

> <CNNscore>
0.4556159973

> <CNNaffinity>
6.6353621483

> <CNN_VS>
3.0231771469

> <CNNaffinity_variance>
0.2647808492

$$$$
[H]OC([H])([H])C([H])([H])n1c([H])c(C2=C(c3c([H])n(C([H])([H])C([H])([H])C([H])([H])S(=O)(=O)C([H])([H])[H])c4c([H])c([H])c([H])c([H])c34)C(=O)N([H])C2=O)c2c([H])c([H])c([H])c([H])c21


 37 41  0  0  0  0  0  0  0  0999 V2000
    2.5646    3.0596   14.6798 C   0  0  0  0  0  0  0  0  0  0  0  0
    2.2873    4.2502   15.1857 C   0  0  0  0  0  0  0  0  0  0  0  0
    2.3624    4.1143   16.6579 C   0  0  0  0  0  0  0  0  0  0  0  0
    2.1586    5.0296   17.4858 O   0  0  0  0  0  0  0  0  0  0  0  0
    2.7019    2.7792   16.9863 N   0  0  0  0  0  0  0  0  0  0  0  0
    2.8366    2.0899   15.7515 C   0  0  0  0  0  0  0  0  0  0  0  0
    3.1326    0.8777   15.5589 O   0  0  0  0  0  0  0  0  0  0  0  0
    2.8341    2.3580   17.9522 H   0  0  0  0  0  0  0  0  0  0  0  0
    2.1270    1.8735   11.2645 N   0  0  0  0  0  0  0  0  0  0  0  0
    1.7900    1.8726   12.5586 C   0  0  0  0  0  0  0  0  0  0  0  0
    2.6057    2.7588   13.2415 C   0  0  0  0  0  0  0  0  0  0  0  0
    3.4515    3.2910   12.2974 C   0  0  0  0  0  0  0  0  0  0  0  0
    4.4949    4.2113   12.3583 C   0  0  0  0  0  0  0  0  0  0  0  0
    5.1987    4.5549   11.2227 C   0  0  0  0  0  0  0  0  0  0  0  0
    4.9067    4.0078    9.9732 C   0  0  0  0  0  0  0  0  0  0  0  0
    3.8752    3.1033    9.9383 C   0  0  0  0  0  0  0  0  0  0  0  0
    3.1585    2.7433   11.0594 C   0  0  0  0  0  0  0  0  0  0  0  0
    1.4770    1.1066   10.2001 C   0  0  0  0  0  0  0  0  0  0  0  0
    0.2636    1.8815    9.6903 C   0  0  0  0  0  0  0  0  0  0  0  0
    0.5002    2.5022    8.3511 C   0  0  0  0  0  0  0  0  0  0  0  0
    1.0169    5.2249    9.1984 C   0  0  0  0  0  0  0  0  0  0  0  0
   -0.0882    4.1694    8.3410 S   0  0  0  0  0  0  0  0  0  0  0  0
   -1.4464    4.2955    8.9494 O   0  0  0  0  0  0  0  0  0  0  0  0
   -0.2004    4.6725    6.9226 O   0  0  0  0  0  0  0  0  0  0  0  0
    1.9092    5.4497   14.4533 C   0  0  0  0  0  0  0  0  0  0  0  0
    2.5882    6.6572   14.4820 C   0  0  0  0  0  0  0  0  0  0  0  0
    1.9496    7.5265   13.6747 N   0  0  0  0  0  0  0  0  0  0  0  0
    0.8698    6.9490   13.1100 C   0  0  0  0  0  0  0  0  0  0  0  0
   -0.0873    7.4175   12.2363 C   0  0  0  0  0  0  0  0  0  0  0  0
   -1.0911    6.5624   11.8468 C   0  0  0  0  0  0  0  0  0  0  0  0
   -1.1265    5.2762   12.3251 C   0  0  0  0  0  0  0  0  0  0  0  0
   -0.1656    4.8154   13.1975 C   0  0  0  0  0  0  0  0  0  0  0  0
    0.8517    5.6404   13.6070 C   0  0  0  0  0  0  0  0  0  0  0  0
    2.3779    8.8852   13.4258 C   0  0  0  0  0  0  0  0  0  0  0  0
    3.9163    8.8108   13.4077 C   0  0  0  0  0  0  0  0  0  0  0  0
    4.3155    8.4316   12.1496 O   0  0  0  0  0  0  0  0  0  0  0  0
    5.0912    7.8190   12.1796 H   0  0  0  0  0  0  0  0  0  0  0  0
 21 22  1  0  0  0
 22 23  2  0  0  0
 22 24  2  0  0  0
 22 20  1  0  0  0
 20 19  1  0  0  0
 19 18  1  0  0  0
 18  9  1  0  0  0
  9 10  1  0  0  0
 10 11  2  0  0  0
 11  1  1  0  0  0
  1  2  2  0  0  0
  2  3  1  0  0  0
  3  4  2  0  0  0
  3  5  1  0  0  0
  5  6  1  0  0  0
  6  7  2  0  0  0
  2 25  1  0  0  0
 25 26  2  0  0  0
 26 27  1  0  0  0
 27 34  1  0  0  0
 34 35  1  0  0  0
 35 36  1  0  0  0
 27 28  1  0  0  0
 28 29  2  0  0  0
 29 30  1  0  0  0
 30 31  2  0  0  0
 31 32  1  0  0  0
 32 33  2  0  0  0
 11 12  1  0  0  0
 12 13  2  0  0  0
 13 14  1  0  0  0
 14 15  2  0  0  0
 15 16  1  0  0  0
 16 17  2  0  0  0
 17  9  1  0  0  0
  6  1  1  0  0  0
 33 25  1  0  0  0
 17 12  1  0  0  0
 33 28  1  0  0  0
  5  8  1  0  0  0
 36 37  1  0  0  0
M  END
> <minimizedAffinity>
-5.85889

> <CNNscore>
0.3241886497

> <CNNaffinity>
5.8487753868

> <CNN_VS>
1.8961066008

> <CNNaffinity_variance>
0.1090995222

$$$$
[H]OC([H])([H])C([H])([H])n1c([H])c(C2=C(c3c([H])n(C([H])([H])C([H])([H])C([H])([H])S(=O)(=O)C([H])([H])[H])c4c([H])c([H])c([H])c([H])c34)C(=O)N([H])C2=O)c2c([H])c([H])c([H])c([H])c21


 37 41  0  0  0  0  0  0  0  0999 V2000
    4.0927    3.0309   17.8550 C   0  0  0  0  0  0  0  0  0  0  0  0
    4.2582    3.8188   16.8052 C   0  0  0  0  0  0  0  0  0  0  0  0
    3.8884    3.0220   15.6136 C   0  0  0  0  0  0  0  0  0  0  0  0
    3.9180    3.4247   14.4296 O   0  0  0  0  0  0  0  0  0  0  0  0
    3.4945    1.7250   16.0236 N   0  0  0  0  0  0  0  0  0  0  0  0
    3.6137    1.7042   17.4390 C   0  0  0  0  0  0  0  0  0  0  0  0
    3.3669    0.7534   18.2323 O   0  0  0  0  0  0  0  0  0  0  0  0
    3.1719    0.9176   15.4139 H   0  0  0  0  0  0  0  0  0  0  0  0
    4.3416    4.6206   21.1222 N   0  0  0  0  0  0  0  0  0  0  0  0
    3.9244    4.6101   19.8517 C   0  0  0  0  0  0  0  0  0  0  0  0
    4.3433    3.4380   19.2451 C   0  0  0  0  0  0  0  0  0  0  0  0
    5.0348    2.7449   20.2102 C   0  0  0  0  0  0  0  0  0  0  0  0
    5.7047    1.5240   20.2156 C   0  0  0  0  0  0  0  0  0  0  0  0
    6.3404    1.0740   21.3542 C   0  0  0  0  0  0  0  0  0  0  0  0
    6.3451    1.8061   22.5415 C   0  0  0  0  0  0  0  0  0  0  0  0
    5.6790    3.0056   22.5117 C   0  0  0  0  0  0  0  0  0  0  0  0
    5.0379    3.4768   21.3861 C   0  0  0  0  0  0  0  0  0  0  0  0
    4.0685    5.6618   22.1145 C   0  0  0  0  0  0  0  0  0  0  0  0
    4.9039    6.8984   21.7898 C   0  0  0  0  0  0  0  0  0  0  0  0
    6.3163    6.7776   22.2644 C   0  0  0  0  0  0  0  0  0  0  0  0
    7.5079    8.3483   24.3883 C   0  0  0  0  0  0  0  0  0  0  0  0
    6.9389    8.3652   22.7312 S   0  0  0  0  0  0  0  0  0  0  0  0
    5.9146    9.4423   22.5833 O   0  0  0  0  0  0  0  0  0  0  0  0
    8.1010    8.7483   21.8478 O   0  0  0  0  0  0  0  0  0  0  0  0
    4.7718    5.1806   16.8009 C   0  0  0  0  0  0  0  0  0  0  0  0
    5.8824    5.6237   17.5008 C   0  0  0  0  0  0  0  0  0  0  0  0
    6.0547    6.9351   17.2443 N   0  0  0  0  0  0  0  0  0  0  0  0
    5.1022    7.3864   16.4031 C   0  0  0  0  0  0  0  0  0  0  0  0
    4.8501    8.6280   15.8611 C   0  0  0  0  0  0  0  0  0  0  0  0
    3.7674    8.7684   15.0253 C   0  0  0  0  0  0  0  0  0  0  0  0
    2.9658    7.6894   14.7469 C   0  0  0  0  0  0  0  0  0  0  0  0
    3.2251    6.4516   15.2920 C   0  0  0  0  0  0  0  0  0  0  0  0
    4.2976    6.2739   16.1295 C   0  0  0  0  0  0  0  0  0  0  0  0
    7.1297    7.7431   17.7761 C   0  0  0  0  0  0  0  0  0  0  0  0
    7.8140    6.8413   18.8206 C   0  0  0  0  0  0  0  0  0  0  0  0
    8.9424    7.4815   19.2708 O   0  0  0  0  0  0  0  0  0  0  0  0
    9.6875    6.8493   19.4224 H   0  0  0  0  0  0  0  0  0  0  0  0
 21 22  1  0  0  0
 22 23  2  0  0  0
 22 24  2  0  0  0
 22 20  1  0  0  0
 20 19  1  0  0  0
 19 18  1  0  0  0
 18  9  1  0  0  0
  9 10  1  0  0  0
 10 11  2  0  0  0
 11  1  1  0  0  0
  1  2  2  0  0  0
  2  3  1  0  0  0
  3  4  2  0  0  0
  3  5  1  0  0  0
  5  6  1  0  0  0
  6  7  2  0  0  0
  2 25  1  0  0  0
 25 26  2  0  0  0
 26 27  1  0  0  0
 27 34  1  0  0  0
 34 35  1  0  0  0
 35 36  1  0  0  0
 27 28  1  0  0  0
 28 29  2  0  0  0
 29 30  1  0  0  0
 30 31  2  0  0  0
 31 32  1  0  0  0
 32 33  2  0  0  0
 11 12  1  0  0  0
 12 13  2  0  0  0
 13 14  1  0  0  0
 14 15  2  0  0  0
 15 16  1  0  0  0
 16 17  2  0  0  0
 17  9  1  0  0  0
  6  1  1  0  0  0
 33 25  1  0  0  0
 17 12  1  0  0  0
 33 28  1  0  0  0
  5  8  1  0  0  0
 36 37  1  0  0  0
M  END
> <minimizedAffinity>
-8.42797

> <CNNscore>
0.2910976410

> <CNNaffinity>
6.2145614624

> <CNN_VS>
1.8090441227

> <CNNaffinity_variance>
0.2459533662

$$$$
[H]OC([H])([H])C([H])([H])n1c([H])c(C2=C(c3c([H])n(C([H])([H])C([H])([H])C([H])([H])S(=O)(=O)C([H])([H])[H])c4c([H])c([H])c([H])c([H])c34)C(=O)N([H])C2=O)c2c([H])c([H])c([H])c([H])c21


 37 41  0  0  0  0  0  0  0  0999 V2000
    4.4576    2.3384   21.2160 C   0  0  0  0  0  0  0  0  0  0  0  0
    5.1177    2.8642   22.2348 C   0  0  0  0  0  0  0  0  0  0  0  0
    4.6935    2.1227   23.4439 C   0  0  0  0  0  0  0  0  0  0  0  0
    5.0992    2.3339   24.6082 O   0  0  0  0  0  0  0  0  0  0  0  0
    3.7506    1.1319   23.0766 N   0  0  0  0  0  0  0  0  0  0  0  0
    3.5838    1.2463   21.6705 C   0  0  0  0  0  0  0  0  0  0  0  0
    2.8406    0.5639   20.9114 O   0  0  0  0  0  0  0  0  0  0  0  0
    3.2569    0.4349   23.7076 H   0  0  0  0  0  0  0  0  0  0  0  0
    5.1317    3.9990   18.0456 N   0  0  0  0  0  0  0  0  0  0  0  0
    5.2024    3.9455   19.3799 C   0  0  0  0  0  0  0  0  0  0  0  0
    4.5942    2.7826   19.8213 C   0  0  0  0  0  0  0  0  0  0  0  0
    4.1515    2.1402   18.6894 C   0  0  0  0  0  0  0  0  0  0  0  0
    3.4587    0.9516   18.4735 C   0  0  0  0  0  0  0  0  0  0  0  0
    3.1247    0.5527   17.1959 C   0  0  0  0  0  0  0  0  0  0  0  0
    3.4585    1.3064   16.0707 C   0  0  0  0  0  0  0  0  0  0  0  0
    4.1404    2.4734   16.3086 C   0  0  0  0  0  0  0  0  0  0  0  0
    4.4839    2.8935   17.5757 C   0  0  0  0  0  0  0  0  0  0  0  0
    5.6948    5.0451   17.1900 C   0  0  0  0  0  0  0  0  0  0  0  0
    4.8723    6.3222   17.3487 C   0  0  0  0  0  0  0  0  0  0  0  0
    4.1804    6.7201   16.0848 C   0  0  0  0  0  0  0  0  0  0  0  0
    3.8899    9.6030   16.1301 C   0  0  0  0  0  0  0  0  0  0  0  0
    4.8218    8.2600   15.4990 S   0  0  0  0  0  0  0  0  0  0  0  0
    4.8338    8.3392   14.0075 O   0  0  0  0  0  0  0  0  0  0  0  0
    6.2501    8.4349   15.9537 O   0  0  0  0  0  0  0  0  0  0  0  0
    6.0304    3.9973   22.1997 C   0  0  0  0  0  0  0  0  0  0  0  0
    7.4004    3.9331   22.3966 C   0  0  0  0  0  0  0  0  0  0  0  0
    7.9081    5.1756   22.2804 N   0  0  0  0  0  0  0  0  0  0  0  0
    6.9319    6.0677   22.0164 C   0  0  0  0  0  0  0  0  0  0  0  0
    6.9439    7.4320   21.8233 C   0  0  0  0  0  0  0  0  0  0  0  0
    5.7498    8.0676   21.5768 C   0  0  0  0  0  0  0  0  0  0  0  0
    4.5820    7.3477   21.5276 C   0  0  0  0  0  0  0  0  0  0  0  0
    4.5786    5.9841   21.7209 C   0  0  0  0  0  0  0  0  0  0  0  0
    5.7517    5.3162   21.9681 C   0  0  0  0  0  0  0  0  0  0  0  0
    9.3115    5.5051   22.3958 C   0  0  0  0  0  0  0  0  0  0  0  0
    9.4063    6.3611   23.6728 C   0  0  0  0  0  0  0  0  0  0  0  0
    9.5056    5.5175   24.7518 O   0  0  0  0  0  0  0  0  0  0  0  0
    9.0007    5.8572   25.5312 H   0  0  0  0  0  0  0  0  0  0  0  0
 21 22  1  0  0  0
 22 23  2  0  0  0
 22 24  2  0  0  0
 22 20  1  0  0  0
 20 19  1  0  0  0
 19 18  1  0  0  0
 18  9  1  0  0  0
  9 10  1  0  0  0
 10 11  2  0  0  0
 11  1  1  0  0  0
  1  2  2  0  0  0
  2  3  1  0  0  0
  3  4  2  0  0  0
  3  5  1  0  0  0
  5  6  1  0  0  0
  6  7  2  0  0  0
  2 25  1  0  0  0
 25 26  2  0  0  0
 26 27  1  0  0  0
 27 34  1  0  0  0
 34 35  1  0  0  0
 35 36  1  0  0  0
 27 28  1  0  0  0
 28 29  2  0  0  0
 29 30  1  0  0  0
 30 31  2  0  0  0
 31 32  1  0  0  0
 32 33  2  0  0  0
 11 12  1  0  0  0
 12 13  2  0  0  0
 13 14  1  0  0  0
 14 15  2  0  0  0
 15 16  1  0  0  0
 16 17  2  0  0  0
 17  9  1  0  0  0
  6  1  1  0  0  0
 33 25  1  0  0  0
 17 12  1  0  0  0
 33 28  1  0  0  0
  5  8  1  0  0  0
 36 37  1  0  0  0
M  END
> <minimizedAffinity>
-8.92542

> <CNNscore>
0.2645606101

> <CNNaffinity>
6.4881162643

> <CNN_VS>
1.7165000439

> <CNNaffinity_variance>
0.3061205745

$$$$
[H]OC([H])([H])C([H])([H])n1c([H])c(C2=C(c3c([H])n(C([H])([H])C([H])([H])C([H])([H])S(=O)(=O)C([H])([H])[H])c4c([H])c([H])c([H])c([H])c34)C(=O)N([H])C2=O)c2c([H])c([H])c([H])c([H])c21


 37 41  0  0  0  0  0  0  0  0999 V2000
    4.8374    3.2584   20.1247 C   0  0  0  0  0  0  0  0  0  0  0  0
    5.4689    4.1888   20.8217 C   0  0  0  0  0  0  0  0  0  0  0  0
    6.1055    3.5019   21.9681 C   0  0  0  0  0  0  0  0  0  0  0  0
    6.7921    4.0517   22.8576 O   0  0  0  0  0  0  0  0  0  0  0  0
    5.8144    2.1175   21.9026 N   0  0  0  0  0  0  0  0  0  0  0  0
    5.0132    1.9360   20.7437 C   0  0  0  0  0  0  0  0  0  0  0  0
    4.5228    0.8647   20.2899 O   0  0  0  0  0  0  0  0  0  0  0  0
    6.1224    1.3533   22.5726 H   0  0  0  0  0  0  0  0  0  0  0  0
    2.8908    4.5603   17.3356 N   0  0  0  0  0  0  0  0  0  0  0  0
    3.4904    4.7151   18.5209 C   0  0  0  0  0  0  0  0  0  0  0  0
    4.0769    3.5176   18.8937 C   0  0  0  0  0  0  0  0  0  0  0  0
    3.7993    2.6339   17.8777 C   0  0  0  0  0  0  0  0  0  0  0  0
    4.0950    1.2886   17.6730 C   0  0  0  0  0  0  0  0  0  0  0  0
    3.6623    0.6369   16.5368 C   0  0  0  0  0  0  0  0  0  0  0  0
    2.9180    1.2809   15.5483 C   0  0  0  0  0  0  0  0  0  0  0  0
    2.6388    2.6058   15.7724 C   0  0  0  0  0  0  0  0  0  0  0  0
    3.0590    3.2779   16.9002 C   0  0  0  0  0  0  0  0  0  0  0  0
    2.1946    5.5999   16.5753 C   0  0  0  0  0  0  0  0  0  0  0  0
    3.1818    6.2753   15.6255 C   0  0  0  0  0  0  0  0  0  0  0  0
    2.5970    6.5255   14.2727 C   0  0  0  0  0  0  0  0  0  0  0  0
    4.7684    8.4282   14.0227 C   0  0  0  0  0  0  0  0  0  0  0  0
    3.0751    8.1248   13.6898 S   0  0  0  0  0  0  0  0  0  0  0  0
    2.2598    9.2180   14.2991 O   0  0  0  0  0  0  0  0  0  0  0  0
    2.8745    8.2154   12.1968 O   0  0  0  0  0  0  0  0  0  0  0  0
    5.4833    5.6212   20.5644 C   0  0  0  0  0  0  0  0  0  0  0  0
    4.9983    6.5971   21.4201 C   0  0  0  0  0  0  0  0  0  0  0  0
    5.1919    7.8018   20.8488 N   0  0  0  0  0  0  0  0  0  0  0  0
    5.7843    7.6696   19.6446 C   0  0  0  0  0  0  0  0  0  0  0  0
    6.1738    8.5863   18.6923 C   0  0  0  0  0  0  0  0  0  0  0  0
    6.7561    8.1209   17.5370 C   0  0  0  0  0  0  0  0  0  0  0  0
    6.9383    6.7732   17.3502 C   0  0  0  0  0  0  0  0  0  0  0  0
    6.5470    5.8635   18.3074 C   0  0  0  0  0  0  0  0  0  0  0  0
    5.9636    6.2918   19.4733 C   0  0  0  0  0  0  0  0  0  0  0  0
    4.8380    9.0662   21.4549 C   0  0  0  0  0  0  0  0  0  0  0  0
    6.0897    9.4795   22.2516 C   0  0  0  0  0  0  0  0  0  0  0  0
    5.7464    9.5718   23.5780 O   0  0  0  0  0  0  0  0  0  0  0  0
    6.2024   10.3276   24.0236 H   0  0  0  0  0  0  0  0  0  0  0  0
 21 22  1  0  0  0
 22 23  2  0  0  0
 22 24  2  0  0  0
 22 20  1  0  0  0
 20 19  1  0  0  0
 19 18  1  0  0  0
 18  9  1  0  0  0
  9 10  1  0  0  0
 10 11  2  0  0  0
 11  1  1  0  0  0
  1  2  2  0  0  0
  2  3  1  0  0  0
  3  4  2  0  0  0
  3  5  1  0  0  0
  5  6  1  0  0  0
  6  7  2  0  0  0
  2 25  1  0  0  0
 25 26  2  0  0  0
 26 27  1  0  0  0
 27 34  1  0  0  0
 34 35  1  0  0  0
 35 36  1  0  0  0
 27 28  1  0  0  0
 28 29  2  0  0  0
 29 30  1  0  0  0
 30 31  2  0  0  0
 31 32  1  0  0  0
 32 33  2  0  0  0
 11 12  1  0  0  0
 12 13  2  0  0  0
 13 14  1  0  0  0
 14 15  2  0  0  0
 15 16  1  0  0  0
 16 17  2  0  0  0
 17  9  1  0  0  0
  6  1  1  0  0  0
 33 25  1  0  0  0
 17 12  1  0  0  0
 33 28  1  0  0  0
  5  8  1  0  0  0
 36 37  1  0  0  0
M  END
> <minimizedAffinity>
-8.35273

> <CNNscore>
0.2642042041

> <CNNaffinity>
6.2617254257

> <CNN_VS>
1.6543742418

> <CNNaffinity_variance>
0.1906526387

$$$$
[H]OC([H])([H])C([H])([H])n1c([H])c(C2=C(c3c([H])n(C([H])([H])C([H])([H])C([H])([H])S(=O)(=O)C([H])([H])[H])c4c([H])c([H])c([H])c([H])c34)C(=O)N([H])C2=O)c2c([H])c([H])c([H])c([H])c21


 37 41  0  0  0  0  0  0  0  0999 V2000
    4.4156    2.9358   20.6321 C   0  0  0  0  0  0  0  0  0  0  0  0
    4.7775    3.6119   21.7101 C   0  0  0  0  0  0  0  0  0  0  0  0
    4.5226    2.7290   22.8707 C   0  0  0  0  0  0  0  0  0  0  0  0
    4.7370    3.0193   24.0685 O   0  0  0  0  0  0  0  0  0  0  0  0
    3.9942    1.4974   22.4128 N   0  0  0  0  0  0  0  0  0  0  0  0
    3.9170    1.6015   20.9982 C   0  0  0  0  0  0  0  0  0  0  0  0
    3.5072    0.7409   20.1703 O   0  0  0  0  0  0  0  0  0  0  0  0
    3.7077    0.6545   22.9917 H   0  0  0  0  0  0  0  0  0  0  0  0
    4.9444    4.7850   17.5395 N   0  0  0  0  0  0  0  0  0  0  0  0
    5.0189    4.6798   18.8706 C   0  0  0  0  0  0  0  0  0  0  0  0
    4.5138    3.4505   19.2586 C   0  0  0  0  0  0  0  0  0  0  0  0
    4.1292    2.8219   18.0981 C   0  0  0  0  0  0  0  0  0  0  0  0
    3.5424    1.5881   17.8279 C   0  0  0  0  0  0  0  0  0  0  0  0
    3.2449    1.2177   16.5328 C   0  0  0  0  0  0  0  0  0  0  0  0
    3.5124    2.0458   15.4427 C   0  0  0  0  0  0  0  0  0  0  0  0
    4.0902    3.2561   15.7338 C   0  0  0  0  0  0  0  0  0  0  0  0
    4.3954    3.6489   17.0194 C   0  0  0  0  0  0  0  0  0  0  0  0
    5.4149    5.9123   16.7324 C   0  0  0  0  0  0  0  0  0  0  0  0
    4.3485    7.0056   16.7247 C   0  0  0  0  0  0  0  0  0  0  0  0
    3.6806    7.1466   15.3948 C   0  0  0  0  0  0  0  0  0  0  0  0
    4.8742    9.3607   13.9558 C   0  0  0  0  0  0  0  0  0  0  0  0
    3.5344    8.8555   14.9657 S   0  0  0  0  0  0  0  0  0  0  0  0
    3.4760    9.7395   16.1683 O   0  0  0  0  0  0  0  0  0  0  0  0
    2.2594    9.0903   14.1931 O   0  0  0  0  0  0  0  0  0  0  0  0
    5.2640    4.9824   21.7656 C   0  0  0  0  0  0  0  0  0  0  0  0
    4.4993    6.1171   21.5475 C   0  0  0  0  0  0  0  0  0  0  0  0
    5.2883    7.1994   21.6930 N   0  0  0  0  0  0  0  0  0  0  0  0
    6.5500    6.8333   21.9970 C   0  0  0  0  0  0  0  0  0  0  0  0
    7.6995    7.5566   22.2302 C   0  0  0  0  0  0  0  0  0  0  0  0
    8.8572    6.8707   22.5123 C   0  0  0  0  0  0  0  0  0  0  0  0
    8.8533    5.4987   22.5568 C   0  0  0  0  0  0  0  0  0  0  0  0
    7.6999    4.7831   22.3234 C   0  0  0  0  0  0  0  0  0  0  0  0
    6.5256    5.4342   22.0399 C   0  0  0  0  0  0  0  0  0  0  0  0
    4.8387    8.5681   21.5675 C   0  0  0  0  0  0  0  0  0  0  0  0
    4.7543    8.8120   20.0490 C   0  0  0  0  0  0  0  0  0  0  0  0
    3.4327    8.9660   19.7091 O   0  0  0  0  0  0  0  0  0  0  0  0
    3.2264    8.5464   18.8378 H   0  0  0  0  0  0  0  0  0  0  0  0
 21 22  1  0  0  0
 22 23  2  0  0  0
 22 24  2  0  0  0
 22 20  1  0  0  0
 20 19  1  0  0  0
 19 18  1  0  0  0
 18  9  1  0  0  0
  9 10  1  0  0  0
 10 11  2  0  0  0
 11  1  1  0  0  0
  1  2  2  0  0  0
  2  3  1  0  0  0
  3  4  2  0  0  0
  3  5  1  0  0  0
  5  6  1  0  0  0
  6  7  2  0  0  0
  2 25  1  0  0  0
 25 26  2  0  0  0
 26 27  1  0  0  0
 27 34  1  0  0  0
 34 35  1  0  0  0
 35 36  1  0  0  0
 27 28  1  0  0  0
 28 29  2  0  0  0
 29 30  1  0  0  0
 30 31  2  0  0  0
 31 32  1  0  0  0
 32 33  2  0  0  0
 11 12  1  0  0  0
 12 13  2  0  0  0
 13 14  1  0  0  0
 14 15  2  0  0  0
 15 16  1  0  0  0
 16 17  2  0  0  0
 17  9  1  0  0  0
  6  1  1  0  0  0
 33 25  1  0  0  0
 17 12  1  0  0  0
 33 28  1  0  0  0
  5  8  1  0  0  0
 36 37  1  0  0  0
M  END
> <minimizedAffinity>
-9.36568

> <CNNscore>
0.2486853749

> <CNNaffinity>
6.4262170792

> <CNN_VS>
1.5981061459

> <CNNaffinity_variance>
0.1408367902

$$$$
[H]OC([H])([H])C([H])([H])n1c([H])c(C2=C(c3c([H])n(C([H])([H])C([H])([H])C([H])([H])S(=O)(=O)C([H])([H])[H])c4c([H])c([H])c([H])c([H])c34)C(=O)N([H])C2=O)c2c([H])c([H])c([H])c([H])c21


 37 41  0  0  0  0  0  0  0  0999 V2000
    4.4533    3.6701   19.1360 C   0  0  0  0  0  0  0  0  0  0  0  0
    4.8076    4.5875   20.0209 C   0  0  0  0  0  0  0  0  0  0  0  0
    4.9860    3.8857   21.3122 C   0  0  0  0  0  0  0  0  0  0  0  0
    5.3184    4.4209   22.3929 O   0  0  0  0  0  0  0  0  0  0  0  0
    4.7194    2.5063   21.1341 N   0  0  0  0  0  0  0  0  0  0  0  0
    4.3805    2.3424   19.7643 C   0  0  0  0  0  0  0  0  0  0  0  0
    4.0698    1.2809   19.1555 O   0  0  0  0  0  0  0  0  0  0  0  0
    4.7591    1.7345   21.8624 H   0  0  0  0  0  0  0  0  0  0  0  0
    4.0202    5.0092   15.7771 N   0  0  0  0  0  0  0  0  0  0  0  0
    4.3752    5.1491   17.0588 C   0  0  0  0  0  0  0  0  0  0  0  0
    4.1837    3.9465   17.7176 C   0  0  0  0  0  0  0  0  0  0  0  0
    3.6939    3.0769   16.7722 C   0  0  0  0  0  0  0  0  0  0  0  0
    3.2936    1.7438   16.8152 C   0  0  0  0  0  0  0  0  0  0  0  0
    2.8153    1.1147   15.6845 C   0  0  0  0  0  0  0  0  0  0  0  0
    2.7095    1.7701   14.4577 C   0  0  0  0  0  0  0  0  0  0  0  0
    3.1095    3.0828   14.4402 C   0  0  0  0  0  0  0  0  0  0  0  0
    3.5893    3.7331   15.5569 C   0  0  0  0  0  0  0  0  0  0  0  0
    4.1133    6.0344   14.7361 C   0  0  0  0  0  0  0  0  0  0  0  0
    2.8227    6.8508   14.7168 C   0  0  0  0  0  0  0  0  0  0  0  0
    2.6354    7.5982   13.4357 C   0  0  0  0  0  0  0  0  0  0  0  0
    0.2056    6.0191   13.4410 C   0  0  0  0  0  0  0  0  0  0  0  0
    1.4125    6.8001   12.4391 S   0  0  0  0  0  0  0  0  0  0  0  0
    2.0055    5.7850   11.5176 O   0  0  0  0  0  0  0  0  0  0  0  0
    0.7069    7.8132   11.5712 O   0  0  0  0  0  0  0  0  0  0  0  0
    4.9310    6.0206   19.7995 C   0  0  0  0  0  0  0  0  0  0  0  0
    3.9073    6.8638   19.3984 C   0  0  0  0  0  0  0  0  0  0  0  0
    4.3948    8.1166   19.3091 N   0  0  0  0  0  0  0  0  0  0  0  0
    5.7039    8.1437   19.6317 C   0  0  0  0  0  0  0  0  0  0  0  0
    6.6298    9.1630   19.6832 C   0  0  0  0  0  0  0  0  0  0  0  0
    7.9194    8.8564   20.0483 C   0  0  0  0  0  0  0  0  0  0  0  0
    8.2620    7.5620   20.3511 C   0  0  0  0  0  0  0  0  0  0  0  0
    7.3303    6.5491   20.2980 C   0  0  0  0  0  0  0  0  0  0  0  0
    6.0335    6.8182   19.9387 C   0  0  0  0  0  0  0  0  0  0  0  0
    3.6155    9.2786   18.9435 C   0  0  0  0  0  0  0  0  0  0  0  0
    3.9648    9.5317   17.4648 C   0  0  0  0  0  0  0  0  0  0  0  0
    2.8039    9.8197   16.7901 O   0  0  0  0  0  0  0  0  0  0  0  0
    2.7983    9.4244   15.8837 H   0  0  0  0  0  0  0  0  0  0  0  0
 21 22  1  0  0  0
 22 23  2  0  0  0
 22 24  2  0  0  0
 22 20  1  0  0  0
 20 19  1  0  0  0
 19 18  1  0  0  0
 18  9  1  0  0  0
  9 10  1  0  0  0
 10 11  2  0  0  0
 11  1  1  0  0  0
  1  2  2  0  0  0
  2  3  1  0  0  0
  3  4  2  0  0  0
  3  5  1  0  0  0
  5  6  1  0  0  0
  6  7  2  0  0  0
  2 25  1  0  0  0
 25 26  2  0  0  0
 26 27  1  0  0  0
 27 34  1  0  0  0
 34 35  1  0  0  0
 35 36  1  0  0  0
 27 28  1  0  0  0
 28 29  2  0  0  0
 29 30  1  0  0  0
 30 31  2  0  0  0
 31 32  1  0  0  0
 32 33  2  0  0  0
 11 12  1  0  0  0
 12 13  2  0  0  0
 13 14  1  0  0  0
 14 15  2  0  0  0
 15 16  1  0  0  0
 16 17  2  0  0  0
 17  9  1  0  0  0
  6  1  1  0  0  0
 33 25  1  0  0  0
 17 12  1  0  0  0
 33 28  1  0  0  0
  5  8  1  0  0  0
 36 37  1  0  0  0
M  END
> <minimizedAffinity>
-8.35434

> <CNNscore>
0.2196747661

> <CNNaffinity>
6.2996840477

> <CNN_VS>
1.3838815689

> <CNNaffinity_variance>
0.1726708412

$$$$
[H]OC([H])([H])C([H])([H])n1c([H])c(C2=C(c3c([H])n(C([H])([H])C([H])([H])C([H])([H])S(=O)(=O)C([H])([H])[H])c4c([H])c([H])c([H])c([H])c34)C(=O)N([H])C2=O)c2c([H])c([H])c([H])c([H])c21


 37 41  0  0  0  0  0  0  0  0999 V2000
    4.4031    4.4745   12.3424 C   0  0  0  0  0  0  0  0  0  0  0  0
    4.3192    3.3089   11.7223 C   0  0  0  0  0  0  0  0  0  0  0  0
    3.9371    2.3098   12.7457 C   0  0  0  0  0  0  0  0  0  0  0  0
    3.7631    1.0878   12.5422 O   0  0  0  0  0  0  0  0  0  0  0  0
    3.7990    2.9550   13.9988 N   0  0  0  0  0  0  0  0  0  0  0  0
    4.0878    4.3272   13.7713 C   0  0  0  0  0  0  0  0  0  0  0  0
    4.0865    5.2767   14.6035 O   0  0  0  0  0  0  0  0  0  0  0  0
    3.5341    2.5206   14.9309 H   0  0  0  0  0  0  0  0  0  0  0  0
    4.5850    7.7805   10.8258 N   0  0  0  0  0  0  0  0  0  0  0  0
    3.9036    6.8084   11.4413 C   0  0  0  0  0  0  0  0  0  0  0  0
    4.7520    5.7413   11.6833 C   0  0  0  0  0  0  0  0  0  0  0  0
    5.9758    6.1163   11.1816 C   0  0  0  0  0  0  0  0  0  0  0  0
    7.2133    5.4821   11.1055 C   0  0  0  0  0  0  0  0  0  0  0  0
    8.2917    6.1095   10.5171 C   0  0  0  0  0  0  0  0  0  0  0  0
    8.2013    7.3921    9.9763 C   0  0  0  0  0  0  0  0  0  0  0  0
    6.9722    7.9964   10.0627 C   0  0  0  0  0  0  0  0  0  0  0  0
    5.8799    7.3894   10.6445 C   0  0  0  0  0  0  0  0  0  0  0  0
    4.0623    9.0916   10.4369 C   0  0  0  0  0  0  0  0  0  0  0  0
    3.5767    9.8297   11.6827 C   0  0  0  0  0  0  0  0  0  0  0  0
    2.9112    8.9208   12.6654 C   0  0  0  0  0  0  0  0  0  0  0  0
    1.2089    7.8492   10.5794 C   0  0  0  0  0  0  0  0  0  0  0  0
    1.2472    8.5966   12.1638 S   0  0  0  0  0  0  0  0  0  0  0  0
    0.4120    9.8346   12.1340 O   0  0  0  0  0  0  0  0  0  0  0  0
    0.5857    7.6510   13.1365 O   0  0  0  0  0  0  0  0  0  0  0  0
    4.6130    3.0346   10.3236 C   0  0  0  0  0  0  0  0  0  0  0  0
    4.0516    2.0178    9.5680 C   0  0  0  0  0  0  0  0  0  0  0  0
    4.5567    2.0826    8.3207 N   0  0  0  0  0  0  0  0  0  0  0  0
    5.4350    3.1002    8.2133 C   0  0  0  0  0  0  0  0  0  0  0  0
    6.2041    3.5606    7.1667 C   0  0  0  0  0  0  0  0  0  0  0  0
    7.0268    4.6402    7.3859 C   0  0  0  0  0  0  0  0  0  0  0  0
    7.0710    5.2346    8.6225 C   0  0  0  0  0  0  0  0  0  0  0  0
    6.2984    4.7689    9.6632 C   0  0  0  0  0  0  0  0  0  0  0  0
    5.4648    3.6942    9.4807 C   0  0  0  0  0  0  0  0  0  0  0  0
    4.1878    1.1992    7.2367 C   0  0  0  0  0  0  0  0  0  0  0  0
    3.6582    2.1359    6.1347 C   0  0  0  0  0  0  0  0  0  0  0  0
    4.7319    2.7420    5.5302 O   0  0  0  0  0  0  0  0  0  0  0  0
    4.5400    3.6843    5.2997 H   0  0  0  0  0  0  0  0  0  0  0  0
 21 22  1  0  0  0
 22 23  2  0  0  0
 22 24  2  0  0  0
 22 20  1  0  0  0
 20 19  1  0  0  0
 19 18  1  0  0  0
 18  9  1  0  0  0
  9 10  1  0  0  0
 10 11  2  0  0  0
 11  1  1  0  0  0
  1  2  2  0  0  0
  2  3  1  0  0  0
  3  4  2  0  0  0
  3  5  1  0  0  0
  5  6  1  0  0  0
  6  7  2  0  0  0
  2 25  1  0  0  0
 25 26  2  0  0  0
 26 27  1  0  0  0
 27 34  1  0  0  0
 34 35  1  0  0  0
 35 36  1  0  0  0
 27 28  1  0  0  0
 28 29  2  0  0  0
 29 30  1  0  0  0
 30 31  2  0  0  0
 31 32  1  0  0  0
 32 33  2  0  0  0
 11 12  1  0  0  0
 12 13  2  0  0  0
 13 14  1  0  0  0
 14 15  2  0  0  0
 15 16  1  0  0  0
 16 17  2  0  0  0
 17  9  1  0  0  0
  6  1  1  0  0  0
 33 25  1  0  0  0
 17 12  1  0  0  0
 33 28  1  0  0  0
  5  8  1  0  0  0
 36 37  1  0  0  0
M  END
> <minimizedAffinity>
11.16017

> <CNNscore>
0.2042777687

> <CNNaffinity>
5.0379767418

> <CNN_VS>
1.0291466713

> <CNNaffinity_variance>
0.7959731817

$$$$
[H]c1nc(N([H])c2c([H])c([H])c(N3C([H])([H])C([H])([H])N([H])C([H])([H])C3([H])[H])c([H])c2[H])nc(N([H])c2c([H])c(Br)c([H])c([H])c2C([H])([H])[H])c1[H]


 31 34  0  0  0  0  0  0  0  0999 V2000
    4.2068    1.7158   20.7344 C   0  0  0  0  0  0  0  0  0  0  0  0
    3.6056    0.7830   21.5381 C   0  0  0  0  0  0  0  0  0  0  0  0
    2.8483   -0.2450   20.9520 C   0  0  0  0  0  0  0  0  0  0  0  0
    2.7309   -0.2879   19.6336 N   0  0  0  0  0  0  0  0  0  0  0  0
    3.2950    0.5978   18.8029 C   0  0  0  0  0  0  0  0  0  0  0  0
    4.0154    1.5690   19.4129 N   0  0  0  0  0  0  0  0  0  0  0  0
    5.0336    2.7482   21.2416 N   0  0  0  0  0  0  0  0  0  0  0  0
    5.7177    2.3483   22.0097 H   0  0  0  0  0  0  0  0  0  0  0  0
    4.1267    4.5121   23.2240 C   0  0  0  0  0  0  0  0  0  0  0  0
    4.6559    5.0002   21.9317 C   0  0  0  0  0  0  0  0  0  0  0  0
    4.6674    6.3555   21.6992 C   0  0  0  0  0  0  0  0  0  0  0  0
    5.1393    6.8742   20.5344 C   0  0  0  0  0  0  0  0  0  0  0  0
    5.6068    6.0227   19.5854 C   0  0  0  0  0  0  0  0  0  0  0  0
    6.2673    6.7506   17.9543 Br  0  0  0  0  0  0  0  0  0  0  0  0
    5.5947    4.6375   19.8214 C   0  0  0  0  0  0  0  0  0  0  0  0
    5.1352    4.0861   20.9675 C   0  0  0  0  0  0  0  0  0  0  0  0
    3.1832    0.5723   17.3914 N   0  0  0  0  0  0  0  0  0  0  0  0
    2.8988   -0.3778   16.9912 H   0  0  0  0  0  0  0  0  0  0  0  0
    3.4047    1.6205   16.5261 C   0  0  0  0  0  0  0  0  0  0  0  0
    4.0775    2.7727   16.8211 C   0  0  0  0  0  0  0  0  0  0  0  0
    4.2283    3.8025   15.8717 C   0  0  0  0  0  0  0  0  0  0  0  0
    3.6860    3.6413   14.6213 C   0  0  0  0  0  0  0  0  0  0  0  0
    3.0110    2.4933   14.3129 C   0  0  0  0  0  0  0  0  0  0  0  0
    2.8595    1.4872   15.2298 C   0  0  0  0  0  0  0  0  0  0  0  0
    3.8275    4.6637   13.6585 N   0  0  0  0  0  0  0  0  0  0  0  0
    4.3141    4.3110   12.3406 C   0  0  0  0  0  0  0  0  0  0  0  0
    4.6610    5.4788   11.4836 C   0  0  0  0  0  0  0  0  0  0  0  0
    4.9065    6.6656   12.2436 N   0  0  0  0  0  0  0  0  0  0  0  0
    3.6878    7.0228   12.9560 C   0  0  0  0  0  0  0  0  0  0  0  0
    3.4751    6.0214   14.0421 C   0  0  0  0  0  0  0  0  0  0  0  0
    5.6882    6.4882   12.8879 H   0  0  0  0  0  0  0  0  0  0  0  0
  9 10  1  0  0  0
 10 11  2  0  0  0
 11 12  1  0  0  0
 12 13  2  0  0  0
 13 14  1  0  0  0
 13 15  1  0  0  0
 15 16  2  0  0  0
 16  7  1  0  0  0
  7  1  1  0  0  0
  1  2  2  0  0  0
  2  3  1  0  0  0
  3  4  2  0  0  0
  4  5  1  0  0  0
  5 17  1  0  0  0
 17 19  1  0  0  0
 19 20  2  0  0  0
 20 21  1  0  0  0
 21 22  2  0  0  0
 22 23  1  0  0  0
 23 24  2  0  0  0
 22 25  1  0  0  0
 25 26  1  0  0  0
 26 27  1  0  0  0
 27 28  1  0  0  0
 28 29  1  0  0  0
 29 30  1  0  0  0
  5  6  2  0  0  0
 16 10  1  0  0  0
  6  1  1  0  0  0
 24 19  1  0  0  0
 30 25  1  0  0  0
  7  8  1  0  0  0
 17 18  1  0  0  0
 28 31  1  0  0  0
M  END
> <minimizedAffinity>
-8.69130

> <CNNscore>
0.7157911062

> <CNNaffinity>
7.1030435562

> <CNN_VS>
5.0842952728

> <CNNaffinity_variance>
0.2533883452

$$$$
[H]c1nc(N([H])c2c([H])c([H])c(N3C([H])([H])C([H])([H])N([H])C([H])([H])C3([H])[H])c([H])c2[H])nc(N([H])c2c([H])c(Br)c([H])c([H])c2C([H])([H])[H])c1[H]


 31 34  0  0  0  0  0  0  0  0999 V2000
    3.7734    1.0577   19.4690 C   0  0  0  0  0  0  0  0  0  0  0  0
    3.0115   -0.0175   19.8443 C   0  0  0  0  0  0  0  0  0  0  0  0
    2.2212   -0.6701   18.8833 C   0  0  0  0  0  0  0  0  0  0  0  0
    2.2294   -0.2289   17.6346 N   0  0  0  0  0  0  0  0  0  0  0  0
    2.9528    0.8166   17.2150 C   0  0  0  0  0  0  0  0  0  0  0  0
    3.6987    1.4127   18.1756 N   0  0  0  0  0  0  0  0  0  0  0  0
    4.6406    1.7337   20.3622 N   0  0  0  0  0  0  0  0  0  0  0  0
    5.5403    1.1249   20.5567 H   0  0  0  0  0  0  0  0  0  0  0  0
    3.9995    1.6882   23.0918 C   0  0  0  0  0  0  0  0  0  0  0  0
    4.2173    2.9582   22.3651 C   0  0  0  0  0  0  0  0  0  0  0  0
    4.0669    4.1397   23.0525 C   0  0  0  0  0  0  0  0  0  0  0  0
    4.2515    5.3435   22.4485 C   0  0  0  0  0  0  0  0  0  0  0  0
    4.5916    5.3663   21.1339 C   0  0  0  0  0  0  0  0  0  0  0  0
    4.8498    7.0533   20.2889 Br  0  0  0  0  0  0  0  0  0  0  0  0
    4.7447    4.1598   20.4300 C   0  0  0  0  0  0  0  0  0  0  0  0
    4.5712    2.9448   20.9978 C   0  0  0  0  0  0  0  0  0  0  0  0
    2.9772    1.3061   15.8864 N   0  0  0  0  0  0  0  0  0  0  0  0
    2.9473    0.5432   15.1375 H   0  0  0  0  0  0  0  0  0  0  0  0
    3.0386    2.6243   15.4926 C   0  0  0  0  0  0  0  0  0  0  0  0
    3.6420    3.0935   14.3600 C   0  0  0  0  0  0  0  0  0  0  0  0
    3.6752    4.4690   14.0575 C   0  0  0  0  0  0  0  0  0  0  0  0
    3.0858    5.3564   14.9228 C   0  0  0  0  0  0  0  0  0  0  0  0
    2.4781    4.9003   16.0591 C   0  0  0  0  0  0  0  0  0  0  0  0
    2.4414    3.5650   16.3611 C   0  0  0  0  0  0  0  0  0  0  0  0
    3.1107    6.7380   14.6349 N   0  0  0  0  0  0  0  0  0  0  0  0
    3.9315    7.6020   15.4581 C   0  0  0  0  0  0  0  0  0  0  0  0
    3.7019    9.0570   15.2366 C   0  0  0  0  0  0  0  0  0  0  0  0
    2.4315    9.3289   14.6380 N   0  0  0  0  0  0  0  0  0  0  0  0
    2.3908    8.6991   13.3256 C   0  0  0  0  0  0  0  0  0  0  0  0
    2.3088    7.2220   13.5225 C   0  0  0  0  0  0  0  0  0  0  0  0
    1.6924    8.9710   15.2570 H   0  0  0  0  0  0  0  0  0  0  0  0
  9 10  1  0  0  0
 10 11  2  0  0  0
 11 12  1  0  0  0
 12 13  2  0  0  0
 13 14  1  0  0  0
 13 15  1  0  0  0
 15 16  2  0  0  0
 16  7  1  0  0  0
  7  1  1  0  0  0
  1  2  2  0  0  0
  2  3  1  0  0  0
  3  4  2  0  0  0
  4  5  1  0  0  0
  5 17  1  0  0  0
 17 19  1  0  0  0
 19 20  2  0  0  0
 20 21  1  0  0  0
 21 22  2  0  0  0
 22 23  1  0  0  0
 23 24  2  0  0  0
 22 25  1  0  0  0
 25 26  1  0  0  0
 26 27  1  0  0  0
 27 28  1  0  0  0
 28 29  1  0  0  0
 29 30  1  0  0  0
  5  6  2  0  0  0
 16 10  1  0  0  0
  6  1  1  0  0  0
 24 19  1  0  0  0
 30 25  1  0  0  0
  7  8  1  0  0  0
 17 18  1  0  0  0
 28 31  1  0  0  0
M  END
> <minimizedAffinity>
-8.92540

> <CNNscore>
0.6907656193

> <CNNaffinity>
6.9027924538

> <CNN_VS>
4.7682118416

> <CNNaffinity_variance>
0.0990968421

$$$$
[H]c1nc(N([H])c2c([H])c([H])c(N3C([H])([H])C([H])([H])N([H])C([H])([H])C3([H])[H])c([H])c2[H])nc(N([H])c2c([H])c(Br)c([H])c([H])c2C([H])([H])[H])c1[H]


 31 34  0  0  0  0  0  0  0  0999 V2000
    3.5702    1.0364   19.7404 C   0  0  0  0  0  0  0  0  0  0  0  0
    2.6654    0.0074   19.7295 C   0  0  0  0  0  0  0  0  0  0  0  0
    2.2181   -0.5029   18.4993 C   0  0  0  0  0  0  0  0  0  0  0  0
    2.6809    0.0245   17.3760 N   0  0  0  0  0  0  0  0  0  0  0  0
    3.5631    1.0305   17.3296 C   0  0  0  0  0  0  0  0  0  0  0  0
    3.9657    1.4886   18.5389 N   0  0  0  0  0  0  0  0  0  0  0  0
    4.1141    1.5682   20.9354 N   0  0  0  0  0  0  0  0  0  0  0  0
    3.8386    0.9352   21.7964 H   0  0  0  0  0  0  0  0  0  0  0  0
    6.6956    1.0927   21.9220 C   0  0  0  0  0  0  0  0  0  0  0  0
    6.1749    2.4647   21.7356 C   0  0  0  0  0  0  0  0  0  0  0  0
    6.9780    3.5232   22.0895 C   0  0  0  0  0  0  0  0  0  0  0  0
    6.5643    4.8103   21.9455 C   0  0  0  0  0  0  0  0  0  0  0  0
    5.3257    5.0426   21.4395 C   0  0  0  0  0  0  0  0  0  0  0  0
    4.7474    6.8459   21.2384 Br  0  0  0  0  0  0  0  0  0  0  0  0
    4.5036    3.9618   21.0783 C   0  0  0  0  0  0  0  0  0  0  0  0
    4.8818    2.6697   21.2055 C   0  0  0  0  0  0  0  0  0  0  0  0
    4.0713    1.6103   16.1417 N   0  0  0  0  0  0  0  0  0  0  0  0
    5.1043    1.4021   15.9594 H   0  0  0  0  0  0  0  0  0  0  0  0
    3.3799    2.3905   15.2418 C   0  0  0  0  0  0  0  0  0  0  0  0
    3.6087    3.7138   14.9893 C   0  0  0  0  0  0  0  0  0  0  0  0
    2.8260    4.4346   14.0661 C   0  0  0  0  0  0  0  0  0  0  0  0
    1.8106    3.7894   13.4057 C   0  0  0  0  0  0  0  0  0  0  0  0
    1.5714    2.4656   13.6485 C   0  0  0  0  0  0  0  0  0  0  0  0
    2.3272    1.7572   14.5445 C   0  0  0  0  0  0  0  0  0  0  0  0
    1.0165    4.4972   12.4779 N   0  0  0  0  0  0  0  0  0  0  0  0
    1.6769    5.2133   11.4059 C   0  0  0  0  0  0  0  0  0  0  0  0
    0.7826    6.1210   10.6346 C   0  0  0  0  0  0  0  0  0  0  0  0
   -0.3970    6.4790   11.3605 N   0  0  0  0  0  0  0  0  0  0  0  0
   -1.1644    5.2705   11.6270 C   0  0  0  0  0  0  0  0  0  0  0  0
   -0.4274    4.4688   12.6477 C   0  0  0  0  0  0  0  0  0  0  0  0
   -0.1178    6.9541   12.2288 H   0  0  0  0  0  0  0  0  0  0  0  0
  9 10  1  0  0  0
 10 11  2  0  0  0
 11 12  1  0  0  0
 12 13  2  0  0  0
 13 14  1  0  0  0
 13 15  1  0  0  0
 15 16  2  0  0  0
 16  7  1  0  0  0
  7  1  1  0  0  0
  1  2  2  0  0  0
  2  3  1  0  0  0
  3  4  2  0  0  0
  4  5  1  0  0  0
  5 17  1  0  0  0
 17 19  1  0  0  0
 19 20  2  0  0  0
 20 21  1  0  0  0
 21 22  2  0  0  0
 22 23  1  0  0  0
 23 24  2  0  0  0
 22 25  1  0  0  0
 25 26  1  0  0  0
 26 27  1  0  0  0
 27 28  1  0  0  0
 28 29  1  0  0  0
 29 30  1  0  0  0
  5  6  2  0  0  0
 16 10  1  0  0  0
  6  1  1  0  0  0
 24 19  1  0  0  0
 30 25  1  0  0  0
  7  8  1  0  0  0
 17 18  1  0  0  0
 28 31  1  0  0  0
M  END
> <minimizedAffinity>
-7.66470

> <CNNscore>
0.5947231054

> <CNNaffinity>
6.7479171753

> <CNN_VS>
4.0131421089

> <CNNaffinity_variance>
0.4033475816

$$$$
[H]c1nc(N([H])c2c([H])c([H])c(N3C([H])([H])C([H])([H])N([H])C([H])([H])C3([H])[H])c([H])c2[H])nc(N([H])c2c([H])c(Br)c([H])c([H])c2C([H])([H])[H])c1[H]


 31 34  0  0  0  0  0  0  0  0999 V2000
    4.9345    2.7918   20.0812 C   0  0  0  0  0  0  0  0  0  0  0  0
    4.6223    2.0643   21.1996 C   0  0  0  0  0  0  0  0  0  0  0  0
    3.8021    0.9304   21.0764 C   0  0  0  0  0  0  0  0  0  0  0  0
    3.3470    0.5909   19.8799 N   0  0  0  0  0  0  0  0  0  0  0  0
    3.6193    1.2663   18.7564 C   0  0  0  0  0  0  0  0  0  0  0  0
    4.4136    2.3504   18.9243 N   0  0  0  0  0  0  0  0  0  0  0  0
    5.8008    3.9123   20.1108 N   0  0  0  0  0  0  0  0  0  0  0  0
    6.8055    3.6105   20.4535 H   0  0  0  0  0  0  0  0  0  0  0  0
    5.9789    4.6164   17.4023 C   0  0  0  0  0  0  0  0  0  0  0  0
    5.7464    5.6290   18.4554 C   0  0  0  0  0  0  0  0  0  0  0  0
    5.6487    6.9493   18.0836 C   0  0  0  0  0  0  0  0  0  0  0  0
    5.4356    7.9326   18.9979 C   0  0  0  0  0  0  0  0  0  0  0  0
    5.3190    7.5897   20.3068 C   0  0  0  0  0  0  0  0  0  0  0  0
    5.0206    8.9681   21.5865 Br  0  0  0  0  0  0  0  0  0  0  0  0
    5.4195    6.2410   20.6881 C   0  0  0  0  0  0  0  0  0  0  0  0
    5.6291    5.2366   19.8072 C   0  0  0  0  0  0  0  0  0  0  0  0
    3.1442    0.9227   17.4673 N   0  0  0  0  0  0  0  0  0  0  0  0
    3.0014   -0.1266   17.3179 H   0  0  0  0  0  0  0  0  0  0  0  0
    2.8668    1.7870   16.4317 C   0  0  0  0  0  0  0  0  0  0  0  0
    2.6914    3.1377   16.5422 C   0  0  0  0  0  0  0  0  0  0  0  0
    2.3824    3.9354   15.4229 C   0  0  0  0  0  0  0  0  0  0  0  0
    2.2558    3.3388   14.1934 C   0  0  0  0  0  0  0  0  0  0  0  0
    2.4294    1.9887   14.0688 C   0  0  0  0  0  0  0  0  0  0  0  0
    2.7297    1.2056   15.1515 C   0  0  0  0  0  0  0  0  0  0  0  0
    1.9459    4.1236   13.0619 N   0  0  0  0  0  0  0  0  0  0  0  0
    2.8325    5.2144   12.7121 C   0  0  0  0  0  0  0  0  0  0  0  0
    2.2961    6.1268   11.6640 C   0  0  0  0  0  0  0  0  0  0  0  0
    0.8723    6.0540   11.5470 N   0  0  0  0  0  0  0  0  0  0  0  0
    0.5065    4.7028   11.1459 C   0  0  0  0  0  0  0  0  0  0  0  0
    0.7494    3.7935   12.3043 C   0  0  0  0  0  0  0  0  0  0  0  0
    0.4541    6.3112   12.4506 H   0  0  0  0  0  0  0  0  0  0  0  0
  9 10  1  0  0  0
 10 11  2  0  0  0
 11 12  1  0  0  0
 12 13  2  0  0  0
 13 14  1  0  0  0
 13 15  1  0  0  0
 15 16  2  0  0  0
 16  7  1  0  0  0
  7  1  1  0  0  0
  1  2  2  0  0  0
  2  3  1  0  0  0
  3  4  2  0  0  0
  4  5  1  0  0  0
  5 17  1  0  0  0
 17 19  1  0  0  0
 19 20  2  0  0  0
 20 21  1  0  0  0
 21 22  2  0  0  0
 22 23  1  0  0  0
 23 24  2  0  0  0
 22 25  1  0  0  0
 25 26  1  0  0  0
 26 27  1  0  0  0
 27 28  1  0  0  0
 28 29  1  0  0  0
 29 30  1  0  0  0
  5  6  2  0  0  0
 16 10  1  0  0  0
  6  1  1  0  0  0
 24 19  1  0  0  0
 30 25  1  0  0  0
  7  8  1  0  0  0
 17 18  1  0  0  0
 28 31  1  0  0  0
M  END
> <minimizedAffinity>
-7.54439

> <CNNscore>
0.3899607956

> <CNNaffinity>
6.4422607422

> <CNN_VS>
2.5122292042

> <CNNaffinity_variance>
0.4039674401

$$$$
[H]c1nc(N([H])c2c([H])c([H])c(N3C([H])([H])C([H])([H])N([H])C([H])([H])C3([H])[H])c([H])c2[H])nc(N([H])c2c([H])c(Br)c([H])c([H])c2C([H])([H])[H])c1[H]


 31 34  0  0  0  0  0  0  0  0999 V2000
    3.7495    0.9432   19.5703 C   0  0  0  0  0  0  0  0  0  0  0  0
    3.0763   -0.1496   20.0499 C   0  0  0  0  0  0  0  0  0  0  0  0
    2.8963   -0.2935   21.4358 C   0  0  0  0  0  0  0  0  0  0  0  0
    3.3840    0.6313   22.2487 N   0  0  0  0  0  0  0  0  0  0  0  0
    4.0502    1.7161   21.8339 C   0  0  0  0  0  0  0  0  0  0  0  0
    4.1981    1.8123   20.4911 N   0  0  0  0  0  0  0  0  0  0  0  0
    3.9229    1.1920   18.1865 N   0  0  0  0  0  0  0  0  0  0  0  0
    3.9094    0.2437   17.6223 H   0  0  0  0  0  0  0  0  0  0  0  0
    2.7477    1.2509   15.6411 C   0  0  0  0  0  0  0  0  0  0  0  0
    3.5448    2.3857   16.1561 C   0  0  0  0  0  0  0  0  0  0  0  0
    3.7316    3.4775   15.3412 C   0  0  0  0  0  0  0  0  0  0  0  0
    4.4526    4.5555   15.7490 C   0  0  0  0  0  0  0  0  0  0  0  0
    4.9971    4.5410   16.9930 C   0  0  0  0  0  0  0  0  0  0  0  0
    6.0070    6.0516   17.5630 Br  0  0  0  0  0  0  0  0  0  0  0  0
    4.8078    3.4255   17.8264 C   0  0  0  0  0  0  0  0  0  0  0  0
    4.0958    2.3373   17.4558 C   0  0  0  0  0  0  0  0  0  0  0  0
    4.5806    2.7172   22.6836 N   0  0  0  0  0  0  0  0  0  0  0  0
    4.5961    2.4503   23.7192 H   0  0  0  0  0  0  0  0  0  0  0  0
    5.0535    3.9546   22.3074 C   0  0  0  0  0  0  0  0  0  0  0  0
    6.3671    4.2918   22.1399 C   0  0  0  0  0  0  0  0  0  0  0  0
    6.7532    5.5975   21.7783 C   0  0  0  0  0  0  0  0  0  0  0  0
    5.7844    6.5511   21.5898 C   0  0  0  0  0  0  0  0  0  0  0  0
    4.4665    6.2270   21.7534 C   0  0  0  0  0  0  0  0  0  0  0  0
    4.0823    4.9603   22.1051 C   0  0  0  0  0  0  0  0  0  0  0  0
    6.1543    7.8643   21.2278 N   0  0  0  0  0  0  0  0  0  0  0  0
    5.2057    8.9365   21.4488 C   0  0  0  0  0  0  0  0  0  0  0  0
    5.5854   10.2298   20.8148 C   0  0  0  0  0  0  0  0  0  0  0  0
    6.5209   10.0647   19.7453 N   0  0  0  0  0  0  0  0  0  0  0  0
    7.7470    9.4921   20.2833 C   0  0  0  0  0  0  0  0  0  0  0  0
    7.4729    8.0719   20.6511 C   0  0  0  0  0  0  0  0  0  0  0  0
    6.0986    9.4599   19.0287 H   0  0  0  0  0  0  0  0  0  0  0  0
  9 10  1  0  0  0
 10 11  2  0  0  0
 11 12  1  0  0  0
 12 13  2  0  0  0
 13 14  1  0  0  0
 13 15  1  0  0  0
 15 16  2  0  0  0
 16  7  1  0  0  0
  7  1  1  0  0  0
  1  2  2  0  0  0
  2  3  1  0  0  0
  3  4  2  0  0  0
  4  5  1  0  0  0
  5 17  1  0  0  0
 17 19  1  0  0  0
 19 20  2  0  0  0
 20 21  1  0  0  0
 21 22  2  0  0  0
 22 23  1  0  0  0
 23 24  2  0  0  0
 22 25  1  0  0  0
 25 26  1  0  0  0
 26 27  1  0  0  0
 27 28  1  0  0  0
 28 29  1  0  0  0
 29 30  1  0  0  0
  5  6  2  0  0  0
 16 10  1  0  0  0
  6  1  1  0  0  0
 24 19  1  0  0  0
 30 25  1  0  0  0
  7  8  1  0  0  0
 17 18  1  0  0  0
 28 31  1  0  0  0
M  END
> <minimizedAffinity>
-8.65606

> <CNNscore>
0.3421815336

> <CNNaffinity>
6.7396364212

> <CNN_VS>
2.3061790466

> <CNNaffinity_variance>
0.2421231717

$$$$
[H]c1nc(N([H])c2c([H])c([H])c(N3C([H])([H])C([H])([H])N([H])C([H])([H])C3([H])[H])c([H])c2[H])nc(N([H])c2c([H])c(Br)c([H])c([H])c2C([H])([H])[H])c1[H]


 31 34  0  0  0  0  0  0  0  0999 V2000
    3.9967    2.5964   17.9681 C   0  0  0  0  0  0  0  0  0  0  0  0
    3.9101    1.2349   18.0961 C   0  0  0  0  0  0  0  0  0  0  0  0
    3.2439    0.4916   17.1074 C   0  0  0  0  0  0  0  0  0  0  0  0
    2.7122    1.1253   16.0732 N   0  0  0  0  0  0  0  0  0  0  0  0
    2.7660    2.4518   15.9001 C   0  0  0  0  0  0  0  0  0  0  0  0
    3.4184    3.1257   16.8772 N   0  0  0  0  0  0  0  0  0  0  0  0
    4.6999    3.4113   18.8891 N   0  0  0  0  0  0  0  0  0  0  0  0
    5.5528    3.9038   18.3911 H   0  0  0  0  0  0  0  0  0  0  0  0
    3.4933    5.8631   19.5185 C   0  0  0  0  0  0  0  0  0  0  0  0
    3.9504    4.9286   20.5703 C   0  0  0  0  0  0  0  0  0  0  0  0
    3.8014    5.3003   21.8858 C   0  0  0  0  0  0  0  0  0  0  0  0
    4.1989    4.4914   22.9037 C   0  0  0  0  0  0  0  0  0  0  0  0
    4.7559    3.2906   22.6007 C   0  0  0  0  0  0  0  0  0  0  0  0
    5.3124    2.1586   24.0275 Br  0  0  0  0  0  0  0  0  0  0  0  0
    4.9096    2.9099   21.2568 C   0  0  0  0  0  0  0  0  0  0  0  0
    4.5246    3.6868   20.2191 C   0  0  0  0  0  0  0  0  0  0  0  0
    2.2050    3.1509   14.8037 N   0  0  0  0  0  0  0  0  0  0  0  0
    1.2597    3.6059   15.0112 H   0  0  0  0  0  0  0  0  0  0  0  0
    2.7471    3.2851   13.5449 C   0  0  0  0  0  0  0  0  0  0  0  0
    2.4232    2.5340   12.4503 C   0  0  0  0  0  0  0  0  0  0  0  0
    3.0562    2.7306   11.2072 C   0  0  0  0  0  0  0  0  0  0  0  0
    4.0203    3.7010   11.0960 C   0  0  0  0  0  0  0  0  0  0  0  0
    4.3534    4.4600   12.1831 C   0  0  0  0  0  0  0  0  0  0  0  0
    3.7433    4.2754   13.3953 C   0  0  0  0  0  0  0  0  0  0  0  0
    4.6647    3.9105    9.8578 N   0  0  0  0  0  0  0  0  0  0  0  0
    3.8583    4.2720    8.7101 C   0  0  0  0  0  0  0  0  0  0  0  0
    4.5874    4.2290    7.4120 C   0  0  0  0  0  0  0  0  0  0  0  0
    5.7572    3.4073    7.4646 N   0  0  0  0  0  0  0  0  0  0  0  0
    6.6800    3.9728    8.4389 C   0  0  0  0  0  0  0  0  0  0  0  0
    6.1092    3.7528    9.8002 C   0  0  0  0  0  0  0  0  0  0  0  0
    5.4762    2.4501    7.7146 H   0  0  0  0  0  0  0  0  0  0  0  0
  9 10  1  0  0  0
 10 11  2  0  0  0
 11 12  1  0  0  0
 12 13  2  0  0  0
 13 14  1  0  0  0
 13 15  1  0  0  0
 15 16  2  0  0  0
 16  7  1  0  0  0
  7  1  1  0  0  0
  1  2  2  0  0  0
  2  3  1  0  0  0
  3  4  2  0  0  0
  4  5  1  0  0  0
  5 17  1  0  0  0
 17 19  1  0  0  0
 19 20  2  0  0  0
 20 21  1  0  0  0
 21 22  2  0  0  0
 22 23  1  0  0  0
 23 24  2  0  0  0
 22 25  1  0  0  0
 25 26  1  0  0  0
 26 27  1  0  0  0
 27 28  1  0  0  0
 28 29  1  0  0  0
 29 30  1  0  0  0
  5  6  2  0  0  0
 16 10  1  0  0  0
  6  1  1  0  0  0
 24 19  1  0  0  0
 30 25  1  0  0  0
  7  8  1  0  0  0
 17 18  1  0  0  0
 28 31  1  0  0  0
M  END
> <minimizedAffinity>
-7.34546

> <CNNscore>
0.3309944570

> <CNNaffinity>
6.1605949402

> <CNN_VS>
2.0391228199

> <CNNaffinity_variance>
0.3677826226

$$$$
[H]c1nc(N([H])c2c([H])c([H])c(N3C([H])([H])C([H])([H])N([H])C([H])([H])C3([H])[H])c([H])c2[H])nc(N([H])c2c([H])c(Br)c([H])c([H])c2C([H])([H])[H])c1[H]


 31 34  0  0  0  0  0  0  0  0999 V2000
    3.9049    1.0035   18.9573 C   0  0  0  0  0  0  0  0  0  0  0  0
    2.9499    0.0441   19.1695 C   0  0  0  0  0  0  0  0  0  0  0  0
    2.4407   -0.1457   20.4650 C   0  0  0  0  0  0  0  0  0  0  0  0
    2.8977    0.6073   21.4540 N   0  0  0  0  0  0  0  0  0  0  0  0
    3.8300    1.5563   21.3028 C   0  0  0  0  0  0  0  0  0  0  0  0
    4.2900    1.7034   20.0374 N   0  0  0  0  0  0  0  0  0  0  0  0
    4.4268    1.2971   17.6735 N   0  0  0  0  0  0  0  0  0  0  0  0
    5.3883    0.7767   17.5230 H   0  0  0  0  0  0  0  0  0  0  0  0
    5.4566    3.9001   17.5073 C   0  0  0  0  0  0  0  0  0  0  0  0
    4.4534    3.3976   16.5432 C   0  0  0  0  0  0  0  0  0  0  0  0
    4.0007    4.2515   15.5650 C   0  0  0  0  0  0  0  0  0  0  0  0
    3.0796    3.8572   14.6460 C   0  0  0  0  0  0  0  0  0  0  0  0
    2.6024    2.5873   14.7069 C   0  0  0  0  0  0  0  0  0  0  0  0
    1.3122    2.0363   13.4191 Br  0  0  0  0  0  0  0  0  0  0  0  0
    3.0635    1.7139   15.7066 C   0  0  0  0  0  0  0  0  0  0  0  0
    3.9794    2.0702   16.6355 C   0  0  0  0  0  0  0  0  0  0  0  0
    4.3338    2.3727   22.3444 N   0  0  0  0  0  0  0  0  0  0  0  0
    4.2634    1.9349   23.3177 H   0  0  0  0  0  0  0  0  0  0  0  0
    4.8790    3.6309   22.2177 C   0  0  0  0  0  0  0  0  0  0  0  0
    6.2128    3.9229   22.1628 C   0  0  0  0  0  0  0  0  0  0  0  0
    6.6737    5.2501   22.0597 C   0  0  0  0  0  0  0  0  0  0  0  0
    5.7588    6.2720   22.0128 C   0  0  0  0  0  0  0  0  0  0  0  0
    4.4215    5.9938   22.0661 C   0  0  0  0  0  0  0  0  0  0  0  0
    3.9646    4.7065   22.1667 C   0  0  0  0  0  0  0  0  0  0  0  0
    6.2039    7.6075   21.9101 N   0  0  0  0  0  0  0  0  0  0  0  0
    7.5682    7.9136   22.2887 C   0  0  0  0  0  0  0  0  0  0  0  0
    7.8655    9.3702   22.3809 C   0  0  0  0  0  0  0  0  0  0  0  0
    6.6869   10.1628   22.5512 N   0  0  0  0  0  0  0  0  0  0  0  0
    5.8351    9.9876   21.3833 C   0  0  0  0  0  0  0  0  0  0  0  0
    5.2662    8.6085   21.4270 C   0  0  0  0  0  0  0  0  0  0  0  0
    6.2148    9.8692   23.4164 H   0  0  0  0  0  0  0  0  0  0  0  0
  9 10  1  0  0  0
 10 11  2  0  0  0
 11 12  1  0  0  0
 12 13  2  0  0  0
 13 14  1  0  0  0
 13 15  1  0  0  0
 15 16  2  0  0  0
 16  7  1  0  0  0
  7  1  1  0  0  0
  1  2  2  0  0  0
  2  3  1  0  0  0
  3  4  2  0  0  0
  4  5  1  0  0  0
  5 17  1  0  0  0
 17 19  1  0  0  0
 19 20  2  0  0  0
 20 21  1  0  0  0
 21 22  2  0  0  0
 22 23  1  0  0  0
 23 24  2  0  0  0
 22 25  1  0  0  0
 25 26  1  0  0  0
 26 27  1  0  0  0
 27 28  1  0  0  0
 28 29  1  0  0  0
 29 30  1  0  0  0
  5  6  2  0  0  0
 16 10  1  0  0  0
  6  1  1  0  0  0
 24 19  1  0  0  0
 30 25  1  0  0  0
  7  8  1  0  0  0
 17 18  1  0  0  0
 28 31  1  0  0  0
M  END
> <minimizedAffinity>
-8.73324

> <CNNscore>
0.3014484942

> <CNNaffinity>
6.5392656326

> <CNN_VS>
1.9712517262

> <CNNaffinity_variance>
0.1706872284

$$$$
[H]c1nc(N([H])c2c([H])c([H])c(N3C([H])([H])C([H])([H])N([H])C([H])([H])C3([H])[H])c([H])c2[H])nc(N([H])c2c([H])c(Br)c([H])c([H])c2C([H])([H])[H])c1[H]


 31 34  0  0  0  0  0  0  0  0999 V2000
    2.7890    1.9439   16.9542 C   0  0  0  0  0  0  0  0  0  0  0  0
    2.2428    0.6880   16.9987 C   0  0  0  0  0  0  0  0  0  0  0  0
    2.6020   -0.1822   18.0416 C   0  0  0  0  0  0  0  0  0  0  0  0
    3.4634    0.2314   18.9585 N   0  0  0  0  0  0  0  0  0  0  0  0
    4.0276    1.4456   18.9616 C   0  0  0  0  0  0  0  0  0  0  0  0
    3.6507    2.2491   17.9384 N   0  0  0  0  0  0  0  0  0  0  0  0
    2.4359    2.9006   15.9709 N   0  0  0  0  0  0  0  0  0  0  0  0
    1.7086    3.6216   16.3820 H   0  0  0  0  0  0  0  0  0  0  0  0
    4.1399    5.0656   15.4490 C   0  0  0  0  0  0  0  0  0  0  0  0
    3.6436    4.1881   14.3664 C   0  0  0  0  0  0  0  0  0  0  0  0
    4.0108    4.4734   13.0724 C   0  0  0  0  0  0  0  0  0  0  0  0
    3.5919    3.7100   12.0284 C   0  0  0  0  0  0  0  0  0  0  0  0
    2.7910    2.6432   12.2829 C   0  0  0  0  0  0  0  0  0  0  0  0
    2.2048    1.5746   10.8196 Br  0  0  0  0  0  0  0  0  0  0  0  0
    2.4142    2.3510   13.6047 C   0  0  0  0  0  0  0  0  0  0  0  0
    2.8127    3.0862   14.6674 C   0  0  0  0  0  0  0  0  0  0  0  0
    4.9506    1.9095   19.9303 N   0  0  0  0  0  0  0  0  0  0  0  0
    5.5464    1.1391   20.3724 H   0  0  0  0  0  0  0  0  0  0  0  0
    5.1355    3.2117   20.3383 C   0  0  0  0  0  0  0  0  0  0  0  0
    4.6085    4.3204   19.7381 C   0  0  0  0  0  0  0  0  0  0  0  0
    4.8795    5.6174   20.2167 C   0  0  0  0  0  0  0  0  0  0  0  0
    5.6919    5.7675   21.3125 C   0  0  0  0  0  0  0  0  0  0  0  0
    6.2251    4.6667   21.9228 C   0  0  0  0  0  0  0  0  0  0  0  0
    5.9672    3.4022   21.4641 C   0  0  0  0  0  0  0  0  0  0  0  0
    5.9740    7.0601   21.8045 N   0  0  0  0  0  0  0  0  0  0  0  0
    6.9897    7.2053   22.8269 C   0  0  0  0  0  0  0  0  0  0  0  0
    7.0405    8.5566   23.4514 C   0  0  0  0  0  0  0  0  0  0  0  0
    5.8198    9.2845   23.2884 N   0  0  0  0  0  0  0  0  0  0  0  0
    5.5893    9.4946   21.8660 C   0  0  0  0  0  0  0  0  0  0  0  0
    5.2278    8.1813   21.2560 C   0  0  0  0  0  0  0  0  0  0  0  0
    5.0571    8.7503   23.7247 H   0  0  0  0  0  0  0  0  0  0  0  0
  9 10  1  0  0  0
 10 11  2  0  0  0
 11 12  1  0  0  0
 12 13  2  0  0  0
 13 14  1  0  0  0
 13 15  1  0  0  0
 15 16  2  0  0  0
 16  7  1  0  0  0
  7  1  1  0  0  0
  1  2  2  0  0  0
  2  3  1  0  0  0
  3  4  2  0  0  0
  4  5  1  0  0  0
  5 17  1  0  0  0
 17 19  1  0  0  0
 19 20  2  0  0  0
 20 21  1  0  0  0
 21 22  2  0  0  0
 22 23  1  0  0  0
 23 24  2  0  0  0
 22 25  1  0  0  0
 25 26  1  0  0  0
 26 27  1  0  0  0
 27 28  1  0  0  0
 28 29  1  0  0  0
 29 30  1  0  0  0
  5  6  2  0  0  0
 16 10  1  0  0  0
  6  1  1  0  0  0
 24 19  1  0  0  0
 30 25  1  0  0  0
  7  8  1  0  0  0
 17 18  1  0  0  0
 28 31  1  0  0  0
M  END
> <minimizedAffinity>
-7.89785

> <CNNscore>
0.2977506816

> <CNNaffinity>
6.4879693985

> <CNN_VS>
1.9317972660

> <CNNaffinity_variance>
0.4085162282

$$$$
[H]c1nc(N([H])c2c([H])c([H])c(N3C([H])([H])C([H])([H])N([H])C([H])([H])C3([H])[H])c([H])c2[H])nc(N([H])c2c([H])c(Br)c([H])c([H])c2C([H])([H])[H])c1[H]


 31 34  0  0  0  0  0  0  0  0999 V2000
    4.1814    1.5204   20.0611 C   0  0  0  0  0  0  0  0  0  0  0  0
    3.7043    0.5585   20.9125 C   0  0  0  0  0  0  0  0  0  0  0  0
    3.4675    0.8863   22.2580 C   0  0  0  0  0  0  0  0  0  0  0  0
    3.7130    2.1195   22.6739 N   0  0  0  0  0  0  0  0  0  0  0  0
    4.1806    3.0957   21.8861 C   0  0  0  0  0  0  0  0  0  0  0  0
    4.3926    2.7334   20.5984 N   0  0  0  0  0  0  0  0  0  0  0  0
    4.3912    1.2877   18.6797 N   0  0  0  0  0  0  0  0  0  0  0  0
    5.0796    0.4374   18.5348 H   0  0  0  0  0  0  0  0  0  0  0  0
    2.8901   -0.3078   16.9290 C   0  0  0  0  0  0  0  0  0  0  0  0
    3.1888    1.1092   16.6271 C   0  0  0  0  0  0  0  0  0  0  0  0
    2.7385    1.6342   15.4386 C   0  0  0  0  0  0  0  0  0  0  0  0
    2.9763    2.9282   15.0961 C   0  0  0  0  0  0  0  0  0  0  0  0
    3.6774    3.7105   15.9568 C   0  0  0  0  0  0  0  0  0  0  0  0
    4.0099    5.5229   15.4757 Br  0  0  0  0  0  0  0  0  0  0  0  0
    4.1389    3.1751   17.1712 C   0  0  0  0  0  0  0  0  0  0  0  0
    3.9199    1.8943   17.5459 C   0  0  0  0  0  0  0  0  0  0  0  0
    4.4508    4.4202   22.3081 N   0  0  0  0  0  0  0  0  0  0  0  0
    4.6053    4.5218   23.3615 H   0  0  0  0  0  0  0  0  0  0  0  0
    4.5235    5.5422   21.5129 C   0  0  0  0  0  0  0  0  0  0  0  0
    5.2355    6.6748   21.7909 C   0  0  0  0  0  0  0  0  0  0  0  0
    5.2245    7.7847   20.9232 C   0  0  0  0  0  0  0  0  0  0  0  0
    4.4804    7.7233   19.7717 C   0  0  0  0  0  0  0  0  0  0  0  0
    3.7640    6.5959   19.4812 C   0  0  0  0  0  0  0  0  0  0  0  0
    3.7688    5.5126   20.3191 C   0  0  0  0  0  0  0  0  0  0  0  0
    4.4579    8.8268   18.8918 N   0  0  0  0  0  0  0  0  0  0  0  0
    3.2372    9.5985   18.7801 C   0  0  0  0  0  0  0  0  0  0  0  0
    3.2328   10.5778   17.6578 C   0  0  0  0  0  0  0  0  0  0  0  0
    4.1876   10.2555   16.6425 N   0  0  0  0  0  0  0  0  0  0  0  0
    5.5210   10.3009   17.2259 C   0  0  0  0  0  0  0  0  0  0  0  0
    5.6661    9.1319   18.1423 C   0  0  0  0  0  0  0  0  0  0  0  0
    3.9663    9.3245   16.2659 H   0  0  0  0  0  0  0  0  0  0  0  0
  9 10  1  0  0  0
 10 11  2  0  0  0
 11 12  1  0  0  0
 12 13  2  0  0  0
 13 14  1  0  0  0
 13 15  1  0  0  0
 15 16  2  0  0  0
 16  7  1  0  0  0
  7  1  1  0  0  0
  1  2  2  0  0  0
  2  3  1  0  0  0
  3  4  2  0  0  0
  4  5  1  0  0  0
  5 17  1  0  0  0
 17 19  1  0  0  0
 19 20  2  0  0  0
 20 21  1  0  0  0
 21 22  2  0  0  0
 22 23  1  0  0  0
 23 24  2  0  0  0
 22 25  1  0  0  0
 25 26  1  0  0  0
 26 27  1  0  0  0
 27 28  1  0  0  0
 28 29  1  0  0  0
 29 30  1  0  0  0
  5  6  2  0  0  0
 16 10  1  0  0  0
  6  1  1  0  0  0
 24 19  1  0  0  0
 30 25  1  0  0  0
  7  8  1  0  0  0
 17 18  1  0  0  0
 28 31  1  0  0  0
M  END
> <minimizedAffinity>
-8.78427

> <CNNscore>
0.2513862252

> <CNNaffinity>
6.5412111282

> <CNN_VS>
1.6443703175

> <CNNaffinity_variance>
0.2461955994

$$$$
[H]c1c(-c2c([H])c(C(=O)N([H])c3c([H])c([H])c(F)c(S(=O)(=O)C([H])([H])[H])c3[H])c([H])c([H])c2C([H])([H])[H])nc(N2C([H])([H])C([H])([H])C(F)(F)C([H])([H])C2([H])[H])nc1N([H])C([H])([H])C(F)(F)F


 43 46  0  0  0  0  0  0  0  0999 V2000
    5.5421    3.1776   23.1383 C   0  0  0  0  0  0  0  0  0  0  0  0
    5.1982    2.9226   21.7388 C   0  0  0  0  0  0  0  0  0  0  0  0
    4.7373    1.6610   21.3320 C   0  0  0  0  0  0  0  0  0  0  0  0
    4.4088    1.4063   20.0133 C   0  0  0  0  0  0  0  0  0  0  0  0
    4.5205    2.3749   19.0536 C   0  0  0  0  0  0  0  0  0  0  0  0
    4.9751    3.6202   19.4522 C   0  0  0  0  0  0  0  0  0  0  0  0
    5.3123    3.8983   20.7802 C   0  0  0  0  0  0  0  0  0  0  0  0
    5.7824    5.2314   21.1324 C   0  0  0  0  0  0  0  0  0  0  0  0
    4.9312    6.3139   21.1253 C   0  0  0  0  0  0  0  0  0  0  0  0
    5.4121    7.5916   21.4716 C   0  0  0  0  0  0  0  0  0  0  0  0
    6.6984    7.7341   21.8046 N   0  0  0  0  0  0  0  0  0  0  0  0
    7.5435    6.6867   21.8167 C   0  0  0  0  0  0  0  0  0  0  0  0
    7.0359    5.5091   21.4821 N   0  0  0  0  0  0  0  0  0  0  0  0
    8.8979    6.9152   22.1827 N   0  0  0  0  0  0  0  0  0  0  0  0
    9.2726    6.9035   23.6046 C   0  0  0  0  0  0  0  0  0  0  0  0
   10.1919    5.7128   23.8009 C   0  0  0  0  0  0  0  0  0  0  0  0
   11.3250    5.7934   22.8252 C   0  0  0  0  0  0  0  0  0  0  0  0
   12.5266    5.8060   23.5037 F   0  0  0  0  0  0  0  0  0  0  0  0
   11.3338    4.6645   22.0077 F   0  0  0  0  0  0  0  0  0  0  0  0
   11.2672    7.0536   21.9808 C   0  0  0  0  0  0  0  0  0  0  0  0
    9.9499    7.1618   21.2434 C   0  0  0  0  0  0  0  0  0  0  0  0
    4.5284    8.6958   21.4604 N   0  0  0  0  0  0  0  0  0  0  0  0
    3.6700    8.6616   22.0179 H   0  0  0  0  0  0  0  0  0  0  0  0
    4.8398    9.8561   20.6689 C   0  0  0  0  0  0  0  0  0  0  0  0
    4.1255    9.8118   19.3331 C   0  0  0  0  0  0  0  0  0  0  0  0
    3.1440    8.8491   19.2949 F   0  0  0  0  0  0  0  0  0  0  0  0
    3.4977   11.0359   19.1830 F   0  0  0  0  0  0  0  0  0  0  0  0
    5.0183    9.6836   18.2988 F   0  0  0  0  0  0  0  0  0  0  0  0
    4.1711    2.1425   17.6253 C   0  0  0  0  0  0  0  0  0  0  0  0
    4.2072    0.9437   17.2098 O   0  0  0  0  0  0  0  0  0  0  0  0
    3.8217    3.1728   16.7758 N   0  0  0  0  0  0  0  0  0  0  0  0
    3.8155    4.1552   17.1735 H   0  0  0  0  0  0  0  0  0  0  0  0
    3.4673    3.0447   15.4158 C   0  0  0  0  0  0  0  0  0  0  0  0
    2.8978    1.9322   14.8403 C   0  0  0  0  0  0  0  0  0  0  0  0
    2.6213    1.9316   13.4740 C   0  0  0  0  0  0  0  0  0  0  0  0
    2.8945    3.0082   12.6592 C   0  0  0  0  0  0  0  0  0  0  0  0
    2.6104    2.9706   11.3281 F   0  0  0  0  0  0  0  0  0  0  0  0
    3.4640    4.1347   13.2106 C   0  0  0  0  0  0  0  0  0  0  0  0
    3.7319    4.1286   14.5457 C   0  0  0  0  0  0  0  0  0  0  0  0
    3.8201    5.5125   12.1951 S   0  0  0  0  0  0  0  0  0  0  0  0
    5.2076    5.1449   11.1466 C   0  0  0  0  0  0  0  0  0  0  0  0
    2.6340    5.9291   11.4121 O   0  0  0  0  0  0  0  0  0  0  0  0
    4.2454    6.6403   13.1023 O   0  0  0  0  0  0  0  0  0  0  0  0
  1  2  1  0  0  0
  2  3  2  0  0  0
  3  4  1  0  0  0
  4  5  2  0  0  0
  5  6  1  0  0  0
  6  7  2  0  0  0
  7  8  1  0  0  0
  8  9  2  0  0  0
  9 10  1  0  0  0
 10 22  1  0  0  0
 22 24  1  0  0  0
 24 25  1  0  0  0
 25 26  1  0  0  0
 25 27  1  0  0  0
 25 28  1  0  0  0
 10 11  2  0  0  0
 11 12  1  0  0  0
 12 13  2  0  0  0
 12 14  1  0  0  0
 14 15  1  0  0  0
 15 16  1  0  0  0
 16 17  1  0  0  0
 17 18  1  0  0  0
 17 19  1  0  0  0
 17 20  1  0  0  0
 20 21  1  0  0  0
  5 29  1  0  0  0
 29 30  2  0  0  0
 29 31  1  0  0  0
 31 33  1  0  0  0
 33 34  2  0  0  0
 34 35  1  0  0  0
 35 36  2  0  0  0
 36 37  1  0  0  0
 36 38  1  0  0  0
 38 39  2  0  0  0
 38 40  1  0  0  0
 40 41  1  0  0  0
 40 42  2  0  0  0
 40 43  2  0  0  0
  7  2  1  0  0  0
 13  8  1  0  0  0
 21 14  1  0  0  0
 39 33  1  0  0  0
 22 23  1  0  0  0
 31 32  1  0  0  0
M  END
> <minimizedAffinity>
-10.47965

> <CNNscore>
0.2822436094

> <CNNaffinity>
6.9017057419

> <CNN_VS>
1.9479622841

> <CNNaffinity_variance>
0.1609199345

$$$$
[H]c1c(-c2c([H])c(C(=O)N([H])c3c([H])c([H])c(F)c(S(=O)(=O)C([H])([H])[H])c3[H])c([H])c([H])c2C([H])([H])[H])nc(N2C([H])([H])C([H])([H])C(F)(F)C([H])([H])C2([H])[H])nc1N([H])C([H])([H])C(F)(F)F


 43 46  0  0  0  0  0  0  0  0999 V2000
    4.7113    1.9283   19.6879 C   0  0  0  0  0  0  0  0  0  0  0  0
    4.4649    2.6613   18.4454 C   0  0  0  0  0  0  0  0  0  0  0  0
    4.2829    1.9776   17.2335 C   0  0  0  0  0  0  0  0  0  0  0  0
    4.0494    2.6574   16.0524 C   0  0  0  0  0  0  0  0  0  0  0  0
    3.9867    4.0237   16.0196 C   0  0  0  0  0  0  0  0  0  0  0  0
    4.1660    4.7006   17.2137 C   0  0  0  0  0  0  0  0  0  0  0  0
    4.4031    4.0323   18.4186 C   0  0  0  0  0  0  0  0  0  0  0  0
    4.5811    4.8059   19.6401 C   0  0  0  0  0  0  0  0  0  0  0  0
    4.7167    4.1880   20.8634 C   0  0  0  0  0  0  0  0  0  0  0  0
    4.8889    4.9604   22.0285 C   0  0  0  0  0  0  0  0  0  0  0  0
    4.9183    6.2926   21.9271 N   0  0  0  0  0  0  0  0  0  0  0  0
    4.7873    6.9121   20.7394 C   0  0  0  0  0  0  0  0  0  0  0  0
    4.6280    6.1350   19.6777 N   0  0  0  0  0  0  0  0  0  0  0  0
    4.8298    8.3326   20.7098 N   0  0  0  0  0  0  0  0  0  0  0  0
    5.1356    9.0710   21.9442 C   0  0  0  0  0  0  0  0  0  0  0  0
    6.4669    9.7620   21.7173 C   0  0  0  0  0  0  0  0  0  0  0  0
    6.3955   10.5799   20.4651 C   0  0  0  0  0  0  0  0  0  0  0  0
    6.6776   11.9000   20.7517 F   0  0  0  0  0  0  0  0  0  0  0  0
    7.3598   10.1484   19.5558 F   0  0  0  0  0  0  0  0  0  0  0  0
    5.0175   10.5379   19.8295 C   0  0  0  0  0  0  0  0  0  0  0  0
    4.5904    9.1159   19.5355 C   0  0  0  0  0  0  0  0  0  0  0  0
    5.0269    4.3146   23.2791 N   0  0  0  0  0  0  0  0  0  0  0  0
    5.7931    4.5817   23.9039 H   0  0  0  0  0  0  0  0  0  0  0  0
    4.0934    3.2899   23.6644 C   0  0  0  0  0  0  0  0  0  0  0  0
    4.7617    1.9304   23.7017 C   0  0  0  0  0  0  0  0  0  0  0  0
    3.9543    0.9352   23.2025 F   0  0  0  0  0  0  0  0  0  0  0  0
    5.8646    2.0123   22.8698 F   0  0  0  0  0  0  0  0  0  0  0  0
    5.2235    1.6407   24.9612 F   0  0  0  0  0  0  0  0  0  0  0  0
    3.7311    4.7920   14.7704 C   0  0  0  0  0  0  0  0  0  0  0  0
    3.1903    5.9335   14.8951 O   0  0  0  0  0  0  0  0  0  0  0  0
    4.0603    4.3004   13.5232 N   0  0  0  0  0  0  0  0  0  0  0  0
    4.5027    3.3384   13.4768 H   0  0  0  0  0  0  0  0  0  0  0  0
    3.8646    4.9606   12.2915 C   0  0  0  0  0  0  0  0  0  0  0  0
    4.8415    5.6012   11.5645 C   0  0  0  0  0  0  0  0  0  0  0  0
    4.5032    6.2374   10.3712 C   0  0  0  0  0  0  0  0  0  0  0  0
    3.2178    6.2557    9.8763 C   0  0  0  0  0  0  0  0  0  0  0  0
    2.9253    6.8882    8.7065 F   0  0  0  0  0  0  0  0  0  0  0  0
    2.2212    5.6212   10.5845 C   0  0  0  0  0  0  0  0  0  0  0  0
    2.5583    5.0020   11.7495 C   0  0  0  0  0  0  0  0  0  0  0  0
    0.5823    5.6326    9.9756 S   0  0  0  0  0  0  0  0  0  0  0  0
   -0.4714    4.7053   11.0662 C   0  0  0  0  0  0  0  0  0  0  0  0
    0.0882    7.0145    9.7766 O   0  0  0  0  0  0  0  0  0  0  0  0
    0.5899    4.9057    8.6537 O   0  0  0  0  0  0  0  0  0  0  0  0
  1  2  1  0  0  0
  2  3  2  0  0  0
  3  4  1  0  0  0
  4  5  2  0  0  0
  5  6  1  0  0  0
  6  7  2  0  0  0
  7  8  1  0  0  0
  8  9  2  0  0  0
  9 10  1  0  0  0
 10 22  1  0  0  0
 22 24  1  0  0  0
 24 25  1  0  0  0
 25 26  1  0  0  0
 25 27  1  0  0  0
 25 28  1  0  0  0
 10 11  2  0  0  0
 11 12  1  0  0  0
 12 13  2  0  0  0
 12 14  1  0  0  0
 14 15  1  0  0  0
 15 16  1  0  0  0
 16 17  1  0  0  0
 17 18  1  0  0  0
 17 19  1  0  0  0
 17 20  1  0  0  0
 20 21  1  0  0  0
  5 29  1  0  0  0
 29 30  2  0  0  0
 29 31  1  0  0  0
 31 33  1  0  0  0
 33 34  2  0  0  0
 34 35  1  0  0  0
 35 36  2  0  0  0
 36 37  1  0  0  0
 36 38  1  0  0  0
 38 39  2  0  0  0
 38 40  1  0  0  0
 40 41  1  0  0  0
 40 42  2  0  0  0
 40 43  2  0  0  0
  7  2  1  0  0  0
 13  8  1  0  0  0
 21 14  1  0  0  0
 39 33  1  0  0  0
 22 23  1  0  0  0
 31 32  1  0  0  0
M  END
> <minimizedAffinity>
-9.30649

> <CNNscore>
0.2214116454

> <CNNaffinity>
6.8909988403

> <CNN_VS>
1.5257474184

> <CNNaffinity_variance>
0.3287116885

$$$$
[H]c1c(-c2c([H])c(C(=O)N([H])c3c([H])c([H])c(F)c(S(=O)(=O)C([H])([H])[H])c3[H])c([H])c([H])c2C([H])([H])[H])nc(N2C([H])([H])C([H])([H])C(F)(F)C([H])([H])C2([H])[H])nc1N([H])C([H])([H])C(F)(F)F


 43 46  0  0  0  0  0  0  0  0999 V2000
    4.0150    1.1087   19.7460 C   0  0  0  0  0  0  0  0  0  0  0  0
    3.8079    1.5000   18.3511 C   0  0  0  0  0  0  0  0  0  0  0  0
    3.3008    0.5836   17.4170 C   0  0  0  0  0  0  0  0  0  0  0  0
    3.1002    0.9398   16.0962 C   0  0  0  0  0  0  0  0  0  0  0  0
    3.3885    2.2001   15.6486 C   0  0  0  0  0  0  0  0  0  0  0  0
    3.8889    3.1060   16.5680 C   0  0  0  0  0  0  0  0  0  0  0  0
    4.0990    2.7660   17.9078 C   0  0  0  0  0  0  0  0  0  0  0  0
    4.6266    3.7685   18.8236 C   0  0  0  0  0  0  0  0  0  0  0  0
    5.0774    3.4230   20.0782 C   0  0  0  0  0  0  0  0  0  0  0  0
    5.5839    4.4125   20.9430 C   0  0  0  0  0  0  0  0  0  0  0  0
    5.6193    5.6824   20.5282 N   0  0  0  0  0  0  0  0  0  0  0  0
    5.1828    6.0370   19.3054 C   0  0  0  0  0  0  0  0  0  0  0  0
    4.7170    5.0643   18.5351 N   0  0  0  0  0  0  0  0  0  0  0  0
    5.2529    7.4072   18.9337 N   0  0  0  0  0  0  0  0  0  0  0  0
    4.1124    8.0260   18.2418 C   0  0  0  0  0  0  0  0  0  0  0  0
    3.5497    9.0730   19.1845 C   0  0  0  0  0  0  0  0  0  0  0  0
    4.6449   10.0038   19.6046 C   0  0  0  0  0  0  0  0  0  0  0  0
    4.3137   11.2996   19.2648 F   0  0  0  0  0  0  0  0  0  0  0  0
    4.7931    9.9741   20.9902 F   0  0  0  0  0  0  0  0  0  0  0  0
    5.9647    9.6802   18.9277 C   0  0  0  0  0  0  0  0  0  0  0  0
    6.3818    8.2493   19.1911 C   0  0  0  0  0  0  0  0  0  0  0  0
    6.0438    4.0456   22.2290 N   0  0  0  0  0  0  0  0  0  0  0  0
    7.0362    4.1495   22.4594 H   0  0  0  0  0  0  0  0  0  0  0  0
    5.1178    3.5306   23.2023 C   0  0  0  0  0  0  0  0  0  0  0  0
    5.4722    2.1099   23.5926 C   0  0  0  0  0  0  0  0  0  0  0  0
    6.0356    2.0351   24.8450 F   0  0  0  0  0  0  0  0  0  0  0  0
    4.2807    1.4077   23.6423 F   0  0  0  0  0  0  0  0  0  0  0  0
    6.2549    1.5145   22.6353 F   0  0  0  0  0  0  0  0  0  0  0  0
    3.1807    2.6244   14.2369 C   0  0  0  0  0  0  0  0  0  0  0  0
    3.8626    3.6125   13.8248 O   0  0  0  0  0  0  0  0  0  0  0  0
    2.2901    1.9841   13.3991 N   0  0  0  0  0  0  0  0  0  0  0  0
    1.7412    1.1697   13.7976 H   0  0  0  0  0  0  0  0  0  0  0  0
    2.0371    2.3102   12.0496 C   0  0  0  0  0  0  0  0  0  0  0  0
    1.0867    3.2018   11.6081 C   0  0  0  0  0  0  0  0  0  0  0  0
    0.9252    3.4113   10.2394 C   0  0  0  0  0  0  0  0  0  0  0  0
    1.6835    2.7589    9.2924 C   0  0  0  0  0  0  0  0  0  0  0  0
    1.4967    2.9893    7.9635 F   0  0  0  0  0  0  0  0  0  0  0  0
    2.6424    1.8616    9.7080 C   0  0  0  0  0  0  0  0  0  0  0  0
    2.7948    1.6614   11.0462 C   0  0  0  0  0  0  0  0  0  0  0  0
    3.6158    1.0215    8.5233 S   0  0  0  0  0  0  0  0  0  0  0  0
    2.5885   -0.0635    7.5604 C   0  0  0  0  0  0  0  0  0  0  0  0
    4.3671    1.9697    7.6690 O   0  0  0  0  0  0  0  0  0  0  0  0
    4.5861    0.1474    9.2786 O   0  0  0  0  0  0  0  0  0  0  0  0
  1  2  1  0  0  0
  2  3  2  0  0  0
  3  4  1  0  0  0
  4  5  2  0  0  0
  5  6  1  0  0  0
  6  7  2  0  0  0
  7  8  1  0  0  0
  8  9  2  0  0  0
  9 10  1  0  0  0
 10 22  1  0  0  0
 22 24  1  0  0  0
 24 25  1  0  0  0
 25 26  1  0  0  0
 25 27  1  0  0  0
 25 28  1  0  0  0
 10 11  2  0  0  0
 11 12  1  0  0  0
 12 13  2  0  0  0
 12 14  1  0  0  0
 14 15  1  0  0  0
 15 16  1  0  0  0
 16 17  1  0  0  0
 17 18  1  0  0  0
 17 19  1  0  0  0
 17 20  1  0  0  0
 20 21  1  0  0  0
  5 29  1  0  0  0
 29 30  2  0  0  0
 29 31  1  0  0  0
 31 33  1  0  0  0
 33 34  2  0  0  0
 34 35  1  0  0  0
 35 36  2  0  0  0
 36 37  1  0  0  0
 36 38  1  0  0  0
 38 39  2  0  0  0
 38 40  1  0  0  0
 40 41  1  0  0  0
 40 42  2  0  0  0
 40 43  2  0  0  0
  7  2  1  0  0  0
 13  8  1  0  0  0
 21 14  1  0  0  0
 39 33  1  0  0  0
 22 23  1  0  0  0
 31 32  1  0  0  0
M  END
> <minimizedAffinity>
-9.70814

> <CNNscore>
0.2147251666

> <CNNaffinity>
6.8045539856

> <CNN_VS>
1.4611090422

> <CNNaffinity_variance>
0.1421474814

$$$$
[H]c1c(-c2c([H])c(C(=O)N([H])c3c([H])c([H])c(F)c(S(=O)(=O)C([H])([H])[H])c3[H])c([H])c([H])c2C([H])([H])[H])nc(N2C([H])([H])C([H])([H])C(F)(F)C([H])([H])C2([H])[H])nc1N([H])C([H])([H])C(F)(F)F


 43 46  0  0  0  0  0  0  0  0999 V2000
    5.9869    3.0588   22.3714 C   0  0  0  0  0  0  0  0  0  0  0  0
    5.4401    2.9955   21.0153 C   0  0  0  0  0  0  0  0  0  0  0  0
    4.9867    1.7797   20.4809 C   0  0  0  0  0  0  0  0  0  0  0  0
    4.4679    1.7056   19.2015 C   0  0  0  0  0  0  0  0  0  0  0  0
    4.3765    2.8153   18.4066 C   0  0  0  0  0  0  0  0  0  0  0  0
    4.8232    4.0160   18.9312 C   0  0  0  0  0  0  0  0  0  0  0  0
    5.3510    4.1124   20.2224 C   0  0  0  0  0  0  0  0  0  0  0  0
    5.8012    5.4077   20.7138 C   0  0  0  0  0  0  0  0  0  0  0  0
    4.9504    6.4896   20.7586 C   0  0  0  0  0  0  0  0  0  0  0  0
    5.4117    7.7303   21.2398 C   0  0  0  0  0  0  0  0  0  0  0  0
    6.6792    7.8385   21.6491 N   0  0  0  0  0  0  0  0  0  0  0  0
    7.5237    6.7911   21.6121 C   0  0  0  0  0  0  0  0  0  0  0  0
    7.0349    5.6492   21.1499 N   0  0  0  0  0  0  0  0  0  0  0  0
    8.8574    6.9818   22.0652 N   0  0  0  0  0  0  0  0  0  0  0  0
    9.1532    6.8757   23.5017 C   0  0  0  0  0  0  0  0  0  0  0  0
   10.0522    5.6655   23.6708 C   0  0  0  0  0  0  0  0  0  0  0  0
   11.2378    5.7964   22.7655 C   0  0  0  0  0  0  0  0  0  0  0  0
   12.4003    5.7535   23.5078 F   0  0  0  0  0  0  0  0  0  0  0  0
   11.2839    4.7220   21.8788 F   0  0  0  0  0  0  0  0  0  0  0  0
   11.2351    7.1085   22.0019 C   0  0  0  0  0  0  0  0  0  0  0  0
    9.9610    7.2770   21.2023 C   0  0  0  0  0  0  0  0  0  0  0  0
    4.5286    8.8343   21.2808 N   0  0  0  0  0  0  0  0  0  0  0  0
    3.7207    8.8120   21.9098 H   0  0  0  0  0  0  0  0  0  0  0  0
    4.7699    9.9777   20.4416 C   0  0  0  0  0  0  0  0  0  0  0  0
    4.0672    9.8317   19.1070 C   0  0  0  0  0  0  0  0  0  0  0  0
    2.7408    9.4962   19.2466 F   0  0  0  0  0  0  0  0  0  0  0  0
    4.1085   11.0764   18.5035 F   0  0  0  0  0  0  0  0  0  0  0  0
    4.7392    8.9602   18.2870 F   0  0  0  0  0  0  0  0  0  0  0  0
    3.8186    2.7784   17.0269 C   0  0  0  0  0  0  0  0  0  0  0  0
    3.4863    1.6422   16.5687 O   0  0  0  0  0  0  0  0  0  0  0  0
    3.6630    3.9187   16.2648 N   0  0  0  0  0  0  0  0  0  0  0  0
    3.9641    4.8398   16.6941 H   0  0  0  0  0  0  0  0  0  0  0  0
    3.1359    3.9789   14.9572 C   0  0  0  0  0  0  0  0  0  0  0  0
    3.6433    3.3211   13.8604 C   0  0  0  0  0  0  0  0  0  0  0  0
    3.0365    3.4904   12.6169 C   0  0  0  0  0  0  0  0  0  0  0  0
    1.9354    4.2967   12.4300 C   0  0  0  0  0  0  0  0  0  0  0  0
    1.3697    4.4377   11.1996 F   0  0  0  0  0  0  0  0  0  0  0  0
    1.4073    4.9660   13.5120 C   0  0  0  0  0  0  0  0  0  0  0  0
    2.0050    4.7966   14.7237 C   0  0  0  0  0  0  0  0  0  0  0  0
    0.0106    5.9956   13.2978 S   0  0  0  0  0  0  0  0  0  0  0  0
    0.4132    7.3358   12.2016 C   0  0  0  0  0  0  0  0  0  0  0  0
   -1.1609    5.2263   12.8191 O   0  0  0  0  0  0  0  0  0  0  0  0
   -0.3044    6.6089   14.6396 O   0  0  0  0  0  0  0  0  0  0  0  0
  1  2  1  0  0  0
  2  3  2  0  0  0
  3  4  1  0  0  0
  4  5  2  0  0  0
  5  6  1  0  0  0
  6  7  2  0  0  0
  7  8  1  0  0  0
  8  9  2  0  0  0
  9 10  1  0  0  0
 10 22  1  0  0  0
 22 24  1  0  0  0
 24 25  1  0  0  0
 25 26  1  0  0  0
 25 27  1  0  0  0
 25 28  1  0  0  0
 10 11  2  0  0  0
 11 12  1  0  0  0
 12 13  2  0  0  0
 12 14  1  0  0  0
 14 15  1  0  0  0
 15 16  1  0  0  0
 16 17  1  0  0  0
 17 18  1  0  0  0
 17 19  1  0  0  0
 17 20  1  0  0  0
 20 21  1  0  0  0
  5 29  1  0  0  0
 29 30  2  0  0  0
 29 31  1  0  0  0
 31 33  1  0  0  0
 33 34  2  0  0  0
 34 35  1  0  0  0
 35 36  2  0  0  0
 36 37  1  0  0  0
 36 38  1  0  0  0
 38 39  2  0  0  0
 38 40  1  0  0  0
 40 41  1  0  0  0
 40 42  2  0  0  0
 40 43  2  0  0  0
  7  2  1  0  0  0
 13  8  1  0  0  0
 21 14  1  0  0  0
 39 33  1  0  0  0
 22 23  1  0  0  0
 31 32  1  0  0  0
M  END
> <minimizedAffinity>
-10.35338

> <CNNscore>
0.1944036633

> <CNNaffinity>
6.4921264648

> <CNN_VS>
1.2620931864

> <CNNaffinity_variance>
0.2810663879

$$$$
[H]c1c(-c2c([H])c(C(=O)N([H])c3c([H])c([H])c(F)c(S(=O)(=O)C([H])([H])[H])c3[H])c([H])c([H])c2C([H])([H])[H])nc(N2C([H])([H])C([H])([H])C(F)(F)C([H])([H])C2([H])[H])nc1N([H])C([H])([H])C(F)(F)F


 43 46  0  0  0  0  0  0  0  0999 V2000
    2.0343    8.3248   11.4913 C   0  0  0  0  0  0  0  0  0  0  0  0
    2.5124    7.8423   12.7877 C   0  0  0  0  0  0  0  0  0  0  0  0
    3.4921    8.5512   13.4998 C   0  0  0  0  0  0  0  0  0  0  0  0
    3.9527    8.1069   14.7254 C   0  0  0  0  0  0  0  0  0  0  0  0
    3.4709    6.9585   15.2915 C   0  0  0  0  0  0  0  0  0  0  0  0
    2.5044    6.2572   14.5912 C   0  0  0  0  0  0  0  0  0  0  0  0
    2.0252    6.6893   13.3508 C   0  0  0  0  0  0  0  0  0  0  0  0
    1.0055    5.9046   12.6676 C   0  0  0  0  0  0  0  0  0  0  0  0
   -0.3350    6.1198   12.8984 C   0  0  0  0  0  0  0  0  0  0  0  0
   -1.2999    5.3475   12.2230 C   0  0  0  0  0  0  0  0  0  0  0  0
   -0.8952    4.4098   11.3611 N   0  0  0  0  0  0  0  0  0  0  0  0
    0.4107    4.1867   11.1240 C   0  0  0  0  0  0  0  0  0  0  0  0
    1.2732    4.9431   11.7878 N   0  0  0  0  0  0  0  0  0  0  0  0
    0.7651    3.1729   10.1929 N   0  0  0  0  0  0  0  0  0  0  0  0
    2.1663    2.7365   10.1003 C   0  0  0  0  0  0  0  0  0  0  0  0
    2.2020    1.2925   10.5641 C   0  0  0  0  0  0  0  0  0  0  0  0
    1.2128    0.4921    9.7747 C   0  0  0  0  0  0  0  0  0  0  0  0
    1.8569   -0.5452    9.1317 F   0  0  0  0  0  0  0  0  0  0  0  0
    0.2723   -0.0825   10.6279 F   0  0  0  0  0  0  0  0  0  0  0  0
    0.5189    1.3242    8.7113 C   0  0  0  0  0  0  0  0  0  0  0  0
   -0.1671    2.5298    9.3170 C   0  0  0  0  0  0  0  0  0  0  0  0
   -2.6735    5.5776   12.4683 N   0  0  0  0  0  0  0  0  0  0  0  0
   -2.9795    5.8592   13.4043 H   0  0  0  0  0  0  0  0  0  0  0  0
   -3.6293    5.4154   11.4053 C   0  0  0  0  0  0  0  0  0  0  0  0
   -4.9940    5.9299   11.8168 C   0  0  0  0  0  0  0  0  0  0  0  0
   -5.7850    4.9438   12.3584 F   0  0  0  0  0  0  0  0  0  0  0  0
   -4.7766    6.8666   12.8120 F   0  0  0  0  0  0  0  0  0  0  0  0
   -5.6123    6.5781   10.7770 F   0  0  0  0  0  0  0  0  0  0  0  0
    3.9359    6.4503   16.6113 C   0  0  0  0  0  0  0  0  0  0  0  0
    4.6990    5.4360   16.6031 O   0  0  0  0  0  0  0  0  0  0  0  0
    3.5635    7.0426   17.8011 N   0  0  0  0  0  0  0  0  0  0  0  0
    2.9184    7.8821   17.7498 H   0  0  0  0  0  0  0  0  0  0  0  0
    3.9625    6.6364   19.0923 C   0  0  0  0  0  0  0  0  0  0  0  0
    3.4130    5.5979   19.8083 C   0  0  0  0  0  0  0  0  0  0  0  0
    3.8880    5.3201   21.0891 C   0  0  0  0  0  0  0  0  0  0  0  0
    4.8974    6.0462   21.6820 C   0  0  0  0  0  0  0  0  0  0  0  0
    5.3351    5.7452   22.9357 F   0  0  0  0  0  0  0  0  0  0  0  0
    5.4651    7.0907   20.9862 C   0  0  0  0  0  0  0  0  0  0  0  0
    4.9963    7.3570   19.7358 C   0  0  0  0  0  0  0  0  0  0  0  0
    6.7470    8.0264   21.7195 S   0  0  0  0  0  0  0  0  0  0  0  0
    6.0560    9.4050   22.6036 C   0  0  0  0  0  0  0  0  0  0  0  0
    7.6005    7.1861   22.5908 O   0  0  0  0  0  0  0  0  0  0  0  0
    7.5807    8.5994   20.6003 O   0  0  0  0  0  0  0  0  0  0  0  0
  1  2  1  0  0  0
  2  3  2  0  0  0
  3  4  1  0  0  0
  4  5  2  0  0  0
  5  6  1  0  0  0
  6  7  2  0  0  0
  7  8  1  0  0  0
  8  9  2  0  0  0
  9 10  1  0  0  0
 10 22  1  0  0  0
 22 24  1  0  0  0
 24 25  1  0  0  0
 25 26  1  0  0  0
 25 27  1  0  0  0
 25 28  1  0  0  0
 10 11  2  0  0  0
 11 12  1  0  0  0
 12 13  2  0  0  0
 12 14  1  0  0  0
 14 15  1  0  0  0
 15 16  1  0  0  0
 16 17  1  0  0  0
 17 18  1  0  0  0
 17 19  1  0  0  0
 17 20  1  0  0  0
 20 21  1  0  0  0
  5 29  1  0  0  0
 29 30  2  0  0  0
 29 31  1  0  0  0
 31 33  1  0  0  0
 33 34  2  0  0  0
 34 35  1  0  0  0
 35 36  2  0  0  0
 36 37  1  0  0  0
 36 38  1  0  0  0
 38 39  2  0  0  0
 38 40  1  0  0  0
 40 41  1  0  0  0
 40 42  2  0  0  0
 40 43  2  0  0  0
  7  2  1  0  0  0
 13  8  1  0  0  0
 21 14  1  0  0  0
 39 33  1  0  0  0
 22 23  1  0  0  0
 31 32  1  0  0  0
M  END
> <minimizedAffinity>
-8.88285

> <CNNscore>
0.1895801425

> <CNNaffinity>
6.1336398125

> <CNN_VS>
1.1628162861

> <CNNaffinity_variance>
0.1884352416

$$$$
[H]c1c(-c2c([H])c(C(=O)N([H])c3c([H])c([H])c(F)c(S(=O)(=O)C([H])([H])[H])c3[H])c([H])c([H])c2C([H])([H])[H])nc(N2C([H])([H])C([H])([H])C(F)(F)C([H])([H])C2([H])[H])nc1N([H])C([H])([H])C(F)(F)F


 43 46  0  0  0  0  0  0  0  0999 V2000
    4.2109    1.8054   17.3438 C   0  0  0  0  0  0  0  0  0  0  0  0
    3.4685    2.5630   16.3354 C   0  0  0  0  0  0  0  0  0  0  0  0
    3.1049    1.9698   15.1167 C   0  0  0  0  0  0  0  0  0  0  0  0
    2.4035    2.6738   14.1553 C   0  0  0  0  0  0  0  0  0  0  0  0
    2.0367    3.9765   14.3552 C   0  0  0  0  0  0  0  0  0  0  0  0
    2.3942    4.5641   15.5566 C   0  0  0  0  0  0  0  0  0  0  0  0
    3.1032    3.8699   16.5416 C   0  0  0  0  0  0  0  0  0  0  0  0
    3.4460    4.5476   17.7847 C   0  0  0  0  0  0  0  0  0  0  0  0
    3.2594    5.9039   17.9336 C   0  0  0  0  0  0  0  0  0  0  0  0
    3.5982    6.5335   19.1471 C   0  0  0  0  0  0  0  0  0  0  0  0
    4.0997    5.7977   20.1436 N   0  0  0  0  0  0  0  0  0  0  0  0
    4.2882    4.4713   20.0145 C   0  0  0  0  0  0  0  0  0  0  0  0
    3.9518    3.9333   18.8510 N   0  0  0  0  0  0  0  0  0  0  0  0
    4.8251    3.7544   21.1183 N   0  0  0  0  0  0  0  0  0  0  0  0
    4.8067    4.3679   22.4546 C   0  0  0  0  0  0  0  0  0  0  0  0
    3.8764    3.5247   23.3059 C   0  0  0  0  0  0  0  0  0  0  0  0
    4.3107    2.0927   23.2482 C   0  0  0  0  0  0  0  0  0  0  0  0
    4.5783    1.6332   24.5216 F   0  0  0  0  0  0  0  0  0  0  0  0
    3.2824    1.3008   22.7400 F   0  0  0  0  0  0  0  0  0  0  0  0
    5.5725    1.9082   22.4246 C   0  0  0  0  0  0  0  0  0  0  0  0
    5.3965    2.4453   21.0205 C   0  0  0  0  0  0  0  0  0  0  0  0
    3.4022    7.9270   19.2881 N   0  0  0  0  0  0  0  0  0  0  0  0
    2.4836    8.2822   19.5688 H   0  0  0  0  0  0  0  0  0  0  0  0
    4.4908    8.8337   19.0374 C   0  0  0  0  0  0  0  0  0  0  0  0
    4.9149    9.5403   20.3090 C   0  0  0  0  0  0  0  0  0  0  0  0
    4.4753    8.8933   21.4402 F   0  0  0  0  0  0  0  0  0  0  0  0
    6.2981    9.5057   20.3347 F   0  0  0  0  0  0  0  0  0  0  0  0
    4.5419   10.8610   20.2889 F   0  0  0  0  0  0  0  0  0  0  0  0
    1.2760    4.7663   13.3484 C   0  0  0  0  0  0  0  0  0  0  0  0
    0.8044    5.8825   13.7266 O   0  0  0  0  0  0  0  0  0  0  0  0
    1.0817    4.3203   12.0567 N   0  0  0  0  0  0  0  0  0  0  0  0
    1.4907    3.3776   11.7970 H   0  0  0  0  0  0  0  0  0  0  0  0
    0.3855    5.0040   11.0372 C   0  0  0  0  0  0  0  0  0  0  0  0
    0.9374    5.9137   10.1649 C   0  0  0  0  0  0  0  0  0  0  0  0
    0.1255    6.5370    9.2185 C   0  0  0  0  0  0  0  0  0  0  0  0
   -1.2240    6.2818    9.1123 C   0  0  0  0  0  0  0  0  0  0  0  0
   -1.9853    6.9107    8.1748 F   0  0  0  0  0  0  0  0  0  0  0  0
   -1.8011    5.3746    9.9732 C   0  0  0  0  0  0  0  0  0  0  0  0
   -1.0026    4.7696   10.8955 C   0  0  0  0  0  0  0  0  0  0  0  0
   -3.5124    5.0360    9.8570 S   0  0  0  0  0  0  0  0  0  0  0  0
   -3.9901    3.9021   11.1399 C   0  0  0  0  0  0  0  0  0  0  0  0
   -4.3145    6.2804    9.8959 O   0  0  0  0  0  0  0  0  0  0  0  0
   -3.7419    4.3304    8.5434 O   0  0  0  0  0  0  0  0  0  0  0  0
  1  2  1  0  0  0
  2  3  2  0  0  0
  3  4  1  0  0  0
  4  5  2  0  0  0
  5  6  1  0  0  0
  6  7  2  0  0  0
  7  8  1  0  0  0
  8  9  2  0  0  0
  9 10  1  0  0  0
 10 22  1  0  0  0
 22 24  1  0  0  0
 24 25  1  0  0  0
 25 26  1  0  0  0
 25 27  1  0  0  0
 25 28  1  0  0  0
 10 11  2  0  0  0
 11 12  1  0  0  0
 12 13  2  0  0  0
 12 14  1  0  0  0
 14 15  1  0  0  0
 15 16  1  0  0  0
 16 17  1  0  0  0
 17 18  1  0  0  0
 17 19  1  0  0  0
 17 20  1  0  0  0
 20 21  1  0  0  0
  5 29  1  0  0  0
 29 30  2  0  0  0
 29 31  1  0  0  0
 31 33  1  0  0  0
 33 34  2  0  0  0
 34 35  1  0  0  0
 35 36  2  0  0  0
 36 37  1  0  0  0
 36 38  1  0  0  0
 38 39  2  0  0  0
 38 40  1  0  0  0
 40 41  1  0  0  0
 40 42  2  0  0  0
 40 43  2  0  0  0
  7  2  1  0  0  0
 13  8  1  0  0  0
 21 14  1  0  0  0
 39 33  1  0  0  0
 22 23  1  0  0  0
 31 32  1  0  0  0
M  END
> <minimizedAffinity>
-10.24203

> <CNNscore>
0.1851133704

> <CNNaffinity>
6.7132620811

> <CNN_VS>
1.2427145243

> <CNNaffinity_variance>
0.2965878546

$$$$
[H]c1c(-c2c([H])c(C(=O)N([H])c3c([H])c([H])c(F)c(S(=O)(=O)C([H])([H])[H])c3[H])c([H])c([H])c2C([H])([H])[H])nc(N2C([H])([H])C([H])([H])C(F)(F)C([H])([H])C2([H])[H])nc1N([H])C([H])([H])C(F)(F)F


 43 46  0  0  0  0  0  0  0  0999 V2000
    4.8127    1.5636   19.6939 C   0  0  0  0  0  0  0  0  0  0  0  0
    4.2152    2.0568   18.4523 C   0  0  0  0  0  0  0  0  0  0  0  0
    3.8586    1.1687   17.4259 C   0  0  0  0  0  0  0  0  0  0  0  0
    3.2934    1.6209   16.2478 C   0  0  0  0  0  0  0  0  0  0  0  0
    3.0598    2.9524   16.0373 C   0  0  0  0  0  0  0  0  0  0  0  0
    3.4108    3.8306   17.0482 C   0  0  0  0  0  0  0  0  0  0  0  0
    3.9832    3.3939   18.2467 C   0  0  0  0  0  0  0  0  0  0  0  0
    4.3270    4.3715   19.2705 C   0  0  0  0  0  0  0  0  0  0  0  0
    4.5387    3.9925   20.5774 C   0  0  0  0  0  0  0  0  0  0  0  0
    4.8713    4.9585   21.5469 C   0  0  0  0  0  0  0  0  0  0  0  0
    4.9772    6.2390   21.1795 N   0  0  0  0  0  0  0  0  0  0  0  0
    4.7737    6.6262   19.9066 C   0  0  0  0  0  0  0  0  0  0  0  0
    4.4635    5.6745   19.0380 N   0  0  0  0  0  0  0  0  0  0  0  0
    4.9052    8.0057   19.5906 N   0  0  0  0  0  0  0  0  0  0  0  0
    5.2736    8.4004   18.2228 C   0  0  0  0  0  0  0  0  0  0  0  0
    4.0799    9.1399   17.6486 C   0  0  0  0  0  0  0  0  0  0  0  0
    3.6950   10.2549   18.5712 C   0  0  0  0  0  0  0  0  0  0  0  0
    3.7405   11.4576   17.8962 F   0  0  0  0  0  0  0  0  0  0  0  0
    2.3818   10.0844   19.0062 F   0  0  0  0  0  0  0  0  0  0  0  0
    4.6324   10.3659   19.7602 C   0  0  0  0  0  0  0  0  0  0  0  0
    4.6994    9.0652   20.5313 C   0  0  0  0  0  0  0  0  0  0  0  0
    5.0862    4.5572   22.8860 N   0  0  0  0  0  0  0  0  0  0  0  0
    5.8173    5.0137   23.4391 H   0  0  0  0  0  0  0  0  0  0  0  0
    4.2792    3.5140   23.4607 C   0  0  0  0  0  0  0  0  0  0  0  0
    5.0667    2.2260   23.5916 C   0  0  0  0  0  0  0  0  0  0  0  0
    5.2868    1.8768   24.9036 F   0  0  0  0  0  0  0  0  0  0  0  0
    4.2852    1.2296   23.0333 F   0  0  0  0  0  0  0  0  0  0  0  0
    6.2313    2.2825   22.8676 F   0  0  0  0  0  0  0  0  0  0  0  0
    2.4477    3.4784   14.7864 C   0  0  0  0  0  0  0  0  0  0  0  0
    2.5304    2.7478   13.7516 O   0  0  0  0  0  0  0  0  0  0  0  0
    1.8149    4.7040   14.7351 N   0  0  0  0  0  0  0  0  0  0  0  0
    1.7817    5.2760   15.6268 H   0  0  0  0  0  0  0  0  0  0  0  0
    1.2005    5.2753   13.6004 C   0  0  0  0  0  0  0  0  0  0  0  0
   -0.1503    5.2762   13.3389 C   0  0  0  0  0  0  0  0  0  0  0  0
   -0.6214    5.8563   12.1622 C   0  0  0  0  0  0  0  0  0  0  0  0
    0.2132    6.4388   11.2339 C   0  0  0  0  0  0  0  0  0  0  0  0
   -0.2840    6.9957   10.0952 F   0  0  0  0  0  0  0  0  0  0  0  0
    1.5698    6.4519   11.4720 C   0  0  0  0  0  0  0  0  0  0  0  0
    2.0234    5.8831   12.6231 C   0  0  0  0  0  0  0  0  0  0  0  0
    2.6479    7.1849   10.3070 S   0  0  0  0  0  0  0  0  0  0  0  0
    4.2815    7.3128   10.9959 C   0  0  0  0  0  0  0  0  0  0  0  0
    2.6476    6.4412    9.0262 O   0  0  0  0  0  0  0  0  0  0  0  0
    2.1624    8.5935   10.0709 O   0  0  0  0  0  0  0  0  0  0  0  0
  1  2  1  0  0  0
  2  3  2  0  0  0
  3  4  1  0  0  0
  4  5  2  0  0  0
  5  6  1  0  0  0
  6  7  2  0  0  0
  7  8  1  0  0  0
  8  9  2  0  0  0
  9 10  1  0  0  0
 10 22  1  0  0  0
 22 24  1  0  0  0
 24 25  1  0  0  0
 25 26  1  0  0  0
 25 27  1  0  0  0
 25 28  1  0  0  0
 10 11  2  0  0  0
 11 12  1  0  0  0
 12 13  2  0  0  0
 12 14  1  0  0  0
 14 15  1  0  0  0
 15 16  1  0  0  0
 16 17  1  0  0  0
 17 18  1  0  0  0
 17 19  1  0  0  0
 17 20  1  0  0  0
 20 21  1  0  0  0
  5 29  1  0  0  0
 29 30  2  0  0  0
 29 31  1  0  0  0
 31 33  1  0  0  0
 33 34  2  0  0  0
 34 35  1  0  0  0
 35 36  2  0  0  0
 36 37  1  0  0  0
 36 38  1  0  0  0
 38 39  2  0  0  0
 38 40  1  0  0  0
 40 41  1  0  0  0
 40 42  2  0  0  0
 40 43  2  0  0  0
  7  2  1  0  0  0
 13  8  1  0  0  0
 21 14  1  0  0  0
 39 33  1  0  0  0
 22 23  1  0  0  0
 31 32  1  0  0  0
M  END
> <minimizedAffinity>
-10.03905

> <CNNscore>
0.1713563353

> <CNNaffinity>
6.9692664146

> <CNN_VS>
1.1942279339

> <CNNaffinity_variance>
0.4143811166

$$$$
[H]c1c(-c2c([H])c(C(=O)N([H])c3c([H])c([H])c(F)c(S(=O)(=O)C([H])([H])[H])c3[H])c([H])c([H])c2C([H])([H])[H])nc(N2C([H])([H])C([H])([H])C(F)(F)C([H])([H])C2([H])[H])nc1N([H])C([H])([H])C(F)(F)F


 43 46  0  0  0  0  0  0  0  0999 V2000
    2.9110    5.7338   10.7587 C   0  0  0  0  0  0  0  0  0  0  0  0
    2.8489    5.0998   12.0763 C   0  0  0  0  0  0  0  0  0  0  0  0
    3.6885    5.5252   13.1171 C   0  0  0  0  0  0  0  0  0  0  0  0
    3.6404    4.9352   14.3666 C   0  0  0  0  0  0  0  0  0  0  0  0
    2.7719    3.9132   14.6366 C   0  0  0  0  0  0  0  0  0  0  0  0
    1.9426    3.4915   13.6116 C   0  0  0  0  0  0  0  0  0  0  0  0
    1.9754    4.0747   12.3413 C   0  0  0  0  0  0  0  0  0  0  0  0
    1.0734    3.5841   11.3079 C   0  0  0  0  0  0  0  0  0  0  0  0
    1.4055    2.5004   10.5258 C   0  0  0  0  0  0  0  0  0  0  0  0
    0.5140    2.0462    9.5346 C   0  0  0  0  0  0  0  0  0  0  0  0
   -0.6507    2.6800    9.3678 N   0  0  0  0  0  0  0  0  0  0  0  0
   -0.9907    3.7404   10.1236 C   0  0  0  0  0  0  0  0  0  0  0  0
   -0.1131    4.1233   11.0400 N   0  0  0  0  0  0  0  0  0  0  0  0
   -2.2469    4.3627    9.8890 N   0  0  0  0  0  0  0  0  0  0  0  0
   -3.4770    3.5627    9.9836 C   0  0  0  0  0  0  0  0  0  0  0  0
   -4.2590    4.1079   11.1637 C   0  0  0  0  0  0  0  0  0  0  0  0
   -4.4485    5.5838   10.9954 C   0  0  0  0  0  0  0  0  0  0  0  0
   -5.7950    5.8861   10.9996 F   0  0  0  0  0  0  0  0  0  0  0  0
   -3.8775    6.2652   12.0689 F   0  0  0  0  0  0  0  0  0  0  0  0
   -3.8735    6.0908    9.6851 C   0  0  0  0  0  0  0  0  0  0  0  0
   -2.4049    5.7470    9.5591 C   0  0  0  0  0  0  0  0  0  0  0  0
    0.8662    0.9324    8.7375 N   0  0  0  0  0  0  0  0  0  0  0  0
    0.7514    0.9820    7.7210 H   0  0  0  0  0  0  0  0  0  0  0  0
    1.3816   -0.2593    9.3572 C   0  0  0  0  0  0  0  0  0  0  0  0
    2.8371   -0.4756    8.9950 C   0  0  0  0  0  0  0  0  0  0  0  0
    3.6695   -0.3741   10.0850 F   0  0  0  0  0  0  0  0  0  0  0  0
    2.9367   -1.7750    8.5293 F   0  0  0  0  0  0  0  0  0  0  0  0
    3.2203    0.3535    7.9706 F   0  0  0  0  0  0  0  0  0  0  0  0
    2.6850    3.2564   15.9697 C   0  0  0  0  0  0  0  0  0  0  0  0
    1.9741    3.8303   16.8509 O   0  0  0  0  0  0  0  0  0  0  0  0
    3.3419    2.0760   16.2532 N   0  0  0  0  0  0  0  0  0  0  0  0
    3.9279    1.6441   15.4828 H   0  0  0  0  0  0  0  0  0  0  0  0
    3.3085    1.3802   17.4804 C   0  0  0  0  0  0  0  0  0  0  0  0
    2.5647    0.2519   17.7389 C   0  0  0  0  0  0  0  0  0  0  0  0
    2.6058   -0.3214   19.0089 C   0  0  0  0  0  0  0  0  0  0  0  0
    3.3676    0.1949   20.0339 C   0  0  0  0  0  0  0  0  0  0  0  0
    3.3821   -0.3929   21.2620 F   0  0  0  0  0  0  0  0  0  0  0  0
    4.1220    1.3236   19.8012 C   0  0  0  0  0  0  0  0  0  0  0  0
    4.0771    1.8788   18.5587 C   0  0  0  0  0  0  0  0  0  0  0  0
    5.0956    1.9967   21.0880 S   0  0  0  0  0  0  0  0  0  0  0  0
    6.4726    0.9244   21.4249 C   0  0  0  0  0  0  0  0  0  0  0  0
    5.5362    3.3744   20.7696 O   0  0  0  0  0  0  0  0  0  0  0  0
    4.2429    2.0162   22.3323 O   0  0  0  0  0  0  0  0  0  0  0  0
  1  2  1  0  0  0
  2  3  2  0  0  0
  3  4  1  0  0  0
  4  5  2  0  0  0
  5  6  1  0  0  0
  6  7  2  0  0  0
  7  8  1  0  0  0
  8  9  2  0  0  0
  9 10  1  0  0  0
 10 22  1  0  0  0
 22 24  1  0  0  0
 24 25  1  0  0  0
 25 26  1  0  0  0
 25 27  1  0  0  0
 25 28  1  0  0  0
 10 11  2  0  0  0
 11 12  1  0  0  0
 12 13  2  0  0  0
 12 14  1  0  0  0
 14 15  1  0  0  0
 15 16  1  0  0  0
 16 17  1  0  0  0
 17 18  1  0  0  0
 17 19  1  0  0  0
 17 20  1  0  0  0
 20 21  1  0  0  0
  5 29  1  0  0  0
 29 30  2  0  0  0
 29 31  1  0  0  0
 31 33  1  0  0  0
 33 34  2  0  0  0
 34 35  1  0  0  0
 35 36  2  0  0  0
 36 37  1  0  0  0
 36 38  1  0  0  0
 38 39  2  0  0  0
 38 40  1  0  0  0
 40 41  1  0  0  0
 40 42  2  0  0  0
 40 43  2  0  0  0
  7  2  1  0  0  0
 13  8  1  0  0  0
 21 14  1  0  0  0
 39 33  1  0  0  0
 22 23  1  0  0  0
 31 32  1  0  0  0
M  END
> <minimizedAffinity>
-8.17678

> <CNNscore>
0.1699126065

> <CNNaffinity>
6.7629103661

> <CNN_VS>
1.1491037607

> <CNNaffinity_variance>
0.1565461904

$$$$
[H]c1c(-c2c([H])c(C(=O)N([H])c3c([H])c([H])c(F)c(S(=O)(=O)C([H])([H])[H])c3[H])c([H])c([H])c2C([H])([H])[H])nc(N2C([H])([H])C([H])([H])C(F)(F)C([H])([H])C2([H])[H])nc1N([H])C([H])([H])C(F)(F)F


 43 46  0  0  0  0  0  0  0  0999 V2000
    3.9813    0.6843   19.9251 C   0  0  0  0  0  0  0  0  0  0  0  0
    3.6514    1.1342   18.5722 C   0  0  0  0  0  0  0  0  0  0  0  0
    3.0327    0.2668   17.6589 C   0  0  0  0  0  0  0  0  0  0  0  0
    2.7154    0.6786   16.3777 C   0  0  0  0  0  0  0  0  0  0  0  0
    2.9926    1.9485   15.9507 C   0  0  0  0  0  0  0  0  0  0  0  0
    3.6030    2.8062   16.8496 C   0  0  0  0  0  0  0  0  0  0  0  0
    3.9320    2.4096   18.1493 C   0  0  0  0  0  0  0  0  0  0  0  0
    4.5716    3.3634   19.0456 C   0  0  0  0  0  0  0  0  0  0  0  0
    5.0912    2.9667   20.2576 C   0  0  0  0  0  0  0  0  0  0  0  0
    5.7056    3.9097   21.1043 C   0  0  0  0  0  0  0  0  0  0  0  0
    5.7752    5.1860   20.7140 N   0  0  0  0  0  0  0  0  0  0  0  0
    5.2725    5.5902   19.5328 C   0  0  0  0  0  0  0  0  0  0  0  0
    4.7061    4.6597   18.7779 N   0  0  0  0  0  0  0  0  0  0  0  0
    5.3845    6.9639   19.1851 N   0  0  0  0  0  0  0  0  0  0  0  0
    4.3647    7.5742   18.3192 C   0  0  0  0  0  0  0  0  0  0  0  0
    3.6417    8.6072   19.1627 C   0  0  0  0  0  0  0  0  0  0  0  0
    4.6410    9.5479   19.7616 C   0  0  0  0  0  0  0  0  0  0  0  0
    4.3530   10.8422   19.3792 F   0  0  0  0  0  0  0  0  0  0  0  0
    4.5607    9.5096   21.1525 F   0  0  0  0  0  0  0  0  0  0  0  0
    6.0579    9.2453   19.3082 C   0  0  0  0  0  0  0  0  0  0  0  0
    6.4449    7.8175   19.6285 C   0  0  0  0  0  0  0  0  0  0  0  0
    6.2355    3.4904   22.3467 N   0  0  0  0  0  0  0  0  0  0  0  0
    6.8439    4.1221   22.8756 H   0  0  0  0  0  0  0  0  0  0  0  0
    5.9177    2.1838   22.8581 C   0  0  0  0  0  0  0  0  0  0  0  0
    4.7101    2.2357   23.7721 C   0  0  0  0  0  0  0  0  0  0  0  0
    4.3218    3.5242   24.0555 F   0  0  0  0  0  0  0  0  0  0  0  0
    3.6687    1.6420   23.0806 F   0  0  0  0  0  0  0  0  0  0  0  0
    4.9177    1.4947   24.9085 F   0  0  0  0  0  0  0  0  0  0  0  0
    2.6614    2.4322   14.5823 C   0  0  0  0  0  0  0  0  0  0  0  0
    3.5607    3.0827   13.9664 O   0  0  0  0  0  0  0  0  0  0  0  0
    1.4358    2.1938   13.9937 N   0  0  0  0  0  0  0  0  0  0  0  0
    0.7191    1.6521   14.5561 H   0  0  0  0  0  0  0  0  0  0  0  0
    1.0400    2.6040   12.7027 C   0  0  0  0  0  0  0  0  0  0  0  0
    1.2633    1.9047   11.5390 C   0  0  0  0  0  0  0  0  0  0  0  0
    0.8395    2.4407   10.3239 C   0  0  0  0  0  0  0  0  0  0  0  0
    0.1970    3.6556   10.2305 C   0  0  0  0  0  0  0  0  0  0  0  0
   -0.2024    4.1472    9.0251 F   0  0  0  0  0  0  0  0  0  0  0  0
   -0.0395    4.3754   11.3808 C   0  0  0  0  0  0  0  0  0  0  0  0
    0.3774    3.8464   12.5642 C   0  0  0  0  0  0  0  0  0  0  0  0
   -0.8525    5.9203   11.2856 S   0  0  0  0  0  0  0  0  0  0  0  0
   -1.1124    6.5655   12.9215 C   0  0  0  0  0  0  0  0  0  0  0  0
   -0.1072    6.8727   10.4306 O   0  0  0  0  0  0  0  0  0  0  0  0
   -2.2173    5.6731   10.6922 O   0  0  0  0  0  0  0  0  0  0  0  0
  1  2  1  0  0  0
  2  3  2  0  0  0
  3  4  1  0  0  0
  4  5  2  0  0  0
  5  6  1  0  0  0
  6  7  2  0  0  0
  7  8  1  0  0  0
  8  9  2  0  0  0
  9 10  1  0  0  0
 10 22  1  0  0  0
 22 24  1  0  0  0
 24 25  1  0  0  0
 25 26  1  0  0  0
 25 27  1  0  0  0
 25 28  1  0  0  0
 10 11  2  0  0  0
 11 12  1  0  0  0
 12 13  2  0  0  0
 12 14  1  0  0  0
 14 15  1  0  0  0
 15 16  1  0  0  0
 16 17  1  0  0  0
 17 18  1  0  0  0
 17 19  1  0  0  0
 17 20  1  0  0  0
 20 21  1  0  0  0
  5 29  1  0  0  0
 29 30  2  0  0  0
 29 31  1  0  0  0
 31 33  1  0  0  0
 33 34  2  0  0  0
 34 35  1  0  0  0
 35 36  2  0  0  0
 36 37  1  0  0  0
 36 38  1  0  0  0
 38 39  2  0  0  0
 38 40  1  0  0  0
 40 41  1  0  0  0
 40 42  2  0  0  0
 40 43  2  0  0  0
  7  2  1  0  0  0
 13  8  1  0  0  0
 21 14  1  0  0  0
 39 33  1  0  0  0
 22 23  1  0  0  0
 31 32  1  0  0  0
M  END
> <minimizedAffinity>
-10.43833

> <CNNscore>
0.1524091959

> <CNNaffinity>
6.8646574020

> <CNN_VS>
1.0462368727

> <CNNaffinity_variance>
0.2177522480

$$$$
[H]OC([H])([H])C(=O)N1C([H])([H])C([H])([H])C([H])(c2c([H])nn3c([H])c(-c4c([H])c([H])c(C([H])([H])[H])c(N([H])C(=O)c5c([H])c([H])c([H])c([H])c5[H])c4[H])c([H])nc23)C([H])([H])C1([H])[H]


 37 41  0  0  0  0  0  0  0  0999 V2000
    3.3240    2.1006   16.4542 C   0  0  0  0  0  0  0  0  0  0  0  0
    4.2116    2.6258   17.3666 C   0  0  0  0  0  0  0  0  0  0  0  0
    4.3628    2.1113   18.5960 N   0  0  0  0  0  0  0  0  0  0  0  0
    3.6215    1.0386   18.9603 C   0  0  0  0  0  0  0  0  0  0  0  0
    3.6017    0.3312   20.1567 C   0  0  0  0  0  0  0  0  0  0  0  0
    2.6696   -0.6661   19.9803 C   0  0  0  0  0  0  0  0  0  0  0  0
    2.1974   -0.5196   18.7514 N   0  0  0  0  0  0  0  0  0  0  0  0
    2.7408    0.4898   18.1052 N   0  0  0  0  0  0  0  0  0  0  0  0
    2.5808    1.0060   16.8556 C   0  0  0  0  0  0  0  0  0  0  0  0
    4.4527    0.6751   21.3258 C   0  0  0  0  0  0  0  0  0  0  0  0
    3.7166    1.5022   22.3409 C   0  0  0  0  0  0  0  0  0  0  0  0
    3.8520    2.9682   22.1476 C   0  0  0  0  0  0  0  0  0  0  0  0
    5.2132    3.4091   21.9056 N   0  0  0  0  0  0  0  0  0  0  0  0
    6.2181    2.4172   21.7097 C   0  0  0  0  0  0  0  0  0  0  0  0
    5.7228    1.3201   20.8433 C   0  0  0  0  0  0  0  0  0  0  0  0
    5.4801    4.8165   21.8801 C   0  0  0  0  0  0  0  0  0  0  0  0
    6.6466    5.2247   21.6697 O   0  0  0  0  0  0  0  0  0  0  0  0
    4.4017    5.8054   22.0988 C   0  0  0  0  0  0  0  0  0  0  0  0
    3.9293    6.2934   20.8996 O   0  0  0  0  0  0  0  0  0  0  0  0
    3.5087    5.5723   20.3900 H   0  0  0  0  0  0  0  0  0  0  0  0
    2.7242    4.2824   11.1560 C   0  0  0  0  0  0  0  0  0  0  0  0
    2.8860    3.7261   12.5258 C   0  0  0  0  0  0  0  0  0  0  0  0
    3.8126    4.2130   13.4061 C   0  0  0  0  0  0  0  0  0  0  0  0
    3.9474    3.6833   14.6714 C   0  0  0  0  0  0  0  0  0  0  0  0
    3.1657    2.6456   15.1152 C   0  0  0  0  0  0  0  0  0  0  0  0
    2.2154    2.1439   14.2170 C   0  0  0  0  0  0  0  0  0  0  0  0
    2.0663    2.6610   12.9488 C   0  0  0  0  0  0  0  0  0  0  0  0
    1.1356    2.2129   11.9864 N   0  0  0  0  0  0  0  0  0  0  0  0
    1.4477    1.3426   10.9329 C   0  0  0  0  0  0  0  0  0  0  0  0
    2.5538    0.8470   10.6947 O   0  0  0  0  0  0  0  0  0  0  0  0
    0.1253    2.5309   12.0332 H   0  0  0  0  0  0  0  0  0  0  0  0
    0.3748    0.9317    9.9625 C   0  0  0  0  0  0  0  0  0  0  0  0
   -0.3595    1.8749    9.3044 C   0  0  0  0  0  0  0  0  0  0  0  0
   -1.3388    1.5180    8.4263 C   0  0  0  0  0  0  0  0  0  0  0  0
   -1.5810    0.1800    8.2089 C   0  0  0  0  0  0  0  0  0  0  0  0
   -0.8781   -0.8022    8.8394 C   0  0  0  0  0  0  0  0  0  0  0  0
    0.1142   -0.3947    9.7291 C   0  0  0  0  0  0  0  0  0  0  0  0
 21 22  1  0  0  0
 22 23  2  0  0  0
 23 24  1  0  0  0
 24 25  2  0  0  0
 25 26  1  0  0  0
 26 27  2  0  0  0
 27 28  1  0  0  0
 28 29  1  0  0  0
 29 30  2  0  0  0
 29 32  1  0  0  0
 32 33  2  0  0  0
 33 34  1  0  0  0
 34 35  2  0  0  0
 35 36  1  0  0  0
 36 37  2  0  0  0
 25  1  1  0  0  0
  1  2  1  0  0  0
  2  3  2  0  0  0
  3  4  1  0  0  0
  4  5  2  0  0  0
  5  6  1  0  0  0
  6  7  2  0  0  0
  7  8  1  0  0  0
  8  9  1  0  0  0
  5 10  1  0  0  0
 10 11  1  0  0  0
 11 12  1  0  0  0
 12 13  1  0  0  0
 13 14  1  0  0  0
 14 15  1  0  0  0
 13 16  1  0  0  0
 16 17  2  0  0  0
 16 18  1  0  0  0
 18 19  1  0  0  0
 27 22  1  0  0  0
 37 32  1  0  0  0
  9  1  2  0  0  0
 15 10  1  0  0  0
  8  4  1  0  0  0
 28 31  1  0  0  0
 19 20  1  0  0  0
M  END
> <minimizedAffinity>
-9.81523

> <CNNscore>
0.9631565809

> <CNNaffinity>
7.4196610451

> <CNN_VS>
7.1462955475

> <CNNaffinity_variance>
0.1565665752

$$$$
[H]OC([H])([H])C(=O)N1C([H])([H])C([H])([H])C([H])(c2c([H])nn3c([H])c(-c4c([H])c([H])c(C([H])([H])[H])c(N([H])C(=O)c5c([H])c([H])c([H])c([H])c5[H])c4[H])c([H])nc23)C([H])([H])C1([H])[H]


 37 41  0  0  0  0  0  0  0  0999 V2000
    3.1487    2.3648   16.2625 C   0  0  0  0  0  0  0  0  0  0  0  0
    4.0064    2.8330   17.2328 C   0  0  0  0  0  0  0  0  0  0  0  0
    4.1636    2.2101   18.4102 N   0  0  0  0  0  0  0  0  0  0  0  0
    3.4592    1.0815   18.6612 C   0  0  0  0  0  0  0  0  0  0  0  0
    3.4533    0.2637   19.7850 C   0  0  0  0  0  0  0  0  0  0  0  0
    2.5611   -0.7456   19.5023 C   0  0  0  0  0  0  0  0  0  0  0  0
    2.0969   -0.5005   18.2861 N   0  0  0  0  0  0  0  0  0  0  0  0
    2.6089    0.5846   17.7457 N   0  0  0  0  0  0  0  0  0  0  0  0
    2.4430    1.2108   16.5483 C   0  0  0  0  0  0  0  0  0  0  0  0
    4.2783    0.5259   20.9933 C   0  0  0  0  0  0  0  0  0  0  0  0
    3.5043    1.2364   22.0668 C   0  0  0  0  0  0  0  0  0  0  0  0
    3.5971    2.7172   22.0077 C   0  0  0  0  0  0  0  0  0  0  0  0
    4.9471    3.2178   21.8272 N   0  0  0  0  0  0  0  0  0  0  0  0
    5.9844    2.2775   21.5589 C   0  0  0  0  0  0  0  0  0  0  0  0
    5.5341    1.2488   20.5902 C   0  0  0  0  0  0  0  0  0  0  0  0
    5.1711    4.6290   21.9320 C   0  0  0  0  0  0  0  0  0  0  0  0
    6.3272    5.0887   21.7771 O   0  0  0  0  0  0  0  0  0  0  0  0
    4.0602    5.5622   22.2215 C   0  0  0  0  0  0  0  0  0  0  0  0
    4.4343    6.8657   21.9764 O   0  0  0  0  0  0  0  0  0  0  0  0
    4.6198    6.9847   21.0235 H   0  0  0  0  0  0  0  0  0  0  0  0
    2.5334    4.9980   11.1753 C   0  0  0  0  0  0  0  0  0  0  0  0
    2.7021    4.3204   12.4886 C   0  0  0  0  0  0  0  0  0  0  0  0
    3.9228    4.1923   13.0918 C   0  0  0  0  0  0  0  0  0  0  0  0
    4.0584    3.5604   14.3092 C   0  0  0  0  0  0  0  0  0  0  0  0
    2.9844    3.0282   14.9787 C   0  0  0  0  0  0  0  0  0  0  0  0
    1.7323    3.1572   14.3646 C   0  0  0  0  0  0  0  0  0  0  0  0
    1.5778    3.7858   13.1486 C   0  0  0  0  0  0  0  0  0  0  0  0
    0.3543    3.9565   12.4650 N   0  0  0  0  0  0  0  0  0  0  0  0
   -0.5136    5.0397   12.6600 C   0  0  0  0  0  0  0  0  0  0  0  0
   -0.3431    5.9851   13.4366 O   0  0  0  0  0  0  0  0  0  0  0  0
    0.0401    3.2417   11.7478 H   0  0  0  0  0  0  0  0  0  0  0  0
   -1.7948    5.1189   11.8766 C   0  0  0  0  0  0  0  0  0  0  0  0
   -1.9137    4.4744   10.6797 C   0  0  0  0  0  0  0  0  0  0  0  0
   -3.0664    4.5415    9.9557 C   0  0  0  0  0  0  0  0  0  0  0  0
   -4.1209    5.2753   10.4516 C   0  0  0  0  0  0  0  0  0  0  0  0
   -4.0555    5.9381   11.6402 C   0  0  0  0  0  0  0  0  0  0  0  0
   -2.8593    5.8438   12.3490 C   0  0  0  0  0  0  0  0  0  0  0  0
 21 22  1  0  0  0
 22 23  2  0  0  0
 23 24  1  0  0  0
 24 25  2  0  0  0
 25 26  1  0  0  0
 26 27  2  0  0  0
 27 28  1  0  0  0
 28 29  1  0  0  0
 29 30  2  0  0  0
 29 32  1  0  0  0
 32 33  2  0  0  0
 33 34  1  0  0  0
 34 35  2  0  0  0
 35 36  1  0  0  0
 36 37  2  0  0  0
 25  1  1  0  0  0
  1  2  1  0  0  0
  2  3  2  0  0  0
  3  4  1  0  0  0
  4  5  2  0  0  0
  5  6  1  0  0  0
  6  7  2  0  0  0
  7  8  1  0  0  0
  8  9  1  0  0  0
  5 10  1  0  0  0
 10 11  1  0  0  0
 11 12  1  0  0  0
 12 13  1  0  0  0
 13 14  1  0  0  0
 14 15  1  0  0  0
 13 16  1  0  0  0
 16 17  2  0  0  0
 16 18  1  0  0  0
 18 19  1  0  0  0
 27 22  1  0  0  0
 37 32  1  0  0  0
  9  1  2  0  0  0
 15 10  1  0  0  0
  8  4  1  0  0  0
 28 31  1  0  0  0
 19 20  1  0  0  0
M  END
> <minimizedAffinity>
-9.97606

> <CNNscore>
0.9043493271

> <CNNaffinity>
7.2941741943

> <CNN_VS>
6.5964813232

> <CNNaffinity_variance>
0.1931758225

$$$$
[H]OC([H])([H])C(=O)N1C([H])([H])C([H])([H])C([H])(c2c([H])nn3c([H])c(-c4c([H])c([H])c(C([H])([H])[H])c(N([H])C(=O)c5c([H])c([H])c([H])c([H])c5[H])c4[H])c([H])nc23)C([H])([H])C1([H])[H]


 37 41  0  0  0  0  0  0  0  0999 V2000
    3.6426    3.1408   16.4690 C   0  0  0  0  0  0  0  0  0  0  0  0
    4.4022    3.3777   17.5930 C   0  0  0  0  0  0  0  0  0  0  0  0
    4.4103    2.5406   18.6409 N   0  0  0  0  0  0  0  0  0  0  0  0
    3.6490    1.4218   18.6002 C   0  0  0  0  0  0  0  0  0  0  0  0
    3.4950    0.4115   19.5423 C   0  0  0  0  0  0  0  0  0  0  0  0
    2.6094   -0.4821   18.9838 C   0  0  0  0  0  0  0  0  0  0  0  0
    2.2892    0.0069   17.7951 N   0  0  0  0  0  0  0  0  0  0  0  0
    2.8898    1.1462   17.5252 N   0  0  0  0  0  0  0  0  0  0  0  0
    2.8754    1.9906   16.4574 C   0  0  0  0  0  0  0  0  0  0  0  0
    4.1899    0.4038   20.8563 C   0  0  0  0  0  0  0  0  0  0  0  0
    3.4651    1.2213   21.8872 C   0  0  0  0  0  0  0  0  0  0  0  0
    3.9047    2.6376   21.9624 C   0  0  0  0  0  0  0  0  0  0  0  0
    5.3454    2.8088   21.9831 N   0  0  0  0  0  0  0  0  0  0  0  0
    6.1636    1.6629   21.7608 C   0  0  0  0  0  0  0  0  0  0  0  0
    5.6209    0.8249   20.6641 C   0  0  0  0  0  0  0  0  0  0  0  0
    5.8735    4.1176   22.2301 C   0  0  0  0  0  0  0  0  0  0  0  0
    7.1145    4.2942   22.2500 O   0  0  0  0  0  0  0  0  0  0  0  0
    4.9799    5.2732   22.4643 C   0  0  0  0  0  0  0  0  0  0  0  0
    5.6058    6.2338   23.2290 O   0  0  0  0  0  0  0  0  0  0  0  0
    6.3691    6.6020   22.7408 H   0  0  0  0  0  0  0  0  0  0  0  0
    3.6332    6.7217   11.9560 C   0  0  0  0  0  0  0  0  0  0  0  0
    3.6347    5.8051   13.1273 C   0  0  0  0  0  0  0  0  0  0  0  0
    3.5897    6.2660   14.4142 C   0  0  0  0  0  0  0  0  0  0  0  0
    3.5924    5.4000   15.4865 C   0  0  0  0  0  0  0  0  0  0  0  0
    3.6404    4.0376   15.3242 C   0  0  0  0  0  0  0  0  0  0  0  0
    3.6865    3.5612   14.0078 C   0  0  0  0  0  0  0  0  0  0  0  0
    3.6841    4.4117   12.9241 C   0  0  0  0  0  0  0  0  0  0  0  0
    3.7289    4.0128   11.5705 N   0  0  0  0  0  0  0  0  0  0  0  0
    4.8899    4.0169   10.7851 C   0  0  0  0  0  0  0  0  0  0  0  0
    6.0199    4.3584   11.1490 O   0  0  0  0  0  0  0  0  0  0  0  0
    2.8483    3.6789   11.0836 H   0  0  0  0  0  0  0  0  0  0  0  0
    4.8209    3.5720    9.3503 C   0  0  0  0  0  0  0  0  0  0  0  0
    3.9422    2.5997    8.9699 C   0  0  0  0  0  0  0  0  0  0  0  0
    3.8721    2.1821    7.6745 C   0  0  0  0  0  0  0  0  0  0  0  0
    4.7075    2.7591    6.7442 C   0  0  0  0  0  0  0  0  0  0  0  0
    5.6031    3.7328    7.0699 C   0  0  0  0  0  0  0  0  0  0  0  0
    5.6428    4.1309    8.4049 C   0  0  0  0  0  0  0  0  0  0  0  0
 21 22  1  0  0  0
 22 23  2  0  0  0
 23 24  1  0  0  0
 24 25  2  0  0  0
 25 26  1  0  0  0
 26 27  2  0  0  0
 27 28  1  0  0  0
 28 29  1  0  0  0
 29 30  2  0  0  0
 29 32  1  0  0  0
 32 33  2  0  0  0
 33 34  1  0  0  0
 34 35  2  0  0  0
 35 36  1  0  0  0
 36 37  2  0  0  0
 25  1  1  0  0  0
  1  2  1  0  0  0
  2  3  2  0  0  0
  3  4  1  0  0  0
  4  5  2  0  0  0
  5  6  1  0  0  0
  6  7  2  0  0  0
  7  8  1  0  0  0
  8  9  1  0  0  0
  5 10  1  0  0  0
 10 11  1  0  0  0
 11 12  1  0  0  0
 12 13  1  0  0  0
 13 14  1  0  0  0
 14 15  1  0  0  0
 13 16  1  0  0  0
 16 17  2  0  0  0
 16 18  1  0  0  0
 18 19  1  0  0  0
 27 22  1  0  0  0
 37 32  1  0  0  0
  9  1  2  0  0  0
 15 10  1  0  0  0
  8  4  1  0  0  0
 28 31  1  0  0  0
 19 20  1  0  0  0
M  END
> <minimizedAffinity>
-8.79591

> <CNNscore>
0.6734796762

> <CNNaffinity>
6.9512557983

> <CNN_VS>
4.6815295219

> <CNNaffinity_variance>
0.3007105291

$$$$
[H]OC([H])([H])C(=O)N1C([H])([H])C([H])([H])C([H])(c2c([H])nn3c([H])c(-c4c([H])c([H])c(C([H])([H])[H])c(N([H])C(=O)c5c([H])c([H])c([H])c([H])c5[H])c4[H])c([H])nc23)C([H])([H])C1([H])[H]


 37 41  0  0  0  0  0  0  0  0999 V2000
    4.3550    2.6909   18.4599 C   0  0  0  0  0  0  0  0  0  0  0  0
    4.6923    3.7906   17.7030 C   0  0  0  0  0  0  0  0  0  0  0  0
    4.3464    3.9046   16.4121 N   0  0  0  0  0  0  0  0  0  0  0  0
    3.6410    2.9089   15.8256 C   0  0  0  0  0  0  0  0  0  0  0  0
    3.1658    2.7977   14.5241 C   0  0  0  0  0  0  0  0  0  0  0  0
    2.5120    1.5876   14.4721 C   0  0  0  0  0  0  0  0  0  0  0  0
    2.6191    1.0558   15.6806 N   0  0  0  0  0  0  0  0  0  0  0  0
    3.2878    1.8145   16.5225 N   0  0  0  0  0  0  0  0  0  0  0  0
    3.6351    1.6907   17.8330 C   0  0  0  0  0  0  0  0  0  0  0  0
    3.3842    3.8338   13.4810 C   0  0  0  0  0  0  0  0  0  0  0  0
    3.0632    5.2152   13.9760 C   0  0  0  0  0  0  0  0  0  0  0  0
    1.6625    5.6418   13.7293 C   0  0  0  0  0  0  0  0  0  0  0  0
    1.1924    5.3760   12.3824 N   0  0  0  0  0  0  0  0  0  0  0  0
    2.0240    4.6057   11.5181 C   0  0  0  0  0  0  0  0  0  0  0  0
    2.6236    3.4568   12.2394 C   0  0  0  0  0  0  0  0  0  0  0  0
   -0.0796    5.9038   11.9872 C   0  0  0  0  0  0  0  0  0  0  0  0
   -0.5112    5.6863   10.8304 O   0  0  0  0  0  0  0  0  0  0  0  0
   -0.9003    6.7060   12.9208 C   0  0  0  0  0  0  0  0  0  0  0  0
   -2.1054    6.0874   13.1747 O   0  0  0  0  0  0  0  0  0  0  0  0
   -1.9527    5.2403   13.6393 H   0  0  0  0  0  0  0  0  0  0  0  0
    5.7643    2.1730   24.0220 C   0  0  0  0  0  0  0  0  0  0  0  0
    5.3948    2.2984   22.5867 C   0  0  0  0  0  0  0  0  0  0  0  0
    4.6167    1.3712   21.9502 C   0  0  0  0  0  0  0  0  0  0  0  0
    4.2856    1.5052   20.6189 C   0  0  0  0  0  0  0  0  0  0  0  0
    4.7152    2.5680   19.8635 C   0  0  0  0  0  0  0  0  0  0  0  0
    5.5123    3.5201   20.5115 C   0  0  0  0  0  0  0  0  0  0  0  0
    5.8529    3.4028   21.8412 C   0  0  0  0  0  0  0  0  0  0  0  0
    6.6497    4.3158   22.5656 N   0  0  0  0  0  0  0  0  0  0  0  0
    7.0928    5.5472   22.0635 C   0  0  0  0  0  0  0  0  0  0  0  0
    6.8574    6.0090   20.9422 O   0  0  0  0  0  0  0  0  0  0  0  0
    6.9490    4.0918   23.5577 H   0  0  0  0  0  0  0  0  0  0  0  0
    7.9407    6.4420   22.9247 C   0  0  0  0  0  0  0  0  0  0  0  0
    9.2422    6.1224   23.1817 C   0  0  0  0  0  0  0  0  0  0  0  0
   10.0215    6.9204   23.9648 C   0  0  0  0  0  0  0  0  0  0  0  0
    9.4739    8.0652   24.4994 C   0  0  0  0  0  0  0  0  0  0  0  0
    8.1808    8.4310   24.2752 C   0  0  0  0  0  0  0  0  0  0  0  0
    7.4184    7.5876   23.4692 C   0  0  0  0  0  0  0  0  0  0  0  0
 21 22  1  0  0  0
 22 23  2  0  0  0
 23 24  1  0  0  0
 24 25  2  0  0  0
 25 26  1  0  0  0
 26 27  2  0  0  0
 27 28  1  0  0  0
 28 29  1  0  0  0
 29 30  2  0  0  0
 29 32  1  0  0  0
 32 33  2  0  0  0
 33 34  1  0  0  0
 34 35  2  0  0  0
 35 36  1  0  0  0
 36 37  2  0  0  0
 25  1  1  0  0  0
  1  2  1  0  0  0
  2  3  2  0  0  0
  3  4  1  0  0  0
  4  5  2  0  0  0
  5  6  1  0  0  0
  6  7  2  0  0  0
  7  8  1  0  0  0
  8  9  1  0  0  0
  5 10  1  0  0  0
 10 11  1  0  0  0
 11 12  1  0  0  0
 12 13  1  0  0  0
 13 14  1  0  0  0
 14 15  1  0  0  0
 13 16  1  0  0  0
 16 17  2  0  0  0
 16 18  1  0  0  0
 18 19  1  0  0  0
 27 22  1  0  0  0
 37 32  1  0  0  0
  9  1  2  0  0  0
 15 10  1  0  0  0
  8  4  1  0  0  0
 28 31  1  0  0  0
 19 20  1  0  0  0
M  END
> <minimizedAffinity>
-9.67393

> <CNNscore>
0.3914600909

> <CNNaffinity>
6.5765714645

> <CNN_VS>
2.5744652748

> <CNNaffinity_variance>
0.2606065571

$$$$
[H]OC([H])([H])C(=O)N1C([H])([H])C([H])([H])C([H])(c2c([H])nn3c([H])c(-c4c([H])c([H])c(C([H])([H])[H])c(N([H])C(=O)c5c([H])c([H])c([H])c([H])c5[H])c4[H])c([H])nc23)C([H])([H])C1([H])[H]


 37 41  0  0  0  0  0  0  0  0999 V2000
    3.7991    2.4604   17.6199 C   0  0  0  0  0  0  0  0  0  0  0  0
    4.4411    3.4982   18.2579 C   0  0  0  0  0  0  0  0  0  0  0  0
    4.7384    3.4603   19.5652 N   0  0  0  0  0  0  0  0  0  0  0  0
    4.3997    2.3679   20.2896 C   0  0  0  0  0  0  0  0  0  0  0  0
    4.6022    2.0914   21.6367 C   0  0  0  0  0  0  0  0  0  0  0  0
    4.0671    0.8398   21.8410 C   0  0  0  0  0  0  0  0  0  0  0  0
    3.5928    0.4433   20.6694 N   0  0  0  0  0  0  0  0  0  0  0  0
    3.7714    1.3286   19.7124 N   0  0  0  0  0  0  0  0  0  0  0  0
    3.4656    1.3590   18.3862 C   0  0  0  0  0  0  0  0  0  0  0  0
    5.2671    3.0328   22.5752 C   0  0  0  0  0  0  0  0  0  0  0  0
    4.3584    4.1523   22.9963 C   0  0  0  0  0  0  0  0  0  0  0  0
    4.4441    5.3627   22.1405 C   0  0  0  0  0  0  0  0  0  0  0  0
    5.8014    5.7853   21.8491 N   0  0  0  0  0  0  0  0  0  0  0  0
    6.8727    4.9338   22.2480 C   0  0  0  0  0  0  0  0  0  0  0  0
    6.5568    3.5122   21.9676 C   0  0  0  0  0  0  0  0  0  0  0  0
    5.9974    7.0372   21.1805 C   0  0  0  0  0  0  0  0  0  0  0  0
    7.1594    7.4248   20.9137 O   0  0  0  0  0  0  0  0  0  0  0  0
    4.8504    7.8888   20.7959 C   0  0  0  0  0  0  0  0  0  0  0  0
    4.4849    8.7213   21.8316 O   0  0  0  0  0  0  0  0  0  0  0  0
    5.2095    9.3491   22.0250 H   0  0  0  0  0  0  0  0  0  0  0  0
    2.5376    2.5505   11.9992 C   0  0  0  0  0  0  0  0  0  0  0  0
    2.8574    2.5192   13.4514 C   0  0  0  0  0  0  0  0  0  0  0  0
    2.2870    1.6152   14.3046 C   0  0  0  0  0  0  0  0  0  0  0  0
    2.5962    1.6027   15.6477 C   0  0  0  0  0  0  0  0  0  0  0  0
    3.4866    2.4900   16.1999 C   0  0  0  0  0  0  0  0  0  0  0  0
    4.0732    3.4175   15.3297 C   0  0  0  0  0  0  0  0  0  0  0  0
    3.7765    3.4445   13.9847 C   0  0  0  0  0  0  0  0  0  0  0  0
    4.3225    4.3446   13.0440 N   0  0  0  0  0  0  0  0  0  0  0  0
    3.7782    5.6018   12.7472 C   0  0  0  0  0  0  0  0  0  0  0  0
    2.7669    6.1004   13.2521 O   0  0  0  0  0  0  0  0  0  0  0  0
    5.2026    4.0896   12.5106 H   0  0  0  0  0  0  0  0  0  0  0  0
    4.4436    6.4796   11.7236 C   0  0  0  0  0  0  0  0  0  0  0  0
    3.9813    6.5170   10.4402 C   0  0  0  0  0  0  0  0  0  0  0  0
    4.5773    7.3033    9.5001 C   0  0  0  0  0  0  0  0  0  0  0  0
    5.6632    8.0677    9.8645 C   0  0  0  0  0  0  0  0  0  0  0  0
    6.1655    8.0677   11.1311 C   0  0  0  0  0  0  0  0  0  0  0  0
    5.5271    7.2500   12.0617 C   0  0  0  0  0  0  0  0  0  0  0  0
 21 22  1  0  0  0
 22 23  2  0  0  0
 23 24  1  0  0  0
 24 25  2  0  0  0
 25 26  1  0  0  0
 26 27  2  0  0  0
 27 28  1  0  0  0
 28 29  1  0  0  0
 29 30  2  0  0  0
 29 32  1  0  0  0
 32 33  2  0  0  0
 33 34  1  0  0  0
 34 35  2  0  0  0
 35 36  1  0  0  0
 36 37  2  0  0  0
 25  1  1  0  0  0
  1  2  1  0  0  0
  2  3  2  0  0  0
  3  4  1  0  0  0
  4  5  2  0  0  0
  5  6  1  0  0  0
  6  7  2  0  0  0
  7  8  1  0  0  0
  8  9  1  0  0  0
  5 10  1  0  0  0
 10 11  1  0  0  0
 11 12  1  0  0  0
 12 13  1  0  0  0
 13 14  1  0  0  0
 14 15  1  0  0  0
 13 16  1  0  0  0
 16 17  2  0  0  0
 16 18  1  0  0  0
 18 19  1  0  0  0
 27 22  1  0  0  0
 37 32  1  0  0  0
  9  1  2  0  0  0
 15 10  1  0  0  0
  8  4  1  0  0  0
 28 31  1  0  0  0
 19 20  1  0  0  0
M  END
> <minimizedAffinity>
-10.24563

> <CNNscore>
0.3450560272

> <CNNaffinity>
6.7347183228

> <CNN_VS>
2.3238551617

> <CNNaffinity_variance>
0.2049154490

$$$$
[H]OC([H])([H])C(=O)N1C([H])([H])C([H])([H])C([H])(c2c([H])nn3c([H])c(-c4c([H])c([H])c(C([H])([H])[H])c(N([H])C(=O)c5c([H])c([H])c([H])c([H])c5[H])c4[H])c([H])nc23)C([H])([H])C1([H])[H]


 37 41  0  0  0  0  0  0  0  0999 V2000
    3.4937    5.1940   16.8786 C   0  0  0  0  0  0  0  0  0  0  0  0
    4.0186    5.9180   17.9257 C   0  0  0  0  0  0  0  0  0  0  0  0
    4.4395    5.3361   19.0585 N   0  0  0  0  0  0  0  0  0  0  0  0
    4.3492    3.9912   19.1848 C   0  0  0  0  0  0  0  0  0  0  0  0
    4.7188    3.1664   20.2408 C   0  0  0  0  0  0  0  0  0  0  0  0
    4.4121    1.8874   19.8350 C   0  0  0  0  0  0  0  0  0  0  0  0
    3.8995    1.9971   18.6185 N   0  0  0  0  0  0  0  0  0  0  0  0
    3.8437    3.2402   18.1905 N   0  0  0  0  0  0  0  0  0  0  0  0
    3.4138    3.8228   17.0376 C   0  0  0  0  0  0  0  0  0  0  0  0
    5.3099    3.6723   21.5073 C   0  0  0  0  0  0  0  0  0  0  0  0
    4.3505    4.5336   22.2781 C   0  0  0  0  0  0  0  0  0  0  0  0
    4.4447    5.9822   21.9660 C   0  0  0  0  0  0  0  0  0  0  0  0
    5.8023    6.4938   21.9389 N   0  0  0  0  0  0  0  0  0  0  0  0
    6.8760    5.5611   22.0355 C   0  0  0  0  0  0  0  0  0  0  0  0
    6.6142    4.3589   21.2075 C   0  0  0  0  0  0  0  0  0  0  0  0
    5.9961    7.9084   21.8214 C   0  0  0  0  0  0  0  0  0  0  0  0
    7.1586    8.3768   21.7921 O   0  0  0  0  0  0  0  0  0  0  0  0
    4.8462    8.8351   21.7336 C   0  0  0  0  0  0  0  0  0  0  0  0
    4.2366    8.7496   20.5006 O   0  0  0  0  0  0  0  0  0  0  0  0
    3.8505    7.8588   20.3818 H   0  0  0  0  0  0  0  0  0  0  0  0
    1.7644    7.6739   11.9745 C   0  0  0  0  0  0  0  0  0  0  0  0
    2.2203    7.0366   13.2387 C   0  0  0  0  0  0  0  0  0  0  0  0
    3.5356    7.0174   13.6129 C   0  0  0  0  0  0  0  0  0  0  0  0
    3.9381    6.4211   14.7886 C   0  0  0  0  0  0  0  0  0  0  0  0
    3.0485    5.8179   15.6427 C   0  0  0  0  0  0  0  0  0  0  0  0
    1.7003    5.8354   15.2635 C   0  0  0  0  0  0  0  0  0  0  0  0
    1.2798    6.4269   14.0926 C   0  0  0  0  0  0  0  0  0  0  0  0
   -0.0561    6.4868   13.6397 N   0  0  0  0  0  0  0  0  0  0  0  0
   -0.6859    5.4730   12.9048 C   0  0  0  0  0  0  0  0  0  0  0  0
   -0.1821    4.4011   12.5537 O   0  0  0  0  0  0  0  0  0  0  0  0
   -0.6538    7.3361   13.8531 H   0  0  0  0  0  0  0  0  0  0  0  0
   -2.1157    5.6445   12.4715 C   0  0  0  0  0  0  0  0  0  0  0  0
   -2.9255    6.5438   13.1019 C   0  0  0  0  0  0  0  0  0  0  0  0
   -4.2248    6.7065   12.7242 C   0  0  0  0  0  0  0  0  0  0  0  0
   -4.7160    5.9443   11.6878 C   0  0  0  0  0  0  0  0  0  0  0  0
   -3.9514    5.0322   11.0247 C   0  0  0  0  0  0  0  0  0  0  0  0
   -2.6286    4.8968   11.4421 C   0  0  0  0  0  0  0  0  0  0  0  0
 21 22  1  0  0  0
 22 23  2  0  0  0
 23 24  1  0  0  0
 24 25  2  0  0  0
 25 26  1  0  0  0
 26 27  2  0  0  0
 27 28  1  0  0  0
 28 29  1  0  0  0
 29 30  2  0  0  0
 29 32  1  0  0  0
 32 33  2  0  0  0
 33 34  1  0  0  0
 34 35  2  0  0  0
 35 36  1  0  0  0
 36 37  2  0  0  0
 25  1  1  0  0  0
  1  2  1  0  0  0
  2  3  2  0  0  0
  3  4  1  0  0  0
  4  5  2  0  0  0
  5  6  1  0  0  0
  6  7  2  0  0  0
  7  8  1  0  0  0
  8  9  1  0  0  0
  5 10  1  0  0  0
 10 11  1  0  0  0
 11 12  1  0  0  0
 12 13  1  0  0  0
 13 14  1  0  0  0
 14 15  1  0  0  0
 13 16  1  0  0  0
 16 17  2  0  0  0
 16 18  1  0  0  0
 18 19  1  0  0  0
 27 22  1  0  0  0
 37 32  1  0  0  0
  9  1  2  0  0  0
 15 10  1  0  0  0
  8  4  1  0  0  0
 28 31  1  0  0  0
 19 20  1  0  0  0
M  END
> <minimizedAffinity>
-9.14342

> <CNNscore>
0.2390267849

> <CNNaffinity>
6.0051178932

> <CNN_VS>
1.4353840351

> <CNNaffinity_variance>
0.4229511321

$$$$
[H]OC([H])([H])C(=O)N1C([H])([H])C([H])([H])C([H])(c2c([H])nn3c([H])c(-c4c([H])c([H])c(C([H])([H])[H])c(N([H])C(=O)c5c([H])c([H])c([H])c([H])c5[H])c4[H])c([H])nc23)C([H])([H])C1([H])[H]


 37 41  0  0  0  0  0  0  0  0999 V2000
    3.9822    3.6824   17.0281 C   0  0  0  0  0  0  0  0  0  0  0  0
    4.5246    4.5245   17.9731 C   0  0  0  0  0  0  0  0  0  0  0  0
    4.7302    4.1394   19.2413 N   0  0  0  0  0  0  0  0  0  0  0  0
    4.3964    2.8812   19.6133 C   0  0  0  0  0  0  0  0  0  0  0  0
    4.5168    2.2531   20.8474 C   0  0  0  0  0  0  0  0  0  0  0  0
    4.0321    0.9783   20.6616 C   0  0  0  0  0  0  0  0  0  0  0  0
    3.6623    0.9035   19.3918 N   0  0  0  0  0  0  0  0  0  0  0  0
    3.8635    2.0214   18.7274 N   0  0  0  0  0  0  0  0  0  0  0  0
    3.6511    2.4042   17.4384 C   0  0  0  0  0  0  0  0  0  0  0  0
    5.0657    2.9211   22.0565 C   0  0  0  0  0  0  0  0  0  0  0  0
    4.1395    3.9748   22.5935 C   0  0  0  0  0  0  0  0  0  0  0  0
    4.3862    5.3363   22.0546 C   0  0  0  0  0  0  0  0  0  0  0  0
    5.7837    5.7271   22.0537 N   0  0  0  0  0  0  0  0  0  0  0  0
    6.7588    4.7434   22.3904 C   0  0  0  0  0  0  0  0  0  0  0  0
    6.4443    3.4411   21.7543 C   0  0  0  0  0  0  0  0  0  0  0  0
    6.1133    7.0808   21.7198 C   0  0  0  0  0  0  0  0  0  0  0  0
    7.3131    7.4442   21.7080 O   0  0  0  0  0  0  0  0  0  0  0  0
    5.0612    8.0662   21.3866 C   0  0  0  0  0  0  0  0  0  0  0  0
    4.9026    8.9817   22.4044 O   0  0  0  0  0  0  0  0  0  0  0  0
    5.7189    9.5109   22.5056 H   0  0  0  0  0  0  0  0  0  0  0  0
    3.1446    5.3308   11.5717 C   0  0  0  0  0  0  0  0  0  0  0  0
    3.3611    4.9149   12.9832 C   0  0  0  0  0  0  0  0  0  0  0  0
    3.5613    5.8208   13.9880 C   0  0  0  0  0  0  0  0  0  0  0  0
    3.7607    5.4151   15.2901 C   0  0  0  0  0  0  0  0  0  0  0  0
    3.7698    4.0898   15.6483 C   0  0  0  0  0  0  0  0  0  0  0  0
    3.5651    3.1585   14.6223 C   0  0  0  0  0  0  0  0  0  0  0  0
    3.3638    3.5456   13.3156 C   0  0  0  0  0  0  0  0  0  0  0  0
    3.1512    2.6724   12.2268 N   0  0  0  0  0  0  0  0  0  0  0  0
    1.9079    2.1195   11.8903 C   0  0  0  0  0  0  0  0  0  0  0  0
    0.8380    2.3095   12.4779 O   0  0  0  0  0  0  0  0  0  0  0  0
    3.9595    2.3971   11.5984 H   0  0  0  0  0  0  0  0  0  0  0  0
    1.7974    1.1974   10.7076 C   0  0  0  0  0  0  0  0  0  0  0  0
    2.8995    0.8957    9.9615 C   0  0  0  0  0  0  0  0  0  0  0  0
    2.8141    0.0661    8.8836 C   0  0  0  0  0  0  0  0  0  0  0  0
    1.5894   -0.4696    8.5527 C   0  0  0  0  0  0  0  0  0  0  0  0
    0.4579   -0.2013    9.2628 C   0  0  0  0  0  0  0  0  0  0  0  0
    0.5887    0.6514   10.3574 C   0  0  0  0  0  0  0  0  0  0  0  0
 21 22  1  0  0  0
 22 23  2  0  0  0
 23 24  1  0  0  0
 24 25  2  0  0  0
 25 26  1  0  0  0
 26 27  2  0  0  0
 27 28  1  0  0  0
 28 29  1  0  0  0
 29 30  2  0  0  0
 29 32  1  0  0  0
 32 33  2  0  0  0
 33 34  1  0  0  0
 34 35  2  0  0  0
 35 36  1  0  0  0
 36 37  2  0  0  0
 25  1  1  0  0  0
  1  2  1  0  0  0
  2  3  2  0  0  0
  3  4  1  0  0  0
  4  5  2  0  0  0
  5  6  1  0  0  0
  6  7  2  0  0  0
  7  8  1  0  0  0
  8  9  1  0  0  0
  5 10  1  0  0  0
 10 11  1  0  0  0
 11 12  1  0  0  0
 12 13  1  0  0  0
 13 14  1  0  0  0
 14 15  1  0  0  0
 13 16  1  0  0  0
 16 17  2  0  0  0
 16 18  1  0  0  0
 18 19  1  0  0  0
 27 22  1  0  0  0
 37 32  1  0  0  0
  9  1  2  0  0  0
 15 10  1  0  0  0
  8  4  1  0  0  0
 28 31  1  0  0  0
 19 20  1  0  0  0
M  END
> <minimizedAffinity>
-8.97258

> <CNNscore>
0.2352460176

> <CNNaffinity>
6.4898247719

> <CNN_VS>
1.5267053843

> <CNNaffinity_variance>
0.4324863553

$$$$
[H]OC([H])([H])C(=O)N1C([H])([H])C([H])([H])C([H])(c2c([H])nn3c([H])c(-c4c([H])c([H])c(C([H])([H])[H])c(N([H])C(=O)c5c([H])c([H])c([H])c([H])c5[H])c4[H])c([H])nc23)C([H])([H])C1([H])[H]


 37 41  0  0  0  0  0  0  0  0999 V2000
    3.1608    3.0804   13.9920 C   0  0  0  0  0  0  0  0  0  0  0  0
    3.7120    4.1819   14.6078 C   0  0  0  0  0  0  0  0  0  0  0  0
    4.0672    4.1759   15.9011 N   0  0  0  0  0  0  0  0  0  0  0  0
    3.8814    3.0524   16.6333 C   0  0  0  0  0  0  0  0  0  0  0  0
    4.1704    2.7988   17.9691 C   0  0  0  0  0  0  0  0  0  0  0  0
    3.7848    1.4959   18.1892 C   0  0  0  0  0  0  0  0  0  0  0  0
    3.3072    1.0506   17.0367 N   0  0  0  0  0  0  0  0  0  0  0  0
    3.3467    1.9509   16.0777 N   0  0  0  0  0  0  0  0  0  0  0  0
    2.9829    1.9485   14.7658 C   0  0  0  0  0  0  0  0  0  0  0  0
    4.7678    3.8068   18.8837 C   0  0  0  0  0  0  0  0  0  0  0  0
    5.8117    3.2096   19.7836 C   0  0  0  0  0  0  0  0  0  0  0  0
    5.2899    2.7264   21.0871 C   0  0  0  0  0  0  0  0  0  0  0  0
    4.4058    3.6642   21.7538 N   0  0  0  0  0  0  0  0  0  0  0  0
    4.0018    4.8317   21.0427 C   0  0  0  0  0  0  0  0  0  0  0  0
    3.6698    4.5097   19.6336 C   0  0  0  0  0  0  0  0  0  0  0  0
    3.9873    3.3733   23.0928 C   0  0  0  0  0  0  0  0  0  0  0  0
    3.2209    4.1649   23.6909 O   0  0  0  0  0  0  0  0  0  0  0  0
    4.4434    2.1508   23.7901 C   0  0  0  0  0  0  0  0  0  0  0  0
    5.5626    2.4063   24.5525 O   0  0  0  0  0  0  0  0  0  0  0  0
    5.3409    3.0351   25.2681 H   0  0  0  0  0  0  0  0  0  0  0  0
    1.6700    3.0300    8.4273 C   0  0  0  0  0  0  0  0  0  0  0  0
    2.0534    3.0331    9.8643 C   0  0  0  0  0  0  0  0  0  0  0  0
    2.0138    1.9020   10.6322 C   0  0  0  0  0  0  0  0  0  0  0  0
    2.3728    1.9257   11.9628 C   0  0  0  0  0  0  0  0  0  0  0  0
    2.7865    3.0765   12.5867 C   0  0  0  0  0  0  0  0  0  0  0  0
    2.8287    4.2372   11.8039 C   0  0  0  0  0  0  0  0  0  0  0  0
    2.4740    4.2324   10.4728 C   0  0  0  0  0  0  0  0  0  0  0  0
    2.4886    5.3557    9.6177 N   0  0  0  0  0  0  0  0  0  0  0  0
    1.4803    6.3286    9.5765 C   0  0  0  0  0  0  0  0  0  0  0  0
    0.4552    6.3515   10.2654 O   0  0  0  0  0  0  0  0  0  0  0  0
    3.2997    5.5089    8.9524 H   0  0  0  0  0  0  0  0  0  0  0  0
    1.5988    7.4851    8.6226 C   0  0  0  0  0  0  0  0  0  0  0  0
    2.5478    8.4463    8.8166 C   0  0  0  0  0  0  0  0  0  0  0  0
    2.6637    9.5031    7.9639 C   0  0  0  0  0  0  0  0  0  0  0  0
    1.8024    9.5904    6.8929 C   0  0  0  0  0  0  0  0  0  0  0  0
    0.8371    8.6593    6.6531 C   0  0  0  0  0  0  0  0  0  0  0  0
    0.7524    7.5948    7.5486 C   0  0  0  0  0  0  0  0  0  0  0  0
 21 22  1  0  0  0
 22 23  2  0  0  0
 23 24  1  0  0  0
 24 25  2  0  0  0
 25 26  1  0  0  0
 26 27  2  0  0  0
 27 28  1  0  0  0
 28 29  1  0  0  0
 29 30  2  0  0  0
 29 32  1  0  0  0
 32 33  2  0  0  0
 33 34  1  0  0  0
 34 35  2  0  0  0
 35 36  1  0  0  0
 36 37  2  0  0  0
 25  1  1  0  0  0
  1  2  1  0  0  0
  2  3  2  0  0  0
  3  4  1  0  0  0
  4  5  2  0  0  0
  5  6  1  0  0  0
  6  7  2  0  0  0
  7  8  1  0  0  0
  8  9  1  0  0  0
  5 10  1  0  0  0
 10 11  1  0  0  0
 11 12  1  0  0  0
 12 13  1  0  0  0
 13 14  1  0  0  0
 14 15  1  0  0  0
 13 16  1  0  0  0
 16 17  2  0  0  0
 16 18  1  0  0  0
 18 19  1  0  0  0
 27 22  1  0  0  0
 37 32  1  0  0  0
  9  1  2  0  0  0
 15 10  1  0  0  0
  8  4  1  0  0  0
 28 31  1  0  0  0
 19 20  1  0  0  0
M  END
> <minimizedAffinity>
-8.20462

> <CNNscore>
0.2055946738

> <CNNaffinity>
6.3129196167

> <CNN_VS>
1.2979027033

> <CNNaffinity_variance>
0.5323932767

$$$$
[H]OC([H])([H])C(=O)N1C([H])([H])C([H])([H])C([H])(c2c([H])nn3c([H])c(-c4c([H])c([H])c(C([H])([H])[H])c(N([H])C(=O)c5c([H])c([H])c([H])c([H])c5[H])c4[H])c([H])nc23)C([H])([H])C1([H])[H]


 37 41  0  0  0  0  0  0  0  0999 V2000
    3.3789    6.0845   15.6368 C   0  0  0  0  0  0  0  0  0  0  0  0
    4.0405    7.2798   15.8092 C   0  0  0  0  0  0  0  0  0  0  0  0
    4.4373    7.7107   17.0158 N   0  0  0  0  0  0  0  0  0  0  0  0
    4.1831    6.9504   18.1067 C   0  0  0  0  0  0  0  0  0  0  0  0
    4.4946    7.1729   19.4429 C   0  0  0  0  0  0  0  0  0  0  0  0
    4.0091    6.0786   20.1222 C   0  0  0  0  0  0  0  0  0  0  0  0
    3.4574    5.2911   19.2111 N   0  0  0  0  0  0  0  0  0  0  0  0
    3.5397    5.7753   17.9903 N   0  0  0  0  0  0  0  0  0  0  0  0
    3.1332    5.3307   16.7695 C   0  0  0  0  0  0  0  0  0  0  0  0
    5.2045    8.3855   19.9276 C   0  0  0  0  0  0  0  0  0  0  0  0
    6.6928    8.2806   19.7531 C   0  0  0  0  0  0  0  0  0  0  0  0
    7.4067    7.7177   20.9272 C   0  0  0  0  0  0  0  0  0  0  0  0
    7.0028    8.2938   22.1963 N   0  0  0  0  0  0  0  0  0  0  0  0
    5.8848    9.1781   22.2096 C   0  0  0  0  0  0  0  0  0  0  0  0
    4.7919    8.6692   21.3459 C   0  0  0  0  0  0  0  0  0  0  0  0
    7.7489    7.9498   23.3700 C   0  0  0  0  0  0  0  0  0  0  0  0
    7.4194    8.4306   24.4799 O   0  0  0  0  0  0  0  0  0  0  0  0
    8.9083    7.0333   23.3002 C   0  0  0  0  0  0  0  0  0  0  0  0
    8.5277    5.7354   23.5643 O   0  0  0  0  0  0  0  0  0  0  0  0
    7.9166    5.4201   22.8687 H   0  0  0  0  0  0  0  0  0  0  0  0
    1.6800    4.1980   10.4651 C   0  0  0  0  0  0  0  0  0  0  0  0
    2.1091    4.6872   11.8025 C   0  0  0  0  0  0  0  0  0  0  0  0
    1.2311    5.2418   12.6925 C   0  0  0  0  0  0  0  0  0  0  0  0
    1.6486    5.6899   13.9273 C   0  0  0  0  0  0  0  0  0  0  0  0
    2.9585    5.6056   14.3295 C   0  0  0  0  0  0  0  0  0  0  0  0
    3.8612    5.0381   13.4212 C   0  0  0  0  0  0  0  0  0  0  0  0
    3.4619    4.5847   12.1832 C   0  0  0  0  0  0  0  0  0  0  0  0
    4.3065    4.0025   11.2132 N   0  0  0  0  0  0  0  0  0  0  0  0
    5.4043    4.6516   10.6317 C   0  0  0  0  0  0  0  0  0  0  0  0
    5.7904    5.7995   10.8751 O   0  0  0  0  0  0  0  0  0  0  0  0
    4.1328    3.0107   10.8811 H   0  0  0  0  0  0  0  0  0  0  0  0
    6.2361    3.9345    9.6044 C   0  0  0  0  0  0  0  0  0  0  0  0
    6.1103    2.5867    9.4320 C   0  0  0  0  0  0  0  0  0  0  0  0
    6.8611    1.9221    8.5090 C   0  0  0  0  0  0  0  0  0  0  0  0
    7.7578    2.6345    7.7443 C   0  0  0  0  0  0  0  0  0  0  0  0
    7.9235    3.9805    7.8757 C   0  0  0  0  0  0  0  0  0  0  0  0
    7.1366    4.6217    8.8307 C   0  0  0  0  0  0  0  0  0  0  0  0
 21 22  1  0  0  0
 22 23  2  0  0  0
 23 24  1  0  0  0
 24 25  2  0  0  0
 25 26  1  0  0  0
 26 27  2  0  0  0
 27 28  1  0  0  0
 28 29  1  0  0  0
 29 30  2  0  0  0
 29 32  1  0  0  0
 32 33  2  0  0  0
 33 34  1  0  0  0
 34 35  2  0  0  0
 35 36  1  0  0  0
 36 37  2  0  0  0
 25  1  1  0  0  0
  1  2  1  0  0  0
  2  3  2  0  0  0
  3  4  1  0  0  0
  4  5  2  0  0  0
  5  6  1  0  0  0
  6  7  2  0  0  0
  7  8  1  0  0  0
  8  9  1  0  0  0
  5 10  1  0  0  0
 10 11  1  0  0  0
 11 12  1  0  0  0
 12 13  1  0  0  0
 13 14  1  0  0  0
 14 15  1  0  0  0
 13 16  1  0  0  0
 16 17  2  0  0  0
 16 18  1  0  0  0
 18 19  1  0  0  0
 27 22  1  0  0  0
 37 32  1  0  0  0
  9  1  2  0  0  0
 15 10  1  0  0  0
  8  4  1  0  0  0
 28 31  1  0  0  0
 19 20  1  0  0  0
M  END
> <minimizedAffinity>
-7.74569

> <CNNscore>
0.1889941543

> <CNNaffinity>
5.6844892502

> <CNN_VS>
1.0743352175

> <CNNaffinity_variance>
0.5293275714

$$$$
[H]c1nc2c([H])c(OC([H])([H])C([H])([H])C([H])([H])N3C([H])([H])C([H])([H])C([H])([H])C3([H])[H])c(OC([H])([H])[H])c([H])c2c(-c2c([H])c([H])c(N([H])c3nc([H])c(C4([H])C([H])([H])C([H])([H])N(C([H])([H])[H])C([H])([H])C4([H])[H])c([H])n3)c([H])c2[H])c1[H]


 42 47  0  0  0  0  0  0  0  0999 V2000
    6.2805    4.0825   21.8742 C   0  0  0  0  0  0  0  0  0  0  0  0
    6.5232    2.7006   21.8788 C   0  0  0  0  0  0  0  0  0  0  0  0
    5.8215    1.8011   21.1376 C   0  0  0  0  0  0  0  0  0  0  0  0
    4.7974    2.2783   20.3217 C   0  0  0  0  0  0  0  0  0  0  0  0
    4.5244    3.6250   20.2856 C   0  0  0  0  0  0  0  0  0  0  0  0
    5.2679    4.5191   21.0619 C   0  0  0  0  0  0  0  0  0  0  0  0
    3.9833    1.3731   19.5374 C   0  0  0  0  0  0  0  0  0  0  0  0
    3.4540    0.2774   20.2002 C   0  0  0  0  0  0  0  0  0  0  0  0
    2.6337   -0.6117   19.5115 C   0  0  0  0  0  0  0  0  0  0  0  0
    2.3547   -0.4153   18.2202 N   0  0  0  0  0  0  0  0  0  0  0  0
    2.8438    0.6261   17.5476 C   0  0  0  0  0  0  0  0  0  0  0  0
    2.5465    0.7946   16.2145 C   0  0  0  0  0  0  0  0  0  0  0  0
    3.0275    1.8346   15.4650 C   0  0  0  0  0  0  0  0  0  0  0  0
    3.8602    2.7317   16.1711 C   0  0  0  0  0  0  0  0  0  0  0  0
    4.1638    2.5752   17.5001 C   0  0  0  0  0  0  0  0  0  0  0  0
    3.6693    1.5321   18.2147 C   0  0  0  0  0  0  0  0  0  0  0  0
    4.3869    3.8052   15.4935 O   0  0  0  0  0  0  0  0  0  0  0  0
    4.1532    5.1180   15.9578 C   0  0  0  0  0  0  0  0  0  0  0  0
    2.8166    2.1054   14.1660 O   0  0  0  0  0  0  0  0  0  0  0  0
    1.7725    1.9146   13.2910 C   0  0  0  0  0  0  0  0  0  0  0  0
    1.5468    3.1080   12.4151 C   0  0  0  0  0  0  0  0  0  0  0  0
    1.5585    4.3657   13.1747 C   0  0  0  0  0  0  0  0  0  0  0  0
    0.5576    5.2775   13.2110 N   0  0  0  0  0  0  0  0  0  0  0  0
    0.3945    6.3806   14.0092 C   0  0  0  0  0  0  0  0  0  0  0  0
   -1.1239    6.6678   14.0418 C   0  0  0  0  0  0  0  0  0  0  0  0
   -1.6407    6.0455   12.7786 C   0  0  0  0  0  0  0  0  0  0  0  0
   -0.6247    4.9835   12.4678 C   0  0  0  0  0  0  0  0  0  0  0  0
    7.0753    4.9109   22.6497 N   0  0  0  0  0  0  0  0  0  0  0  0
    7.4388    4.4941   23.5671 H   0  0  0  0  0  0  0  0  0  0  0  0
    8.0479    8.9175   21.9544 C   0  0  0  0  0  0  0  0  0  0  0  0
    8.7159    7.8878   21.3246 C   0  0  0  0  0  0  0  0  0  0  0  0
    8.4256    6.6131   21.5261 N   0  0  0  0  0  0  0  0  0  0  0  0
    7.4598    6.2332   22.3588 C   0  0  0  0  0  0  0  0  0  0  0  0
    6.7759    7.2403   23.0007 N   0  0  0  0  0  0  0  0  0  0  0  0
    7.0464    8.5370   22.8175 C   0  0  0  0  0  0  0  0  0  0  0  0
   10.6709   12.5676   24.0795 C   0  0  0  0  0  0  0  0  0  0  0  0
    9.5781   12.5872   23.1452 N   0  0  0  0  0  0  0  0  0  0  0  0
    9.9466   12.1814   21.8267 C   0  0  0  0  0  0  0  0  0  0  0  0
    9.8354   10.6532   21.7727 C   0  0  0  0  0  0  0  0  0  0  0  0
    8.3487   10.3565   21.7526 C   0  0  0  0  0  0  0  0  0  0  0  0
    7.5624   11.2723   22.6201 C   0  0  0  0  0  0  0  0  0  0  0  0
    8.3851   11.9944   23.6537 C   0  0  0  0  0  0  0  0  0  0  0  0
 36 37  1  0  0  0
 37 38  1  0  0  0
 38 39  1  0  0  0
 39 40  1  0  0  0
 40 41  1  0  0  0
 41 42  1  0  0  0
 40 30  1  0  0  0
 30 31  2  0  0  0
 31 32  1  0  0  0
 32 33  2  0  0  0
 33 28  1  0  0  0
 28  1  1  0  0  0
  1  2  2  0  0  0
  2  3  1  0  0  0
  3  4  2  0  0  0
  4  5  1  0  0  0
  5  6  2  0  0  0
  4  7  1  0  0  0
  7  8  2  0  0  0
  8  9  1  0  0  0
  9 10  2  0  0  0
 10 11  1  0  0  0
 11 12  2  0  0  0
 12 13  1  0  0  0
 13 19  1  0  0  0
 19 20  1  0  0  0
 20 21  1  0  0  0
 21 22  1  0  0  0
 22 23  1  0  0  0
 23 24  1  0  0  0
 24 25  1  0  0  0
 25 26  1  0  0  0
 26 27  1  0  0  0
 13 14  2  0  0  0
 14 17  1  0  0  0
 17 18  1  0  0  0
 14 15  1  0  0  0
 15 16  2  0  0  0
 33 34  1  0  0  0
 34 35  2  0  0  0
 42 37  1  0  0  0
 35 30  1  0  0  0
  6  1  1  0  0  0
 16  7  1  0  0  0
 16 11  1  0  0  0
 27 23  1  0  0  0
 28 29  1  0  0  0
M  END
> <minimizedAffinity>
-9.21467

> <CNNscore>
0.7394500375

> <CNNaffinity>
7.5382299423

> <CNN_VS>
5.5741443634

> <CNNaffinity_variance>
0.1448672712

$$$$
[H]c1nc2c([H])c(OC([H])([H])C([H])([H])C([H])([H])N3C([H])([H])C([H])([H])C([H])([H])C3([H])[H])c(OC([H])([H])[H])c([H])c2c(-c2c([H])c([H])c(N([H])c3nc([H])c(C4([H])C([H])([H])C([H])([H])N(C([H])([H])[H])C([H])([H])C4([H])[H])c([H])n3)c([H])c2[H])c1[H]


 42 47  0  0  0  0  0  0  0  0999 V2000
    6.1899    4.1925   21.9169 C   0  0  0  0  0  0  0  0  0  0  0  0
    5.0114    4.5587   21.2494 C   0  0  0  0  0  0  0  0  0  0  0  0
    4.2381    3.6941   20.5384 C   0  0  0  0  0  0  0  0  0  0  0  0
    4.6381    2.3610   20.4667 C   0  0  0  0  0  0  0  0  0  0  0  0
    5.7864    1.9574   21.1055 C   0  0  0  0  0  0  0  0  0  0  0  0
    6.5552    2.8755   21.8271 C   0  0  0  0  0  0  0  0  0  0  0  0
    3.8852    1.3952   19.6937 C   0  0  0  0  0  0  0  0  0  0  0  0
    3.3439    0.3259   20.3892 C   0  0  0  0  0  0  0  0  0  0  0  0
    2.5793   -0.6187   19.7103 C   0  0  0  0  0  0  0  0  0  0  0  0
    2.3650   -0.5006   18.3974 N   0  0  0  0  0  0  0  0  0  0  0  0
    2.8678    0.5131   17.6931 C   0  0  0  0  0  0  0  0  0  0  0  0
    2.6380    0.6006   16.3391 C   0  0  0  0  0  0  0  0  0  0  0  0
    3.1367    1.6085   15.5579 C   0  0  0  0  0  0  0  0  0  0  0  0
    3.9126    2.5623   16.2542 C   0  0  0  0  0  0  0  0  0  0  0  0
    4.1486    2.4866   17.6039 C   0  0  0  0  0  0  0  0  0  0  0  0
    3.6384    1.4735   18.3498 C   0  0  0  0  0  0  0  0  0  0  0  0
    4.4524    3.6086   15.5453 O   0  0  0  0  0  0  0  0  0  0  0  0
    3.8903    4.8994   15.6517 C   0  0  0  0  0  0  0  0  0  0  0  0
    2.9893    1.8020   14.2366 O   0  0  0  0  0  0  0  0  0  0  0  0
    1.9719    2.2538   13.4284 C   0  0  0  0  0  0  0  0  0  0  0  0
    2.4292    3.3354   12.4992 C   0  0  0  0  0  0  0  0  0  0  0  0
    1.3060    4.0998   11.9398 C   0  0  0  0  0  0  0  0  0  0  0  0
    0.4147    4.8313   12.6504 N   0  0  0  0  0  0  0  0  0  0  0  0
   -0.9525    4.8895   12.5614 C   0  0  0  0  0  0  0  0  0  0  0  0
   -1.3636    6.2618   13.1422 C   0  0  0  0  0  0  0  0  0  0  0  0
   -0.2293    6.6278   14.0529 C   0  0  0  0  0  0  0  0  0  0  0  0
    0.9337    5.8591   13.4934 C   0  0  0  0  0  0  0  0  0  0  0  0
    6.8862    5.1516   22.6343 N   0  0  0  0  0  0  0  0  0  0  0  0
    7.4315    4.8009   23.4871 H   0  0  0  0  0  0  0  0  0  0  0  0
    7.1409    9.1888   21.5766 C   0  0  0  0  0  0  0  0  0  0  0  0
    6.8569    8.7923   22.8671 C   0  0  0  0  0  0  0  0  0  0  0  0
    6.7730    7.5221   23.2269 N   0  0  0  0  0  0  0  0  0  0  0  0
    6.9585    6.5301   22.3596 C   0  0  0  0  0  0  0  0  0  0  0  0
    7.2442    6.8970   21.0643 N   0  0  0  0  0  0  0  0  0  0  0  0
    7.3355    8.1718   20.6709 C   0  0  0  0  0  0  0  0  0  0  0  0
    5.8661   12.0539   17.7186 C   0  0  0  0  0  0  0  0  0  0  0  0
    6.8272   12.2329   18.7729 N   0  0  0  0  0  0  0  0  0  0  0  0
    6.2371   12.5203   20.0410 C   0  0  0  0  0  0  0  0  0  0  0  0
    5.9070   11.1781   20.7044 C   0  0  0  0  0  0  0  0  0  0  0  0
    7.2408   10.6032   21.1393 C   0  0  0  0  0  0  0  0  0  0  0  0
    8.3314   10.8653   20.1639 C   0  0  0  0  0  0  0  0  0  0  0  0
    7.8467   11.2361   18.7876 C   0  0  0  0  0  0  0  0  0  0  0  0
 36 37  1  0  0  0
 37 38  1  0  0  0
 38 39  1  0  0  0
 39 40  1  0  0  0
 40 41  1  0  0  0
 41 42  1  0  0  0
 40 30  1  0  0  0
 30 31  2  0  0  0
 31 32  1  0  0  0
 32 33  2  0  0  0
 33 28  1  0  0  0
 28  1  1  0  0  0
  1  2  2  0  0  0
  2  3  1  0  0  0
  3  4  2  0  0  0
  4  5  1  0  0  0
  5  6  2  0  0  0
  4  7  1  0  0  0
  7  8  2  0  0  0
  8  9  1  0  0  0
  9 10  2  0  0  0
 10 11  1  0  0  0
 11 12  2  0  0  0
 12 13  1  0  0  0
 13 19  1  0  0  0
 19 20  1  0  0  0
 20 21  1  0  0  0
 21 22  1  0  0  0
 22 23  1  0  0  0
 23 24  1  0  0  0
 24 25  1  0  0  0
 25 26  1  0  0  0
 26 27  1  0  0  0
 13 14  2  0  0  0
 14 17  1  0  0  0
 17 18  1  0  0  0
 14 15  1  0  0  0
 15 16  2  0  0  0
 33 34  1  0  0  0
 34 35  2  0  0  0
 42 37  1  0  0  0
 35 30  1  0  0  0
  6  1  1  0  0  0
 16  7  1  0  0  0
 16 11  1  0  0  0
 27 23  1  0  0  0
 28 29  1  0  0  0
M  END
> <minimizedAffinity>
-9.24843

> <CNNscore>
0.6764522791

> <CNNaffinity>
7.4312758446

> <CNN_VS>
5.0269036293

> <CNNaffinity_variance>
0.1157007441

$$$$
[H]c1nc2c([H])c(OC([H])([H])C([H])([H])C([H])([H])N3C([H])([H])C([H])([H])C([H])([H])C3([H])[H])c(OC([H])([H])[H])c([H])c2c(-c2c([H])c([H])c(N([H])c3nc([H])c(C4([H])C([H])([H])C([H])([H])N(C([H])([H])[H])C([H])([H])C4([H])[H])c([H])n3)c([H])c2[H])c1[H]


 42 47  0  0  0  0  0  0  0  0999 V2000
    6.3062    4.1866   21.8104 C   0  0  0  0  0  0  0  0  0  0  0  0
    5.2449    4.6005   20.9914 C   0  0  0  0  0  0  0  0  0  0  0  0
    4.4534    3.7511   20.2821 C   0  0  0  0  0  0  0  0  0  0  0  0
    4.7096    2.3843   20.3723 C   0  0  0  0  0  0  0  0  0  0  0  0
    5.7396    1.9334   21.1631 C   0  0  0  0  0  0  0  0  0  0  0  0
    6.5316    2.8373   21.8776 C   0  0  0  0  0  0  0  0  0  0  0  0
    3.9331    1.4264   19.6128 C   0  0  0  0  0  0  0  0  0  0  0  0
    3.3817    0.3702   20.3200 C   0  0  0  0  0  0  0  0  0  0  0  0
    2.5949   -0.5658   19.6546 C   0  0  0  0  0  0  0  0  0  0  0  0
    2.3691   -0.4517   18.3432 N   0  0  0  0  0  0  0  0  0  0  0  0
    2.8810    0.5495   17.6279 C   0  0  0  0  0  0  0  0  0  0  0  0
    2.6389    0.6330   16.2758 C   0  0  0  0  0  0  0  0  0  0  0  0
    3.1459    1.6280   15.4836 C   0  0  0  0  0  0  0  0  0  0  0  0
    3.9443    2.5730   16.1663 C   0  0  0  0  0  0  0  0  0  0  0  0
    4.1929    2.5013   17.5139 C   0  0  0  0  0  0  0  0  0  0  0  0
    3.6739    1.5009   18.2710 C   0  0  0  0  0  0  0  0  0  0  0  0
    4.4939    3.6062   15.4457 O   0  0  0  0  0  0  0  0  0  0  0  0
    3.9198    4.8947   15.5070 C   0  0  0  0  0  0  0  0  0  0  0  0
    2.9881    1.8162   14.1627 O   0  0  0  0  0  0  0  0  0  0  0  0
    1.9882    2.3247   13.3665 C   0  0  0  0  0  0  0  0  0  0  0  0
    2.4837    2.6801   11.9987 C   0  0  0  0  0  0  0  0  0  0  0  0
    2.3275    1.5730   11.0455 C   0  0  0  0  0  0  0  0  0  0  0  0
    3.2341    1.1996   10.1109 N   0  0  0  0  0  0  0  0  0  0  0  0
    3.6371   -0.0515    9.7200 C   0  0  0  0  0  0  0  0  0  0  0  0
    5.0474    0.1213    9.1111 C   0  0  0  0  0  0  0  0  0  0  0  0
    5.0843    1.5564    8.6763 C   0  0  0  0  0  0  0  0  0  0  0  0
    4.0682    2.2191    9.5621 C   0  0  0  0  0  0  0  0  0  0  0  0
    7.0312    5.1378   22.5094 N   0  0  0  0  0  0  0  0  0  0  0  0
    7.6259    4.7752   23.3233 H   0  0  0  0  0  0  0  0  0  0  0  0
    7.2945    9.2025   21.5654 C   0  0  0  0  0  0  0  0  0  0  0  0
    6.5781    8.7549   22.6560 C   0  0  0  0  0  0  0  0  0  0  0  0
    6.4815    7.4751   22.9767 N   0  0  0  0  0  0  0  0  0  0  0  0
    7.0747    6.5227   22.2614 C   0  0  0  0  0  0  0  0  0  0  0  0
    7.7972    6.9410   21.1674 N   0  0  0  0  0  0  0  0  0  0  0  0
    7.9130    8.2268   20.8185 C   0  0  0  0  0  0  0  0  0  0  0  0
    5.9203   12.2601   17.8937 C   0  0  0  0  0  0  0  0  0  0  0  0
    6.9421   12.3644   18.8999 N   0  0  0  0  0  0  0  0  0  0  0  0
    6.4312   12.6212   20.2083 C   0  0  0  0  0  0  0  0  0  0  0  0
    6.0886   11.2658   20.8376 C   0  0  0  0  0  0  0  0  0  0  0  0
    7.4220   10.6290   21.1770 C   0  0  0  0  0  0  0  0  0  0  0  0
    8.4678   10.8922   20.1539 C   0  0  0  0  0  0  0  0  0  0  0  0
    7.9242   11.3336   18.8212 C   0  0  0  0  0  0  0  0  0  0  0  0
 36 37  1  0  0  0
 37 38  1  0  0  0
 38 39  1  0  0  0
 39 40  1  0  0  0
 40 41  1  0  0  0
 41 42  1  0  0  0
 40 30  1  0  0  0
 30 31  2  0  0  0
 31 32  1  0  0  0
 32 33  2  0  0  0
 33 28  1  0  0  0
 28  1  1  0  0  0
  1  2  2  0  0  0
  2  3  1  0  0  0
  3  4  2  0  0  0
  4  5  1  0  0  0
  5  6  2  0  0  0
  4  7  1  0  0  0
  7  8  2  0  0  0
  8  9  1  0  0  0
  9 10  2  0  0  0
 10 11  1  0  0  0
 11 12  2  0  0  0
 12 13  1  0  0  0
 13 19  1  0  0  0
 19 20  1  0  0  0
 20 21  1  0  0  0
 21 22  1  0  0  0
 22 23  1  0  0  0
 23 24  1  0  0  0
 24 25  1  0  0  0
 25 26  1  0  0  0
 26 27  1  0  0  0
 13 14  2  0  0  0
 14 17  1  0  0  0
 17 18  1  0  0  0
 14 15  1  0  0  0
 15 16  2  0  0  0
 33 34  1  0  0  0
 34 35  2  0  0  0
 42 37  1  0  0  0
 35 30  1  0  0  0
  6  1  1  0  0  0
 16  7  1  0  0  0
 16 11  1  0  0  0
 27 23  1  0  0  0
 28 29  1  0  0  0
M  END
> <minimizedAffinity>
-8.77332

> <CNNscore>
0.6620582342

> <CNNaffinity>
7.4544801712

> <CNN_VS>
4.9352998734

> <CNNaffinity_variance>
0.1344656050

$$$$
[H]c1nc2c([H])c(OC([H])([H])C([H])([H])C([H])([H])N3C([H])([H])C([H])([H])C([H])([H])C3([H])[H])c(OC([H])([H])[H])c([H])c2c(-c2c([H])c([H])c(N([H])c3nc([H])c(C4([H])C([H])([H])C([H])([H])N(C([H])([H])[H])C([H])([H])C4([H])[H])c([H])n3)c([H])c2[H])c1[H]


 42 47  0  0  0  0  0  0  0  0999 V2000
    1.5397    2.5642   12.1880 C   0  0  0  0  0  0  0  0  0  0  0  0
    2.6452    3.4192   12.0634 C   0  0  0  0  0  0  0  0  0  0  0  0
    3.3508    3.9111   13.1175 C   0  0  0  0  0  0  0  0  0  0  0  0
    2.9540    3.5451   14.4023 C   0  0  0  0  0  0  0  0  0  0  0  0
    1.8761    2.7091   14.5718 C   0  0  0  0  0  0  0  0  0  0  0  0
    1.1756    2.2234   13.4636 C   0  0  0  0  0  0  0  0  0  0  0  0
    3.6339    4.0639   15.5710 C   0  0  0  0  0  0  0  0  0  0  0  0
    4.0176    5.3948   15.5294 C   0  0  0  0  0  0  0  0  0  0  0  0
    4.6438    5.9640   16.6346 C   0  0  0  0  0  0  0  0  0  0  0  0
    4.8758    5.2375   17.7310 N   0  0  0  0  0  0  0  0  0  0  0  0
    4.5219    3.9550   17.8105 C   0  0  0  0  0  0  0  0  0  0  0  0
    4.7850    3.2304   18.9504 C   0  0  0  0  0  0  0  0  0  0  0  0
    4.4591    1.9078   19.0896 C   0  0  0  0  0  0  0  0  0  0  0  0
    3.8251    1.3373   17.9631 C   0  0  0  0  0  0  0  0  0  0  0  0
    3.5568    2.0491   16.8209 C   0  0  0  0  0  0  0  0  0  0  0  0
    3.8930    3.3602   16.7159 C   0  0  0  0  0  0  0  0  0  0  0  0
    3.4639    0.0124   18.0178 O   0  0  0  0  0  0  0  0  0  0  0  0
    2.1230   -0.3446   18.2787 C   0  0  0  0  0  0  0  0  0  0  0  0
    4.6645    1.0955   20.1399 O   0  0  0  0  0  0  0  0  0  0  0  0
    5.2569    1.2336   21.3737 C   0  0  0  0  0  0  0  0  0  0  0  0
    4.2560    1.5224   22.4494 C   0  0  0  0  0  0  0  0  0  0  0  0
    4.4950    2.8190   23.0980 C   0  0  0  0  0  0  0  0  0  0  0  0
    4.9063    3.9504   22.4772 N   0  0  0  0  0  0  0  0  0  0  0  0
    6.1729    4.4258   22.2532 C   0  0  0  0  0  0  0  0  0  0  0  0
    6.0337    5.9550   22.0758 C   0  0  0  0  0  0  0  0  0  0  0  0
    4.6130    6.1436   21.6331 C   0  0  0  0  0  0  0  0  0  0  0  0
    3.9128    4.9270   22.1679 C   0  0  0  0  0  0  0  0  0  0  0  0
    0.9109    2.1016   11.0436 N   0  0  0  0  0  0  0  0  0  0  0  0
    0.1466    2.7321   10.6362 H   0  0  0  0  0  0  0  0  0  0  0  0
    1.9324   -1.4095    9.0161 C   0  0  0  0  0  0  0  0  0  0  0  0
    0.6284   -1.1257    9.3659 C   0  0  0  0  0  0  0  0  0  0  0  0
    0.2797   -0.0214   10.0053 N   0  0  0  0  0  0  0  0  0  0  0  0
    1.1723    0.9001   10.3585 C   0  0  0  0  0  0  0  0  0  0  0  0
    2.4816    0.6431   10.0213 N   0  0  0  0  0  0  0  0  0  0  0  0
    2.8642   -0.4635    9.3754 C   0  0  0  0  0  0  0  0  0  0  0  0
    5.8376   -3.1476    6.4769 C   0  0  0  0  0  0  0  0  0  0  0  0
    4.4616   -3.5619    6.5269 N   0  0  0  0  0  0  0  0  0  0  0  0
    4.1080   -4.2233    7.7419 C   0  0  0  0  0  0  0  0  0  0  0  0
    3.7152   -3.1396    8.7527 C   0  0  0  0  0  0  0  0  0  0  0  0
    2.3577   -2.6381    8.3008 C   0  0  0  0  0  0  0  0  0  0  0  0
    2.2315   -2.5582    6.8218 C   0  0  0  0  0  0  0  0  0  0  0  0
    3.5491   -2.5555    6.0936 C   0  0  0  0  0  0  0  0  0  0  0  0
 36 37  1  0  0  0
 37 38  1  0  0  0
 38 39  1  0  0  0
 39 40  1  0  0  0
 40 41  1  0  0  0
 41 42  1  0  0  0
 40 30  1  0  0  0
 30 31  2  0  0  0
 31 32  1  0  0  0
 32 33  2  0  0  0
 33 28  1  0  0  0
 28  1  1  0  0  0
  1  2  2  0  0  0
  2  3  1  0  0  0
  3  4  2  0  0  0
  4  5  1  0  0  0
  5  6  2  0  0  0
  4  7  1  0  0  0
  7  8  2  0  0  0
  8  9  1  0  0  0
  9 10  2  0  0  0
 10 11  1  0  0  0
 11 12  2  0  0  0
 12 13  1  0  0  0
 13 19  1  0  0  0
 19 20  1  0  0  0
 20 21  1  0  0  0
 21 22  1  0  0  0
 22 23  1  0  0  0
 23 24  1  0  0  0
 24 25  1  0  0  0
 25 26  1  0  0  0
 26 27  1  0  0  0
 13 14  2  0  0  0
 14 17  1  0  0  0
 17 18  1  0  0  0
 14 15  1  0  0  0
 15 16  2  0  0  0
 33 34  1  0  0  0
 34 35  2  0  0  0
 42 37  1  0  0  0
 35 30  1  0  0  0
  6  1  1  0  0  0
 16  7  1  0  0  0
 16 11  1  0  0  0
 27 23  1  0  0  0
 28 29  1  0  0  0
M  END
> <minimizedAffinity>
-7.72672

> <CNNscore>
0.2727540731

> <CNNaffinity>
6.9731521606

> <CNN_VS>
1.9019556046

> <CNNaffinity_variance>
0.1073693261

$$$$
[H]c1nc2c([H])c(OC([H])([H])C([H])([H])C([H])([H])N3C([H])([H])C([H])([H])C([H])([H])C3([H])[H])c(OC([H])([H])[H])c([H])c2c(-c2c([H])c([H])c(N([H])c3nc([H])c(C4([H])C([H])([H])C([H])([H])N(C([H])([H])[H])C([H])([H])C4([H])[H])c([H])n3)c([H])c2[H])c1[H]


 42 47  0  0  0  0  0  0  0  0999 V2000
    2.2313    2.1369   14.2512 C   0  0  0  0  0  0  0  0  0  0  0  0
    3.3144    2.9626   13.9137 C   0  0  0  0  0  0  0  0  0  0  0  0
    3.5371    3.4551   12.6651 C   0  0  0  0  0  0  0  0  0  0  0  0
    2.6356    3.1210   11.6563 C   0  0  0  0  0  0  0  0  0  0  0  0
    1.5596    2.3145   11.9417 C   0  0  0  0  0  0  0  0  0  0  0  0
    1.3638    1.8276   13.2375 C   0  0  0  0  0  0  0  0  0  0  0  0
    2.8337    3.5763   10.2959 C   0  0  0  0  0  0  0  0  0  0  0  0
    3.3552    2.6564    9.4004 C   0  0  0  0  0  0  0  0  0  0  0  0
    3.5366    3.0205    8.0691 C   0  0  0  0  0  0  0  0  0  0  0  0
    3.2118    4.2468    7.6515 N   0  0  0  0  0  0  0  0  0  0  0  0
    2.7074    5.1596    8.4813 C   0  0  0  0  0  0  0  0  0  0  0  0
    2.3930    6.4183    8.0224 C   0  0  0  0  0  0  0  0  0  0  0  0
    1.8848    7.4037    8.8259 C   0  0  0  0  0  0  0  0  0  0  0  0
    1.7049    7.0265   10.1756 C   0  0  0  0  0  0  0  0  0  0  0  0
    2.0139    5.7748   10.6455 C   0  0  0  0  0  0  0  0  0  0  0  0
    2.5162    4.8201    9.8212 C   0  0  0  0  0  0  0  0  0  0  0  0
    1.1990    7.9565   11.0520 O   0  0  0  0  0  0  0  0  0  0  0  0
    1.8130    8.1513   12.3084 C   0  0  0  0  0  0  0  0  0  0  0  0
    1.5446    8.6626    8.5026 O   0  0  0  0  0  0  0  0  0  0  0  0
    2.1901    9.7205    7.9056 C   0  0  0  0  0  0  0  0  0  0  0  0
    1.3583   10.3557    6.8346 C   0  0  0  0  0  0  0  0  0  0  0  0
    1.3411    9.5609    5.5989 C   0  0  0  0  0  0  0  0  0  0  0  0
    0.2354    9.0740    4.9865 N   0  0  0  0  0  0  0  0  0  0  0  0
   -0.2246    9.2651    3.7089 C   0  0  0  0  0  0  0  0  0  0  0  0
   -1.7471    9.0019    3.7555 C   0  0  0  0  0  0  0  0  0  0  0  0
   -1.9271    8.1091    4.9473 C   0  0  0  0  0  0  0  0  0  0  0  0
   -0.7347    8.4223    5.8055 C   0  0  0  0  0  0  0  0  0  0  0  0
    2.0871    1.7138   15.5624 N   0  0  0  0  0  0  0  0  0  0  0  0
    1.3241    0.9837   15.7425 H   0  0  0  0  0  0  0  0  0  0  0  0
    4.3710    2.7202   18.9170 C   0  0  0  0  0  0  0  0  0  0  0  0
    3.7787    3.6828   18.1259 C   0  0  0  0  0  0  0  0  0  0  0  0
    3.0501    3.3898   17.0614 N   0  0  0  0  0  0  0  0  0  0  0  0
    2.8371    2.1339   16.6770 C   0  0  0  0  0  0  0  0  0  0  0  0
    3.4159    1.1525   17.4488 N   0  0  0  0  0  0  0  0  0  0  0  0
    4.1571    1.4176   18.5298 C   0  0  0  0  0  0  0  0  0  0  0  0
    3.7888    4.0086   23.6835 C   0  0  0  0  0  0  0  0  0  0  0  0
    4.9152    4.0973   22.7943 N   0  0  0  0  0  0  0  0  0  0  0  0
    5.5221    2.8357   22.5137 C   0  0  0  0  0  0  0  0  0  0  0  0
    4.7643    2.2184   21.3325 C   0  0  0  0  0  0  0  0  0  0  0  0
    5.1948    3.0139   20.1157 C   0  0  0  0  0  0  0  0  0  0  0  0
    5.3643    4.4631   20.4001 C   0  0  0  0  0  0  0  0  0  0  0  0
    4.6780    4.9252   21.6578 C   0  0  0  0  0  0  0  0  0  0  0  0
 36 37  1  0  0  0
 37 38  1  0  0  0
 38 39  1  0  0  0
 39 40  1  0  0  0
 40 41  1  0  0  0
 41 42  1  0  0  0
 40 30  1  0  0  0
 30 31  2  0  0  0
 31 32  1  0  0  0
 32 33  2  0  0  0
 33 28  1  0  0  0
 28  1  1  0  0  0
  1  2  2  0  0  0
  2  3  1  0  0  0
  3  4  2  0  0  0
  4  5  1  0  0  0
  5  6  2  0  0  0
  4  7  1  0  0  0
  7  8  2  0  0  0
  8  9  1  0  0  0
  9 10  2  0  0  0
 10 11  1  0  0  0
 11 12  2  0  0  0
 12 13  1  0  0  0
 13 19  1  0  0  0
 19 20  1  0  0  0
 20 21  1  0  0  0
 21 22  1  0  0  0
 22 23  1  0  0  0
 23 24  1  0  0  0
 24 25  1  0  0  0
 25 26  1  0  0  0
 26 27  1  0  0  0
 13 14  2  0  0  0
 14 17  1  0  0  0
 17 18  1  0  0  0
 14 15  1  0  0  0
 15 16  2  0  0  0
 33 34  1  0  0  0
 34 35  2  0  0  0
 42 37  1  0  0  0
 35 30  1  0  0  0
  6  1  1  0  0  0
 16  7  1  0  0  0
 16 11  1  0  0  0
 27 23  1  0  0  0
 28 29  1  0  0  0
M  END
> <minimizedAffinity>
-7.66356

> <CNNscore>
0.2674421668

> <CNNaffinity>
6.7177581787

> <CNN_VS>
1.7966117859

> <CNNaffinity_variance>
0.3637849689

$$$$
[H]c1nc2c([H])c(OC([H])([H])C([H])([H])C([H])([H])N3C([H])([H])C([H])([H])C([H])([H])C3([H])[H])c(OC([H])([H])[H])c([H])c2c(-c2c([H])c([H])c(N([H])c3nc([H])c(C4([H])C([H])([H])C([H])([H])N(C([H])([H])[H])C([H])([H])C4([H])[H])c([H])n3)c([H])c2[H])c1[H]


 42 47  0  0  0  0  0  0  0  0999 V2000
    2.9849    1.4755   16.1622 C   0  0  0  0  0  0  0  0  0  0  0  0
    2.7003    0.7055   17.3001 C   0  0  0  0  0  0  0  0  0  0  0  0
    3.3144    0.8679   18.5033 C   0  0  0  0  0  0  0  0  0  0  0  0
    4.2867    1.8598   18.6164 C   0  0  0  0  0  0  0  0  0  0  0  0
    4.5978    2.6384   17.5272 C   0  0  0  0  0  0  0  0  0  0  0  0
    3.9447    2.4418   16.3067 C   0  0  0  0  0  0  0  0  0  0  0  0
    5.0091    2.0606   19.8554 C   0  0  0  0  0  0  0  0  0  0  0  0
    5.5393    0.9311   20.4579 C   0  0  0  0  0  0  0  0  0  0  0  0
    6.2752    1.0603   21.6325 C   0  0  0  0  0  0  0  0  0  0  0  0
    6.4725    2.2624   22.1799 N   0  0  0  0  0  0  0  0  0  0  0  0
    5.9795    3.3724   21.6311 C   0  0  0  0  0  0  0  0  0  0  0  0
    6.1910    4.5953   22.2258 C   0  0  0  0  0  0  0  0  0  0  0  0
    5.7008    5.7694   21.7199 C   0  0  0  0  0  0  0  0  0  0  0  0
    4.9542    5.6295   20.5285 C   0  0  0  0  0  0  0  0  0  0  0  0
    4.7365    4.4162   19.9255 C   0  0  0  0  0  0  0  0  0  0  0  0
    5.2376    3.2702   20.4536 C   0  0  0  0  0  0  0  0  0  0  0  0
    4.4247    6.7595   19.9527 O   0  0  0  0  0  0  0  0  0  0  0  0
    4.7482    7.0914   18.6190 C   0  0  0  0  0  0  0  0  0  0  0  0
    5.8327    7.0157   22.2043 O   0  0  0  0  0  0  0  0  0  0  0  0
    6.8704    7.9126   22.3090 C   0  0  0  0  0  0  0  0  0  0  0  0
    7.6088    7.7703   23.6040 C   0  0  0  0  0  0  0  0  0  0  0  0
    7.2527    8.8225   24.5658 C   0  0  0  0  0  0  0  0  0  0  0  0
    7.8333   10.0429   24.6546 N   0  0  0  0  0  0  0  0  0  0  0  0
    8.0980   10.9695   23.6790 C   0  0  0  0  0  0  0  0  0  0  0  0
    9.2577   11.8397   24.2149 C   0  0  0  0  0  0  0  0  0  0  0  0
    9.1625   11.6978   25.7051 C   0  0  0  0  0  0  0  0  0  0  0  0
    8.4630   10.3814   25.8897 C   0  0  0  0  0  0  0  0  0  0  0  0
    2.2786    1.2411   14.9937 N   0  0  0  0  0  0  0  0  0  0  0  0
    2.0186    0.2211   14.7948 H   0  0  0  0  0  0  0  0  0  0  0  0
    1.0077    3.8914   12.0200 C   0  0  0  0  0  0  0  0  0  0  0  0
    1.3238    4.3234   13.2915 C   0  0  0  0  0  0  0  0  0  0  0  0
    1.7300    3.5054   14.2484 N   0  0  0  0  0  0  0  0  0  0  0  0
    1.8623    2.1967   14.0478 C   0  0  0  0  0  0  0  0  0  0  0  0
    1.5542    1.7378   12.7874 N   0  0  0  0  0  0  0  0  0  0  0  0
    1.1414    2.5400   11.8003 C   0  0  0  0  0  0  0  0  0  0  0  0
    2.4117    8.0490    9.6829 C   0  0  0  0  0  0  0  0  0  0  0  0
    1.1433    7.3779    9.7724 N   0  0  0  0  0  0  0  0  0  0  0  0
    1.0796    6.1728    9.0093 C   0  0  0  0  0  0  0  0  0  0  0  0
    1.6265    5.0451    9.8923 C   0  0  0  0  0  0  0  0  0  0  0  0
    0.5481    4.7809   10.9248 C   0  0  0  0  0  0  0  0  0  0  0  0
   -0.1278    6.0211   11.3883 C   0  0  0  0  0  0  0  0  0  0  0  0
    0.6438    7.2822   11.1045 C   0  0  0  0  0  0  0  0  0  0  0  0
 36 37  1  0  0  0
 37 38  1  0  0  0
 38 39  1  0  0  0
 39 40  1  0  0  0
 40 41  1  0  0  0
 41 42  1  0  0  0
 40 30  1  0  0  0
 30 31  2  0  0  0
 31 32  1  0  0  0
 32 33  2  0  0  0
 33 28  1  0  0  0
 28  1  1  0  0  0
  1  2  2  0  0  0
  2  3  1  0  0  0
  3  4  2  0  0  0
  4  5  1  0  0  0
  5  6  2  0  0  0
  4  7  1  0  0  0
  7  8  2  0  0  0
  8  9  1  0  0  0
  9 10  2  0  0  0
 10 11  1  0  0  0
 11 12  2  0  0  0
 12 13  1  0  0  0
 13 19  1  0  0  0
 19 20  1  0  0  0
 20 21  1  0  0  0
 21 22  1  0  0  0
 22 23  1  0  0  0
 23 24  1  0  0  0
 24 25  1  0  0  0
 25 26  1  0  0  0
 26 27  1  0  0  0
 13 14  2  0  0  0
 14 17  1  0  0  0
 17 18  1  0  0  0
 14 15  1  0  0  0
 15 16  2  0  0  0
 33 34  1  0  0  0
 34 35  2  0  0  0
 42 37  1  0  0  0
 35 30  1  0  0  0
  6  1  1  0  0  0
 16  7  1  0  0  0
 16 11  1  0  0  0
 27 23  1  0  0  0
 28 29  1  0  0  0
M  END
> <minimizedAffinity>
-8.53862

> <CNNscore>
0.2022442371

> <CNNaffinity>
6.7151894569

> <CNN_VS>
1.3581084013

> <CNNaffinity_variance>
0.1324954182

$$$$
[H]c1nc2c([H])c(OC([H])([H])C([H])([H])C([H])([H])N3C([H])([H])C([H])([H])C([H])([H])C3([H])[H])c(OC([H])([H])[H])c([H])c2c(-c2c([H])c([H])c(N([H])c3nc([H])c(C4([H])C([H])([H])C([H])([H])N(C([H])([H])[H])C([H])([H])C4([H])[H])c([H])n3)c([H])c2[H])c1[H]


 42 47  0  0  0  0  0  0  0  0999 V2000
    3.1990    3.3636   12.7477 C   0  0  0  0  0  0  0  0  0  0  0  0
    3.9102    3.9356   13.8133 C   0  0  0  0  0  0  0  0  0  0  0  0
    3.9692    3.4024   15.0636 C   0  0  0  0  0  0  0  0  0  0  0  0
    3.2820    2.2141   15.3045 C   0  0  0  0  0  0  0  0  0  0  0  0
    2.5719    1.6183   14.2896 C   0  0  0  0  0  0  0  0  0  0  0  0
    2.5349    2.1964   13.0171 C   0  0  0  0  0  0  0  0  0  0  0  0
    3.2679    1.6127   16.6218 C   0  0  0  0  0  0  0  0  0  0  0  0
    2.6145    0.3970   16.7450 C   0  0  0  0  0  0  0  0  0  0  0  0
    2.5953   -0.2508   17.9770 C   0  0  0  0  0  0  0  0  0  0  0  0
    3.2009    0.2907   19.0370 N   0  0  0  0  0  0  0  0  0  0  0  0
    3.8399    1.4577   18.9594 C   0  0  0  0  0  0  0  0  0  0  0  0
    4.4448    1.9947   20.0728 C   0  0  0  0  0  0  0  0  0  0  0  0
    5.1048    3.1943   20.0620 C   0  0  0  0  0  0  0  0  0  0  0  0
    5.1187    3.8459   18.8082 C   0  0  0  0  0  0  0  0  0  0  0  0
    4.5199    3.3209   17.6907 C   0  0  0  0  0  0  0  0  0  0  0  0
    3.8735    2.1278   17.7358 C   0  0  0  0  0  0  0  0  0  0  0  0
    5.7600    5.0573   18.7085 O   0  0  0  0  0  0  0  0  0  0  0  0
    6.3461    5.4484   17.4850 C   0  0  0  0  0  0  0  0  0  0  0  0
    5.7268    3.8230   21.0735 O   0  0  0  0  0  0  0  0  0  0  0  0
    5.3315    4.3414   22.2848 C   0  0  0  0  0  0  0  0  0  0  0  0
    5.5100    5.8269   22.3465 C   0  0  0  0  0  0  0  0  0  0  0  0
    6.8068    6.2543   21.8037 C   0  0  0  0  0  0  0  0  0  0  0  0
    7.9425    6.4372   22.5188 N   0  0  0  0  0  0  0  0  0  0  0  0
    9.0619    5.6512   22.6173 C   0  0  0  0  0  0  0  0  0  0  0  0
    9.7241    6.0123   23.9666 C   0  0  0  0  0  0  0  0  0  0  0  0
    9.2352    7.4010   24.2534 C   0  0  0  0  0  0  0  0  0  0  0  0
    7.9467    7.4865   23.4860 C   0  0  0  0  0  0  0  0  0  0  0  0
    3.2293    3.9794   11.5071 N   0  0  0  0  0  0  0  0  0  0  0  0
    2.4615    4.7023   11.3191 H   0  0  0  0  0  0  0  0  0  0  0  0
    5.8897    3.1101    8.4008 C   0  0  0  0  0  0  0  0  0  0  0  0
    5.9131    4.3219    9.0597 C   0  0  0  0  0  0  0  0  0  0  0  0
    5.0839    4.6199   10.0464 N   0  0  0  0  0  0  0  0  0  0  0  0
    4.1610    3.7623   10.4747 C   0  0  0  0  0  0  0  0  0  0  0  0
    4.1154    2.5445    9.8353 N   0  0  0  0  0  0  0  0  0  0  0  0
    4.9400    2.2147    8.8355 C   0  0  0  0  0  0  0  0  0  0  0  0
    9.5696    5.1045    5.7178 C   0  0  0  0  0  0  0  0  0  0  0  0
    8.7074    3.9788    5.4799 N   0  0  0  0  0  0  0  0  0  0  0  0
    9.0126    2.8441    6.2911 C   0  0  0  0  0  0  0  0  0  0  0  0
    8.2593    3.0151    7.6154 C   0  0  0  0  0  0  0  0  0  0  0  0
    6.8034    2.7443    7.2903 C   0  0  0  0  0  0  0  0  0  0  0  0
    6.3962    3.2773    5.9638 C   0  0  0  0  0  0  0  0  0  0  0  0
    7.3258    4.3254    5.4128 C   0  0  0  0  0  0  0  0  0  0  0  0
 36 37  1  0  0  0
 37 38  1  0  0  0
 38 39  1  0  0  0
 39 40  1  0  0  0
 40 41  1  0  0  0
 41 42  1  0  0  0
 40 30  1  0  0  0
 30 31  2  0  0  0
 31 32  1  0  0  0
 32 33  2  0  0  0
 33 28  1  0  0  0
 28  1  1  0  0  0
  1  2  2  0  0  0
  2  3  1  0  0  0
  3  4  2  0  0  0
  4  5  1  0  0  0
  5  6  2  0  0  0
  4  7  1  0  0  0
  7  8  2  0  0  0
  8  9  1  0  0  0
  9 10  2  0  0  0
 10 11  1  0  0  0
 11 12  2  0  0  0
 12 13  1  0  0  0
 13 19  1  0  0  0
 19 20  1  0  0  0
 20 21  1  0  0  0
 21 22  1  0  0  0
 22 23  1  0  0  0
 23 24  1  0  0  0
 24 25  1  0  0  0
 25 26  1  0  0  0
 26 27  1  0  0  0
 13 14  2  0  0  0
 14 17  1  0  0  0
 17 18  1  0  0  0
 14 15  1  0  0  0
 15 16  2  0  0  0
 33 34  1  0  0  0
 34 35  2  0  0  0
 42 37  1  0  0  0
 35 30  1  0  0  0
  6  1  1  0  0  0
 16  7  1  0  0  0
 16 11  1  0  0  0
 27 23  1  0  0  0
 28 29  1  0  0  0
M  END
> <minimizedAffinity>
-8.42747

> <CNNscore>
0.1661950201

> <CNNaffinity>
6.5764594078

> <CNN_VS>
1.0929747820

> <CNNaffinity_variance>
0.1635410488

$$$$
[H]c1nc2c([H])c(OC([H])([H])C([H])([H])C([H])([H])N3C([H])([H])C([H])([H])C([H])([H])C3([H])[H])c(OC([H])([H])[H])c([H])c2c(-c2c([H])c([H])c(N([H])c3nc([H])c(C4([H])C([H])([H])C([H])([H])N(C([H])([H])[H])C([H])([H])C4([H])[H])c([H])n3)c([H])c2[H])c1[H]


 42 47  0  0  0  0  0  0  0  0999 V2000
    2.9716    1.4718   16.1767 C   0  0  0  0  0  0  0  0  0  0  0  0
    3.9226    2.4968   16.2928 C   0  0  0  0  0  0  0  0  0  0  0  0
    4.6046    2.7778   17.4361 C   0  0  0  0  0  0  0  0  0  0  0  0
    4.3452    2.0012   18.5638 C   0  0  0  0  0  0  0  0  0  0  0  0
    3.4211    0.9859   18.4958 C   0  0  0  0  0  0  0  0  0  0  0  0
    2.7400    0.7270   17.3026 C   0  0  0  0  0  0  0  0  0  0  0  0
    5.0044    2.2708   19.8248 C   0  0  0  0  0  0  0  0  0  0  0  0
    5.2935    1.1761   20.6236 C   0  0  0  0  0  0  0  0  0  0  0  0
    5.9582    1.3640   21.8321 C   0  0  0  0  0  0  0  0  0  0  0  0
    6.3178    2.5889   22.2246 N   0  0  0  0  0  0  0  0  0  0  0  0
    6.0584    3.6668   21.4849 C   0  0  0  0  0  0  0  0  0  0  0  0
    6.4323    4.9168   21.9224 C   0  0  0  0  0  0  0  0  0  0  0  0
    6.1834    6.0633   21.2164 C   0  0  0  0  0  0  0  0  0  0  0  0
    5.5074    5.8641   19.9917 C   0  0  0  0  0  0  0  0  0  0  0  0
    5.1297    4.6231   19.5442 C   0  0  0  0  0  0  0  0  0  0  0  0
    5.3925    3.5057   20.2692 C   0  0  0  0  0  0  0  0  0  0  0  0
    5.2173    6.9632   19.2193 O   0  0  0  0  0  0  0  0  0  0  0  0
    5.4726    6.9388   17.8309 C   0  0  0  0  0  0  0  0  0  0  0  0
    6.4905    7.3321   21.5346 O   0  0  0  0  0  0  0  0  0  0  0  0
    6.5971    8.0406   22.7088 C   0  0  0  0  0  0  0  0  0  0  0  0
    8.0029    8.4832   22.9736 C   0  0  0  0  0  0  0  0  0  0  0  0
    8.7238    7.5505   23.8507 C   0  0  0  0  0  0  0  0  0  0  0  0
    9.6030    6.6030   23.4461 N   0  0  0  0  0  0  0  0  0  0  0  0
   10.4844    5.8457   24.1742 C   0  0  0  0  0  0  0  0  0  0  0  0
   11.5976    5.4166   23.1913 C   0  0  0  0  0  0  0  0  0  0  0  0
   10.9415    5.4844   21.8441 C   0  0  0  0  0  0  0  0  0  0  0  0
    9.8300    6.4752   22.0431 C   0  0  0  0  0  0  0  0  0  0  0  0
    2.3555    1.2568   14.9546 N   0  0  0  0  0  0  0  0  0  0  0  0
    2.2064    0.2339   14.6736 H   0  0  0  0  0  0  0  0  0  0  0  0
    0.9751    3.9787   12.0966 C   0  0  0  0  0  0  0  0  0  0  0  0
    1.2873    4.3706   13.3819 C   0  0  0  0  0  0  0  0  0  0  0  0
    1.7276    3.5294   14.3030 N   0  0  0  0  0  0  0  0  0  0  0  0
    1.9007    2.2346   14.0500 C   0  0  0  0  0  0  0  0  0  0  0  0
    1.5975    1.8157   12.7746 N   0  0  0  0  0  0  0  0  0  0  0  0
    1.1509    2.6420   11.8228 C   0  0  0  0  0  0  0  0  0  0  0  0
    2.4734    7.9715    9.5410 C   0  0  0  0  0  0  0  0  0  0  0  0
    1.1684    7.4172    9.7802 N   0  0  0  0  0  0  0  0  0  0  0  0
    0.9162    6.2151    9.0520 C   0  0  0  0  0  0  0  0  0  0  0  0
    1.4557    5.0518    9.8924 C   0  0  0  0  0  0  0  0  0  0  0  0
    0.4780    4.8949   11.0405 C   0  0  0  0  0  0  0  0  0  0  0  0
   -0.0318    6.1948   11.5503 C   0  0  0  0  0  0  0  0  0  0  0  0
    0.8115    7.3794   11.1603 C   0  0  0  0  0  0  0  0  0  0  0  0
 36 37  1  0  0  0
 37 38  1  0  0  0
 38 39  1  0  0  0
 39 40  1  0  0  0
 40 41  1  0  0  0
 41 42  1  0  0  0
 40 30  1  0  0  0
 30 31  2  0  0  0
 31 32  1  0  0  0
 32 33  2  0  0  0
 33 28  1  0  0  0
 28  1  1  0  0  0
  1  2  2  0  0  0
  2  3  1  0  0  0
  3  4  2  0  0  0
  4  5  1  0  0  0
  5  6  2  0  0  0
  4  7  1  0  0  0
  7  8  2  0  0  0
  8  9  1  0  0  0
  9 10  2  0  0  0
 10 11  1  0  0  0
 11 12  2  0  0  0
 12 13  1  0  0  0
 13 19  1  0  0  0
 19 20  1  0  0  0
 20 21  1  0  0  0
 21 22  1  0  0  0
 22 23  1  0  0  0
 23 24  1  0  0  0
 24 25  1  0  0  0
 25 26  1  0  0  0
 26 27  1  0  0  0
 13 14  2  0  0  0
 14 17  1  0  0  0
 17 18  1  0  0  0
 14 15  1  0  0  0
 15 16  2  0  0  0
 33 34  1  0  0  0
 34 35  2  0  0  0
 42 37  1  0  0  0
 35 30  1  0  0  0
  6  1  1  0  0  0
 16  7  1  0  0  0
 16 11  1  0  0  0
 27 23  1  0  0  0
 28 29  1  0  0  0
M  END
> <minimizedAffinity>
-8.70371

> <CNNscore>
0.1629444212

> <CNNaffinity>
6.8401260376

> <CNN_VS>
1.1145603657

> <CNNaffinity_variance>
0.1522582918

$$$$
[H]c1nc2c([H])c(OC([H])([H])C([H])([H])C([H])([H])N3C([H])([H])C([H])([H])C([H])([H])C3([H])[H])c(OC([H])([H])[H])c([H])c2c(-c2c([H])c([H])c(N([H])c3nc([H])c(C4([H])C([H])([H])C([H])([H])N(C([H])([H])[H])C([H])([H])C4([H])[H])c([H])n3)c([H])c2[H])c1[H]


 42 47  0  0  0  0  0  0  0  0999 V2000
    2.9733    1.3927   16.1873 C   0  0  0  0  0  0  0  0  0  0  0  0
    3.8587    2.4782   16.2666 C   0  0  0  0  0  0  0  0  0  0  0  0
    4.5227    2.8391   17.3979 C   0  0  0  0  0  0  0  0  0  0  0  0
    4.3133    2.0858   18.5515 C   0  0  0  0  0  0  0  0  0  0  0  0
    3.4543    1.0132   18.5200 C   0  0  0  0  0  0  0  0  0  0  0  0
    2.7897    0.6728   17.3380 C   0  0  0  0  0  0  0  0  0  0  0  0
    4.9554    2.4378   19.8009 C   0  0  0  0  0  0  0  0  0  0  0  0
    5.3953    1.3892   20.5928 C   0  0  0  0  0  0  0  0  0  0  0  0
    6.0524    1.6609   21.7895 C   0  0  0  0  0  0  0  0  0  0  0  0
    6.2607    2.9218   22.1773 N   0  0  0  0  0  0  0  0  0  0  0  0
    5.8534    3.9575   21.4441 C   0  0  0  0  0  0  0  0  0  0  0  0
    6.0735    5.2452   21.8767 C   0  0  0  0  0  0  0  0  0  0  0  0
    5.6686    6.3503   21.1770 C   0  0  0  0  0  0  0  0  0  0  0  0
    5.0015    6.0661   19.9643 C   0  0  0  0  0  0  0  0  0  0  0  0
    4.7763    4.7869   19.5217 C   0  0  0  0  0  0  0  0  0  0  0  0
    5.1917    3.7124   20.2402 C   0  0  0  0  0  0  0  0  0  0  0  0
    4.5605    7.1189   19.1989 O   0  0  0  0  0  0  0  0  0  0  0  0
    5.1344    7.3609   17.9318 C   0  0  0  0  0  0  0  0  0  0  0  0
    5.8179    7.6480   21.4916 O   0  0  0  0  0  0  0  0  0  0  0  0
    4.9582    8.6964   21.7241 C   0  0  0  0  0  0  0  0  0  0  0  0
    5.4070    9.9536   21.0453 C   0  0  0  0  0  0  0  0  0  0  0  0
    6.8710   10.0724   21.0063 C   0  0  0  0  0  0  0  0  0  0  0  0
    7.6617   10.4536   22.0378 N   0  0  0  0  0  0  0  0  0  0  0  0
    8.4136    9.6993   22.9016 C   0  0  0  0  0  0  0  0  0  0  0  0
    8.5930   10.5550   24.1763 C   0  0  0  0  0  0  0  0  0  0  0  0
    8.4164   11.9655   23.6973 C   0  0  0  0  0  0  0  0  0  0  0  0
    7.5799   11.8148   22.4587 C   0  0  0  0  0  0  0  0  0  0  0  0
    2.3708    1.0991   14.9749 N   0  0  0  0  0  0  0  0  0  0  0  0
    2.1555    0.0659   14.7917 H   0  0  0  0  0  0  0  0  0  0  0  0
    1.5183    3.7721   11.8747 C   0  0  0  0  0  0  0  0  0  0  0  0
    0.5785    3.4433   12.8296 C   0  0  0  0  0  0  0  0  0  0  0  0
    0.8245    2.6025   13.8208 N   0  0  0  0  0  0  0  0  0  0  0  0
    2.0071    2.0102   13.9655 C   0  0  0  0  0  0  0  0  0  0  0  0
    2.9645    2.3206   13.0268 N   0  0  0  0  0  0  0  0  0  0  0  0
    2.7455    3.1663   12.0144 C   0  0  0  0  0  0  0  0  0  0  0  0
    3.7345    7.5889    9.5857 C   0  0  0  0  0  0  0  0  0  0  0  0
    2.3666    7.1467    9.6124 N   0  0  0  0  0  0  0  0  0  0  0  0
    2.1357    5.9581    8.8557 C   0  0  0  0  0  0  0  0  0  0  0  0
    2.4346    4.7679    9.7747 C   0  0  0  0  0  0  0  0  0  0  0  0
    1.2753    4.7092   10.7502 C   0  0  0  0  0  0  0  0  0  0  0  0
    0.8000    6.0543   11.1680 C   0  0  0  0  0  0  0  0  0  0  0  0
    1.7906    7.1597   10.9167 C   0  0  0  0  0  0  0  0  0  0  0  0
 36 37  1  0  0  0
 37 38  1  0  0  0
 38 39  1  0  0  0
 39 40  1  0  0  0
 40 41  1  0  0  0
 41 42  1  0  0  0
 40 30  1  0  0  0
 30 31  2  0  0  0
 31 32  1  0  0  0
 32 33  2  0  0  0
 33 28  1  0  0  0
 28  1  1  0  0  0
  1  2  2  0  0  0
  2  3  1  0  0  0
  3  4  2  0  0  0
  4  5  1  0  0  0
  5  6  2  0  0  0
  4  7  1  0  0  0
  7  8  2  0  0  0
  8  9  1  0  0  0
  9 10  2  0  0  0
 10 11  1  0  0  0
 11 12  2  0  0  0
 12 13  1  0  0  0
 13 19  1  0  0  0
 19 20  1  0  0  0
 20 21  1  0  0  0
 21 22  1  0  0  0
 22 23  1  0  0  0
 23 24  1  0  0  0
 24 25  1  0  0  0
 25 26  1  0  0  0
 26 27  1  0  0  0
 13 14  2  0  0  0
 14 17  1  0  0  0
 17 18  1  0  0  0
 14 15  1  0  0  0
 15 16  2  0  0  0
 33 34  1  0  0  0
 34 35  2  0  0  0
 42 37  1  0  0  0
 35 30  1  0  0  0
  6  1  1  0  0  0
 16  7  1  0  0  0
 16 11  1  0  0  0
 27 23  1  0  0  0
 28 29  1  0  0  0
M  END
> <minimizedAffinity>
-8.34309

> <CNNscore>
0.1435859948

> <CNNaffinity>
6.6903901100

> <CNN_VS>
0.9606463313

> <CNNaffinity_variance>
0.1334825456

$$$$
[H]O[C@]1([H])C([H])([H])C([H])([H])[C@@]([H])(N([H])c2nc([H])nc3c([H])c(OC([H])([H])[H])c(OC([H])([H])[H])c([H])c23)C([H])([H])C1([H])[H]


 24 26  0  0  0  0  0  0  0  0999 V2000
    2.9456    1.9409   14.8987 C   0  0  0  0  0  0  0  0  0  0  0  0
    2.4959    0.8957   15.6752 C   0  0  0  0  0  0  0  0  0  0  0  0
    2.7935    0.7606   17.0210 C   0  0  0  0  0  0  0  0  0  0  0  0
    2.3051   -0.3006   17.6995 N   0  0  0  0  0  0  0  0  0  0  0  0
    2.6088   -0.4057   19.0013 C   0  0  0  0  0  0  0  0  0  0  0  0
    3.3737    0.5213   19.5953 N   0  0  0  0  0  0  0  0  0  0  0  0
    3.8822    1.6039   18.9392 C   0  0  0  0  0  0  0  0  0  0  0  0
    3.5881    1.7407   17.5999 C   0  0  0  0  0  0  0  0  0  0  0  0
    4.0508    2.7977   16.8428 C   0  0  0  0  0  0  0  0  0  0  0  0
    3.7370    2.9090   15.4934 C   0  0  0  0  0  0  0  0  0  0  0  0
    1.2777    2.0004   13.1514 C   0  0  0  0  0  0  0  0  0  0  0  0
    2.6371    2.0577   13.5553 O   0  0  0  0  0  0  0  0  0  0  0  0
    4.6919    2.5429   19.6017 N   0  0  0  0  0  0  0  0  0  0  0  0
    5.2843    3.2051   19.0855 H   0  0  0  0  0  0  0  0  0  0  0  0
    4.7368    2.6283   21.0437 C   0  0  0  0  0  0  0  0  0  0  0  0
    6.0992    2.2369   21.5853 C   0  0  0  0  0  0  0  0  0  0  0  0
    6.1410    2.5905   23.0330 C   0  0  0  0  0  0  0  0  0  0  0  0
    4.7983    2.7553   23.6870 C   0  0  0  0  0  0  0  0  0  0  0  0
    4.1620    1.5491   23.8769 O   0  0  0  0  0  0  0  0  0  0  0  0
    3.9321    3.7929   23.0046 C   0  0  0  0  0  0  0  0  0  0  0  0
    4.4125    4.0072   21.5768 C   0  0  0  0  0  0  0  0  0  0  0  0
    3.1943    1.6026   23.8149 H   0  0  0  0  0  0  0  0  0  0  0  0
    4.2083    3.9758   14.7444 O   0  0  0  0  0  0  0  0  0  0  0  0
    3.5165    5.2058   14.7953 C   0  0  0  0  0  0  0  0  0  0  0  0
 11 12  1  0  0  0
 12  1  1  0  0  0
  1  2  2  0  0  0
  2  3  1  0  0  0
  3  4  2  0  0  0
  4  5  1  0  0  0
  5  6  2  0  0  0
  6  7  1  0  0  0
  7 13  1  0  0  0
 13 15  1  0  0  0
 15 16  1  0  0  0
 16 17  1  0  0  0
 17 18  1  0  0  0
 18 19  1  0  0  0
 18 20  1  0  0  0
 20 21  1  0  0  0
  7  8  2  0  0  0
  8  9  1  0  0  0
  9 10  2  0  0  0
 10 23  1  0  0  0
 23 24  1  0  0  0
 10  1  1  0  0  0
  8  3  1  0  0  0
 21 15  1  0  0  0
 13 14  1  0  0  0
 19 22  1  0  0  0
M  END
> <minimizedAffinity>
-7.72498

> <CNNscore>
0.9466900826

> <CNNaffinity>
6.2490143776

> <CNN_VS>
5.9158797264

> <CNNaffinity_variance>
0.1337264776

$$$$
[H]O[C@]1([H])C([H])([H])C([H])([H])[C@@]([H])(N([H])c2nc([H])nc3c([H])c(OC([H])([H])[H])c(OC([H])([H])[H])c([H])c23)C([H])([H])C1([H])[H]


 24 26  0  0  0  0  0  0  0  0999 V2000
    3.7851    2.5312   16.0588 C   0  0  0  0  0  0  0  0  0  0  0  0
    3.0167    1.4640   16.4688 C   0  0  0  0  0  0  0  0  0  0  0  0
    3.0707    0.9293   17.7452 C   0  0  0  0  0  0  0  0  0  0  0  0
    2.2766   -0.1192   18.0535 N   0  0  0  0  0  0  0  0  0  0  0  0
    2.3495   -0.6161   19.2968 C   0  0  0  0  0  0  0  0  0  0  0  0
    3.1887   -0.0781   20.1931 N   0  0  0  0  0  0  0  0  0  0  0  0
    4.0033    0.9800   19.9140 C   0  0  0  0  0  0  0  0  0  0  0  0
    3.9520    1.5138   18.6446 C   0  0  0  0  0  0  0  0  0  0  0  0
    4.7324    2.5842   18.2576 C   0  0  0  0  0  0  0  0  0  0  0  0
    4.6583    3.1012   16.9697 C   0  0  0  0  0  0  0  0  0  0  0  0
    2.9193    2.3905   13.8073 C   0  0  0  0  0  0  0  0  0  0  0  0
    3.7163    3.0507   14.7786 O   0  0  0  0  0  0  0  0  0  0  0  0
    4.8779    1.5014   20.8833 N   0  0  0  0  0  0  0  0  0  0  0  0
    5.7066    0.9819   21.1985 H   0  0  0  0  0  0  0  0  0  0  0  0
    4.6598    2.7947   21.4901 C   0  0  0  0  0  0  0  0  0  0  0  0
    3.7664    2.6958   22.7127 C   0  0  0  0  0  0  0  0  0  0  0  0
    3.7975    4.0096   23.4166 C   0  0  0  0  0  0  0  0  0  0  0  0
    4.2391    5.1728   22.5741 C   0  0  0  0  0  0  0  0  0  0  0  0
    3.2775    5.5481   21.6629 O   0  0  0  0  0  0  0  0  0  0  0  0
    5.6071    4.9703   21.9577 C   0  0  0  0  0  0  0  0  0  0  0  0
    5.9381    3.4858   21.9135 C   0  0  0  0  0  0  0  0  0  0  0  0
    3.6398    5.8994   20.8331 H   0  0  0  0  0  0  0  0  0  0  0  0
    5.4479    4.1767   16.5940 O   0  0  0  0  0  0  0  0  0  0  0  0
    6.0370    4.9764   17.5977 C   0  0  0  0  0  0  0  0  0  0  0  0
 11 12  1  0  0  0
 12  1  1  0  0  0
  1  2  2  0  0  0
  2  3  1  0  0  0
  3  4  2  0  0  0
  4  5  1  0  0  0
  5  6  2  0  0  0
  6  7  1  0  0  0
  7 13  1  0  0  0
 13 15  1  0  0  0
 15 16  1  0  0  0
 16 17  1  0  0  0
 17 18  1  0  0  0
 18 19  1  0  0  0
 18 20  1  0  0  0
 20 21  1  0  0  0
  7  8  2  0  0  0
  8  9  1  0  0  0
  9 10  2  0  0  0
 10 23  1  0  0  0
 23 24  1  0  0  0
 10  1  1  0  0  0
  8  3  1  0  0  0
 21 15  1  0  0  0
 13 14  1  0  0  0
 19 22  1  0  0  0
M  END
> <minimizedAffinity>
-8.07729

> <CNNscore>
0.9340955615

> <CNNaffinity>
6.3548212051

> <CNN_VS>
5.9360103607

> <CNNaffinity_variance>
0.3890346587

$$$$
[H]O[C@]1([H])C([H])([H])C([H])([H])[C@@]([H])(N([H])c2nc([H])nc3c([H])c(OC([H])([H])[H])c(OC([H])([H])[H])c([H])c23)C([H])([H])C1([H])[H]


 24 26  0  0  0  0  0  0  0  0999 V2000
    4.5675    2.6141   21.8828 C   0  0  0  0  0  0  0  0  0  0  0  0
    3.8010    1.5144   21.5650 C   0  0  0  0  0  0  0  0  0  0  0  0
    3.5651    1.0974   20.2657 C   0  0  0  0  0  0  0  0  0  0  0  0
    2.7991    0.0049   20.0542 N   0  0  0  0  0  0  0  0  0  0  0  0
    2.5878   -0.3763   18.7861 C   0  0  0  0  0  0  0  0  0  0  0  0
    3.1267    0.3156   17.7722 N   0  0  0  0  0  0  0  0  0  0  0  0
    3.9041    1.4222   17.9514 C   0  0  0  0  0  0  0  0  0  0  0  0
    4.1402    1.8397   19.2433 C   0  0  0  0  0  0  0  0  0  0  0  0
    4.9123    2.9455   19.5363 C   0  0  0  0  0  0  0  0  0  0  0  0
    5.1330    3.3422   20.8499 C   0  0  0  0  0  0  0  0  0  0  0  0
    3.8527    3.8731   23.8174 C   0  0  0  0  0  0  0  0  0  0  0  0
    4.7912    3.0144   23.1879 O   0  0  0  0  0  0  0  0  0  0  0  0
    4.4361    2.1239   16.8556 N   0  0  0  0  0  0  0  0  0  0  0  0
    5.3474    1.8796   16.4486 H   0  0  0  0  0  0  0  0  0  0  0  0
    3.7322    3.2270   16.2422 C   0  0  0  0  0  0  0  0  0  0  0  0
    4.5419    4.5091   16.3003 C   0  0  0  0  0  0  0  0  0  0  0  0
    3.8693    5.5211   15.4366 C   0  0  0  0  0  0  0  0  0  0  0  0
    2.4204    5.2484   15.1466 C   0  0  0  0  0  0  0  0  0  0  0  0
    1.6198    5.4765   16.2434 O   0  0  0  0  0  0  0  0  0  0  0  0
    2.1907    3.8971   14.5033 C   0  0  0  0  0  0  0  0  0  0  0  0
    3.3704    2.9809   14.7933 C   0  0  0  0  0  0  0  0  0  0  0  0
    0.8453    4.8926   16.2913 H   0  0  0  0  0  0  0  0  0  0  0  0
    5.9106    4.4549   21.1303 O   0  0  0  0  0  0  0  0  0  0  0  0
    5.8427    5.5716   20.2685 C   0  0  0  0  0  0  0  0  0  0  0  0
 11 12  1  0  0  0
 12  1  1  0  0  0
  1  2  2  0  0  0
  2  3  1  0  0  0
  3  4  2  0  0  0
  4  5  1  0  0  0
  5  6  2  0  0  0
  6  7  1  0  0  0
  7 13  1  0  0  0
 13 15  1  0  0  0
 15 16  1  0  0  0
 16 17  1  0  0  0
 17 18  1  0  0  0
 18 19  1  0  0  0
 18 20  1  0  0  0
 20 21  1  0  0  0
  7  8  2  0  0  0
  8  9  1  0  0  0
  9 10  2  0  0  0
 10 23  1  0  0  0
 23 24  1  0  0  0
 10  1  1  0  0  0
  8  3  1  0  0  0
 21 15  1  0  0  0
 13 14  1  0  0  0
 19 22  1  0  0  0
M  END
> <minimizedAffinity>
-7.32182

> <CNNscore>
0.6738992333

> <CNNaffinity>
5.9821534157

> <CNN_VS>
4.0313687325

> <CNNaffinity_variance>
0.3675996661

$$$$
[H]O[C@]1([H])C([H])([H])C([H])([H])[C@@]([H])(N([H])c2nc([H])nc3c([H])c(OC([H])([H])[H])c(OC([H])([H])[H])c([H])c23)C([H])([H])C1([H])[H]


 24 26  0  0  0  0  0  0  0  0999 V2000
    4.6644    2.3518   20.6059 C   0  0  0  0  0  0  0  0  0  0  0  0
    4.0370    1.2571   20.0530 C   0  0  0  0  0  0  0  0  0  0  0  0
    3.6650    1.1816   18.7212 C   0  0  0  0  0  0  0  0  0  0  0  0
    3.0539    0.0641   18.2710 N   0  0  0  0  0  0  0  0  0  0  0  0
    2.7054    0.0185   16.9770 C   0  0  0  0  0  0  0  0  0  0  0  0
    2.9625    1.0571   16.1693 N   0  0  0  0  0  0  0  0  0  0  0  0
    3.5774    2.1991   16.5920 C   0  0  0  0  0  0  0  0  0  0  0  0
    3.9483    2.2772   17.9169 C   0  0  0  0  0  0  0  0  0  0  0  0
    4.5763    3.3856   18.4476 C   0  0  0  0  0  0  0  0  0  0  0  0
    4.9388    3.4350   19.7884 C   0  0  0  0  0  0  0  0  0  0  0  0
    4.0139    2.4968   22.9285 C   0  0  0  0  0  0  0  0  0  0  0  0
    5.0279    2.4075   21.9395 O   0  0  0  0  0  0  0  0  0  0  0  0
    3.8132    3.2685   15.7105 N   0  0  0  0  0  0  0  0  0  0  0  0
    4.6074    3.9081   15.8374 H   0  0  0  0  0  0  0  0  0  0  0  0
    2.9524    3.5280   14.5791 C   0  0  0  0  0  0  0  0  0  0  0  0
    2.1152    4.7763   14.7875 C   0  0  0  0  0  0  0  0  0  0  0  0
    1.4542    5.1119   13.4941 C   0  0  0  0  0  0  0  0  0  0  0  0
    1.3550    3.9753   12.5162 C   0  0  0  0  0  0  0  0  0  0  0  0
    0.4122    3.0459   12.8947 O   0  0  0  0  0  0  0  0  0  0  0  0
    2.6998    3.3667   12.1792 C   0  0  0  0  0  0  0  0  0  0  0  0
    3.7031    3.6941   13.2754 C   0  0  0  0  0  0  0  0  0  0  0  0
    0.6311    2.1367   12.6329 H   0  0  0  0  0  0  0  0  0  0  0  0
    5.5691    4.5545   20.3087 O   0  0  0  0  0  0  0  0  0  0  0  0
    4.7875    5.6742   20.6685 C   0  0  0  0  0  0  0  0  0  0  0  0
 11 12  1  0  0  0
 12  1  1  0  0  0
  1  2  2  0  0  0
  2  3  1  0  0  0
  3  4  2  0  0  0
  4  5  1  0  0  0
  5  6  2  0  0  0
  6  7  1  0  0  0
  7 13  1  0  0  0
 13 15  1  0  0  0
 15 16  1  0  0  0
 16 17  1  0  0  0
 17 18  1  0  0  0
 18 19  1  0  0  0
 18 20  1  0  0  0
 20 21  1  0  0  0
  7  8  2  0  0  0
  8  9  1  0  0  0
  9 10  2  0  0  0
 10 23  1  0  0  0
 23 24  1  0  0  0
 10  1  1  0  0  0
  8  3  1  0  0  0
 21 15  1  0  0  0
 13 14  1  0  0  0
 19 22  1  0  0  0
M  END
> <minimizedAffinity>
-6.62285

> <CNNscore>
0.6075114012

> <CNNaffinity>
5.6065778732

> <CNN_VS>
3.4060599804

> <CNNaffinity_variance>
0.3793938756

$$$$
[H]O[C@]1([H])C([H])([H])C([H])([H])[C@@]([H])(N([H])c2nc([H])nc3c([H])c(OC([H])([H])[H])c(OC([H])([H])[H])c([H])c23)C([H])([H])C1([H])[H]


 24 26  0  0  0  0  0  0  0  0999 V2000
    3.0624    2.1104   14.5846 C   0  0  0  0  0  0  0  0  0  0  0  0
    2.8876    1.2231   15.6238 C   0  0  0  0  0  0  0  0  0  0  0  0
    3.3380    1.4574   16.9122 C   0  0  0  0  0  0  0  0  0  0  0  0
    3.1184    0.5257   17.8656 N   0  0  0  0  0  0  0  0  0  0  0  0
    3.5650    0.7793   19.1042 C   0  0  0  0  0  0  0  0  0  0  0  0
    4.2069    1.9255   19.3713 N   0  0  0  0  0  0  0  0  0  0  0  0
    4.4447    2.8861   18.4322 C   0  0  0  0  0  0  0  0  0  0  0  0
    3.9980    2.6555   17.1491 C   0  0  0  0  0  0  0  0  0  0  0  0
    4.1853    3.5606   16.1243 C   0  0  0  0  0  0  0  0  0  0  0  0
    3.7230    3.3002   14.8398 C   0  0  0  0  0  0  0  0  0  0  0  0
    1.2196    1.9933   13.0261 C   0  0  0  0  0  0  0  0  0  0  0  0
    2.6048    1.8574   13.3039 O   0  0  0  0  0  0  0  0  0  0  0  0
    5.1352    4.0668   18.7567 N   0  0  0  0  0  0  0  0  0  0  0  0
    5.6746    4.5876   18.0540 H   0  0  0  0  0  0  0  0  0  0  0  0
    5.1256    4.6124   20.0948 C   0  0  0  0  0  0  0  0  0  0  0  0
    6.2146    5.6523   20.2831 C   0  0  0  0  0  0  0  0  0  0  0  0
    5.9794    6.3386   21.5854 C   0  0  0  0  0  0  0  0  0  0  0  0
    5.1212    5.5808   22.5585 C   0  0  0  0  0  0  0  0  0  0  0  0
    5.7843    4.5062   23.1077 O   0  0  0  0  0  0  0  0  0  0  0  0
    3.7613    5.2260   21.9952 C   0  0  0  0  0  0  0  0  0  0  0  0
    3.8094    5.2559   20.4747 C   0  0  0  0  0  0  0  0  0  0  0  0
    5.2067    3.7535   23.3146 H   0  0  0  0  0  0  0  0  0  0  0  0
    3.9179    4.2180   13.8195 O   0  0  0  0  0  0  0  0  0  0  0  0
    3.2466    5.4589   13.8784 C   0  0  0  0  0  0  0  0  0  0  0  0
 11 12  1  0  0  0
 12  1  1  0  0  0
  1  2  2  0  0  0
  2  3  1  0  0  0
  3  4  2  0  0  0
  4  5  1  0  0  0
  5  6  2  0  0  0
  6  7  1  0  0  0
  7 13  1  0  0  0
 13 15  1  0  0  0
 15 16  1  0  0  0
 16 17  1  0  0  0
 17 18  1  0  0  0
 18 19  1  0  0  0
 18 20  1  0  0  0
 20 21  1  0  0  0
  7  8  2  0  0  0
  8  9  1  0  0  0
  9 10  2  0  0  0
 10 23  1  0  0  0
 23 24  1  0  0  0
 10  1  1  0  0  0
  8  3  1  0  0  0
 21 15  1  0  0  0
 13 14  1  0  0  0
 19 22  1  0  0  0
M  END
> <minimizedAffinity>
-7.06786

> <CNNscore>
0.5194399953

> <CNNaffinity>
5.6316370964

> <CNN_VS>
2.9252974987

> <CNNaffinity_variance>
0.5075407624

$$$$
[H]O[C@]1([H])C([H])([H])C([H])([H])[C@@]([H])(N([H])c2nc([H])nc3c([H])c(OC([H])([H])[H])c(OC([H])([H])[H])c([H])c23)C([H])([H])C1([H])[H]


 24 26  0  0  0  0  0  0  0  0999 V2000
    2.4397    3.1838   13.5894 C   0  0  0  0  0  0  0  0  0  0  0  0
    2.2112    2.0571   14.3484 C   0  0  0  0  0  0  0  0  0  0  0  0
    2.8601    1.7967   15.5438 C   0  0  0  0  0  0  0  0  0  0  0  0
    2.5679    0.6630   16.2177 N   0  0  0  0  0  0  0  0  0  0  0  0
    3.2110    0.4370   17.3724 C   0  0  0  0  0  0  0  0  0  0  0  0
    4.1122    1.3180   17.8294 N   0  0  0  0  0  0  0  0  0  0  0  0
    4.4300    2.4712   17.1737 C   0  0  0  0  0  0  0  0  0  0  0  0
    3.7861    2.7327   15.9837 C   0  0  0  0  0  0  0  0  0  0  0  0
    4.0325    3.8695   15.2409 C   0  0  0  0  0  0  0  0  0  0  0  0
    3.3668    4.1061   14.0440 C   0  0  0  0  0  0  0  0  0  0  0  0
    0.4140    3.8068   12.4288 C   0  0  0  0  0  0  0  0  0  0  0  0
    1.7807    3.4254   12.3973 O   0  0  0  0  0  0  0  0  0  0  0  0
    5.3930    3.3584   17.6854 N   0  0  0  0  0  0  0  0  0  0  0  0
    6.3618    3.3606   17.3428 H   0  0  0  0  0  0  0  0  0  0  0  0
    5.0745    4.3147   18.7211 C   0  0  0  0  0  0  0  0  0  0  0  0
    5.2417    3.7167   20.1057 C   0  0  0  0  0  0  0  0  0  0  0  0
    5.1435    4.8212   21.1021 C   0  0  0  0  0  0  0  0  0  0  0  0
    4.4563    6.0635   20.6097 C   0  0  0  0  0  0  0  0  0  0  0  0
    3.0957    5.8904   20.4885 O   0  0  0  0  0  0  0  0  0  0  0  0
    5.1029    6.6444   19.3700 C   0  0  0  0  0  0  0  0  0  0  0  0
    5.9164    5.5711   18.6617 C   0  0  0  0  0  0  0  0  0  0  0  0
    2.6980    6.4050   19.7672 H   0  0  0  0  0  0  0  0  0  0  0  0
    3.6237    5.2520   13.3077 O   0  0  0  0  0  0  0  0  0  0  0  0
    2.9453    6.4451   13.6401 C   0  0  0  0  0  0  0  0  0  0  0  0
 11 12  1  0  0  0
 12  1  1  0  0  0
  1  2  2  0  0  0
  2  3  1  0  0  0
  3  4  2  0  0  0
  4  5  1  0  0  0
  5  6  2  0  0  0
  6  7  1  0  0  0
  7 13  1  0  0  0
 13 15  1  0  0  0
 15 16  1  0  0  0
 16 17  1  0  0  0
 17 18  1  0  0  0
 18 19  1  0  0  0
 18 20  1  0  0  0
 20 21  1  0  0  0
  7  8  2  0  0  0
  8  9  1  0  0  0
  9 10  2  0  0  0
 10 23  1  0  0  0
 23 24  1  0  0  0
 10  1  1  0  0  0
  8  3  1  0  0  0
 21 15  1  0  0  0
 13 14  1  0  0  0
 19 22  1  0  0  0
M  END
> <minimizedAffinity>
-6.69172

> <CNNscore>
0.4145457745

> <CNNaffinity>
5.3402247429

> <CNN_VS>
2.2137675285

> <CNNaffinity_variance>
0.6187683344

$$$$
[H]O[C@]1([H])C([H])([H])C([H])([H])[C@@]([H])(N([H])c2nc([H])nc3c([H])c(OC([H])([H])[H])c(OC([H])([H])[H])c([H])c23)C([H])([H])C1([H])[H]


 24 26  0  0  0  0  0  0  0  0999 V2000
    4.3036    1.3532   19.6612 C   0  0  0  0  0  0  0  0  0  0  0  0
    3.7597    1.2702   18.3983 C   0  0  0  0  0  0  0  0  0  0  0  0
    3.9454    2.2342   17.4216 C   0  0  0  0  0  0  0  0  0  0  0  0
    3.3706    2.0636   16.2110 N   0  0  0  0  0  0  0  0  0  0  0  0
    3.5678    3.0125   15.2844 C   0  0  0  0  0  0  0  0  0  0  0  0
    4.3140    4.0899   15.5665 N   0  0  0  0  0  0  0  0  0  0  0  0
    4.9077    4.2923   16.7779 C   0  0  0  0  0  0  0  0  0  0  0  0
    4.7242    3.3348   17.7519 C   0  0  0  0  0  0  0  0  0  0  0  0
    5.2802    3.4408   19.0106 C   0  0  0  0  0  0  0  0  0  0  0  0
    5.0776    2.4582   19.9724 C   0  0  0  0  0  0  0  0  0  0  0  0
    2.9058    0.3897   21.3805 C   0  0  0  0  0  0  0  0  0  0  0  0
    4.1060    0.3790   20.6232 O   0  0  0  0  0  0  0  0  0  0  0  0
    5.6701    5.4458   17.0318 N   0  0  0  0  0  0  0  0  0  0  0  0
    6.5106    5.6691   16.4843 H   0  0  0  0  0  0  0  0  0  0  0  0
    5.3153    6.3797   18.0760 C   0  0  0  0  0  0  0  0  0  0  0  0
    6.5401    6.8806   18.8188 C   0  0  0  0  0  0  0  0  0  0  0  0
    6.1204    8.0122   19.6938 C   0  0  0  0  0  0  0  0  0  0  0  0
    4.6519    8.0631   20.0082 C   0  0  0  0  0  0  0  0  0  0  0  0
    4.2771    7.0799   20.8963 O   0  0  0  0  0  0  0  0  0  0  0  0
    3.7839    8.1186   18.7689 C   0  0  0  0  0  0  0  0  0  0  0  0
    4.5604    7.5906   17.5715 C   0  0  0  0  0  0  0  0  0  0  0  0
    3.3732    6.7522   20.7595 H   0  0  0  0  0  0  0  0  0  0  0  0
    5.6419    2.5770   21.2329 O   0  0  0  0  0  0  0  0  0  0  0  0
    5.8557    3.8663   21.7679 C   0  0  0  0  0  0  0  0  0  0  0  0
 11 12  1  0  0  0
 12  1  1  0  0  0
  1  2  2  0  0  0
  2  3  1  0  0  0
  3  4  2  0  0  0
  4  5  1  0  0  0
  5  6  2  0  0  0
  6  7  1  0  0  0
  7 13  1  0  0  0
 13 15  1  0  0  0
 15 16  1  0  0  0
 16 17  1  0  0  0
 17 18  1  0  0  0
 18 19  1  0  0  0
 18 20  1  0  0  0
 20 21  1  0  0  0
  7  8  2  0  0  0
  8  9  1  0  0  0
  9 10  2  0  0  0
 10 23  1  0  0  0
 23 24  1  0  0  0
 10  1  1  0  0  0
  8  3  1  0  0  0
 21 15  1  0  0  0
 13 14  1  0  0  0
 19 22  1  0  0  0
M  END
> <minimizedAffinity>
-7.18638

> <CNNscore>
0.3076368868

> <CNNaffinity>
5.2209682465

> <CNN_VS>
1.6061624289

> <CNNaffinity_variance>
0.2503620088

$$$$
[H]O[C@]1([H])C([H])([H])C([H])([H])[C@@]([H])(N([H])c2nc([H])nc3c([H])c(OC([H])([H])[H])c(OC([H])([H])[H])c([H])c23)C([H])([H])C1([H])[H]


 24 26  0  0  0  0  0  0  0  0999 V2000
    3.9429    1.8683   20.9249 C   0  0  0  0  0  0  0  0  0  0  0  0
    4.0579    1.8908   19.5524 C   0  0  0  0  0  0  0  0  0  0  0  0
    4.6752    2.9151   18.8541 C   0  0  0  0  0  0  0  0  0  0  0  0
    4.7391    2.8475   17.5064 N   0  0  0  0  0  0  0  0  0  0  0  0
    5.3429    3.8530   16.8565 C   0  0  0  0  0  0  0  0  0  0  0  0
    5.8615    4.8848   17.5373 N   0  0  0  0  0  0  0  0  0  0  0  0
    5.8138    4.9835   18.8971 C   0  0  0  0  0  0  0  0  0  0  0  0
    5.1997    3.9658   19.5945 C   0  0  0  0  0  0  0  0  0  0  0  0
    5.0971    3.9660   20.9708 C   0  0  0  0  0  0  0  0  0  0  0  0
    4.4721    2.9248   21.6466 C   0  0  0  0  0  0  0  0  0  0  0  0
    3.5342   -0.5003   21.1726 C   0  0  0  0  0  0  0  0  0  0  0  0
    3.3221    0.8352   21.6038 O   0  0  0  0  0  0  0  0  0  0  0  0
    6.3594    6.0927   19.5665 N   0  0  0  0  0  0  0  0  0  0  0  0
    7.2804    6.0505   20.0202 H   0  0  0  0  0  0  0  0  0  0  0  0
    5.6558    7.3519   19.6546 C   0  0  0  0  0  0  0  0  0  0  0  0
    5.3420    7.7183   21.0934 C   0  0  0  0  0  0  0  0  0  0  0  0
    4.8521    9.1261   21.1165 C   0  0  0  0  0  0  0  0  0  0  0  0
    4.3375    9.6427   19.8026 C   0  0  0  0  0  0  0  0  0  0  0  0
    3.1173    9.0969   19.4725 O   0  0  0  0  0  0  0  0  0  0  0  0
    5.3601    9.5499   18.6899 C   0  0  0  0  0  0  0  0  0  0  0  0
    6.4138    8.5106   19.0434 C   0  0  0  0  0  0  0  0  0  0  0  0
    2.9828    8.9868   18.5171 H   0  0  0  0  0  0  0  0  0  0  0  0
    4.3758    2.9375   23.0293 O   0  0  0  0  0  0  0  0  0  0  0  0
    3.6029    3.9421   23.6519 C   0  0  0  0  0  0  0  0  0  0  0  0
 11 12  1  0  0  0
 12  1  1  0  0  0
  1  2  2  0  0  0
  2  3  1  0  0  0
  3  4  2  0  0  0
  4  5  1  0  0  0
  5  6  2  0  0  0
  6  7  1  0  0  0
  7 13  1  0  0  0
 13 15  1  0  0  0
 15 16  1  0  0  0
 16 17  1  0  0  0
 17 18  1  0  0  0
 18 19  1  0  0  0
 18 20  1  0  0  0
 20 21  1  0  0  0
  7  8  2  0  0  0
  8  9  1  0  0  0
  9 10  2  0  0  0
 10 23  1  0  0  0
 23 24  1  0  0  0
 10  1  1  0  0  0
  8  3  1  0  0  0
 21 15  1  0  0  0
 13 14  1  0  0  0
 19 22  1  0  0  0
M  END
> <minimizedAffinity>
-7.53368

> <CNNscore>
0.2827137411

> <CNNaffinity>
5.3241248131

> <CNN_VS>
1.5052032471

> <CNNaffinity_variance>
0.2021306306

$$$$
[H]O[C@]1([H])C([H])([H])C([H])([H])[C@@]([H])(N([H])c2nc([H])nc3c([H])c(OC([H])([H])[H])c(OC([H])([H])[H])c([H])c23)C([H])([H])C1([H])[H]


 24 26  0  0  0  0  0  0  0  0999 V2000
    4.0183    2.7161   17.9583 C   0  0  0  0  0  0  0  0  0  0  0  0
    3.5542    1.8986   16.9513 C   0  0  0  0  0  0  0  0  0  0  0  0
    2.8750    2.3670   15.8390 C   0  0  0  0  0  0  0  0  0  0  0  0
    2.4587    1.4863   14.9031 N   0  0  0  0  0  0  0  0  0  0  0  0
    1.8041    1.9679   13.8366 C   0  0  0  0  0  0  0  0  0  0  0  0
    1.5781    3.2840   13.7181 N   0  0  0  0  0  0  0  0  0  0  0  0
    1.9847    4.1992   14.6444 C   0  0  0  0  0  0  0  0  0  0  0  0
    2.6605    3.7359   15.7525 C   0  0  0  0  0  0  0  0  0  0  0  0
    3.1160    4.5755   16.7486 C   0  0  0  0  0  0  0  0  0  0  0  0
    3.7951    4.0786   17.8547 C   0  0  0  0  0  0  0  0  0  0  0  0
    4.1222    1.1663   19.8091 C   0  0  0  0  0  0  0  0  0  0  0  0
    4.6949    2.2282   19.0618 O   0  0  0  0  0  0  0  0  0  0  0  0
    1.7120    5.5689   14.4837 N   0  0  0  0  0  0  0  0  0  0  0  0
    1.3196    6.1347   15.2464 H   0  0  0  0  0  0  0  0  0  0  0  0
    1.9671    6.2560   13.2382 C   0  0  0  0  0  0  0  0  0  0  0  0
    1.4663    7.6879   13.2762 C   0  0  0  0  0  0  0  0  0  0  0  0
    1.9862    8.3925   12.0697 C   0  0  0  0  0  0  0  0  0  0  0  0
    2.4086    7.4950   10.9410 C   0  0  0  0  0  0  0  0  0  0  0  0
    1.3310    6.9314   10.2951 O   0  0  0  0  0  0  0  0  0  0  0  0
    3.4610    6.4864   11.3502 C   0  0  0  0  0  0  0  0  0  0  0  0
    3.4320    6.2946   12.8594 C   0  0  0  0  0  0  0  0  0  0  0  0
    1.5056    6.0431    9.9438 H   0  0  0  0  0  0  0  0  0  0  0  0
    4.2472    4.9330   18.8482 O   0  0  0  0  0  0  0  0  0  0  0  0
    3.3034    5.5793   19.6762 C   0  0  0  0  0  0  0  0  0  0  0  0
 11 12  1  0  0  0
 12  1  1  0  0  0
  1  2  2  0  0  0
  2  3  1  0  0  0
  3  4  2  0  0  0
  4  5  1  0  0  0
  5  6  2  0  0  0
  6  7  1  0  0  0
  7 13  1  0  0  0
 13 15  1  0  0  0
 15 16  1  0  0  0
 16 17  1  0  0  0
 17 18  1  0  0  0
 18 19  1  0  0  0
 18 20  1  0  0  0
 20 21  1  0  0  0
  7  8  2  0  0  0
  8  9  1  0  0  0
  9 10  2  0  0  0
 10 23  1  0  0  0
 23 24  1  0  0  0
 10  1  1  0  0  0
  8  3  1  0  0  0
 21 15  1  0  0  0
 13 14  1  0  0  0
 19 22  1  0  0  0
M  END
> <minimizedAffinity>
-5.43988

> <CNNscore>
0.2761110067

> <CNNaffinity>
5.0053186417

> <CNN_VS>
1.3820235729

> <CNNaffinity_variance>
0.4581662714

$$$$
[H]O[C@]1([H])C([H])([H])C([H])([H])[C@@]([H])(n2c([H])c(-c3c([H])nn([H])c3[H])c3c([H])nc(N([H])C([H])([H])C([H])([H])C([H])([H])C([H])([H])[H])nc32)C([H])([H])C1([H])[H]


 29 32  0  0  0  0  0  0  0  0999 V2000
    3.9595    1.5233   18.5561 C   0  0  0  0  0  0  0  0  0  0  0  0
    3.4370    0.6828   17.6429 N   0  0  0  0  0  0  0  0  0  0  0  0
    3.0484    1.0730   16.4220 C   0  0  0  0  0  0  0  0  0  0  0  0
    3.1967    2.4150   16.0925 C   0  0  0  0  0  0  0  0  0  0  0  0
    2.9178    3.1602   14.9680 C   0  0  0  0  0  0  0  0  0  0  0  0
    3.2952    4.4503   15.2632 C   0  0  0  0  0  0  0  0  0  0  0  0
    3.7904    4.5381   16.5066 N   0  0  0  0  0  0  0  0  0  0  0  0
    3.7329    3.2958   17.0198 C   0  0  0  0  0  0  0  0  0  0  0  0
    4.1004    2.8205   18.2309 N   0  0  0  0  0  0  0  0  0  0  0  0
    4.2853    5.7391   17.1554 C   0  0  0  0  0  0  0  0  0  0  0  0
    4.4032    6.8981   16.2039 C   0  0  0  0  0  0  0  0  0  0  0  0
    5.2804    7.9356   16.8496 C   0  0  0  0  0  0  0  0  0  0  0  0
    5.2196    7.9290   18.3440 C   0  0  0  0  0  0  0  0  0  0  0  0
    6.3546    7.3010   18.9090 O   0  0  0  0  0  0  0  0  0  0  0  0
    3.9499    7.4116   18.9149 C   0  0  0  0  0  0  0  0  0  0  0  0
    3.4343    6.1578   18.3111 C   0  0  0  0  0  0  0  0  0  0  0  0
    7.0203    7.0925   18.1867 H   0  0  0  0  0  0  0  0  0  0  0  0
    2.3378    2.5918   13.7599 C   0  0  0  0  0  0  0  0  0  0  0  0
    3.0257    2.4002   12.5743 C   0  0  0  0  0  0  0  0  0  0  0  0
    2.1935    1.8629   11.6823 N   0  0  0  0  0  0  0  0  0  0  0  0
    1.0327    1.7147   12.2568 N   0  0  0  0  0  0  0  0  0  0  0  0
    1.0562    2.1434   13.5326 C   0  0  0  0  0  0  0  0  0  0  0  0
    0.1940    1.3030   11.7505 H   0  0  0  0  0  0  0  0  0  0  0  0
    4.3497    1.0224   19.8401 N   0  0  0  0  0  0  0  0  0  0  0  0
    3.8132    0.2084   20.2144 H   0  0  0  0  0  0  0  0  0  0  0  0
    5.4332    1.6560   20.5233 C   0  0  0  0  0  0  0  0  0  0  0  0
    5.3712    1.4765   22.0203 C   0  0  0  0  0  0  0  0  0  0  0  0
    6.0315    3.8106   21.8565 C   0  0  0  0  0  0  0  0  0  0  0  0
    5.9621    2.6177   22.7840 C   0  0  0  0  0  0  0  0  0  0  0  0
 28 29  1  0  0  0
 29 27  1  0  0  0
 27 26  1  0  0  0
 26 24  1  0  0  0
 24  1  1  0  0  0
  1  2  2  0  0  0
  2  3  1  0  0  0
  3  4  2  0  0  0
  4  5  1  0  0  0
  5  6  2  0  0  0
  6  7  1  0  0  0
  7 10  1  0  0  0
 10 11  1  0  0  0
 11 12  1  0  0  0
 12 13  1  0  0  0
 13 14  1  0  0  0
 13 15  1  0  0  0
 15 16  1  0  0  0
  7  8  1  0  0  0
  8  9  2  0  0  0
  5 18  1  0  0  0
 18 19  1  0  0  0
 19 20  2  0  0  0
 20 21  1  0  0  0
 21 22  1  0  0  0
  9  1  1  0  0  0
 22 18  2  0  0  0
  8  4  1  0  0  0
 16 10  1  0  0  0
 24 25  1  0  0  0
 14 17  1  0  0  0
 21 23  1  0  0  0
M  END
> <minimizedAffinity>
-6.77326

> <CNNscore>
0.5089211464

> <CNNaffinity>
6.5522432327

> <CNN_VS>
3.3345751762

> <CNNaffinity_variance>
0.3870053291

$$$$
[H]O[C@]1([H])C([H])([H])C([H])([H])[C@@]([H])(n2c([H])c(-c3c([H])nn([H])c3[H])c3c([H])nc(N([H])C([H])([H])C([H])([H])C([H])([H])C([H])([H])[H])nc32)C([H])([H])C1([H])[H]


 29 32  0  0  0  0  0  0  0  0999 V2000
    3.6388    1.9217   17.4278 C   0  0  0  0  0  0  0  0  0  0  0  0
    3.7749    1.0984   18.4847 N   0  0  0  0  0  0  0  0  0  0  0  0
    4.1349    1.5205   19.7038 C   0  0  0  0  0  0  0  0  0  0  0  0
    4.3772    2.8783   19.8744 C   0  0  0  0  0  0  0  0  0  0  0  0
    4.7540    3.6552   20.9478 C   0  0  0  0  0  0  0  0  0  0  0  0
    4.8295    4.9456   20.4756 C   0  0  0  0  0  0  0  0  0  0  0  0
    4.5200    5.0038   19.1719 N   0  0  0  0  0  0  0  0  0  0  0  0
    4.2421    3.7418   18.7976 C   0  0  0  0  0  0  0  0  0  0  0  0
    3.8747    3.2343   17.5997 N   0  0  0  0  0  0  0  0  0  0  0  0
    4.4941    6.1961   18.3437 C   0  0  0  0  0  0  0  0  0  0  0  0
    4.3245    7.4529   19.1524 C   0  0  0  0  0  0  0  0  0  0  0  0
    3.9090    8.5517   18.2127 C   0  0  0  0  0  0  0  0  0  0  0  0
    4.4189    8.3750   16.8179 C   0  0  0  0  0  0  0  0  0  0  0  0
    3.4087    7.8964   15.9504 O   0  0  0  0  0  0  0  0  0  0  0  0
    5.6731    7.5874   16.7067 C   0  0  0  0  0  0  0  0  0  0  0  0
    5.7215    6.3350   17.5014 C   0  0  0  0  0  0  0  0  0  0  0  0
    2.5274    7.8849   16.4316 H   0  0  0  0  0  0  0  0  0  0  0  0
    4.9980    3.1128   22.2765 C   0  0  0  0  0  0  0  0  0  0  0  0
    4.0138    2.8759   23.2202 C   0  0  0  0  0  0  0  0  0  0  0  0
    4.5871    2.3806   24.3169 N   0  0  0  0  0  0  0  0  0  0  0  0
    5.8696    2.3009   24.0966 N   0  0  0  0  0  0  0  0  0  0  0  0
    6.1852    2.7353   22.8622 C   0  0  0  0  0  0  0  0  0  0  0  0
    6.5517    1.9336   24.8240 H   0  0  0  0  0  0  0  0  0  0  0  0
    3.2497    1.3867   16.1573 N   0  0  0  0  0  0  0  0  0  0  0  0
    2.9997    0.3732   16.1262 H   0  0  0  0  0  0  0  0  0  0  0  0
    3.2268    2.2573   15.0244 C   0  0  0  0  0  0  0  0  0  0  0  0
    2.1401    1.9101   14.0365 C   0  0  0  0  0  0  0  0  0  0  0  0
    3.2100    3.5004   12.5407 C   0  0  0  0  0  0  0  0  0  0  0  0
    2.5267    2.1528   12.6130 C   0  0  0  0  0  0  0  0  0  0  0  0
 28 29  1  0  0  0
 29 27  1  0  0  0
 27 26  1  0  0  0
 26 24  1  0  0  0
 24  1  1  0  0  0
  1  2  2  0  0  0
  2  3  1  0  0  0
  3  4  2  0  0  0
  4  5  1  0  0  0
  5  6  2  0  0  0
  6  7  1  0  0  0
  7 10  1  0  0  0
 10 11  1  0  0  0
 11 12  1  0  0  0
 12 13  1  0  0  0
 13 14  1  0  0  0
 13 15  1  0  0  0
 15 16  1  0  0  0
  7  8  1  0  0  0
  8  9  2  0  0  0
  5 18  1  0  0  0
 18 19  1  0  0  0
 19 20  2  0  0  0
 20 21  1  0  0  0
 21 22  1  0  0  0
  9  1  1  0  0  0
 22 18  2  0  0  0
  8  4  1  0  0  0
 16 10  1  0  0  0
 24 25  1  0  0  0
 14 17  1  0  0  0
 21 23  1  0  0  0
M  END
> <minimizedAffinity>
-7.61651

> <CNNscore>
0.4951073527

> <CNNaffinity>
6.7161073685

> <CNN_VS>
3.3251941204

> <CNNaffinity_variance>
0.2754012346

$$$$
[H]O[C@]1([H])C([H])([H])C([H])([H])[C@@]([H])(n2c([H])c(-c3c([H])nn([H])c3[H])c3c([H])nc(N([H])C([H])([H])C([H])([H])C([H])([H])C([H])([H])[H])nc32)C([H])([H])C1([H])[H]


 29 32  0  0  0  0  0  0  0  0999 V2000
    4.1785    4.0752   15.9368 C   0  0  0  0  0  0  0  0  0  0  0  0
    3.9508    2.7505   16.0175 N   0  0  0  0  0  0  0  0  0  0  0  0
    3.8898    2.0844   17.1779 C   0  0  0  0  0  0  0  0  0  0  0  0
    4.0722    2.8073   18.3507 C   0  0  0  0  0  0  0  0  0  0  0  0
    4.0781    2.4754   19.6877 C   0  0  0  0  0  0  0  0  0  0  0  0
    4.3155    3.6470   20.3695 C   0  0  0  0  0  0  0  0  0  0  0  0
    4.4556    4.6796   19.5251 N   0  0  0  0  0  0  0  0  0  0  0  0
    4.3078    4.1725   18.2877 C   0  0  0  0  0  0  0  0  0  0  0  0
    4.3541    4.7688   17.0753 N   0  0  0  0  0  0  0  0  0  0  0  0
    4.7144    6.0615   19.8875 C   0  0  0  0  0  0  0  0  0  0  0  0
    5.1127    6.2114   21.3302 C   0  0  0  0  0  0  0  0  0  0  0  0
    4.9614    7.6615   21.7007 C   0  0  0  0  0  0  0  0  0  0  0  0
    5.1599    8.5994   20.5527 C   0  0  0  0  0  0  0  0  0  0  0  0
    3.9268    9.0860   20.0581 O   0  0  0  0  0  0  0  0  0  0  0  0
    6.0345    8.0834   19.4690 C   0  0  0  0  0  0  0  0  0  0  0  0
    5.7707    6.6888   19.0354 C   0  0  0  0  0  0  0  0  0  0  0  0
    3.1798    8.7866   20.6587 H   0  0  0  0  0  0  0  0  0  0  0  0
    3.8643    1.1195   20.1724 C   0  0  0  0  0  0  0  0  0  0  0  0
    4.6341    0.5027   21.1431 C   0  0  0  0  0  0  0  0  0  0  0  0
    4.1615   -0.7278   21.3418 N   0  0  0  0  0  0  0  0  0  0  0  0
    3.1435   -0.8986   20.5454 N   0  0  0  0  0  0  0  0  0  0  0  0
    2.9103    0.1988   19.8017 C   0  0  0  0  0  0  0  0  0  0  0  0
    2.5897   -1.8051   20.5140 H   0  0  0  0  0  0  0  0  0  0  0  0
    4.2281    4.7097   14.6535 N   0  0  0  0  0  0  0  0  0  0  0  0
    4.9828    4.4011   14.0010 H   0  0  0  0  0  0  0  0  0  0  0  0
    3.2573    5.7122   14.3460 C   0  0  0  0  0  0  0  0  0  0  0  0
    3.8538    7.0933   14.2276 C   0  0  0  0  0  0  0  0  0  0  0  0
    1.8335    7.8940   13.1375 C   0  0  0  0  0  0  0  0  0  0  0  0
    2.8347    8.1869   14.2329 C   0  0  0  0  0  0  0  0  0  0  0  0
 28 29  1  0  0  0
 29 27  1  0  0  0
 27 26  1  0  0  0
 26 24  1  0  0  0
 24  1  1  0  0  0
  1  2  2  0  0  0
  2  3  1  0  0  0
  3  4  2  0  0  0
  4  5  1  0  0  0
  5  6  2  0  0  0
  6  7  1  0  0  0
  7 10  1  0  0  0
 10 11  1  0  0  0
 11 12  1  0  0  0
 12 13  1  0  0  0
 13 14  1  0  0  0
 13 15  1  0  0  0
 15 16  1  0  0  0
  7  8  1  0  0  0
  8  9  2  0  0  0
  5 18  1  0  0  0
 18 19  1  0  0  0
 19 20  2  0  0  0
 20 21  1  0  0  0
 21 22  1  0  0  0
  9  1  1  0  0  0
 22 18  2  0  0  0
  8  4  1  0  0  0
 16 10  1  0  0  0
 24 25  1  0  0  0
 14 17  1  0  0  0
 21 23  1  0  0  0
M  END
> <minimizedAffinity>
-7.15245

> <CNNscore>
0.4097112715

> <CNNaffinity>
6.2782964706

> <CNN_VS>
2.5722887516

> <CNNaffinity_variance>
0.6461911201

$$$$
[H]O[C@]1([H])C([H])([H])C([H])([H])[C@@]([H])(n2c([H])c(-c3c([H])nn([H])c3[H])c3c([H])nc(N([H])C([H])([H])C([H])([H])C([H])([H])C([H])([H])[H])nc32)C([H])([H])C1([H])[H]


 29 32  0  0  0  0  0  0  0  0999 V2000
    4.1394    1.4839   20.0283 C   0  0  0  0  0  0  0  0  0  0  0  0
    3.6557    0.7480   19.0096 N   0  0  0  0  0  0  0  0  0  0  0  0
    3.4497    1.2393   17.7807 C   0  0  0  0  0  0  0  0  0  0  0  0
    3.7542    2.5769   17.5578 C   0  0  0  0  0  0  0  0  0  0  0  0
    3.6768    3.4053   16.4599 C   0  0  0  0  0  0  0  0  0  0  0  0
    4.1297    4.6355   16.8789 C   0  0  0  0  0  0  0  0  0  0  0  0
    4.4807    4.6079   18.1731 N   0  0  0  0  0  0  0  0  0  0  0  0
    4.2533    3.3507   18.5948 C   0  0  0  0  0  0  0  0  0  0  0  0
    4.4320    2.7774   19.8060 N   0  0  0  0  0  0  0  0  0  0  0  0
    5.0002    5.7191   18.9500 C   0  0  0  0  0  0  0  0  0  0  0  0
    3.9145    6.6484   19.4189 C   0  0  0  0  0  0  0  0  0  0  0  0
    4.5641    7.9373   19.8431 C   0  0  0  0  0  0  0  0  0  0  0  0
    5.9613    7.7685   20.3491 C   0  0  0  0  0  0  0  0  0  0  0  0
    6.9168    8.1560   19.3802 O   0  0  0  0  0  0  0  0  0  0  0  0
    6.2588    6.4335   20.9276 C   0  0  0  0  0  0  0  0  0  0  0  0
    5.7863    5.2684   20.1392 C   0  0  0  0  0  0  0  0  0  0  0  0
    6.4513    8.5727   18.5940 H   0  0  0  0  0  0  0  0  0  0  0  0
    3.1951    2.9614   15.1600 C   0  0  0  0  0  0  0  0  0  0  0  0
    2.1563    2.0664   14.9719 C   0  0  0  0  0  0  0  0  0  0  0  0
    1.9826    1.8861   13.6626 N   0  0  0  0  0  0  0  0  0  0  0  0
    2.8586    2.6222   13.0379 N   0  0  0  0  0  0  0  0  0  0  0  0
    3.6325    3.3063   13.9011 C   0  0  0  0  0  0  0  0  0  0  0  0
    2.9250    2.6539   11.9777 H   0  0  0  0  0  0  0  0  0  0  0  0
    4.3297    0.8790   21.3127 N   0  0  0  0  0  0  0  0  0  0  0  0
    5.0229    0.1002   21.3719 H   0  0  0  0  0  0  0  0  0  0  0  0
    3.5716    1.3686   22.4206 C   0  0  0  0  0  0  0  0  0  0  0  0
    4.4366    1.8867   23.5434 C   0  0  0  0  0  0  0  0  0  0  0  0
    3.6448    4.1649   23.2371 C   0  0  0  0  0  0  0  0  0  0  0  0
    4.8812    3.3010   23.3515 C   0  0  0  0  0  0  0  0  0  0  0  0
 28 29  1  0  0  0
 29 27  1  0  0  0
 27 26  1  0  0  0
 26 24  1  0  0  0
 24  1  1  0  0  0
  1  2  2  0  0  0
  2  3  1  0  0  0
  3  4  2  0  0  0
  4  5  1  0  0  0
  5  6  2  0  0  0
  6  7  1  0  0  0
  7 10  1  0  0  0
 10 11  1  0  0  0
 11 12  1  0  0  0
 12 13  1  0  0  0
 13 14  1  0  0  0
 13 15  1  0  0  0
 15 16  1  0  0  0
  7  8  1  0  0  0
  8  9  2  0  0  0
  5 18  1  0  0  0
 18 19  1  0  0  0
 19 20  2  0  0  0
 20 21  1  0  0  0
 21 22  1  0  0  0
  9  1  1  0  0  0
 22 18  2  0  0  0
  8  4  1  0  0  0
 16 10  1  0  0  0
 24 25  1  0  0  0
 14 17  1  0  0  0
 21 23  1  0  0  0
M  END
> <minimizedAffinity>
-7.43886

> <CNNscore>
0.3808834553

> <CNNaffinity>
6.5872545242

> <CNN_VS>
2.5089762211

> <CNNaffinity_variance>
0.4311409593

$$$$
[H]O[C@]1([H])C([H])([H])C([H])([H])[C@@]([H])(n2c([H])c(-c3c([H])nn([H])c3[H])c3c([H])nc(N([H])C([H])([H])C([H])([H])C([H])([H])C([H])([H])[H])nc32)C([H])([H])C1([H])[H]


 29 32  0  0  0  0  0  0  0  0999 V2000
    3.1937    6.3898   14.5400 C   0  0  0  0  0  0  0  0  0  0  0  0
    3.5429    6.1307   15.8145 N   0  0  0  0  0  0  0  0  0  0  0  0
    3.5648    4.8966   16.3345 C   0  0  0  0  0  0  0  0  0  0  0  0
    3.2073    3.8383   15.5076 C   0  0  0  0  0  0  0  0  0  0  0  0
    3.1142    2.4754   15.6848 C   0  0  0  0  0  0  0  0  0  0  0  0
    2.7020    1.9619   14.4763 C   0  0  0  0  0  0  0  0  0  0  0  0
    2.5370    2.9342   13.5673 N   0  0  0  0  0  0  0  0  0  0  0  0
    2.8447    4.0854   14.1921 C   0  0  0  0  0  0  0  0  0  0  0  0
    2.8489    5.3613   13.7453 N   0  0  0  0  0  0  0  0  0  0  0  0
    2.1115    2.7642   12.1896 C   0  0  0  0  0  0  0  0  0  0  0  0
    3.2595    2.8417   11.2208 C   0  0  0  0  0  0  0  0  0  0  0  0
    2.6877    3.0608    9.8468 C   0  0  0  0  0  0  0  0  0  0  0  0
    1.3216    2.4801    9.6644 C   0  0  0  0  0  0  0  0  0  0  0  0
    0.3193    3.4770    9.7245 O   0  0  0  0  0  0  0  0  0  0  0  0
    1.0135    1.3215   10.5408 C   0  0  0  0  0  0  0  0  0  0  0  0
    1.3894    1.4739   11.9683 C   0  0  0  0  0  0  0  0  0  0  0  0
    0.7471    4.3847    9.7631 H   0  0  0  0  0  0  0  0  0  0  0  0
    3.4164    1.8139   16.9458 C   0  0  0  0  0  0  0  0  0  0  0  0
    2.7315    0.7180   17.4409 C   0  0  0  0  0  0  0  0  0  0  0  0
    3.2699    0.3733   18.6105 N   0  0  0  0  0  0  0  0  0  0  0  0
    4.2480    1.1986   18.8593 N   0  0  0  0  0  0  0  0  0  0  0  0
    4.3887    2.1064   17.8755 C   0  0  0  0  0  0  0  0  0  0  0  0
    4.8398    1.1331   19.7396 H   0  0  0  0  0  0  0  0  0  0  0  0
    3.1972    7.7408   14.0640 N   0  0  0  0  0  0  0  0  0  0  0  0
    3.0445    8.4932   14.7719 H   0  0  0  0  0  0  0  0  0  0  0  0
    3.4060    7.9764   12.6702 C   0  0  0  0  0  0  0  0  0  0  0  0
    2.1375    8.3386   11.9373 C   0  0  0  0  0  0  0  0  0  0  0  0
    1.5565    6.5133   10.4401 C   0  0  0  0  0  0  0  0  0  0  0  0
    2.1318    7.9108   10.5050 C   0  0  0  0  0  0  0  0  0  0  0  0
 28 29  1  0  0  0
 29 27  1  0  0  0
 27 26  1  0  0  0
 26 24  1  0  0  0
 24  1  1  0  0  0
  1  2  2  0  0  0
  2  3  1  0  0  0
  3  4  2  0  0  0
  4  5  1  0  0  0
  5  6  2  0  0  0
  6  7  1  0  0  0
  7 10  1  0  0  0
 10 11  1  0  0  0
 11 12  1  0  0  0
 12 13  1  0  0  0
 13 14  1  0  0  0
 13 15  1  0  0  0
 15 16  1  0  0  0
  7  8  1  0  0  0
  8  9  2  0  0  0
  5 18  1  0  0  0
 18 19  1  0  0  0
 19 20  2  0  0  0
 20 21  1  0  0  0
 21 22  1  0  0  0
  9  1  1  0  0  0
 22 18  2  0  0  0
  8  4  1  0  0  0
 16 10  1  0  0  0
 24 25  1  0  0  0
 14 17  1  0  0  0
 21 23  1  0  0  0
M  END
> <minimizedAffinity>
-5.29568

> <CNNscore>
0.3145658374

> <CNNaffinity>
6.0186071396

> <CNN_VS>
1.8932482004

> <CNNaffinity_variance>
0.4770329595

$$$$
[H]O[C@]1([H])C([H])([H])C([H])([H])[C@@]([H])(n2c([H])c(-c3c([H])nn([H])c3[H])c3c([H])nc(N([H])C([H])([H])C([H])([H])C([H])([H])C([H])([H])[H])nc32)C([H])([H])C1([H])[H]


 29 32  0  0  0  0  0  0  0  0999 V2000
    3.8962    6.6872   19.0272 C   0  0  0  0  0  0  0  0  0  0  0  0
    4.2862    6.7513   20.3145 N   0  0  0  0  0  0  0  0  0  0  0  0
    4.5206    5.6681   21.0666 C   0  0  0  0  0  0  0  0  0  0  0  0
    4.3494    4.4208   20.4780 C   0  0  0  0  0  0  0  0  0  0  0  0
    4.4921    3.1252   20.9237 C   0  0  0  0  0  0  0  0  0  0  0  0
    4.1729    2.3181   19.8556 C   0  0  0  0  0  0  0  0  0  0  0  0
    3.8423    3.0466   18.7792 N   0  0  0  0  0  0  0  0  0  0  0  0
    3.9482    4.3346   19.1533 C   0  0  0  0  0  0  0  0  0  0  0  0
    3.7324    5.4772   18.4637 N   0  0  0  0  0  0  0  0  0  0  0  0
    3.4507    2.5348   17.4781 C   0  0  0  0  0  0  0  0  0  0  0  0
    4.4071    2.9407   16.3904 C   0  0  0  0  0  0  0  0  0  0  0  0
    3.7211    2.7217   15.0696 C   0  0  0  0  0  0  0  0  0  0  0  0
    2.7125    1.6176   15.0916 C   0  0  0  0  0  0  0  0  0  0  0  0
    1.3914    2.1198   15.1578 O   0  0  0  0  0  0  0  0  0  0  0  0
    2.9632    0.5631   16.1068 C   0  0  0  0  0  0  0  0  0  0  0  0
    3.3197    1.0455   17.4642 C   0  0  0  0  0  0  0  0  0  0  0  0
    1.4042    3.1191   15.0602 H   0  0  0  0  0  0  0  0  0  0  0  0
    4.9050    2.7904   22.2788 C   0  0  0  0  0  0  0  0  0  0  0  0
    4.0367    2.4601   23.3047 C   0  0  0  0  0  0  0  0  0  0  0  0
    4.7507    2.2135   24.4029 N   0  0  0  0  0  0  0  0  0  0  0  0
    6.0098    2.3748   24.1059 N   0  0  0  0  0  0  0  0  0  0  0  0
    6.1705    2.7291   22.8173 C   0  0  0  0  0  0  0  0  0  0  0  0
    6.7863    2.2353   24.8179 H   0  0  0  0  0  0  0  0  0  0  0  0
    3.6669    7.8963   18.2943 N   0  0  0  0  0  0  0  0  0  0  0  0
    2.6967    8.0623   17.9453 H   0  0  0  0  0  0  0  0  0  0  0  0
    4.7618    8.7906   18.0865 C   0  0  0  0  0  0  0  0  0  0  0  0
    5.9183    8.1476   17.3609 C   0  0  0  0  0  0  0  0  0  0  0  0
    7.5747    7.0551   18.7658 C   0  0  0  0  0  0  0  0  0  0  0  0
    7.2339    8.3401   18.0442 C   0  0  0  0  0  0  0  0  0  0  0  0
 28 29  1  0  0  0
 29 27  1  0  0  0
 27 26  1  0  0  0
 26 24  1  0  0  0
 24  1  1  0  0  0
  1  2  2  0  0  0
  2  3  1  0  0  0
  3  4  2  0  0  0
  4  5  1  0  0  0
  5  6  2  0  0  0
  6  7  1  0  0  0
  7 10  1  0  0  0
 10 11  1  0  0  0
 11 12  1  0  0  0
 12 13  1  0  0  0
 13 14  1  0  0  0
 13 15  1  0  0  0
 15 16  1  0  0  0
  7  8  1  0  0  0
  8  9  2  0  0  0
  5 18  1  0  0  0
 18 19  1  0  0  0
 19 20  2  0  0  0
 20 21  1  0  0  0
 21 22  1  0  0  0
  9  1  1  0  0  0
 22 18  2  0  0  0
  8  4  1  0  0  0
 16 10  1  0  0  0
 24 25  1  0  0  0
 14 17  1  0  0  0
 21 23  1  0  0  0
M  END
> <minimizedAffinity>
-7.72383

> <CNNscore>
0.2775285542

> <CNNaffinity>
6.4041199684

> <CNN_VS>
1.7773261070

> <CNNaffinity_variance>
0.2225331962

$$$$
[H]O[C@]1([H])C([H])([H])C([H])([H])[C@@]([H])(n2c([H])c(-c3c([H])nn([H])c3[H])c3c([H])nc(N([H])C([H])([H])C([H])([H])C([H])([H])C([H])([H])[H])nc32)C([H])([H])C1([H])[H]


 29 32  0  0  0  0  0  0  0  0999 V2000
    4.0452    7.5537   19.0095 C   0  0  0  0  0  0  0  0  0  0  0  0
    4.3870    7.5049   20.3111 N   0  0  0  0  0  0  0  0  0  0  0  0
    4.5711    6.3595   20.9805 C   0  0  0  0  0  0  0  0  0  0  0  0
    4.3980    5.1680   20.2863 C   0  0  0  0  0  0  0  0  0  0  0  0
    4.4980    3.8377   20.6299 C   0  0  0  0  0  0  0  0  0  0  0  0
    4.2040    3.1269   19.4887 C   0  0  0  0  0  0  0  0  0  0  0  0
    3.9291    3.9472   18.4639 N   0  0  0  0  0  0  0  0  0  0  0  0
    4.0460    5.1981   18.9453 C   0  0  0  0  0  0  0  0  0  0  0  0
    3.8792    6.3973   18.3438 N   0  0  0  0  0  0  0  0  0  0  0  0
    3.5775    3.5511   17.1120 C   0  0  0  0  0  0  0  0  0  0  0  0
    2.2171    4.0467   16.7044 C   0  0  0  0  0  0  0  0  0  0  0  0
    1.7877    3.2666   15.4919 C   0  0  0  0  0  0  0  0  0  0  0  0
    2.9271    2.7979   14.6440 C   0  0  0  0  0  0  0  0  0  0  0  0
    3.1974    1.4240   14.8474 O   0  0  0  0  0  0  0  0  0  0  0  0
    4.1541    3.6299   14.7315 C   0  0  0  0  0  0  0  0  0  0  0  0
    4.5754    4.0168   16.1009 C   0  0  0  0  0  0  0  0  0  0  0  0
    2.4898    1.0239   15.4369 H   0  0  0  0  0  0  0  0  0  0  0  0
    4.8523    3.3854   21.9674 C   0  0  0  0  0  0  0  0  0  0  0  0
    3.9435    3.1668   22.9881 C   0  0  0  0  0  0  0  0  0  0  0  0
    4.6087    2.7605   24.0694 N   0  0  0  0  0  0  0  0  0  0  0  0
    5.8761    2.7180   23.7668 N   0  0  0  0  0  0  0  0  0  0  0  0
    6.0907    3.0902   22.4911 C   0  0  0  0  0  0  0  0  0  0  0  0
    6.6199    2.4217   24.4656 H   0  0  0  0  0  0  0  0  0  0  0  0
    3.8679    8.8229   18.3697 N   0  0  0  0  0  0  0  0  0  0  0  0
    3.1549    9.4656   18.7809 H   0  0  0  0  0  0  0  0  0  0  0  0
    4.6643    9.1307   17.2238 C   0  0  0  0  0  0  0  0  0  0  0  0
    3.8643    9.1753   15.9450 C   0  0  0  0  0  0  0  0  0  0  0  0
    4.4834    8.2278   13.7933 C   0  0  0  0  0  0  0  0  0  0  0  0
    3.9212    7.9045   15.1599 C   0  0  0  0  0  0  0  0  0  0  0  0
 28 29  1  0  0  0
 29 27  1  0  0  0
 27 26  1  0  0  0
 26 24  1  0  0  0
 24  1  1  0  0  0
  1  2  2  0  0  0
  2  3  1  0  0  0
  3  4  2  0  0  0
  4  5  1  0  0  0
  5  6  2  0  0  0
  6  7  1  0  0  0
  7 10  1  0  0  0
 10 11  1  0  0  0
 11 12  1  0  0  0
 12 13  1  0  0  0
 13 14  1  0  0  0
 13 15  1  0  0  0
 15 16  1  0  0  0
  7  8  1  0  0  0
  8  9  2  0  0  0
  5 18  1  0  0  0
 18 19  1  0  0  0
 19 20  2  0  0  0
 20 21  1  0  0  0
 21 22  1  0  0  0
  9  1  1  0  0  0
 22 18  2  0  0  0
  8  4  1  0  0  0
 16 10  1  0  0  0
 24 25  1  0  0  0
 14 17  1  0  0  0
 21 23  1  0  0  0
M  END
> <minimizedAffinity>
-6.53117

> <CNNscore>
0.2615942061

> <CNNaffinity>
5.9356503487

> <CNN_VS>
1.5527317524

> <CNNaffinity_variance>
0.4974159598

$$$$
[H]O[C@]1([H])C([H])([H])C([H])([H])[C@@]([H])(n2c([H])c(-c3c([H])nn([H])c3[H])c3c([H])nc(N([H])C([H])([H])C([H])([H])C([H])([H])C([H])([H])[H])nc32)C([H])([H])C1([H])[H]


 29 32  0  0  0  0  0  0  0  0999 V2000
    3.8115    6.3201   17.7488 C   0  0  0  0  0  0  0  0  0  0  0  0
    3.4151    5.0433   17.5878 N   0  0  0  0  0  0  0  0  0  0  0  0
    3.5965    4.0946   18.5158 C   0  0  0  0  0  0  0  0  0  0  0  0
    4.2265    4.4582   19.7000 C   0  0  0  0  0  0  0  0  0  0  0  0
    4.5748    3.7777   20.8460 C   0  0  0  0  0  0  0  0  0  0  0  0
    5.1814    4.7007   21.6670 C   0  0  0  0  0  0  0  0  0  0  0  0
    5.2247    5.9099   21.0884 N   0  0  0  0  0  0  0  0  0  0  0  0
    4.6419    5.7684   19.8841 C   0  0  0  0  0  0  0  0  0  0  0  0
    4.4205    6.6652   18.8970 N   0  0  0  0  0  0  0  0  0  0  0  0
    5.7900    7.1196   21.6586 C   0  0  0  0  0  0  0  0  0  0  0  0
    7.1922    7.3787   21.1798 C   0  0  0  0  0  0  0  0  0  0  0  0
    7.8165    8.3847   22.1078 C   0  0  0  0  0  0  0  0  0  0  0  0
    6.8308    9.3224   22.7291 C   0  0  0  0  0  0  0  0  0  0  0  0
    6.5469    8.9673   24.0690 O   0  0  0  0  0  0  0  0  0  0  0  0
    5.5962    9.5469   21.9348 C   0  0  0  0  0  0  0  0  0  0  0  0
    4.9594    8.3295   21.3736 C   0  0  0  0  0  0  0  0  0  0  0  0
    7.1569    8.2239   24.3583 H   0  0  0  0  0  0  0  0  0  0  0  0
    4.3057    2.3608   21.0435 C   0  0  0  0  0  0  0  0  0  0  0  0
    3.6131    1.8364   22.1209 C   0  0  0  0  0  0  0  0  0  0  0  0
    3.5522    0.5120   21.9828 N   0  0  0  0  0  0  0  0  0  0  0  0
    4.1700    0.1961   20.8792 N   0  0  0  0  0  0  0  0  0  0  0  0
    4.6550    1.2866   20.2566 C   0  0  0  0  0  0  0  0  0  0  0  0
    4.2604   -0.8081   20.5433 H   0  0  0  0  0  0  0  0  0  0  0  0
    3.5783    7.2724   16.7045 N   0  0  0  0  0  0  0  0  0  0  0  0
    3.2212    8.2112   16.9902 H   0  0  0  0  0  0  0  0  0  0  0  0
    3.8436    6.8882   15.3540 C   0  0  0  0  0  0  0  0  0  0  0  0
    2.7519    7.3029   14.3982 C   0  0  0  0  0  0  0  0  0  0  0  0
    0.4523    6.5791   14.0836 C   0  0  0  0  0  0  0  0  0  0  0  0
    1.8997    6.1656   13.9346 C   0  0  0  0  0  0  0  0  0  0  0  0
 28 29  1  0  0  0
 29 27  1  0  0  0
 27 26  1  0  0  0
 26 24  1  0  0  0
 24  1  1  0  0  0
  1  2  2  0  0  0
  2  3  1  0  0  0
  3  4  2  0  0  0
  4  5  1  0  0  0
  5  6  2  0  0  0
  6  7  1  0  0  0
  7 10  1  0  0  0
 10 11  1  0  0  0
 11 12  1  0  0  0
 12 13  1  0  0  0
 13 14  1  0  0  0
 13 15  1  0  0  0
 15 16  1  0  0  0
  7  8  1  0  0  0
  8  9  2  0  0  0
  5 18  1  0  0  0
 18 19  1  0  0  0
 19 20  2  0  0  0
 20 21  1  0  0  0
 21 22  1  0  0  0
  9  1  1  0  0  0
 22 18  2  0  0  0
  8  4  1  0  0  0
 16 10  1  0  0  0
 24 25  1  0  0  0
 14 17  1  0  0  0
 21 23  1  0  0  0
M  END
> <minimizedAffinity>
-7.16695

> <CNNscore>
0.2413678318

> <CNNaffinity>
6.0636858940

> <CNN_VS>
1.4635787010

> <CNNaffinity_variance>
0.3905359507

$$$$
[H]O[C@]1([H])C([H])([H])C([H])([H])[C@@]([H])(n2c([H])c(-c3c([H])nn([H])c3[H])c3c([H])nc(N([H])C([H])([H])C([H])([H])C([H])([H])C([H])([H])[H])nc32)C([H])([H])C1([H])[H]


 29 32  0  0  0  0  0  0  0  0999 V2000
    5.2620    2.1479   20.6726 C   0  0  0  0  0  0  0  0  0  0  0  0
    4.8713    1.2141   19.7844 N   0  0  0  0  0  0  0  0  0  0  0  0
    4.3180    1.5108   18.6013 C   0  0  0  0  0  0  0  0  0  0  0  0
    4.1435    2.8529   18.2855 C   0  0  0  0  0  0  0  0  0  0  0  0
    3.6260    3.5199   17.1969 C   0  0  0  0  0  0  0  0  0  0  0  0
    3.7316    4.8610   17.4870 C   0  0  0  0  0  0  0  0  0  0  0  0
    4.2851    5.0541   18.6933 N   0  0  0  0  0  0  0  0  0  0  0  0
    4.5397    3.8289   19.1875 C   0  0  0  0  0  0  0  0  0  0  0  0
    5.0903    3.4446   20.3609 N   0  0  0  0  0  0  0  0  0  0  0  0
    4.5505    6.3337   19.3260 C   0  0  0  0  0  0  0  0  0  0  0  0
    6.0004    6.7252   19.2427 C   0  0  0  0  0  0  0  0  0  0  0  0
    6.2395    7.8196   20.2468 C   0  0  0  0  0  0  0  0  0  0  0  0
    5.0353    8.6660   20.5121 C   0  0  0  0  0  0  0  0  0  0  0  0
    4.4177    8.3238   21.7383 O   0  0  0  0  0  0  0  0  0  0  0  0
    4.0612    8.7341   19.3932 C   0  0  0  0  0  0  0  0  0  0  0  0
    3.7258    7.4395   18.7497 C   0  0  0  0  0  0  0  0  0  0  0  0
    4.9872    7.6584   22.2295 H   0  0  0  0  0  0  0  0  0  0  0  0
    3.0980    2.8393   16.0235 C   0  0  0  0  0  0  0  0  0  0  0  0
    3.6193    2.9577   14.7469 C   0  0  0  0  0  0  0  0  0  0  0  0
    2.8954    2.2026   13.9206 N   0  0  0  0  0  0  0  0  0  0  0  0
    1.9586    1.6277   14.6216 N   0  0  0  0  0  0  0  0  0  0  0  0
    2.0291    1.9780   15.9194 C   0  0  0  0  0  0  0  0  0  0  0  0
    1.2447    0.9699   14.1890 H   0  0  0  0  0  0  0  0  0  0  0  0
    5.8457    1.7435   21.9166 N   0  0  0  0  0  0  0  0  0  0  0  0
    6.2063    0.7652   21.9752 H   0  0  0  0  0  0  0  0  0  0  0  0
    5.8996    2.6875   22.9880 C   0  0  0  0  0  0  0  0  0  0  0  0
    4.6759    2.6478   23.8703 C   0  0  0  0  0  0  0  0  0  0  0  0
    4.5351    4.9436   23.0827 C   0  0  0  0  0  0  0  0  0  0  0  0
    3.7355    3.7866   23.6394 C   0  0  0  0  0  0  0  0  0  0  0  0
 28 29  1  0  0  0
 29 27  1  0  0  0
 27 26  1  0  0  0
 26 24  1  0  0  0
 24  1  1  0  0  0
  1  2  2  0  0  0
  2  3  1  0  0  0
  3  4  2  0  0  0
  4  5  1  0  0  0
  5  6  2  0  0  0
  6  7  1  0  0  0
  7 10  1  0  0  0
 10 11  1  0  0  0
 11 12  1  0  0  0
 12 13  1  0  0  0
 13 14  1  0  0  0
 13 15  1  0  0  0
 15 16  1  0  0  0
  7  8  1  0  0  0
  8  9  2  0  0  0
  5 18  1  0  0  0
 18 19  1  0  0  0
 19 20  2  0  0  0
 20 21  1  0  0  0
 21 22  1  0  0  0
  9  1  1  0  0  0
 22 18  2  0  0  0
  8  4  1  0  0  0
 16 10  1  0  0  0
 24 25  1  0  0  0
 14 17  1  0  0  0
 21 23  1  0  0  0
M  END
> <minimizedAffinity>
-8.38423

> <CNNscore>
0.2375213951

> <CNNaffinity>
6.3228883743

> <CNN_VS>
1.5018212795

> <CNNaffinity_variance>
0.4137242436

$$$$
[H]c1nn2c([H])c(C(=O)N([H])C([H])([H])C([H])([H])N(C([H])([H])[H])C([H])([H])[H])c([H])c(Oc3c([H])c([H])c([H])c(N([H])C(=O)c4c([H])n(C([H])(C([H])([H])[H])C([H])([H])[H])c(=O)n(-c5c([H])c([H])c(F)c([H])c5[H])c4=O)c3[H])c2c1[H]


 47 51  0  0  0  0  0  0  0  0999 V2000
    2.6952    1.4741   16.1071 C   0  0  0  0  0  0  0  0  0  0  0  0
    2.2138    0.3022   16.7062 C   0  0  0  0  0  0  0  0  0  0  0  0
    2.6570   -0.0448   17.9389 C   0  0  0  0  0  0  0  0  0  0  0  0
    3.5606    0.7264   18.6029 C   0  0  0  0  0  0  0  0  0  0  0  0
    4.0658    1.9022   18.0440 C   0  0  0  0  0  0  0  0  0  0  0  0
    3.5961    2.2334   16.7819 C   0  0  0  0  0  0  0  0  0  0  0  0
    1.9953    3.0541   14.3204 C   0  0  0  0  0  0  0  0  0  0  0  0
    2.3006    4.0891   14.9293 O   0  0  0  0  0  0  0  0  0  0  0  0
    2.1712    1.7800   14.8478 N   0  0  0  0  0  0  0  0  0  0  0  0
    1.8674    0.9590   14.2259 H   0  0  0  0  0  0  0  0  0  0  0  0
   -0.0760    4.2856   11.5091 N   0  0  0  0  0  0  0  0  0  0  0  0
    0.4234    4.1557   12.7434 C   0  0  0  0  0  0  0  0  0  0  0  0
    1.4212    3.2318   12.9743 C   0  0  0  0  0  0  0  0  0  0  0  0
    1.8903    2.4575   11.9392 C   0  0  0  0  0  0  0  0  0  0  0  0
    2.8166    1.5990   12.1512 O   0  0  0  0  0  0  0  0  0  0  0  0
    1.3564    2.6246   10.7154 N   0  0  0  0  0  0  0  0  0  0  0  0
    0.3841    3.5269   10.4971 C   0  0  0  0  0  0  0  0  0  0  0  0
   -0.1291    3.6934    9.3385 O   0  0  0  0  0  0  0  0  0  0  0  0
    1.8217    1.8367    9.6414 C   0  0  0  0  0  0  0  0  0  0  0  0
    1.2322    0.6121    9.4132 C   0  0  0  0  0  0  0  0  0  0  0  0
    1.6638   -0.1851    8.3729 C   0  0  0  0  0  0  0  0  0  0  0  0
    2.6923    0.2551    7.5615 C   0  0  0  0  0  0  0  0  0  0  0  0
    3.1458   -0.5089    6.5207 F   0  0  0  0  0  0  0  0  0  0  0  0
    3.2690    1.4883    7.8099 C   0  0  0  0  0  0  0  0  0  0  0  0
    2.8477    2.2943    8.8452 C   0  0  0  0  0  0  0  0  0  0  0  0
   -2.4865    4.7858   11.6895 C   0  0  0  0  0  0  0  0  0  0  0  0
   -1.1209    5.2453   11.2329 C   0  0  0  0  0  0  0  0  0  0  0  0
   -0.7530    6.5333   11.9335 C   0  0  0  0  0  0  0  0  0  0  0  0
    4.9761    2.6611   18.7522 O   0  0  0  0  0  0  0  0  0  0  0  0
    4.7296    3.7078   19.5783 C   0  0  0  0  0  0  0  0  0  0  0  0
    4.7431    4.9918   19.0184 C   0  0  0  0  0  0  0  0  0  0  0  0
    4.5032    6.1000   19.7924 C   0  0  0  0  0  0  0  0  0  0  0  0
    4.2488    5.9640   21.1199 C   0  0  0  0  0  0  0  0  0  0  0  0
    4.2321    4.7329   21.6755 N   0  0  0  0  0  0  0  0  0  0  0  0
    4.0101    4.4038   22.9435 N   0  0  0  0  0  0  0  0  0  0  0  0
    4.0926    3.0694   23.0679 C   0  0  0  0  0  0  0  0  0  0  0  0
    4.3766    2.5870   21.8163 C   0  0  0  0  0  0  0  0  0  0  0  0
    4.4668    3.6381   20.9222 C   0  0  0  0  0  0  0  0  0  0  0  0
    4.5318    7.4341   19.1268 C   0  0  0  0  0  0  0  0  0  0  0  0
    5.4502    7.5730   18.2953 O   0  0  0  0  0  0  0  0  0  0  0  0
    3.5747    8.3855   19.4624 N   0  0  0  0  0  0  0  0  0  0  0  0
    2.8376    8.0933   20.2268 H   0  0  0  0  0  0  0  0  0  0  0  0
    3.3526    9.7088   18.9853 C   0  0  0  0  0  0  0  0  0  0  0  0
    4.3880   10.7057   19.3767 C   0  0  0  0  0  0  0  0  0  0  0  0
    4.9718   11.4488   18.2918 N   0  0  0  0  0  0  0  0  0  0  0  0
    6.3710   11.0045   18.1489 C   0  0  0  0  0  0  0  0  0  0  0  0
    4.3169   10.9336   17.0592 C   0  0  0  0  0  0  0  0  0  0  0  0
 26 27  1  0  0  0
 27 28  1  0  0  0
 27 11  1  0  0  0
 11 12  1  0  0  0
 12 13  2  0  0  0
 13  7  1  0  0  0
  7  8  2  0  0  0
  7  9  1  0  0  0
  9  1  1  0  0  0
  1  2  2  0  0  0
  2  3  1  0  0  0
  3  4  2  0  0  0
  4  5  1  0  0  0
  5 29  1  0  0  0
 29 30  1  0  0  0
 30 31  2  0  0  0
 31 32  1  0  0  0
 32 33  2  0  0  0
 33 34  1  0  0  0
 34 35  1  0  0  0
 35 36  2  0  0  0
 36 37  1  0  0  0
 37 38  2  0  0  0
 32 39  1  0  0  0
 39 40  2  0  0  0
 39 41  1  0  0  0
 41 43  1  0  0  0
 43 44  1  0  0  0
 44 45  1  0  0  0
 45 46  1  0  0  0
 45 47  1  0  0  0
  5  6  2  0  0  0
 13 14  1  0  0  0
 14 15  2  0  0  0
 14 16  1  0  0  0
 16 19  1  0  0  0
 19 20  2  0  0  0
 20 21  1  0  0  0
 21 22  2  0  0  0
 22 23  1  0  0  0
 22 24  1  0  0  0
 24 25  2  0  0  0
 16 17  1  0  0  0
 17 18  2  0  0  0
 17 11  1  0  0  0
  6  1  1  0  0  0
 25 19  1  0  0  0
 38 30  1  0  0  0
 38 34  1  0  0  0
  9 10  1  0  0  0
 41 42  1  0  0  0
M  END
> <minimizedAffinity>
-8.71547

> <CNNscore>
0.1669897735

> <CNNaffinity>
6.9873747826

> <CNN_VS>
1.1668201685

> <CNNaffinity_variance>
0.1546184272

$$$$
[H]c1nn2c([H])c(C(=O)N([H])C([H])([H])C([H])([H])N(C([H])([H])[H])C([H])([H])[H])c([H])c(Oc3c([H])c([H])c([H])c(N([H])C(=O)c4c([H])n(C([H])(C([H])([H])[H])C([H])([H])[H])c(=O)n(-c5c([H])c([H])c(F)c([H])c5[H])c4=O)c3[H])c2c1[H]


 47 51  0  0  0  0  0  0  0  0999 V2000
    3.3818    1.2815   16.4006 C   0  0  0  0  0  0  0  0  0  0  0  0
    2.4997    0.2634   16.7867 C   0  0  0  0  0  0  0  0  0  0  0  0
    2.4841   -0.1488   18.0776 C   0  0  0  0  0  0  0  0  0  0  0  0
    3.3105    0.4103   19.0030 C   0  0  0  0  0  0  0  0  0  0  0  0
    4.2044    1.4277   18.6624 C   0  0  0  0  0  0  0  0  0  0  0  0
    4.2000    1.8299   17.3351 C   0  0  0  0  0  0  0  0  0  0  0  0
    2.9807    2.9343   14.5879 C   0  0  0  0  0  0  0  0  0  0  0  0
    2.6924    3.8822   15.3318 O   0  0  0  0  0  0  0  0  0  0  0  0
    3.3204    1.6715   15.0597 N   0  0  0  0  0  0  0  0  0  0  0  0
    3.5493    0.9296   14.3179 H   0  0  0  0  0  0  0  0  0  0  0  0
    3.8149    4.2643   11.2344 N   0  0  0  0  0  0  0  0  0  0  0  0
    3.8784    4.0382   12.5515 C   0  0  0  0  0  0  0  0  0  0  0  0
    2.9487    3.2058   13.1392 C   0  0  0  0  0  0  0  0  0  0  0  0
    1.9712    2.6197   12.3700 C   0  0  0  0  0  0  0  0  0  0  0  0
    1.1071    1.8465   12.9135 O   0  0  0  0  0  0  0  0  0  0  0  0
    1.9484    2.8777   11.0495 N   0  0  0  0  0  0  0  0  0  0  0  0
    2.8575    3.6899   10.4829 C   0  0  0  0  0  0  0  0  0  0  0  0
    2.8445    3.9409    9.2298 O   0  0  0  0  0  0  0  0  0  0  0  0
    0.9507    2.2888   10.2441 C   0  0  0  0  0  0  0  0  0  0  0  0
   -0.1687    3.0280    9.9286 C   0  0  0  0  0  0  0  0  0  0  0  0
   -1.1649    2.4825    9.1448 C   0  0  0  0  0  0  0  0  0  0  0  0
   -1.0302    1.1884    8.6788 C   0  0  0  0  0  0  0  0  0  0  0  0
   -1.9980    0.6155    7.8991 F   0  0  0  0  0  0  0  0  0  0  0  0
    0.1026    0.4654    9.0086 C   0  0  0  0  0  0  0  0  0  0  0  0
    1.1048    0.9979    9.7903 C   0  0  0  0  0  0  0  0  0  0  0  0
    4.9075    6.4776   11.2581 C   0  0  0  0  0  0  0  0  0  0  0  0
    4.7745    5.1298   10.5870 C   0  0  0  0  0  0  0  0  0  0  0  0
    6.1084    4.4188   10.5969 C   0  0  0  0  0  0  0  0  0  0  0  0
    5.0217    1.9743   19.6315 O   0  0  0  0  0  0  0  0  0  0  0  0
    4.7360    2.9768   20.4988 C   0  0  0  0  0  0  0  0  0  0  0  0
    4.5474    4.2590   19.9670 C   0  0  0  0  0  0  0  0  0  0  0  0
    4.2562    5.3238   20.7832 C   0  0  0  0  0  0  0  0  0  0  0  0
    4.1472    5.1460   22.1255 C   0  0  0  0  0  0  0  0  0  0  0  0
    4.3261    3.9160   22.6544 N   0  0  0  0  0  0  0  0  0  0  0  0
    4.2659    3.5507   23.9305 N   0  0  0  0  0  0  0  0  0  0  0  0
    4.5135    2.2340   24.0187 C   0  0  0  0  0  0  0  0  0  0  0  0
    4.7305    1.8005   22.7361 C   0  0  0  0  0  0  0  0  0  0  0  0
    4.6127    2.8637   21.8597 C   0  0  0  0  0  0  0  0  0  0  0  0
    4.0666    6.6586   20.1458 C   0  0  0  0  0  0  0  0  0  0  0  0
    3.4303    6.6297   19.0743 O   0  0  0  0  0  0  0  0  0  0  0  0
    4.5865    7.7906   20.7639 N   0  0  0  0  0  0  0  0  0  0  0  0
    5.1299    7.6297   21.7083 H   0  0  0  0  0  0  0  0  0  0  0  0
    4.5434    9.1670   20.4010 C   0  0  0  0  0  0  0  0  0  0  0  0
    5.4187    9.5488   19.2577 C   0  0  0  0  0  0  0  0  0  0  0  0
    4.7449   10.1483   18.1367 N   0  0  0  0  0  0  0  0  0  0  0  0
    4.6800    9.1389   17.0633 C   0  0  0  0  0  0  0  0  0  0  0  0
    3.3260   10.2971   18.5588 C   0  0  0  0  0  0  0  0  0  0  0  0
 26 27  1  0  0  0
 27 28  1  0  0  0
 27 11  1  0  0  0
 11 12  1  0  0  0
 12 13  2  0  0  0
 13  7  1  0  0  0
  7  8  2  0  0  0
  7  9  1  0  0  0
  9  1  1  0  0  0
  1  2  2  0  0  0
  2  3  1  0  0  0
  3  4  2  0  0  0
  4  5  1  0  0  0
  5 29  1  0  0  0
 29 30  1  0  0  0
 30 31  2  0  0  0
 31 32  1  0  0  0
 32 33  2  0  0  0
 33 34  1  0  0  0
 34 35  1  0  0  0
 35 36  2  0  0  0
 36 37  1  0  0  0
 37 38  2  0  0  0
 32 39  1  0  0  0
 39 40  2  0  0  0
 39 41  1  0  0  0
 41 43  1  0  0  0
 43 44  1  0  0  0
 44 45  1  0  0  0
 45 46  1  0  0  0
 45 47  1  0  0  0
  5  6  2  0  0  0
 13 14  1  0  0  0
 14 15  2  0  0  0
 14 16  1  0  0  0
 16 19  1  0  0  0
 19 20  2  0  0  0
 20 21  1  0  0  0
 21 22  2  0  0  0
 22 23  1  0  0  0
 22 24  1  0  0  0
 24 25  2  0  0  0
 16 17  1  0  0  0
 17 18  2  0  0  0
 17 11  1  0  0  0
  6  1  1  0  0  0
 25 19  1  0  0  0
 38 30  1  0  0  0
 38 34  1  0  0  0
  9 10  1  0  0  0
 41 42  1  0  0  0
M  END
> <minimizedAffinity>
-9.05986

> <CNNscore>
0.1397168189

> <CNNaffinity>
7.0033235550

> <CNN_VS>
0.9784820676

> <CNNaffinity_variance>
0.1934154630

$$$$
[H]c1nn2c([H])c(C(=O)N([H])C([H])([H])C([H])([H])N(C([H])([H])[H])C([H])([H])[H])c([H])c(Oc3c([H])c([H])c([H])c(N([H])C(=O)c4c([H])n(C([H])(C([H])([H])[H])C([H])([H])[H])c(=O)n(-c5c([H])c([H])c(F)c([H])c5[H])c4=O)c3[H])c2c1[H]


 47 51  0  0  0  0  0  0  0  0999 V2000
    3.1092    2.0126   16.4853 C   0  0  0  0  0  0  0  0  0  0  0  0
    2.4324    0.7910   16.6013 C   0  0  0  0  0  0  0  0  0  0  0  0
    2.6478    0.0121   17.6891 C   0  0  0  0  0  0  0  0  0  0  0  0
    3.5097    0.3978   18.6691 C   0  0  0  0  0  0  0  0  0  0  0  0
    4.2042    1.6070   18.5949 C   0  0  0  0  0  0  0  0  0  0  0  0
    3.9656    2.3841   17.4712 C   0  0  0  0  0  0  0  0  0  0  0  0
    2.2303    4.0341   15.3367 C   0  0  0  0  0  0  0  0  0  0  0  0
    1.9035    4.6419   16.3657 O   0  0  0  0  0  0  0  0  0  0  0  0
    2.8144    2.7727   15.3499 N   0  0  0  0  0  0  0  0  0  0  0  0
    3.0524    2.3461   14.3937 H   0  0  0  0  0  0  0  0  0  0  0  0
    2.3283    6.5075   12.5829 N   0  0  0  0  0  0  0  0  0  0  0  0
    2.5950    5.9107   13.7502 C   0  0  0  0  0  0  0  0  0  0  0  0
    1.9680    4.7216   14.0592 C   0  0  0  0  0  0  0  0  0  0  0  0
    1.0800    4.1642   13.1695 C   0  0  0  0  0  0  0  0  0  0  0  0
    0.4967    3.0603   13.4543 O   0  0  0  0  0  0  0  0  0  0  0  0
    0.8444    4.8021   12.0083 N   0  0  0  0  0  0  0  0  0  0  0  0
    1.4588    5.9608   11.7131 C   0  0  0  0  0  0  0  0  0  0  0  0
    1.2422    6.5740   10.6130 O   0  0  0  0  0  0  0  0  0  0  0  0
   -0.0665    4.2480   11.0841 C   0  0  0  0  0  0  0  0  0  0  0  0
   -1.3814    4.6590   11.1213 C   0  0  0  0  0  0  0  0  0  0  0  0
   -2.2993    4.1363   10.2334 C   0  0  0  0  0  0  0  0  0  0  0  0
   -1.8887    3.1971    9.3065 C   0  0  0  0  0  0  0  0  0  0  0  0
   -2.7716    2.6576    8.4108 F   0  0  0  0  0  0  0  0  0  0  0  0
   -0.5634    2.7997    9.2880 C   0  0  0  0  0  0  0  0  0  0  0  0
    0.3636    3.3135   10.1688 C   0  0  0  0  0  0  0  0  0  0  0  0
    2.6245    8.8881   13.1645 C   0  0  0  0  0  0  0  0  0  0  0  0
    2.9693    7.7533   12.2276 C   0  0  0  0  0  0  0  0  0  0  0  0
    4.4622    7.5164   12.2375 C   0  0  0  0  0  0  0  0  0  0  0  0
    5.0648    1.9662   19.6129 O   0  0  0  0  0  0  0  0  0  0  0  0
    4.8677    2.8863   20.5894 C   0  0  0  0  0  0  0  0  0  0  0  0
    4.9027    4.2377   20.2222 C   0  0  0  0  0  0  0  0  0  0  0  0
    4.7127    5.2261   21.1560 C   0  0  0  0  0  0  0  0  0  0  0  0
    4.4874    4.9034   22.4562 C   0  0  0  0  0  0  0  0  0  0  0  0
    4.4506    3.6050   22.8268 N   0  0  0  0  0  0  0  0  0  0  0  0
    4.2509    3.0991   24.0392 N   0  0  0  0  0  0  0  0  0  0  0  0
    4.2997    1.7594   23.9654 C   0  0  0  0  0  0  0  0  0  0  0  0
    4.5394    1.4587   22.6494 C   0  0  0  0  0  0  0  0  0  0  0  0
    4.6364    2.6270   21.9157 C   0  0  0  0  0  0  0  0  0  0  0  0
    4.7616    6.6422   20.6912 C   0  0  0  0  0  0  0  0  0  0  0  0
    4.7424    6.7764   19.4520 O   0  0  0  0  0  0  0  0  0  0  0  0
    4.8197    7.6672   21.6292 N   0  0  0  0  0  0  0  0  0  0  0  0
    4.8357    7.3647   22.6880 H   0  0  0  0  0  0  0  0  0  0  0  0
    4.8565    9.0828   21.4780 C   0  0  0  0  0  0  0  0  0  0  0  0
    6.1394    9.7292   21.8722 C   0  0  0  0  0  0  0  0  0  0  0  0
    7.3299    9.0988   21.3669 N   0  0  0  0  0  0  0  0  0  0  0  0
    8.0816   10.1123   20.6032 C   0  0  0  0  0  0  0  0  0  0  0  0
    8.1875    8.8559   22.5582 C   0  0  0  0  0  0  0  0  0  0  0  0
 26 27  1  0  0  0
 27 28  1  0  0  0
 27 11  1  0  0  0
 11 12  1  0  0  0
 12 13  2  0  0  0
 13  7  1  0  0  0
  7  8  2  0  0  0
  7  9  1  0  0  0
  9  1  1  0  0  0
  1  2  2  0  0  0
  2  3  1  0  0  0
  3  4  2  0  0  0
  4  5  1  0  0  0
  5 29  1  0  0  0
 29 30  1  0  0  0
 30 31  2  0  0  0
 31 32  1  0  0  0
 32 33  2  0  0  0
 33 34  1  0  0  0
 34 35  1  0  0  0
 35 36  2  0  0  0
 36 37  1  0  0  0
 37 38  2  0  0  0
 32 39  1  0  0  0
 39 40  2  0  0  0
 39 41  1  0  0  0
 41 43  1  0  0  0
 43 44  1  0  0  0
 44 45  1  0  0  0
 45 46  1  0  0  0
 45 47  1  0  0  0
  5  6  2  0  0  0
 13 14  1  0  0  0
 14 15  2  0  0  0
 14 16  1  0  0  0
 16 19  1  0  0  0
 19 20  2  0  0  0
 20 21  1  0  0  0
 21 22  2  0  0  0
 22 23  1  0  0  0
 22 24  1  0  0  0
 24 25  2  0  0  0
 16 17  1  0  0  0
 17 18  2  0  0  0
 17 11  1  0  0  0
  6  1  1  0  0  0
 25 19  1  0  0  0
 38 30  1  0  0  0
 38 34  1  0  0  0
  9 10  1  0  0  0
 41 42  1  0  0  0
M  END
> <minimizedAffinity>
-9.19015

> <CNNscore>
0.1169694513

> <CNNaffinity>
7.0145263672

> <CNN_VS>
0.8204852939

> <CNNaffinity_variance>
0.1828498095

$$$$
[H]c1nn2c([H])c(C(=O)N([H])C([H])([H])C([H])([H])N(C([H])([H])[H])C([H])([H])[H])c([H])c(Oc3c([H])c([H])c([H])c(N([H])C(=O)c4c([H])n(C([H])(C([H])([H])[H])C([H])([H])[H])c(=O)n(-c5c([H])c([H])c(F)c([H])c5[H])c4=O)c3[H])c2c1[H]


 47 51  0  0  0  0  0  0  0  0999 V2000
    2.0805    4.3755   14.3695 C   0  0  0  0  0  0  0  0  0  0  0  0
    2.2246    5.7428   14.6404 C   0  0  0  0  0  0  0  0  0  0  0  0
    3.1379    6.1466   15.5565 C   0  0  0  0  0  0  0  0  0  0  0  0
    3.9161    5.2458   16.2161 C   0  0  0  0  0  0  0  0  0  0  0  0
    3.8066    3.8744   15.9768 C   0  0  0  0  0  0  0  0  0  0  0  0
    2.8642    3.4888   15.0352 C   0  0  0  0  0  0  0  0  0  0  0  0
    1.2717    4.2345   12.0233 C   0  0  0  0  0  0  0  0  0  0  0  0
    2.2767    4.7400   11.5042 O   0  0  0  0  0  0  0  0  0  0  0  0
    1.1385    4.0387   13.3932 N   0  0  0  0  0  0  0  0  0  0  0  0
    0.2201    3.5924   13.7253 H   0  0  0  0  0  0  0  0  0  0  0  0
   -0.5997    2.5627    9.3005 N   0  0  0  0  0  0  0  0  0  0  0  0
    0.4051    2.8954   10.1188 C   0  0  0  0  0  0  0  0  0  0  0  0
    0.1901    3.8364   11.1041 C   0  0  0  0  0  0  0  0  0  0  0  0
   -1.0480    4.4202   11.2350 C   0  0  0  0  0  0  0  0  0  0  0  0
   -1.2499    5.2940   12.1491 O   0  0  0  0  0  0  0  0  0  0  0  0
   -2.0270    4.0528   10.3881 N   0  0  0  0  0  0  0  0  0  0  0  0
   -1.8110    3.1351    9.4299 C   0  0  0  0  0  0  0  0  0  0  0  0
   -2.7342    2.7793    8.6210 O   0  0  0  0  0  0  0  0  0  0  0  0
   -3.3032    4.6435   10.5040 C   0  0  0  0  0  0  0  0  0  0  0  0
   -4.2381    4.0470   11.3221 C   0  0  0  0  0  0  0  0  0  0  0  0
   -5.4966    4.5967   11.4571 C   0  0  0  0  0  0  0  0  0  0  0  0
   -5.8114    5.7507   10.7649 C   0  0  0  0  0  0  0  0  0  0  0  0
   -7.0494    6.3235   10.8750 F   0  0  0  0  0  0  0  0  0  0  0  0
   -4.8564    6.3318    9.9493 C   0  0  0  0  0  0  0  0  0  0  0  0
   -3.5961    5.7934    9.8054 C   0  0  0  0  0  0  0  0  0  0  0  0
    0.7770    1.8772    7.3697 C   0  0  0  0  0  0  0  0  0  0  0  0
   -0.4084    1.5792    8.2588 C   0  0  0  0  0  0  0  0  0  0  0  0
   -0.2219    0.2369    8.9285 C   0  0  0  0  0  0  0  0  0  0  0  0
    4.6190    2.9926   16.6612 O   0  0  0  0  0  0  0  0  0  0  0  0
    4.4560    2.5074   17.9170 C   0  0  0  0  0  0  0  0  0  0  0  0
    5.0757    3.2008   18.9646 C   0  0  0  0  0  0  0  0  0  0  0  0
    4.9564    2.7691   20.2623 C   0  0  0  0  0  0  0  0  0  0  0  0
    4.2314    1.6563   20.5482 C   0  0  0  0  0  0  0  0  0  0  0  0
    3.6275    0.9762   19.5496 N   0  0  0  0  0  0  0  0  0  0  0  0
    2.8891   -0.1255   19.6315 N   0  0  0  0  0  0  0  0  0  0  0  0
    2.4876   -0.4733   18.3984 C   0  0  0  0  0  0  0  0  0  0  0  0
    3.0126    0.4654   17.5479 C   0  0  0  0  0  0  0  0  0  0  0  0
    3.7395    1.3933   18.2711 C   0  0  0  0  0  0  0  0  0  0  0  0
    5.6419    3.5591   21.3251 C   0  0  0  0  0  0  0  0  0  0  0  0
    6.2144    2.8673   22.1898 O   0  0  0  0  0  0  0  0  0  0  0  0
    5.5992    4.9483   21.2784 N   0  0  0  0  0  0  0  0  0  0  0  0
    5.0392    5.3953   20.4420 H   0  0  0  0  0  0  0  0  0  0  0  0
    6.1666    5.9384   22.1303 C   0  0  0  0  0  0  0  0  0  0  0  0
    7.2988    6.7073   21.5420 C   0  0  0  0  0  0  0  0  0  0  0  0
    7.6358    7.9293   22.2227 N   0  0  0  0  0  0  0  0  0  0  0  0
    8.5963    7.5946   23.2908 C   0  0  0  0  0  0  0  0  0  0  0  0
    8.4518    8.7113   21.2552 C   0  0  0  0  0  0  0  0  0  0  0  0
 26 27  1  0  0  0
 27 28  1  0  0  0
 27 11  1  0  0  0
 11 12  1  0  0  0
 12 13  2  0  0  0
 13  7  1  0  0  0
  7  8  2  0  0  0
  7  9  1  0  0  0
  9  1  1  0  0  0
  1  2  2  0  0  0
  2  3  1  0  0  0
  3  4  2  0  0  0
  4  5  1  0  0  0
  5 29  1  0  0  0
 29 30  1  0  0  0
 30 31  2  0  0  0
 31 32  1  0  0  0
 32 33  2  0  0  0
 33 34  1  0  0  0
 34 35  1  0  0  0
 35 36  2  0  0  0
 36 37  1  0  0  0
 37 38  2  0  0  0
 32 39  1  0  0  0
 39 40  2  0  0  0
 39 41  1  0  0  0
 41 43  1  0  0  0
 43 44  1  0  0  0
 44 45  1  0  0  0
 45 46  1  0  0  0
 45 47  1  0  0  0
  5  6  2  0  0  0
 13 14  1  0  0  0
 14 15  2  0  0  0
 14 16  1  0  0  0
 16 19  1  0  0  0
 19 20  2  0  0  0
 20 21  1  0  0  0
 21 22  2  0  0  0
 22 23  1  0  0  0
 22 24  1  0  0  0
 24 25  2  0  0  0
 16 17  1  0  0  0
 17 18  2  0  0  0
 17 11  1  0  0  0
  6  1  1  0  0  0
 25 19  1  0  0  0
 38 30  1  0  0  0
 38 34  1  0  0  0
  9 10  1  0  0  0
 41 42  1  0  0  0
M  END
> <minimizedAffinity>
-8.61725

> <CNNscore>
0.1133581772

> <CNNaffinity>
6.7102761269

> <CNN_VS>
0.7606646419

> <CNNaffinity_variance>
0.3118199706

$$$$
[H]c1nn2c([H])c(C(=O)N([H])C([H])([H])C([H])([H])N(C([H])([H])[H])C([H])([H])[H])c([H])c(Oc3c([H])c([H])c([H])c(N([H])C(=O)c4c([H])n(C([H])(C([H])([H])[H])C([H])([H])[H])c(=O)n(-c5c([H])c([H])c(F)c([H])c5[H])c4=O)c3[H])c2c1[H]


 47 51  0  0  0  0  0  0  0  0999 V2000
    2.8019    2.8366   15.5246 C   0  0  0  0  0  0  0  0  0  0  0  0
    2.4846    1.4717   15.5224 C   0  0  0  0  0  0  0  0  0  0  0  0
    3.0439    0.6574   16.4501 C   0  0  0  0  0  0  0  0  0  0  0  0
    3.9074    1.1445   17.3824 C   0  0  0  0  0  0  0  0  0  0  0  0
    4.2508    2.4975   17.4219 C   0  0  0  0  0  0  0  0  0  0  0  0
    3.6646    3.3079   16.4611 C   0  0  0  0  0  0  0  0  0  0  0  0
    2.4299    3.6075   13.1910 C   0  0  0  0  0  0  0  0  0  0  0  0
    3.2846    2.8770   12.6704 O   0  0  0  0  0  0  0  0  0  0  0  0
    2.1647    3.6169   14.5556 N   0  0  0  0  0  0  0  0  0  0  0  0
    1.4018    4.2947   14.8896 H   0  0  0  0  0  0  0  0  0  0  0  0
    1.6280    6.0851   10.5587 N   0  0  0  0  0  0  0  0  0  0  0  0
    2.3400    5.2912   11.3666 C   0  0  0  0  0  0  0  0  0  0  0  0
    1.6827    4.4930   12.2795 C   0  0  0  0  0  0  0  0  0  0  0  0
    0.3097    4.5209   12.3500 C   0  0  0  0  0  0  0  0  0  0  0  0
   -0.3027    3.7806   13.1968 O   0  0  0  0  0  0  0  0  0  0  0  0
   -0.3625    5.3358   11.5164 N   0  0  0  0  0  0  0  0  0  0  0  0
    0.2842    6.1113   10.6289 C   0  0  0  0  0  0  0  0  0  0  0  0
   -0.3451    6.8883    9.8329 O   0  0  0  0  0  0  0  0  0  0  0  0
   -1.7715    5.3814   11.5763 C   0  0  0  0  0  0  0  0  0  0  0  0
   -2.4973    4.5354   10.7659 C   0  0  0  0  0  0  0  0  0  0  0  0
   -3.8767    4.5550   10.7974 C   0  0  0  0  0  0  0  0  0  0  0  0
   -4.5242    5.4301   11.6488 C   0  0  0  0  0  0  0  0  0  0  0  0
   -5.8906    5.4766   11.7064 F   0  0  0  0  0  0  0  0  0  0  0  0
   -3.7744    6.2701   12.4532 C   0  0  0  0  0  0  0  0  0  0  0  0
   -2.3966    6.2609   12.4317 C   0  0  0  0  0  0  0  0  0  0  0  0
    3.4950    7.6467   10.1480 C   0  0  0  0  0  0  0  0  0  0  0  0
    2.2855    6.9325    9.5899 C   0  0  0  0  0  0  0  0  0  0  0  0
    2.6974    6.0597    8.4265 C   0  0  0  0  0  0  0  0  0  0  0  0
    5.1251    2.9544   18.3876 O   0  0  0  0  0  0  0  0  0  0  0  0
    4.8292    3.5399   19.5745 C   0  0  0  0  0  0  0  0  0  0  0  0
    5.0078    4.9256   19.6752 C   0  0  0  0  0  0  0  0  0  0  0  0
    4.7301    5.5881   20.8451 C   0  0  0  0  0  0  0  0  0  0  0  0
    4.2762    4.9031   21.9269 C   0  0  0  0  0  0  0  0  0  0  0  0
    4.0985    3.5665   21.8464 N   0  0  0  0  0  0  0  0  0  0  0  0
    3.6727    2.7333   22.7898 N   0  0  0  0  0  0  0  0  0  0  0  0
    3.6491    1.4867   22.2915 C   0  0  0  0  0  0  0  0  0  0  0  0
    4.0810    1.5869   20.9941 C   0  0  0  0  0  0  0  0  0  0  0  0
    4.3690    2.9072   20.7005 C   0  0  0  0  0  0  0  0  0  0  0  0
    4.9423    7.0638   20.8774 C   0  0  0  0  0  0  0  0  0  0  0  0
    5.8012    7.4407   21.6986 O   0  0  0  0  0  0  0  0  0  0  0  0
    4.2035    7.8788   20.0267 N   0  0  0  0  0  0  0  0  0  0  0  0
    3.4795    7.3741   19.3680 H   0  0  0  0  0  0  0  0  0  0  0  0
    4.2090    9.2895   19.8320 C   0  0  0  0  0  0  0  0  0  0  0  0
    3.3792    9.7755   18.6943 C   0  0  0  0  0  0  0  0  0  0  0  0
    3.5671   11.1567   18.3381 N   0  0  0  0  0  0  0  0  0  0  0  0
    2.2542   11.8229   18.4269 C   0  0  0  0  0  0  0  0  0  0  0  0
    4.3366   11.7560   19.4616 C   0  0  0  0  0  0  0  0  0  0  0  0
 26 27  1  0  0  0
 27 28  1  0  0  0
 27 11  1  0  0  0
 11 12  1  0  0  0
 12 13  2  0  0  0
 13  7  1  0  0  0
  7  8  2  0  0  0
  7  9  1  0  0  0
  9  1  1  0  0  0
  1  2  2  0  0  0
  2  3  1  0  0  0
  3  4  2  0  0  0
  4  5  1  0  0  0
  5 29  1  0  0  0
 29 30  1  0  0  0
 30 31  2  0  0  0
 31 32  1  0  0  0
 32 33  2  0  0  0
 33 34  1  0  0  0
 34 35  1  0  0  0
 35 36  2  0  0  0
 36 37  1  0  0  0
 37 38  2  0  0  0
 32 39  1  0  0  0
 39 40  2  0  0  0
 39 41  1  0  0  0
 41 43  1  0  0  0
 43 44  1  0  0  0
 44 45  1  0  0  0
 45 46  1  0  0  0
 45 47  1  0  0  0
  5  6  2  0  0  0
 13 14  1  0  0  0
 14 15  2  0  0  0
 14 16  1  0  0  0
 16 19  1  0  0  0
 19 20  2  0  0  0
 20 21  1  0  0  0
 21 22  2  0  0  0
 22 23  1  0  0  0
 22 24  1  0  0  0
 24 25  2  0  0  0
 16 17  1  0  0  0
 17 18  2  0  0  0
 17 11  1  0  0  0
  6  1  1  0  0  0
 25 19  1  0  0  0
 38 30  1  0  0  0
 38 34  1  0  0  0
  9 10  1  0  0  0
 41 42  1  0  0  0
M  END
> <minimizedAffinity>
-9.86829

> <CNNscore>
0.0930435136

> <CNNaffinity>
6.8302383423

> <CNN_VS>
0.6355093718

> <CNNaffinity_variance>
0.2229540348

$$$$
[H]c1nn2c([H])c(C(=O)N([H])C([H])([H])C([H])([H])N(C([H])([H])[H])C([H])([H])[H])c([H])c(Oc3c([H])c([H])c([H])c(N([H])C(=O)c4c([H])n(C([H])(C([H])([H])[H])C([H])([H])[H])c(=O)n(-c5c([H])c([H])c(F)c([H])c5[H])c4=O)c3[H])c2c1[H]


 47 51  0  0  0  0  0  0  0  0999 V2000
    3.5372    3.7152   14.9471 C   0  0  0  0  0  0  0  0  0  0  0  0
    3.0037    2.4224   15.0374 C   0  0  0  0  0  0  0  0  0  0  0  0
    2.6374    1.7737   13.9055 C   0  0  0  0  0  0  0  0  0  0  0  0
    2.7798    2.3575   12.6844 C   0  0  0  0  0  0  0  0  0  0  0  0
    3.3074    3.6432   12.5480 C   0  0  0  0  0  0  0  0  0  0  0  0
    3.6735    4.2844   13.7220 C   0  0  0  0  0  0  0  0  0  0  0  0
    3.0749    4.9580   17.0496 C   0  0  0  0  0  0  0  0  0  0  0  0
    1.8551    5.0787   16.8688 O   0  0  0  0  0  0  0  0  0  0  0  0
    3.9172    4.3084   16.1544 N   0  0  0  0  0  0  0  0  0  0  0  0
    4.9570    4.2687   16.4192 H   0  0  0  0  0  0  0  0  0  0  0  0
    4.3339    7.4028   19.5291 N   0  0  0  0  0  0  0  0  0  0  0  0
    3.8392    6.9047   18.3903 C   0  0  0  0  0  0  0  0  0  0  0  0
    3.6146    5.5476   18.2883 C   0  0  0  0  0  0  0  0  0  0  0  0
    3.8999    4.7244   19.3522 C   0  0  0  0  0  0  0  0  0  0  0  0
    3.6922    3.4641   19.2597 O   0  0  0  0  0  0  0  0  0  0  0  0
    4.3962    5.2723   20.4766 N   0  0  0  0  0  0  0  0  0  0  0  0
    4.6127    6.5957   20.5695 C   0  0  0  0  0  0  0  0  0  0  0  0
    5.0834    7.1256   21.6330 O   0  0  0  0  0  0  0  0  0  0  0  0
    4.6990    4.4435   21.5777 C   0  0  0  0  0  0  0  0  0  0  0  0
    5.8945    3.7581   21.5828 C   0  0  0  0  0  0  0  0  0  0  0  0
    6.2217    2.9373   22.6427 C   0  0  0  0  0  0  0  0  0  0  0  0
    5.3401    2.8086   23.6993 C   0  0  0  0  0  0  0  0  0  0  0  0
    5.6317    2.0038   24.7669 F   0  0  0  0  0  0  0  0  0  0  0  0
    4.1456    3.5066   23.6721 C   0  0  0  0  0  0  0  0  0  0  0  0
    3.8064    4.3295   22.6200 C   0  0  0  0  0  0  0  0  0  0  0  0
    5.8515    9.2738   18.9911 C   0  0  0  0  0  0  0  0  0  0  0  0
    4.5793    8.8202   19.6696 C   0  0  0  0  0  0  0  0  0  0  0  0
    3.3948    9.5484   19.0767 C   0  0  0  0  0  0  0  0  0  0  0  0
    3.4425    4.1984   11.2913 O   0  0  0  0  0  0  0  0  0  0  0  0
    4.3452    3.8827   10.3298 C   0  0  0  0  0  0  0  0  0  0  0  0
    5.4932    4.6796   10.2327 C   0  0  0  0  0  0  0  0  0  0  0  0
    6.4510    4.4218    9.2836 C   0  0  0  0  0  0  0  0  0  0  0  0
    6.2957    3.3841    8.4207 C   0  0  0  0  0  0  0  0  0  0  0  0
    5.1945    2.6060    8.5008 N   0  0  0  0  0  0  0  0  0  0  0  0
    4.8673    1.5606    7.7488 N   0  0  0  0  0  0  0  0  0  0  0  0
    3.6837    1.0802    8.1622 C   0  0  0  0  0  0  0  0  0  0  0  0
    3.2925    1.8779    9.2064 C   0  0  0  0  0  0  0  0  0  0  0  0
    4.2480    2.8521    9.4306 C   0  0  0  0  0  0  0  0  0  0  0  0
    7.6472    5.3112    9.2415 C   0  0  0  0  0  0  0  0  0  0  0  0
    7.5217    6.3705    9.8864 O   0  0  0  0  0  0  0  0  0  0  0  0
    8.7685    4.9141    8.5212 N   0  0  0  0  0  0  0  0  0  0  0  0
    8.7023    3.9445    8.0030 H   0  0  0  0  0  0  0  0  0  0  0  0
   10.0328    5.5392    8.3242 C   0  0  0  0  0  0  0  0  0  0  0  0
   10.1531    6.3472    7.0785 C   0  0  0  0  0  0  0  0  0  0  0  0
    9.7543    5.6796    5.8679 N   0  0  0  0  0  0  0  0  0  0  0  0
    8.6563    6.4610    5.2685 C   0  0  0  0  0  0  0  0  0  0  0  0
   10.8802    5.8769    4.9156 C   0  0  0  0  0  0  0  0  0  0  0  0
 26 27  1  0  0  0
 27 28  1  0  0  0
 27 11  1  0  0  0
 11 12  1  0  0  0
 12 13  2  0  0  0
 13  7  1  0  0  0
  7  8  2  0  0  0
  7  9  1  0  0  0
  9  1  1  0  0  0
  1  2  2  0  0  0
  2  3  1  0  0  0
  3  4  2  0  0  0
  4  5  1  0  0  0
  5 29  1  0  0  0
 29 30  1  0  0  0
 30 31  2  0  0  0
 31 32  1  0  0  0
 32 33  2  0  0  0
 33 34  1  0  0  0
 34 35  1  0  0  0
 35 36  2  0  0  0
 36 37  1  0  0  0
 37 38  2  0  0  0
 32 39  1  0  0  0
 39 40  2  0  0  0
 39 41  1  0  0  0
 41 43  1  0  0  0
 43 44  1  0  0  0
 44 45  1  0  0  0
 45 46  1  0  0  0
 45 47  1  0  0  0
  5  6  2  0  0  0
 13 14  1  0  0  0
 14 15  2  0  0  0
 14 16  1  0  0  0
 16 19  1  0  0  0
 19 20  2  0  0  0
 20 21  1  0  0  0
 21 22  2  0  0  0
 22 23  1  0  0  0
 22 24  1  0  0  0
 24 25  2  0  0  0
 16 17  1  0  0  0
 17 18  2  0  0  0
 17 11  1  0  0  0
  6  1  1  0  0  0
 25 19  1  0  0  0
 38 30  1  0  0  0
 38 34  1  0  0  0
  9 10  1  0  0  0
 41 42  1  0  0  0
M  END
> <minimizedAffinity>
-8.89875

> <CNNscore>
0.0793158635

> <CNNaffinity>
6.4546318054

> <CNN_VS>
0.5119547248

> <CNNaffinity_variance>
0.3433862627

$$$$
[H]c1nn2c([H])c(C(=O)N([H])C([H])([H])C([H])([H])N(C([H])([H])[H])C([H])([H])[H])c([H])c(Oc3c([H])c([H])c([H])c(N([H])C(=O)c4c([H])n(C([H])(C([H])([H])[H])C([H])([H])[H])c(=O)n(-c5c([H])c([H])c(F)c([H])c5[H])c4=O)c3[H])c2c1[H]


 47 51  0  0  0  0  0  0  0  0999 V2000
    3.5481    3.6838   15.0506 C   0  0  0  0  0  0  0  0  0  0  0  0
    2.9743    2.4070   15.1154 C   0  0  0  0  0  0  0  0  0  0  0  0
    2.6009    1.7868   13.9697 C   0  0  0  0  0  0  0  0  0  0  0  0
    2.7749    2.3842   12.7593 C   0  0  0  0  0  0  0  0  0  0  0  0
    3.3432    3.6549   12.6483 C   0  0  0  0  0  0  0  0  0  0  0  0
    3.7156    4.2668   13.8359 C   0  0  0  0  0  0  0  0  0  0  0  0
    3.1076    4.9378   17.1511 C   0  0  0  0  0  0  0  0  0  0  0  0
    1.9012    5.1288   16.9430 O   0  0  0  0  0  0  0  0  0  0  0  0
    3.9325    4.2470   16.2708 N   0  0  0  0  0  0  0  0  0  0  0  0
    4.9619    4.1466   16.5594 H   0  0  0  0  0  0  0  0  0  0  0  0
    4.3767    7.3026   19.7020 N   0  0  0  0  0  0  0  0  0  0  0  0
    3.8791    6.8407   18.5493 C   0  0  0  0  0  0  0  0  0  0  0  0
    3.6505    5.4880   18.4064 C   0  0  0  0  0  0  0  0  0  0  0  0
    3.9346    4.6321   19.4445 C   0  0  0  0  0  0  0  0  0  0  0  0
    3.7232    3.3758   19.3141 O   0  0  0  0  0  0  0  0  0  0  0  0
    4.4339    5.1442   20.5843 N   0  0  0  0  0  0  0  0  0  0  0  0
    4.6544    6.4636   20.7172 C   0  0  0  0  0  0  0  0  0  0  0  0
    5.1278    6.9596   21.7956 O   0  0  0  0  0  0  0  0  0  0  0  0
    4.7355    4.2815   21.6594 C   0  0  0  0  0  0  0  0  0  0  0  0
    3.8306    4.1681   22.6926 C   0  0  0  0  0  0  0  0  0  0  0  0
    4.0946    3.3351   23.7606 C   0  0  0  0  0  0  0  0  0  0  0  0
    5.2742    2.6155   23.7853 C   0  0  0  0  0  0  0  0  0  0  0  0
    5.5688    1.7800   24.8282 F   0  0  0  0  0  0  0  0  0  0  0  0
    6.1677    2.7456   22.7367 C   0  0  0  0  0  0  0  0  0  0  0  0
    5.9167    3.5737   21.6642 C   0  0  0  0  0  0  0  0  0  0  0  0
    5.9684    9.1558   19.3477 C   0  0  0  0  0  0  0  0  0  0  0  0
    4.6264    8.7144   19.8851 C   0  0  0  0  0  0  0  0  0  0  0  0
    3.5202    9.4675   19.1821 C   0  0  0  0  0  0  0  0  0  0  0  0
    3.5093    4.2244   11.4017 O   0  0  0  0  0  0  0  0  0  0  0  0
    4.6639    4.6157   10.8078 C   0  0  0  0  0  0  0  0  0  0  0  0
    5.3064    3.6940    9.9712 C   0  0  0  0  0  0  0  0  0  0  0  0
    6.4797    4.0182    9.3363 C   0  0  0  0  0  0  0  0  0  0  0  0
    7.0358    5.2450    9.5132 C   0  0  0  0  0  0  0  0  0  0  0  0
    6.4289    6.1454   10.3166 N   0  0  0  0  0  0  0  0  0  0  0  0
    6.8198    7.3800   10.6141 N   0  0  0  0  0  0  0  0  0  0  0  0
    5.9287    7.9279   11.4558 C   0  0  0  0  0  0  0  0  0  0  0  0
    4.9667    6.9739   11.6662 C   0  0  0  0  0  0  0  0  0  0  0  0
    5.2755    5.8352   10.9448 C   0  0  0  0  0  0  0  0  0  0  0  0
    7.1053    2.9870    8.4594 C   0  0  0  0  0  0  0  0  0  0  0  0
    7.2268    1.8663    8.9917 O   0  0  0  0  0  0  0  0  0  0  0  0
    7.4894    3.3306    7.1678 N   0  0  0  0  0  0  0  0  0  0  0  0
    7.3125    4.3741    6.8633 H   0  0  0  0  0  0  0  0  0  0  0  0
    8.0816    2.5632    6.1245 C   0  0  0  0  0  0  0  0  0  0  0  0
    9.5385    2.7942    5.9165 C   0  0  0  0  0  0  0  0  0  0  0  0
    9.9955    2.6738    4.5576 N   0  0  0  0  0  0  0  0  0  0  0  0
   10.2272    4.0363    4.0425 C   0  0  0  0  0  0  0  0  0  0  0  0
   11.3651    2.0999    4.6481 C   0  0  0  0  0  0  0  0  0  0  0  0
 26 27  1  0  0  0
 27 28  1  0  0  0
 27 11  1  0  0  0
 11 12  1  0  0  0
 12 13  2  0  0  0
 13  7  1  0  0  0
  7  8  2  0  0  0
  7  9  1  0  0  0
  9  1  1  0  0  0
  1  2  2  0  0  0
  2  3  1  0  0  0
  3  4  2  0  0  0
  4  5  1  0  0  0
  5 29  1  0  0  0
 29 30  1  0  0  0
 30 31  2  0  0  0
 31 32  1  0  0  0
 32 33  2  0  0  0
 33 34  1  0  0  0
 34 35  1  0  0  0
 35 36  2  0  0  0
 36 37  1  0  0  0
 37 38  2  0  0  0
 32 39  1  0  0  0
 39 40  2  0  0  0
 39 41  1  0  0  0
 41 43  1  0  0  0
 43 44  1  0  0  0
 44 45  1  0  0  0
 45 46  1  0  0  0
 45 47  1  0  0  0
  5  6  2  0  0  0
 13 14  1  0  0  0
 14 15  2  0  0  0
 14 16  1  0  0  0
 16 19  1  0  0  0
 19 20  2  0  0  0
 20 21  1  0  0  0
 21 22  2  0  0  0
 22 23  1  0  0  0
 22 24  1  0  0  0
 24 25  2  0  0  0
 16 17  1  0  0  0
 17 18  2  0  0  0
 17 11  1  0  0  0
  6  1  1  0  0  0
 25 19  1  0  0  0
 38 30  1  0  0  0
 38 34  1  0  0  0
  9 10  1  0  0  0
 41 42  1  0  0  0
M  END
> <minimizedAffinity>
-9.19783

> <CNNscore>
0.0736351386

> <CNNaffinity>
6.4046998024

> <CNN_VS>
0.4716109633

> <CNNaffinity_variance>
0.4719383717

$$$$
[H]c1nn2c([H])c(C(=O)N([H])C([H])([H])C([H])([H])N(C([H])([H])[H])C([H])([H])[H])c([H])c(Oc3c([H])c([H])c([H])c(N([H])C(=O)c4c([H])n(C([H])(C([H])([H])[H])C([H])([H])[H])c(=O)n(-c5c([H])c([H])c(F)c([H])c5[H])c4=O)c3[H])c2c1[H]


 47 51  0  0  0  0  0  0  0  0999 V2000
    3.8853    7.8023   16.2051 C   0  0  0  0  0  0  0  0  0  0  0  0
    3.8052    9.1042   15.6928 C   0  0  0  0  0  0  0  0  0  0  0  0
    3.3466    9.2956   14.4321 C   0  0  0  0  0  0  0  0  0  0  0  0
    2.9630    8.2445   13.6574 C   0  0  0  0  0  0  0  0  0  0  0  0
    3.0254    6.9311   14.1278 C   0  0  0  0  0  0  0  0  0  0  0  0
    3.4987    6.7638   15.4206 C   0  0  0  0  0  0  0  0  0  0  0  0
    5.6672    7.5699   17.9225 C   0  0  0  0  0  0  0  0  0  0  0  0
    6.6184    7.5606   17.1286 O   0  0  0  0  0  0  0  0  0  0  0  0
    4.3413    7.6873   17.5214 N   0  0  0  0  0  0  0  0  0  0  0  0
    3.6036    7.6816   18.3017 H   0  0  0  0  0  0  0  0  0  0  0  0
    7.0056    8.2913   21.2987 N   0  0  0  0  0  0  0  0  0  0  0  0
    6.7125    8.4391   20.0017 C   0  0  0  0  0  0  0  0  0  0  0  0
    6.0064    7.4482   19.3520 C   0  0  0  0  0  0  0  0  0  0  0  0
    5.6128    6.3245   20.0397 C   0  0  0  0  0  0  0  0  0  0  0  0
    4.9571    5.4033   19.4385 O   0  0  0  0  0  0  0  0  0  0  0  0
    5.9313    6.2214   21.3431 N   0  0  0  0  0  0  0  0  0  0  0  0
    6.6197    7.1908   21.9705 C   0  0  0  0  0  0  0  0  0  0  0  0
    6.9267    7.1024   23.2079 O   0  0  0  0  0  0  0  0  0  0  0  0
    5.5397    5.0740   22.0649 C   0  0  0  0  0  0  0  0  0  0  0  0
    4.3178    5.0766   22.7023 C   0  0  0  0  0  0  0  0  0  0  0  0
    3.9043    3.9721   23.4187 C   0  0  0  0  0  0  0  0  0  0  0  0
    4.7259    2.8632   23.4915 C   0  0  0  0  0  0  0  0  0  0  0  0
    4.3481    1.7505   24.1928 F   0  0  0  0  0  0  0  0  0  0  0  0
    5.9483    2.8837   22.8434 C   0  0  0  0  0  0  0  0  0  0  0  0
    6.3736    3.9799   22.1247 C   0  0  0  0  0  0  0  0  0  0  0  0
    9.0287    9.7054   21.3205 C   0  0  0  0  0  0  0  0  0  0  0  0
    7.7425    9.3114   22.0097 C   0  0  0  0  0  0  0  0  0  0  0  0
    6.8407   10.5175   22.1398 C   0  0  0  0  0  0  0  0  0  0  0  0
    2.6206    5.8921   13.3138 O   0  0  0  0  0  0  0  0  0  0  0  0
    1.8450    5.9528   12.2030 C   0  0  0  0  0  0  0  0  0  0  0  0
    2.4935    6.0478   10.9650 C   0  0  0  0  0  0  0  0  0  0  0  0
    1.7749    6.1143    9.7971 C   0  0  0  0  0  0  0  0  0  0  0  0
    0.4170    6.0892    9.8282 C   0  0  0  0  0  0  0  0  0  0  0  0
   -0.2238    5.9979   11.0138 N   0  0  0  0  0  0  0  0  0  0  0  0
   -1.5322    5.9659   11.2433 N   0  0  0  0  0  0  0  0  0  0  0  0
   -1.7400    5.8777   12.5668 C   0  0  0  0  0  0  0  0  0  0  0  0
   -0.4979    5.8568   13.1470 C   0  0  0  0  0  0  0  0  0  0  0  0
    0.4745    5.9322   12.1666 C   0  0  0  0  0  0  0  0  0  0  0  0
    2.5335    6.2119    8.5170 C   0  0  0  0  0  0  0  0  0  0  0  0
    1.8664    5.9289    7.5026 O   0  0  0  0  0  0  0  0  0  0  0  0
    3.8696    6.5966    8.5424 N   0  0  0  0  0  0  0  0  0  0  0  0
    4.3031    6.8034    9.5335 H   0  0  0  0  0  0  0  0  0  0  0  0
    4.8159    6.7880    7.4956 C   0  0  0  0  0  0  0  0  0  0  0  0
    5.4919    8.1154    7.4873 C   0  0  0  0  0  0  0  0  0  0  0  0
    4.7859    9.1643    6.8006 N   0  0  0  0  0  0  0  0  0  0  0  0
    5.7795   10.1704    6.3812 C   0  0  0  0  0  0  0  0  0  0  0  0
    4.3356    8.5651    5.5154 C   0  0  0  0  0  0  0  0  0  0  0  0
 26 27  1  0  0  0
 27 28  1  0  0  0
 27 11  1  0  0  0
 11 12  1  0  0  0
 12 13  2  0  0  0
 13  7  1  0  0  0
  7  8  2  0  0  0
  7  9  1  0  0  0
  9  1  1  0  0  0
  1  2  2  0  0  0
  2  3  1  0  0  0
  3  4  2  0  0  0
  4  5  1  0  0  0
  5 29  1  0  0  0
 29 30  1  0  0  0
 30 31  2  0  0  0
 31 32  1  0  0  0
 32 33  2  0  0  0
 33 34  1  0  0  0
 34 35  1  0  0  0
 35 36  2  0  0  0
 36 37  1  0  0  0
 37 38  2  0  0  0
 32 39  1  0  0  0
 39 40  2  0  0  0
 39 41  1  0  0  0
 41 43  1  0  0  0
 43 44  1  0  0  0
 44 45  1  0  0  0
 45 46  1  0  0  0
 45 47  1  0  0  0
  5  6  2  0  0  0
 13 14  1  0  0  0
 14 15  2  0  0  0
 14 16  1  0  0  0
 16 19  1  0  0  0
 19 20  2  0  0  0
 20 21  1  0  0  0
 21 22  2  0  0  0
 22 23  1  0  0  0
 22 24  1  0  0  0
 24 25  2  0  0  0
 16 17  1  0  0  0
 17 18  2  0  0  0
 17 11  1  0  0  0
  6  1  1  0  0  0
 25 19  1  0  0  0
 38 30  1  0  0  0
 38 34  1  0  0  0
  9 10  1  0  0  0
 41 42  1  0  0  0
M  END
> <minimizedAffinity>
-8.16621

> <CNNscore>
0.0638308302

> <CNNaffinity>
6.0491423607

> <CNN_VS>
0.3861217797

> <CNNaffinity_variance>
0.3742329478

$$$$
[H]c1nn2c([H])c(C(=O)N([H])C([H])([H])C([H])([H])N(C([H])([H])[H])C([H])([H])[H])c([H])c(Oc3c([H])c([H])c([H])c(N([H])C(=O)c4c([H])n(C([H])(C([H])([H])[H])C([H])([H])[H])c(=O)n(-c5c([H])c([H])c(F)c([H])c5[H])c4=O)c3[H])c2c1[H]


 47 51  0  0  0  0  0  0  0  0999 V2000
    3.3988    2.6981   16.4678 C   0  0  0  0  0  0  0  0  0  0  0  0
    2.6074    1.5490   16.3366 C   0  0  0  0  0  0  0  0  0  0  0  0
    2.6782    0.5812   17.2826 C   0  0  0  0  0  0  0  0  0  0  0  0
    3.5046    0.7084   18.3564 C   0  0  0  0  0  0  0  0  0  0  0  0
    4.3097    1.8365   18.5273 C   0  0  0  0  0  0  0  0  0  0  0  0
    4.2180    2.8108   17.5446 C   0  0  0  0  0  0  0  0  0  0  0  0
    2.5399    4.8534   15.5758 C   0  0  0  0  0  0  0  0  0  0  0  0
    1.9474    5.1992   16.6076 O   0  0  0  0  0  0  0  0  0  0  0  0
    3.2504    3.6634   15.4678 N   0  0  0  0  0  0  0  0  0  0  0  0
    3.7212    3.4719   14.5219 H   0  0  0  0  0  0  0  0  0  0  0  0
    3.0065    7.8166   13.4052 N   0  0  0  0  0  0  0  0  0  0  0  0
    3.1058    6.9994   14.4597 C   0  0  0  0  0  0  0  0  0  0  0  0
    2.4597    5.7810   14.4329 C   0  0  0  0  0  0  0  0  0  0  0  0
    1.7241    5.4202   13.3286 C   0  0  0  0  0  0  0  0  0  0  0  0
    1.1235    4.2895   13.3014 O   0  0  0  0  0  0  0  0  0  0  0  0
    1.6539    6.2761   12.2926 N   0  0  0  0  0  0  0  0  0  0  0  0
    2.2859    7.4621   12.3251 C   0  0  0  0  0  0  0  0  0  0  0  0
    2.2257    8.2816   11.3463 O   0  0  0  0  0  0  0  0  0  0  0  0
    0.9007    5.9255   11.1521 C   0  0  0  0  0  0  0  0  0  0  0  0
   -0.4399    6.2433   11.1195 C   0  0  0  0  0  0  0  0  0  0  0  0
   -1.2068    5.9134   10.0207 C   0  0  0  0  0  0  0  0  0  0  0  0
   -0.6188    5.2619    8.9531 C   0  0  0  0  0  0  0  0  0  0  0  0
   -1.3486    4.9197    7.8472 F   0  0  0  0  0  0  0  0  0  0  0  0
    0.7289    4.9531    9.0084 C   0  0  0  0  0  0  0  0  0  0  0  0
    1.5062    5.2766   10.0994 C   0  0  0  0  0  0  0  0  0  0  0  0
    3.2463    9.9951   14.5410 C   0  0  0  0  0  0  0  0  0  0  0  0
    3.6723    9.0995   13.4004 C   0  0  0  0  0  0  0  0  0  0  0  0
    5.1595    8.8410   13.4799 C   0  0  0  0  0  0  0  0  0  0  0  0
    5.1298    1.9314   19.6338 O   0  0  0  0  0  0  0  0  0  0  0  0
    5.0403    2.8025   20.6692 C   0  0  0  0  0  0  0  0  0  0  0  0
    5.3246    4.1492   20.4088 C   0  0  0  0  0  0  0  0  0  0  0  0
    5.2560    5.0891   21.4072 C   0  0  0  0  0  0  0  0  0  0  0  0
    4.9098    4.7219   22.6685 C   0  0  0  0  0  0  0  0  0  0  0  0
    4.6325    3.4273   22.9363 N   0  0  0  0  0  0  0  0  0  0  0  0
    4.2850    2.8818   24.0970 N   0  0  0  0  0  0  0  0  0  0  0  0
    4.1088    1.5623   23.9226 C   0  0  0  0  0  0  0  0  0  0  0  0
    4.3638    1.3156   22.5982 C   0  0  0  0  0  0  0  0  0  0  0  0
    4.6975    2.4968   21.9611 C   0  0  0  0  0  0  0  0  0  0  0  0
    5.5702    6.5036   21.0551 C   0  0  0  0  0  0  0  0  0  0  0  0
    6.5574    6.6387   20.3060 O   0  0  0  0  0  0  0  0  0  0  0  0
    4.7752    7.5262   21.5613 N   0  0  0  0  0  0  0  0  0  0  0  0
    3.9436    7.2239   22.2171 H   0  0  0  0  0  0  0  0  0  0  0  0
    4.8276    8.9380   21.3822 C   0  0  0  0  0  0  0  0  0  0  0  0
    4.8128    9.3981   19.9655 C   0  0  0  0  0  0  0  0  0  0  0  0
    3.6586    9.0071   19.2007 N   0  0  0  0  0  0  0  0  0  0  0  0
    3.0531   10.2332   18.6482 C   0  0  0  0  0  0  0  0  0  0  0  0
    4.1945    8.3132   17.9986 C   0  0  0  0  0  0  0  0  0  0  0  0
 26 27  1  0  0  0
 27 28  1  0  0  0
 27 11  1  0  0  0
 11 12  1  0  0  0
 12 13  2  0  0  0
 13  7  1  0  0  0
  7  8  2  0  0  0
  7  9  1  0  0  0
  9  1  1  0  0  0
  1  2  2  0  0  0
  2  3  1  0  0  0
  3  4  2  0  0  0
  4  5  1  0  0  0
  5 29  1  0  0  0
 29 30  1  0  0  0
 30 31  2  0  0  0
 31 32  1  0  0  0
 32 33  2  0  0  0
 33 34  1  0  0  0
 34 35  1  0  0  0
 35 36  2  0  0  0
 36 37  1  0  0  0
 37 38  2  0  0  0
 32 39  1  0  0  0
 39 40  2  0  0  0
 39 41  1  0  0  0
 41 43  1  0  0  0
 43 44  1  0  0  0
 44 45  1  0  0  0
 45 46  1  0  0  0
 45 47  1  0  0  0
  5  6  2  0  0  0
 13 14  1  0  0  0
 14 15  2  0  0  0
 14 16  1  0  0  0
 16 19  1  0  0  0
 19 20  2  0  0  0
 20 21  1  0  0  0
 21 22  2  0  0  0
 22 23  1  0  0  0
 22 24  1  0  0  0
 24 25  2  0  0  0
 16 17  1  0  0  0
 17 18  2  0  0  0
 17 11  1  0  0  0
  6  1  1  0  0  0
 25 19  1  0  0  0
 38 30  1  0  0  0
 38 34  1  0  0  0
  9 10  1  0  0  0
 41 42  1  0  0  0
M  END
> <minimizedAffinity>
-9.62898

> <CNNscore>
0.0633907095

> <CNNaffinity>
6.7890028954

> <CNN_VS>
0.4303597212

> <CNNaffinity_variance>
0.3681024611

$$$$
[H]c1nc2c(c(N([H])[H])n1)C([H])([H])C([H])([H])O2


 12 13  0  0  0  0  0  0  0  0999 V2000
    2.5819   -0.8863   20.7079 N   0  0  0  0  0  0  0  0  0  0  0  0
    2.8802   -0.1809   19.5264 C   0  0  0  0  0  0  0  0  0  0  0  0
    2.5082   -0.5838   18.2993 N   0  0  0  0  0  0  0  0  0  0  0  0
    2.8262    0.1380   17.2108 C   0  0  0  0  0  0  0  0  0  0  0  0
    3.5248    1.2846   17.3060 N   0  0  0  0  0  0  0  0  0  0  0  0
    3.9379    1.7590   18.5166 C   0  0  0  0  0  0  0  0  0  0  0  0
    4.6581    2.8887   18.9119 O   0  0  0  0  0  0  0  0  0  0  0  0
    5.3330    2.4650   20.1057 C   0  0  0  0  0  0  0  0  0  0  0  0
    4.1700    1.7438   20.7933 C   0  0  0  0  0  0  0  0  0  0  0  0
    3.6019    1.0044   19.6215 C   0  0  0  0  0  0  0  0  0  0  0  0
    3.1214   -1.7252   20.9563 H   0  0  0  0  0  0  0  0  0  0  0  0
    1.8228   -0.5570   21.3181 H   0  0  0  0  0  0  0  0  0  0  0  0
  1  2  1  0  0  0
  2  3  2  0  0  0
  3  4  1  0  0  0
  4  5  2  0  0  0
  5  6  1  0  0  0
  6  7  1  0  0  0
  7  8  1  0  0  0
  8  9  1  0  0  0
  9 10  1  0  0  0
 10  2  1  0  0  0
 10  6  2  0  0  0
  1 11  1  0  0  0
  1 12  1  0  0  0
M  END
> <minimizedAffinity>
-4.58061

> <CNNscore>
0.9134988785

> <CNNaffinity>
4.3642983437

> <CNN_VS>
3.9867815971

> <CNNaffinity_variance>
0.3158973753

$$$$
[H]c1nc2c(c(N([H])[H])n1)C([H])([H])C([H])([H])O2


 12 13  0  0  0  0  0  0  0  0999 V2000
    4.9063    2.7896   17.4592 N   0  0  0  0  0  0  0  0  0  0  0  0
    4.0238    1.7102   17.6556 C   0  0  0  0  0  0  0  0  0  0  0  0
    3.2831    1.1609   16.6778 N   0  0  0  0  0  0  0  0  0  0  0  0
    2.4589    0.1303   16.9335 C   0  0  0  0  0  0  0  0  0  0  0  0
    2.3435   -0.3887   18.1701 N   0  0  0  0  0  0  0  0  0  0  0  0
    3.0624    0.1146   19.2148 C   0  0  0  0  0  0  0  0  0  0  0  0
    3.1461   -0.2119   20.5704 O   0  0  0  0  0  0  0  0  0  0  0  0
    3.4718    1.0341   21.2039 C   0  0  0  0  0  0  0  0  0  0  0  0
    4.5548    1.5177   20.2351 C   0  0  0  0  0  0  0  0  0  0  0  0
    3.9024    1.1718   18.9323 C   0  0  0  0  0  0  0  0  0  0  0  0
    4.5386    3.7455   17.3721 H   0  0  0  0  0  0  0  0  0  0  0  0
    5.9180    2.6149   17.4037 H   0  0  0  0  0  0  0  0  0  0  0  0
  1  2  1  0  0  0
  2  3  2  0  0  0
  3  4  1  0  0  0
  4  5  2  0  0  0
  5  6  1  0  0  0
  6  7  1  0  0  0
  7  8  1  0  0  0
  8  9  1  0  0  0
  9 10  1  0  0  0
 10  2  1  0  0  0
 10  6  2  0  0  0
  1 11  1  0  0  0
  1 12  1  0  0  0
M  END
> <minimizedAffinity>
-4.66425

> <CNNscore>
0.7501187921

> <CNNaffinity>
4.0141587257

> <CNN_VS>
3.0110960007

> <CNNaffinity_variance>
0.2805237472

$$$$
[H]c1nc2c(c(N([H])[H])n1)C([H])([H])C([H])([H])O2


 12 13  0  0  0  0  0  0  0  0999 V2000
    2.5003   -0.6792   19.2095 N   0  0  0  0  0  0  0  0  0  0  0  0
    3.0594    0.2694   20.0872 C   0  0  0  0  0  0  0  0  0  0  0  0
    2.8364    0.2863   21.4125 N   0  0  0  0  0  0  0  0  0  0  0  0
    3.4023    1.2214   22.1949 C   0  0  0  0  0  0  0  0  0  0  0  0
    4.2089    2.1712   21.6857 N   0  0  0  0  0  0  0  0  0  0  0  0
    4.4833    2.2199   20.3501 C   0  0  0  0  0  0  0  0  0  0  0  0
    5.2628    3.0669   19.5588 O   0  0  0  0  0  0  0  0  0  0  0  0
    4.6062    3.0448   18.2827 C   0  0  0  0  0  0  0  0  0  0  0  0
    4.3573    1.5380   18.1692 C   0  0  0  0  0  0  0  0  0  0  0  0
    3.8934    1.2519   19.5640 C   0  0  0  0  0  0  0  0  0  0  0  0
    1.5188   -0.5935   18.9168 H   0  0  0  0  0  0  0  0  0  0  0  0
    3.0796   -1.4556   18.8649 H   0  0  0  0  0  0  0  0  0  0  0  0
  1  2  1  0  0  0
  2  3  2  0  0  0
  3  4  1  0  0  0
  4  5  2  0  0  0
  5  6  1  0  0  0
  6  7  1  0  0  0
  7  8  1  0  0  0
  8  9  1  0  0  0
  9 10  1  0  0  0
 10  2  1  0  0  0
 10  6  2  0  0  0
  1 11  1  0  0  0
  1 12  1  0  0  0
M  END
> <minimizedAffinity>
-4.92071

> <CNNscore>
0.5775345564

> <CNNaffinity>
3.8880565166

> <CNN_VS>
2.2454869747

> <CNNaffinity_variance>
0.4475527406

$$$$
[H]c1nc2c(c(N([H])[H])n1)C([H])([H])C([H])([H])O2


 12 13  0  0  0  0  0  0  0  0999 V2000
    2.4687   -0.6991   19.4209 N   0  0  0  0  0  0  0  0  0  0  0  0
    3.2306    0.4545   19.1542 C   0  0  0  0  0  0  0  0  0  0  0  0
    3.8947    1.1475   20.0951 N   0  0  0  0  0  0  0  0  0  0  0  0
    4.6048    2.2423   19.7723 C   0  0  0  0  0  0  0  0  0  0  0  0
    4.6784    2.6847   18.5031 N   0  0  0  0  0  0  0  0  0  0  0  0
    4.0319    2.0350   17.4925 C   0  0  0  0  0  0  0  0  0  0  0  0
    3.9301    2.2564   16.1171 O   0  0  0  0  0  0  0  0  0  0  0  0
    2.6422    1.7215   15.7777 C   0  0  0  0  0  0  0  0  0  0  0  0
    2.7144    0.4099   16.5650 C   0  0  0  0  0  0  0  0  0  0  0  0
    3.3087    0.9140   17.8437 C   0  0  0  0  0  0  0  0  0  0  0  0
    1.5337   -0.6128   19.8391 H   0  0  0  0  0  0  0  0  0  0  0  0
    2.8535   -1.6254   19.1950 H   0  0  0  0  0  0  0  0  0  0  0  0
  1  2  1  0  0  0
  2  3  2  0  0  0
  3  4  1  0  0  0
  4  5  2  0  0  0
  5  6  1  0  0  0
  6  7  1  0  0  0
  7  8  1  0  0  0
  8  9  1  0  0  0
  9 10  1  0  0  0
 10  2  1  0  0  0
 10  6  2  0  0  0
  1 11  1  0  0  0
  1 12  1  0  0  0
M  END
> <minimizedAffinity>
-4.61806

> <CNNscore>
0.5636403561

> <CNNaffinity>
3.7371201515

> <CNN_VS>
2.1063916683

> <CNNaffinity_variance>
0.4896251559

$$$$
[H]c1nc2c(c(N([H])[H])n1)C([H])([H])C([H])([H])O2


 12 13  0  0  0  0  0  0  0  0999 V2000
    2.9010   -0.8205   20.6008 N   0  0  0  0  0  0  0  0  0  0  0  0
    3.4315    0.4496   20.3042 C   0  0  0  0  0  0  0  0  0  0  0  0
    3.6923    0.8798   19.0579 N   0  0  0  0  0  0  0  0  0  0  0  0
    4.1994    2.1062   18.8439 C   0  0  0  0  0  0  0  0  0  0  0  0
    4.4641    2.9459   19.8621 N   0  0  0  0  0  0  0  0  0  0  0  0
    4.2263    2.5815   21.1552 C   0  0  0  0  0  0  0  0  0  0  0  0
    4.3976    3.2256   22.3828 O   0  0  0  0  0  0  0  0  0  0  0  0
    4.6415    2.1513   23.3028 C   0  0  0  0  0  0  0  0  0  0  0  0
    3.5473    1.1863   22.8373 C   0  0  0  0  0  0  0  0  0  0  0  0
    3.7059    1.3195   21.3542 C   0  0  0  0  0  0  0  0  0  0  0  0
    3.5075   -1.6500   20.5759 H   0  0  0  0  0  0  0  0  0  0  0  0
    1.9056   -0.9115   20.8417 H   0  0  0  0  0  0  0  0  0  0  0  0
  1  2  1  0  0  0
  2  3  2  0  0  0
  3  4  1  0  0  0
  4  5  2  0  0  0
  5  6  1  0  0  0
  6  7  1  0  0  0
  7  8  1  0  0  0
  8  9  1  0  0  0
  9 10  1  0  0  0
 10  2  1  0  0  0
 10  6  2  0  0  0
  1 11  1  0  0  0
  1 12  1  0  0  0
M  END
> <minimizedAffinity>
-4.70408

> <CNNscore>
0.5620080829

> <CNNaffinity>
3.9218795300

> <CNN_VS>
2.2041280270

> <CNNaffinity_variance>
0.5032366514

$$$$
[H]c1nc2c(c(N([H])[H])n1)C([H])([H])C([H])([H])O2


 12 13  0  0  0  0  0  0  0  0999 V2000
    4.4513    1.5069   22.4501 N   0  0  0  0  0  0  0  0  0  0  0  0
    3.9914    1.1851   21.1588 C   0  0  0  0  0  0  0  0  0  0  0  0
    3.3657    0.0359   20.8514 N   0  0  0  0  0  0  0  0  0  0  0  0
    2.9514   -0.2091   19.5963 C   0  0  0  0  0  0  0  0  0  0  0  0
    3.1452    0.6804   18.6048 N   0  0  0  0  0  0  0  0  0  0  0  0
    3.7724    1.8693   18.8382 C   0  0  0  0  0  0  0  0  0  0  0  0
    4.1042    2.9571   18.0270 O   0  0  0  0  0  0  0  0  0  0  0  0
    5.2853    3.4947   18.6401 C   0  0  0  0  0  0  0  0  0  0  0  0
    4.8337    3.4541   20.1029 C   0  0  0  0  0  0  0  0  0  0  0  0
    4.1901    2.1023   20.1322 C   0  0  0  0  0  0  0  0  0  0  0  0
    5.3179    1.0854   22.8075 H   0  0  0  0  0  0  0  0  0  0  0  0
    3.9153    2.1647   23.0308 H   0  0  0  0  0  0  0  0  0  0  0  0
  1  2  1  0  0  0
  2  3  2  0  0  0
  3  4  1  0  0  0
  4  5  2  0  0  0
  5  6  1  0  0  0
  6  7  1  0  0  0
  7  8  1  0  0  0
  8  9  1  0  0  0
  9 10  1  0  0  0
 10  2  1  0  0  0
 10  6  2  0  0  0
  1 11  1  0  0  0
  1 12  1  0  0  0
M  END
> <minimizedAffinity>
-3.82385

> <CNNscore>
0.4989857078

> <CNNaffinity>
3.8310256004

> <CNN_VS>
1.9116270542

> <CNNaffinity_variance>
0.4276871085

$$$$
[H]c1nc2c(c(N([H])[H])n1)C([H])([H])C([H])([H])O2


 12 13  0  0  0  0  0  0  0  0999 V2000
    5.4163    3.7916   21.3479 N   0  0  0  0  0  0  0  0  0  0  0  0
    4.6321    2.6279   21.2329 C   0  0  0  0  0  0  0  0  0  0  0  0
    4.1926    1.9142   22.2835 N   0  0  0  0  0  0  0  0  0  0  0  0
    3.4463    0.8107   22.1036 C   0  0  0  0  0  0  0  0  0  0  0  0
    3.1120    0.3799   20.8729 N   0  0  0  0  0  0  0  0  0  0  0  0
    3.5202    1.0507   19.7572 C   0  0  0  0  0  0  0  0  0  0  0  0
    3.3315    0.8450   18.3885 O   0  0  0  0  0  0  0  0  0  0  0  0
    4.5104    1.4053   17.7916 C   0  0  0  0  0  0  0  0  0  0  0  0
    4.5875    2.7075   18.5939 C   0  0  0  0  0  0  0  0  0  0  0  0
    4.2850    2.1804   19.9625 C   0  0  0  0  0  0  0  0  0  0  0  0
    6.4199    3.7171   21.5575 H   0  0  0  0  0  0  0  0  0  0  0  0
    4.9789    4.7134   21.2210 H   0  0  0  0  0  0  0  0  0  0  0  0
  1  2  1  0  0  0
  2  3  2  0  0  0
  3  4  1  0  0  0
  4  5  2  0  0  0
  5  6  1  0  0  0
  6  7  1  0  0  0
  7  8  1  0  0  0
  8  9  1  0  0  0
  9 10  1  0  0  0
 10  2  1  0  0  0
 10  6  2  0  0  0
  1 11  1  0  0  0
  1 12  1  0  0  0
M  END
> <minimizedAffinity>
-4.33408

> <CNNscore>
0.4775706232

> <CNNaffinity>
3.8547596931

> <CNN_VS>
1.8409199715

> <CNNaffinity_variance>
0.3752077520

$$$$
[H]c1nc2c(c(N([H])[H])n1)C([H])([H])C([H])([H])O2


 12 13  0  0  0  0  0  0  0  0999 V2000
    4.6898    2.4684   18.9503 N   0  0  0  0  0  0  0  0  0  0  0  0
    4.1829    1.9648   20.1635 C   0  0  0  0  0  0  0  0  0  0  0  0
    3.5720    0.7736   20.2831 N   0  0  0  0  0  0  0  0  0  0  0  0
    3.1104    0.3519   21.4730 C   0  0  0  0  0  0  0  0  0  0  0  0
    3.2408    1.1006   22.5841 N   0  0  0  0  0  0  0  0  0  0  0  0
    3.8493    2.3210   22.5433 C   0  0  0  0  0  0  0  0  0  0  0  0
    4.1207    3.2930   23.5091 O   0  0  0  0  0  0  0  0  0  0  0  0
    4.1058    4.5237   22.7709 C   0  0  0  0  0  0  0  0  0  0  0  0
    4.9262    4.0821   21.5554 C   0  0  0  0  0  0  0  0  0  0  0  0
    4.3163    2.7361   21.3134 C   0  0  0  0  0  0  0  0  0  0  0  0
    4.0501    2.8671   18.2515 H   0  0  0  0  0  0  0  0  0  0  0  0
    5.7013    2.4343   18.7693 H   0  0  0  0  0  0  0  0  0  0  0  0
  1  2  1  0  0  0
  2  3  2  0  0  0
  3  4  1  0  0  0
  4  5  2  0  0  0
  5  6  1  0  0  0
  6  7  1  0  0  0
  7  8  1  0  0  0
  8  9  1  0  0  0
  9 10  1  0  0  0
 10  2  1  0  0  0
 10  6  2  0  0  0
  1 11  1  0  0  0
  1 12  1  0  0  0
M  END
> <minimizedAffinity>
-4.54085

> <CNNscore>
0.4488723278

> <CNNaffinity>
3.7678959370

> <CNN_VS>
1.6913042068

> <CNNaffinity_variance>
0.3342596889

$$$$
[H]c1nc2c(c(N([H])[H])n1)C([H])([H])C([H])([H])O2


 12 13  0  0  0  0  0  0  0  0999 V2000
    4.0025    6.1991   22.1269 N   0  0  0  0  0  0  0  0  0  0  0  0
    4.7952    6.4801   20.9977 C   0  0  0  0  0  0  0  0  0  0  0  0
    5.1737    5.5549   20.0993 N   0  0  0  0  0  0  0  0  0  0  0  0
    5.9322    5.8908   19.0416 C   0  0  0  0  0  0  0  0  0  0  0  0
    6.3397    7.1581   18.8417 N   0  0  0  0  0  0  0  0  0  0  0  0
    5.9963    8.1532   19.7096 C   0  0  0  0  0  0  0  0  0  0  0  0
    6.2660    9.5229   19.7574 O   0  0  0  0  0  0  0  0  0  0  0  0
    6.2546    9.8261   21.1602 C   0  0  0  0  0  0  0  0  0  0  0  0
    4.9952    9.0522   21.5607 C   0  0  0  0  0  0  0  0  0  0  0  0
    5.2178    7.7887   20.7885 C   0  0  0  0  0  0  0  0  0  0  0  0
    4.4220    5.7512   22.9515 H   0  0  0  0  0  0  0  0  0  0  0  0
    3.0040    6.4444   22.1203 H   0  0  0  0  0  0  0  0  0  0  0  0
  1  2  1  0  0  0
  2  3  2  0  0  0
  3  4  1  0  0  0
  4  5  2  0  0  0
  5  6  1  0  0  0
  6  7  1  0  0  0
  7  8  1  0  0  0
  8  9  1  0  0  0
  9 10  1  0  0  0
 10  2  1  0  0  0
 10  6  2  0  0  0
  1 11  1  0  0  0
  1 12  1  0  0  0
M  END
> <minimizedAffinity>
-4.32092

> <CNNscore>
0.4254650772

> <CNNaffinity>
3.3697371483

> <CNN_VS>
1.4337054491

> <CNNaffinity_variance>
0.5267959833

$$$$
[H]c1c(-c2c([H])c(C(=O)N([H])[H])c([H])n2[H])noc1-c1c([H])c([H])c(C(=O)N([H])C([H])([H])C([H])([H])N([H])C([H])([H])[H])c([H])c1[H]


 31 33  0  0  0  0  0  0  0  0999 V2000
    3.2828    1.6661   16.4548 C   0  0  0  0  0  0  0  0  0  0  0  0
    3.6529    2.1176   17.7018 C   0  0  0  0  0  0  0  0  0  0  0  0
    3.4242    1.0847   18.5544 C   0  0  0  0  0  0  0  0  0  0  0  0
    2.9404    0.0767   17.8233 N   0  0  0  0  0  0  0  0  0  0  0  0
    2.8638    0.4333   16.5966 O   0  0  0  0  0  0  0  0  0  0  0  0
    3.5372    3.9853   12.9128 C   0  0  0  0  0  0  0  0  0  0  0  0
    4.0293    4.4669   14.0771 C   0  0  0  0  0  0  0  0  0  0  0  0
    3.9340    3.6796   15.2413 C   0  0  0  0  0  0  0  0  0  0  0  0
    3.3529    2.4406   15.2089 C   0  0  0  0  0  0  0  0  0  0  0  0
    2.8651    1.9857   14.0086 C   0  0  0  0  0  0  0  0  0  0  0  0
    2.9487    2.7437   12.8519 C   0  0  0  0  0  0  0  0  0  0  0  0
    4.0910    6.1239   11.6950 N   0  0  0  0  0  0  0  0  0  0  0  0
    3.6163    4.8081   11.6615 C   0  0  0  0  0  0  0  0  0  0  0  0
    3.2423    4.2708   10.6023 O   0  0  0  0  0  0  0  0  0  0  0  0
    4.3691    6.4388   12.7035 H   0  0  0  0  0  0  0  0  0  0  0  0
    4.2402    7.0536   10.6480 C   0  0  0  0  0  0  0  0  0  0  0  0
    5.5768    7.3844   10.1149 C   0  0  0  0  0  0  0  0  0  0  0  0
    7.3271    8.1194   11.5691 C   0  0  0  0  0  0  0  0  0  0  0  0
    6.2679    8.5232   10.6176 N   0  0  0  0  0  0  0  0  0  0  0  0
    5.6019    9.0998   11.1494 H   0  0  0  0  0  0  0  0  0  0  0  0
    3.6593    1.0656   20.0174 C   0  0  0  0  0  0  0  0  0  0  0  0
    4.3876    1.9950   20.7279 C   0  0  0  0  0  0  0  0  0  0  0  0
    4.4013    1.6657   22.0675 C   0  0  0  0  0  0  0  0  0  0  0  0
    3.6598    0.5086   22.1519 C   0  0  0  0  0  0  0  0  0  0  0  0
    3.2325    0.1762   20.9196 N   0  0  0  0  0  0  0  0  0  0  0  0
    2.6458   -0.6654   20.7037 H   0  0  0  0  0  0  0  0  0  0  0  0
    5.0405    2.3481   23.1876 C   0  0  0  0  0  0  0  0  0  0  0  0
    5.9795    3.3961   22.9894 N   0  0  0  0  0  0  0  0  0  0  0  0
    4.7799    2.0291   24.3694 O   0  0  0  0  0  0  0  0  0  0  0  0
    5.6810    4.3030   22.5735 H   0  0  0  0  0  0  0  0  0  0  0  0
    6.9827    3.3010   23.2468 H   0  0  0  0  0  0  0  0  0  0  0  0
 18 19  1  0  0  0
 19 17  1  0  0  0
 17 16  1  0  0  0
 16 12  1  0  0  0
 12 13  1  0  0  0
 13 14  2  0  0  0
 13  6  1  0  0  0
  6  7  2  0  0  0
  7  8  1  0  0  0
  8  9  2  0  0  0
  9 10  1  0  0  0
 10 11  2  0  0  0
  9  1  1  0  0  0
  1  2  2  0  0  0
  2  3  1  0  0  0
  3  4  2  0  0  0
  4  5  1  0  0  0
  3 21  1  0  0  0
 21 22  2  0  0  0
 22 23  1  0  0  0
 23 24  2  0  0  0
 24 25  1  0  0  0
 23 27  1  0  0  0
 27 28  1  0  0  0
 27 29  2  0  0  0
 11  6  1  0  0  0
  5  1  1  0  0  0
 25 21  1  0  0  0
 19 20  1  0  0  0
 12 15  1  0  0  0
 25 26  1  0  0  0
 28 30  1  0  0  0
 28 31  1  0  0  0
M  END
> <minimizedAffinity>
-7.39619

> <CNNscore>
0.9308041930

> <CNNaffinity>
6.3221826553

> <CNN_VS>
5.8847141266

> <CNNaffinity_variance>
0.3144530654

$$$$
[H]c1c(-c2c([H])c(C(=O)N([H])[H])c([H])n2[H])noc1-c1c([H])c([H])c(C(=O)N([H])C([H])([H])C([H])([H])N([H])C([H])([H])[H])c([H])c1[H]


 31 33  0  0  0  0  0  0  0  0999 V2000
    3.3401    1.6460   16.6770 C   0  0  0  0  0  0  0  0  0  0  0  0
    3.6251    2.1661   17.9195 C   0  0  0  0  0  0  0  0  0  0  0  0
    3.4811    1.1374   18.7954 C   0  0  0  0  0  0  0  0  0  0  0  0
    3.1263    0.0655   18.0814 N   0  0  0  0  0  0  0  0  0  0  0  0
    3.0482    0.3801   16.8433 O   0  0  0  0  0  0  0  0  0  0  0  0
    3.4617    3.8827   13.0753 C   0  0  0  0  0  0  0  0  0  0  0  0
    3.9613    4.4068   14.2179 C   0  0  0  0  0  0  0  0  0  0  0  0
    3.9103    3.6464   15.4025 C   0  0  0  0  0  0  0  0  0  0  0  0
    3.3646    2.3910   15.4114 C   0  0  0  0  0  0  0  0  0  0  0  0
    2.8678    1.8927   14.2322 C   0  0  0  0  0  0  0  0  0  0  0  0
    2.9081    2.6239   13.0560 C   0  0  0  0  0  0  0  0  0  0  0  0
    2.3750    5.4024   11.3803 N   0  0  0  0  0  0  0  0  0  0  0  0
    3.4937    4.6761   11.8031 C   0  0  0  0  0  0  0  0  0  0  0  0
    4.5518    4.6573   11.1470 O   0  0  0  0  0  0  0  0  0  0  0  0
    1.5322    5.3035   12.0684 H   0  0  0  0  0  0  0  0  0  0  0  0
    2.2004    6.1985   10.2321 C   0  0  0  0  0  0  0  0  0  0  0  0
    2.6660    7.5993   10.2048 C   0  0  0  0  0  0  0  0  0  0  0  0
    4.8618    7.6200    9.2580 C   0  0  0  0  0  0  0  0  0  0  0  0
    4.0375    7.8854   10.4581 N   0  0  0  0  0  0  0  0  0  0  0  0
    4.3737    7.2457   11.1906 H   0  0  0  0  0  0  0  0  0  0  0  0
    3.6748    1.1811   20.2639 C   0  0  0  0  0  0  0  0  0  0  0  0
    4.5582    1.9984   20.9354 C   0  0  0  0  0  0  0  0  0  0  0  0
    4.4758    1.7734   22.2939 C   0  0  0  0  0  0  0  0  0  0  0  0
    3.5164    0.7954   22.4301 C   0  0  0  0  0  0  0  0  0  0  0  0
    3.0588    0.4633   21.2086 N   0  0  0  0  0  0  0  0  0  0  0  0
    2.3208   -0.2594   21.0294 H   0  0  0  0  0  0  0  0  0  0  0  0
    5.2133    2.3974   23.3874 C   0  0  0  0  0  0  0  0  0  0  0  0
    6.0995    3.4864   23.1683 N   0  0  0  0  0  0  0  0  0  0  0  0
    5.0878    1.9895   24.5640 O   0  0  0  0  0  0  0  0  0  0  0  0
    5.7360    4.4097   22.8520 H   0  0  0  0  0  0  0  0  0  0  0  0
    7.1264    3.4063   23.3121 H   0  0  0  0  0  0  0  0  0  0  0  0
 18 19  1  0  0  0
 19 17  1  0  0  0
 17 16  1  0  0  0
 16 12  1  0  0  0
 12 13  1  0  0  0
 13 14  2  0  0  0
 13  6  1  0  0  0
  6  7  2  0  0  0
  7  8  1  0  0  0
  8  9  2  0  0  0
  9 10  1  0  0  0
 10 11  2  0  0  0
  9  1  1  0  0  0
  1  2  2  0  0  0
  2  3  1  0  0  0
  3  4  2  0  0  0
  4  5  1  0  0  0
  3 21  1  0  0  0
 21 22  2  0  0  0
 22 23  1  0  0  0
 23 24  2  0  0  0
 24 25  1  0  0  0
 23 27  1  0  0  0
 27 28  1  0  0  0
 27 29  2  0  0  0
 11  6  1  0  0  0
  5  1  1  0  0  0
 25 21  1  0  0  0
 19 20  1  0  0  0
 12 15  1  0  0  0
 25 26  1  0  0  0
 28 30  1  0  0  0
 28 31  1  0  0  0
M  END
> <minimizedAffinity>
-7.04176

> <CNNscore>
0.8689718246

> <CNNaffinity>
6.1114015579

> <CNN_VS>
5.3106355667

> <CNNaffinity_variance>
0.2556480467

$$$$
[H]c1c(-c2c([H])c(C(=O)N([H])[H])c([H])n2[H])noc1-c1c([H])c([H])c(C(=O)N([H])C([H])([H])C([H])([H])N([H])C([H])([H])[H])c([H])c1[H]


 31 33  0  0  0  0  0  0  0  0999 V2000
    3.2174    1.5365   16.5993 C   0  0  0  0  0  0  0  0  0  0  0  0
    3.5860    2.0582   17.8190 C   0  0  0  0  0  0  0  0  0  0  0  0
    3.3731    1.0696   18.7263 C   0  0  0  0  0  0  0  0  0  0  0  0
    2.8995    0.0181   18.0518 N   0  0  0  0  0  0  0  0  0  0  0  0
    2.8143    0.3079   16.8082 O   0  0  0  0  0  0  0  0  0  0  0  0
    3.3206    3.4969   12.8396 C   0  0  0  0  0  0  0  0  0  0  0  0
    2.6978    2.3028   12.9665 C   0  0  0  0  0  0  0  0  0  0  0  0
    2.6759    1.6695   14.2245 C   0  0  0  0  0  0  0  0  0  0  0  0
    3.2735    2.2443   15.3137 C   0  0  0  0  0  0  0  0  0  0  0  0
    3.8957    3.4570   15.1458 C   0  0  0  0  0  0  0  0  0  0  0  0
    3.9287    4.0968   13.9174 C   0  0  0  0  0  0  0  0  0  0  0  0
    4.5707    4.3095   10.8048 N   0  0  0  0  0  0  0  0  0  0  0  0
    3.3677    4.1866   11.5088 C   0  0  0  0  0  0  0  0  0  0  0  0
    2.2968    4.6410   11.0649 O   0  0  0  0  0  0  0  0  0  0  0  0
    5.4118    3.8626   11.3401 H   0  0  0  0  0  0  0  0  0  0  0  0
    4.8267    4.9144    9.5594 C   0  0  0  0  0  0  0  0  0  0  0  0
    5.3215    4.1179    8.4189 C   0  0  0  0  0  0  0  0  0  0  0  0
    7.0687    2.5254    8.7782 C   0  0  0  0  0  0  0  0  0  0  0  0
    5.6143    2.7371    8.6049 N   0  0  0  0  0  0  0  0  0  0  0  0
    5.3449    2.2292    7.7515 H   0  0  0  0  0  0  0  0  0  0  0  0
    3.6133    1.1313   20.1873 C   0  0  0  0  0  0  0  0  0  0  0  0
    4.4472    2.0211   20.8291 C   0  0  0  0  0  0  0  0  0  0  0  0
    4.4314    1.7917   22.1893 C   0  0  0  0  0  0  0  0  0  0  0  0
    3.5632    0.7363   22.3570 C   0  0  0  0  0  0  0  0  0  0  0  0
    3.0932    0.3652   21.1516 N   0  0  0  0  0  0  0  0  0  0  0  0
    2.4130   -0.4175   20.9968 H   0  0  0  0  0  0  0  0  0  0  0  0
    5.1510    2.4771   23.2576 C   0  0  0  0  0  0  0  0  0  0  0  0
    6.1268    3.4734   22.9846 N   0  0  0  0  0  0  0  0  0  0  0  0
    4.9300    2.2067   24.4594 O   0  0  0  0  0  0  0  0  0  0  0  0
    5.8513    4.3802   22.5529 H   0  0  0  0  0  0  0  0  0  0  0  0
    7.1352    3.3392   23.2006 H   0  0  0  0  0  0  0  0  0  0  0  0
 18 19  1  0  0  0
 19 17  1  0  0  0
 17 16  1  0  0  0
 16 12  1  0  0  0
 12 13  1  0  0  0
 13 14  2  0  0  0
 13  6  1  0  0  0
  6  7  2  0  0  0
  7  8  1  0  0  0
  8  9  2  0  0  0
  9 10  1  0  0  0
 10 11  2  0  0  0
  9  1  1  0  0  0
  1  2  2  0  0  0
  2  3  1  0  0  0
  3  4  2  0  0  0
  4  5  1  0  0  0
  3 21  1  0  0  0
 21 22  2  0  0  0
 22 23  1  0  0  0
 23 24  2  0  0  0
 24 25  1  0  0  0
 23 27  1  0  0  0
 27 28  1  0  0  0
 27 29  2  0  0  0
 11  6  1  0  0  0
  5  1  1  0  0  0
 25 21  1  0  0  0
 19 20  1  0  0  0
 12 15  1  0  0  0
 25 26  1  0  0  0
 28 30  1  0  0  0
 28 31  1  0  0  0
M  END
> <minimizedAffinity>
-6.82610

> <CNNscore>
0.8431089520

> <CNNaffinity>
6.2390813828

> <CNN_VS>
5.2602252960

> <CNNaffinity_variance>
0.4188764095

$$$$
[H]c1c(-c2c([H])c(C(=O)N([H])[H])c([H])n2[H])noc1-c1c([H])c([H])c(C(=O)N([H])C([H])([H])C([H])([H])N([H])C([H])([H])[H])c([H])c1[H]


 31 33  0  0  0  0  0  0  0  0999 V2000
    3.5127    1.8374   16.6684 C   0  0  0  0  0  0  0  0  0  0  0  0
    4.2396    2.3483   17.7201 C   0  0  0  0  0  0  0  0  0  0  0  0
    4.0572    1.4845   18.7529 C   0  0  0  0  0  0  0  0  0  0  0  0
    3.2547    0.5126   18.3099 N   0  0  0  0  0  0  0  0  0  0  0  0
    2.9450    0.7341   17.0880 O   0  0  0  0  0  0  0  0  0  0  0  0
    3.1468    3.4748   12.7729 C   0  0  0  0  0  0  0  0  0  0  0  0
    2.5895    2.2765   13.0615 C   0  0  0  0  0  0  0  0  0  0  0  0
    2.7235    1.7515   14.3617 C   0  0  0  0  0  0  0  0  0  0  0  0
    3.4068    2.4353   15.3310 C   0  0  0  0  0  0  0  0  0  0  0  0
    3.9585    3.6486   15.0005 C   0  0  0  0  0  0  0  0  0  0  0  0
    3.8383    4.1829   13.7278 C   0  0  0  0  0  0  0  0  0  0  0  0
    2.5481    5.3498   11.1952 N   0  0  0  0  0  0  0  0  0  0  0  0
    3.0280    4.0505   11.3933 C   0  0  0  0  0  0  0  0  0  0  0  0
    3.3720    3.3246   10.4419 O   0  0  0  0  0  0  0  0  0  0  0  0
    2.2858    5.8426   12.1344 H   0  0  0  0  0  0  0  0  0  0  0  0
    2.3596    6.0668    9.9981 C   0  0  0  0  0  0  0  0  0  0  0  0
    2.2187    7.5364   10.0106 C   0  0  0  0  0  0  0  0  0  0  0  0
    4.5300    7.6355    9.4057 C   0  0  0  0  0  0  0  0  0  0  0  0
    3.2291    8.3410    9.4117 N   0  0  0  0  0  0  0  0  0  0  0  0
    3.3571    9.1846    9.9869 H   0  0  0  0  0  0  0  0  0  0  0  0
    4.6302    1.5880   20.1156 C   0  0  0  0  0  0  0  0  0  0  0  0
    4.0721    2.2722   21.1737 C   0  0  0  0  0  0  0  0  0  0  0  0
    4.8747    2.1589   22.2899 C   0  0  0  0  0  0  0  0  0  0  0  0
    5.9378    1.3855   21.8807 C   0  0  0  0  0  0  0  0  0  0  0  0
    5.7656    1.0616   20.5856 N   0  0  0  0  0  0  0  0  0  0  0  0
    6.4334    0.4766   20.0281 H   0  0  0  0  0  0  0  0  0  0  0  0
    4.6925    2.7121   23.6277 C   0  0  0  0  0  0  0  0  0  0  0  0
    4.2159    4.0349   23.8332 N   0  0  0  0  0  0  0  0  0  0  0  0
    4.9527    2.0329   24.6463 O   0  0  0  0  0  0  0  0  0  0  0  0
    3.2439    4.2953   23.5648 H   0  0  0  0  0  0  0  0  0  0  0  0
    4.8073    4.7812   24.2514 H   0  0  0  0  0  0  0  0  0  0  0  0
 18 19  1  0  0  0
 19 17  1  0  0  0
 17 16  1  0  0  0
 16 12  1  0  0  0
 12 13  1  0  0  0
 13 14  2  0  0  0
 13  6  1  0  0  0
  6  7  2  0  0  0
  7  8  1  0  0  0
  8  9  2  0  0  0
  9 10  1  0  0  0
 10 11  2  0  0  0
  9  1  1  0  0  0
  1  2  2  0  0  0
  2  3  1  0  0  0
  3  4  2  0  0  0
  4  5  1  0  0  0
  3 21  1  0  0  0
 21 22  2  0  0  0
 22 23  1  0  0  0
 23 24  2  0  0  0
 24 25  1  0  0  0
 23 27  1  0  0  0
 27 28  1  0  0  0
 27 29  2  0  0  0
 11  6  1  0  0  0
  5  1  1  0  0  0
 25 21  1  0  0  0
 19 20  1  0  0  0
 12 15  1  0  0  0
 25 26  1  0  0  0
 28 30  1  0  0  0
 28 31  1  0  0  0
M  END
> <minimizedAffinity>
-7.19723

> <CNNscore>
0.8012974262

> <CNNaffinity>
5.9213523865

> <CNN_VS>
4.7447643280

> <CNNaffinity_variance>
0.2101007253

$$$$
[H]c1c(-c2c([H])c(C(=O)N([H])[H])c([H])n2[H])noc1-c1c([H])c([H])c(C(=O)N([H])C([H])([H])C([H])([H])N([H])C([H])([H])[H])c([H])c1[H]


 31 33  0  0  0  0  0  0  0  0999 V2000
    3.3630    1.6429   16.8214 C   0  0  0  0  0  0  0  0  0  0  0  0
    4.1363    2.2075   17.8108 C   0  0  0  0  0  0  0  0  0  0  0  0
    4.0168    1.3891   18.8888 C   0  0  0  0  0  0  0  0  0  0  0  0
    3.2044    0.3908   18.5312 N   0  0  0  0  0  0  0  0  0  0  0  0
    2.8305    0.5543   17.3181 O   0  0  0  0  0  0  0  0  0  0  0  0
    2.7636    3.1121   12.8880 C   0  0  0  0  0  0  0  0  0  0  0  0
    2.0618    2.0428   13.3283 C   0  0  0  0  0  0  0  0  0  0  0  0
    2.2771    1.5716   14.6382 C   0  0  0  0  0  0  0  0  0  0  0  0
    3.1823    2.1792   15.4661 C   0  0  0  0  0  0  0  0  0  0  0  0
    3.8755    3.2620   14.9838 C   0  0  0  0  0  0  0  0  0  0  0  0
    3.6789    3.7415   13.6988 C   0  0  0  0  0  0  0  0  0  0  0  0
    1.5960    3.0624   10.6524 N   0  0  0  0  0  0  0  0  0  0  0  0
    2.5611    3.6265   11.4939 C   0  0  0  0  0  0  0  0  0  0  0  0
    3.2859    4.5691   11.1241 O   0  0  0  0  0  0  0  0  0  0  0  0
    1.0557    2.2429   11.1321 H   0  0  0  0  0  0  0  0  0  0  0  0
    1.2542    3.3925    9.3269 C   0  0  0  0  0  0  0  0  0  0  0  0
   -0.1591    3.5225    8.9201 C   0  0  0  0  0  0  0  0  0  0  0  0
   -1.4563    1.5157    8.8274 C   0  0  0  0  0  0  0  0  0  0  0  0
   -1.1524    2.7496    9.5858 N   0  0  0  0  0  0  0  0  0  0  0  0
   -2.0239    3.2959    9.6161 H   0  0  0  0  0  0  0  0  0  0  0  0
    4.6569    1.5592   20.2145 C   0  0  0  0  0  0  0  0  0  0  0  0
    4.0914    2.1785   21.3080 C   0  0  0  0  0  0  0  0  0  0  0  0
    4.9686    2.1584   22.3726 C   0  0  0  0  0  0  0  0  0  0  0  0
    6.0847    1.5087   21.8953 C   0  0  0  0  0  0  0  0  0  0  0  0
    5.8710    1.1648   20.6117 N   0  0  0  0  0  0  0  0  0  0  0  0
    6.5649    0.6575   20.0114 H   0  0  0  0  0  0  0  0  0  0  0  0
    4.8077    2.6902   23.7217 C   0  0  0  0  0  0  0  0  0  0  0  0
    4.1950    3.9495   23.9627 N   0  0  0  0  0  0  0  0  0  0  0  0
    5.2082    2.0485   24.7188 O   0  0  0  0  0  0  0  0  0  0  0  0
    3.1844    4.0948   23.7569 H   0  0  0  0  0  0  0  0  0  0  0  0
    4.7210    4.7604   24.3466 H   0  0  0  0  0  0  0  0  0  0  0  0
 18 19  1  0  0  0
 19 17  1  0  0  0
 17 16  1  0  0  0
 16 12  1  0  0  0
 12 13  1  0  0  0
 13 14  2  0  0  0
 13  6  1  0  0  0
  6  7  2  0  0  0
  7  8  1  0  0  0
  8  9  2  0  0  0
  9 10  1  0  0  0
 10 11  2  0  0  0
  9  1  1  0  0  0
  1  2  2  0  0  0
  2  3  1  0  0  0
  3  4  2  0  0  0
  4  5  1  0  0  0
  3 21  1  0  0  0
 21 22  2  0  0  0
 22 23  1  0  0  0
 23 24  2  0  0  0
 24 25  1  0  0  0
 23 27  1  0  0  0
 27 28  1  0  0  0
 27 29  2  0  0  0
 11  6  1  0  0  0
  5  1  1  0  0  0
 25 21  1  0  0  0
 19 20  1  0  0  0
 12 15  1  0  0  0
 25 26  1  0  0  0
 28 30  1  0  0  0
 28 31  1  0  0  0
M  END
> <minimizedAffinity>
-6.89278

> <CNNscore>
0.7999168038

> <CNNaffinity>
5.9792895317

> <CNN_VS>
4.7829341888

> <CNNaffinity_variance>
0.1654471904

$$$$
[H]c1c(-c2c([H])c(C(=O)N([H])[H])c([H])n2[H])noc1-c1c([H])c([H])c(C(=O)N([H])C([H])([H])C([H])([H])N([H])C([H])([H])[H])c([H])c1[H]


 31 33  0  0  0  0  0  0  0  0999 V2000
    3.3406    1.8177   16.1254 C   0  0  0  0  0  0  0  0  0  0  0  0
    3.8550    2.3055   17.3057 C   0  0  0  0  0  0  0  0  0  0  0  0
    3.6450    1.3344   18.2325 C   0  0  0  0  0  0  0  0  0  0  0  0
    3.0324    0.3255   17.6069 N   0  0  0  0  0  0  0  0  0  0  0  0
    2.8616    0.6243   16.3742 O   0  0  0  0  0  0  0  0  0  0  0  0
    3.3975    3.9349   12.4507 C   0  0  0  0  0  0  0  0  0  0  0  0
    4.0058    4.4523   13.5425 C   0  0  0  0  0  0  0  0  0  0  0  0
    3.9743    3.7321   14.7526 C   0  0  0  0  0  0  0  0  0  0  0  0
    3.3395    2.5222   14.8367 C   0  0  0  0  0  0  0  0  0  0  0  0
    2.7336    2.0293   13.7072 C   0  0  0  0  0  0  0  0  0  0  0  0
    2.7528    2.7214   12.5071 C   0  0  0  0  0  0  0  0  0  0  0  0
    3.9819    5.9594   11.0638 N   0  0  0  0  0  0  0  0  0  0  0  0
    3.4070    4.6869   11.1532 C   0  0  0  0  0  0  0  0  0  0  0  0
    2.8835    4.1314   10.1694 O   0  0  0  0  0  0  0  0  0  0  0  0
    4.3880    6.2989   12.0196 H   0  0  0  0  0  0  0  0  0  0  0  0
    4.0907    6.8218    9.9561 C   0  0  0  0  0  0  0  0  0  0  0  0
    5.4102    7.2957    9.4931 C   0  0  0  0  0  0  0  0  0  0  0  0
    5.0312    9.0801    7.9469 C   0  0  0  0  0  0  0  0  0  0  0  0
    5.6089    8.6845    9.2507 N   0  0  0  0  0  0  0  0  0  0  0  0
    6.6204    8.8627    9.1880 H   0  0  0  0  0  0  0  0  0  0  0  0
    4.0166    1.3732   19.6665 C   0  0  0  0  0  0  0  0  0  0  0  0
    4.8948    2.2628   20.2468 C   0  0  0  0  0  0  0  0  0  0  0  0
    5.0058    2.0087   21.5982 C   0  0  0  0  0  0  0  0  0  0  0  0
    4.1694    0.9386   21.8239 C   0  0  0  0  0  0  0  0  0  0  0  0
    3.5960    0.5828   20.6593 N   0  0  0  0  0  0  0  0  0  0  0  0
    2.9141   -0.2063   20.5521 H   0  0  0  0  0  0  0  0  0  0  0  0
    5.8115    2.6847   22.6095 C   0  0  0  0  0  0  0  0  0  0  0  0
    5.5963    2.4798   23.9991 N   0  0  0  0  0  0  0  0  0  0  0  0
    6.7261    3.4740   22.2823 O   0  0  0  0  0  0  0  0  0  0  0  0
    5.7836    1.5517   24.4328 H   0  0  0  0  0  0  0  0  0  0  0  0
    5.2498    3.2338   24.6260 H   0  0  0  0  0  0  0  0  0  0  0  0
 18 19  1  0  0  0
 19 17  1  0  0  0
 17 16  1  0  0  0
 16 12  1  0  0  0
 12 13  1  0  0  0
 13 14  2  0  0  0
 13  6  1  0  0  0
  6  7  2  0  0  0
  7  8  1  0  0  0
  8  9  2  0  0  0
  9 10  1  0  0  0
 10 11  2  0  0  0
  9  1  1  0  0  0
  1  2  2  0  0  0
  2  3  1  0  0  0
  3  4  2  0  0  0
  4  5  1  0  0  0
  3 21  1  0  0  0
 21 22  2  0  0  0
 22 23  1  0  0  0
 23 24  2  0  0  0
 24 25  1  0  0  0
 23 27  1  0  0  0
 27 28  1  0  0  0
 27 29  2  0  0  0
 11  6  1  0  0  0
  5  1  1  0  0  0
 25 21  1  0  0  0
 19 20  1  0  0  0
 12 15  1  0  0  0
 25 26  1  0  0  0
 28 30  1  0  0  0
 28 31  1  0  0  0
M  END
> <minimizedAffinity>
-7.35706

> <CNNscore>
0.7464737296

> <CNNaffinity>
5.8898906708

> <CNN_VS>
4.3966488838

> <CNNaffinity_variance>
0.3866603971

$$$$
[H]c1c(-c2c([H])c(C(=O)N([H])[H])c([H])n2[H])noc1-c1c([H])c([H])c(C(=O)N([H])C([H])([H])C([H])([H])N([H])C([H])([H])[H])c([H])c1[H]


 31 33  0  0  0  0  0  0  0  0999 V2000
    3.5824    2.2090   16.4948 C   0  0  0  0  0  0  0  0  0  0  0  0
    3.7429    2.6515   17.7887 C   0  0  0  0  0  0  0  0  0  0  0  0
    3.6912    1.5416   18.5706 C   0  0  0  0  0  0  0  0  0  0  0  0
    3.5078    0.4994   17.7550 N   0  0  0  0  0  0  0  0  0  0  0  0
    3.4463    0.9072   16.5435 O   0  0  0  0  0  0  0  0  0  0  0  0
    3.5114    4.5696   12.9717 C   0  0  0  0  0  0  0  0  0  0  0  0
    3.1870    3.2575   12.9172 C   0  0  0  0  0  0  0  0  0  0  0  0
    3.2175    2.4924   14.0995 C   0  0  0  0  0  0  0  0  0  0  0  0
    3.5693    3.0572   15.2958 C   0  0  0  0  0  0  0  0  0  0  0  0
    3.8919    4.3919   15.3115 C   0  0  0  0  0  0  0  0  0  0  0  0
    3.8682    5.1624   14.1603 C   0  0  0  0  0  0  0  0  0  0  0  0
    4.3713    5.1299   10.6673 N   0  0  0  0  0  0  0  0  0  0  0  0
    3.4975    5.4035   11.7254 C   0  0  0  0  0  0  0  0  0  0  0  0
    2.6807    6.3421   11.6775 O   0  0  0  0  0  0  0  0  0  0  0  0
    5.0234    4.2789   10.8777 H   0  0  0  0  0  0  0  0  0  0  0  0
    4.5182    5.7844    9.4293 C   0  0  0  0  0  0  0  0  0  0  0  0
    5.4466    6.9228    9.2810 C   0  0  0  0  0  0  0  0  0  0  0  0
    6.6160    5.4885    7.7665 C   0  0  0  0  0  0  0  0  0  0  0  0
    6.6464    6.7539    8.5334 N   0  0  0  0  0  0  0  0  0  0  0  0
    7.4327    6.6769    9.1926 H   0  0  0  0  0  0  0  0  0  0  0  0
    3.8114    1.4824   20.0464 C   0  0  0  0  0  0  0  0  0  0  0  0
    4.2412    2.5077   20.8608 C   0  0  0  0  0  0  0  0  0  0  0  0
    4.2303    2.1040   22.1799 C   0  0  0  0  0  0  0  0  0  0  0  0
    3.7811    0.8030   22.1449 C   0  0  0  0  0  0  0  0  0  0  0  0
    3.5407    0.4612   20.8654 N   0  0  0  0  0  0  0  0  0  0  0  0
    3.1893   -0.4782   20.5598 H   0  0  0  0  0  0  0  0  0  0  0  0
    4.6012    2.8422   23.3825 C   0  0  0  0  0  0  0  0  0  0  0  0
    5.6810    2.4323   24.2103 N   0  0  0  0  0  0  0  0  0  0  0  0
    3.9742    3.8692   23.7267 O   0  0  0  0  0  0  0  0  0  0  0  0
    6.6604    2.4637   23.8575 H   0  0  0  0  0  0  0  0  0  0  0  0
    5.5390    2.0910   25.1824 H   0  0  0  0  0  0  0  0  0  0  0  0
 18 19  1  0  0  0
 19 17  1  0  0  0
 17 16  1  0  0  0
 16 12  1  0  0  0
 12 13  1  0  0  0
 13 14  2  0  0  0
 13  6  1  0  0  0
  6  7  2  0  0  0
  7  8  1  0  0  0
  8  9  2  0  0  0
  9 10  1  0  0  0
 10 11  2  0  0  0
  9  1  1  0  0  0
  1  2  2  0  0  0
  2  3  1  0  0  0
  3  4  2  0  0  0
  4  5  1  0  0  0
  3 21  1  0  0  0
 21 22  2  0  0  0
 22 23  1  0  0  0
 23 24  2  0  0  0
 24 25  1  0  0  0
 23 27  1  0  0  0
 27 28  1  0  0  0
 27 29  2  0  0  0
 11  6  1  0  0  0
  5  1  1  0  0  0
 25 21  1  0  0  0
 19 20  1  0  0  0
 12 15  1  0  0  0
 25 26  1  0  0  0
 28 30  1  0  0  0
 28 31  1  0  0  0
M  END
> <minimizedAffinity>
-6.48129

> <CNNscore>
0.5885152817

> <CNNaffinity>
5.6704354286

> <CNN_VS>
3.3371379375

> <CNNaffinity_variance>
0.3665876985

$$$$
[H]c1c(-c2c([H])c(C(=O)N([H])[H])c([H])n2[H])noc1-c1c([H])c([H])c(C(=O)N([H])C([H])([H])C([H])([H])N([H])C([H])([H])[H])c([H])c1[H]


 31 33  0  0  0  0  0  0  0  0999 V2000
    3.2589    3.0484   17.0661 C   0  0  0  0  0  0  0  0  0  0  0  0
    2.8967    3.3851   15.7812 C   0  0  0  0  0  0  0  0  0  0  0  0
    2.6012    2.2140   15.1589 C   0  0  0  0  0  0  0  0  0  0  0  0
    2.7868    1.2401   16.0544 N   0  0  0  0  0  0  0  0  0  0  0  0
    3.1718    1.7453   17.1655 O   0  0  0  0  0  0  0  0  0  0  0  0
    4.5125    5.7019   20.1283 C   0  0  0  0  0  0  0  0  0  0  0  0
    5.1464    4.5200   19.9517 C   0  0  0  0  0  0  0  0  0  0  0  0
    4.7132    3.6541   18.9286 C   0  0  0  0  0  0  0  0  0  0  0  0
    3.6648    3.9920   18.1159 C   0  0  0  0  0  0  0  0  0  0  0  0
    3.0465    5.2000   18.3256 C   0  0  0  0  0  0  0  0  0  0  0  0
    3.4567    6.0664   19.3259 C   0  0  0  0  0  0  0  0  0  0  0  0
    4.7109    8.0125   21.1208 N   0  0  0  0  0  0  0  0  0  0  0  0
    4.9470    6.6367   21.2174 C   0  0  0  0  0  0  0  0  0  0  0  0
    5.5230    6.1360   22.2013 O   0  0  0  0  0  0  0  0  0  0  0  0
    4.2028    8.2817   20.1918 H   0  0  0  0  0  0  0  0  0  0  0  0
    5.0366    9.0467   22.0191 C   0  0  0  0  0  0  0  0  0  0  0  0
    6.4267    9.5274   22.1475 C   0  0  0  0  0  0  0  0  0  0  0  0
    7.2552    8.6145   24.1965 C   0  0  0  0  0  0  0  0  0  0  0  0
    7.4105    8.6762   22.7260 N   0  0  0  0  0  0  0  0  0  0  0  0
    8.3387    9.0827   22.5472 H   0  0  0  0  0  0  0  0  0  0  0  0
    2.1585    2.0350   13.7561 C   0  0  0  0  0  0  0  0  0  0  0  0
    2.9386    2.2227   12.6356 C   0  0  0  0  0  0  0  0  0  0  0  0
    2.2033    1.9699   11.4962 C   0  0  0  0  0  0  0  0  0  0  0  0
    0.9526    1.6226   11.9555 C   0  0  0  0  0  0  0  0  0  0  0  0
    0.9558    1.6702   13.3007 N   0  0  0  0  0  0  0  0  0  0  0  0
    0.1260    1.4501   13.9026 H   0  0  0  0  0  0  0  0  0  0  0  0
    2.6039    2.0396   10.0949 C   0  0  0  0  0  0  0  0  0  0  0  0
    1.9341    2.8795    9.1648 N   0  0  0  0  0  0  0  0  0  0  0  0
    3.5590    1.3554    9.6635 O   0  0  0  0  0  0  0  0  0  0  0  0
    1.9819    3.9158    9.2571 H   0  0  0  0  0  0  0  0  0  0  0  0
    1.3801    2.5003    8.3706 H   0  0  0  0  0  0  0  0  0  0  0  0
 18 19  1  0  0  0
 19 17  1  0  0  0
 17 16  1  0  0  0
 16 12  1  0  0  0
 12 13  1  0  0  0
 13 14  2  0  0  0
 13  6  1  0  0  0
  6  7  2  0  0  0
  7  8  1  0  0  0
  8  9  2  0  0  0
  9 10  1  0  0  0
 10 11  2  0  0  0
  9  1  1  0  0  0
  1  2  2  0  0  0
  2  3  1  0  0  0
  3  4  2  0  0  0
  4  5  1  0  0  0
  3 21  1  0  0  0
 21 22  2  0  0  0
 22 23  1  0  0  0
 23 24  2  0  0  0
 24 25  1  0  0  0
 23 27  1  0  0  0
 27 28  1  0  0  0
 27 29  2  0  0  0
 11  6  1  0  0  0
  5  1  1  0  0  0
 25 21  1  0  0  0
 19 20  1  0  0  0
 12 15  1  0  0  0
 25 26  1  0  0  0
 28 30  1  0  0  0
 28 31  1  0  0  0
M  END
> <minimizedAffinity>
-6.52644

> <CNNscore>
0.5159814954

> <CNNaffinity>
5.3916139603

> <CNN_VS>
2.7819731236

> <CNNaffinity_variance>
0.2079861611

$$$$
[H]c1c(-c2c([H])c(C(=O)N([H])[H])c([H])n2[H])noc1-c1c([H])c([H])c(C(=O)N([H])C([H])([H])C([H])([H])N([H])C([H])([H])[H])c([H])c1[H]


 31 33  0  0  0  0  0  0  0  0999 V2000
    3.6634    2.1680   16.3630 C   0  0  0  0  0  0  0  0  0  0  0  0
    3.8768    3.0148   17.4274 C   0  0  0  0  0  0  0  0  0  0  0  0
    4.0353    2.2143   18.5137 C   0  0  0  0  0  0  0  0  0  0  0  0
    3.9173    0.9534   18.0883 N   0  0  0  0  0  0  0  0  0  0  0  0
    3.6997    0.9437   16.8271 O   0  0  0  0  0  0  0  0  0  0  0  0
    3.0766    3.4552   12.3644 C   0  0  0  0  0  0  0  0  0  0  0  0
    3.8213    4.1979   13.2150 C   0  0  0  0  0  0  0  0  0  0  0  0
    4.0029    3.7514   14.5386 C   0  0  0  0  0  0  0  0  0  0  0  0
    3.4383    2.5820   14.9719 C   0  0  0  0  0  0  0  0  0  0  0  0
    2.6893    1.8553   14.0795 C   0  0  0  0  0  0  0  0  0  0  0  0
    2.4982    2.2763   12.7734 C   0  0  0  0  0  0  0  0  0  0  0  0
    2.3883    5.2032   10.6809 N   0  0  0  0  0  0  0  0  0  0  0  0
    2.8588    3.9139   10.9534 C   0  0  0  0  0  0  0  0  0  0  0  0
    3.1127    3.1011   10.0449 O   0  0  0  0  0  0  0  0  0  0  0  0
    2.2106    5.7806   11.5912 H   0  0  0  0  0  0  0  0  0  0  0  0
    2.1181    5.8198    9.4443 C   0  0  0  0  0  0  0  0  0  0  0  0
    0.7468    5.8503    8.8978 C   0  0  0  0  0  0  0  0  0  0  0  0
    0.0531    3.6290    8.3476 C   0  0  0  0  0  0  0  0  0  0  0  0
    0.3989    4.9725    7.8322 N   0  0  0  0  0  0  0  0  0  0  0  0
    1.2232    4.8504    7.2285 H   0  0  0  0  0  0  0  0  0  0  0  0
    4.2890    2.6428   19.9094 C   0  0  0  0  0  0  0  0  0  0  0  0
    4.3884    1.8089   21.0021 C   0  0  0  0  0  0  0  0  0  0  0  0
    4.6265    2.5464   22.1434 C   0  0  0  0  0  0  0  0  0  0  0  0
    4.6694    3.8538   21.7136 C   0  0  0  0  0  0  0  0  0  0  0  0
    4.4657    3.8802   20.3834 N   0  0  0  0  0  0  0  0  0  0  0  0
    4.4492    4.7541   19.8045 H   0  0  0  0  0  0  0  0  0  0  0  0
    4.8005    2.0995   23.5213 C   0  0  0  0  0  0  0  0  0  0  0  0
    5.8993    2.5266   24.3146 N   0  0  0  0  0  0  0  0  0  0  0  0
    3.9800    1.3183   24.0534 O   0  0  0  0  0  0  0  0  0  0  0  0
    5.9910    3.5242   24.5992 H   0  0  0  0  0  0  0  0  0  0  0  0
    6.6414    1.8727   24.6363 H   0  0  0  0  0  0  0  0  0  0  0  0
 18 19  1  0  0  0
 19 17  1  0  0  0
 17 16  1  0  0  0
 16 12  1  0  0  0
 12 13  1  0  0  0
 13 14  2  0  0  0
 13  6  1  0  0  0
  6  7  2  0  0  0
  7  8  1  0  0  0
  8  9  2  0  0  0
  9 10  1  0  0  0
 10 11  2  0  0  0
  9  1  1  0  0  0
  1  2  2  0  0  0
  2  3  1  0  0  0
  3  4  2  0  0  0
  4  5  1  0  0  0
  3 21  1  0  0  0
 21 22  2  0  0  0
 22 23  1  0  0  0
 23 24  2  0  0  0
 24 25  1  0  0  0
 23 27  1  0  0  0
 27 28  1  0  0  0
 27 29  2  0  0  0
 11  6  1  0  0  0
  5  1  1  0  0  0
 25 21  1  0  0  0
 19 20  1  0  0  0
 12 15  1  0  0  0
 25 26  1  0  0  0
 28 30  1  0  0  0
 28 31  1  0  0  0
M  END
> <minimizedAffinity>
-6.14899

> <CNNscore>
0.4728663862

> <CNNaffinity>
5.4573011398

> <CNN_VS>
2.5805742741

> <CNNaffinity_variance>
0.1929815114

$$$$
[H]c1nc(N([H])[H])c2c(-c3c([H])c([H])c(N([H])C(=O)N([H])c4c([H])c([H])c([H])c(C([H])([H])[H])c4[H])c([H])c3[H])c([H])c(C3([H])C([H])([H])C([H])([H])N(C(=O)C([H])(C([H])([H])[H])C([H])([H])[H])C([H])([H])C3([H])[H])n2n1


 42 46  0  0  0  0  0  0  0  0999 V2000
    3.9272    3.3501   19.0105 C   0  0  0  0  0  0  0  0  0  0  0  0
    3.8334    4.1671   17.9161 C   0  0  0  0  0  0  0  0  0  0  0  0
    3.3326    3.4173   16.8438 C   0  0  0  0  0  0  0  0  0  0  0  0
    3.1386    2.1563   17.3412 C   0  0  0  0  0  0  0  0  0  0  0  0
    2.6576    0.9745   16.7939 C   0  0  0  0  0  0  0  0  0  0  0  0
    2.2444    0.9890   15.4375 N   0  0  0  0  0  0  0  0  0  0  0  0
    2.5598   -0.1459   17.5279 N   0  0  0  0  0  0  0  0  0  0  0  0
    2.9304   -0.1247   18.8065 C   0  0  0  0  0  0  0  0  0  0  0  0
    3.3987    0.9981   19.3726 N   0  0  0  0  0  0  0  0  0  0  0  0
    3.4989    2.1157   18.6504 N   0  0  0  0  0  0  0  0  0  0  0  0
    1.4332    1.5688   15.1652 H   0  0  0  0  0  0  0  0  0  0  0  0
    2.7340    0.4352   14.7178 H   0  0  0  0  0  0  0  0  0  0  0  0
    7.2899    5.8520   22.5396 C   0  0  0  0  0  0  0  0  0  0  0  0
    8.4421    5.3426   22.6690 O   0  0  0  0  0  0  0  0  0  0  0  0
    6.2628    5.0039   22.0888 N   0  0  0  0  0  0  0  0  0  0  0  0
    4.9317    5.5276   21.9099 C   0  0  0  0  0  0  0  0  0  0  0  0
    4.4989    5.1790   20.4874 C   0  0  0  0  0  0  0  0  0  0  0  0
    4.4060    3.6866   20.3842 C   0  0  0  0  0  0  0  0  0  0  0  0
    5.8032    3.1250   20.5464 C   0  0  0  0  0  0  0  0  0  0  0  0
    6.4707    3.5996   21.7912 C   0  0  0  0  0  0  0  0  0  0  0  0
    7.4677    8.1612   21.6621 C   0  0  0  0  0  0  0  0  0  0  0  0
    7.1348    7.2821   22.8741 C   0  0  0  0  0  0  0  0  0  0  0  0
    8.0700    7.7081   23.9860 C   0  0  0  0  0  0  0  0  0  0  0  0
    3.1308    3.9179   15.4874 C   0  0  0  0  0  0  0  0  0  0  0  0
    2.0989    4.7794   15.2084 C   0  0  0  0  0  0  0  0  0  0  0  0
    1.8777    5.2850   13.9503 C   0  0  0  0  0  0  0  0  0  0  0  0
    2.6855    4.9517   12.8944 C   0  0  0  0  0  0  0  0  0  0  0  0
    3.7415    4.0636   13.2002 C   0  0  0  0  0  0  0  0  0  0  0  0
    3.9446    3.5743   14.4492 C   0  0  0  0  0  0  0  0  0  0  0  0
    2.5491    5.4288   11.5830 N   0  0  0  0  0  0  0  0  0  0  0  0
    1.4711    5.2274   10.7158 C   0  0  0  0  0  0  0  0  0  0  0  0
    0.4536    4.5619   11.0472 O   0  0  0  0  0  0  0  0  0  0  0  0
    1.5314    5.7910    9.4275 N   0  0  0  0  0  0  0  0  0  0  0  0
    3.3606    6.0098   11.1966 H   0  0  0  0  0  0  0  0  0  0  0  0
    2.4190    6.3471    9.2030 H   0  0  0  0  0  0  0  0  0  0  0  0
    0.5666    5.7064    8.3952 C   0  0  0  0  0  0  0  0  0  0  0  0
    0.4733    4.6942    7.4735 C   0  0  0  0  0  0  0  0  0  0  0  0
   -0.5442    4.7130    6.5116 C   0  0  0  0  0  0  0  0  0  0  0  0
   -1.4728    5.7266    6.4521 C   0  0  0  0  0  0  0  0  0  0  0  0
   -1.3964    6.7515    7.3670 C   0  0  0  0  0  0  0  0  0  0  0  0
   -2.3956    7.8490    7.3083 C   0  0  0  0  0  0  0  0  0  0  0  0
   -0.3950    6.7121    8.2968 C   0  0  0  0  0  0  0  0  0  0  0  0
 21 22  1  0  0  0
 22 23  1  0  0  0
 22 13  1  0  0  0
 13 14  2  0  0  0
 13 15  1  0  0  0
 15 16  1  0  0  0
 16 17  1  0  0  0
 17 18  1  0  0  0
 18 19  1  0  0  0
 19 20  1  0  0  0
 18  1  1  0  0  0
  1  2  2  0  0  0
  2  3  1  0  0  0
  3 24  1  0  0  0
 24 25  2  0  0  0
 25 26  1  0  0  0
 26 27  2  0  0  0
 27 30  1  0  0  0
 30 31  1  0  0  0
 31 32  2  0  0  0
 31 33  1  0  0  0
 33 36  1  0  0  0
 36 37  2  0  0  0
 37 38  1  0  0  0
 38 39  2  0  0  0
 39 40  1  0  0  0
 40 41  1  0  0  0
 40 42  2  0  0  0
 27 28  1  0  0  0
 28 29  2  0  0  0
  3  4  2  0  0  0
  4  5  1  0  0  0
  5  6  1  0  0  0
  5  7  2  0  0  0
  7  8  1  0  0  0
  8  9  2  0  0  0
  9 10  1  0  0  0
 20 15  1  0  0  0
 10  1  1  0  0  0
 29 24  1  0  0  0
 10  4  1  0  0  0
 42 36  1  0  0  0
 30 34  1  0  0  0
 33 35  1  0  0  0
  6 11  1  0  0  0
  6 12  1  0  0  0
M  END
> <minimizedAffinity>
-8.08319

> <CNNscore>
0.5291097760

> <CNNaffinity>
7.0564665794

> <CNN_VS>
3.7336454391

> <CNNaffinity_variance>
0.6935677528

$$$$
[H]c1nc(N([H])[H])c2c(-c3c([H])c([H])c(N([H])C(=O)N([H])c4c([H])c([H])c([H])c(C([H])([H])[H])c4[H])c([H])c3[H])c([H])c(C3([H])C([H])([H])C([H])([H])N(C(=O)C([H])(C([H])([H])[H])C([H])([H])[H])C([H])([H])C3([H])[H])n2n1


 42 46  0  0  0  0  0  0  0  0999 V2000
    3.8615    3.6722   18.7788 C   0  0  0  0  0  0  0  0  0  0  0  0
    3.7814    4.4011   17.6228 C   0  0  0  0  0  0  0  0  0  0  0  0
    3.3385    3.5575   16.5957 C   0  0  0  0  0  0  0  0  0  0  0  0
    3.1637    2.3322   17.1816 C   0  0  0  0  0  0  0  0  0  0  0  0
    2.7351    1.0982   16.7113 C   0  0  0  0  0  0  0  0  0  0  0  0
    2.3676    0.9976   15.3454 N   0  0  0  0  0  0  0  0  0  0  0  0
    2.6445    0.0339   17.5253 N   0  0  0  0  0  0  0  0  0  0  0  0
    2.9710    0.1628   18.8096 C   0  0  0  0  0  0  0  0  0  0  0  0
    3.3880    1.3391   19.3027 N   0  0  0  0  0  0  0  0  0  0  0  0
    3.4807    2.4016   18.5007 N   0  0  0  0  0  0  0  0  0  0  0  0
    1.5499    1.5299   15.0043 H   0  0  0  0  0  0  0  0  0  0  0  0
    2.8967    0.4065   14.6859 H   0  0  0  0  0  0  0  0  0  0  0  0
    7.3571    6.0295   22.2781 C   0  0  0  0  0  0  0  0  0  0  0  0
    8.3694    5.3416   22.6038 O   0  0  0  0  0  0  0  0  0  0  0  0
    6.2214    5.3269   21.8380 N   0  0  0  0  0  0  0  0  0  0  0  0
    5.0414    6.0540   21.4418 C   0  0  0  0  0  0  0  0  0  0  0  0
    4.6653    5.5723   20.0423 C   0  0  0  0  0  0  0  0  0  0  0  0
    4.2839    4.1259   20.1372 C   0  0  0  0  0  0  0  0  0  0  0  0
    5.5222    3.3470   20.5295 C   0  0  0  0  0  0  0  0  0  0  0  0
    6.1672    3.8794   21.7629 C   0  0  0  0  0  0  0  0  0  0  0  0
    8.8290    7.9821   21.8844 C   0  0  0  0  0  0  0  0  0  0  0  0
    7.4649    7.4980   22.3919 C   0  0  0  0  0  0  0  0  0  0  0  0
    7.3484    7.9646   23.8275 C   0  0  0  0  0  0  0  0  0  0  0  0
    3.1683    3.9479   15.1993 C   0  0  0  0  0  0  0  0  0  0  0  0
    2.0156    4.5671   14.7840 C   0  0  0  0  0  0  0  0  0  0  0  0
    1.8163    4.9626   13.4834 C   0  0  0  0  0  0  0  0  0  0  0  0
    2.7697    4.7572   12.5204 C   0  0  0  0  0  0  0  0  0  0  0  0
    3.9488    4.1181   12.9661 C   0  0  0  0  0  0  0  0  0  0  0  0
    4.1279    3.7344   14.2550 C   0  0  0  0  0  0  0  0  0  0  0  0
    2.6638    5.1400   11.1756 N   0  0  0  0  0  0  0  0  0  0  0  0
    3.1628    6.3044   10.5842 C   0  0  0  0  0  0  0  0  0  0  0  0
    3.7983    7.1743   11.2379 O   0  0  0  0  0  0  0  0  0  0  0  0
    2.9437    6.5057    9.2085 N   0  0  0  0  0  0  0  0  0  0  0  0
    2.1394    4.4706   10.5258 H   0  0  0  0  0  0  0  0  0  0  0  0
    2.3997    5.7323    8.7051 H   0  0  0  0  0  0  0  0  0  0  0  0
    3.3490    7.6055    8.4151 C   0  0  0  0  0  0  0  0  0  0  0  0
    4.6477    7.9735    8.1682 C   0  0  0  0  0  0  0  0  0  0  0  0
    4.9209    9.0725    7.3444 C   0  0  0  0  0  0  0  0  0  0  0  0
    3.9189    9.8133    6.7610 C   0  0  0  0  0  0  0  0  0  0  0  0
    2.6098    9.4612    6.9963 C   0  0  0  0  0  0  0  0  0  0  0  0
    1.5232   10.2569    6.3697 C   0  0  0  0  0  0  0  0  0  0  0  0
    2.3671    8.3849    7.8036 C   0  0  0  0  0  0  0  0  0  0  0  0
 21 22  1  0  0  0
 22 23  1  0  0  0
 22 13  1  0  0  0
 13 14  2  0  0  0
 13 15  1  0  0  0
 15 16  1  0  0  0
 16 17  1  0  0  0
 17 18  1  0  0  0
 18 19  1  0  0  0
 19 20  1  0  0  0
 18  1  1  0  0  0
  1  2  2  0  0  0
  2  3  1  0  0  0
  3 24  1  0  0  0
 24 25  2  0  0  0
 25 26  1  0  0  0
 26 27  2  0  0  0
 27 30  1  0  0  0
 30 31  1  0  0  0
 31 32  2  0  0  0
 31 33  1  0  0  0
 33 36  1  0  0  0
 36 37  2  0  0  0
 37 38  1  0  0  0
 38 39  2  0  0  0
 39 40  1  0  0  0
 40 41  1  0  0  0
 40 42  2  0  0  0
 27 28  1  0  0  0
 28 29  2  0  0  0
  3  4  2  0  0  0
  4  5  1  0  0  0
  5  6  1  0  0  0
  5  7  2  0  0  0
  7  8  1  0  0  0
  8  9  2  0  0  0
  9 10  1  0  0  0
 20 15  1  0  0  0
 10  1  1  0  0  0
 29 24  1  0  0  0
 10  4  1  0  0  0
 42 36  1  0  0  0
 30 34  1  0  0  0
 33 35  1  0  0  0
  6 11  1  0  0  0
  6 12  1  0  0  0
M  END
> <minimizedAffinity>
-8.78445

> <CNNscore>
0.4850048423

> <CNNaffinity>
7.0103697777

> <CNN_VS>
3.4000632763

> <CNNaffinity_variance>
0.8302022219

$$$$
[H]c1nc(N([H])[H])c2c(-c3c([H])c([H])c(N([H])C(=O)N([H])c4c([H])c([H])c([H])c(C([H])([H])[H])c4[H])c([H])c3[H])c([H])c(C3([H])C([H])([H])C([H])([H])N(C(=O)C([H])(C([H])([H])[H])C([H])([H])[H])C([H])([H])C3([H])[H])n2n1


 42 46  0  0  0  0  0  0  0  0999 V2000
    4.5898    4.1473   17.1412 C   0  0  0  0  0  0  0  0  0  0  0  0
    4.1046    4.8902   16.0988 C   0  0  0  0  0  0  0  0  0  0  0  0
    3.2161    4.0954   15.3628 C   0  0  0  0  0  0  0  0  0  0  0  0
    3.1977    2.8840   16.0011 C   0  0  0  0  0  0  0  0  0  0  0  0
    2.5178    1.6942   15.7781 C   0  0  0  0  0  0  0  0  0  0  0  0
    1.6193    1.6365   14.6825 N   0  0  0  0  0  0  0  0  0  0  0  0
    2.6818    0.6343   16.5863 N   0  0  0  0  0  0  0  0  0  0  0  0
    3.5120    0.7245   17.6232 C   0  0  0  0  0  0  0  0  0  0  0  0
    4.1861    1.8575   17.8733 N   0  0  0  0  0  0  0  0  0  0  0  0
    4.0287    2.9154   17.0753 N   0  0  0  0  0  0  0  0  0  0  0  0
    0.7790    2.2382   14.6893 H   0  0  0  0  0  0  0  0  0  0  0  0
    1.7850    1.0089   13.8807 H   0  0  0  0  0  0  0  0  0  0  0  0
    6.8002    7.7465   20.6314 C   0  0  0  0  0  0  0  0  0  0  0  0
    7.5615    8.6215   20.1227 O   0  0  0  0  0  0  0  0  0  0  0  0
    6.6405    6.5454   19.9179 N   0  0  0  0  0  0  0  0  0  0  0  0
    5.7774    5.5150   20.4391 C   0  0  0  0  0  0  0  0  0  0  0  0
    4.7893    5.1539   19.3321 C   0  0  0  0  0  0  0  0  0  0  0  0
    5.5634    4.5524   18.1983 C   0  0  0  0  0  0  0  0  0  0  0  0
    6.4574    5.6326   17.6257 C   0  0  0  0  0  0  0  0  0  0  0  0
    7.3135    6.2766   18.6615 C   0  0  0  0  0  0  0  0  0  0  0  0
    4.9501    8.9926   21.7078 C   0  0  0  0  0  0  0  0  0  0  0  0
    6.1562    8.0690   21.9207 C   0  0  0  0  0  0  0  0  0  0  0  0
    7.0971    8.7971   22.8571 C   0  0  0  0  0  0  0  0  0  0  0  0
    2.5240    4.5106   14.1463 C   0  0  0  0  0  0  0  0  0  0  0  0
    1.4332    5.3415   14.2138 C   0  0  0  0  0  0  0  0  0  0  0  0
    0.7581    5.7673   13.0956 C   0  0  0  0  0  0  0  0  0  0  0  0
    1.1430    5.3804   11.8383 C   0  0  0  0  0  0  0  0  0  0  0  0
    2.2668    4.5249   11.7886 C   0  0  0  0  0  0  0  0  0  0  0  0
    2.9211    4.1145   12.9040 C   0  0  0  0  0  0  0  0  0  0  0  0
    0.5288    5.7757   10.6414 N   0  0  0  0  0  0  0  0  0  0  0  0
   -0.7878    5.5269   10.2421 C   0  0  0  0  0  0  0  0  0  0  0  0
   -1.6022    4.8893   10.9619 O   0  0  0  0  0  0  0  0  0  0  0  0
   -1.2119    6.0088    8.9895 N   0  0  0  0  0  0  0  0  0  0  0  0
    1.1329    6.3268    9.9510 H   0  0  0  0  0  0  0  0  0  0  0  0
   -0.4774    6.5447    8.4232 H   0  0  0  0  0  0  0  0  0  0  0  0
   -2.4854    5.8657    8.3885 C   0  0  0  0  0  0  0  0  0  0  0  0
   -2.9883    4.7058    7.8550 C   0  0  0  0  0  0  0  0  0  0  0  0
   -4.2768    4.6867    7.3070 C   0  0  0  0  0  0  0  0  0  0  0  0
   -5.0749    5.8073    7.2812 C   0  0  0  0  0  0  0  0  0  0  0  0
   -4.5891    6.9807    7.8105 C   0  0  0  0  0  0  0  0  0  0  0  0
   -5.4454    8.1942    7.7856 C   0  0  0  0  0  0  0  0  0  0  0  0
   -3.3288    6.9757    8.3401 C   0  0  0  0  0  0  0  0  0  0  0  0
 21 22  1  0  0  0
 22 23  1  0  0  0
 22 13  1  0  0  0
 13 14  2  0  0  0
 13 15  1  0  0  0
 15 16  1  0  0  0
 16 17  1  0  0  0
 17 18  1  0  0  0
 18 19  1  0  0  0
 19 20  1  0  0  0
 18  1  1  0  0  0
  1  2  2  0  0  0
  2  3  1  0  0  0
  3 24  1  0  0  0
 24 25  2  0  0  0
 25 26  1  0  0  0
 26 27  2  0  0  0
 27 30  1  0  0  0
 30 31  1  0  0  0
 31 32  2  0  0  0
 31 33  1  0  0  0
 33 36  1  0  0  0
 36 37  2  0  0  0
 37 38  1  0  0  0
 38 39  2  0  0  0
 39 40  1  0  0  0
 40 41  1  0  0  0
 40 42  2  0  0  0
 27 28  1  0  0  0
 28 29  2  0  0  0
  3  4  2  0  0  0
  4  5  1  0  0  0
  5  6  1  0  0  0
  5  7  2  0  0  0
  7  8  1  0  0  0
  8  9  2  0  0  0
  9 10  1  0  0  0
 20 15  1  0  0  0
 10  1  1  0  0  0
 29 24  1  0  0  0
 10  4  1  0  0  0
 42 36  1  0  0  0
 30 34  1  0  0  0
 33 35  1  0  0  0
  6 11  1  0  0  0
  6 12  1  0  0  0
M  END
> <minimizedAffinity>
-8.60306

> <CNNscore>
0.4482338727

> <CNNaffinity>
6.6816406250

> <CNN_VS>
2.9949376583

> <CNNaffinity_variance>
0.7868295312

$$$$
[H]c1nc(N([H])[H])c2c(-c3c([H])c([H])c(N([H])C(=O)N([H])c4c([H])c([H])c([H])c(C([H])([H])[H])c4[H])c([H])c3[H])c([H])c(C3([H])C([H])([H])C([H])([H])N(C(=O)C([H])(C([H])([H])[H])C([H])([H])[H])C([H])([H])C3([H])[H])n2n1


 42 46  0  0  0  0  0  0  0  0999 V2000
    4.4676    3.5675   17.2924 C   0  0  0  0  0  0  0  0  0  0  0  0
    4.2937    4.5588   16.3643 C   0  0  0  0  0  0  0  0  0  0  0  0
    3.5110    4.0546   15.3175 C   0  0  0  0  0  0  0  0  0  0  0  0
    3.2366    2.7577   15.6606 C   0  0  0  0  0  0  0  0  0  0  0  0
    2.5072    1.7414   15.0583 C   0  0  0  0  0  0  0  0  0  0  0  0
    1.8646    2.0238   13.8261 N   0  0  0  0  0  0  0  0  0  0  0  0
    2.3882    0.5329   15.6318 N   0  0  0  0  0  0  0  0  0  0  0  0
    2.9803    0.3030   16.8019 C   0  0  0  0  0  0  0  0  0  0  0  0
    3.6926    1.2597   17.4167 N   0  0  0  0  0  0  0  0  0  0  0  0
    3.8156    2.4633   16.8538 N   0  0  0  0  0  0  0  0  0  0  0  0
    1.1058    2.7253   13.8040 H   0  0  0  0  0  0  0  0  0  0  0  0
    2.1367    1.5461   12.9531 H   0  0  0  0  0  0  0  0  0  0  0  0
    4.8269    4.0184   22.7411 C   0  0  0  0  0  0  0  0  0  0  0  0
    4.6792    5.1834   23.2154 O   0  0  0  0  0  0  0  0  0  0  0  0
    5.2562    3.9216   21.4056 N   0  0  0  0  0  0  0  0  0  0  0  0
    5.4315    2.6231   20.8046 C   0  0  0  0  0  0  0  0  0  0  0  0
    4.6209    2.6136   19.5103 C   0  0  0  0  0  0  0  0  0  0  0  0
    5.2255    3.6193   18.5778 C   0  0  0  0  0  0  0  0  0  0  0  0
    5.0263    4.9916   19.1868 C   0  0  0  0  0  0  0  0  0  0  0  0
    5.5434    5.0802   20.5815 C   0  0  0  0  0  0  0  0  0  0  0  0
    5.8310    2.1551   24.0272 C   0  0  0  0  0  0  0  0  0  0  0  0
    4.5366    2.8771   23.6323 C   0  0  0  0  0  0  0  0  0  0  0  0
    3.6544    1.8454   22.9619 C   0  0  0  0  0  0  0  0  0  0  0  0
    3.1414    4.7906   14.1120 C   0  0  0  0  0  0  0  0  0  0  0  0
    3.8935    4.6790   12.9689 C   0  0  0  0  0  0  0  0  0  0  0  0
    3.5775    5.3430   11.8084 C   0  0  0  0  0  0  0  0  0  0  0  0
    2.4811    6.1617   11.7298 C   0  0  0  0  0  0  0  0  0  0  0  0
    1.7197    6.2648   12.9160 C   0  0  0  0  0  0  0  0  0  0  0  0
    2.0472    5.6014   14.0532 C   0  0  0  0  0  0  0  0  0  0  0  0
    2.0704    6.8647   10.5882 N   0  0  0  0  0  0  0  0  0  0  0  0
    1.0874    6.4872    9.6686 C   0  0  0  0  0  0  0  0  0  0  0  0
    0.4312    5.4175    9.7832 O   0  0  0  0  0  0  0  0  0  0  0  0
    0.8265    7.3375    8.5777 N   0  0  0  0  0  0  0  0  0  0  0  0
    2.5650    7.7934   10.3925 H   0  0  0  0  0  0  0  0  0  0  0  0
    1.4132    8.2326    8.5337 H   0  0  0  0  0  0  0  0  0  0  0  0
   -0.1100    7.1496    7.5332 C   0  0  0  0  0  0  0  0  0  0  0  0
    0.1766    6.6527    6.2866 C   0  0  0  0  0  0  0  0  0  0  0  0
   -0.8458    6.4921    5.3433 C   0  0  0  0  0  0  0  0  0  0  0  0
   -2.1529    6.8195    5.6220 C   0  0  0  0  0  0  0  0  0  0  0  0
   -2.4613    7.3199    6.8660 C   0  0  0  0  0  0  0  0  0  0  0  0
   -3.8704    7.6755    7.1733 C   0  0  0  0  0  0  0  0  0  0  0  0
   -1.4471    7.4680    7.7706 C   0  0  0  0  0  0  0  0  0  0  0  0
 21 22  1  0  0  0
 22 23  1  0  0  0
 22 13  1  0  0  0
 13 14  2  0  0  0
 13 15  1  0  0  0
 15 16  1  0  0  0
 16 17  1  0  0  0
 17 18  1  0  0  0
 18 19  1  0  0  0
 19 20  1  0  0  0
 18  1  1  0  0  0
  1  2  2  0  0  0
  2  3  1  0  0  0
  3 24  1  0  0  0
 24 25  2  0  0  0
 25 26  1  0  0  0
 26 27  2  0  0  0
 27 30  1  0  0  0
 30 31  1  0  0  0
 31 32  2  0  0  0
 31 33  1  0  0  0
 33 36  1  0  0  0
 36 37  2  0  0  0
 37 38  1  0  0  0
 38 39  2  0  0  0
 39 40  1  0  0  0
 40 41  1  0  0  0
 40 42  2  0  0  0
 27 28  1  0  0  0
 28 29  2  0  0  0
  3  4  2  0  0  0
  4  5  1  0  0  0
  5  6  1  0  0  0
  5  7  2  0  0  0
  7  8  1  0  0  0
  8  9  2  0  0  0
  9 10  1  0  0  0
 20 15  1  0  0  0
 10  1  1  0  0  0
 29 24  1  0  0  0
 10  4  1  0  0  0
 42 36  1  0  0  0
 30 34  1  0  0  0
 33 35  1  0  0  0
  6 11  1  0  0  0
  6 12  1  0  0  0
M  END
> <minimizedAffinity>
-8.83756

> <CNNscore>
0.4319284856

> <CNNaffinity>
6.8752861023

> <CNN_VS>
2.9696319103

> <CNNaffinity_variance>
1.0845949650

$$$$
[H]c1nc(N([H])[H])c2c(-c3c([H])c([H])c(N([H])C(=O)N([H])c4c([H])c([H])c([H])c(C([H])([H])[H])c4[H])c([H])c3[H])c([H])c(C3([H])C([H])([H])C([H])([H])N(C(=O)C([H])(C([H])([H])[H])C([H])([H])[H])C([H])([H])C3([H])[H])n2n1


 42 46  0  0  0  0  0  0  0  0999 V2000
    4.2566    4.9760   16.3887 C   0  0  0  0  0  0  0  0  0  0  0  0
    3.6778    4.9959   15.1484 C   0  0  0  0  0  0  0  0  0  0  0  0
    3.0591    3.7586   14.9271 C   0  0  0  0  0  0  0  0  0  0  0  0
    3.2908    3.0282   16.0620 C   0  0  0  0  0  0  0  0  0  0  0  0
    2.9348    1.7487   16.4668 C   0  0  0  0  0  0  0  0  0  0  0  0
    2.1528    0.9641   15.5815 N   0  0  0  0  0  0  0  0  0  0  0  0
    3.2951    1.2712   17.6692 N   0  0  0  0  0  0  0  0  0  0  0  0
    4.0071    2.0390   18.4914 C   0  0  0  0  0  0  0  0  0  0  0  0
    4.3693    3.2817   18.1377 N   0  0  0  0  0  0  0  0  0  0  0  0
    4.0153    3.7638   16.9448 N   0  0  0  0  0  0  0  0  0  0  0  0
    1.1936    1.2720   15.3507 H   0  0  0  0  0  0  0  0  0  0  0  0
    2.5188    0.0947   15.1636 H   0  0  0  0  0  0  0  0  0  0  0  0
    6.4820    7.3576   20.7929 C   0  0  0  0  0  0  0  0  0  0  0  0
    5.6802    7.9598   21.5665 O   0  0  0  0  0  0  0  0  0  0  0  0
    6.0809    7.1981   19.4547 N   0  0  0  0  0  0  0  0  0  0  0  0
    6.9448    6.5107   18.5277 C   0  0  0  0  0  0  0  0  0  0  0  0
    6.1160    5.4062   17.8754 C   0  0  0  0  0  0  0  0  0  0  0  0
    5.0301    6.0552   17.0717 C   0  0  0  0  0  0  0  0  0  0  0  0
    4.1010    6.7615   18.0370 C   0  0  0  0  0  0  0  0  0  0  0  0
    4.8211    7.7015   18.9416 C   0  0  0  0  0  0  0  0  0  0  0  0
    7.5554    5.5588   22.1144 C   0  0  0  0  0  0  0  0  0  0  0  0
    7.7572    6.8831   21.3673 C   0  0  0  0  0  0  0  0  0  0  0  0
    8.3251    7.8630   22.3720 C   0  0  0  0  0  0  0  0  0  0  0  0
    2.3708    3.3682   13.7003 C   0  0  0  0  0  0  0  0  0  0  0  0
    2.9912    2.5608   12.7794 C   0  0  0  0  0  0  0  0  0  0  0  0
    2.3786    2.1586   11.6174 C   0  0  0  0  0  0  0  0  0  0  0  0
    1.1000    2.5471   11.3125 C   0  0  0  0  0  0  0  0  0  0  0  0
    0.4779    3.3784   12.2713 C   0  0  0  0  0  0  0  0  0  0  0  0
    1.0988    3.7656   13.4138 C   0  0  0  0  0  0  0  0  0  0  0  0
    0.3885    2.1749   10.1630 N   0  0  0  0  0  0  0  0  0  0  0  0
    0.0093    0.8843    9.7820 C   0  0  0  0  0  0  0  0  0  0  0  0
    0.2810   -0.1316   10.4764 O   0  0  0  0  0  0  0  0  0  0  0  0
   -0.7015    0.7212    8.5782 N   0  0  0  0  0  0  0  0  0  0  0  0
    0.1051    2.9636    9.4974 H   0  0  0  0  0  0  0  0  0  0  0  0
   -0.9053    1.6197    8.0318 H   0  0  0  0  0  0  0  0  0  0  0  0
   -1.1721   -0.4832    8.0024 C   0  0  0  0  0  0  0  0  0  0  0  0
   -0.4120   -1.3737    7.2867 C   0  0  0  0  0  0  0  0  0  0  0  0
   -0.9912   -2.5462    6.7856 C   0  0  0  0  0  0  0  0  0  0  0  0
   -2.3188   -2.8468    6.9860 C   0  0  0  0  0  0  0  0  0  0  0  0
   -3.0985   -1.9667    7.7005 C   0  0  0  0  0  0  0  0  0  0  0  0
   -4.5326   -2.2851    7.9203 C   0  0  0  0  0  0  0  0  0  0  0  0
   -2.5117   -0.8288    8.1801 C   0  0  0  0  0  0  0  0  0  0  0  0
 21 22  1  0  0  0
 22 23  1  0  0  0
 22 13  1  0  0  0
 13 14  2  0  0  0
 13 15  1  0  0  0
 15 16  1  0  0  0
 16 17  1  0  0  0
 17 18  1  0  0  0
 18 19  1  0  0  0
 19 20  1  0  0  0
 18  1  1  0  0  0
  1  2  2  0  0  0
  2  3  1  0  0  0
  3 24  1  0  0  0
 24 25  2  0  0  0
 25 26  1  0  0  0
 26 27  2  0  0  0
 27 30  1  0  0  0
 30 31  1  0  0  0
 31 32  2  0  0  0
 31 33  1  0  0  0
 33 36  1  0  0  0
 36 37  2  0  0  0
 37 38  1  0  0  0
 38 39  2  0  0  0
 39 40  1  0  0  0
 40 41  1  0  0  0
 40 42  2  0  0  0
 27 28  1  0  0  0
 28 29  2  0  0  0
  3  4  2  0  0  0
  4  5  1  0  0  0
  5  6  1  0  0  0
  5  7  2  0  0  0
  7  8  1  0  0  0
  8  9  2  0  0  0
  9 10  1  0  0  0
 20 15  1  0  0  0
 10  1  1  0  0  0
 29 24  1  0  0  0
 10  4  1  0  0  0
 42 36  1  0  0  0
 30 34  1  0  0  0
 33 35  1  0  0  0
  6 11  1  0  0  0
  6 12  1  0  0  0
M  END
> <minimizedAffinity>
-7.81396

> <CNNscore>
0.4098099768

> <CNNaffinity>
6.6260385513

> <CNN_VS>
2.7154166698

> <CNNaffinity_variance>
0.5954868197

$$$$
[H]c1nc(N([H])[H])c2c(-c3c([H])c([H])c(N([H])C(=O)N([H])c4c([H])c([H])c([H])c(C([H])([H])[H])c4[H])c([H])c3[H])c([H])c(C3([H])C([H])([H])C([H])([H])N(C(=O)C([H])(C([H])([H])[H])C([H])([H])[H])C([H])([H])C3([H])[H])n2n1


 42 46  0  0  0  0  0  0  0  0999 V2000
    4.6268    4.1777   17.8077 C   0  0  0  0  0  0  0  0  0  0  0  0
    4.1701    4.5027   16.5588 C   0  0  0  0  0  0  0  0  0  0  0  0
    3.4290    3.4225   16.0620 C   0  0  0  0  0  0  0  0  0  0  0  0
    3.4661    2.4723   17.0474 C   0  0  0  0  0  0  0  0  0  0  0  0
    2.9225    1.2009   17.1729 C   0  0  0  0  0  0  0  0  0  0  0  0
    2.1352    0.7053   16.1027 N   0  0  0  0  0  0  0  0  0  0  0  0
    3.1112    0.4672   18.2817 N   0  0  0  0  0  0  0  0  0  0  0  0
    3.8331    0.9676   19.2823 C   0  0  0  0  0  0  0  0  0  0  0  0
    4.3737    2.1929   19.2000 N   0  0  0  0  0  0  0  0  0  0  0  0
    4.1909    2.9286   18.1019 N   0  0  0  0  0  0  0  0  0  0  0  0
    1.2453    1.1779   15.8723 H   0  0  0  0  0  0  0  0  0  0  0  0
    2.4298   -0.1146   15.5500 H   0  0  0  0  0  0  0  0  0  0  0  0
    6.5213    8.9300   19.7695 C   0  0  0  0  0  0  0  0  0  0  0  0
    7.3994    9.5130   19.0673 O   0  0  0  0  0  0  0  0  0  0  0  0
    6.3945    7.5388   19.6089 N   0  0  0  0  0  0  0  0  0  0  0  0
    5.4048    6.8195   20.3713 C   0  0  0  0  0  0  0  0  0  0  0  0
    4.5673    6.0175   19.3775 C   0  0  0  0  0  0  0  0  0  0  0  0
    5.4598    4.9984   18.7361 C   0  0  0  0  0  0  0  0  0  0  0  0
    6.4906    5.7412   17.9117 C   0  0  0  0  0  0  0  0  0  0  0  0
    7.2249    6.7686   18.7028 C   0  0  0  0  0  0  0  0  0  0  0  0
    4.7179   10.6223   19.9034 C   0  0  0  0  0  0  0  0  0  0  0  0
    5.7180    9.7630   20.6870 C   0  0  0  0  0  0  0  0  0  0  0  0
    6.5793   10.7208   21.4827 C   0  0  0  0  0  0  0  0  0  0  0  0
    2.8131    3.3604   14.7399 C   0  0  0  0  0  0  0  0  0  0  0  0
    3.2658    2.4668   13.8011 C   0  0  0  0  0  0  0  0  0  0  0  0
    2.7097    2.3648   12.5490 C   0  0  0  0  0  0  0  0  0  0  0  0
    1.6606    3.1597   12.1665 C   0  0  0  0  0  0  0  0  0  0  0  0
    1.2088    4.0736   13.1453 C   0  0  0  0  0  0  0  0  0  0  0  0
    1.7706    4.1602   14.3771 C   0  0  0  0  0  0  0  0  0  0  0  0
    1.0187    3.1165   10.9206 N   0  0  0  0  0  0  0  0  0  0  0  0
    1.1414    4.0329    9.8719 C   0  0  0  0  0  0  0  0  0  0  0  0
    1.8879    5.0455    9.9445 O   0  0  0  0  0  0  0  0  0  0  0  0
    0.4013    3.8101    8.6956 N   0  0  0  0  0  0  0  0  0  0  0  0
    0.3564    2.2933   10.7501 H   0  0  0  0  0  0  0  0  0  0  0  0
   -0.2137    2.9331    8.6909 H   0  0  0  0  0  0  0  0  0  0  0  0
    0.3679    4.6056    7.5254 C   0  0  0  0  0  0  0  0  0  0  0  0
   -0.4809    5.6608    7.3039 C   0  0  0  0  0  0  0  0  0  0  0  0
   -0.4002    6.3872    6.1094 C   0  0  0  0  0  0  0  0  0  0  0  0
    0.5145    6.0788    5.1289 C   0  0  0  0  0  0  0  0  0  0  0  0
    1.3743    5.0239    5.3311 C   0  0  0  0  0  0  0  0  0  0  0  0
    2.3641    4.6855    4.2765 C   0  0  0  0  0  0  0  0  0  0  0  0
    1.2774    4.3293    6.5046 C   0  0  0  0  0  0  0  0  0  0  0  0
 21 22  1  0  0  0
 22 23  1  0  0  0
 22 13  1  0  0  0
 13 14  2  0  0  0
 13 15  1  0  0  0
 15 16  1  0  0  0
 16 17  1  0  0  0
 17 18  1  0  0  0
 18 19  1  0  0  0
 19 20  1  0  0  0
 18  1  1  0  0  0
  1  2  2  0  0  0
  2  3  1  0  0  0
  3 24  1  0  0  0
 24 25  2  0  0  0
 25 26  1  0  0  0
 26 27  2  0  0  0
 27 30  1  0  0  0
 30 31  1  0  0  0
 31 32  2  0  0  0
 31 33  1  0  0  0
 33 36  1  0  0  0
 36 37  2  0  0  0
 37 38  1  0  0  0
 38 39  2  0  0  0
 39 40  1  0  0  0
 40 41  1  0  0  0
 40 42  2  0  0  0
 27 28  1  0  0  0
 28 29  2  0  0  0
  3  4  2  0  0  0
  4  5  1  0  0  0
  5  6  1  0  0  0
  5  7  2  0  0  0
  7  8  1  0  0  0
  8  9  2  0  0  0
  9 10  1  0  0  0
 20 15  1  0  0  0
 10  1  1  0  0  0
 29 24  1  0  0  0
 10  4  1  0  0  0
 42 36  1  0  0  0
 30 34  1  0  0  0
 33 35  1  0  0  0
  6 11  1  0  0  0
  6 12  1  0  0  0
M  END
> <minimizedAffinity>
-7.83695

> <CNNscore>
0.4065892100

> <CNNaffinity>
6.7186713219

> <CNN_VS>
2.7317392826

> <CNNaffinity_variance>
0.4248394966

$$$$
[H]c1nc(N([H])[H])c2c(-c3c([H])c([H])c(N([H])C(=O)N([H])c4c([H])c([H])c([H])c(C([H])([H])[H])c4[H])c([H])c3[H])c([H])c(C3([H])C([H])([H])C([H])([H])N(C(=O)C([H])(C([H])([H])[H])C([H])([H])[H])C([H])([H])C3([H])[H])n2n1


 42 46  0  0  0  0  0  0  0  0999 V2000
    3.7159    2.6162   16.3413 C   0  0  0  0  0  0  0  0  0  0  0  0
    4.2187    3.6075   17.1403 C   0  0  0  0  0  0  0  0  0  0  0  0
    4.1892    3.1646   18.4691 C   0  0  0  0  0  0  0  0  0  0  0  0
    3.6628    1.9015   18.4198 C   0  0  0  0  0  0  0  0  0  0  0  0
    3.3908    0.9389   19.3827 C   0  0  0  0  0  0  0  0  0  0  0  0
    3.7058    1.2401   20.7322 N   0  0  0  0  0  0  0  0  0  0  0  0
    2.8689   -0.2530   19.0506 N   0  0  0  0  0  0  0  0  0  0  0  0
    2.6071   -0.5194   17.7726 C   0  0  0  0  0  0  0  0  0  0  0  0
    2.8573    0.3839   16.8123 N   0  0  0  0  0  0  0  0  0  0  0  0
    3.3760    1.5706   17.1338 N   0  0  0  0  0  0  0  0  0  0  0  0
    4.6947    1.3789   20.9986 H   0  0  0  0  0  0  0  0  0  0  0  0
    2.9719    1.3235   21.4524 H   0  0  0  0  0  0  0  0  0  0  0  0
    1.6012    4.5366   11.6657 C   0  0  0  0  0  0  0  0  0  0  0  0
    0.3953    4.2291   11.4311 O   0  0  0  0  0  0  0  0  0  0  0  0
    2.3224    3.6871   12.5233 N   0  0  0  0  0  0  0  0  0  0  0  0
    3.6960    3.9901   12.8386 C   0  0  0  0  0  0  0  0  0  0  0  0
    3.8156    4.0023   14.3611 C   0  0  0  0  0  0  0  0  0  0  0  0
    3.5420    2.6151   14.8583 C   0  0  0  0  0  0  0  0  0  0  0  0
    2.0936    2.2933   14.5545 C   0  0  0  0  0  0  0  0  0  0  0  0
    1.7510    2.4940   13.1182 C   0  0  0  0  0  0  0  0  0  0  0  0
    1.5115    7.0115   11.6351 C   0  0  0  0  0  0  0  0  0  0  0  0
    2.1336    5.7525   11.0181 C   0  0  0  0  0  0  0  0  0  0  0  0
    1.8125    5.7931    9.5391 C   0  0  0  0  0  0  0  0  0  0  0  0
    4.5988    3.9514   19.6287 C   0  0  0  0  0  0  0  0  0  0  0  0
    3.8687    5.0456   20.0219 C   0  0  0  0  0  0  0  0  0  0  0  0
    4.2093    5.8081   21.1128 C   0  0  0  0  0  0  0  0  0  0  0  0
    5.3094    5.5130   21.8752 C   0  0  0  0  0  0  0  0  0  0  0  0
    6.0488    4.3843   21.4549 C   0  0  0  0  0  0  0  0  0  0  0  0
    5.6971    3.6428   20.3746 C   0  0  0  0  0  0  0  0  0  0  0  0
    5.7251    6.2203   23.0123 N   0  0  0  0  0  0  0  0  0  0  0  0
    6.7820    7.1310   23.1044 C   0  0  0  0  0  0  0  0  0  0  0  0
    7.5054    7.4274   22.1161 O   0  0  0  0  0  0  0  0  0  0  0  0
    7.0415    7.7346   24.3491 N   0  0  0  0  0  0  0  0  0  0  0  0
    5.1773    6.0436   23.9146 H   0  0  0  0  0  0  0  0  0  0  0  0
    6.3932    7.4459   25.1514 H   0  0  0  0  0  0  0  0  0  0  0  0
    8.0558    8.6691   24.6678 C   0  0  0  0  0  0  0  0  0  0  0  0
    8.0215   10.0104   24.3805 C   0  0  0  0  0  0  0  0  0  0  0  0
    9.0814   10.8386   24.7700 C   0  0  0  0  0  0  0  0  0  0  0  0
   10.1783   10.3512   25.4425 C   0  0  0  0  0  0  0  0  0  0  0  0
   10.2325    9.0089   25.7398 C   0  0  0  0  0  0  0  0  0  0  0  0
   11.4140    8.4762   26.4655 C   0  0  0  0  0  0  0  0  0  0  0  0
    9.1865    8.2198   25.3499 C   0  0  0  0  0  0  0  0  0  0  0  0
 21 22  1  0  0  0
 22 23  1  0  0  0
 22 13  1  0  0  0
 13 14  2  0  0  0
 13 15  1  0  0  0
 15 16  1  0  0  0
 16 17  1  0  0  0
 17 18  1  0  0  0
 18 19  1  0  0  0
 19 20  1  0  0  0
 18  1  1  0  0  0
  1  2  2  0  0  0
  2  3  1  0  0  0
  3 24  1  0  0  0
 24 25  2  0  0  0
 25 26  1  0  0  0
 26 27  2  0  0  0
 27 30  1  0  0  0
 30 31  1  0  0  0
 31 32  2  0  0  0
 31 33  1  0  0  0
 33 36  1  0  0  0
 36 37  2  0  0  0
 37 38  1  0  0  0
 38 39  2  0  0  0
 39 40  1  0  0  0
 40 41  1  0  0  0
 40 42  2  0  0  0
 27 28  1  0  0  0
 28 29  2  0  0  0
  3  4  2  0  0  0
  4  5  1  0  0  0
  5  6  1  0  0  0
  5  7  2  0  0  0
  7  8  1  0  0  0
  8  9  2  0  0  0
  9 10  1  0  0  0
 20 15  1  0  0  0
 10  1  1  0  0  0
 29 24  1  0  0  0
 10  4  1  0  0  0
 42 36  1  0  0  0
 30 34  1  0  0  0
 33 35  1  0  0  0
  6 11  1  0  0  0
  6 12  1  0  0  0
M  END
> <minimizedAffinity>
-9.67057

> <CNNscore>
0.3525721133

> <CNNaffinity>
7.0117402077

> <CNN_VS>
2.4721441269

> <CNNaffinity_variance>
0.2831059694

$$$$
[H]c1nc(N([H])[H])c2c(-c3c([H])c([H])c(N([H])C(=O)N([H])c4c([H])c([H])c([H])c(C([H])([H])[H])c4[H])c([H])c3[H])c([H])c(C3([H])C([H])([H])C([H])([H])N(C(=O)C([H])(C([H])([H])[H])C([H])([H])[H])C([H])([H])C3([H])[H])n2n1


 42 46  0  0  0  0  0  0  0  0999 V2000
    4.3965    4.3653   17.3218 C   0  0  0  0  0  0  0  0  0  0  0  0
    4.0554    4.9412   16.1276 C   0  0  0  0  0  0  0  0  0  0  0  0
    3.3543    3.9987   15.3642 C   0  0  0  0  0  0  0  0  0  0  0  0
    3.2967    2.8722   16.1407 C   0  0  0  0  0  0  0  0  0  0  0  0
    2.7353    1.6148   15.9638 C   0  0  0  0  0  0  0  0  0  0  0  0
    2.0434    1.3593   14.7526 N   0  0  0  0  0  0  0  0  0  0  0  0
    2.8192    0.6723   16.9168 N   0  0  0  0  0  0  0  0  0  0  0  0
    3.4521    0.9477   18.0553 C   0  0  0  0  0  0  0  0  0  0  0  0
    4.0064    2.1516   18.2650 N   0  0  0  0  0  0  0  0  0  0  0  0
    3.9275    3.0937   17.3233 N   0  0  0  0  0  0  0  0  0  0  0  0
    1.1810    1.8896   14.5449 H   0  0  0  0  0  0  0  0  0  0  0  0
    2.3806    0.6576   14.0757 H   0  0  0  0  0  0  0  0  0  0  0  0
    6.4792    8.5902   20.1207 C   0  0  0  0  0  0  0  0  0  0  0  0
    7.5289    9.1130   19.6424 O   0  0  0  0  0  0  0  0  0  0  0  0
    6.2163    7.2529   19.7745 N   0  0  0  0  0  0  0  0  0  0  0  0
    5.0308    6.6052   20.2776 C   0  0  0  0  0  0  0  0  0  0  0  0
    4.2876    6.0299   19.0738 C   0  0  0  0  0  0  0  0  0  0  0  0
    5.1488    4.9661   18.4630 C   0  0  0  0  0  0  0  0  0  0  0  0
    6.3880    5.6375   17.9085 C   0  0  0  0  0  0  0  0  0  0  0  0
    7.0924    6.4693   18.9246 C   0  0  0  0  0  0  0  0  0  0  0  0
    4.9591   10.5444   20.1842 C   0  0  0  0  0  0  0  0  0  0  0  0
    5.6352    9.4307   20.9937 C   0  0  0  0  0  0  0  0  0  0  0  0
    6.4443   10.1141   22.0756 C   0  0  0  0  0  0  0  0  0  0  0  0
    2.8586    4.2137   14.0080 C   0  0  0  0  0  0  0  0  0  0  0  0
    1.6156    4.7571   13.7979 C   0  0  0  0  0  0  0  0  0  0  0  0
    1.1128    4.9882   12.5404 C   0  0  0  0  0  0  0  0  0  0  0  0
    1.8348    4.6847   11.4156 C   0  0  0  0  0  0  0  0  0  0  0  0
    3.1112    4.1256   11.6513 C   0  0  0  0  0  0  0  0  0  0  0  0
    3.5913    3.9044   12.9009 C   0  0  0  0  0  0  0  0  0  0  0  0
    1.4137    4.8995   10.0955 N   0  0  0  0  0  0  0  0  0  0  0  0
    1.7509    5.9702    9.2620 C   0  0  0  0  0  0  0  0  0  0  0  0
    2.5149    6.9005    9.6343 O   0  0  0  0  0  0  0  0  0  0  0  0
    1.2138    6.0035    7.9615 N   0  0  0  0  0  0  0  0  0  0  0  0
    0.7569    4.1661    9.6758 H   0  0  0  0  0  0  0  0  0  0  0  0
    0.5732    5.1857    7.7005 H   0  0  0  0  0  0  0  0  0  0  0  0
    1.4131    6.9871    6.9632 C   0  0  0  0  0  0  0  0  0  0  0  0
    2.2371    6.8599    5.8734 C   0  0  0  0  0  0  0  0  0  0  0  0
    2.3317    7.8998    4.9403 C   0  0  0  0  0  0  0  0  0  0  0  0
    1.6173    9.0679    5.0755 C   0  0  0  0  0  0  0  0  0  0  0  0
    0.7857    9.2157    6.1617 C   0  0  0  0  0  0  0  0  0  0  0  0
    0.0118   10.4743    6.3137 C   0  0  0  0  0  0  0  0  0  0  0  0
    0.7093    8.1875    7.0594 C   0  0  0  0  0  0  0  0  0  0  0  0
 21 22  1  0  0  0
 22 23  1  0  0  0
 22 13  1  0  0  0
 13 14  2  0  0  0
 13 15  1  0  0  0
 15 16  1  0  0  0
 16 17  1  0  0  0
 17 18  1  0  0  0
 18 19  1  0  0  0
 19 20  1  0  0  0
 18  1  1  0  0  0
  1  2  2  0  0  0
  2  3  1  0  0  0
  3 24  1  0  0  0
 24 25  2  0  0  0
 25 26  1  0  0  0
 26 27  2  0  0  0
 27 30  1  0  0  0
 30 31  1  0  0  0
 31 32  2  0  0  0
 31 33  1  0  0  0
 33 36  1  0  0  0
 36 37  2  0  0  0
 37 38  1  0  0  0
 38 39  2  0  0  0
 39 40  1  0  0  0
 40 41  1  0  0  0
 40 42  2  0  0  0
 27 28  1  0  0  0
 28 29  2  0  0  0
  3  4  2  0  0  0
  4  5  1  0  0  0
  5  6  1  0  0  0
  5  7  2  0  0  0
  7  8  1  0  0  0
  8  9  2  0  0  0
  9 10  1  0  0  0
 20 15  1  0  0  0
 10  1  1  0  0  0
 29 24  1  0  0  0
 10  4  1  0  0  0
 42 36  1  0  0  0
 30 34  1  0  0  0
 33 35  1  0  0  0
  6 11  1  0  0  0
  6 12  1  0  0  0
M  END
> <minimizedAffinity>
-8.45735

> <CNNscore>
0.3496605158

> <CNNaffinity>
6.6205482483

> <CNN_VS>
2.3149442673

> <CNNaffinity_variance>
0.5879983306

$$$$
[H]c1nc(N([H])[H])c2c(-c3c([H])c([H])c(N([H])C(=O)N([H])c4c([H])c([H])c([H])c(C([H])([H])[H])c4[H])c([H])c3[H])c([H])c(C3([H])C([H])([H])C([H])([H])N(C(=O)C([H])(C([H])([H])[H])C([H])([H])[H])C([H])([H])C3([H])[H])n2n1


 42 46  0  0  0  0  0  0  0  0999 V2000
    4.3850    4.6164   18.0604 C   0  0  0  0  0  0  0  0  0  0  0  0
    3.9890    4.6960   16.7524 C   0  0  0  0  0  0  0  0  0  0  0  0
    3.6000    3.4189   16.3276 C   0  0  0  0  0  0  0  0  0  0  0  0
    3.7775    2.6046   17.4142 C   0  0  0  0  0  0  0  0  0  0  0  0
    3.5644    1.2518   17.6421 C   0  0  0  0  0  0  0  0  0  0  0  0
    3.0405    0.4723   16.5796 N   0  0  0  0  0  0  0  0  0  0  0  0
    3.8204    0.6963   18.8377 N   0  0  0  0  0  0  0  0  0  0  0  0
    4.2871    1.4568   19.8259 C   0  0  0  0  0  0  0  0  0  0  0  0
    4.5047    2.7685   19.6458 N   0  0  0  0  0  0  0  0  0  0  0  0
    4.2528    3.3284   18.4610 N   0  0  0  0  0  0  0  0  0  0  0  0
    2.0878    0.6718   16.2321 H   0  0  0  0  0  0  0  0  0  0  0  0
    3.5875   -0.2876   16.1465 H   0  0  0  0  0  0  0  0  0  0  0  0
    5.5938    9.8419   19.1803 C   0  0  0  0  0  0  0  0  0  0  0  0
    6.6551   10.2934   18.6572 O   0  0  0  0  0  0  0  0  0  0  0  0
    5.5131    8.4500   19.3630 N   0  0  0  0  0  0  0  0  0  0  0  0
    4.3257    7.8738   19.9425 C   0  0  0  0  0  0  0  0  0  0  0  0
    3.8428    6.7840   18.9878 C   0  0  0  0  0  0  0  0  0  0  0  0
    4.8847    5.7072   18.9491 C   0  0  0  0  0  0  0  0  0  0  0  0
    6.1310    6.2936   18.3193 C   0  0  0  0  0  0  0  0  0  0  0  0
    6.5829    7.5413   18.9972 C   0  0  0  0  0  0  0  0  0  0  0  0
    3.5999   11.0657   18.3675 C   0  0  0  0  0  0  0  0  0  0  0  0
    4.5466   10.8161   19.5483 C   0  0  0  0  0  0  0  0  0  0  0  0
    5.1314   12.1611   19.9240 C   0  0  0  0  0  0  0  0  0  0  0  0
    3.1565    3.0784   14.9791 C   0  0  0  0  0  0  0  0  0  0  0  0
    2.0215    2.3304   14.7864 C   0  0  0  0  0  0  0  0  0  0  0  0
    1.5600    1.9960   13.5364 C   0  0  0  0  0  0  0  0  0  0  0  0
    2.2165    2.3966   12.4018 C   0  0  0  0  0  0  0  0  0  0  0  0
    3.3826    3.1647   12.6197 C   0  0  0  0  0  0  0  0  0  0  0  0
    3.8234    3.4853   13.8621 C   0  0  0  0  0  0  0  0  0  0  0  0
    1.8137    2.1194   11.0877 N   0  0  0  0  0  0  0  0  0  0  0  0
    2.4214    1.2450   10.1817 C   0  0  0  0  0  0  0  0  0  0  0  0
    3.4488    0.5766   10.4745 O   0  0  0  0  0  0  0  0  0  0  0  0
    1.8600    1.1114    8.8980 N   0  0  0  0  0  0  0  0  0  0  0  0
    0.9463    2.6358   10.7324 H   0  0  0  0  0  0  0  0  0  0  0  0
    0.9871    1.7023    8.7072 H   0  0  0  0  0  0  0  0  0  0  0  0
    2.3119    0.2979    7.8314 C   0  0  0  0  0  0  0  0  0  0  0  0
    3.1748    0.6919    6.8398 C   0  0  0  0  0  0  0  0  0  0  0  0
    3.5663   -0.2167    5.8488 C   0  0  0  0  0  0  0  0  0  0  0  0
    3.1109   -1.5149    5.8289 C   0  0  0  0  0  0  0  0  0  0  0  0
    2.2445   -1.9298    6.8139 C   0  0  0  0  0  0  0  0  0  0  0  0
    1.7489   -3.3300    6.7981 C   0  0  0  0  0  0  0  0  0  0  0  0
    1.8762   -1.0258    7.7709 C   0  0  0  0  0  0  0  0  0  0  0  0
 21 22  1  0  0  0
 22 23  1  0  0  0
 22 13  1  0  0  0
 13 14  2  0  0  0
 13 15  1  0  0  0
 15 16  1  0  0  0
 16 17  1  0  0  0
 17 18  1  0  0  0
 18 19  1  0  0  0
 19 20  1  0  0  0
 18  1  1  0  0  0
  1  2  2  0  0  0
  2  3  1  0  0  0
  3 24  1  0  0  0
 24 25  2  0  0  0
 25 26  1  0  0  0
 26 27  2  0  0  0
 27 30  1  0  0  0
 30 31  1  0  0  0
 31 32  2  0  0  0
 31 33  1  0  0  0
 33 36  1  0  0  0
 36 37  2  0  0  0
 37 38  1  0  0  0
 38 39  2  0  0  0
 39 40  1  0  0  0
 40 41  1  0  0  0
 40 42  2  0  0  0
 27 28  1  0  0  0
 28 29  2  0  0  0
  3  4  2  0  0  0
  4  5  1  0  0  0
  5  6  1  0  0  0
  5  7  2  0  0  0
  7  8  1  0  0  0
  8  9  2  0  0  0
  9 10  1  0  0  0
 20 15  1  0  0  0
 10  1  1  0  0  0
 29 24  1  0  0  0
 10  4  1  0  0  0
 42 36  1  0  0  0
 30 34  1  0  0  0
 33 35  1  0  0  0
  6 11  1  0  0  0
  6 12  1  0  0  0
M  END
> <minimizedAffinity>
-8.17817

> <CNNscore>
0.3083328307

> <CNNaffinity>
6.6984586716

> <CNN_VS>
2.0653548241

> <CNNaffinity_variance>
0.6272519827

$$$$
[H]c1c([H])c([H])c(C(=C2C(=O)N([H])c3c([H])c([H])c(N([H])C4([H])C([H])([H])C([H])([H])N(C([H])([H])[H])C([H])([H])C4([H])[H])c([H])c32)c2nc(-c3c([H])c([H])c(Br)c([H])c3[H])no2)c([H])c1[H]


 39 44  0  0  0  0  0  0  0  0999 V2000
    5.1462    1.8661   20.9958 C   0  0  0  0  0  0  0  0  0  0  0  0
    4.6443    0.6820   21.4804 C   0  0  0  0  0  0  0  0  0  0  0  0
    3.7921   -0.1030   20.7423 C   0  0  0  0  0  0  0  0  0  0  0  0
    3.4072    0.2902   19.4572 C   0  0  0  0  0  0  0  0  0  0  0  0
    2.5852   -0.3711   18.5299 N   0  0  0  0  0  0  0  0  0  0  0  0
    2.5558    0.4455   17.3736 C   0  0  0  0  0  0  0  0  0  0  0  0
    1.9282    0.1953   16.3128 O   0  0  0  0  0  0  0  0  0  0  0  0
    3.3787    1.6643   17.5652 C   0  0  0  0  0  0  0  0  0  0  0  0
    3.6045    2.5789   16.6894 C   0  0  0  0  0  0  0  0  0  0  0  0
    3.9029    1.4850   18.9508 C   0  0  0  0  0  0  0  0  0  0  0  0
    4.7447    2.2383   19.7043 C   0  0  0  0  0  0  0  0  0  0  0  0
    2.0955   -1.2673   18.6473 H   0  0  0  0  0  0  0  0  0  0  0  0
    4.2901    3.8534   16.9954 C   0  0  0  0  0  0  0  0  0  0  0  0
    3.5678    5.0358   17.1982 C   0  0  0  0  0  0  0  0  0  0  0  0
    4.1795    6.2408   17.4652 C   0  0  0  0  0  0  0  0  0  0  0  0
    5.5598    6.2576   17.5307 C   0  0  0  0  0  0  0  0  0  0  0  0
    6.3069    5.1409   17.3419 C   0  0  0  0  0  0  0  0  0  0  0  0
    5.6625    3.9446   17.0751 C   0  0  0  0  0  0  0  0  0  0  0  0
    3.0849    2.5641   15.3224 C   0  0  0  0  0  0  0  0  0  0  0  0
    2.1696    3.3587   14.7929 N   0  0  0  0  0  0  0  0  0  0  0  0
    1.9500    3.0316   13.4817 C   0  0  0  0  0  0  0  0  0  0  0  0
    2.7961    1.9881   13.2656 N   0  0  0  0  0  0  0  0  0  0  0  0
    3.4479    1.7329   14.3528 O   0  0  0  0  0  0  0  0  0  0  0  0
    1.0359    3.6541   12.5613 C   0  0  0  0  0  0  0  0  0  0  0  0
   -0.0413    4.3621   13.0177 C   0  0  0  0  0  0  0  0  0  0  0  0
   -0.9373    4.9665   12.1235 C   0  0  0  0  0  0  0  0  0  0  0  0
   -0.7364    4.8495   10.7846 C   0  0  0  0  0  0  0  0  0  0  0  0
   -1.9361    5.6567    9.5184 Br  0  0  0  0  0  0  0  0  0  0  0  0
    0.3414    4.1415   10.3040 C   0  0  0  0  0  0  0  0  0  0  0  0
    1.2295    3.5420   11.2112 C   0  0  0  0  0  0  0  0  0  0  0  0
    6.0175    2.6838   21.7257 N   0  0  0  0  0  0  0  0  0  0  0  0
    6.8466    2.2591   22.2051 H   0  0  0  0  0  0  0  0  0  0  0  0
    4.9875    7.4949   20.7603 C   0  0  0  0  0  0  0  0  0  0  0  0
    5.3681    6.4894   21.6680 N   0  0  0  0  0  0  0  0  0  0  0  0
    6.7272    6.3572   22.0263 C   0  0  0  0  0  0  0  0  0  0  0  0
    7.0082    4.8762   22.3285 C   0  0  0  0  0  0  0  0  0  0  0  0
    5.8281    4.0841   21.8487 C   0  0  0  0  0  0  0  0  0  0  0  0
    4.6723    4.4488   22.7848 C   0  0  0  0  0  0  0  0  0  0  0  0
    4.4066    5.9426   22.5413 C   0  0  0  0  0  0  0  0  0  0  0  0
 33 34  1  0  0  0
 34 35  1  0  0  0
 35 36  1  0  0  0
 36 37  1  0  0  0
 37 38  1  0  0  0
 38 39  1  0  0  0
 37 31  1  0  0  0
 31  1  1  0  0  0
  1  2  2  0  0  0
  2  3  1  0  0  0
  3  4  2  0  0  0
  4  5  1  0  0  0
  5  6  1  0  0  0
  6  7  2  0  0  0
  6  8  1  0  0  0
  8  9  2  0  0  0
  9 19  1  0  0  0
 19 20  2  0  0  0
 20 21  1  0  0  0
 21 22  2  0  0  0
 22 23  1  0  0  0
 21 24  1  0  0  0
 24 25  2  0  0  0
 25 26  1  0  0  0
 26 27  2  0  0  0
 27 28  1  0  0  0
 27 29  1  0  0  0
 29 30  2  0  0  0
  9 13  1  0  0  0
 13 14  2  0  0  0
 14 15  1  0  0  0
 15 16  2  0  0  0
 16 17  1  0  0  0
 17 18  2  0  0  0
  8 10  1  0  0  0
 10 11  2  0  0  0
 39 34  1  0  0  0
 11  1  1  0  0  0
 10  4  1  0  0  0
 23 19  1  0  0  0
 30 24  1  0  0  0
 18 13  1  0  0  0
 31 32  1  0  0  0
  5 12  1  0  0  0
M  END
> <minimizedAffinity>
-9.57566

> <CNNscore>
0.6413596869

> <CNNaffinity>
7.3962717056

> <CNN_VS>
4.7436704636

> <CNNaffinity_variance>
0.2694559693

$$$$
[H]c1c([H])c([H])c(C(=C2C(=O)N([H])c3c([H])c([H])c(N([H])C4([H])C([H])([H])C([H])([H])N(C([H])([H])[H])C([H])([H])C4([H])[H])c([H])c32)c2nc(-c3c([H])c([H])c(Br)c([H])c3[H])no2)c([H])c1[H]


 39 44  0  0  0  0  0  0  0  0999 V2000
    4.1965    1.1628   19.7996 C   0  0  0  0  0  0  0  0  0  0  0  0
    3.4615    0.0049   19.7121 C   0  0  0  0  0  0  0  0  0  0  0  0
    2.7094   -0.2971   18.6028 C   0  0  0  0  0  0  0  0  0  0  0  0
    2.6725    0.5815   17.5161 C   0  0  0  0  0  0  0  0  0  0  0  0
    2.0069    0.4525   16.2860 N   0  0  0  0  0  0  0  0  0  0  0  0
    2.3352    1.6071   15.5350 C   0  0  0  0  0  0  0  0  0  0  0  0
    1.9366    1.8642   14.3702 O   0  0  0  0  0  0  0  0  0  0  0  0
    3.2331    2.5017   16.3049 C   0  0  0  0  0  0  0  0  0  0  0  0
    3.7570    3.6002   15.8887 C   0  0  0  0  0  0  0  0  0  0  0  0
    3.4077    1.7580   17.5868 C   0  0  0  0  0  0  0  0  0  0  0  0
    4.1424    2.0275   18.6964 C   0  0  0  0  0  0  0  0  0  0  0  0
    1.4002   -0.3167   15.9744 H   0  0  0  0  0  0  0  0  0  0  0  0
    4.5031    4.5331   16.7610 C   0  0  0  0  0  0  0  0  0  0  0  0
    3.8834    5.6581   17.3188 C   0  0  0  0  0  0  0  0  0  0  0  0
    4.5573    6.5546   18.1187 C   0  0  0  0  0  0  0  0  0  0  0  0
    5.8953    6.3124   18.3656 C   0  0  0  0  0  0  0  0  0  0  0  0
    6.5435    5.2378   17.8498 C   0  0  0  0  0  0  0  0  0  0  0  0
    5.8385    4.3548   17.0493 C   0  0  0  0  0  0  0  0  0  0  0  0
    3.5596    4.1583   14.5513 C   0  0  0  0  0  0  0  0  0  0  0  0
    4.3190    3.9912   13.4813 N   0  0  0  0  0  0  0  0  0  0  0  0
    3.8031    4.6765   12.4143 C   0  0  0  0  0  0  0  0  0  0  0  0
    2.6849    5.2637   12.9208 N   0  0  0  0  0  0  0  0  0  0  0  0
    2.5629    4.9476   14.1686 O   0  0  0  0  0  0  0  0  0  0  0  0
    4.3307    4.7494   11.0777 C   0  0  0  0  0  0  0  0  0  0  0  0
    5.6645    4.5618   10.8418 C   0  0  0  0  0  0  0  0  0  0  0  0
    6.1835    4.6367    9.5408 C   0  0  0  0  0  0  0  0  0  0  0  0
    5.3533    4.8989    8.4973 C   0  0  0  0  0  0  0  0  0  0  0  0
    6.0152    5.0141    6.6965 Br  0  0  0  0  0  0  0  0  0  0  0  0
    4.0077    5.0908    8.7124 C   0  0  0  0  0  0  0  0  0  0  0  0
    3.5030    5.0130   10.0202 C   0  0  0  0  0  0  0  0  0  0  0  0
    4.9728    1.4940   20.9170 N   0  0  0  0  0  0  0  0  0  0  0  0
    5.5725    0.7618   21.3662 H   0  0  0  0  0  0  0  0  0  0  0  0
    4.5151    6.4419   21.5862 C   0  0  0  0  0  0  0  0  0  0  0  0
    4.8401    5.1696   22.0916 N   0  0  0  0  0  0  0  0  0  0  0  0
    6.1965    4.7974   22.2122 C   0  0  0  0  0  0  0  0  0  0  0  0
    6.3023    3.2762   22.0156 C   0  0  0  0  0  0  0  0  0  0  0  0
    4.9863    2.7963   21.4789 C   0  0  0  0  0  0  0  0  0  0  0  0
    3.9833    2.9610   22.6243 C   0  0  0  0  0  0  0  0  0  0  0  0
    3.8999    4.4743   22.8781 C   0  0  0  0  0  0  0  0  0  0  0  0
 33 34  1  0  0  0
 34 35  1  0  0  0
 35 36  1  0  0  0
 36 37  1  0  0  0
 37 38  1  0  0  0
 38 39  1  0  0  0
 37 31  1  0  0  0
 31  1  1  0  0  0
  1  2  2  0  0  0
  2  3  1  0  0  0
  3  4  2  0  0  0
  4  5  1  0  0  0
  5  6  1  0  0  0
  6  7  2  0  0  0
  6  8  1  0  0  0
  8  9  2  0  0  0
  9 19  1  0  0  0
 19 20  2  0  0  0
 20 21  1  0  0  0
 21 22  2  0  0  0
 22 23  1  0  0  0
 21 24  1  0  0  0
 24 25  2  0  0  0
 25 26  1  0  0  0
 26 27  2  0  0  0
 27 28  1  0  0  0
 27 29  1  0  0  0
 29 30  2  0  0  0
  9 13  1  0  0  0
 13 14  2  0  0  0
 14 15  1  0  0  0
 15 16  2  0  0  0
 16 17  1  0  0  0
 17 18  2  0  0  0
  8 10  1  0  0  0
 10 11  2  0  0  0
 39 34  1  0  0  0
 11  1  1  0  0  0
 10  4  1  0  0  0
 23 19  1  0  0  0
 30 24  1  0  0  0
 18 13  1  0  0  0
 31 32  1  0  0  0
  5 12  1  0  0  0
M  END
> <minimizedAffinity>
-9.25880

> <CNNscore>
0.5164890885

> <CNNaffinity>
7.1221075058

> <CNN_VS>
3.6784908772

> <CNNaffinity_variance>
0.2820629478

$$$$
[H]c1c([H])c([H])c(C(=C2C(=O)N([H])c3c([H])c([H])c(N([H])C4([H])C([H])([H])C([H])([H])N(C([H])([H])[H])C([H])([H])C4([H])[H])c([H])c32)c2nc(-c3c([H])c([H])c(Br)c([H])c3[H])no2)c([H])c1[H]


 39 44  0  0  0  0  0  0  0  0999 V2000
    6.3106    3.6833   21.8709 C   0  0  0  0  0  0  0  0  0  0  0  0
    6.1938    2.4325   22.4283 C   0  0  0  0  0  0  0  0  0  0  0  0
    5.4970    1.4229   21.8099 C   0  0  0  0  0  0  0  0  0  0  0  0
    4.8783    1.6466   20.5764 C   0  0  0  0  0  0  0  0  0  0  0  0
    4.1566    0.7558   19.7650 N   0  0  0  0  0  0  0  0  0  0  0  0
    3.7830    1.4855   18.6105 C   0  0  0  0  0  0  0  0  0  0  0  0
    3.1251    1.0357   17.6376 O   0  0  0  0  0  0  0  0  0  0  0  0
    4.2760    2.8822   18.6846 C   0  0  0  0  0  0  0  0  0  0  0  0
    4.1537    3.7846   17.7761 C   0  0  0  0  0  0  0  0  0  0  0  0
    4.9839    2.9052   19.9980 C   0  0  0  0  0  0  0  0  0  0  0  0
    5.6808    3.8822   20.6334 C   0  0  0  0  0  0  0  0  0  0  0  0
    3.9342   -0.2301   19.9529 H   0  0  0  0  0  0  0  0  0  0  0  0
    4.5136    5.2048   17.9796 C   0  0  0  0  0  0  0  0  0  0  0  0
    3.5840    6.1247   18.4800 C   0  0  0  0  0  0  0  0  0  0  0  0
    3.8843    7.4567   18.6617 C   0  0  0  0  0  0  0  0  0  0  0  0
    5.1585    7.8769   18.3305 C   0  0  0  0  0  0  0  0  0  0  0  0
    6.0966    7.0269   17.8419 C   0  0  0  0  0  0  0  0  0  0  0  0
    5.7640    5.6937   17.6705 C   0  0  0  0  0  0  0  0  0  0  0  0
    3.5029    3.5762   16.4830 C   0  0  0  0  0  0  0  0  0  0  0  0
    4.0663    3.5390   15.2869 N   0  0  0  0  0  0  0  0  0  0  0  0
    3.1233    3.3224   14.3182 C   0  0  0  0  0  0  0  0  0  0  0  0
    1.9596    3.2334   15.0179 N   0  0  0  0  0  0  0  0  0  0  0  0
    2.2051    3.3843   16.2784 O   0  0  0  0  0  0  0  0  0  0  0  0
    3.3296    3.2165   12.8982 C   0  0  0  0  0  0  0  0  0  0  0  0
    2.7093    2.2371   12.1732 C   0  0  0  0  0  0  0  0  0  0  0  0
    2.9115    2.1277   10.7894 C   0  0  0  0  0  0  0  0  0  0  0  0
    3.7342    3.0047   10.1563 C   0  0  0  0  0  0  0  0  0  0  0  0
    4.0461    2.8959    8.2629 Br  0  0  0  0  0  0  0  0  0  0  0  0
    4.3683    3.9980   10.8670 C   0  0  0  0  0  0  0  0  0  0  0  0
    4.1562    4.0948   12.2515 C   0  0  0  0  0  0  0  0  0  0  0  0
    7.0163    4.7291   22.4784 N   0  0  0  0  0  0  0  0  0  0  0  0
    7.7720    4.5105   23.1702 H   0  0  0  0  0  0  0  0  0  0  0  0
    6.6092    9.7143   22.8255 C   0  0  0  0  0  0  0  0  0  0  0  0
    6.4662    8.5299   22.0797 N   0  0  0  0  0  0  0  0  0  0  0  0
    5.1846    7.9582   21.9257 C   0  0  0  0  0  0  0  0  0  0  0  0
    5.3435    6.4334   21.8090 C   0  0  0  0  0  0  0  0  0  0  0  0
    6.7523    6.0939   22.1963 C   0  0  0  0  0  0  0  0  0  0  0  0
    7.6385    6.6534   21.0797 C   0  0  0  0  0  0  0  0  0  0  0  0
    7.4552    8.1779   21.1395 C   0  0  0  0  0  0  0  0  0  0  0  0
 33 34  1  0  0  0
 34 35  1  0  0  0
 35 36  1  0  0  0
 36 37  1  0  0  0
 37 38  1  0  0  0
 38 39  1  0  0  0
 37 31  1  0  0  0
 31  1  1  0  0  0
  1  2  2  0  0  0
  2  3  1  0  0  0
  3  4  2  0  0  0
  4  5  1  0  0  0
  5  6  1  0  0  0
  6  7  2  0  0  0
  6  8  1  0  0  0
  8  9  2  0  0  0
  9 19  1  0  0  0
 19 20  2  0  0  0
 20 21  1  0  0  0
 21 22  2  0  0  0
 22 23  1  0  0  0
 21 24  1  0  0  0
 24 25  2  0  0  0
 25 26  1  0  0  0
 26 27  2  0  0  0
 27 28  1  0  0  0
 27 29  1  0  0  0
 29 30  2  0  0  0
  9 13  1  0  0  0
 13 14  2  0  0  0
 14 15  1  0  0  0
 15 16  2  0  0  0
 16 17  1  0  0  0
 17 18  2  0  0  0
  8 10  1  0  0  0
 10 11  2  0  0  0
 39 34  1  0  0  0
 11  1  1  0  0  0
 10  4  1  0  0  0
 23 19  1  0  0  0
 30 24  1  0  0  0
 18 13  1  0  0  0
 31 32  1  0  0  0
  5 12  1  0  0  0
M  END
> <minimizedAffinity>
-9.71054

> <CNNscore>
0.4580152035

> <CNNaffinity>
7.0118026733

> <CNN_VS>
3.2115123272

> <CNNaffinity_variance>
0.2191693336

$$$$
[H]c1c([H])c([H])c(C(=C2C(=O)N([H])c3c([H])c([H])c(N([H])C4([H])C([H])([H])C([H])([H])N(C([H])([H])[H])C([H])([H])C4([H])[H])c([H])c32)c2nc(-c3c([H])c([H])c(Br)c([H])c3[H])no2)c([H])c1[H]


 39 44  0  0  0  0  0  0  0  0999 V2000
    3.7925    5.9738    6.9640 C   0  0  0  0  0  0  0  0  0  0  0  0
    4.2832    5.0219    6.1027 C   0  0  0  0  0  0  0  0  0  0  0  0
    4.4677    3.7168    6.4899 C   0  0  0  0  0  0  0  0  0  0  0  0
    4.1555    3.3174    7.7927 C   0  0  0  0  0  0  0  0  0  0  0  0
    4.2325    2.0432    8.3785 N   0  0  0  0  0  0  0  0  0  0  0  0
    3.7620    2.1885    9.7061 C   0  0  0  0  0  0  0  0  0  0  0  0
    3.6707    1.2682   10.5584 O   0  0  0  0  0  0  0  0  0  0  0  0
    3.3754    3.5938    9.9799 C   0  0  0  0  0  0  0  0  0  0  0  0
    2.8602    4.0461   11.0682 C   0  0  0  0  0  0  0  0  0  0  0  0
    3.6600    4.2661    8.6783 C   0  0  0  0  0  0  0  0  0  0  0  0
    3.4874    5.5480    8.2652 C   0  0  0  0  0  0  0  0  0  0  0  0
    4.5606    1.1694    7.9477 H   0  0  0  0  0  0  0  0  0  0  0  0
    2.6575    5.4857   11.3411 C   0  0  0  0  0  0  0  0  0  0  0  0
    1.4005    6.0835   11.1888 C   0  0  0  0  0  0  0  0  0  0  0  0
    1.1858    7.4250   11.4167 C   0  0  0  0  0  0  0  0  0  0  0  0
    2.2682    8.1889   11.8102 C   0  0  0  0  0  0  0  0  0  0  0  0
    3.5069    7.6595   11.9724 C   0  0  0  0  0  0  0  0  0  0  0  0
    3.6906    6.3076   11.7355 C   0  0  0  0  0  0  0  0  0  0  0  0
    2.5514    3.2291   12.2413 C   0  0  0  0  0  0  0  0  0  0  0  0
    3.2062    3.1763   13.3893 N   0  0  0  0  0  0  0  0  0  0  0  0
    2.6076    2.2895   14.2434 C   0  0  0  0  0  0  0  0  0  0  0  0
    1.5518    1.8170   13.5267 N   0  0  0  0  0  0  0  0  0  0  0  0
    1.5387    2.3790   12.3623 O   0  0  0  0  0  0  0  0  0  0  0  0
    3.0117    1.9477   15.5814 C   0  0  0  0  0  0  0  0  0  0  0  0
    3.8436    2.7687   16.2912 C   0  0  0  0  0  0  0  0  0  0  0  0
    4.2435    2.4367   17.5941 C   0  0  0  0  0  0  0  0  0  0  0  0
    3.8008    1.2846   18.1629 C   0  0  0  0  0  0  0  0  0  0  0  0
    4.3216    0.7835   19.9438 Br  0  0  0  0  0  0  0  0  0  0  0  0
    2.9630    0.4441   17.4661 C   0  0  0  0  0  0  0  0  0  0  0  0
    2.5714    0.7898   16.1629 C   0  0  0  0  0  0  0  0  0  0  0  0
    3.5929    7.3097    6.5949 N   0  0  0  0  0  0  0  0  0  0  0  0
    2.6605    7.7584    6.7588 H   0  0  0  0  0  0  0  0  0  0  0  0
    8.0256    9.0188    4.9920 C   0  0  0  0  0  0  0  0  0  0  0  0
    6.6279    9.1544    5.0804 N   0  0  0  0  0  0  0  0  0  0  0  0
    6.0770   10.0621    6.0106 C   0  0  0  0  0  0  0  0  0  0  0  0
    4.7152    9.5180    6.4726 C   0  0  0  0  0  0  0  0  0  0  0  0
    4.6108    8.0982    5.9999 C   0  0  0  0  0  0  0  0  0  0  0  0
    4.4907    8.1738    4.4751 C   0  0  0  0  0  0  0  0  0  0  0  0
    5.8227    8.7673    3.9905 C   0  0  0  0  0  0  0  0  0  0  0  0
 33 34  1  0  0  0
 34 35  1  0  0  0
 35 36  1  0  0  0
 36 37  1  0  0  0
 37 38  1  0  0  0
 38 39  1  0  0  0
 37 31  1  0  0  0
 31  1  1  0  0  0
  1  2  2  0  0  0
  2  3  1  0  0  0
  3  4  2  0  0  0
  4  5  1  0  0  0
  5  6  1  0  0  0
  6  7  2  0  0  0
  6  8  1  0  0  0
  8  9  2  0  0  0
  9 19  1  0  0  0
 19 20  2  0  0  0
 20 21  1  0  0  0
 21 22  2  0  0  0
 22 23  1  0  0  0
 21 24  1  0  0  0
 24 25  2  0  0  0
 25 26  1  0  0  0
 26 27  2  0  0  0
 27 28  1  0  0  0
 27 29  1  0  0  0
 29 30  2  0  0  0
  9 13  1  0  0  0
 13 14  2  0  0  0
 14 15  1  0  0  0
 15 16  2  0  0  0
 16 17  1  0  0  0
 17 18  2  0  0  0
  8 10  1  0  0  0
 10 11  2  0  0  0
 39 34  1  0  0  0
 11  1  1  0  0  0
 10  4  1  0  0  0
 23 19  1  0  0  0
 30 24  1  0  0  0
 18 13  1  0  0  0
 31 32  1  0  0  0
  5 12  1  0  0  0
M  END
> <minimizedAffinity>
-7.54831

> <CNNscore>
0.3493868411

> <CNNaffinity>
5.9473443031

> <CNN_VS>
2.0779237747

> <CNNaffinity_variance>
0.1320756376

$$$$
[H]c1c([H])c([H])c(C(=C2C(=O)N([H])c3c([H])c([H])c(N([H])C4([H])C([H])([H])C([H])([H])N(C([H])([H])[H])C([H])([H])C4([H])[H])c([H])c32)c2nc(-c3c([H])c([H])c(Br)c([H])c3[H])no2)c([H])c1[H]


 39 44  0  0  0  0  0  0  0  0999 V2000
    5.8002    3.4656   21.7911 C   0  0  0  0  0  0  0  0  0  0  0  0
    5.6357    2.1427   22.1252 C   0  0  0  0  0  0  0  0  0  0  0  0
    5.0334    1.2473   21.2751 C   0  0  0  0  0  0  0  0  0  0  0  0
    4.5643    1.6670   20.0269 C   0  0  0  0  0  0  0  0  0  0  0  0
    3.9587    0.9197   19.0034 N   0  0  0  0  0  0  0  0  0  0  0  0
    3.7159    1.8252   17.9422 C   0  0  0  0  0  0  0  0  0  0  0  0
    3.1865    1.5386   16.8380 O   0  0  0  0  0  0  0  0  0  0  0  0
    4.1756    3.1901   18.2955 C   0  0  0  0  0  0  0  0  0  0  0  0
    4.1501    4.2259   17.5332 C   0  0  0  0  0  0  0  0  0  0  0  0
    4.7200    3.0010   19.6720 C   0  0  0  0  0  0  0  0  0  0  0  0
    5.3209    3.8615   20.5336 C   0  0  0  0  0  0  0  0  0  0  0  0
    3.7299   -0.0826   19.0045 H   0  0  0  0  0  0  0  0  0  0  0  0
    4.4619    5.5941   18.0010 C   0  0  0  0  0  0  0  0  0  0  0  0
    3.5336    6.3378   18.7399 C   0  0  0  0  0  0  0  0  0  0  0  0
    3.7882    7.6207   19.1721 C   0  0  0  0  0  0  0  0  0  0  0  0
    5.0139    8.1729   18.8519 C   0  0  0  0  0  0  0  0  0  0  0  0
    5.9485    7.4957   18.1384 C   0  0  0  0  0  0  0  0  0  0  0  0
    5.6626    6.2076   17.7181 C   0  0  0  0  0  0  0  0  0  0  0  0
    3.6627    4.2286   16.1543 C   0  0  0  0  0  0  0  0  0  0  0  0
    2.4592    4.5626   15.7191 N   0  0  0  0  0  0  0  0  0  0  0  0
    2.3881    4.4348   14.3578 C   0  0  0  0  0  0  0  0  0  0  0  0
    3.6306    4.0016   14.0112 N   0  0  0  0  0  0  0  0  0  0  0  0
    4.3570    3.8886   15.0749 O   0  0  0  0  0  0  0  0  0  0  0  0
    1.2580    4.6997   13.5075 C   0  0  0  0  0  0  0  0  0  0  0  0
    0.5479    5.8618   13.6310 C   0  0  0  0  0  0  0  0  0  0  0  0
   -0.5572    6.1216   12.8071 C   0  0  0  0  0  0  0  0  0  0  0  0
   -0.9311    5.2092   11.8720 C   0  0  0  0  0  0  0  0  0  0  0  0
   -2.4389    5.5168   10.7205 Br  0  0  0  0  0  0  0  0  0  0  0  0
   -0.2303    4.0333   11.7309 C   0  0  0  0  0  0  0  0  0  0  0  0
    0.8736    3.7872   12.5629 C   0  0  0  0  0  0  0  0  0  0  0  0
    6.4121    4.3984   22.6373 N   0  0  0  0  0  0  0  0  0  0  0  0
    6.2634    4.3343   23.6724 H   0  0  0  0  0  0  0  0  0  0  0  0
    9.0331    7.4557   19.6503 C   0  0  0  0  0  0  0  0  0  0  0  0
    8.5765    7.1042   20.9339 N   0  0  0  0  0  0  0  0  0  0  0  0
    9.4515    6.4452   21.8245 C   0  0  0  0  0  0  0  0  0  0  0  0
    8.6184    5.5272   22.7339 C   0  0  0  0  0  0  0  0  0  0  0  0
    7.2385    5.4438   22.1515 C   0  0  0  0  0  0  0  0  0  0  0  0
    6.6194    6.8311   22.3448 C   0  0  0  0  0  0  0  0  0  0  0  0
    7.4700    7.7801   21.4862 C   0  0  0  0  0  0  0  0  0  0  0  0
 33 34  1  0  0  0
 34 35  1  0  0  0
 35 36  1  0  0  0
 36 37  1  0  0  0
 37 38  1  0  0  0
 38 39  1  0  0  0
 37 31  1  0  0  0
 31  1  1  0  0  0
  1  2  2  0  0  0
  2  3  1  0  0  0
  3  4  2  0  0  0
  4  5  1  0  0  0
  5  6  1  0  0  0
  6  7  2  0  0  0
  6  8  1  0  0  0
  8  9  2  0  0  0
  9 19  1  0  0  0
 19 20  2  0  0  0
 20 21  1  0  0  0
 21 22  2  0  0  0
 22 23  1  0  0  0
 21 24  1  0  0  0
 24 25  2  0  0  0
 25 26  1  0  0  0
 26 27  2  0  0  0
 27 28  1  0  0  0
 27 29  1  0  0  0
 29 30  2  0  0  0
  9 13  1  0  0  0
 13 14  2  0  0  0
 14 15  1  0  0  0
 15 16  2  0  0  0
 16 17  1  0  0  0
 17 18  2  0  0  0
  8 10  1  0  0  0
 10 11  2  0  0  0
 39 34  1  0  0  0
 11  1  1  0  0  0
 10  4  1  0  0  0
 23 19  1  0  0  0
 30 24  1  0  0  0
 18 13  1  0  0  0
 31 32  1  0  0  0
  5 12  1  0  0  0
M  END
> <minimizedAffinity>
-9.65657

> <CNNscore>
0.3440759480

> <CNNaffinity>
6.7612509727

> <CNN_VS>
2.3263838291

> <CNNaffinity_variance>
0.4783091545

$$$$
[H]c1c([H])c([H])c(C(=C2C(=O)N([H])c3c([H])c([H])c(N([H])C4([H])C([H])([H])C([H])([H])N(C([H])([H])[H])C([H])([H])C4([H])[H])c([H])c32)c2nc(-c3c([H])c([H])c(Br)c([H])c3[H])no2)c([H])c1[H]


 39 44  0  0  0  0  0  0  0  0999 V2000
    5.8638    3.3956   21.7988 C   0  0  0  0  0  0  0  0  0  0  0  0
    5.7293    2.0726   22.1457 C   0  0  0  0  0  0  0  0  0  0  0  0
    5.1048    1.1653   21.3246 C   0  0  0  0  0  0  0  0  0  0  0  0
    4.5813    1.5724   20.0940 C   0  0  0  0  0  0  0  0  0  0  0  0
    3.9449    0.8122   19.0991 N   0  0  0  0  0  0  0  0  0  0  0  0
    3.6488    1.7090   18.0440 C   0  0  0  0  0  0  0  0  0  0  0  0
    3.0797    1.4100   16.9631 O   0  0  0  0  0  0  0  0  0  0  0  0
    4.1052    3.0813   18.3720 C   0  0  0  0  0  0  0  0  0  0  0  0
    4.0366    4.1126   17.6063 C   0  0  0  0  0  0  0  0  0  0  0  0
    4.7062    2.9063   19.7267 C   0  0  0  0  0  0  0  0  0  0  0  0
    5.3301    3.7787   20.5594 C   0  0  0  0  0  0  0  0  0  0  0  0
    3.7289   -0.1927   19.1143 H   0  0  0  0  0  0  0  0  0  0  0  0
    4.3496    5.4870   18.0546 C   0  0  0  0  0  0  0  0  0  0  0  0
    3.4310    6.2334   18.8027 C   0  0  0  0  0  0  0  0  0  0  0  0
    3.6867    7.5220   19.2173 C   0  0  0  0  0  0  0  0  0  0  0  0
    4.9035    8.0771   18.8693 C   0  0  0  0  0  0  0  0  0  0  0  0
    5.8285    7.3974   18.1458 C   0  0  0  0  0  0  0  0  0  0  0  0
    5.5418    6.1037   17.7437 C   0  0  0  0  0  0  0  0  0  0  0  0
    3.4948    4.1018   16.2479 C   0  0  0  0  0  0  0  0  0  0  0  0
    4.1333    3.8335   15.1210 N   0  0  0  0  0  0  0  0  0  0  0  0
    3.2821    3.9267   14.0527 C   0  0  0  0  0  0  0  0  0  0  0  0
    2.0931    4.2689   14.6191 N   0  0  0  0  0  0  0  0  0  0  0  0
    2.2408    4.3654   15.9000 O   0  0  0  0  0  0  0  0  0  0  0  0
    3.5878    3.7107   12.6634 C   0  0  0  0  0  0  0  0  0  0  0  0
    4.5451    4.4574   12.0343 C   0  0  0  0  0  0  0  0  0  0  0  0
    4.8427    4.2530   10.6788 C   0  0  0  0  0  0  0  0  0  0  0  0
    4.1731    3.3012    9.9771 C   0  0  0  0  0  0  0  0  0  0  0  0
    4.5420    2.9840    8.1176 Br  0  0  0  0  0  0  0  0  0  0  0  0
    3.2059    2.5385   10.5908 C   0  0  0  0  0  0  0  0  0  0  0  0
    2.9190    2.7547   11.9480 C   0  0  0  0  0  0  0  0  0  0  0  0
    6.4972    4.3404   22.6154 N   0  0  0  0  0  0  0  0  0  0  0  0
    6.3954    4.2765   23.6561 H   0  0  0  0  0  0  0  0  0  0  0  0
    8.9176    7.4433   19.5085 C   0  0  0  0  0  0  0  0  0  0  0  0
    8.5354    7.0799   20.8129 N   0  0  0  0  0  0  0  0  0  0  0  0
    9.4647    6.4264   21.6509 C   0  0  0  0  0  0  0  0  0  0  0  0
    8.6926    5.4941   22.5988 C   0  0  0  0  0  0  0  0  0  0  0  0
    7.2842    5.3978   22.0915 C   0  0  0  0  0  0  0  0  0  0  0  0
    6.6609    6.7767   22.3262 C   0  0  0  0  0  0  0  0  0  0  0  0
    7.4529    7.7400   21.4283 C   0  0  0  0  0  0  0  0  0  0  0  0
 33 34  1  0  0  0
 34 35  1  0  0  0
 35 36  1  0  0  0
 36 37  1  0  0  0
 37 38  1  0  0  0
 38 39  1  0  0  0
 37 31  1  0  0  0
 31  1  1  0  0  0
  1  2  2  0  0  0
  2  3  1  0  0  0
  3  4  2  0  0  0
  4  5  1  0  0  0
  5  6  1  0  0  0
  6  7  2  0  0  0
  6  8  1  0  0  0
  8  9  2  0  0  0
  9 19  1  0  0  0
 19 20  2  0  0  0
 20 21  1  0  0  0
 21 22  2  0  0  0
 22 23  1  0  0  0
 21 24  1  0  0  0
 24 25  2  0  0  0
 25 26  1  0  0  0
 26 27  2  0  0  0
 27 28  1  0  0  0
 27 29  1  0  0  0
 29 30  2  0  0  0
  9 13  1  0  0  0
 13 14  2  0  0  0
 14 15  1  0  0  0
 15 16  2  0  0  0
 16 17  1  0  0  0
 17 18  2  0  0  0
  8 10  1  0  0  0
 10 11  2  0  0  0
 39 34  1  0  0  0
 11  1  1  0  0  0
 10  4  1  0  0  0
 23 19  1  0  0  0
 30 24  1  0  0  0
 18 13  1  0  0  0
 31 32  1  0  0  0
  5 12  1  0  0  0
M  END
> <minimizedAffinity>
-9.61140

> <CNNscore>
0.3340775073

> <CNNaffinity>
6.8148336411

> <CNN_VS>
2.2766826153

> <CNNaffinity_variance>
0.4667741358

$$$$
[H]c1c([H])c([H])c(C(=C2C(=O)N([H])c3c([H])c([H])c(N([H])C4([H])C([H])([H])C([H])([H])N(C([H])([H])[H])C([H])([H])C4([H])[H])c([H])c32)c2nc(-c3c([H])c([H])c(Br)c([H])c3[H])no2)c([H])c1[H]


 39 44  0  0  0  0  0  0  0  0999 V2000
    4.3619    7.9135    7.6833 C   0  0  0  0  0  0  0  0  0  0  0  0
    3.4633    8.9409    7.8435 C   0  0  0  0  0  0  0  0  0  0  0  0
    2.4774    8.9023    8.7994 C   0  0  0  0  0  0  0  0  0  0  0  0
    2.3616    7.7974    9.6481 C   0  0  0  0  0  0  0  0  0  0  0  0
    1.4617    7.5722   10.7027 N   0  0  0  0  0  0  0  0  0  0  0  0
    1.8048    6.3140   11.2543 C   0  0  0  0  0  0  0  0  0  0  0  0
    1.2327    5.7567   12.2257 O   0  0  0  0  0  0  0  0  0  0  0  0
    2.9537    5.7152   10.5326 C   0  0  0  0  0  0  0  0  0  0  0  0
    3.5425    4.6080   10.8189 C   0  0  0  0  0  0  0  0  0  0  0  0
    3.2600    6.7482    9.5001 C   0  0  0  0  0  0  0  0  0  0  0  0
    4.2244    6.8166    8.5467 C   0  0  0  0  0  0  0  0  0  0  0  0
    0.7013    8.1844   11.0251 H   0  0  0  0  0  0  0  0  0  0  0  0
    4.5691    3.9807    9.9584 C   0  0  0  0  0  0  0  0  0  0  0  0
    4.2108    3.1771    8.8691 C   0  0  0  0  0  0  0  0  0  0  0  0
    5.1441    2.5644    8.0622 C   0  0  0  0  0  0  0  0  0  0  0  0
    6.4786    2.7660    8.3593 C   0  0  0  0  0  0  0  0  0  0  0  0
    6.8794    3.5348    9.4030 C   0  0  0  0  0  0  0  0  0  0  0  0
    5.9172    4.1374   10.1958 C   0  0  0  0  0  0  0  0  0  0  0  0
    3.1764    3.7396   11.9373 C   0  0  0  0  0  0  0  0  0  0  0  0
    3.7118    3.7032   13.1463 N   0  0  0  0  0  0  0  0  0  0  0  0
    3.0962    2.7527   13.9158 C   0  0  0  0  0  0  0  0  0  0  0  0
    2.1579    2.2249   13.0836 N   0  0  0  0  0  0  0  0  0  0  0  0
    2.2229    2.8157   11.9353 O   0  0  0  0  0  0  0  0  0  0  0  0
    3.3849    2.4050   15.2818 C   0  0  0  0  0  0  0  0  0  0  0  0
    2.9069    1.2439   15.8233 C   0  0  0  0  0  0  0  0  0  0  0  0
    3.1823    0.9038   17.1560 C   0  0  0  0  0  0  0  0  0  0  0  0
    3.9338    1.7362   17.9234 C   0  0  0  0  0  0  0  0  0  0  0  0
    4.3373    1.3168   19.7552 Br  0  0  0  0  0  0  0  0  0  0  0  0
    4.4248    2.9096   17.3983 C   0  0  0  0  0  0  0  0  0  0  0  0
    4.1408    3.2367   16.0628 C   0  0  0  0  0  0  0  0  0  0  0  0
    5.3772    7.9281    6.7190 N   0  0  0  0  0  0  0  0  0  0  0  0
    6.3527    8.1888    6.9981 H   0  0  0  0  0  0  0  0  0  0  0  0
    3.1798    7.0465    2.2993 C   0  0  0  0  0  0  0  0  0  0  0  0
    4.3439    7.1321    3.0849 N   0  0  0  0  0  0  0  0  0  0  0  0
    4.9486    5.9480    3.5594 C   0  0  0  0  0  0  0  0  0  0  0  0
    5.6237    6.2531    4.9066 C   0  0  0  0  0  0  0  0  0  0  0  0
    5.1436    7.6004    5.3589 C   0  0  0  0  0  0  0  0  0  0  0  0
    5.7615    8.6111    4.3883 C   0  0  0  0  0  0  0  0  0  0  0  0
    5.1423    8.2915    3.0187 C   0  0  0  0  0  0  0  0  0  0  0  0
 33 34  1  0  0  0
 34 35  1  0  0  0
 35 36  1  0  0  0
 36 37  1  0  0  0
 37 38  1  0  0  0
 38 39  1  0  0  0
 37 31  1  0  0  0
 31  1  1  0  0  0
  1  2  2  0  0  0
  2  3  1  0  0  0
  3  4  2  0  0  0
  4  5  1  0  0  0
  5  6  1  0  0  0
  6  7  2  0  0  0
  6  8  1  0  0  0
  8  9  2  0  0  0
  9 19  1  0  0  0
 19 20  2  0  0  0
 20 21  1  0  0  0
 21 22  2  0  0  0
 22 23  1  0  0  0
 21 24  1  0  0  0
 24 25  2  0  0  0
 25 26  1  0  0  0
 26 27  2  0  0  0
 27 28  1  0  0  0
 27 29  1  0  0  0
 29 30  2  0  0  0
  9 13  1  0  0  0
 13 14  2  0  0  0
 14 15  1  0  0  0
 15 16  2  0  0  0
 16 17  1  0  0  0
 17 18  2  0  0  0
  8 10  1  0  0  0
 10 11  2  0  0  0
 39 34  1  0  0  0
 11  1  1  0  0  0
 10  4  1  0  0  0
 23 19  1  0  0  0
 30 24  1  0  0  0
 18 13  1  0  0  0
 31 32  1  0  0  0
  5 12  1  0  0  0
M  END
> <minimizedAffinity>
-7.52167

> <CNNscore>
0.3040861189

> <CNNaffinity>
6.0283942223

> <CNN_VS>
1.8331509829

> <CNNaffinity_variance>
0.1964621544

$$$$
[H]c1c([H])c([H])c(C(=C2C(=O)N([H])c3c([H])c([H])c(N([H])C4([H])C([H])([H])C([H])([H])N(C([H])([H])[H])C([H])([H])C4([H])[H])c([H])c32)c2nc(-c3c([H])c([H])c(Br)c([H])c3[H])no2)c([H])c1[H]


 39 44  0  0  0  0  0  0  0  0999 V2000
    1.4074    6.5621    8.5734 C   0  0  0  0  0  0  0  0  0  0  0  0
    0.0583    6.8066    8.6676 C   0  0  0  0  0  0  0  0  0  0  0  0
   -0.7093    6.2717    9.6736 C   0  0  0  0  0  0  0  0  0  0  0  0
   -0.1269    5.4506   10.6436 C   0  0  0  0  0  0  0  0  0  0  0  0
   -0.7129    4.8379   11.7634 N   0  0  0  0  0  0  0  0  0  0  0  0
    0.3305    4.1518   12.4309 C   0  0  0  0  0  0  0  0  0  0  0  0
    0.2104    3.4798   13.4871 O   0  0  0  0  0  0  0  0  0  0  0  0
    1.6195    4.3270   11.7188 C   0  0  0  0  0  0  0  0  0  0  0  0
    2.7660    3.8798   12.0933 C   0  0  0  0  0  0  0  0  0  0  0  0
    1.2354    5.1906   10.5640 C   0  0  0  0  0  0  0  0  0  0  0  0
    1.9675    5.7352    9.5585 C   0  0  0  0  0  0  0  0  0  0  0  0
   -1.6976    4.8694   12.0569 H   0  0  0  0  0  0  0  0  0  0  0  0
    3.9819    3.9397   11.2532 C   0  0  0  0  0  0  0  0  0  0  0  0
    4.1829    3.0370   10.2017 C   0  0  0  0  0  0  0  0  0  0  0  0
    5.3137    3.0561    9.4151 C   0  0  0  0  0  0  0  0  0  0  0  0
    6.2716    4.0124    9.6940 C   0  0  0  0  0  0  0  0  0  0  0  0
    6.1263    4.9100   10.7010 C   0  0  0  0  0  0  0  0  0  0  0  0
    4.9783    4.8652   11.4741 C   0  0  0  0  0  0  0  0  0  0  0  0
    2.9977    3.1154   13.3185 C   0  0  0  0  0  0  0  0  0  0  0  0
    3.4798    3.5532   14.4698 N   0  0  0  0  0  0  0  0  0  0  0  0
    3.5490    2.5333   15.3805 C   0  0  0  0  0  0  0  0  0  0  0  0
    3.0758    1.4579   14.6940 N   0  0  0  0  0  0  0  0  0  0  0  0
    2.7603    1.8209   13.4938 O   0  0  0  0  0  0  0  0  0  0  0  0
    4.0152    2.5985   16.7401 C   0  0  0  0  0  0  0  0  0  0  0  0
    4.6144    3.7302   17.2198 C   0  0  0  0  0  0  0  0  0  0  0  0
    5.0743    3.7961   18.5434 C   0  0  0  0  0  0  0  0  0  0  0  0
    4.9246    2.7232   19.3639 C   0  0  0  0  0  0  0  0  0  0  0  0
    5.5397    2.7622   21.1844 Br  0  0  0  0  0  0  0  0  0  0  0  0
    4.3243    1.5744   18.9015 C   0  0  0  0  0  0  0  0  0  0  0  0
    3.8691    1.5234   17.5743 C   0  0  0  0  0  0  0  0  0  0  0  0
    2.2131    7.0960    7.5603 N   0  0  0  0  0  0  0  0  0  0  0  0
    3.2230    6.8231    7.5039 H   0  0  0  0  0  0  0  0  0  0  0  0
   -0.7757    9.6034    4.4108 C   0  0  0  0  0  0  0  0  0  0  0  0
    0.4908    9.4076    4.9916 N   0  0  0  0  0  0  0  0  0  0  0  0
    1.4919    8.7324    4.2603 C   0  0  0  0  0  0  0  0  0  0  0  0
    2.3982    7.9854    5.2525 C   0  0  0  0  0  0  0  0  0  0  0  0
    1.7182    8.0040    6.5895 C   0  0  0  0  0  0  0  0  0  0  0  0
    1.7620    9.4608    7.0597 C   0  0  0  0  0  0  0  0  0  0  0  0
    0.9053   10.2406    6.0501 C   0  0  0  0  0  0  0  0  0  0  0  0
 33 34  1  0  0  0
 34 35  1  0  0  0
 35 36  1  0  0  0
 36 37  1  0  0  0
 37 38  1  0  0  0
 38 39  1  0  0  0
 37 31  1  0  0  0
 31  1  1  0  0  0
  1  2  2  0  0  0
  2  3  1  0  0  0
  3  4  2  0  0  0
  4  5  1  0  0  0
  5  6  1  0  0  0
  6  7  2  0  0  0
  6  8  1  0  0  0
  8  9  2  0  0  0
  9 19  1  0  0  0
 19 20  2  0  0  0
 20 21  1  0  0  0
 21 22  2  0  0  0
 22 23  1  0  0  0
 21 24  1  0  0  0
 24 25  2  0  0  0
 25 26  1  0  0  0
 26 27  2  0  0  0
 27 28  1  0  0  0
 27 29  1  0  0  0
 29 30  2  0  0  0
  9 13  1  0  0  0
 13 14  2  0  0  0
 14 15  1  0  0  0
 15 16  2  0  0  0
 16 17  1  0  0  0
 17 18  2  0  0  0
  8 10  1  0  0  0
 10 11  2  0  0  0
 39 34  1  0  0  0
 11  1  1  0  0  0
 10  4  1  0  0  0
 23 19  1  0  0  0
 30 24  1  0  0  0
 18 13  1  0  0  0
 31 32  1  0  0  0
  5 12  1  0  0  0
M  END
> <minimizedAffinity>
-7.94712

> <CNNscore>
0.2345297337

> <CNNaffinity>
6.0404443741

> <CNN_VS>
1.4166637659

> <CNNaffinity_variance>
0.3298146129

$$$$
[H]c1c([H])c([H])c(C(=C2C(=O)N([H])c3c([H])c([H])c(N([H])C4([H])C([H])([H])C([H])([H])N(C([H])([H])[H])C([H])([H])C4([H])[H])c([H])c32)c2nc(-c3c([H])c([H])c(Br)c([H])c3[H])no2)c([H])c1[H]


 39 44  0  0  0  0  0  0  0  0999 V2000
    4.9046    2.7608   20.6932 C   0  0  0  0  0  0  0  0  0  0  0  0
    4.7386    1.3991   20.7771 C   0  0  0  0  0  0  0  0  0  0  0  0
    4.2898    0.6543   19.7136 C   0  0  0  0  0  0  0  0  0  0  0  0
    3.9853    1.2739   18.4980 C   0  0  0  0  0  0  0  0  0  0  0  0
    3.5525    0.7042   17.2894 N   0  0  0  0  0  0  0  0  0  0  0  0
    3.4301    1.7732   16.3689 C   0  0  0  0  0  0  0  0  0  0  0  0
    3.0690    1.6719   15.1685 O   0  0  0  0  0  0  0  0  0  0  0  0
    3.7915    3.0632   17.0049 C   0  0  0  0  0  0  0  0  0  0  0  0
    3.8385    4.2123   16.4287 C   0  0  0  0  0  0  0  0  0  0  0  0
    4.1452    2.6499   18.3945 C   0  0  0  0  0  0  0  0  0  0  0  0
    4.5921    3.3584   19.4632 C   0  0  0  0  0  0  0  0  0  0  0  0
    3.3587   -0.2860   17.0921 H   0  0  0  0  0  0  0  0  0  0  0  0
    4.0374    5.4849   17.1558 C   0  0  0  0  0  0  0  0  0  0  0  0
    5.1251    6.3201   16.8732 C   0  0  0  0  0  0  0  0  0  0  0  0
    5.3469    7.5010   17.5468 C   0  0  0  0  0  0  0  0  0  0  0  0
    4.4472    7.8532   18.5350 C   0  0  0  0  0  0  0  0  0  0  0  0
    3.3772    7.0801   18.8484 C   0  0  0  0  0  0  0  0  0  0  0  0
    3.1815    5.8986   18.1531 C   0  0  0  0  0  0  0  0  0  0  0  0
    3.5476    4.4427   15.0140 C   0  0  0  0  0  0  0  0  0  0  0  0
    2.3719    4.6745   14.4539 N   0  0  0  0  0  0  0  0  0  0  0  0
    2.5083    4.8395   13.1017 C   0  0  0  0  0  0  0  0  0  0  0  0
    3.8447    4.6900   12.8936 N   0  0  0  0  0  0  0  0  0  0  0  0
    4.4308    4.4595   14.0228 O   0  0  0  0  0  0  0  0  0  0  0  0
    1.4725    5.1073   12.1396 C   0  0  0  0  0  0  0  0  0  0  0  0
    1.1426    4.1790   11.1914 C   0  0  0  0  0  0  0  0  0  0  0  0
    0.1365    4.4382   10.2489 C   0  0  0  0  0  0  0  0  0  0  0  0
   -0.5221    5.6266   10.2744 C   0  0  0  0  0  0  0  0  0  0  0  0
   -1.9063    6.0310    9.0039 Br  0  0  0  0  0  0  0  0  0  0  0  0
   -0.2059    6.5749   11.2203 C   0  0  0  0  0  0  0  0  0  0  0  0
    0.8035    6.3011   12.1570 C   0  0  0  0  0  0  0  0  0  0  0  0
    5.3623    3.5432   21.7605 N   0  0  0  0  0  0  0  0  0  0  0  0
    5.0973    3.2871   22.7412 H   0  0  0  0  0  0  0  0  0  0  0  0
    8.2060    7.1333   19.7201 C   0  0  0  0  0  0  0  0  0  0  0  0
    7.5790    6.5695   20.8464 N   0  0  0  0  0  0  0  0  0  0  0  0
    8.3463    5.8199   21.7642 C   0  0  0  0  0  0  0  0  0  0  0  0
    7.4451    4.7379   22.3815 C   0  0  0  0  0  0  0  0  0  0  0  0
    6.1821    4.6855   21.5738 C   0  0  0  0  0  0  0  0  0  0  0  0
    5.4483    5.9986   21.8611 C   0  0  0  0  0  0  0  0  0  0  0  0
    6.3568    7.1040   21.3007 C   0  0  0  0  0  0  0  0  0  0  0  0
 33 34  1  0  0  0
 34 35  1  0  0  0
 35 36  1  0  0  0
 36 37  1  0  0  0
 37 38  1  0  0  0
 38 39  1  0  0  0
 37 31  1  0  0  0
 31  1  1  0  0  0
  1  2  2  0  0  0
  2  3  1  0  0  0
  3  4  2  0  0  0
  4  5  1  0  0  0
  5  6  1  0  0  0
  6  7  2  0  0  0
  6  8  1  0  0  0
  8  9  2  0  0  0
  9 19  1  0  0  0
 19 20  2  0  0  0
 20 21  1  0  0  0
 21 22  2  0  0  0
 22 23  1  0  0  0
 21 24  1  0  0  0
 24 25  2  0  0  0
 25 26  1  0  0  0
 26 27  2  0  0  0
 27 28  1  0  0  0
 27 29  1  0  0  0
 29 30  2  0  0  0
  9 13  1  0  0  0
 13 14  2  0  0  0
 14 15  1  0  0  0
 15 16  2  0  0  0
 16 17  1  0  0  0
 17 18  2  0  0  0
  8 10  1  0  0  0
 10 11  2  0  0  0
 39 34  1  0  0  0
 11  1  1  0  0  0
 10  4  1  0  0  0
 23 19  1  0  0  0
 30 24  1  0  0  0
 18 13  1  0  0  0
 31 32  1  0  0  0
  5 12  1  0  0  0
M  END
> <minimizedAffinity>
-8.55745

> <CNNscore>
0.1634348333

> <CNNaffinity>
6.4850983620

> <CNN_VS>
1.0598909855

> <CNNaffinity_variance>
0.4971194863

$$$$
