[H]c1c([H])c([H])c(N2C([H])([H])C([H])([H])N(C(=O)C([H])([H])Sc3nnc([H])n3-c3c([H])c([H])c([H])c([H])c3C([H])([H])[H])C([H])([H])C2([H])[H])c([H])c1[H]


 28 31  0  0  0  0  0  0  0  0999 V2000
    3.4244    2.8569   17.2871 C   0  0  0  0  0  0  0  0  0  0  0  0
    3.0948    2.0960   16.0660 C   0  0  0  0  0  0  0  0  0  0  0  0
    3.1476    0.8465   16.0895 O   0  0  0  0  0  0  0  0  0  0  0  0
    2.7203    2.7521   14.8719 N   0  0  0  0  0  0  0  0  0  0  0  0
    2.6774    4.1823   14.8380 C   0  0  0  0  0  0  0  0  0  0  0  0
    2.2319    4.7293   13.4954 C   0  0  0  0  0  0  0  0  0  0  0  0
    1.1530    3.9492   12.9380 N   0  0  0  0  0  0  0  0  0  0  0  0
    0.9930    2.5300   13.2497 C   0  0  0  0  0  0  0  0  0  0  0  0
    2.3735    2.0118   13.6773 C   0  0  0  0  0  0  0  0  0  0  0  0
    0.2316    4.5577   12.0661 C   0  0  0  0  0  0  0  0  0  0  0  0
   -1.0561    4.8055   12.4696 C   0  0  0  0  0  0  0  0  0  0  0  0
   -1.9408    5.3990   11.5793 C   0  0  0  0  0  0  0  0  0  0  0  0
   -1.5617    5.7476   10.2994 C   0  0  0  0  0  0  0  0  0  0  0  0
   -0.2603    5.4987    9.8888 C   0  0  0  0  0  0  0  0  0  0  0  0
    0.6166    4.9107   10.7700 C   0  0  0  0  0  0  0  0  0  0  0  0
    4.6729    2.0037   18.2958 S   0  0  0  0  0  0  0  0  0  0  0  0
    3.9560    1.7754   21.0143 N   0  0  0  0  0  0  0  0  0  0  0  0
    3.2456    0.9692   21.8085 C   0  0  0  0  0  0  0  0  0  0  0  0
    2.7411   -0.0023   21.0355 N   0  0  0  0  0  0  0  0  0  0  0  0
    3.1296    0.2016   19.8091 N   0  0  0  0  0  0  0  0  0  0  0  0
    3.8883    1.3034   19.7677 C   0  0  0  0  0  0  0  0  0  0  0  0
    6.6346    1.4407   21.7639 C   0  0  0  0  0  0  0  0  0  0  0  0
    5.9757    2.7788   21.8051 C   0  0  0  0  0  0  0  0  0  0  0  0
    6.6702    3.8956   22.2169 C   0  0  0  0  0  0  0  0  0  0  0  0
    6.0312    5.1305   22.2448 C   0  0  0  0  0  0  0  0  0  0  0  0
    4.7151    5.2906   21.8733 C   0  0  0  0  0  0  0  0  0  0  0  0
    4.0165    4.1772   21.4610 C   0  0  0  0  0  0  0  0  0  0  0  0
    4.6590    2.9389   21.4338 C   0  0  0  0  0  0  0  0  0  0  0  0
 22 23  1  0  0  0
 23 24  2  0  0  0
 24 25  1  0  0  0
 25 26  2  0  0  0
 26 27  1  0  0  0
 27 28  2  0  0  0
 28 17  1  0  0  0
 17 18  1  0  0  0
 18 19  2  0  0  0
 19 20  1  0  0  0
 20 21  2  0  0  0
 21 16  1  0  0  0
 16  1  1  0  0  0
  1  2  1  0  0  0
  2  3  2  0  0  0
  2  4  1  0  0  0
  4  5  1  0  0  0
  5  6  1  0  0  0
  6  7  1  0  0  0
  7 10  1  0  0  0
 10 11  2  0  0  0
 11 12  1  0  0  0
 12 13  2  0  0  0
 13 14  1  0  0  0
 14 15  2  0  0  0
  7  8  1  0  0  0
  8  9  1  0  0  0
 28 23  1  0  0  0
 21 17  1  0  0  0
  9  4  1  0  0  0
 15 10  1  0  0  0
M  END
> <minimizedAffinity>
-7.92464

> <CNNscore>
0.7223811746

> <CNNaffinity>
6.1160955429

> <CNN_VS>
4.4181523323

> <CNNaffinity_variance>
0.3961319029

$$$$
[H]c1c([H])c([H])c(N2C([H])([H])C([H])([H])N(C(=O)C([H])([H])Sc3nnc([H])n3-c3c([H])c([H])c([H])c([H])c3C([H])([H])[H])C([H])([H])C2([H])[H])c([H])c1[H]


 28 31  0  0  0  0  0  0  0  0999 V2000
    4.2815    5.1936   21.9102 C   0  0  0  0  0  0  0  0  0  0  0  0
    5.2985    5.4932   20.8831 C   0  0  0  0  0  0  0  0  0  0  0  0
    6.5089    5.4863   21.1988 O   0  0  0  0  0  0  0  0  0  0  0  0
    4.9309    5.7867   19.5508 N   0  0  0  0  0  0  0  0  0  0  0  0
    3.5455    5.8134   19.1922 C   0  0  0  0  0  0  0  0  0  0  0  0
    3.3201    6.1161   17.7233 C   0  0  0  0  0  0  0  0  0  0  0  0
    4.2812    5.4348   16.8892 N   0  0  0  0  0  0  0  0  0  0  0  0
    5.6157    5.0942   17.3792 C   0  0  0  0  0  0  0  0  0  0  0  0
    5.9238    6.0588   18.5331 C   0  0  0  0  0  0  0  0  0  0  0  0
    3.9384    5.0925   15.5684 C   0  0  0  0  0  0  0  0  0  0  0  0
    3.6408    6.0649   14.6475 C   0  0  0  0  0  0  0  0  0  0  0  0
    3.2976    5.6898   13.3556 C   0  0  0  0  0  0  0  0  0  0  0  0
    3.2478    4.3659   12.9707 C   0  0  0  0  0  0  0  0  0  0  0  0
    3.5486    3.3805   13.8995 C   0  0  0  0  0  0  0  0  0  0  0  0
    3.8885    3.7512   15.1794 C   0  0  0  0  0  0  0  0  0  0  0  0
    3.6565    3.4932   21.7631 S   0  0  0  0  0  0  0  0  0  0  0  0
    5.2128    1.3521   20.7880 N   0  0  0  0  0  0  0  0  0  0  0  0
    6.3650    0.7332   21.0609 C   0  0  0  0  0  0  0  0  0  0  0  0
    6.9058    1.3536   22.1185 N   0  0  0  0  0  0  0  0  0  0  0  0
    6.1115    2.3199   22.4816 N   0  0  0  0  0  0  0  0  0  0  0  0
    5.0483    2.3413   21.6688 C   0  0  0  0  0  0  0  0  0  0  0  0
    3.2409   -0.5543   21.3590 C   0  0  0  0  0  0  0  0  0  0  0  0
    3.3507    0.0723   20.0094 C   0  0  0  0  0  0  0  0  0  0  0  0
    2.4802   -0.2719   18.9980 C   0  0  0  0  0  0  0  0  0  0  0  0
    2.6052    0.3286   17.7498 C   0  0  0  0  0  0  0  0  0  0  0  0
    3.5746    1.2668   17.4745 C   0  0  0  0  0  0  0  0  0  0  0  0
    4.4473    1.6142   18.4821 C   0  0  0  0  0  0  0  0  0  0  0  0
    4.3206    1.0107   19.7338 C   0  0  0  0  0  0  0  0  0  0  0  0
 22 23  1  0  0  0
 23 24  2  0  0  0
 24 25  1  0  0  0
 25 26  2  0  0  0
 26 27  1  0  0  0
 27 28  2  0  0  0
 28 17  1  0  0  0
 17 18  1  0  0  0
 18 19  2  0  0  0
 19 20  1  0  0  0
 20 21  2  0  0  0
 21 16  1  0  0  0
 16  1  1  0  0  0
  1  2  1  0  0  0
  2  3  2  0  0  0
  2  4  1  0  0  0
  4  5  1  0  0  0
  5  6  1  0  0  0
  6  7  1  0  0  0
  7 10  1  0  0  0
 10 11  2  0  0  0
 11 12  1  0  0  0
 12 13  2  0  0  0
 13 14  1  0  0  0
 14 15  2  0  0  0
  7  8  1  0  0  0
  8  9  1  0  0  0
 28 23  1  0  0  0
 21 17  1  0  0  0
  9  4  1  0  0  0
 15 10  1  0  0  0
M  END
> <minimizedAffinity>
-7.86839

> <CNNscore>
0.5955710411

> <CNNaffinity>
6.6321153641

> <CNN_VS>
3.9498958588

> <CNNaffinity_variance>
0.3623810709

$$$$
[H]c1c([H])c([H])c(N2C([H])([H])C([H])([H])N(C(=O)C([H])([H])Sc3nnc([H])n3-c3c([H])c([H])c([H])c([H])c3C([H])([H])[H])C([H])([H])C2([H])[H])c([H])c1[H]


 28 31  0  0  0  0  0  0  0  0999 V2000
    4.0393    2.2711   18.2178 C   0  0  0  0  0  0  0  0  0  0  0  0
    3.6319    1.6624   16.9362 C   0  0  0  0  0  0  0  0  0  0  0  0
    3.5117    0.4197   16.8588 O   0  0  0  0  0  0  0  0  0  0  0  0
    3.3744    2.4566   15.7963 N   0  0  0  0  0  0  0  0  0  0  0  0
    3.5294    3.8771   15.8781 C   0  0  0  0  0  0  0  0  0  0  0  0
    3.1896    4.5852   14.5808 C   0  0  0  0  0  0  0  0  0  0  0  0
    2.0245    4.0090   13.9530 N   0  0  0  0  0  0  0  0  0  0  0  0
    1.6647    2.6055   14.1473 C   0  0  0  0  0  0  0  0  0  0  0  0
    2.9522    1.8686   14.5427 C   0  0  0  0  0  0  0  0  0  0  0  0
    1.2127    4.8066   13.1258 C   0  0  0  0  0  0  0  0  0  0  0  0
    1.3733    6.1687   13.0902 C   0  0  0  0  0  0  0  0  0  0  0  0
    0.5480    6.9252   12.2692 C   0  0  0  0  0  0  0  0  0  0  0  0
   -0.4296    6.3458   11.4869 C   0  0  0  0  0  0  0  0  0  0  0  0
   -0.5940    4.9689   11.5204 C   0  0  0  0  0  0  0  0  0  0  0  0
    0.2229    4.2189   12.3336 C   0  0  0  0  0  0  0  0  0  0  0  0
    3.7946    1.1314   19.6125 S   0  0  0  0  0  0  0  0  0  0  0  0
    5.8281    1.9613   21.3825 N   0  0  0  0  0  0  0  0  0  0  0  0
    6.9638    1.4935   21.9084 C   0  0  0  0  0  0  0  0  0  0  0  0
    7.1449    0.2580   21.4221 N   0  0  0  0  0  0  0  0  0  0  0  0
    6.1537   -0.0218   20.6247 N   0  0  0  0  0  0  0  0  0  0  0  0
    5.3181    1.0230   20.5819 C   0  0  0  0  0  0  0  0  0  0  0  0
    4.3145    2.2352   23.7241 C   0  0  0  0  0  0  0  0  0  0  0  0
    4.5170    3.3803   22.7893 C   0  0  0  0  0  0  0  0  0  0  0  0
    3.9607    4.6134   23.0520 C   0  0  0  0  0  0  0  0  0  0  0  0
    4.1664    5.6634   22.1636 C   0  0  0  0  0  0  0  0  0  0  0  0
    4.9130    5.5246   21.0150 C   0  0  0  0  0  0  0  0  0  0  0  0
    5.4711    4.2940   20.7478 C   0  0  0  0  0  0  0  0  0  0  0  0
    5.2637    3.2414   21.6401 C   0  0  0  0  0  0  0  0  0  0  0  0
 22 23  1  0  0  0
 23 24  2  0  0  0
 24 25  1  0  0  0
 25 26  2  0  0  0
 26 27  1  0  0  0
 27 28  2  0  0  0
 28 17  1  0  0  0
 17 18  1  0  0  0
 18 19  2  0  0  0
 19 20  1  0  0  0
 20 21  2  0  0  0
 21 16  1  0  0  0
 16  1  1  0  0  0
  1  2  1  0  0  0
  2  3  2  0  0  0
  2  4  1  0  0  0
  4  5  1  0  0  0
  5  6  1  0  0  0
  6  7  1  0  0  0
  7 10  1  0  0  0
 10 11  2  0  0  0
 11 12  1  0  0  0
 12 13  2  0  0  0
 13 14  1  0  0  0
 14 15  2  0  0  0
  7  8  1  0  0  0
  8  9  1  0  0  0
 28 23  1  0  0  0
 21 17  1  0  0  0
  9  4  1  0  0  0
 15 10  1  0  0  0
M  END
> <minimizedAffinity>
-7.44380

> <CNNscore>
0.5843368769

> <CNNaffinity>
6.0299568176

> <CNN_VS>
3.5235261917

> <CNNaffinity_variance>
0.4596505165

$$$$
[H]c1c([H])c([H])c(N2C([H])([H])C([H])([H])N(C(=O)C([H])([H])Sc3nnc([H])n3-c3c([H])c([H])c([H])c([H])c3C([H])([H])[H])C([H])([H])C2([H])[H])c([H])c1[H]


 28 31  0  0  0  0  0  0  0  0999 V2000
    3.9540    2.2825   16.7630 C   0  0  0  0  0  0  0  0  0  0  0  0
    3.2541    3.5797   16.8412 C   0  0  0  0  0  0  0  0  0  0  0  0
    2.0292    3.6312   16.5925 O   0  0  0  0  0  0  0  0  0  0  0  0
    3.9409    4.7636   17.1923 N   0  0  0  0  0  0  0  0  0  0  0  0
    5.3461    4.7096   17.4591 C   0  0  0  0  0  0  0  0  0  0  0  0
    5.9268    6.0557   17.8473 C   0  0  0  0  0  0  0  0  0  0  0  0
    5.0402    6.7809   18.7258 N   0  0  0  0  0  0  0  0  0  0  0  0
    3.5926    6.5816   18.6882 C   0  0  0  0  0  0  0  0  0  0  0  0
    3.2564    6.0351   17.2934 C   0  0  0  0  0  0  0  0  0  0  0  0
    5.5711    7.7102   19.6390 C   0  0  0  0  0  0  0  0  0  0  0  0
    6.9153    7.7340   19.9125 C   0  0  0  0  0  0  0  0  0  0  0  0
    7.4027    8.6587   20.8263 C   0  0  0  0  0  0  0  0  0  0  0  0
    6.5733    9.5556   21.4673 C   0  0  0  0  0  0  0  0  0  0  0  0
    5.2139    9.5343   21.1924 C   0  0  0  0  0  0  0  0  0  0  0  0
    4.7302    8.6185   20.2876 C   0  0  0  0  0  0  0  0  0  0  0  0
    5.0217    2.0052   18.2076 S   0  0  0  0  0  0  0  0  0  0  0  0
    3.9840    1.7384   20.8170 N   0  0  0  0  0  0  0  0  0  0  0  0
    3.1562    0.9420   21.4994 C   0  0  0  0  0  0  0  0  0  0  0  0
    2.7096    0.0113   20.6449 N   0  0  0  0  0  0  0  0  0  0  0  0
    3.2460    0.2298   19.4783 N   0  0  0  0  0  0  0  0  0  0  0  0
    4.0450    1.3007   19.5576 C   0  0  0  0  0  0  0  0  0  0  0  0
    6.6151    1.3172   21.6823 C   0  0  0  0  0  0  0  0  0  0  0  0
    5.9693    2.6589   21.7776 C   0  0  0  0  0  0  0  0  0  0  0  0
    6.6527    3.7362   22.2986 C   0  0  0  0  0  0  0  0  0  0  0  0
    6.0263    4.9756   22.3748 C   0  0  0  0  0  0  0  0  0  0  0  0
    4.7337    5.1784   21.9461 C   0  0  0  0  0  0  0  0  0  0  0  0
    4.0463    4.1046   21.4247 C   0  0  0  0  0  0  0  0  0  0  0  0
    4.6761    2.8617   21.3491 C   0  0  0  0  0  0  0  0  0  0  0  0
 22 23  1  0  0  0
 23 24  2  0  0  0
 24 25  1  0  0  0
 25 26  2  0  0  0
 26 27  1  0  0  0
 27 28  2  0  0  0
 28 17  1  0  0  0
 17 18  1  0  0  0
 18 19  2  0  0  0
 19 20  1  0  0  0
 20 21  2  0  0  0
 21 16  1  0  0  0
 16  1  1  0  0  0
  1  2  1  0  0  0
  2  3  2  0  0  0
  2  4  1  0  0  0
  4  5  1  0  0  0
  5  6  1  0  0  0
  6  7  1  0  0  0
  7 10  1  0  0  0
 10 11  2  0  0  0
 11 12  1  0  0  0
 12 13  2  0  0  0
 13 14  1  0  0  0
 14 15  2  0  0  0
  7  8  1  0  0  0
  8  9  1  0  0  0
 28 23  1  0  0  0
 21 17  1  0  0  0
  9  4  1  0  0  0
 15 10  1  0  0  0
M  END
> <minimizedAffinity>
-8.15823

> <CNNscore>
0.5068041682

> <CNNaffinity>
6.4125776291

> <CNN_VS>
3.2499210835

> <CNNaffinity_variance>
0.6022073627

$$$$
[H]c1c([H])c([H])c(N2C([H])([H])C([H])([H])N(C(=O)C([H])([H])Sc3nnc([H])n3-c3c([H])c([H])c([H])c([H])c3C([H])([H])[H])C([H])([H])C2([H])[H])c([H])c1[H]


 28 31  0  0  0  0  0  0  0  0999 V2000
    3.2406    1.9944   17.1993 C   0  0  0  0  0  0  0  0  0  0  0  0
    3.3980    3.1440   16.2869 C   0  0  0  0  0  0  0  0  0  0  0  0
    4.0354    4.1491   16.6718 O   0  0  0  0  0  0  0  0  0  0  0  0
    2.8432    3.1302   14.9875 N   0  0  0  0  0  0  0  0  0  0  0  0
    2.0976    1.9886   14.5523 C   0  0  0  0  0  0  0  0  0  0  0  0
    1.5937    2.1188   13.1278 C   0  0  0  0  0  0  0  0  0  0  0  0
    2.5861    2.7186   12.2683 N   0  0  0  0  0  0  0  0  0  0  0  0
    3.5887    3.6473   12.7872 C   0  0  0  0  0  0  0  0  0  0  0  0
    3.0131    4.2445   14.0791 C   0  0  0  0  0  0  0  0  0  0  0  0
    2.5931    2.4149   10.8945 C   0  0  0  0  0  0  0  0  0  0  0  0
    3.0005    1.1819   10.4518 C   0  0  0  0  0  0  0  0  0  0  0  0
    3.0032    0.9205    9.0883 C   0  0  0  0  0  0  0  0  0  0  0  0
    2.6069    1.8658    8.1649 C   0  0  0  0  0  0  0  0  0  0  0  0
    2.1940    3.1131    8.6096 C   0  0  0  0  0  0  0  0  0  0  0  0
    2.1912    3.3730    9.9600 C   0  0  0  0  0  0  0  0  0  0  0  0
    4.5209    1.9784   18.4894 S   0  0  0  0  0  0  0  0  0  0  0  0
    3.9445    1.7960   21.2446 N   0  0  0  0  0  0  0  0  0  0  0  0
    3.3057    0.9846   22.0925 C   0  0  0  0  0  0  0  0  0  0  0  0
    2.8041   -0.0262   21.3697 N   0  0  0  0  0  0  0  0  0  0  0  0
    3.1250    0.1593   20.1210 N   0  0  0  0  0  0  0  0  0  0  0  0
    3.8363    1.2882   20.0151 C   0  0  0  0  0  0  0  0  0  0  0  0
    6.6757    1.5916   21.8342 C   0  0  0  0  0  0  0  0  0  0  0  0
    5.9622    2.9008   21.8925 C   0  0  0  0  0  0  0  0  0  0  0  0
    6.6305    4.0543   22.2416 C   0  0  0  0  0  0  0  0  0  0  0  0
    5.9405    5.2610   22.2871 C   0  0  0  0  0  0  0  0  0  0  0  0
    4.5986    5.3569   21.9943 C   0  0  0  0  0  0  0  0  0  0  0  0
    3.9260    4.2066   21.6450 C   0  0  0  0  0  0  0  0  0  0  0  0
    4.6197    2.9967   21.5999 C   0  0  0  0  0  0  0  0  0  0  0  0
 22 23  1  0  0  0
 23 24  2  0  0  0
 24 25  1  0  0  0
 25 26  2  0  0  0
 26 27  1  0  0  0
 27 28  2  0  0  0
 28 17  1  0  0  0
 17 18  1  0  0  0
 18 19  2  0  0  0
 19 20  1  0  0  0
 20 21  2  0  0  0
 21 16  1  0  0  0
 16  1  1  0  0  0
  1  2  1  0  0  0
  2  3  2  0  0  0
  2  4  1  0  0  0
  4  5  1  0  0  0
  5  6  1  0  0  0
  6  7  1  0  0  0
  7 10  1  0  0  0
 10 11  2  0  0  0
 11 12  1  0  0  0
 12 13  2  0  0  0
 13 14  1  0  0  0
 14 15  2  0  0  0
  7  8  1  0  0  0
  8  9  1  0  0  0
 28 23  1  0  0  0
 21 17  1  0  0  0
  9  4  1  0  0  0
 15 10  1  0  0  0
M  END
> <minimizedAffinity>
-7.27542

> <CNNscore>
0.5012691617

> <CNNaffinity>
5.9719944000

> <CNN_VS>
2.9935765266

> <CNNaffinity_variance>
0.2834597230

$$$$
[H]c1c([H])c([H])c(N2C([H])([H])C([H])([H])N(C(=O)C([H])([H])Sc3nnc([H])n3-c3c([H])c([H])c([H])c([H])c3C([H])([H])[H])C([H])([H])C2([H])[H])c([H])c1[H]


 28 31  0  0  0  0  0  0  0  0999 V2000
    3.9828    4.4958   19.4188 C   0  0  0  0  0  0  0  0  0  0  0  0
    4.7985    5.7096   19.2180 C   0  0  0  0  0  0  0  0  0  0  0  0
    4.5418    6.4685   18.2573 O   0  0  0  0  0  0  0  0  0  0  0  0
    5.8625    6.0306   20.0905 N   0  0  0  0  0  0  0  0  0  0  0  0
    6.1693    5.1537   21.1793 C   0  0  0  0  0  0  0  0  0  0  0  0
    7.3172    5.6526   22.0356 C   0  0  0  0  0  0  0  0  0  0  0  0
    7.2429    7.0795   22.2409 N   0  0  0  0  0  0  0  0  0  0  0  0
    6.6102    7.9623   21.2626 C   0  0  0  0  0  0  0  0  0  0  0  0
    6.6519    7.2310   19.9133 C   0  0  0  0  0  0  0  0  0  0  0  0
    7.7964    7.6457   23.4038 C   0  0  0  0  0  0  0  0  0  0  0  0
    8.9407    7.1299   23.9577 C   0  0  0  0  0  0  0  0  0  0  0  0
    9.4534    7.7084   25.1110 C   0  0  0  0  0  0  0  0  0  0  0  0
    8.8449    8.7886   25.7162 C   0  0  0  0  0  0  0  0  0  0  0  0
    7.6882    9.3126   25.1582 C   0  0  0  0  0  0  0  0  0  0  0  0
    7.1795    8.7400   24.0160 C   0  0  0  0  0  0  0  0  0  0  0  0
    4.7659    3.0292   18.6844 S   0  0  0  0  0  0  0  0  0  0  0  0
    3.7924    1.0648   20.4593 N   0  0  0  0  0  0  0  0  0  0  0  0
    3.0620   -0.0536   20.4279 C   0  0  0  0  0  0  0  0  0  0  0  0
    2.7075   -0.2582   19.1518 N   0  0  0  0  0  0  0  0  0  0  0  0
    3.2043    0.7023   18.4257 N   0  0  0  0  0  0  0  0  0  0  0  0
    3.8853    1.5409   19.2159 C   0  0  0  0  0  0  0  0  0  0  0  0
    6.4754    0.4580   20.9904 C   0  0  0  0  0  0  0  0  0  0  0  0
    5.6851    1.3473   21.8908 C   0  0  0  0  0  0  0  0  0  0  0  0
    6.2558    1.8984   23.0176 C   0  0  0  0  0  0  0  0  0  0  0  0
    5.4958    2.7245   23.8388 C   0  0  0  0  0  0  0  0  0  0  0  0
    4.1780    3.0217   23.5725 C   0  0  0  0  0  0  0  0  0  0  0  0
    3.6029    2.4732   22.4474 C   0  0  0  0  0  0  0  0  0  0  0  0
    4.3667    1.6444   21.6246 C   0  0  0  0  0  0  0  0  0  0  0  0
 22 23  1  0  0  0
 23 24  2  0  0  0
 24 25  1  0  0  0
 25 26  2  0  0  0
 26 27  1  0  0  0
 27 28  2  0  0  0
 28 17  1  0  0  0
 17 18  1  0  0  0
 18 19  2  0  0  0
 19 20  1  0  0  0
 20 21  2  0  0  0
 21 16  1  0  0  0
 16  1  1  0  0  0
  1  2  1  0  0  0
  2  3  2  0  0  0
  2  4  1  0  0  0
  4  5  1  0  0  0
  5  6  1  0  0  0
  6  7  1  0  0  0
  7 10  1  0  0  0
 10 11  2  0  0  0
 11 12  1  0  0  0
 12 13  2  0  0  0
 13 14  1  0  0  0
 14 15  2  0  0  0
  7  8  1  0  0  0
  8  9  1  0  0  0
 28 23  1  0  0  0
 21 17  1  0  0  0
  9  4  1  0  0  0
 15 10  1  0  0  0
M  END
> <minimizedAffinity>
-8.01766

> <CNNscore>
0.4869880974

> <CNNaffinity>
6.2617187500

> <CNN_VS>
3.0493824482

> <CNNaffinity_variance>
0.4760950208

$$$$
[H]c1c([H])c([H])c(N2C([H])([H])C([H])([H])N(C(=O)C([H])([H])Sc3nnc([H])n3-c3c([H])c([H])c([H])c([H])c3C([H])([H])[H])C([H])([H])C2([H])[H])c([H])c1[H]


 28 31  0  0  0  0  0  0  0  0999 V2000
    5.4044    5.3323   17.4210 C   0  0  0  0  0  0  0  0  0  0  0  0
    4.0130    5.6780   17.0699 C   0  0  0  0  0  0  0  0  0  0  0  0
    3.3767    6.4722   17.7973 O   0  0  0  0  0  0  0  0  0  0  0  0
    3.3869    5.1298   15.9280 N   0  0  0  0  0  0  0  0  0  0  0  0
    4.1073    4.2066   15.1050 C   0  0  0  0  0  0  0  0  0  0  0  0
    3.3071    3.7324   13.9072 C   0  0  0  0  0  0  0  0  0  0  0  0
    2.5534    4.8111   13.3139 N   0  0  0  0  0  0  0  0  0  0  0  0
    2.0971    5.9526   14.1049 C   0  0  0  0  0  0  0  0  0  0  0  0
    2.0307    5.4821   15.5648 C   0  0  0  0  0  0  0  0  0  0  0  0
    2.2381    4.7691   11.9434 C   0  0  0  0  0  0  0  0  0  0  0  0
    1.4069    3.7979   11.4454 C   0  0  0  0  0  0  0  0  0  0  0  0
    1.1251    3.7817   10.0860 C   0  0  0  0  0  0  0  0  0  0  0  0
    1.6571    4.7155    9.2209 C   0  0  0  0  0  0  0  0  0  0  0  0
    2.4975    5.6989    9.7217 C   0  0  0  0  0  0  0  0  0  0  0  0
    2.7772    5.7156   11.0680 C   0  0  0  0  0  0  0  0  0  0  0  0
    5.5068    4.5146   19.0411 S   0  0  0  0  0  0  0  0  0  0  0  0
    4.3900    2.0990   19.9762 N   0  0  0  0  0  0  0  0  0  0  0  0
    3.8325    0.9871   19.4882 C   0  0  0  0  0  0  0  0  0  0  0  0
    3.8200    1.1046   18.1533 N   0  0  0  0  0  0  0  0  0  0  0  0
    4.3523    2.2497   17.8341 N   0  0  0  0  0  0  0  0  0  0  0  0
    4.7164    2.8898   18.9517 C   0  0  0  0  0  0  0  0  0  0  0  0
    6.5906    0.8846   21.2136 C   0  0  0  0  0  0  0  0  0  0  0  0
    5.6738    1.7884   21.9679 C   0  0  0  0  0  0  0  0  0  0  0  0
    5.8839    2.0525   23.3040 C   0  0  0  0  0  0  0  0  0  0  0  0
    5.0138    2.8994   23.9821 C   0  0  0  0  0  0  0  0  0  0  0  0
    3.9348    3.4958   23.3691 C   0  0  0  0  0  0  0  0  0  0  0  0
    3.7203    3.2349   22.0336 C   0  0  0  0  0  0  0  0  0  0  0  0
    4.5942    2.3848   21.3547 C   0  0  0  0  0  0  0  0  0  0  0  0
 22 23  1  0  0  0
 23 24  2  0  0  0
 24 25  1  0  0  0
 25 26  2  0  0  0
 26 27  1  0  0  0
 27 28  2  0  0  0
 28 17  1  0  0  0
 17 18  1  0  0  0
 18 19  2  0  0  0
 19 20  1  0  0  0
 20 21  2  0  0  0
 21 16  1  0  0  0
 16  1  1  0  0  0
  1  2  1  0  0  0
  2  3  2  0  0  0
  2  4  1  0  0  0
  4  5  1  0  0  0
  5  6  1  0  0  0
  6  7  1  0  0  0
  7 10  1  0  0  0
 10 11  2  0  0  0
 11 12  1  0  0  0
 12 13  2  0  0  0
 13 14  1  0  0  0
 14 15  2  0  0  0
  7  8  1  0  0  0
  8  9  1  0  0  0
 28 23  1  0  0  0
 21 17  1  0  0  0
  9  4  1  0  0  0
 15 10  1  0  0  0
M  END
> <minimizedAffinity>
-6.79805

> <CNNscore>
0.3805848062

> <CNNaffinity>
5.8001532555

> <CNN_VS>
2.2074501514

> <CNNaffinity_variance>
0.5288130045

$$$$
[H]c1c([H])c([H])c(N2C([H])([H])C([H])([H])N(C(=O)C([H])([H])Sc3nnc([H])n3-c3c([H])c([H])c([H])c([H])c3C([H])([H])[H])C([H])([H])C2([H])[H])c([H])c1[H]


 28 31  0  0  0  0  0  0  0  0999 V2000
    4.2324    0.7441   18.1530 C   0  0  0  0  0  0  0  0  0  0  0  0
    3.3025    0.7307   17.0067 C   0  0  0  0  0  0  0  0  0  0  0  0
    2.5074   -0.2258   16.8736 O   0  0  0  0  0  0  0  0  0  0  0  0
    3.2929    1.7778   16.0580 N   0  0  0  0  0  0  0  0  0  0  0  0
    4.2147    2.8637   16.1984 C   0  0  0  0  0  0  0  0  0  0  0  0
    4.0585    3.9161   15.1176 C   0  0  0  0  0  0  0  0  0  0  0  0
    2.6685    4.1670   14.8204 N   0  0  0  0  0  0  0  0  0  0  0  0
    1.6475    3.1371   15.0047 C   0  0  0  0  0  0  0  0  0  0  0  0
    2.3681    1.7828   14.9443 C   0  0  0  0  0  0  0  0  0  0  0  0
    2.2767    5.4276   14.3337 C   0  0  0  0  0  0  0  0  0  0  0  0
    3.0593    6.5343   14.5455 C   0  0  0  0  0  0  0  0  0  0  0  0
    2.6367    7.7640   14.0588 C   0  0  0  0  0  0  0  0  0  0  0  0
    1.4513    7.9049   13.3671 C   0  0  0  0  0  0  0  0  0  0  0  0
    0.6582    6.7876   13.1510 C   0  0  0  0  0  0  0  0  0  0  0  0
    1.0760    5.5693   13.6329 C   0  0  0  0  0  0  0  0  0  0  0  0
    3.5501    1.6662   19.5629 S   0  0  0  0  0  0  0  0  0  0  0  0
    5.4891    3.2733   20.8332 N   0  0  0  0  0  0  0  0  0  0  0  0
    6.4184    3.1722   21.7880 C   0  0  0  0  0  0  0  0  0  0  0  0
    6.3740    1.9154   22.2508 N   0  0  0  0  0  0  0  0  0  0  0  0
    5.4490    1.2681   21.6013 N   0  0  0  0  0  0  0  0  0  0  0  0
    4.8816    2.0912   20.7114 C   0  0  0  0  0  0  0  0  0  0  0  0
    3.7075    5.1089   21.9758 C   0  0  0  0  0  0  0  0  0  0  0  0
    4.3236    5.3506   20.6385 C   0  0  0  0  0  0  0  0  0  0  0  0
    4.0310    6.4907   19.9219 C   0  0  0  0  0  0  0  0  0  0  0  0
    4.6203    6.6906   18.6781 C   0  0  0  0  0  0  0  0  0  0  0  0
    5.4971    5.7867   18.1215 C   0  0  0  0  0  0  0  0  0  0  0  0
    5.7927    4.6453   18.8339 C   0  0  0  0  0  0  0  0  0  0  0  0
    5.2006    4.4462   20.0816 C   0  0  0  0  0  0  0  0  0  0  0  0
 22 23  1  0  0  0
 23 24  2  0  0  0
 24 25  1  0  0  0
 25 26  2  0  0  0
 26 27  1  0  0  0
 27 28  2  0  0  0
 28 17  1  0  0  0
 17 18  1  0  0  0
 18 19  2  0  0  0
 19 20  1  0  0  0
 20 21  2  0  0  0
 21 16  1  0  0  0
 16  1  1  0  0  0
  1  2  1  0  0  0
  2  3  2  0  0  0
  2  4  1  0  0  0
  4  5  1  0  0  0
  5  6  1  0  0  0
  6  7  1  0  0  0
  7 10  1  0  0  0
 10 11  2  0  0  0
 11 12  1  0  0  0
 12 13  2  0  0  0
 13 14  1  0  0  0
 14 15  2  0  0  0
  7  8  1  0  0  0
  8  9  1  0  0  0
 28 23  1  0  0  0
 21 17  1  0  0  0
  9  4  1  0  0  0
 15 10  1  0  0  0
M  END
> <minimizedAffinity>
-6.62543

> <CNNscore>
0.3734669685

> <CNNaffinity>
5.9955034256

> <CNN_VS>
2.2391223907

> <CNNaffinity_variance>
0.6723459363

$$$$
[H]c1c([H])c([H])c(N2C([H])([H])C([H])([H])N(C(=O)C([H])([H])Sc3nnc([H])n3-c3c([H])c([H])c([H])c([H])c3C([H])([H])[H])C([H])([H])C2([H])[H])c([H])c1[H]


 28 31  0  0  0  0  0  0  0  0999 V2000
    3.5563    0.9164   17.1264 C   0  0  0  0  0  0  0  0  0  0  0  0
    3.0958    1.9649   16.1950 C   0  0  0  0  0  0  0  0  0  0  0  0
    2.2187    1.6890   15.3469 O   0  0  0  0  0  0  0  0  0  0  0  0
    3.6262    3.2736   16.2438 N   0  0  0  0  0  0  0  0  0  0  0  0
    4.6432    3.5859   17.2013 C   0  0  0  0  0  0  0  0  0  0  0  0
    5.0857    5.0353   17.1430 C   0  0  0  0  0  0  0  0  0  0  0  0
    3.9648    5.9233   16.9467 N   0  0  0  0  0  0  0  0  0  0  0  0
    2.7565    5.4890   16.2479 C   0  0  0  0  0  0  0  0  0  0  0  0
    3.1630    4.3128   15.3488 C   0  0  0  0  0  0  0  0  0  0  0  0
    4.0291    7.2435   17.4288 C   0  0  0  0  0  0  0  0  0  0  0  0
    4.2028    8.2964   16.5665 C   0  0  0  0  0  0  0  0  0  0  0  0
    4.2711    9.5850   17.0787 C   0  0  0  0  0  0  0  0  0  0  0  0
    4.1686    9.8374   18.4311 C   0  0  0  0  0  0  0  0  0  0  0  0
    3.9925    8.7749   19.3053 C   0  0  0  0  0  0  0  0  0  0  0  0
    3.9250    7.4982   18.7989 C   0  0  0  0  0  0  0  0  0  0  0  0
    4.5157    1.6135   18.5039 S   0  0  0  0  0  0  0  0  0  0  0  0
    3.9231    1.6829   21.2608 N   0  0  0  0  0  0  0  0  0  0  0  0
    3.2436    0.9743   22.1671 C   0  0  0  0  0  0  0  0  0  0  0  0
    2.6962   -0.0668   21.5250 N   0  0  0  0  0  0  0  0  0  0  0  0
    3.0293    0.0013   20.2677 N   0  0  0  0  0  0  0  0  0  0  0  0
    3.7943    1.0827   20.0756 C   0  0  0  0  0  0  0  0  0  0  0  0
    6.6440    1.3988   21.8646 C   0  0  0  0  0  0  0  0  0  0  0  0
    5.9917    2.7401   21.8216 C   0  0  0  0  0  0  0  0  0  0  0  0
    6.7136    3.8850   22.0806 C   0  0  0  0  0  0  0  0  0  0  0  0
    6.0800    5.1222   22.0328 C   0  0  0  0  0  0  0  0  0  0  0  0
    4.7429    5.2571   21.7334 C   0  0  0  0  0  0  0  0  0  0  0  0
    4.0169    4.1155   21.4739 C   0  0  0  0  0  0  0  0  0  0  0  0
    4.6540    2.8750   21.5223 C   0  0  0  0  0  0  0  0  0  0  0  0
 22 23  1  0  0  0
 23 24  2  0  0  0
 24 25  1  0  0  0
 25 26  2  0  0  0
 26 27  1  0  0  0
 27 28  2  0  0  0
 28 17  1  0  0  0
 17 18  1  0  0  0
 18 19  2  0  0  0
 19 20  1  0  0  0
 20 21  2  0  0  0
 21 16  1  0  0  0
 16  1  1  0  0  0
  1  2  1  0  0  0
  2  3  2  0  0  0
  2  4  1  0  0  0
  4  5  1  0  0  0
  5  6  1  0  0  0
  6  7  1  0  0  0
  7 10  1  0  0  0
 10 11  2  0  0  0
 11 12  1  0  0  0
 12 13  2  0  0  0
 13 14  1  0  0  0
 14 15  2  0  0  0
  7  8  1  0  0  0
  8  9  1  0  0  0
 28 23  1  0  0  0
 21 17  1  0  0  0
  9  4  1  0  0  0
 15 10  1  0  0  0
M  END
> <minimizedAffinity>
-8.30052

> <CNNscore>
0.3366459310

> <CNNaffinity>
5.9600176811

> <CNN_VS>
2.0064156055

> <CNNaffinity_variance>
0.7708794475

$$$$
[H]OC(C([H])([H])[H])(C([H])([H])[H])C([H])([H])C([H])([H])N([H])S(=O)(=O)c1c([H])c([H])c(C([H])([H])[H])c(-c2c([H])nc(N([H])[H])c(-c3onc(C([H])([H])[H])c3[H])c2[H])c1[H]


 34 36  0  0  0  0  0  0  0  0999 V2000
    3.7487    1.7467   18.4620 C   0  0  0  0  0  0  0  0  0  0  0  0
    4.2745    2.2083   19.6746 C   0  0  0  0  0  0  0  0  0  0  0  0
    4.1797    1.4693   20.8350 C   0  0  0  0  0  0  0  0  0  0  0  0
    3.5588    0.2466   20.8285 C   0  0  0  0  0  0  0  0  0  0  0  0
    3.0332   -0.2308   19.6480 C   0  0  0  0  0  0  0  0  0  0  0  0
    3.1326    0.5271   18.4656 C   0  0  0  0  0  0  0  0  0  0  0  0
    2.5735   -0.0200   17.2005 C   0  0  0  0  0  0  0  0  0  0  0  0
    3.2892    2.9307   14.9600 C   0  0  0  0  0  0  0  0  0  0  0  0
    3.1680    2.1504   16.1189 C   0  0  0  0  0  0  0  0  0  0  0  0
    3.8449    2.5531   17.2506 C   0  0  0  0  0  0  0  0  0  0  0  0
    4.6079    3.7029   17.1869 C   0  0  0  0  0  0  0  0  0  0  0  0
    4.7132    4.4364   16.0737 N   0  0  0  0  0  0  0  0  0  0  0  0
    4.0497    4.0516   14.9461 C   0  0  0  0  0  0  0  0  0  0  0  0
    4.1893    4.8558   13.7939 N   0  0  0  0  0  0  0  0  0  0  0  0
    4.9445    4.7186   13.0830 H   0  0  0  0  0  0  0  0  0  0  0  0
    3.5257    5.6289   13.6157 H   0  0  0  0  0  0  0  0  0  0  0  0
    1.8552    1.3124   10.3691 C   0  0  0  0  0  0  0  0  0  0  0  0
    1.8783    1.7376   11.8013 C   0  0  0  0  0  0  0  0  0  0  0  0
    2.9982    2.1649   12.5403 C   0  0  0  0  0  0  0  0  0  0  0  0
    2.5432    2.4470   13.7904 C   0  0  0  0  0  0  0  0  0  0  0  0
    1.2388    2.2073   13.8083 O   0  0  0  0  0  0  0  0  0  0  0  0
    0.8585    1.7989   12.6618 N   0  0  0  0  0  0  0  0  0  0  0  0
    4.8633    2.1073   22.3314 S   0  0  0  0  0  0  0  0  0  0  0  0
    4.1193    1.4442   23.4678 O   0  0  0  0  0  0  0  0  0  0  0  0
    6.3192    1.8046   22.3745 O   0  0  0  0  0  0  0  0  0  0  0  0
    4.5179    3.7753   22.3883 N   0  0  0  0  0  0  0  0  0  0  0  0
    4.1198    3.9763   23.3523 H   0  0  0  0  0  0  0  0  0  0  0  0
    5.6888    4.5978   22.1614 C   0  0  0  0  0  0  0  0  0  0  0  0
    5.7104    5.2027   20.7954 C   0  0  0  0  0  0  0  0  0  0  0  0
    4.7765    6.3557   20.6381 C   0  0  0  0  0  0  0  0  0  0  0  0
    5.0711    7.5318   21.5117 C   0  0  0  0  0  0  0  0  0  0  0  0
    4.7907    6.8050   19.1972 C   0  0  0  0  0  0  0  0  0  0  0  0
    3.4758    5.9312   20.9163 O   0  0  0  0  0  0  0  0  0  0  0  0
    2.8171    6.3583   20.3329 H   0  0  0  0  0  0  0  0  0  0  0  0
 17 18  1  0  0  0
 18 19  1  0  0  0
 19 20  2  0  0  0
 20  8  1  0  0  0
  8  9  2  0  0  0
  9 10  1  0  0  0
 10  1  1  0  0  0
  1  2  2  0  0  0
  2  3  1  0  0  0
  3 23  1  0  0  0
 23 24  2  0  0  0
 23 25  2  0  0  0
 23 26  1  0  0  0
 26 28  1  0  0  0
 28 29  1  0  0  0
 29 30  1  0  0  0
 30 31  1  0  0  0
 30 32  1  0  0  0
 30 33  1  0  0  0
  3  4  2  0  0  0
  4  5  1  0  0  0
  5  6  2  0  0  0
  6  7  1  0  0  0
 10 11  2  0  0  0
 11 12  1  0  0  0
 12 13  2  0  0  0
 13 14  1  0  0  0
 20 21  1  0  0  0
 21 22  1  0  0  0
 22 18  2  0  0  0
 13  8  1  0  0  0
  6  1  1  0  0  0
 26 27  1  0  0  0
 33 34  1  0  0  0
 14 15  1  0  0  0
 14 16  1  0  0  0
M  END
> <minimizedAffinity>
-8.37663

> <CNNscore>
0.4612488151

> <CNNaffinity>
6.9483742714

> <CNN_VS>
3.2049293518

> <CNNaffinity_variance>
0.1647966355

$$$$
[H]OC(C([H])([H])[H])(C([H])([H])[H])C([H])([H])C([H])([H])N([H])S(=O)(=O)c1c([H])c([H])c(C([H])([H])[H])c(-c2c([H])nc(N([H])[H])c(-c3onc(C([H])([H])[H])c3[H])c2[H])c1[H]


 34 36  0  0  0  0  0  0  0  0999 V2000
    5.2094    3.0554   20.1631 C   0  0  0  0  0  0  0  0  0  0  0  0
    5.3107    4.4516   20.1693 C   0  0  0  0  0  0  0  0  0  0  0  0
    5.9988    5.1250   21.1565 C   0  0  0  0  0  0  0  0  0  0  0  0
    6.6092    4.4326   22.1707 C   0  0  0  0  0  0  0  0  0  0  0  0
    6.5249    3.0576   22.1875 C   0  0  0  0  0  0  0  0  0  0  0  0
    5.8215    2.3743   21.1772 C   0  0  0  0  0  0  0  0  0  0  0  0
    5.7619    0.8885   21.2085 C   0  0  0  0  0  0  0  0  0  0  0  0
    3.6578    2.2495   16.8736 C   0  0  0  0  0  0  0  0  0  0  0  0
    4.3976    2.9206   17.8581 C   0  0  0  0  0  0  0  0  0  0  0  0
    4.4615    2.3651   19.1184 C   0  0  0  0  0  0  0  0  0  0  0  0
    3.7947    1.1775   19.3488 C   0  0  0  0  0  0  0  0  0  0  0  0
    3.0933    0.5495   18.3990 N   0  0  0  0  0  0  0  0  0  0  0  0
    3.0205    1.0859   17.1473 C   0  0  0  0  0  0  0  0  0  0  0  0
    2.2692    0.3892   16.1757 N   0  0  0  0  0  0  0  0  0  0  0  0
    1.2464    0.5426   16.0186 H   0  0  0  0  0  0  0  0  0  0  0  0
    2.7259   -0.3160   15.5724 H   0  0  0  0  0  0  0  0  0  0  0  0
    3.8028    5.5188   12.9952 C   0  0  0  0  0  0  0  0  0  0  0  0
    3.6856    4.2886   13.8352 C   0  0  0  0  0  0  0  0  0  0  0  0
    3.8132    4.2030   15.2349 C   0  0  0  0  0  0  0  0  0  0  0  0
    3.6301    2.8938   15.5536 C   0  0  0  0  0  0  0  0  0  0  0  0
    3.4073    2.2317   14.4260 O   0  0  0  0  0  0  0  0  0  0  0  0
    3.4397    3.0372   13.4381 N   0  0  0  0  0  0  0  0  0  0  0  0
    6.0895    6.8865   21.1074 S   0  0  0  0  0  0  0  0  0  0  0  0
    6.5185    7.3393   22.4842 O   0  0  0  0  0  0  0  0  0  0  0  0
    7.0648    7.2990   20.0625 O   0  0  0  0  0  0  0  0  0  0  0  0
    4.5150    7.4785   20.8336 N   0  0  0  0  0  0  0  0  0  0  0  0
    4.0107    7.4611   21.7682 H   0  0  0  0  0  0  0  0  0  0  0  0
    4.5079    8.8251   20.2990 C   0  0  0  0  0  0  0  0  0  0  0  0
    3.6803    8.9478   19.0612 C   0  0  0  0  0  0  0  0  0  0  0  0
    4.3902    8.5135   17.8227 C   0  0  0  0  0  0  0  0  0  0  0  0
    4.1465    7.0956   17.4184 C   0  0  0  0  0  0  0  0  0  0  0  0
    3.9886    9.4194   16.6842 C   0  0  0  0  0  0  0  0  0  0  0  0
    5.7651    8.6766   18.0034 O   0  0  0  0  0  0  0  0  0  0  0  0
    6.2104    8.9754   17.1854 H   0  0  0  0  0  0  0  0  0  0  0  0
 17 18  1  0  0  0
 18 19  1  0  0  0
 19 20  2  0  0  0
 20  8  1  0  0  0
  8  9  2  0  0  0
  9 10  1  0  0  0
 10  1  1  0  0  0
  1  2  2  0  0  0
  2  3  1  0  0  0
  3 23  1  0  0  0
 23 24  2  0  0  0
 23 25  2  0  0  0
 23 26  1  0  0  0
 26 28  1  0  0  0
 28 29  1  0  0  0
 29 30  1  0  0  0
 30 31  1  0  0  0
 30 32  1  0  0  0
 30 33  1  0  0  0
  3  4  2  0  0  0
  4  5  1  0  0  0
  5  6  2  0  0  0
  6  7  1  0  0  0
 10 11  2  0  0  0
 11 12  1  0  0  0
 12 13  2  0  0  0
 13 14  1  0  0  0
 20 21  1  0  0  0
 21 22  1  0  0  0
 22 18  2  0  0  0
 13  8  1  0  0  0
  6  1  1  0  0  0
 26 27  1  0  0  0
 33 34  1  0  0  0
 14 15  1  0  0  0
 14 16  1  0  0  0
M  END
> <minimizedAffinity>
-8.89245

> <CNNscore>
0.4325198233

> <CNNaffinity>
6.4690790176

> <CNN_VS>
2.7980048656

> <CNNaffinity_variance>
0.4812594354

$$$$
[H]OC(C([H])([H])[H])(C([H])([H])[H])C([H])([H])C([H])([H])N([H])S(=O)(=O)c1c([H])c([H])c(C([H])([H])[H])c(-c2c([H])nc(N([H])[H])c(-c3onc(C([H])([H])[H])c3[H])c2[H])c1[H]


 34 36  0  0  0  0  0  0  0  0999 V2000
    4.3544    2.2623   20.8680 C   0  0  0  0  0  0  0  0  0  0  0  0
    4.1120    1.9920   19.5159 C   0  0  0  0  0  0  0  0  0  0  0  0
    3.3562    0.9102   19.1162 C   0  0  0  0  0  0  0  0  0  0  0  0
    2.8160    0.0608   20.0475 C   0  0  0  0  0  0  0  0  0  0  0  0
    3.0393    0.3048   21.3849 C   0  0  0  0  0  0  0  0  0  0  0  0
    3.8114    1.4108   21.7883 C   0  0  0  0  0  0  0  0  0  0  0  0
    4.0213    1.6623   23.2392 C   0  0  0  0  0  0  0  0  0  0  0  0
    5.5846    5.7534   21.2875 C   0  0  0  0  0  0  0  0  0  0  0  0
    4.7743    4.6732   20.9090 C   0  0  0  0  0  0  0  0  0  0  0  0
    5.1717    3.4024   21.2673 C   0  0  0  0  0  0  0  0  0  0  0  0
    6.3462    3.2563   21.9795 C   0  0  0  0  0  0  0  0  0  0  0  0
    7.1080    4.2971   22.3331 N   0  0  0  0  0  0  0  0  0  0  0  0
    6.7287    5.5603   21.9866 C   0  0  0  0  0  0  0  0  0  0  0  0
    7.5630    6.6291   22.3807 N   0  0  0  0  0  0  0  0  0  0  0  0
    8.3552    6.9871   21.7987 H   0  0  0  0  0  0  0  0  0  0  0  0
    7.4078    7.1032   23.2868 H   0  0  0  0  0  0  0  0  0  0  0  0
    3.5672    9.7033   18.8217 C   0  0  0  0  0  0  0  0  0  0  0  0
    4.2346    8.8274   19.8316 C   0  0  0  0  0  0  0  0  0  0  0  0
    4.4795    7.4449   19.7243 C   0  0  0  0  0  0  0  0  0  0  0  0
    5.1048    7.0794   20.8752 C   0  0  0  0  0  0  0  0  0  0  0  0
    5.2303    8.1643   21.6279 O   0  0  0  0  0  0  0  0  0  0  0  0
    4.7284    9.1694   21.0247 N   0  0  0  0  0  0  0  0  0  0  0  0
    3.0874    0.6243   17.3958 S   0  0  0  0  0  0  0  0  0  0  0  0
    4.3996    0.8997   16.6981 O   0  0  0  0  0  0  0  0  0  0  0  0
    2.6405   -0.7804   17.1954 O   0  0  0  0  0  0  0  0  0  0  0  0
    1.9574    1.7774   16.8499 N   0  0  0  0  0  0  0  0  0  0  0  0
    1.5271    2.2221   17.7131 H   0  0  0  0  0  0  0  0  0  0  0  0
    2.5586    2.8016   16.0201 C   0  0  0  0  0  0  0  0  0  0  0  0
    2.8850    4.0429   16.7849 C   0  0  0  0  0  0  0  0  0  0  0  0
    4.0769    4.7714   16.2605 C   0  0  0  0  0  0  0  0  0  0  0  0
    3.9416    6.2591   16.2203 C   0  0  0  0  0  0  0  0  0  0  0  0
    5.2784    4.4153   17.1017 C   0  0  0  0  0  0  0  0  0  0  0  0
    4.3469    4.3312   14.9632 O   0  0  0  0  0  0  0  0  0  0  0  0
    5.3073    4.2783   14.7854 H   0  0  0  0  0  0  0  0  0  0  0  0
 17 18  1  0  0  0
 18 19  1  0  0  0
 19 20  2  0  0  0
 20  8  1  0  0  0
  8  9  2  0  0  0
  9 10  1  0  0  0
 10  1  1  0  0  0
  1  2  2  0  0  0
  2  3  1  0  0  0
  3 23  1  0  0  0
 23 24  2  0  0  0
 23 25  2  0  0  0
 23 26  1  0  0  0
 26 28  1  0  0  0
 28 29  1  0  0  0
 29 30  1  0  0  0
 30 31  1  0  0  0
 30 32  1  0  0  0
 30 33  1  0  0  0
  3  4  2  0  0  0
  4  5  1  0  0  0
  5  6  2  0  0  0
  6  7  1  0  0  0
 10 11  2  0  0  0
 11 12  1  0  0  0
 12 13  2  0  0  0
 13 14  1  0  0  0
 20 21  1  0  0  0
 21 22  1  0  0  0
 22 18  2  0  0  0
 13  8  1  0  0  0
  6  1  1  0  0  0
 26 27  1  0  0  0
 33 34  1  0  0  0
 14 15  1  0  0  0
 14 16  1  0  0  0
M  END
> <minimizedAffinity>
-8.56116

> <CNNscore>
0.2167858034

> <CNNaffinity>
6.4042701721

> <CNN_VS>
1.3883548975

> <CNNaffinity_variance>
0.1334440708

$$$$
[H]OC(C([H])([H])[H])(C([H])([H])[H])C([H])([H])C([H])([H])N([H])S(=O)(=O)c1c([H])c([H])c(C([H])([H])[H])c(-c2c([H])nc(N([H])[H])c(-c3onc(C([H])([H])[H])c3[H])c2[H])c1[H]


 34 36  0  0  0  0  0  0  0  0999 V2000
    3.8343    1.6267   19.4951 C   0  0  0  0  0  0  0  0  0  0  0  0
    4.4260    2.3899   20.5086 C   0  0  0  0  0  0  0  0  0  0  0  0
    4.4293    1.9731   21.8231 C   0  0  0  0  0  0  0  0  0  0  0  0
    3.8444    0.7834   22.1737 C   0  0  0  0  0  0  0  0  0  0  0  0
    3.2554    0.0132   21.1951 C   0  0  0  0  0  0  0  0  0  0  0  0
    3.2547    0.4427   19.8543 C   0  0  0  0  0  0  0  0  0  0  0  0
    2.6287   -0.4170   18.8143 C   0  0  0  0  0  0  0  0  0  0  0  0
    4.0389    3.8612   16.5214 C   0  0  0  0  0  0  0  0  0  0  0  0
    4.0687    3.4282   17.8550 C   0  0  0  0  0  0  0  0  0  0  0  0
    3.8271    2.0957   18.1141 C   0  0  0  0  0  0  0  0  0  0  0  0
    3.5675    1.2547   17.0494 C   0  0  0  0  0  0  0  0  0  0  0  0
    3.5427    1.6832   15.7828 N   0  0  0  0  0  0  0  0  0  0  0  0
    3.7800    2.9981   15.5099 C   0  0  0  0  0  0  0  0  0  0  0  0
    3.7439    3.4064   14.1587 N   0  0  0  0  0  0  0  0  0  0  0  0
    2.8739    3.7324   13.6779 H   0  0  0  0  0  0  0  0  0  0  0  0
    4.6067    3.3938   13.5883 H   0  0  0  0  0  0  0  0  0  0  0  0
    5.8631    8.5942   16.6700 C   0  0  0  0  0  0  0  0  0  0  0  0
    5.0722    7.3674   16.3503 C   0  0  0  0  0  0  0  0  0  0  0  0
    5.2434    6.0820   16.8991 C   0  0  0  0  0  0  0  0  0  0  0  0
    4.3046    5.2911   16.3141 C   0  0  0  0  0  0  0  0  0  0  0  0
    3.6126    6.0442   15.4695 O   0  0  0  0  0  0  0  0  0  0  0  0
    4.0566    7.2393   15.4923 N   0  0  0  0  0  0  0  0  0  0  0  0
    5.1921    2.9814   23.0539 S   0  0  0  0  0  0  0  0  0  0  0  0
    4.1774    4.0297   23.4487 O   0  0  0  0  0  0  0  0  0  0  0  0
    5.5855    2.1318   24.2101 O   0  0  0  0  0  0  0  0  0  0  0  0
    6.5083    3.7817   22.3247 N   0  0  0  0  0  0  0  0  0  0  0  0
    6.6023    3.3907   21.3416 H   0  0  0  0  0  0  0  0  0  0  0  0
    6.3271    5.2179   22.2647 C   0  0  0  0  0  0  0  0  0  0  0  0
    5.9473    5.6928   20.8999 C   0  0  0  0  0  0  0  0  0  0  0  0
    4.6898    6.4957   20.8756 C   0  0  0  0  0  0  0  0  0  0  0  0
    4.8092    7.8385   20.2307 C   0  0  0  0  0  0  0  0  0  0  0  0
    3.6186    5.7074   20.1619 C   0  0  0  0  0  0  0  0  0  0  0  0
    4.2453    6.6880   22.1852 O   0  0  0  0  0  0  0  0  0  0  0  0
    3.2699    6.6562   22.2506 H   0  0  0  0  0  0  0  0  0  0  0  0
 17 18  1  0  0  0
 18 19  1  0  0  0
 19 20  2  0  0  0
 20  8  1  0  0  0
  8  9  2  0  0  0
  9 10  1  0  0  0
 10  1  1  0  0  0
  1  2  2  0  0  0
  2  3  1  0  0  0
  3 23  1  0  0  0
 23 24  2  0  0  0
 23 25  2  0  0  0
 23 26  1  0  0  0
 26 28  1  0  0  0
 28 29  1  0  0  0
 29 30  1  0  0  0
 30 31  1  0  0  0
 30 32  1  0  0  0
 30 33  1  0  0  0
  3  4  2  0  0  0
  4  5  1  0  0  0
  5  6  2  0  0  0
  6  7  1  0  0  0
 10 11  2  0  0  0
 11 12  1  0  0  0
 12 13  2  0  0  0
 13 14  1  0  0  0
 20 21  1  0  0  0
 21 22  1  0  0  0
 22 18  2  0  0  0
 13  8  1  0  0  0
  6  1  1  0  0  0
 26 27  1  0  0  0
 33 34  1  0  0  0
 14 15  1  0  0  0
 14 16  1  0  0  0
M  END
> <minimizedAffinity>
-8.68263

> <CNNscore>
0.1656594723

> <CNNaffinity>
6.2631654739

> <CNN_VS>
1.0375527143

> <CNNaffinity_variance>
0.3566691875

$$$$
[H]OC(C([H])([H])[H])(C([H])([H])[H])C([H])([H])C([H])([H])N([H])S(=O)(=O)c1c([H])c([H])c(C([H])([H])[H])c(-c2c([H])nc(N([H])[H])c(-c3onc(C([H])([H])[H])c3[H])c2[H])c1[H]


 34 36  0  0  0  0  0  0  0  0999 V2000
    3.5340    3.9715   16.4689 C   0  0  0  0  0  0  0  0  0  0  0  0
    3.7774    4.9554   17.4347 C   0  0  0  0  0  0  0  0  0  0  0  0
    4.1032    4.6313   18.7348 C   0  0  0  0  0  0  0  0  0  0  0  0
    4.1979    3.3181   19.1182 C   0  0  0  0  0  0  0  0  0  0  0  0
    3.9635    2.3304   18.1867 C   0  0  0  0  0  0  0  0  0  0  0  0
    3.6314    2.6660   16.8604 C   0  0  0  0  0  0  0  0  0  0  0  0
    3.4021    1.5804   15.8698 C   0  0  0  0  0  0  0  0  0  0  0  0
    1.5535    5.0717   13.5118 C   0  0  0  0  0  0  0  0  0  0  0  0
    1.8833    4.7421   14.8344 C   0  0  0  0  0  0  0  0  0  0  0  0
    3.1735    4.3374   15.1039 C   0  0  0  0  0  0  0  0  0  0  0  0
    4.0757    4.2762   14.0597 C   0  0  0  0  0  0  0  0  0  0  0  0
    3.7455    4.5941   12.8033 N   0  0  0  0  0  0  0  0  0  0  0  0
    2.4737    4.9964   12.5205 C   0  0  0  0  0  0  0  0  0  0  0  0
    2.1693    5.3223   11.1807 N   0  0  0  0  0  0  0  0  0  0  0  0
    1.8262    4.6242   10.4811 H   0  0  0  0  0  0  0  0  0  0  0  0
    2.2813    6.2937   10.8433 H   0  0  0  0  0  0  0  0  0  0  0  0
   -2.9867    7.3298   13.7092 C   0  0  0  0  0  0  0  0  0  0  0  0
   -1.8299    6.4561   13.3472 C   0  0  0  0  0  0  0  0  0  0  0  0
   -0.5549    6.4474   13.9449 C   0  0  0  0  0  0  0  0  0  0  0  0
    0.1638    5.4950   13.2926 C   0  0  0  0  0  0  0  0  0  0  0  0
   -0.6203    4.9634   12.3642 O   0  0  0  0  0  0  0  0  0  0  0  0
   -1.7678    5.5185   12.3979 N   0  0  0  0  0  0  0  0  0  0  0  0
    4.3981    5.9187   19.9049 S   0  0  0  0  0  0  0  0  0  0  0  0
    5.8593    5.8376   20.2829 O   0  0  0  0  0  0  0  0  0  0  0  0
    4.0601    7.2297   19.2881 O   0  0  0  0  0  0  0  0  0  0  0  0
    3.4814    5.5712   21.2989 N   0  0  0  0  0  0  0  0  0  0  0  0
    2.8062    4.7934   21.0395 H   0  0  0  0  0  0  0  0  0  0  0  0
    4.3008    5.1545   22.4187 C   0  0  0  0  0  0  0  0  0  0  0  0
    3.6753    4.0522   23.2099 C   0  0  0  0  0  0  0  0  0  0  0  0
    4.4378    2.7709   23.1552 C   0  0  0  0  0  0  0  0  0  0  0  0
    3.7345    1.6452   22.4685 C   0  0  0  0  0  0  0  0  0  0  0  0
    5.7567    3.0144   22.4627 C   0  0  0  0  0  0  0  0  0  0  0  0
    4.7343    2.3598   24.4562 O   0  0  0  0  0  0  0  0  0  0  0  0
    5.6191    1.9477   24.5189 H   0  0  0  0  0  0  0  0  0  0  0  0
 17 18  1  0  0  0
 18 19  1  0  0  0
 19 20  2  0  0  0
 20  8  1  0  0  0
  8  9  2  0  0  0
  9 10  1  0  0  0
 10  1  1  0  0  0
  1  2  2  0  0  0
  2  3  1  0  0  0
  3 23  1  0  0  0
 23 24  2  0  0  0
 23 25  2  0  0  0
 23 26  1  0  0  0
 26 28  1  0  0  0
 28 29  1  0  0  0
 29 30  1  0  0  0
 30 31  1  0  0  0
 30 32  1  0  0  0
 30 33  1  0  0  0
  3  4  2  0  0  0
  4  5  1  0  0  0
  5  6  2  0  0  0
  6  7  1  0  0  0
 10 11  2  0  0  0
 11 12  1  0  0  0
 12 13  2  0  0  0
 13 14  1  0  0  0
 20 21  1  0  0  0
 21 22  1  0  0  0
 22 18  2  0  0  0
 13  8  1  0  0  0
  6  1  1  0  0  0
 26 27  1  0  0  0
 33 34  1  0  0  0
 14 15  1  0  0  0
 14 16  1  0  0  0
M  END
> <minimizedAffinity>
-8.44099

> <CNNscore>
0.1581440419

> <CNNaffinity>
5.8905038834

> <CNN_VS>
0.9315481186

> <CNNaffinity_variance>
0.3492392898

$$$$
[H]OC(C([H])([H])[H])(C([H])([H])[H])C([H])([H])C([H])([H])N([H])S(=O)(=O)c1c([H])c([H])c(C([H])([H])[H])c(-c2c([H])nc(N([H])[H])c(-c3onc(C([H])([H])[H])c3[H])c2[H])c1[H]


 34 36  0  0  0  0  0  0  0  0999 V2000
    3.6845    2.0449   17.7236 C   0  0  0  0  0  0  0  0  0  0  0  0
    3.7262    3.0353   16.7351 C   0  0  0  0  0  0  0  0  0  0  0  0
    3.1477    2.8500   15.4971 C   0  0  0  0  0  0  0  0  0  0  0  0
    2.5084    1.6736   15.2006 C   0  0  0  0  0  0  0  0  0  0  0  0
    2.4529    0.6828   16.1562 C   0  0  0  0  0  0  0  0  0  0  0  0
    3.0447    0.8766   17.4189 C   0  0  0  0  0  0  0  0  0  0  0  0
    2.9538   -0.2018   18.4392 C   0  0  0  0  0  0  0  0  0  0  0  0
    5.2068    3.7222   20.6810 C   0  0  0  0  0  0  0  0  0  0  0  0
    4.5799    3.5430   19.4394 C   0  0  0  0  0  0  0  0  0  0  0  0
    4.3186    2.2558   19.0199 C   0  0  0  0  0  0  0  0  0  0  0  0
    4.6869    1.2084   19.8417 C   0  0  0  0  0  0  0  0  0  0  0  0
    5.2841    1.3959   21.0235 N   0  0  0  0  0  0  0  0  0  0  0  0
    5.5492    2.6628   21.4526 C   0  0  0  0  0  0  0  0  0  0  0  0
    6.1808    2.8140   22.7064 N   0  0  0  0  0  0  0  0  0  0  0  0
    7.2194    2.8337   22.8302 H   0  0  0  0  0  0  0  0  0  0  0  0
    5.6138    2.9129   23.5659 H   0  0  0  0  0  0  0  0  0  0  0  0
    4.9134    8.7177   21.5240 C   0  0  0  0  0  0  0  0  0  0  0  0
    5.3663    7.2956   21.4537 C   0  0  0  0  0  0  0  0  0  0  0  0
    4.6561    6.2058   20.9143 C   0  0  0  0  0  0  0  0  0  0  0  0
    5.4563    5.1172   21.0686 C   0  0  0  0  0  0  0  0  0  0  0  0
    6.5734    5.5186   21.6604 O   0  0  0  0  0  0  0  0  0  0  0  0
    6.5190    6.7733   21.8810 N   0  0  0  0  0  0  0  0  0  0  0  0
    3.2350    4.1379   14.2941 S   0  0  0  0  0  0  0  0  0  0  0  0
    3.8523    3.5342   13.0535 O   0  0  0  0  0  0  0  0  0  0  0  0
    1.8663    4.6583   14.0317 O   0  0  0  0  0  0  0  0  0  0  0  0
    4.3078    5.3242   14.8828 N   0  0  0  0  0  0  0  0  0  0  0  0
    4.8587    5.6845   14.0492 H   0  0  0  0  0  0  0  0  0  0  0  0
    3.6244    6.4254   15.5304 C   0  0  0  0  0  0  0  0  0  0  0  0
    4.0714    6.6293   16.9414 C   0  0  0  0  0  0  0  0  0  0  0  0
    5.4183    7.2611   17.0557 C   0  0  0  0  0  0  0  0  0  0  0  0
    5.4583    8.5256   17.8511 C   0  0  0  0  0  0  0  0  0  0  0  0
    6.3745    6.2690   17.6719 C   0  0  0  0  0  0  0  0  0  0  0  0
    5.8996    7.5452   15.7761 O   0  0  0  0  0  0  0  0  0  0  0  0
    6.8643    7.3998   15.7056 H   0  0  0  0  0  0  0  0  0  0  0  0
 17 18  1  0  0  0
 18 19  1  0  0  0
 19 20  2  0  0  0
 20  8  1  0  0  0
  8  9  2  0  0  0
  9 10  1  0  0  0
 10  1  1  0  0  0
  1  2  2  0  0  0
  2  3  1  0  0  0
  3 23  1  0  0  0
 23 24  2  0  0  0
 23 25  2  0  0  0
 23 26  1  0  0  0
 26 28  1  0  0  0
 28 29  1  0  0  0
 29 30  1  0  0  0
 30 31  1  0  0  0
 30 32  1  0  0  0
 30 33  1  0  0  0
  3  4  2  0  0  0
  4  5  1  0  0  0
  5  6  2  0  0  0
  6  7  1  0  0  0
 10 11  2  0  0  0
 11 12  1  0  0  0
 12 13  2  0  0  0
 13 14  1  0  0  0
 20 21  1  0  0  0
 21 22  1  0  0  0
 22 18  2  0  0  0
 13  8  1  0  0  0
  6  1  1  0  0  0
 26 27  1  0  0  0
 33 34  1  0  0  0
 14 15  1  0  0  0
 14 16  1  0  0  0
M  END
> <minimizedAffinity>
-8.44540

> <CNNscore>
0.1340975165

> <CNNaffinity>
6.1319041252

> <CNN_VS>
0.8222731352

> <CNNaffinity_variance>
0.3104352653

$$$$
[H]OC(C([H])([H])[H])(C([H])([H])[H])C([H])([H])C([H])([H])N([H])S(=O)(=O)c1c([H])c([H])c(C([H])([H])[H])c(-c2c([H])nc(N([H])[H])c(-c3onc(C([H])([H])[H])c3[H])c2[H])c1[H]


 34 36  0  0  0  0  0  0  0  0999 V2000
   -0.4309    5.1655   12.1652 C   0  0  0  0  0  0  0  0  0  0  0  0
   -0.5111    4.3466   11.0325 C   0  0  0  0  0  0  0  0  0  0  0  0
   -1.6870    4.1947   10.3286 C   0  0  0  0  0  0  0  0  0  0  0  0
   -2.8227    4.8519   10.7273 C   0  0  0  0  0  0  0  0  0  0  0  0
   -2.7704    5.6642   11.8387 C   0  0  0  0  0  0  0  0  0  0  0  0
   -1.5675    5.8166   12.5542 C   0  0  0  0  0  0  0  0  0  0  0  0
   -1.5335    6.7146   13.7394 C   0  0  0  0  0  0  0  0  0  0  0  0
    2.3636    4.4806   14.5314 C   0  0  0  0  0  0  0  0  0  0  0  0
    1.1664    4.3244   13.8179 C   0  0  0  0  0  0  0  0  0  0  0  0
    0.8191    5.2975   12.9048 C   0  0  0  0  0  0  0  0  0  0  0  0
    1.6658    6.3761   12.7385 C   0  0  0  0  0  0  0  0  0  0  0  0
    2.8046    6.5105   13.4267 N   0  0  0  0  0  0  0  0  0  0  0  0
    3.1623    5.5567   14.3333 C   0  0  0  0  0  0  0  0  0  0  0  0
    4.3727    5.7391   15.0373 N   0  0  0  0  0  0  0  0  0  0  0  0
    4.4400    6.2560   15.9443 H   0  0  0  0  0  0  0  0  0  0  0  0
    5.2559    5.3531   14.6619 H   0  0  0  0  0  0  0  0  0  0  0  0
    2.9834    0.0404   16.9088 C   0  0  0  0  0  0  0  0  0  0  0  0
    2.9612    1.4926   16.5577 C   0  0  0  0  0  0  0  0  0  0  0  0
    2.5030    2.0670   15.3564 C   0  0  0  0  0  0  0  0  0  0  0  0
    2.6750    3.4095   15.4875 C   0  0  0  0  0  0  0  0  0  0  0  0
    3.2009    3.6336   16.6844 O   0  0  0  0  0  0  0  0  0  0  0  0
    3.3646    2.5282   17.2986 N   0  0  0  0  0  0  0  0  0  0  0  0
   -1.7223    3.1476    8.9087 S   0  0  0  0  0  0  0  0  0  0  0  0
   -3.0791    3.3283    8.2676 O   0  0  0  0  0  0  0  0  0  0  0  0
   -0.6208    3.5336    7.9864 O   0  0  0  0  0  0  0  0  0  0  0  0
   -1.6155    1.5356    9.4517 N   0  0  0  0  0  0  0  0  0  0  0  0
   -2.4655    1.0241    9.0721 H   0  0  0  0  0  0  0  0  0  0  0  0
   -0.4066    0.8733    9.0058 C   0  0  0  0  0  0  0  0  0  0  0  0
    0.5088    0.5267   10.1346 C   0  0  0  0  0  0  0  0  0  0  0  0
    1.8025    1.2695   10.1040 C   0  0  0  0  0  0  0  0  0  0  0  0
    2.2225    1.8622   11.4100 C   0  0  0  0  0  0  0  0  0  0  0  0
    2.8895    0.3410    9.6197 C   0  0  0  0  0  0  0  0  0  0  0  0
    1.7120    2.3062    9.1731 O   0  0  0  0  0  0  0  0  0  0  0  0
    2.5512    2.4394    8.6885 H   0  0  0  0  0  0  0  0  0  0  0  0
 17 18  1  0  0  0
 18 19  1  0  0  0
 19 20  2  0  0  0
 20  8  1  0  0  0
  8  9  2  0  0  0
  9 10  1  0  0  0
 10  1  1  0  0  0
  1  2  2  0  0  0
  2  3  1  0  0  0
  3 23  1  0  0  0
 23 24  2  0  0  0
 23 25  2  0  0  0
 23 26  1  0  0  0
 26 28  1  0  0  0
 28 29  1  0  0  0
 29 30  1  0  0  0
 30 31  1  0  0  0
 30 32  1  0  0  0
 30 33  1  0  0  0
  3  4  2  0  0  0
  4  5  1  0  0  0
  5  6  2  0  0  0
  6  7  1  0  0  0
 10 11  2  0  0  0
 11 12  1  0  0  0
 12 13  2  0  0  0
 13 14  1  0  0  0
 20 21  1  0  0  0
 21 22  1  0  0  0
 22 18  2  0  0  0
 13  8  1  0  0  0
  6  1  1  0  0  0
 26 27  1  0  0  0
 33 34  1  0  0  0
 14 15  1  0  0  0
 14 16  1  0  0  0
M  END
> <minimizedAffinity>
-6.04474

> <CNNscore>
0.1206501499

> <CNNaffinity>
5.4364585876

> <CNN_VS>
0.6559095383

> <CNNaffinity_variance>
0.1666153669

$$$$
[H]OC(C([H])([H])[H])(C([H])([H])[H])C([H])([H])C([H])([H])N([H])S(=O)(=O)c1c([H])c([H])c(C([H])([H])[H])c(-c2c([H])nc(N([H])[H])c(-c3onc(C([H])([H])[H])c3[H])c2[H])c1[H]


 34 36  0  0  0  0  0  0  0  0999 V2000
    3.3635    3.2891   16.0025 C   0  0  0  0  0  0  0  0  0  0  0  0
    3.8241    4.5176   16.4909 C   0  0  0  0  0  0  0  0  0  0  0  0
    4.5992    4.6019   17.6282 C   0  0  0  0  0  0  0  0  0  0  0  0
    4.9423    3.4675   18.3181 C   0  0  0  0  0  0  0  0  0  0  0  0
    4.5022    2.2457   17.8582 C   0  0  0  0  0  0  0  0  0  0  0  0
    3.7112    2.1645   16.6963 C   0  0  0  0  0  0  0  0  0  0  0  0
    3.2651    0.8313   16.2105 C   0  0  0  0  0  0  0  0  0  0  0  0
    1.5878    4.2663   12.8769 C   0  0  0  0  0  0  0  0  0  0  0  0
    2.4088    4.3443   14.0112 C   0  0  0  0  0  0  0  0  0  0  0  0
    2.5300    3.2251   14.8074 C   0  0  0  0  0  0  0  0  0  0  0  0
    1.8378    2.0847   14.4493 C   0  0  0  0  0  0  0  0  0  0  0  0
    1.0586    2.0262   13.3639 N   0  0  0  0  0  0  0  0  0  0  0  0
    0.9284    3.1245   12.5662 C   0  0  0  0  0  0  0  0  0  0  0  0
    0.0958    3.0179   11.4308 N   0  0  0  0  0  0  0  0  0  0  0  0
   -0.9288    3.2288   11.4452 H   0  0  0  0  0  0  0  0  0  0  0  0
    0.4903    2.7181   10.5228 H   0  0  0  0  0  0  0  0  0  0  0  0
    2.4640    8.1620    9.7453 C   0  0  0  0  0  0  0  0  0  0  0  0
    1.8464    7.2069   10.7143 C   0  0  0  0  0  0  0  0  0  0  0  0
    2.4267    6.0343   11.2350 C   0  0  0  0  0  0  0  0  0  0  0  0
    1.5022    5.4924   12.0720 C   0  0  0  0  0  0  0  0  0  0  0  0
    0.4357    6.2810   12.0597 O   0  0  0  0  0  0  0  0  0  0  0  0
    0.6366    7.2675   11.2772 N   0  0  0  0  0  0  0  0  0  0  0  0
    5.1481    6.1812   18.1922 S   0  0  0  0  0  0  0  0  0  0  0  0
    6.3588    6.5433   17.3630 O   0  0  0  0  0  0  0  0  0  0  0  0
    4.0499    7.1709   18.0260 O   0  0  0  0  0  0  0  0  0  0  0  0
    5.6598    6.0046   19.8082 N   0  0  0  0  0  0  0  0  0  0  0  0
    6.5012    6.6398   19.9378 H   0  0  0  0  0  0  0  0  0  0  0  0
    4.6293    6.3568   20.7637 C   0  0  0  0  0  0  0  0  0  0  0  0
    3.9291    5.1604   21.3211 C   0  0  0  0  0  0  0  0  0  0  0  0
    4.5591    4.6245   22.5630 C   0  0  0  0  0  0  0  0  0  0  0  0
    3.6003    4.1098   23.5872 C   0  0  0  0  0  0  0  0  0  0  0  0
    5.5129    3.5159   22.1897 C   0  0  0  0  0  0  0  0  0  0  0  0
    5.3222    5.6307   23.1588 O   0  0  0  0  0  0  0  0  0  0  0  0
    6.1447    5.2814   23.5566 H   0  0  0  0  0  0  0  0  0  0  0  0
 17 18  1  0  0  0
 18 19  1  0  0  0
 19 20  2  0  0  0
 20  8  1  0  0  0
  8  9  2  0  0  0
  9 10  1  0  0  0
 10  1  1  0  0  0
  1  2  2  0  0  0
  2  3  1  0  0  0
  3 23  1  0  0  0
 23 24  2  0  0  0
 23 25  2  0  0  0
 23 26  1  0  0  0
 26 28  1  0  0  0
 28 29  1  0  0  0
 29 30  1  0  0  0
 30 31  1  0  0  0
 30 32  1  0  0  0
 30 33  1  0  0  0
  3  4  2  0  0  0
  4  5  1  0  0  0
  5  6  2  0  0  0
  6  7  1  0  0  0
 10 11  2  0  0  0
 11 12  1  0  0  0
 12 13  2  0  0  0
 13 14  1  0  0  0
 20 21  1  0  0  0
 21 22  1  0  0  0
 22 18  2  0  0  0
 13  8  1  0  0  0
  6  1  1  0  0  0
 26 27  1  0  0  0
 33 34  1  0  0  0
 14 15  1  0  0  0
 14 16  1  0  0  0
M  END
> <minimizedAffinity>
-7.88587

> <CNNscore>
0.1159324646

> <CNNaffinity>
5.7265825272

> <CNN_VS>
0.6638967991

> <CNNaffinity_variance>
0.2726724148

$$$$
[H]OC(C([H])([H])[H])(C([H])([H])[H])C([H])([H])C([H])([H])N([H])S(=O)(=O)c1c([H])c([H])c(C([H])([H])[H])c(-c2c([H])nc(N([H])[H])c(-c3onc(C([H])([H])[H])c3[H])c2[H])c1[H]


 34 36  0  0  0  0  0  0  0  0999 V2000
    4.0335    2.9629   17.5719 C   0  0  0  0  0  0  0  0  0  0  0  0
    4.2064    2.4974   18.8809 C   0  0  0  0  0  0  0  0  0  0  0  0
    3.9622    1.1839   19.2222 C   0  0  0  0  0  0  0  0  0  0  0  0
    3.5379    0.2892   18.2736 C   0  0  0  0  0  0  0  0  0  0  0  0
    3.3602    0.7219   16.9777 C   0  0  0  0  0  0  0  0  0  0  0  0
    3.6111    2.0639   16.6337 C   0  0  0  0  0  0  0  0  0  0  0  0
    3.4298    2.5005   15.2235 C   0  0  0  0  0  0  0  0  0  0  0  0
    5.5426    6.3683   17.5129 C   0  0  0  0  0  0  0  0  0  0  0  0
    5.3341    5.0194   17.8352 C   0  0  0  0  0  0  0  0  0  0  0  0
    4.2807    4.3608   17.2372 C   0  0  0  0  0  0  0  0  0  0  0  0
    3.4841    5.0608   16.3521 C   0  0  0  0  0  0  0  0  0  0  0  0
    3.6962    6.3473   16.0549 N   0  0  0  0  0  0  0  0  0  0  0  0
    4.7339    7.0128   16.6378 C   0  0  0  0  0  0  0  0  0  0  0  0
    4.9207    8.3698   16.2950 N   0  0  0  0  0  0  0  0  0  0  0  0
    4.4665    9.1615   16.8062 H   0  0  0  0  0  0  0  0  0  0  0  0
    5.5330    8.6264   15.5018 H   0  0  0  0  0  0  0  0  0  0  0  0
    9.2539    7.6974   20.7083 C   0  0  0  0  0  0  0  0  0  0  0  0
    8.3108    7.6215   19.5518 C   0  0  0  0  0  0  0  0  0  0  0  0
    7.2634    6.6977   19.3719 C   0  0  0  0  0  0  0  0  0  0  0  0
    6.6807    7.0108   18.1838 C   0  0  0  0  0  0  0  0  0  0  0  0
    7.3295    8.0516   17.6785 O   0  0  0  0  0  0  0  0  0  0  0  0
    8.2676    8.4012   18.4682 N   0  0  0  0  0  0  0  0  0  0  0  0
    4.1994    0.6597   20.8904 S   0  0  0  0  0  0  0  0  0  0  0  0
    3.5238   -0.6857   21.0245 O   0  0  0  0  0  0  0  0  0  0  0  0
    5.6569    0.5759   21.1762 O   0  0  0  0  0  0  0  0  0  0  0  0
    3.3748    1.7575   21.9001 N   0  0  0  0  0  0  0  0  0  0  0  0
    2.5813    1.2205   22.3586 H   0  0  0  0  0  0  0  0  0  0  0  0
    4.2296    2.3320   22.9190 C   0  0  0  0  0  0  0  0  0  0  0  0
    3.9221    3.7699   23.1836 C   0  0  0  0  0  0  0  0  0  0  0  0
    4.7790    4.7158   22.4107 C   0  0  0  0  0  0  0  0  0  0  0  0
    6.0075    4.1111   21.8119 C   0  0  0  0  0  0  0  0  0  0  0  0
    3.9550    5.3346   21.3079 C   0  0  0  0  0  0  0  0  0  0  0  0
    5.1802    5.7579   23.2490 O   0  0  0  0  0  0  0  0  0  0  0  0
    5.2100    6.6159   22.7803 H   0  0  0  0  0  0  0  0  0  0  0  0
 17 18  1  0  0  0
 18 19  1  0  0  0
 19 20  2  0  0  0
 20  8  1  0  0  0
  8  9  2  0  0  0
  9 10  1  0  0  0
 10  1  1  0  0  0
  1  2  2  0  0  0
  2  3  1  0  0  0
  3 23  1  0  0  0
 23 24  2  0  0  0
 23 25  2  0  0  0
 23 26  1  0  0  0
 26 28  1  0  0  0
 28 29  1  0  0  0
 29 30  1  0  0  0
 30 31  1  0  0  0
 30 32  1  0  0  0
 30 33  1  0  0  0
  3  4  2  0  0  0
  4  5  1  0  0  0
  5  6  2  0  0  0
  6  7  1  0  0  0
 10 11  2  0  0  0
 11 12  1  0  0  0
 12 13  2  0  0  0
 13 14  1  0  0  0
 20 21  1  0  0  0
 21 22  1  0  0  0
 22 18  2  0  0  0
 13  8  1  0  0  0
  6  1  1  0  0  0
 26 27  1  0  0  0
 33 34  1  0  0  0
 14 15  1  0  0  0
 14 16  1  0  0  0
M  END
> <minimizedAffinity>
-8.43754

> <CNNscore>
0.1029890627

> <CNNaffinity>
6.0480775833

> <CNN_VS>
0.6228858232

> <CNNaffinity_variance>
0.4400131106

$$$$
[H]/C(=C(/[H])c1c([H])c(OC([H])([H])[H])c([H])c(OC([H])([H])[H])c1[H])c1c([H])c([H])c(OC([H])([H])C([H])([H])[H])c([H])c1[H]


 21 22  0  0  0  0  0  0  0  0999 V2000
    2.7930    2.5618   13.7116 C   0  0  0  0  0  0  0  0  0  0  0  0
    2.6318    1.6241   14.6154 C   0  0  0  0  0  0  0  0  0  0  0  0
    1.1576    2.4157    9.7730 C   0  0  0  0  0  0  0  0  0  0  0  0
    0.6481    3.2616   10.7302 C   0  0  0  0  0  0  0  0  0  0  0  0
    1.1949    3.2931   12.0046 C   0  0  0  0  0  0  0  0  0  0  0  0
    2.2542    2.4893   12.3544 C   0  0  0  0  0  0  0  0  0  0  0  0
    2.7635    1.6444   11.3993 C   0  0  0  0  0  0  0  0  0  0  0  0
    2.2172    1.6085   10.1154 C   0  0  0  0  0  0  0  0  0  0  0  0
    0.6437    2.3484    8.4830 O   0  0  0  0  0  0  0  0  0  0  0  0
    0.4496    0.4743    6.9959 C   0  0  0  0  0  0  0  0  0  0  0  0
    1.3333    1.5895    7.5182 C   0  0  0  0  0  0  0  0  0  0  0  0
    3.1831    1.7308   15.9577 C   0  0  0  0  0  0  0  0  0  0  0  0
    2.8043    0.7663   16.8962 C   0  0  0  0  0  0  0  0  0  0  0  0
    3.2620    0.7673   18.1930 C   0  0  0  0  0  0  0  0  0  0  0  0
    4.1323    1.7583   18.5943 C   0  0  0  0  0  0  0  0  0  0  0  0
    4.5063    2.7071   17.6748 C   0  0  0  0  0  0  0  0  0  0  0  0
    4.0443    2.7053   16.3672 C   0  0  0  0  0  0  0  0  0  0  0  0
    2.8199   -0.2366   19.0348 O   0  0  0  0  0  0  0  0  0  0  0  0
    2.9365   -0.2176   20.4313 C   0  0  0  0  0  0  0  0  0  0  0  0
    5.3845    3.6967   18.1011 O   0  0  0  0  0  0  0  0  0  0  0  0
    5.1840    4.4933   19.2329 C   0  0  0  0  0  0  0  0  0  0  0  0
 10 11  1  0  0  0
 11  9  1  0  0  0
  9  3  1  0  0  0
  3  4  2  0  0  0
  4  5  1  0  0  0
  5  6  2  0  0  0
  6  1  1  0  0  0
  1  2  2  0  0  0
  2 12  1  0  0  0
 12 13  2  0  0  0
 13 14  1  0  0  0
 14 18  1  0  0  0
 18 19  1  0  0  0
 14 15  2  0  0  0
 15 16  1  0  0  0
 16 20  1  0  0  0
 20 21  1  0  0  0
 16 17  2  0  0  0
  6  7  1  0  0  0
  7  8  2  0  0  0
  8  3  1  0  0  0
 17 12  1  0  0  0
M  END
> <minimizedAffinity>
-5.32733

> <CNNscore>
0.6330285072

> <CNNaffinity>
5.1608262062

> <CNN_VS>
3.2669501305

> <CNNaffinity_variance>
0.2992131114

$$$$
[H]/C(=C(/[H])c1c([H])c(OC([H])([H])[H])c([H])c(OC([H])([H])[H])c1[H])c1c([H])c([H])c(OC([H])([H])C([H])([H])[H])c([H])c1[H]


 21 22  0  0  0  0  0  0  0  0999 V2000
    0.0577    1.9889    9.6197 C   0  0  0  0  0  0  0  0  0  0  0  0
    0.6152    2.6311   10.6190 C   0  0  0  0  0  0  0  0  0  0  0  0
    0.4318   -2.2016    8.9064 C   0  0  0  0  0  0  0  0  0  0  0  0
   -0.7938   -1.5778    8.8899 C   0  0  0  0  0  0  0  0  0  0  0  0
   -0.8928   -0.2143    9.1244 C   0  0  0  0  0  0  0  0  0  0  0  0
    0.2176    0.5557    9.3791 C   0  0  0  0  0  0  0  0  0  0  0  0
    1.4416   -0.0663    9.3958 C   0  0  0  0  0  0  0  0  0  0  0  0
    1.5471   -1.4380    9.1605 C   0  0  0  0  0  0  0  0  0  0  0  0
    0.5815   -3.5646    8.6773 O   0  0  0  0  0  0  0  0  0  0  0  0
    1.6850   -5.0911   10.1652 C   0  0  0  0  0  0  0  0  0  0  0  0
    0.3735   -4.4576    9.7458 C   0  0  0  0  0  0  0  0  0  0  0  0
    0.4335    4.0597   10.8272 C   0  0  0  0  0  0  0  0  0  0  0  0
    0.5452    4.5473   12.1327 C   0  0  0  0  0  0  0  0  0  0  0  0
    0.3932    5.8772   12.4477 C   0  0  0  0  0  0  0  0  0  0  0  0
    0.1185    6.7762   11.4393 C   0  0  0  0  0  0  0  0  0  0  0  0
    0.0082    6.3005   10.1559 C   0  0  0  0  0  0  0  0  0  0  0  0
    0.1617    4.9590    9.8391 C   0  0  0  0  0  0  0  0  0  0  0  0
    0.5252    6.2462   13.7738 O   0  0  0  0  0  0  0  0  0  0  0  0
    1.5397    5.7980   14.6306 C   0  0  0  0  0  0  0  0  0  0  0  0
   -0.2690    7.2244    9.1550 O   0  0  0  0  0  0  0  0  0  0  0  0
    0.0430    7.0397    7.8043 C   0  0  0  0  0  0  0  0  0  0  0  0
 10 11  1  0  0  0
 11  9  1  0  0  0
  9  3  1  0  0  0
  3  4  2  0  0  0
  4  5  1  0  0  0
  5  6  2  0  0  0
  6  1  1  0  0  0
  1  2  2  0  0  0
  2 12  1  0  0  0
 12 13  2  0  0  0
 13 14  1  0  0  0
 14 18  1  0  0  0
 18 19  1  0  0  0
 14 15  2  0  0  0
 15 16  1  0  0  0
 16 20  1  0  0  0
 20 21  1  0  0  0
 16 17  2  0  0  0
  6  7  1  0  0  0
  7  8  2  0  0  0
  8  3  1  0  0  0
 17 12  1  0  0  0
M  END
> <minimizedAffinity>
-3.70075

> <CNNscore>
0.5679038763

> <CNNaffinity>
4.4826602936

> <CNN_VS>
2.5457201004

> <CNNaffinity_variance>
0.4254383445

$$$$
[H]/C(=C(/[H])c1c([H])c(OC([H])([H])[H])c([H])c(OC([H])([H])[H])c1[H])c1c([H])c([H])c(OC([H])([H])C([H])([H])[H])c([H])c1[H]


 21 22  0  0  0  0  0  0  0  0999 V2000
    4.7417    4.0085   19.0481 C   0  0  0  0  0  0  0  0  0  0  0  0
    5.0740    3.6228   17.8386 C   0  0  0  0  0  0  0  0  0  0  0  0
    7.0466    6.6391   21.4928 C   0  0  0  0  0  0  0  0  0  0  0  0
    6.4114    5.5402   22.0223 C   0  0  0  0  0  0  0  0  0  0  0  0
    5.6671    4.6980   21.2093 C   0  0  0  0  0  0  0  0  0  0  0  0
    5.5380    4.9276   19.8599 C   0  0  0  0  0  0  0  0  0  0  0  0
    6.1719    6.0246   19.3305 C   0  0  0  0  0  0  0  0  0  0  0  0
    6.9221    6.8754   20.1437 C   0  0  0  0  0  0  0  0  0  0  0  0
    7.8033    7.5117   22.2666 O   0  0  0  0  0  0  0  0  0  0  0  0
    6.4766    9.4045   22.9137 C   0  0  0  0  0  0  0  0  0  0  0  0
    7.1922    8.1468   23.3646 C   0  0  0  0  0  0  0  0  0  0  0  0
    4.2559    2.7058   17.0596 C   0  0  0  0  0  0  0  0  0  0  0  0
    3.7901    1.5496   17.6926 C   0  0  0  0  0  0  0  0  0  0  0  0
    3.0101    0.6131   17.0556 C   0  0  0  0  0  0  0  0  0  0  0  0
    2.6674    0.8145   15.7356 C   0  0  0  0  0  0  0  0  0  0  0  0
    3.1232    1.9492   15.1109 C   0  0  0  0  0  0  0  0  0  0  0  0
    3.9098    2.8931   15.7542 C   0  0  0  0  0  0  0  0  0  0  0  0
    2.6068   -0.4929   17.7809 O   0  0  0  0  0  0  0  0  0  0  0  0
    2.3522   -0.4952   19.1591 C   0  0  0  0  0  0  0  0  0  0  0  0
    2.7655    2.1319   13.7802 O   0  0  0  0  0  0  0  0  0  0  0  0
    1.4471    2.2445   13.3274 C   0  0  0  0  0  0  0  0  0  0  0  0
 10 11  1  0  0  0
 11  9  1  0  0  0
  9  3  1  0  0  0
  3  4  2  0  0  0
  4  5  1  0  0  0
  5  6  2  0  0  0
  6  1  1  0  0  0
  1  2  2  0  0  0
  2 12  1  0  0  0
 12 13  2  0  0  0
 13 14  1  0  0  0
 14 18  1  0  0  0
 18 19  1  0  0  0
 14 15  2  0  0  0
 15 16  1  0  0  0
 16 20  1  0  0  0
 20 21  1  0  0  0
 16 17  2  0  0  0
  6  7  1  0  0  0
  7  8  2  0  0  0
  8  3  1  0  0  0
 17 12  1  0  0  0
M  END
> <minimizedAffinity>
-6.62355

> <CNNscore>
0.5643964410

> <CNNaffinity>
5.2176971436

> <CNN_VS>
2.9448497295

> <CNNaffinity_variance>
0.5617676377

$$$$
[H]/C(=C(/[H])c1c([H])c(OC([H])([H])[H])c([H])c(OC([H])([H])[H])c1[H])c1c([H])c([H])c(OC([H])([H])C([H])([H])[H])c([H])c1[H]


 21 22  0  0  0  0  0  0  0  0999 V2000
    2.8157    4.1228   13.5995 C   0  0  0  0  0  0  0  0  0  0  0  0
    3.1870    2.8873   13.8397 C   0  0  0  0  0  0  0  0  0  0  0  0
    2.2963    5.6946    9.6664 C   0  0  0  0  0  0  0  0  0  0  0  0
    3.5165    5.2290   10.0974 C   0  0  0  0  0  0  0  0  0  0  0  0
    3.6633    4.7221   11.3802 C   0  0  0  0  0  0  0  0  0  0  0  0
    2.6068    4.6667   12.2585 C   0  0  0  0  0  0  0  0  0  0  0  0
    1.3882    5.1313   11.8290 C   0  0  0  0  0  0  0  0  0  0  0  0
    1.2348    5.6425   10.5394 C   0  0  0  0  0  0  0  0  0  0  0  0
    2.1000    6.2114    8.3909 O   0  0  0  0  0  0  0  0  0  0  0  0
    2.4569    8.5796    8.5515 C   0  0  0  0  0  0  0  0  0  0  0  0
    1.4729    7.4649    8.2573 C   0  0  0  0  0  0  0  0  0  0  0  0
    3.3852    2.3804   15.1891 C   0  0  0  0  0  0  0  0  0  0  0  0
    4.2615    3.0787   16.0253 C   0  0  0  0  0  0  0  0  0  0  0  0
    4.5254    2.6923   17.3184 C   0  0  0  0  0  0  0  0  0  0  0  0
    3.9039    1.5690   17.8208 C   0  0  0  0  0  0  0  0  0  0  0  0
    3.0426    0.8810   17.0021 C   0  0  0  0  0  0  0  0  0  0  0  0
    2.7770    1.2713   15.6981 C   0  0  0  0  0  0  0  0  0  0  0  0
    5.4100    3.4594   18.0540 O   0  0  0  0  0  0  0  0  0  0  0  0
    5.8743    4.7266   17.6761 C   0  0  0  0  0  0  0  0  0  0  0  0
    2.4271   -0.2483   17.5293 O   0  0  0  0  0  0  0  0  0  0  0  0
    2.2694   -0.4931   18.8972 C   0  0  0  0  0  0  0  0  0  0  0  0
 10 11  1  0  0  0
 11  9  1  0  0  0
  9  3  1  0  0  0
  3  4  2  0  0  0
  4  5  1  0  0  0
  5  6  2  0  0  0
  6  1  1  0  0  0
  1  2  2  0  0  0
  2 12  1  0  0  0
 12 13  2  0  0  0
 13 14  1  0  0  0
 14 18  1  0  0  0
 18 19  1  0  0  0
 14 15  2  0  0  0
 15 16  1  0  0  0
 16 20  1  0  0  0
 20 21  1  0  0  0
 16 17  2  0  0  0
  6  7  1  0  0  0
  7  8  2  0  0  0
  8  3  1  0  0  0
 17 12  1  0  0  0
M  END
> <minimizedAffinity>
-5.23463

> <CNNscore>
0.5638312697

> <CNNaffinity>
4.9931659698

> <CNN_VS>
2.8153030872

> <CNNaffinity_variance>
0.4771637321

$$$$
[H]/C(=C(/[H])c1c([H])c(OC([H])([H])[H])c([H])c(OC([H])([H])[H])c1[H])c1c([H])c([H])c(OC([H])([H])C([H])([H])[H])c([H])c1[H]


 21 22  0  0  0  0  0  0  0  0999 V2000
    1.0809    3.3121    9.6260 C   0  0  0  0  0  0  0  0  0  0  0  0
    0.5286    3.4433   10.8091 C   0  0  0  0  0  0  0  0  0  0  0  0
    4.6179    1.0228    8.9494 C   0  0  0  0  0  0  0  0  0  0  0  0
    3.6035    0.5553    9.7519 C   0  0  0  0  0  0  0  0  0  0  0  0
    2.4621    1.3160    9.9584 C   0  0  0  0  0  0  0  0  0  0  0  0
    2.3040    2.5512    9.3754 C   0  0  0  0  0  0  0  0  0  0  0  0
    3.3163    3.0186    8.5740 C   0  0  0  0  0  0  0  0  0  0  0  0
    4.4669    2.2575    8.3627 C   0  0  0  0  0  0  0  0  0  0  0  0
    5.7800    0.2975    8.7125 O   0  0  0  0  0  0  0  0  0  0  0  0
    5.4947   -0.8106    6.6024 C   0  0  0  0  0  0  0  0  0  0  0  0
    5.6766   -0.9657    8.0991 C   0  0  0  0  0  0  0  0  0  0  0  0
   -0.6903    4.2092   11.0208 C   0  0  0  0  0  0  0  0  0  0  0  0
   -1.7124    4.0816   10.0754 C   0  0  0  0  0  0  0  0  0  0  0  0
   -2.9067    4.7565   10.1726 C   0  0  0  0  0  0  0  0  0  0  0  0
   -3.1143    5.5974   11.2451 C   0  0  0  0  0  0  0  0  0  0  0  0
   -2.1124    5.7248   12.1754 C   0  0  0  0  0  0  0  0  0  0  0  0
   -0.9082    5.0439   12.0766 C   0  0  0  0  0  0  0  0  0  0  0  0
   -3.8461    4.5535    9.1785 O   0  0  0  0  0  0  0  0  0  0  0  0
   -3.5944    3.9050    7.9617 C   0  0  0  0  0  0  0  0  0  0  0  0
   -2.3433    6.5778   13.2484 O   0  0  0  0  0  0  0  0  0  0  0  0
   -1.4006    6.8698   14.2394 C   0  0  0  0  0  0  0  0  0  0  0  0
 10 11  1  0  0  0
 11  9  1  0  0  0
  9  3  1  0  0  0
  3  4  2  0  0  0
  4  5  1  0  0  0
  5  6  2  0  0  0
  6  1  1  0  0  0
  1  2  2  0  0  0
  2 12  1  0  0  0
 12 13  2  0  0  0
 13 14  1  0  0  0
 14 18  1  0  0  0
 18 19  1  0  0  0
 14 15  2  0  0  0
 15 16  1  0  0  0
 16 20  1  0  0  0
 20 21  1  0  0  0
 16 17  2  0  0  0
  6  7  1  0  0  0
  7  8  2  0  0  0
  8  3  1  0  0  0
 17 12  1  0  0  0
M  END
> <minimizedAffinity>
-3.50360

> <CNNscore>
0.5109688640

> <CNNaffinity>
4.2014327049

> <CNN_VS>
2.1468012333

> <CNNaffinity_variance>
0.1958138198

$$$$
[H]/C(=C(/[H])c1c([H])c(OC([H])([H])[H])c([H])c(OC([H])([H])[H])c1[H])c1c([H])c([H])c(OC([H])([H])C([H])([H])[H])c([H])c1[H]


 21 22  0  0  0  0  0  0  0  0999 V2000
    2.1263    2.6117   10.0507 C   0  0  0  0  0  0  0  0  0  0  0  0
    2.8167    1.5834   10.4840 C   0  0  0  0  0  0  0  0  0  0  0  0
   -0.3677    5.0796   12.4794 C   0  0  0  0  0  0  0  0  0  0  0  0
   -0.7322    4.7301   11.2002 C   0  0  0  0  0  0  0  0  0  0  0  0
    0.0937    3.9267   10.4277 C   0  0  0  0  0  0  0  0  0  0  0  0
    1.2934    3.4553   10.9064 C   0  0  0  0  0  0  0  0  0  0  0  0
    1.6580    3.8039   12.1836 C   0  0  0  0  0  0  0  0  0  0  0  0
    0.8310    4.6120   12.9652 C   0  0  0  0  0  0  0  0  0  0  0  0
   -1.1613    5.8819   13.2914 O   0  0  0  0  0  0  0  0  0  0  0  0
   -3.0825    7.2220   13.8159 C   0  0  0  0  0  0  0  0  0  0  0  0
   -2.3837    6.3608   12.7827 C   0  0  0  0  0  0  0  0  0  0  0  0
    3.6356    0.7657    9.6022 C   0  0  0  0  0  0  0  0  0  0  0  0
    3.4826   -0.6223    9.6721 C   0  0  0  0  0  0  0  0  0  0  0  0
    4.2025   -1.4925    8.8874 C   0  0  0  0  0  0  0  0  0  0  0  0
    5.1170   -0.9836    7.9901 C   0  0  0  0  0  0  0  0  0  0  0  0
    5.2696    0.3792    7.9190 C   0  0  0  0  0  0  0  0  0  0  0  0
    4.5432    1.2560    8.7106 C   0  0  0  0  0  0  0  0  0  0  0  0
    3.9683   -2.8464    9.0420 O   0  0  0  0  0  0  0  0  0  0  0  0
    2.7056   -3.4215    9.2397 C   0  0  0  0  0  0  0  0  0  0  0  0
    6.1970    0.8702    7.0073 O   0  0  0  0  0  0  0  0  0  0  0  0
    6.9696    2.0181    7.2107 C   0  0  0  0  0  0  0  0  0  0  0  0
 10 11  1  0  0  0
 11  9  1  0  0  0
  9  3  1  0  0  0
  3  4  2  0  0  0
  4  5  1  0  0  0
  5  6  2  0  0  0
  6  1  1  0  0  0
  1  2  2  0  0  0
  2 12  1  0  0  0
 12 13  2  0  0  0
 13 14  1  0  0  0
 14 18  1  0  0  0
 18 19  1  0  0  0
 14 15  2  0  0  0
 15 16  1  0  0  0
 16 20  1  0  0  0
 20 21  1  0  0  0
 16 17  2  0  0  0
  6  7  1  0  0  0
  7  8  2  0  0  0
  8  3  1  0  0  0
 17 12  1  0  0  0
M  END
> <minimizedAffinity>
-3.86832

> <CNNscore>
0.4380095303

> <CNNaffinity>
4.0585961342

> <CNN_VS>
1.7777037621

> <CNNaffinity_variance>
0.0777273476

$$$$
[H]/C(=C(/[H])c1c([H])c(OC([H])([H])[H])c([H])c(OC([H])([H])[H])c1[H])c1c([H])c([H])c(OC([H])([H])C([H])([H])[H])c([H])c1[H]


 21 22  0  0  0  0  0  0  0  0999 V2000
    4.8993    4.0941   19.3279 C   0  0  0  0  0  0  0  0  0  0  0  0
    5.1550    3.8273   18.0688 C   0  0  0  0  0  0  0  0  0  0  0  0
    7.1816    6.8773   21.6201 C   0  0  0  0  0  0  0  0  0  0  0  0
    6.9290    7.0849   20.2842 C   0  0  0  0  0  0  0  0  0  0  0  0
    6.1847    6.1671   19.5577 C   0  0  0  0  0  0  0  0  0  0  0  0
    5.6776    5.0290   20.1390 C   0  0  0  0  0  0  0  0  0  0  0  0
    5.9292    4.8210   21.4728 C   0  0  0  0  0  0  0  0  0  0  0  0
    6.6775    5.7411   22.2086 C   0  0  0  0  0  0  0  0  0  0  0  0
    7.9217    7.7678   22.3895 O   0  0  0  0  0  0  0  0  0  0  0  0
    6.4058    9.5362   22.9694 C   0  0  0  0  0  0  0  0  0  0  0  0
    7.2924    8.4138   23.4707 C   0  0  0  0  0  0  0  0  0  0  0  0
    4.3579    2.8901   17.2921 C   0  0  0  0  0  0  0  0  0  0  0  0
    4.1006    3.2057   15.9546 C   0  0  0  0  0  0  0  0  0  0  0  0
    3.3600    2.3955   15.1263 C   0  0  0  0  0  0  0  0  0  0  0  0
    2.8448    1.2191   15.6273 C   0  0  0  0  0  0  0  0  0  0  0  0
    3.0958    0.9061   16.9405 C   0  0  0  0  0  0  0  0  0  0  0  0
    3.8428    1.7238   17.7752 C   0  0  0  0  0  0  0  0  0  0  0  0
    3.1693    2.8085   13.8205 O   0  0  0  0  0  0  0  0  0  0  0  0
    2.4556    2.0903   12.8514 C   0  0  0  0  0  0  0  0  0  0  0  0
    2.5667   -0.2847   17.4245 O   0  0  0  0  0  0  0  0  0  0  0  0
    2.2396   -0.5139   18.7648 C   0  0  0  0  0  0  0  0  0  0  0  0
 10 11  1  0  0  0
 11  9  1  0  0  0
  9  3  1  0  0  0
  3  4  2  0  0  0
  4  5  1  0  0  0
  5  6  2  0  0  0
  6  1  1  0  0  0
  1  2  2  0  0  0
  2 12  1  0  0  0
 12 13  2  0  0  0
 13 14  1  0  0  0
 14 18  1  0  0  0
 18 19  1  0  0  0
 14 15  2  0  0  0
 15 16  1  0  0  0
 16 20  1  0  0  0
 20 21  1  0  0  0
 16 17  2  0  0  0
  6  7  1  0  0  0
  7  8  2  0  0  0
  8  3  1  0  0  0
 17 12  1  0  0  0
M  END
> <minimizedAffinity>
-6.49165

> <CNNscore>
0.4318902791

> <CNNaffinity>
5.0912246704

> <CNN_VS>
2.1988503933

> <CNNaffinity_variance>
0.5305764079

$$$$
[H]/C(=C(/[H])c1c([H])c(OC([H])([H])[H])c([H])c(OC([H])([H])[H])c1[H])c1c([H])c([H])c(OC([H])([H])C([H])([H])[H])c([H])c1[H]


 21 22  0  0  0  0  0  0  0  0999 V2000
    2.8338    1.5742   14.7441 C   0  0  0  0  0  0  0  0  0  0  0  0
    2.0489    2.5301   14.3059 C   0  0  0  0  0  0  0  0  0  0  0  0
    3.8785    1.0141   18.8434 C   0  0  0  0  0  0  0  0  0  0  0  0
    2.9452    0.2150   18.2254 C   0  0  0  0  0  0  0  0  0  0  0  0
    2.6204    0.4145   16.8917 C   0  0  0  0  0  0  0  0  0  0  0  0
    3.2123    1.4068   16.1464 C   0  0  0  0  0  0  0  0  0  0  0  0
    4.1442    2.2051   16.7626 C   0  0  0  0  0  0  0  0  0  0  0  0
    4.4749    2.0090   18.1043 C   0  0  0  0  0  0  0  0  0  0  0  0
    4.2369    0.8531   20.1769 O   0  0  0  0  0  0  0  0  0  0  0  0
    3.1029    0.9964   22.2876 C   0  0  0  0  0  0  0  0  0  0  0  0
    3.3533    0.1753   21.0385 C   0  0  0  0  0  0  0  0  0  0  0  0
    1.6934    2.6657   12.9015 C   0  0  0  0  0  0  0  0  0  0  0  0
    2.4613    1.9676   11.9647 C   0  0  0  0  0  0  0  0  0  0  0  0
    2.2177    2.0207   10.6123 C   0  0  0  0  0  0  0  0  0  0  0  0
    1.1733    2.7932   10.1507 C   0  0  0  0  0  0  0  0  0  0  0  0
    0.4171    3.4801   11.0683 C   0  0  0  0  0  0  0  0  0  0  0  0
    0.6635    3.4259   12.4320 C   0  0  0  0  0  0  0  0  0  0  0  0
    3.0424    1.2886    9.7781 O   0  0  0  0  0  0  0  0  0  0  0  0
    3.4115    1.6723    8.4817 C   0  0  0  0  0  0  0  0  0  0  0  0
   -0.6307    4.2525   10.5808 O   0  0  0  0  0  0  0  0  0  0  0  0
   -1.6891    4.7270   11.3620 C   0  0  0  0  0  0  0  0  0  0  0  0
 10 11  1  0  0  0
 11  9  1  0  0  0
  9  3  1  0  0  0
  3  4  2  0  0  0
  4  5  1  0  0  0
  5  6  2  0  0  0
  6  1  1  0  0  0
  1  2  2  0  0  0
  2 12  1  0  0  0
 12 13  2  0  0  0
 13 14  1  0  0  0
 14 18  1  0  0  0
 18 19  1  0  0  0
 14 15  2  0  0  0
 15 16  1  0  0  0
 16 20  1  0  0  0
 20 21  1  0  0  0
 16 17  2  0  0  0
  6  7  1  0  0  0
  7  8  2  0  0  0
  8  3  1  0  0  0
 17 12  1  0  0  0
M  END
> <minimizedAffinity>
-5.95294

> <CNNscore>
0.4280683994

> <CNNaffinity>
4.8733916283

> <CNN_VS>
2.0861449242

> <CNNaffinity_variance>
0.1948598474

$$$$
[H]/C(=C(/[H])c1c([H])c(OC([H])([H])[H])c([H])c(OC([H])([H])[H])c1[H])c1c([H])c([H])c(OC([H])([H])C([H])([H])[H])c([H])c1[H]


 21 22  0  0  0  0  0  0  0  0999 V2000
    3.4125    1.4992   16.0499 C   0  0  0  0  0  0  0  0  0  0  0  0
    3.3022    2.7307   15.6101 C   0  0  0  0  0  0  0  0  0  0  0  0
    3.5332    0.5087   20.1987 C   0  0  0  0  0  0  0  0  0  0  0  0
    4.2895    1.5357   19.6843 C   0  0  0  0  0  0  0  0  0  0  0  0
    4.2351    1.8409   18.3322 C   0  0  0  0  0  0  0  0  0  0  0  0
    3.4327    1.1364   17.4661 C   0  0  0  0  0  0  0  0  0  0  0  0
    2.6772    0.1109   17.9789 C   0  0  0  0  0  0  0  0  0  0  0  0
    2.7280   -0.2006   19.3385 C   0  0  0  0  0  0  0  0  0  0  0  0
    3.5538    0.1655   21.5458 O   0  0  0  0  0  0  0  0  0  0  0  0
    4.3893    1.6781   23.2118 C   0  0  0  0  0  0  0  0  0  0  0  0
    3.1703    1.1307   22.4964 C   0  0  0  0  0  0  0  0  0  0  0  0
    3.2857    3.0543   14.1917 C   0  0  0  0  0  0  0  0  0  0  0  0
    2.6685    2.1485   13.3238 C   0  0  0  0  0  0  0  0  0  0  0  0
    2.5931    2.3501   11.9655 C   0  0  0  0  0  0  0  0  0  0  0  0
    3.1471    3.4918   11.4271 C   0  0  0  0  0  0  0  0  0  0  0  0
    3.7540    4.3835   12.2768 C   0  0  0  0  0  0  0  0  0  0  0  0
    3.8297    4.1795   13.6465 C   0  0  0  0  0  0  0  0  0  0  0  0
    1.9586    1.3862   11.2038 O   0  0  0  0  0  0  0  0  0  0  0  0
    0.8161    1.6089   10.4231 C   0  0  0  0  0  0  0  0  0  0  0  0
    4.3058    5.5277   11.7124 O   0  0  0  0  0  0  0  0  0  0  0  0
    3.8104    6.1580   10.5664 C   0  0  0  0  0  0  0  0  0  0  0  0
 10 11  1  0  0  0
 11  9  1  0  0  0
  9  3  1  0  0  0
  3  4  2  0  0  0
  4  5  1  0  0  0
  5  6  2  0  0  0
  6  1  1  0  0  0
  1  2  2  0  0  0
  2 12  1  0  0  0
 12 13  2  0  0  0
 13 14  1  0  0  0
 14 18  1  0  0  0
 18 19  1  0  0  0
 14 15  2  0  0  0
 15 16  1  0  0  0
 16 20  1  0  0  0
 20 21  1  0  0  0
 16 17  2  0  0  0
  6  7  1  0  0  0
  7  8  2  0  0  0
  8  3  1  0  0  0
 17 12  1  0  0  0
M  END
> <minimizedAffinity>
-6.22957

> <CNNscore>
0.3950281441

> <CNNaffinity>
5.1211900711

> <CNN_VS>
2.0230143070

> <CNNaffinity_variance>
0.2876755595

$$$$
[H]/C(C(=O)N(C([H])([H])[H])C([H])([H])c1sc2c([H])c([H])c([H])c([H])c2c1C([H])([H])[H])=C(/[H])c1c([H])nc2c(c1[H])C([H])([H])N([H])C([H])([H])C([H])([H])N2[H]


 30 33  0  0  0  0  0  0  0  0999 V2000
    2.8172    5.0728   13.7515 N   0  0  0  0  0  0  0  0  0  0  0  0
    3.4057    5.8726   14.7913 C   0  0  0  0  0  0  0  0  0  0  0  0
    2.9567    3.6149   13.8960 C   0  0  0  0  0  0  0  0  0  0  0  0
    2.8026    2.8401   12.9519 O   0  0  0  0  0  0  0  0  0  0  0  0
    3.2273    3.1056   15.2352 C   0  0  0  0  0  0  0  0  0  0  0  0
    2.9127    1.8148   15.4293 C   0  0  0  0  0  0  0  0  0  0  0  0
    3.1128    1.1522   16.7316 C   0  0  0  0  0  0  0  0  0  0  0  0
    2.3638    0.0394   17.0425 C   0  0  0  0  0  0  0  0  0  0  0  0
    2.3758   -0.5375   18.2909 N   0  0  0  0  0  0  0  0  0  0  0  0
    3.1547    0.0201   19.2325 C   0  0  0  0  0  0  0  0  0  0  0  0
    3.9195    1.1297   18.9277 C   0  0  0  0  0  0  0  0  0  0  0  0
    3.9090    1.7087   17.6841 C   0  0  0  0  0  0  0  0  0  0  0  0
    4.8364    1.8020   19.9065 C   0  0  0  0  0  0  0  0  0  0  0  0
    3.9557    2.2715   20.9392 N   0  0  0  0  0  0  0  0  0  0  0  0
    3.6556    1.3788   21.9822 C   0  0  0  0  0  0  0  0  0  0  0  0
    3.4577   -0.0505   21.7789 C   0  0  0  0  0  0  0  0  0  0  0  0
    3.0251   -0.5797   20.5401 N   0  0  0  0  0  0  0  0  0  0  0  0
    3.1299    2.7049   20.4618 H   0  0  0  0  0  0  0  0  0  0  0  0
    2.5216   -1.4909   20.5418 H   0  0  0  0  0  0  0  0  0  0  0  0
    2.2089    5.5205   12.6092 C   0  0  0  0  0  0  0  0  0  0  0  0
    0.0552    4.7992   10.3995 C   0  0  0  0  0  0  0  0  0  0  0  0
   -0.2210    5.5918   11.6989 C   0  0  0  0  0  0  0  0  0  0  0  0
    0.8512    6.0200   12.4107 C   0  0  0  0  0  0  0  0  0  0  0  0
    0.0280    7.0076   13.6568 S   0  0  0  0  0  0  0  0  0  0  0  0
   -1.5822    6.7617   13.1688 C   0  0  0  0  0  0  0  0  0  0  0  0
   -2.8297    7.1544   13.6838 C   0  0  0  0  0  0  0  0  0  0  0  0
   -4.0057    6.7511   13.1050 C   0  0  0  0  0  0  0  0  0  0  0  0
   -3.8703    5.9428   11.9898 C   0  0  0  0  0  0  0  0  0  0  0  0
   -2.6858    5.5626   11.4930 C   0  0  0  0  0  0  0  0  0  0  0  0
   -1.4606    5.9597   12.0776 C   0  0  0  0  0  0  0  0  0  0  0  0
 21 22  1  0  0  0
 22 23  2  0  0  0
 23 20  1  0  0  0
 20  1  1  0  0  0
  1  2  1  0  0  0
  1  3  1  0  0  0
  3  4  2  0  0  0
  3  5  1  0  0  0
  5  6  2  0  0  0
  6  7  1  0  0  0
  7  8  2  0  0  0
  8  9  1  0  0  0
  9 10  2  0  0  0
 10 11  1  0  0  0
 11 12  2  0  0  0
 11 13  1  0  0  0
 13 14  1  0  0  0
 14 15  1  0  0  0
 15 16  1  0  0  0
 16 17  1  0  0  0
 23 24  1  0  0  0
 24 25  1  0  0  0
 25 26  2  0  0  0
 26 27  1  0  0  0
 27 28  2  0  0  0
 28 29  1  0  0  0
 29 30  2  0  0  0
 30 22  1  0  0  0
 12  7  1  0  0  0
 30 25  1  0  0  0
 17 10  1  0  0  0
 14 18  1  0  0  0
 17 19  1  0  0  0
M  END
> <minimizedAffinity>
-9.13682

> <CNNscore>
0.8363795877

> <CNNaffinity>
6.6273431778

> <CNN_VS>
5.5429744720

> <CNNaffinity_variance>
0.3710819781

$$$$
[H]/C(C(=O)N(C([H])([H])[H])C([H])([H])c1sc2c([H])c([H])c([H])c([H])c2c1C([H])([H])[H])=C(/[H])c1c([H])nc2c(c1[H])C([H])([H])N([H])C([H])([H])C([H])([H])N2[H]


 30 33  0  0  0  0  0  0  0  0999 V2000
    2.8781    4.9354   13.2272 N   0  0  0  0  0  0  0  0  0  0  0  0
    3.3486    5.7910   14.2826 C   0  0  0  0  0  0  0  0  0  0  0  0
    3.1270    3.4952   13.3992 C   0  0  0  0  0  0  0  0  0  0  0  0
    3.0822    2.7007   12.4600 O   0  0  0  0  0  0  0  0  0  0  0  0
    3.3715    3.0235   14.7571 C   0  0  0  0  0  0  0  0  0  0  0  0
    2.9308    1.7823   15.0181 C   0  0  0  0  0  0  0  0  0  0  0  0
    3.0888    1.1638   16.3476 C   0  0  0  0  0  0  0  0  0  0  0  0
    2.2705    0.1150   16.7033 C   0  0  0  0  0  0  0  0  0  0  0  0
    2.2463   -0.4083   17.9749 N   0  0  0  0  0  0  0  0  0  0  0  0
    3.0595    0.1377   18.8940 C   0  0  0  0  0  0  0  0  0  0  0  0
    3.8933    1.1825   18.5445 C   0  0  0  0  0  0  0  0  0  0  0  0
    3.9192    1.7081   17.2777 C   0  0  0  0  0  0  0  0  0  0  0  0
    4.8515    1.8358   19.4963 C   0  0  0  0  0  0  0  0  0  0  0  0
    4.0029    2.4035   20.5063 N   0  0  0  0  0  0  0  0  0  0  0  0
    3.6469    1.5765   21.5853 C   0  0  0  0  0  0  0  0  0  0  0  0
    3.3584    0.1553   21.4418 C   0  0  0  0  0  0  0  0  0  0  0  0
    2.8925   -0.3970   20.2254 N   0  0  0  0  0  0  0  0  0  0  0  0
    3.2062    2.8681   20.0092 H   0  0  0  0  0  0  0  0  0  0  0  0
    2.3319   -1.2734   20.2643 H   0  0  0  0  0  0  0  0  0  0  0  0
    2.2926    5.3205   12.0507 C   0  0  0  0  0  0  0  0  0  0  0  0
    4.1077    4.6864    9.5318 C   0  0  0  0  0  0  0  0  0  0  0  0
    3.3260    6.0001    9.7686 C   0  0  0  0  0  0  0  0  0  0  0  0
    2.7992    6.2014   11.0021 C   0  0  0  0  0  0  0  0  0  0  0  0
    2.1951    7.8766   10.8171 S   0  0  0  0  0  0  0  0  0  0  0  0
    2.6460    8.1440    9.1995 C   0  0  0  0  0  0  0  0  0  0  0  0
    2.4605    9.2049    8.2963 C   0  0  0  0  0  0  0  0  0  0  0  0
    2.8879    9.1250    6.9958 C   0  0  0  0  0  0  0  0  0  0  0  0
    3.5095    7.9383    6.6484 C   0  0  0  0  0  0  0  0  0  0  0  0
    3.6894    6.9218    7.5020 C   0  0  0  0  0  0  0  0  0  0  0  0
    3.2501    6.9785    8.8453 C   0  0  0  0  0  0  0  0  0  0  0  0
 21 22  1  0  0  0
 22 23  2  0  0  0
 23 20  1  0  0  0
 20  1  1  0  0  0
  1  2  1  0  0  0
  1  3  1  0  0  0
  3  4  2  0  0  0
  3  5  1  0  0  0
  5  6  2  0  0  0
  6  7  1  0  0  0
  7  8  2  0  0  0
  8  9  1  0  0  0
  9 10  2  0  0  0
 10 11  1  0  0  0
 11 12  2  0  0  0
 11 13  1  0  0  0
 13 14  1  0  0  0
 14 15  1  0  0  0
 15 16  1  0  0  0
 16 17  1  0  0  0
 23 24  1  0  0  0
 24 25  1  0  0  0
 25 26  2  0  0  0
 26 27  1  0  0  0
 27 28  2  0  0  0
 28 29  1  0  0  0
 29 30  2  0  0  0
 30 22  1  0  0  0
 12  7  1  0  0  0
 30 25  1  0  0  0
 17 10  1  0  0  0
 14 18  1  0  0  0
 17 19  1  0  0  0
M  END
> <minimizedAffinity>
-7.74404

> <CNNscore>
0.7396544814

> <CNNaffinity>
6.2281026840

> <CNN_VS>
4.6066441536

> <CNNaffinity_variance>
0.2948832810

$$$$
[H]/C(C(=O)N(C([H])([H])[H])C([H])([H])c1sc2c([H])c([H])c([H])c([H])c2c1C([H])([H])[H])=C(/[H])c1c([H])nc2c(c1[H])C([H])([H])N([H])C([H])([H])C([H])([H])N2[H]


 30 33  0  0  0  0  0  0  0  0999 V2000
    1.7292    3.9734   13.4021 N   0  0  0  0  0  0  0  0  0  0  0  0
    1.8746    5.0841   14.3033 C   0  0  0  0  0  0  0  0  0  0  0  0
    2.4885    2.7589   13.7402 C   0  0  0  0  0  0  0  0  0  0  0  0
    2.7192    1.8738   12.9165 O   0  0  0  0  0  0  0  0  0  0  0  0
    2.9123    2.6084   15.1272 C   0  0  0  0  0  0  0  0  0  0  0  0
    2.7543    1.3783   15.6420 C   0  0  0  0  0  0  0  0  0  0  0  0
    3.1221    1.0645   17.0353 C   0  0  0  0  0  0  0  0  0  0  0  0
    2.5063    0.0106   17.6726 C   0  0  0  0  0  0  0  0  0  0  0  0
    2.6751   -0.2462   19.0131 N   0  0  0  0  0  0  0  0  0  0  0  0
    3.4757    0.5741   19.7134 C   0  0  0  0  0  0  0  0  0  0  0  0
    4.1078    1.6274   19.0811 C   0  0  0  0  0  0  0  0  0  0  0  0
    3.9408    1.8876   17.7446 C   0  0  0  0  0  0  0  0  0  0  0  0
    5.0379    2.5773   19.7764 C   0  0  0  0  0  0  0  0  0  0  0  0
    4.2072    3.2201   20.7559 N   0  0  0  0  0  0  0  0  0  0  0  0
    4.0780    2.5866   22.0037 C   0  0  0  0  0  0  0  0  0  0  0  0
    3.9953    1.1402   22.1609 C   0  0  0  0  0  0  0  0  0  0  0  0
    3.5109    0.2996   21.1311 N   0  0  0  0  0  0  0  0  0  0  0  0
    3.3083    3.4677   20.2780 H   0  0  0  0  0  0  0  0  0  0  0  0
    3.0946   -0.6168   21.3971 H   0  0  0  0  0  0  0  0  0  0  0  0
    1.0226    3.9483   12.2293 C   0  0  0  0  0  0  0  0  0  0  0  0
    2.8289    5.9606   10.5774 C   0  0  0  0  0  0  0  0  0  0  0  0
    1.3053    5.7641   10.3960 C   0  0  0  0  0  0  0  0  0  0  0  0
    0.6498    5.0465   11.3421 C   0  0  0  0  0  0  0  0  0  0  0  0
   -1.0397    5.2720   10.7941 S   0  0  0  0  0  0  0  0  0  0  0  0
   -0.7469    6.2264    9.4176 C   0  0  0  0  0  0  0  0  0  0  0  0
   -1.5650    6.7599    8.4068 C   0  0  0  0  0  0  0  0  0  0  0  0
   -1.0396    7.4608    7.3517 C   0  0  0  0  0  0  0  0  0  0  0  0
    0.3370    7.6026    7.3615 C   0  0  0  0  0  0  0  0  0  0  0  0
    1.1244    7.0965    8.3198 C   0  0  0  0  0  0  0  0  0  0  0  0
    0.6059    6.3638    9.4129 C   0  0  0  0  0  0  0  0  0  0  0  0
 21 22  1  0  0  0
 22 23  2  0  0  0
 23 20  1  0  0  0
 20  1  1  0  0  0
  1  2  1  0  0  0
  1  3  1  0  0  0
  3  4  2  0  0  0
  3  5  1  0  0  0
  5  6  2  0  0  0
  6  7  1  0  0  0
  7  8  2  0  0  0
  8  9  1  0  0  0
  9 10  2  0  0  0
 10 11  1  0  0  0
 11 12  2  0  0  0
 11 13  1  0  0  0
 13 14  1  0  0  0
 14 15  1  0  0  0
 15 16  1  0  0  0
 16 17  1  0  0  0
 23 24  1  0  0  0
 24 25  1  0  0  0
 25 26  2  0  0  0
 26 27  1  0  0  0
 27 28  2  0  0  0
 28 29  1  0  0  0
 29 30  2  0  0  0
 30 22  1  0  0  0
 12  7  1  0  0  0
 30 25  1  0  0  0
 17 10  1  0  0  0
 14 18  1  0  0  0
 17 19  1  0  0  0
M  END
> <minimizedAffinity>
-7.52470

> <CNNscore>
0.5436345339

> <CNNaffinity>
6.1006951332

> <CNN_VS>
3.3165485859

> <CNNaffinity_variance>
0.5497345328

$$$$
[H]/C(C(=O)N(C([H])([H])[H])C([H])([H])c1sc2c([H])c([H])c([H])c([H])c2c1C([H])([H])[H])=C(/[H])c1c([H])nc2c(c1[H])C([H])([H])N([H])C([H])([H])C([H])([H])N2[H]


 30 33  0  0  0  0  0  0  0  0999 V2000
    2.9023    3.0001   14.6501 N   0  0  0  0  0  0  0  0  0  0  0  0
    3.1223    2.1361   13.5222 C   0  0  0  0  0  0  0  0  0  0  0  0
    3.3062    4.4050   14.4805 C   0  0  0  0  0  0  0  0  0  0  0  0
    3.4823    5.1613   15.4357 O   0  0  0  0  0  0  0  0  0  0  0  0
    3.4321    4.8969   13.1136 C   0  0  0  0  0  0  0  0  0  0  0  0
    4.2506    5.9501   12.9592 C   0  0  0  0  0  0  0  0  0  0  0  0
    4.4758    6.5742   11.6421 C   0  0  0  0  0  0  0  0  0  0  0  0
    5.7168    7.0924   11.3465 C   0  0  0  0  0  0  0  0  0  0  0  0
    5.9619    7.8279   10.2105 N   0  0  0  0  0  0  0  0  0  0  0  0
    4.9382    8.0399    9.3671 C   0  0  0  0  0  0  0  0  0  0  0  0
    3.6918    7.5142    9.6482 C   0  0  0  0  0  0  0  0  0  0  0  0
    3.4432    6.7813   10.7808 C   0  0  0  0  0  0  0  0  0  0  0  0
    2.4992    7.6778    8.7529 C   0  0  0  0  0  0  0  0  0  0  0  0
    2.2721    9.0958    8.7348 N   0  0  0  0  0  0  0  0  0  0  0  0
    2.9731    9.8463    7.7756 C   0  0  0  0  0  0  0  0  0  0  0  0
    4.3492    9.5633    7.3889 C   0  0  0  0  0  0  0  0  0  0  0  0
    5.2543    8.9106    8.2587 N   0  0  0  0  0  0  0  0  0  0  0  0
    2.3580    9.4308    9.7238 H   0  0  0  0  0  0  0  0  0  0  0  0
    6.2729    9.0844    8.1318 H   0  0  0  0  0  0  0  0  0  0  0  0
    2.4286    2.6428   15.8844 C   0  0  0  0  0  0  0  0  0  0  0  0
    5.0356    3.2488   17.5806 C   0  0  0  0  0  0  0  0  0  0  0  0
    3.9924    2.1512   17.8969 C   0  0  0  0  0  0  0  0  0  0  0  0
    3.0725    1.8681   16.9414 C   0  0  0  0  0  0  0  0  0  0  0  0
    2.2626    0.4585   17.6917 S   0  0  0  0  0  0  0  0  0  0  0  0
    3.1486    0.3841   19.1411 C   0  0  0  0  0  0  0  0  0  0  0  0
    3.0696   -0.4155   20.2943 C   0  0  0  0  0  0  0  0  0  0  0  0
    3.8963   -0.2110   21.3691 C   0  0  0  0  0  0  0  0  0  0  0  0
    4.8026    0.8257   21.2305 C   0  0  0  0  0  0  0  0  0  0  0  0
    4.8840    1.5935   20.1359 C   0  0  0  0  0  0  0  0  0  0  0  0
    4.0369    1.4063   19.0188 C   0  0  0  0  0  0  0  0  0  0  0  0
 21 22  1  0  0  0
 22 23  2  0  0  0
 23 20  1  0  0  0
 20  1  1  0  0  0
  1  2  1  0  0  0
  1  3  1  0  0  0
  3  4  2  0  0  0
  3  5  1  0  0  0
  5  6  2  0  0  0
  6  7  1  0  0  0
  7  8  2  0  0  0
  8  9  1  0  0  0
  9 10  2  0  0  0
 10 11  1  0  0  0
 11 12  2  0  0  0
 11 13  1  0  0  0
 13 14  1  0  0  0
 14 15  1  0  0  0
 15 16  1  0  0  0
 16 17  1  0  0  0
 23 24  1  0  0  0
 24 25  1  0  0  0
 25 26  2  0  0  0
 26 27  1  0  0  0
 27 28  2  0  0  0
 28 29  1  0  0  0
 29 30  2  0  0  0
 30 22  1  0  0  0
 12  7  1  0  0  0
 30 25  1  0  0  0
 17 10  1  0  0  0
 14 18  1  0  0  0
 17 19  1  0  0  0
M  END
> <minimizedAffinity>
-7.21179

> <CNNscore>
0.4048045874

> <CNNaffinity>
5.7601385117

> <CNN_VS>
2.3317306042

> <CNNaffinity_variance>
0.4354739785

$$$$
[H]/C(C(=O)N(C([H])([H])[H])C([H])([H])c1sc2c([H])c([H])c([H])c([H])c2c1C([H])([H])[H])=C(/[H])c1c([H])nc2c(c1[H])C([H])([H])N([H])C([H])([H])C([H])([H])N2[H]


 30 33  0  0  0  0  0  0  0  0999 V2000
    4.0418    2.9929   16.5009 N   0  0  0  0  0  0  0  0  0  0  0  0
    4.4339    4.3017   16.0530 C   0  0  0  0  0  0  0  0  0  0  0  0
    2.9215    2.3683   15.7793 C   0  0  0  0  0  0  0  0  0  0  0  0
    2.2788    1.4274   16.2451 O   0  0  0  0  0  0  0  0  0  0  0  0
    2.6338    2.8711   14.4412 C   0  0  0  0  0  0  0  0  0  0  0  0
    2.6098    1.9397   13.4744 C   0  0  0  0  0  0  0  0  0  0  0  0
    2.3464    2.2868   12.0655 C   0  0  0  0  0  0  0  0  0  0  0  0
    1.2985    1.6819   11.4081 C   0  0  0  0  0  0  0  0  0  0  0  0
    1.0860    1.8301   10.0574 N   0  0  0  0  0  0  0  0  0  0  0  0
    1.9447    2.5987    9.3675 C   0  0  0  0  0  0  0  0  0  0  0  0
    2.9925    3.2199   10.0195 C   0  0  0  0  0  0  0  0  0  0  0  0
    3.2086    3.0734   11.3662 C   0  0  0  0  0  0  0  0  0  0  0  0
    3.9834    4.1152    9.3361 C   0  0  0  0  0  0  0  0  0  0  0  0
    4.6366    3.2518    8.3924 N   0  0  0  0  0  0  0  0  0  0  0  0
    4.0381    3.1120    7.1286 C   0  0  0  0  0  0  0  0  0  0  0  0
    2.5956    3.0578    6.9289 C   0  0  0  0  0  0  0  0  0  0  0  0
    1.7138    2.6122    7.9416 N   0  0  0  0  0  0  0  0  0  0  0  0
    4.8495    2.3572    8.8946 H   0  0  0  0  0  0  0  0  0  0  0  0
    0.7967    2.2109    7.6557 H   0  0  0  0  0  0  0  0  0  0  0  0
    4.5465    2.2995   17.5684 C   0  0  0  0  0  0  0  0  0  0  0  0
    3.1142    0.2992   19.5656 C   0  0  0  0  0  0  0  0  0  0  0  0
    3.9095    1.5617   19.9742 C   0  0  0  0  0  0  0  0  0  0  0  0
    4.2485    2.4330   18.9916 C   0  0  0  0  0  0  0  0  0  0  0  0
    4.9501    3.7564   19.9725 S   0  0  0  0  0  0  0  0  0  0  0  0
    4.7665    3.0680   21.5165 C   0  0  0  0  0  0  0  0  0  0  0  0
    5.1375    3.4643   22.8130 C   0  0  0  0  0  0  0  0  0  0  0  0
    4.9123    2.6620   23.9021 C   0  0  0  0  0  0  0  0  0  0  0  0
    4.2980    1.4521   23.6297 C   0  0  0  0  0  0  0  0  0  0  0  0
    3.9423    1.0658   22.3974 C   0  0  0  0  0  0  0  0  0  0  0  0
    4.1715    1.8729   21.2586 C   0  0  0  0  0  0  0  0  0  0  0  0
 21 22  1  0  0  0
 22 23  2  0  0  0
 23 20  1  0  0  0
 20  1  1  0  0  0
  1  2  1  0  0  0
  1  3  1  0  0  0
  3  4  2  0  0  0
  3  5  1  0  0  0
  5  6  2  0  0  0
  6  7  1  0  0  0
  7  8  2  0  0  0
  8  9  1  0  0  0
  9 10  2  0  0  0
 10 11  1  0  0  0
 11 12  2  0  0  0
 11 13  1  0  0  0
 13 14  1  0  0  0
 14 15  1  0  0  0
 15 16  1  0  0  0
 16 17  1  0  0  0
 23 24  1  0  0  0
 24 25  1  0  0  0
 25 26  2  0  0  0
 26 27  1  0  0  0
 27 28  2  0  0  0
 28 29  1  0  0  0
 29 30  2  0  0  0
 30 22  1  0  0  0
 12  7  1  0  0  0
 30 25  1  0  0  0
 17 10  1  0  0  0
 14 18  1  0  0  0
 17 19  1  0  0  0
M  END
> <minimizedAffinity>
-6.96392

> <CNNscore>
0.3578929007

> <CNNaffinity>
6.0937838554

> <CNN_VS>
2.1809220314

> <CNNaffinity_variance>
0.3710167706

$$$$
[H]/C(C(=O)N(C([H])([H])[H])C([H])([H])c1sc2c([H])c([H])c([H])c([H])c2c1C([H])([H])[H])=C(/[H])c1c([H])nc2c(c1[H])C([H])([H])N([H])C([H])([H])C([H])([H])N2[H]


 30 33  0  0  0  0  0  0  0  0999 V2000
    2.4414    4.7926   14.5160 N   0  0  0  0  0  0  0  0  0  0  0  0
    3.1620    5.8105   15.2314 C   0  0  0  0  0  0  0  0  0  0  0  0
    2.3896    3.4659   15.1507 C   0  0  0  0  0  0  0  0  0  0  0  0
    2.1055    2.4450   14.5244 O   0  0  0  0  0  0  0  0  0  0  0  0
    2.6299    3.4101   16.5879 C   0  0  0  0  0  0  0  0  0  0  0  0
    3.7264    2.7288   16.9572 C   0  0  0  0  0  0  0  0  0  0  0  0
    4.1026    2.5683   18.3742 C   0  0  0  0  0  0  0  0  0  0  0  0
    3.9887    1.3294   18.9643 C   0  0  0  0  0  0  0  0  0  0  0  0
    4.1657    1.1319   20.3138 N   0  0  0  0  0  0  0  0  0  0  0  0
    4.4604    2.2012   21.0714 C   0  0  0  0  0  0  0  0  0  0  0  0
    4.5888    3.4467   20.4874 C   0  0  0  0  0  0  0  0  0  0  0  0
    4.4116    3.6480   19.1421 C   0  0  0  0  0  0  0  0  0  0  0  0
    4.9405    4.6902   21.2496 C   0  0  0  0  0  0  0  0  0  0  0  0
    3.8458    4.8565   22.1643 N   0  0  0  0  0  0  0  0  0  0  0  0
    3.9341    4.1917   23.3992 C   0  0  0  0  0  0  0  0  0  0  0  0
    4.5037    2.8590   23.5506 C   0  0  0  0  0  0  0  0  0  0  0  0
    4.5214    1.9250   22.4879 N   0  0  0  0  0  0  0  0  0  0  0  0
    2.9661    4.6882   21.6207 H   0  0  0  0  0  0  0  0  0  0  0  0
    4.5475    0.9111   22.7226 H   0  0  0  0  0  0  0  0  0  0  0  0
    1.8643    4.9037   13.2791 C   0  0  0  0  0  0  0  0  0  0  0  0
   -0.1476    4.1770   10.9413 C   0  0  0  0  0  0  0  0  0  0  0  0
   -0.4475    5.1319   12.1209 C   0  0  0  0  0  0  0  0  0  0  0  0
    0.5977    5.5195   12.8936 C   0  0  0  0  0  0  0  0  0  0  0  0
   -0.2157    6.7191   13.9448 S   0  0  0  0  0  0  0  0  0  0  0  0
   -1.7922    6.5932   13.3203 C   0  0  0  0  0  0  0  0  0  0  0  0
   -3.0275    7.1698   13.6628 C   0  0  0  0  0  0  0  0  0  0  0  0
   -4.1845    6.8323   13.0086 C   0  0  0  0  0  0  0  0  0  0  0  0
   -4.0426    5.8970   11.9984 C   0  0  0  0  0  0  0  0  0  0  0  0
   -2.8699    5.3415   11.6661 C   0  0  0  0  0  0  0  0  0  0  0  0
   -1.6654    5.6682   12.3318 C   0  0  0  0  0  0  0  0  0  0  0  0
 21 22  1  0  0  0
 22 23  2  0  0  0
 23 20  1  0  0  0
 20  1  1  0  0  0
  1  2  1  0  0  0
  1  3  1  0  0  0
  3  4  2  0  0  0
  3  5  1  0  0  0
  5  6  2  0  0  0
  6  7  1  0  0  0
  7  8  2  0  0  0
  8  9  1  0  0  0
  9 10  2  0  0  0
 10 11  1  0  0  0
 11 12  2  0  0  0
 11 13  1  0  0  0
 13 14  1  0  0  0
 14 15  1  0  0  0
 15 16  1  0  0  0
 16 17  1  0  0  0
 23 24  1  0  0  0
 24 25  1  0  0  0
 25 26  2  0  0  0
 26 27  1  0  0  0
 27 28  2  0  0  0
 28 29  1  0  0  0
 29 30  2  0  0  0
 30 22  1  0  0  0
 12  7  1  0  0  0
 30 25  1  0  0  0
 17 10  1  0  0  0
 14 18  1  0  0  0
 17 19  1  0  0  0
M  END
> <minimizedAffinity>
-8.89488

> <CNNscore>
0.3342574835

> <CNNaffinity>
5.9891276360

> <CNN_VS>
2.0019106865

> <CNNaffinity_variance>
0.4543627799

$$$$
[H]/C(C(=O)N(C([H])([H])[H])C([H])([H])c1sc2c([H])c([H])c([H])c([H])c2c1C([H])([H])[H])=C(/[H])c1c([H])nc2c(c1[H])C([H])([H])N([H])C([H])([H])C([H])([H])N2[H]


 30 33  0  0  0  0  0  0  0  0999 V2000
    3.4932    3.9466   15.4249 N   0  0  0  0  0  0  0  0  0  0  0  0
    3.0119    2.7526   14.7848 C   0  0  0  0  0  0  0  0  0  0  0  0
    2.8879    5.2117   14.9788 C   0  0  0  0  0  0  0  0  0  0  0  0
    3.4139    6.3049   15.1874 O   0  0  0  0  0  0  0  0  0  0  0  0
    1.5878    5.1284   14.3238 C   0  0  0  0  0  0  0  0  0  0  0  0
    0.9117    6.2860   14.2480 C   0  0  0  0  0  0  0  0  0  0  0  0
   -0.4236    6.3682   13.6273 C   0  0  0  0  0  0  0  0  0  0  0  0
   -1.4362    7.0215   14.2936 C   0  0  0  0  0  0  0  0  0  0  0  0
   -2.7411    7.0045   13.8596 N   0  0  0  0  0  0  0  0  0  0  0  0
   -3.0211    6.3181   12.7395 C   0  0  0  0  0  0  0  0  0  0  0  0
   -2.0105    5.6690   12.0567 C   0  0  0  0  0  0  0  0  0  0  0  0
   -0.7081    5.6825   12.4872 C   0  0  0  0  0  0  0  0  0  0  0  0
   -2.2254    4.9014   10.7857 C   0  0  0  0  0  0  0  0  0  0  0  0
   -3.1114    3.8382   11.1693 N   0  0  0  0  0  0  0  0  0  0  0  0
   -4.4906    4.1048   11.1270 C   0  0  0  0  0  0  0  0  0  0  0  0
   -5.0686    5.3879   11.5052 C   0  0  0  0  0  0  0  0  0  0  0  0
   -4.4276    6.2608   12.4157 N   0  0  0  0  0  0  0  0  0  0  0  0
   -2.7517    3.4535   12.0750 H   0  0  0  0  0  0  0  0  0  0  0  0
   -5.0156    6.9293   12.9554 H   0  0  0  0  0  0  0  0  0  0  0  0
    4.5014    4.0406   16.3469 C   0  0  0  0  0  0  0  0  0  0  0  0
    4.1882    1.2649   17.8430 C   0  0  0  0  0  0  0  0  0  0  0  0
    4.6449    2.5911   18.4954 C   0  0  0  0  0  0  0  0  0  0  0  0
    4.4918    3.7290   17.7735 C   0  0  0  0  0  0  0  0  0  0  0  0
    4.9668    4.9454   18.9983 S   0  0  0  0  0  0  0  0  0  0  0  0
    5.3319    3.8966   20.2859 C   0  0  0  0  0  0  0  0  0  0  0  0
    5.8403    4.0824   21.5831 C   0  0  0  0  0  0  0  0  0  0  0  0
    6.1021    3.0214   22.4116 C   0  0  0  0  0  0  0  0  0  0  0  0
    5.8277    1.7733   21.8804 C   0  0  0  0  0  0  0  0  0  0  0  0
    5.3444    1.5868   20.6451 C   0  0  0  0  0  0  0  0  0  0  0  0
    5.0743    2.6650   19.7704 C   0  0  0  0  0  0  0  0  0  0  0  0
 21 22  1  0  0  0
 22 23  2  0  0  0
 23 20  1  0  0  0
 20  1  1  0  0  0
  1  2  1  0  0  0
  1  3  1  0  0  0
  3  4  2  0  0  0
  3  5  1  0  0  0
  5  6  2  0  0  0
  6  7  1  0  0  0
  7  8  2  0  0  0
  8  9  1  0  0  0
  9 10  2  0  0  0
 10 11  1  0  0  0
 11 12  2  0  0  0
 11 13  1  0  0  0
 13 14  1  0  0  0
 14 15  1  0  0  0
 15 16  1  0  0  0
 16 17  1  0  0  0
 23 24  1  0  0  0
 24 25  1  0  0  0
 25 26  2  0  0  0
 26 27  1  0  0  0
 27 28  2  0  0  0
 28 29  1  0  0  0
 29 30  2  0  0  0
 30 22  1  0  0  0
 12  7  1  0  0  0
 30 25  1  0  0  0
 17 10  1  0  0  0
 14 18  1  0  0  0
 17 19  1  0  0  0
M  END
> <minimizedAffinity>
-8.66219

> <CNNscore>
0.3164495230

> <CNNaffinity>
5.4964389801

> <CNN_VS>
1.7393455505

> <CNNaffinity_variance>
0.2955870926

$$$$
[H]/C(C(=O)N(C([H])([H])[H])C([H])([H])c1sc2c([H])c([H])c([H])c([H])c2c1C([H])([H])[H])=C(/[H])c1c([H])nc2c(c1[H])C([H])([H])N([H])C([H])([H])C([H])([H])N2[H]


 30 33  0  0  0  0  0  0  0  0999 V2000
    3.5233    2.8107   16.5781 N   0  0  0  0  0  0  0  0  0  0  0  0
    2.8996    4.0968   16.4229 C   0  0  0  0  0  0  0  0  0  0  0  0
    2.8827    1.6889   15.8731 C   0  0  0  0  0  0  0  0  0  0  0  0
    3.0985    0.5137   16.1688 O   0  0  0  0  0  0  0  0  0  0  0  0
    2.0150    2.0224   14.7497 C   0  0  0  0  0  0  0  0  0  0  0  0
    2.6268    2.0895   13.5563 C   0  0  0  0  0  0  0  0  0  0  0  0
    1.8924    2.4284   12.3231 C   0  0  0  0  0  0  0  0  0  0  0  0
    1.4591    3.7214   12.1318 C   0  0  0  0  0  0  0  0  0  0  0  0
    0.6349    4.0809   11.0912 N   0  0  0  0  0  0  0  0  0  0  0  0
    0.2464    3.1197   10.2373 C   0  0  0  0  0  0  0  0  0  0  0  0
    0.6850    1.8214   10.4132 C   0  0  0  0  0  0  0  0  0  0  0  0
    1.5060    1.4586   11.4506 C   0  0  0  0  0  0  0  0  0  0  0  0
    0.3239    0.6903    9.4962 C   0  0  0  0  0  0  0  0  0  0  0  0
   -1.1029    0.5852    9.6216 N   0  0  0  0  0  0  0  0  0  0  0  0
   -1.8831    1.3916    8.7754 C   0  0  0  0  0  0  0  0  0  0  0  0
   -1.5200    2.7554    8.4129 C   0  0  0  0  0  0  0  0  0  0  0  0
   -0.7027    3.5601    9.2414 N   0  0  0  0  0  0  0  0  0  0  0  0
   -1.3248    0.6526   10.6433 H   0  0  0  0  0  0  0  0  0  0  0  0
   -0.7971    4.5946    9.1723 H   0  0  0  0  0  0  0  0  0  0  0  0
    4.6003    2.5047   17.3667 C   0  0  0  0  0  0  0  0  0  0  0  0
    5.5831    5.1243   18.8543 C   0  0  0  0  0  0  0  0  0  0  0  0
    4.9577    3.8845   19.5361 C   0  0  0  0  0  0  0  0  0  0  0  0
    4.8183    2.7622   18.7873 C   0  0  0  0  0  0  0  0  0  0  0  0
    4.2558    1.6148   20.0414 S   0  0  0  0  0  0  0  0  0  0  0  0
    4.2311    2.6701   21.3745 C   0  0  0  0  0  0  0  0  0  0  0  0
    3.8365    2.5388   22.7171 C   0  0  0  0  0  0  0  0  0  0  0  0
    3.8665    3.6021   23.5826 C   0  0  0  0  0  0  0  0  0  0  0  0
    4.3120    4.7949   23.0403 C   0  0  0  0  0  0  0  0  0  0  0  0
    4.6888    4.9294   21.7620 C   0  0  0  0  0  0  0  0  0  0  0  0
    4.6588    3.8492   20.8493 C   0  0  0  0  0  0  0  0  0  0  0  0
 21 22  1  0  0  0
 22 23  2  0  0  0
 23 20  1  0  0  0
 20  1  1  0  0  0
  1  2  1  0  0  0
  1  3  1  0  0  0
  3  4  2  0  0  0
  3  5  1  0  0  0
  5  6  2  0  0  0
  6  7  1  0  0  0
  7  8  2  0  0  0
  8  9  1  0  0  0
  9 10  2  0  0  0
 10 11  1  0  0  0
 11 12  2  0  0  0
 11 13  1  0  0  0
 13 14  1  0  0  0
 14 15  1  0  0  0
 15 16  1  0  0  0
 16 17  1  0  0  0
 23 24  1  0  0  0
 24 25  1  0  0  0
 25 26  2  0  0  0
 26 27  1  0  0  0
 27 28  2  0  0  0
 28 29  1  0  0  0
 29 30  2  0  0  0
 30 22  1  0  0  0
 12  7  1  0  0  0
 30 25  1  0  0  0
 17 10  1  0  0  0
 14 18  1  0  0  0
 17 19  1  0  0  0
M  END
> <minimizedAffinity>
-7.96949

> <CNNscore>
0.2715596557

> <CNNaffinity>
5.8333568573

> <CNN_VS>
1.5841044188

> <CNNaffinity_variance>
0.6538438797

$$$$
[H]/C(C(=O)N(C([H])([H])[H])C([H])([H])c1sc2c([H])c([H])c([H])c([H])c2c1C([H])([H])[H])=C(/[H])c1c([H])nc2c(c1[H])C([H])([H])N([H])C([H])([H])C([H])([H])N2[H]


 30 33  0  0  0  0  0  0  0  0999 V2000
    3.4801    2.8275   16.5536 N   0  0  0  0  0  0  0  0  0  0  0  0
    2.7947    4.0869   16.4474 C   0  0  0  0  0  0  0  0  0  0  0  0
    2.8913    1.7029   15.8090 C   0  0  0  0  0  0  0  0  0  0  0  0
    3.1645    0.5293   16.0606 O   0  0  0  0  0  0  0  0  0  0  0  0
    2.0042    2.0354   14.7006 C   0  0  0  0  0  0  0  0  0  0  0  0
    2.5989    2.1223   13.4999 C   0  0  0  0  0  0  0  0  0  0  0  0
    1.8434    2.4631   12.2800 C   0  0  0  0  0  0  0  0  0  0  0  0
    2.2304    1.9201   11.0752 C   0  0  0  0  0  0  0  0  0  0  0  0
    1.6818    2.3098    9.8758 N   0  0  0  0  0  0  0  0  0  0  0  0
    0.7322    3.2595    9.8991 C   0  0  0  0  0  0  0  0  0  0  0  0
    0.3280    3.8024   11.1036 C   0  0  0  0  0  0  0  0  0  0  0  0
    0.8739    3.4173   12.3017 C   0  0  0  0  0  0  0  0  0  0  0  0
   -0.7416    4.8470   11.2276 C   0  0  0  0  0  0  0  0  0  0  0  0
   -0.2110    5.9724   10.5104 N   0  0  0  0  0  0  0  0  0  0  0  0
   -0.4553    6.0258    9.1275 C   0  0  0  0  0  0  0  0  0  0  0  0
   -0.4507    4.8484    8.2690 C   0  0  0  0  0  0  0  0  0  0  0  0
    0.2892    3.6866    8.5922 N   0  0  0  0  0  0  0  0  0  0  0  0
    0.7917    6.0718   10.7977 H   0  0  0  0  0  0  0  0  0  0  0  0
    0.5936    3.0636    7.8156 H   0  0  0  0  0  0  0  0  0  0  0  0
    4.5736    2.5449   17.3280 C   0  0  0  0  0  0  0  0  0  0  0  0
    5.5727    5.1923   18.7543 C   0  0  0  0  0  0  0  0  0  0  0  0
    4.9618    3.9628   19.4673 C   0  0  0  0  0  0  0  0  0  0  0  0
    4.8136    2.8274   18.7403 C   0  0  0  0  0  0  0  0  0  0  0  0
    4.2746    1.7004   20.0229 S   0  0  0  0  0  0  0  0  0  0  0  0
    4.2683    2.7785   21.3378 C   0  0  0  0  0  0  0  0  0  0  0  0
    3.8956    2.6694   22.6887 C   0  0  0  0  0  0  0  0  0  0  0  0
    3.9365    3.7475   23.5351 C   0  0  0  0  0  0  0  0  0  0  0  0
    4.3699    4.9319   22.9653 C   0  0  0  0  0  0  0  0  0  0  0  0
    4.7257    5.0453   21.6789 C   0  0  0  0  0  0  0  0  0  0  0  0
    4.6841    3.9494   20.7856 C   0  0  0  0  0  0  0  0  0  0  0  0
 21 22  1  0  0  0
 22 23  2  0  0  0
 23 20  1  0  0  0
 20  1  1  0  0  0
  1  2  1  0  0  0
  1  3  1  0  0  0
  3  4  2  0  0  0
  3  5  1  0  0  0
  5  6  2  0  0  0
  6  7  1  0  0  0
  7  8  2  0  0  0
  8  9  1  0  0  0
  9 10  2  0  0  0
 10 11  1  0  0  0
 11 12  2  0  0  0
 11 13  1  0  0  0
 13 14  1  0  0  0
 14 15  1  0  0  0
 15 16  1  0  0  0
 16 17  1  0  0  0
 23 24  1  0  0  0
 24 25  1  0  0  0
 25 26  2  0  0  0
 26 27  1  0  0  0
 27 28  2  0  0  0
 28 29  1  0  0  0
 29 30  2  0  0  0
 30 22  1  0  0  0
 12  7  1  0  0  0
 30 25  1  0  0  0
 17 10  1  0  0  0
 14 18  1  0  0  0
 17 19  1  0  0  0
M  END
> <minimizedAffinity>
-7.59895

> <CNNscore>
0.2585346699

> <CNNaffinity>
5.7907524109

> <CNN_VS>
1.4971102476

> <CNNaffinity_variance>
0.5074432492

$$$$
[H]c1c([H])c([H])c(C([H])([H])N(C([H])([H])[H])C([H])([H])C([H])([H])OC(=O)C2=C(C([H])([H])[H])N=C(C([H])([H])[H])C([H])(C(=O)OC([H])([H])[H])C2([H])c2c([H])c([H])c([H])c([N+](=O)[O-])c2[H])c([H])c1[H]


 35 37  0  0  0  0  0  0  0  0999 V2000
    4.0307    4.9296   11.4571 C   0  0  0  0  0  0  0  0  0  0  0  0
    3.5352    6.1661   10.8436 C   0  0  0  0  0  0  0  0  0  0  0  0
    3.6598    6.2643    9.3318 C   0  0  0  0  0  0  0  0  0  0  0  0
    3.0212    7.1395   11.4511 N   0  0  0  0  0  0  0  0  0  0  0  0
    2.8658    7.1234   12.8567 C   0  0  0  0  0  0  0  0  0  0  0  0
    2.2603    8.3451   13.4961 C   0  0  0  0  0  0  0  0  0  0  0  0
    3.2609    6.0716   13.5428 C   0  0  0  0  0  0  0  0  0  0  0  0
    3.8446    4.8519   12.8996 C   0  0  0  0  0  0  0  0  0  0  0  0
    3.0194    3.6802   13.3229 C   0  0  0  0  0  0  0  0  0  0  0  0
    1.9085    3.2642   12.6423 C   0  0  0  0  0  0  0  0  0  0  0  0
    1.1801    2.1645   13.0485 C   0  0  0  0  0  0  0  0  0  0  0  0
    1.5823    1.4591   14.1777 C   0  0  0  0  0  0  0  0  0  0  0  0
    2.7066    1.8734   14.8734 C   0  0  0  0  0  0  0  0  0  0  0  0
    3.4099    2.9800   14.4350 C   0  0  0  0  0  0  0  0  0  0  0  0
    3.0980    1.1380   16.0218 N   0  0  0  0  0  0  0  0  0  0  0  0
    4.1278    1.4841   16.6215 O   0  0  0  0  0  0  0  0  0  0  0  0
    2.3933    0.0678   16.4957 O   0  0  0  0  0  0  0  0  0  0  0  0
    5.4856    4.8317   11.0535 C   0  0  0  0  0  0  0  0  0  0  0  0
    5.9541    3.8259   10.5212 O   0  0  0  0  0  0  0  0  0  0  0  0
    7.3556    6.2538   10.4147 C   0  0  0  0  0  0  0  0  0  0  0  0
    6.2924    5.9227   11.3026 O   0  0  0  0  0  0  0  0  0  0  0  0
    3.1054    6.0518   14.9886 C   0  0  0  0  0  0  0  0  0  0  0  0
    1.9244    5.8107   15.4460 O   0  0  0  0  0  0  0  0  0  0  0  0
    4.0576    6.2566   15.9597 O   0  0  0  0  0  0  0  0  0  0  0  0
    3.9652    5.4779   17.1651 C   0  0  0  0  0  0  0  0  0  0  0  0
    3.8504    6.3073   18.3803 C   0  0  0  0  0  0  0  0  0  0  0  0
    4.3492    5.8222   19.6024 N   0  0  0  0  0  0  0  0  0  0  0  0
    4.7110    6.6900   20.6306 C   0  0  0  0  0  0  0  0  0  0  0  0
    5.3180    4.7922   19.3465 C   0  0  0  0  0  0  0  0  0  0  0  0
    5.1542    3.5799   20.1719 C   0  0  0  0  0  0  0  0  0  0  0  0
    5.8845    3.3173   21.3165 C   0  0  0  0  0  0  0  0  0  0  0  0
    5.7007    2.1715   22.0601 C   0  0  0  0  0  0  0  0  0  0  0  0
    4.7543    1.2532   21.6487 C   0  0  0  0  0  0  0  0  0  0  0  0
    4.0168    1.4972   20.5109 C   0  0  0  0  0  0  0  0  0  0  0  0
    4.2179    2.6393   19.7918 C   0  0  0  0  0  0  0  0  0  0  0  0
 20 21  1  0  0  0
 21 18  1  0  0  0
 18 19  2  0  0  0
 18  1  1  0  0  0
  1  2  1  0  0  0
  2  3  1  0  0  0
  2  4  2  0  0  0
  4  5  1  0  0  0
  5  6  1  0  0  0
  5  7  2  0  0  0
  7 22  1  0  0  0
 22 23  2  0  0  0
 22 24  1  0  0  0
 24 25  1  0  0  0
 25 26  1  0  0  0
 26 27  1  0  0  0
 27 28  1  0  0  0
 27 29  1  0  0  0
 29 30  1  0  0  0
 30 31  2  0  0  0
 31 32  1  0  0  0
 32 33  2  0  0  0
 33 34  1  0  0  0
 34 35  2  0  0  0
  7  8  1  0  0  0
  8  9  1  0  0  0
  9 10  2  0  0  0
 10 11  1  0  0  0
 11 12  2  0  0  0
 12 13  1  0  0  0
 13 15  1  0  0  0
 15 16  2  0  0  0
 15 17  1  0  0  0
 13 14  2  0  0  0
  8  1  1  0  0  0
 14  9  1  0  0  0
 35 30  1  0  0  0
M  CHG 1  15   1
M  CHG 1  17  -1
M  END
> <minimizedAffinity>
-6.80185

> <CNNscore>
0.5607262254

> <CNNaffinity>
6.4053831100

> <CNN_VS>
3.5916662216

> <CNNaffinity_variance>
0.0179458912

$$$$
[H]c1c([H])c([H])c(C([H])([H])N(C([H])([H])[H])C([H])([H])C([H])([H])OC(=O)C2=C(C([H])([H])[H])N=C(C([H])([H])[H])C([H])(C(=O)OC([H])([H])[H])C2([H])c2c([H])c([H])c([H])c([N+](=O)[O-])c2[H])c([H])c1[H]


 35 37  0  0  0  0  0  0  0  0999 V2000
    3.0697    3.3180   13.1913 C   0  0  0  0  0  0  0  0  0  0  0  0
    1.7043    3.6011   12.7370 C   0  0  0  0  0  0  0  0  0  0  0  0
    1.1463    2.6778   11.6661 C   0  0  0  0  0  0  0  0  0  0  0  0
    0.9634    4.5284   13.1517 N   0  0  0  0  0  0  0  0  0  0  0  0
    1.4073    5.4267   14.1498 C   0  0  0  0  0  0  0  0  0  0  0  0
    0.4565    6.5182   14.5652 C   0  0  0  0  0  0  0  0  0  0  0  0
    2.6140    5.2899   14.6580 C   0  0  0  0  0  0  0  0  0  0  0  0
    3.5477    4.1910   14.2548 C   0  0  0  0  0  0  0  0  0  0  0  0
    3.9337    3.4499   15.4937 C   0  0  0  0  0  0  0  0  0  0  0  0
    4.9591    3.8415   16.3094 C   0  0  0  0  0  0  0  0  0  0  0  0
    5.2765    3.1458   17.4584 C   0  0  0  0  0  0  0  0  0  0  0  0
    4.5374    2.0178   17.7989 C   0  0  0  0  0  0  0  0  0  0  0  0
    3.4968    1.6137   16.9783 C   0  0  0  0  0  0  0  0  0  0  0  0
    3.2096    2.3370   15.8356 C   0  0  0  0  0  0  0  0  0  0  0  0
    2.7568    0.4605   17.3462 N   0  0  0  0  0  0  0  0  0  0  0  0
    2.7089    0.1480   18.5462 O   0  0  0  0  0  0  0  0  0  0  0  0
    2.0962   -0.3199   16.4401 O   0  0  0  0  0  0  0  0  0  0  0  0
    3.9326    3.3889   11.9505 C   0  0  0  0  0  0  0  0  0  0  0  0
    3.7807    2.6230   10.9992 O   0  0  0  0  0  0  0  0  0  0  0  0
    5.7022    4.5398   10.7375 C   0  0  0  0  0  0  0  0  0  0  0  0
    4.9163    4.3554   11.9109 O   0  0  0  0  0  0  0  0  0  0  0  0
    3.0755    6.2129   15.6826 C   0  0  0  0  0  0  0  0  0  0  0  0
    3.8553    7.1664   15.3017 O   0  0  0  0  0  0  0  0  0  0  0  0
    2.7929    6.2163   17.0287 O   0  0  0  0  0  0  0  0  0  0  0  0
    3.7876    6.7465   17.9219 C   0  0  0  0  0  0  0  0  0  0  0  0
    3.8495    6.0270   19.2088 C   0  0  0  0  0  0  0  0  0  0  0  0
    4.5401    6.5988   20.2921 N   0  0  0  0  0  0  0  0  0  0  0  0
    4.9072    7.9429   20.2865 C   0  0  0  0  0  0  0  0  0  0  0  0
    5.5926    5.7130   20.7073 C   0  0  0  0  0  0  0  0  0  0  0  0
    5.2063    4.7567   21.7627 C   0  0  0  0  0  0  0  0  0  0  0  0
    4.1216    4.9269   22.6034 C   0  0  0  0  0  0  0  0  0  0  0  0
    3.7942    4.0087   23.5777 C   0  0  0  0  0  0  0  0  0  0  0  0
    4.5762    2.8789   23.7201 C   0  0  0  0  0  0  0  0  0  0  0  0
    5.6611    2.6917   22.8919 C   0  0  0  0  0  0  0  0  0  0  0  0
    5.9644    3.6158   21.9349 C   0  0  0  0  0  0  0  0  0  0  0  0
 20 21  1  0  0  0
 21 18  1  0  0  0
 18 19  2  0  0  0
 18  1  1  0  0  0
  1  2  1  0  0  0
  2  3  1  0  0  0
  2  4  2  0  0  0
  4  5  1  0  0  0
  5  6  1  0  0  0
  5  7  2  0  0  0
  7 22  1  0  0  0
 22 23  2  0  0  0
 22 24  1  0  0  0
 24 25  1  0  0  0
 25 26  1  0  0  0
 26 27  1  0  0  0
 27 28  1  0  0  0
 27 29  1  0  0  0
 29 30  1  0  0  0
 30 31  2  0  0  0
 31 32  1  0  0  0
 32 33  2  0  0  0
 33 34  1  0  0  0
 34 35  2  0  0  0
  7  8  1  0  0  0
  8  9  1  0  0  0
  9 10  2  0  0  0
 10 11  1  0  0  0
 11 12  2  0  0  0
 12 13  1  0  0  0
 13 15  1  0  0  0
 15 16  2  0  0  0
 15 17  1  0  0  0
 13 14  2  0  0  0
  8  1  1  0  0  0
 14  9  1  0  0  0
 35 30  1  0  0  0
M  CHG 1  15   1
M  CHG 1  17  -1
M  END
> <minimizedAffinity>
-7.32944

> <CNNscore>
0.5188493729

> <CNNaffinity>
6.4349503517

> <CNN_VS>
3.3387699127

> <CNNaffinity_variance>
0.2266419679

$$$$
[H]c1c([H])c([H])c(C([H])([H])N(C([H])([H])[H])C([H])([H])C([H])([H])OC(=O)C2=C(C([H])([H])[H])N=C(C([H])([H])[H])C([H])(C(=O)OC([H])([H])[H])C2([H])c2c([H])c([H])c([H])c([N+](=O)[O-])c2[H])c([H])c1[H]


 35 37  0  0  0  0  0  0  0  0999 V2000
    4.6754    2.0756   20.7324 C   0  0  0  0  0  0  0  0  0  0  0  0
    3.7406    0.9485   20.6497 C   0  0  0  0  0  0  0  0  0  0  0  0
    3.3657    0.2870   21.9660 C   0  0  0  0  0  0  0  0  0  0  0  0
    3.2274    0.4882   19.5983 N   0  0  0  0  0  0  0  0  0  0  0  0
    3.5221    1.0510   18.3348 C   0  0  0  0  0  0  0  0  0  0  0  0
    2.8764    0.4163   17.1314 C   0  0  0  0  0  0  0  0  0  0  0  0
    4.3436    2.0766   18.2552 C   0  0  0  0  0  0  0  0  0  0  0  0
    4.9675    2.7156   19.4570 C   0  0  0  0  0  0  0  0  0  0  0  0
    4.6106    4.1664   19.4328 C   0  0  0  0  0  0  0  0  0  0  0  0
    3.3919    4.6290   19.0192 C   0  0  0  0  0  0  0  0  0  0  0  0
    3.0869    5.9750   19.0289 C   0  0  0  0  0  0  0  0  0  0  0  0
    4.0399    6.8871   19.4696 C   0  0  0  0  0  0  0  0  0  0  0  0
    5.2774    6.4275   19.8904 C   0  0  0  0  0  0  0  0  0  0  0  0
    5.5451    5.0714   19.8658 C   0  0  0  0  0  0  0  0  0  0  0  0
    6.2333    7.3765   20.3360 N   0  0  0  0  0  0  0  0  0  0  0  0
    5.8244    8.4469   20.8126 O   0  0  0  0  0  0  0  0  0  0  0  0
    7.5811    7.1650   20.2638 O   0  0  0  0  0  0  0  0  0  0  0  0
    5.9151    1.5256   21.4032 C   0  0  0  0  0  0  0  0  0  0  0  0
    6.4897    0.5161   20.9968 O   0  0  0  0  0  0  0  0  0  0  0  0
    5.5593    2.4287   23.6360 C   0  0  0  0  0  0  0  0  0  0  0  0
    6.3964    2.1993   22.5068 O   0  0  0  0  0  0  0  0  0  0  0  0
    4.6514    2.6569   16.9577 C   0  0  0  0  0  0  0  0  0  0  0  0
    5.7924    3.2448   16.8364 O   0  0  0  0  0  0  0  0  0  0  0  0
    3.8847    2.6681   15.8159 O   0  0  0  0  0  0  0  0  0  0  0  0
    3.8674    3.8729   15.0309 C   0  0  0  0  0  0  0  0  0  0  0  0
    3.4346    3.6478   13.6382 C   0  0  0  0  0  0  0  0  0  0  0  0
    2.0699    3.4573   13.3568 N   0  0  0  0  0  0  0  0  0  0  0  0
    1.5426    2.1817   13.1670 C   0  0  0  0  0  0  0  0  0  0  0  0
    1.6498    4.4105   12.3670 C   0  0  0  0  0  0  0  0  0  0  0  0
    0.4519    5.1887   12.7372 C   0  0  0  0  0  0  0  0  0  0  0  0
   -0.7695    5.0822   12.0974 C   0  0  0  0  0  0  0  0  0  0  0  0
   -1.8654    5.8281   12.4746 C   0  0  0  0  0  0  0  0  0  0  0  0
   -1.7404    6.7128   13.5280 C   0  0  0  0  0  0  0  0  0  0  0  0
   -0.5316    6.8329   14.1779 C   0  0  0  0  0  0  0  0  0  0  0  0
    0.5387    6.0831   13.7852 C   0  0  0  0  0  0  0  0  0  0  0  0
 20 21  1  0  0  0
 21 18  1  0  0  0
 18 19  2  0  0  0
 18  1  1  0  0  0
  1  2  1  0  0  0
  2  3  1  0  0  0
  2  4  2  0  0  0
  4  5  1  0  0  0
  5  6  1  0  0  0
  5  7  2  0  0  0
  7 22  1  0  0  0
 22 23  2  0  0  0
 22 24  1  0  0  0
 24 25  1  0  0  0
 25 26  1  0  0  0
 26 27  1  0  0  0
 27 28  1  0  0  0
 27 29  1  0  0  0
 29 30  1  0  0  0
 30 31  2  0  0  0
 31 32  1  0  0  0
 32 33  2  0  0  0
 33 34  1  0  0  0
 34 35  2  0  0  0
  7  8  1  0  0  0
  8  9  1  0  0  0
  9 10  2  0  0  0
 10 11  1  0  0  0
 11 12  2  0  0  0
 12 13  1  0  0  0
 13 15  1  0  0  0
 15 16  2  0  0  0
 15 17  1  0  0  0
 13 14  2  0  0  0
  8  1  1  0  0  0
 14  9  1  0  0  0
 35 30  1  0  0  0
M  CHG 1  15   1
M  CHG 1  17  -1
M  END
> <minimizedAffinity>
-8.01833

> <CNNscore>
0.4810318053

> <CNNaffinity>
6.4313497543

> <CNN_VS>
3.0936837196

> <CNNaffinity_variance>
0.3979063034

$$$$
[H]c1c([H])c([H])c(C([H])([H])N(C([H])([H])[H])C([H])([H])C([H])([H])OC(=O)C2=C(C([H])([H])[H])N=C(C([H])([H])[H])C([H])(C(=O)OC([H])([H])[H])C2([H])c2c([H])c([H])c([H])c([N+](=O)[O-])c2[H])c([H])c1[H]


 35 37  0  0  0  0  0  0  0  0999 V2000
    4.8598    1.6411   20.2090 C   0  0  0  0  0  0  0  0  0  0  0  0
    5.9959    1.5370   21.1305 C   0  0  0  0  0  0  0  0  0  0  0  0
    6.5231    0.1357   21.3935 C   0  0  0  0  0  0  0  0  0  0  0  0
    6.5661    2.4939   21.7138 N   0  0  0  0  0  0  0  0  0  0  0  0
    6.1382    3.8276   21.5181 C   0  0  0  0  0  0  0  0  0  0  0  0
    6.8691    4.9031   22.2778 C   0  0  0  0  0  0  0  0  0  0  0  0
    5.1294    4.0751   20.7094 C   0  0  0  0  0  0  0  0  0  0  0  0
    4.4190    3.0035   19.9419 C   0  0  0  0  0  0  0  0  0  0  0  0
    4.4827    3.3680   18.4942 C   0  0  0  0  0  0  0  0  0  0  0  0
    5.6320    3.2980   17.7562 C   0  0  0  0  0  0  0  0  0  0  0  0
    5.6521    3.6222   16.4149 C   0  0  0  0  0  0  0  0  0  0  0  0
    4.4765    4.0308   15.7942 C   0  0  0  0  0  0  0  0  0  0  0  0
    3.3073    4.1047   16.5340 C   0  0  0  0  0  0  0  0  0  0  0  0
    3.3277    3.7716   17.8757 C   0  0  0  0  0  0  0  0  0  0  0  0
    2.1204    4.5237   15.8793 N   0  0  0  0  0  0  0  0  0  0  0  0
    1.4972    5.4890   16.3481 O   0  0  0  0  0  0  0  0  0  0  0  0
    1.6338    3.9128   14.7584 O   0  0  0  0  0  0  0  0  0  0  0  0
    3.7679    0.7858   20.8136 C   0  0  0  0  0  0  0  0  0  0  0  0
    3.5345   -0.3570   20.4212 O   0  0  0  0  0  0  0  0  0  0  0  0
    3.4786    1.2489   23.1863 C   0  0  0  0  0  0  0  0  0  0  0  0
    3.0235    1.3312   21.8392 O   0  0  0  0  0  0  0  0  0  0  0  0
    4.6844    5.4447   20.5073 C   0  0  0  0  0  0  0  0  0  0  0  0
    3.7174    5.8608   21.2517 O   0  0  0  0  0  0  0  0  0  0  0  0
    5.1574    6.3813   19.6180 O   0  0  0  0  0  0  0  0  0  0  0  0
    4.2972    7.4842   19.2840 C   0  0  0  0  0  0  0  0  0  0  0  0
    4.8385    8.7884   19.7127 C   0  0  0  0  0  0  0  0  0  0  0  0
    5.7668    8.8426   20.7677 N   0  0  0  0  0  0  0  0  0  0  0  0
    5.4003    9.3061   22.0295 C   0  0  0  0  0  0  0  0  0  0  0  0
    7.0041    9.3919   20.2860 C   0  0  0  0  0  0  0  0  0  0  0  0
    8.1925    8.5650   20.5715 C   0  0  0  0  0  0  0  0  0  0  0  0
    9.0703    8.8034   21.6131 C   0  0  0  0  0  0  0  0  0  0  0  0
   10.1701    8.0059   21.8459 C   0  0  0  0  0  0  0  0  0  0  0  0
   10.4044    6.9312   21.0104 C   0  0  0  0  0  0  0  0  0  0  0  0
    9.5410    6.6776   19.9671 C   0  0  0  0  0  0  0  0  0  0  0  0
    8.4592    7.4823   19.7576 C   0  0  0  0  0  0  0  0  0  0  0  0
 20 21  1  0  0  0
 21 18  1  0  0  0
 18 19  2  0  0  0
 18  1  1  0  0  0
  1  2  1  0  0  0
  2  3  1  0  0  0
  2  4  2  0  0  0
  4  5  1  0  0  0
  5  6  1  0  0  0
  5  7  2  0  0  0
  7 22  1  0  0  0
 22 23  2  0  0  0
 22 24  1  0  0  0
 24 25  1  0  0  0
 25 26  1  0  0  0
 26 27  1  0  0  0
 27 28  1  0  0  0
 27 29  1  0  0  0
 29 30  1  0  0  0
 30 31  2  0  0  0
 31 32  1  0  0  0
 32 33  2  0  0  0
 33 34  1  0  0  0
 34 35  2  0  0  0
  7  8  1  0  0  0
  8  9  1  0  0  0
  9 10  2  0  0  0
 10 11  1  0  0  0
 11 12  2  0  0  0
 12 13  1  0  0  0
 13 15  1  0  0  0
 15 16  2  0  0  0
 15 17  1  0  0  0
 13 14  2  0  0  0
  8  1  1  0  0  0
 14  9  1  0  0  0
 35 30  1  0  0  0
M  CHG 1  15   1
M  CHG 1  17  -1
M  END
> <minimizedAffinity>
-6.41690

> <CNNscore>
0.3926822543

> <CNNaffinity>
6.3038268089

> <CNN_VS>
2.4754009247

> <CNNaffinity_variance>
0.0832417160

$$$$
[H]c1c([H])c([H])c(C([H])([H])N(C([H])([H])[H])C([H])([H])C([H])([H])OC(=O)C2=C(C([H])([H])[H])N=C(C([H])([H])[H])C([H])(C(=O)OC([H])([H])[H])C2([H])c2c([H])c([H])c([H])c([N+](=O)[O-])c2[H])c([H])c1[H]


 35 37  0  0  0  0  0  0  0  0999 V2000
    5.0057    2.0129   20.6097 C   0  0  0  0  0  0  0  0  0  0  0  0
    6.0612    2.2861   21.5905 C   0  0  0  0  0  0  0  0  0  0  0  0
    6.8259    1.0795   22.1101 C   0  0  0  0  0  0  0  0  0  0  0  0
    6.3861    3.4174   22.0326 N   0  0  0  0  0  0  0  0  0  0  0  0
    5.7261    4.5893   21.5954 C   0  0  0  0  0  0  0  0  0  0  0  0
    6.1707    5.8953   22.1993 C   0  0  0  0  0  0  0  0  0  0  0  0
    4.7581    4.4981   20.7079 C   0  0  0  0  0  0  0  0  0  0  0  0
    4.3333    3.1988   20.0967 C   0  0  0  0  0  0  0  0  0  0  0  0
    4.4437    3.3409   18.6133 C   0  0  0  0  0  0  0  0  0  0  0  0
    5.2318    4.2815   18.0097 C   0  0  0  0  0  0  0  0  0  0  0  0
    5.3275    4.3725   16.6358 C   0  0  0  0  0  0  0  0  0  0  0  0
    4.6061    3.4873   15.8418 C   0  0  0  0  0  0  0  0  0  0  0  0
    3.8052    2.5310   16.4447 C   0  0  0  0  0  0  0  0  0  0  0  0
    3.7355    2.4718   17.8242 C   0  0  0  0  0  0  0  0  0  0  0  0
    3.0791    1.6387   15.6143 N   0  0  0  0  0  0  0  0  0  0  0  0
    2.5345    0.6549   16.1394 O   0  0  0  0  0  0  0  0  0  0  0  0
    2.9532    1.8136   14.2653 O   0  0  0  0  0  0  0  0  0  0  0  0
    4.0538    1.0567   21.2944 C   0  0  0  0  0  0  0  0  0  0  0  0
    3.5141    1.3222   22.3681 O   0  0  0  0  0  0  0  0  0  0  0  0
    2.6522   -0.3056   19.8428 C   0  0  0  0  0  0  0  0  0  0  0  0
    3.8001   -0.1477   20.6711 O   0  0  0  0  0  0  0  0  0  0  0  0
    4.0749    5.7003   20.2576 C   0  0  0  0  0  0  0  0  0  0  0  0
    2.7972    5.6232   20.1030 O   0  0  0  0  0  0  0  0  0  0  0  0
    4.6066    6.9352   19.9676 O   0  0  0  0  0  0  0  0  0  0  0  0
    3.8752    7.7865   19.0685 C   0  0  0  0  0  0  0  0  0  0  0  0
    4.5402    7.9521   17.7616 C   0  0  0  0  0  0  0  0  0  0  0  0
    5.5424    8.9270   17.6105 N   0  0  0  0  0  0  0  0  0  0  0  0
    5.3680   10.0168   16.7601 C   0  0  0  0  0  0  0  0  0  0  0  0
    6.8182    8.2810   17.4693 C   0  0  0  0  0  0  0  0  0  0  0  0
    7.6079    8.2082   18.7138 C   0  0  0  0  0  0  0  0  0  0  0  0
    8.3583    7.1100   19.0923 C   0  0  0  0  0  0  0  0  0  0  0  0
    9.0828    7.0822   20.2644 C   0  0  0  0  0  0  0  0  0  0  0  0
    9.0592    8.1892   21.0903 C   0  0  0  0  0  0  0  0  0  0  0  0
    8.3174    9.2929   20.7303 C   0  0  0  0  0  0  0  0  0  0  0  0
    7.6084    9.2956   19.5644 C   0  0  0  0  0  0  0  0  0  0  0  0
 20 21  1  0  0  0
 21 18  1  0  0  0
 18 19  2  0  0  0
 18  1  1  0  0  0
  1  2  1  0  0  0
  2  3  1  0  0  0
  2  4  2  0  0  0
  4  5  1  0  0  0
  5  6  1  0  0  0
  5  7  2  0  0  0
  7 22  1  0  0  0
 22 23  2  0  0  0
 22 24  1  0  0  0
 24 25  1  0  0  0
 25 26  1  0  0  0
 26 27  1  0  0  0
 27 28  1  0  0  0
 27 29  1  0  0  0
 29 30  1  0  0  0
 30 31  2  0  0  0
 31 32  1  0  0  0
 32 33  2  0  0  0
 33 34  1  0  0  0
 34 35  2  0  0  0
  7  8  1  0  0  0
  8  9  1  0  0  0
  9 10  2  0  0  0
 10 11  1  0  0  0
 11 12  2  0  0  0
 12 13  1  0  0  0
 13 15  1  0  0  0
 15 16  2  0  0  0
 15 17  1  0  0  0
 13 14  2  0  0  0
  8  1  1  0  0  0
 14  9  1  0  0  0
 35 30  1  0  0  0
M  CHG 1  15   1
M  CHG 1  17  -1
M  END
> <minimizedAffinity>
-7.61259

> <CNNscore>
0.3880761266

> <CNNaffinity>
6.4079713821

> <CNN_VS>
2.4867806435

> <CNNaffinity_variance>
0.1126212254

$$$$
[H]c1c([H])c([H])c(C([H])([H])N(C([H])([H])[H])C([H])([H])C([H])([H])OC(=O)C2=C(C([H])([H])[H])N=C(C([H])([H])[H])C([H])(C(=O)OC([H])([H])[H])C2([H])c2c([H])c([H])c([H])c([N+](=O)[O-])c2[H])c([H])c1[H]


 35 37  0  0  0  0  0  0  0  0999 V2000
    5.0368    1.4150   20.3357 C   0  0  0  0  0  0  0  0  0  0  0  0
    6.1983    1.3402   21.2278 C   0  0  0  0  0  0  0  0  0  0  0  0
    6.8104   -0.0376   21.4219 C   0  0  0  0  0  0  0  0  0  0  0  0
    6.7267    2.3045   21.8375 N   0  0  0  0  0  0  0  0  0  0  0  0
    6.2192    3.6180   21.7058 C   0  0  0  0  0  0  0  0  0  0  0  0
    6.9054    4.7030   22.4932 C   0  0  0  0  0  0  0  0  0  0  0  0
    5.1791    3.8386   20.9294 C   0  0  0  0  0  0  0  0  0  0  0  0
    4.5130    2.7590   20.1340 C   0  0  0  0  0  0  0  0  0  0  0  0
    4.5218    3.1838   18.7013 C   0  0  0  0  0  0  0  0  0  0  0  0
    5.4176    4.0845   18.1948 C   0  0  0  0  0  0  0  0  0  0  0  0
    5.4118    4.4397   16.8612 C   0  0  0  0  0  0  0  0  0  0  0  0
    4.4732    3.8698   16.0076 C   0  0  0  0  0  0  0  0  0  0  0  0
    3.5618    2.9562   16.5120 C   0  0  0  0  0  0  0  0  0  0  0  0
    3.5995    2.6260   17.8540 C   0  0  0  0  0  0  0  0  0  0  0  0
    2.6142    2.3877   15.6223 N   0  0  0  0  0  0  0  0  0  0  0  0
    2.3819    1.1715   15.7059 O   0  0  0  0  0  0  0  0  0  0  0  0
    1.9476    3.1177   14.6793 O   0  0  0  0  0  0  0  0  0  0  0  0
    4.0098    0.4747   20.9278 C   0  0  0  0  0  0  0  0  0  0  0  0
    3.5858    0.6026   22.0760 O   0  0  0  0  0  0  0  0  0  0  0  0
    2.4318   -0.3562   19.2703 C   0  0  0  0  0  0  0  0  0  0  0  0
    3.5499   -0.5529   20.1304 O   0  0  0  0  0  0  0  0  0  0  0  0
    4.6524    5.1872   20.7931 C   0  0  0  0  0  0  0  0  0  0  0  0
    3.5222    5.4334   21.3626 O   0  0  0  0  0  0  0  0  0  0  0  0
    5.1984    6.2619   20.1307 O   0  0  0  0  0  0  0  0  0  0  0  0
    5.2084    7.5318   20.8056 C   0  0  0  0  0  0  0  0  0  0  0  0
    6.5536    8.1336   20.8824 C   0  0  0  0  0  0  0  0  0  0  0  0
    7.0588    8.5494   22.1272 N   0  0  0  0  0  0  0  0  0  0  0  0
    6.3821    9.4867   22.9050 C   0  0  0  0  0  0  0  0  0  0  0  0
    8.4679    8.8047   22.0085 C   0  0  0  0  0  0  0  0  0  0  0  0
    9.3259    7.6334   22.2723 C   0  0  0  0  0  0  0  0  0  0  0  0
   10.0619    6.9778   21.3023 C   0  0  0  0  0  0  0  0  0  0  0  0
   10.8521    5.8860   21.5906 C   0  0  0  0  0  0  0  0  0  0  0  0
   10.9117    5.4302   22.8932 C   0  0  0  0  0  0  0  0  0  0  0  0
   10.1856    6.0703   23.8735 C   0  0  0  0  0  0  0  0  0  0  0  0
    9.4104    7.1493   23.5624 C   0  0  0  0  0  0  0  0  0  0  0  0
 20 21  1  0  0  0
 21 18  1  0  0  0
 18 19  2  0  0  0
 18  1  1  0  0  0
  1  2  1  0  0  0
  2  3  1  0  0  0
  2  4  2  0  0  0
  4  5  1  0  0  0
  5  6  1  0  0  0
  5  7  2  0  0  0
  7 22  1  0  0  0
 22 23  2  0  0  0
 22 24  1  0  0  0
 24 25  1  0  0  0
 25 26  1  0  0  0
 26 27  1  0  0  0
 27 28  1  0  0  0
 27 29  1  0  0  0
 29 30  1  0  0  0
 30 31  2  0  0  0
 31 32  1  0  0  0
 32 33  2  0  0  0
 33 34  1  0  0  0
 34 35  2  0  0  0
  7  8  1  0  0  0
  8  9  1  0  0  0
  9 10  2  0  0  0
 10 11  1  0  0  0
 11 12  2  0  0  0
 12 13  1  0  0  0
 13 15  1  0  0  0
 15 16  2  0  0  0
 15 17  1  0  0  0
 13 14  2  0  0  0
  8  1  1  0  0  0
 14  9  1  0  0  0
 35 30  1  0  0  0
M  CHG 1  15   1
M  CHG 1  17  -1
M  END
> <minimizedAffinity>
-7.67657

> <CNNscore>
0.3556405604

> <CNNaffinity>
6.4989609718

> <CNN_VS>
2.3112940788

> <CNNaffinity_variance>
0.0892472416

$$$$
[H]c1c([H])c([H])c(C([H])([H])N(C([H])([H])[H])C([H])([H])C([H])([H])OC(=O)C2=C(C([H])([H])[H])N=C(C([H])([H])[H])C([H])(C(=O)OC([H])([H])[H])C2([H])c2c([H])c([H])c([H])c([N+](=O)[O-])c2[H])c([H])c1[H]


 35 37  0  0  0  0  0  0  0  0999 V2000
    4.7150    2.2927   20.7111 C   0  0  0  0  0  0  0  0  0  0  0  0
    3.7720    1.1716   20.6436 C   0  0  0  0  0  0  0  0  0  0  0  0
    3.4075    0.5180   21.9667 C   0  0  0  0  0  0  0  0  0  0  0  0
    3.2439    0.7104   19.5999 N   0  0  0  0  0  0  0  0  0  0  0  0
    3.5281    1.2661   18.3309 C   0  0  0  0  0  0  0  0  0  0  0  0
    2.8647    0.6308   17.1374 C   0  0  0  0  0  0  0  0  0  0  0  0
    4.3554    2.2858   18.2377 C   0  0  0  0  0  0  0  0  0  0  0  0
    4.9971    2.9255   19.4299 C   0  0  0  0  0  0  0  0  0  0  0  0
    4.6496    4.3786   19.4036 C   0  0  0  0  0  0  0  0  0  0  0  0
    3.4086    4.8438   19.0662 C   0  0  0  0  0  0  0  0  0  0  0  0
    3.1145    6.1923   19.0721 C   0  0  0  0  0  0  0  0  0  0  0  0
    4.1020    7.1042   19.4295 C   0  0  0  0  0  0  0  0  0  0  0  0
    5.3622    6.6419   19.7728 C   0  0  0  0  0  0  0  0  0  0  0  0
    5.6180    5.2833   19.7547 C   0  0  0  0  0  0  0  0  0  0  0  0
    6.3532    7.5906   20.1344 N   0  0  0  0  0  0  0  0  0  0  0  0
    6.1110    8.7944   19.9547 O   0  0  0  0  0  0  0  0  0  0  0  0
    7.5597    7.2388   20.6700 O   0  0  0  0  0  0  0  0  0  0  0  0
    5.9585    1.7372   21.3702 C   0  0  0  0  0  0  0  0  0  0  0  0
    6.3731    2.1559   22.4507 O   0  0  0  0  0  0  0  0  0  0  0  0
    7.3412   -0.2651   21.4509 C   0  0  0  0  0  0  0  0  0  0  0  0
    6.6314    0.7265   20.7151 O   0  0  0  0  0  0  0  0  0  0  0  0
    4.6525    2.8586   16.9345 C   0  0  0  0  0  0  0  0  0  0  0  0
    5.8626    3.2551   16.7326 O   0  0  0  0  0  0  0  0  0  0  0  0
    3.8107    3.0414   15.8623 O   0  0  0  0  0  0  0  0  0  0  0  0
    4.0176    4.2004   15.0365 C   0  0  0  0  0  0  0  0  0  0  0  0
    3.3312    4.1102   13.7333 C   0  0  0  0  0  0  0  0  0  0  0  0
    2.3800    5.0839   13.3799 N   0  0  0  0  0  0  0  0  0  0  0  0
    1.4748    5.5823   14.3145 C   0  0  0  0  0  0  0  0  0  0  0  0
    1.7789    4.7292   12.1239 C   0  0  0  0  0  0  0  0  0  0  0  0
    1.8953    5.7626   11.0768 C   0  0  0  0  0  0  0  0  0  0  0  0
    0.9820    5.9345   10.0528 C   0  0  0  0  0  0  0  0  0  0  0  0
    1.1274    6.9133    9.0934 C   0  0  0  0  0  0  0  0  0  0  0  0
    2.2230    7.7521    9.1562 C   0  0  0  0  0  0  0  0  0  0  0  0
    3.1439    7.5965   10.1691 C   0  0  0  0  0  0  0  0  0  0  0  0
    2.9773    6.6195   11.1069 C   0  0  0  0  0  0  0  0  0  0  0  0
 20 21  1  0  0  0
 21 18  1  0  0  0
 18 19  2  0  0  0
 18  1  1  0  0  0
  1  2  1  0  0  0
  2  3  1  0  0  0
  2  4  2  0  0  0
  4  5  1  0  0  0
  5  6  1  0  0  0
  5  7  2  0  0  0
  7 22  1  0  0  0
 22 23  2  0  0  0
 22 24  1  0  0  0
 24 25  1  0  0  0
 25 26  1  0  0  0
 26 27  1  0  0  0
 27 28  1  0  0  0
 27 29  1  0  0  0
 29 30  1  0  0  0
 30 31  2  0  0  0
 31 32  1  0  0  0
 32 33  2  0  0  0
 33 34  1  0  0  0
 34 35  2  0  0  0
  7  8  1  0  0  0
  8  9  1  0  0  0
  9 10  2  0  0  0
 10 11  1  0  0  0
 11 12  2  0  0  0
 12 13  1  0  0  0
 13 15  1  0  0  0
 15 16  2  0  0  0
 15 17  1  0  0  0
 13 14  2  0  0  0
  8  1  1  0  0  0
 14  9  1  0  0  0
 35 30  1  0  0  0
M  CHG 1  15   1
M  CHG 1  17  -1
M  END
> <minimizedAffinity>
-6.68351

> <CNNscore>
0.3448936045

> <CNNaffinity>
5.9787783623

> <CNN_VS>
2.0620424747

> <CNNaffinity_variance>
0.1558503807

$$$$
[H]c1c([H])c([H])c(C([H])([H])N(C([H])([H])[H])C([H])([H])C([H])([H])OC(=O)C2=C(C([H])([H])[H])N=C(C([H])([H])[H])C([H])(C(=O)OC([H])([H])[H])C2([H])c2c([H])c([H])c([H])c([N+](=O)[O-])c2[H])c([H])c1[H]


 35 37  0  0  0  0  0  0  0  0999 V2000
    7.2805    6.6541   22.2856 C   0  0  0  0  0  0  0  0  0  0  0  0
    8.3797    6.7997   21.3256 C   0  0  0  0  0  0  0  0  0  0  0  0
    9.7742    6.9366   21.9148 C   0  0  0  0  0  0  0  0  0  0  0  0
    8.2709    6.8193   20.0732 N   0  0  0  0  0  0  0  0  0  0  0  0
    7.0087    6.6931   19.4478 C   0  0  0  0  0  0  0  0  0  0  0  0
    6.9775    6.7509   17.9432 C   0  0  0  0  0  0  0  0  0  0  0  0
    5.9285    6.5482   20.1861 C   0  0  0  0  0  0  0  0  0  0  0  0
    5.9679    6.4721   21.6810 C   0  0  0  0  0  0  0  0  0  0  0  0
    5.3076    5.1939   22.0850 C   0  0  0  0  0  0  0  0  0  0  0  0
    4.1772    5.1474   22.8532 C   0  0  0  0  0  0  0  0  0  0  0  0
    3.5802    3.9499   23.1914 C   0  0  0  0  0  0  0  0  0  0  0  0
    4.1390    2.7583   22.7417 C   0  0  0  0  0  0  0  0  0  0  0  0
    5.2843    2.7957   21.9629 C   0  0  0  0  0  0  0  0  0  0  0  0
    5.8529    4.0153   21.6454 C   0  0  0  0  0  0  0  0  0  0  0  0
    5.8359    1.5676   21.5155 N   0  0  0  0  0  0  0  0  0  0  0  0
    5.0763    0.7323   21.0005 O   0  0  0  0  0  0  0  0  0  0  0  0
    7.1633    1.2640   21.6264 O   0  0  0  0  0  0  0  0  0  0  0  0
    7.3479    7.8814   23.1680 C   0  0  0  0  0  0  0  0  0  0  0  0
    7.0151    8.9971   22.7692 O   0  0  0  0  0  0  0  0  0  0  0  0
    8.2259    8.8371   25.2279 C   0  0  0  0  0  0  0  0  0  0  0  0
    7.8019    7.7150   24.4601 O   0  0  0  0  0  0  0  0  0  0  0  0
    4.6283    6.4207   19.5473 C   0  0  0  0  0  0  0  0  0  0  0  0
    3.8965    7.4809   19.4949 O   0  0  0  0  0  0  0  0  0  0  0  0
    4.0546    5.3082   18.9773 O   0  0  0  0  0  0  0  0  0  0  0  0
    2.7078    5.4243   18.4867 C   0  0  0  0  0  0  0  0  0  0  0  0
    2.5969    5.1634   17.0385 C   0  0  0  0  0  0  0  0  0  0  0  0
    3.7272    5.3173   16.2162 N   0  0  0  0  0  0  0  0  0  0  0  0
    4.0389    6.5465   15.6390 C   0  0  0  0  0  0  0  0  0  0  0  0
    3.8050    4.2118   15.3014 C   0  0  0  0  0  0  0  0  0  0  0  0
    3.6599    2.8853   15.9314 C   0  0  0  0  0  0  0  0  0  0  0  0
    2.7285    1.9402   15.5419 C   0  0  0  0  0  0  0  0  0  0  0  0
    2.6255    0.7113   16.1572 C   0  0  0  0  0  0  0  0  0  0  0  0
    3.4818    0.4123   17.1991 C   0  0  0  0  0  0  0  0  0  0  0  0
    4.4165    1.3411   17.6014 C   0  0  0  0  0  0  0  0  0  0  0  0
    4.4983    2.5511   16.9760 C   0  0  0  0  0  0  0  0  0  0  0  0
 20 21  1  0  0  0
 21 18  1  0  0  0
 18 19  2  0  0  0
 18  1  1  0  0  0
  1  2  1  0  0  0
  2  3  1  0  0  0
  2  4  2  0  0  0
  4  5  1  0  0  0
  5  6  1  0  0  0
  5  7  2  0  0  0
  7 22  1  0  0  0
 22 23  2  0  0  0
 22 24  1  0  0  0
 24 25  1  0  0  0
 25 26  1  0  0  0
 26 27  1  0  0  0
 27 28  1  0  0  0
 27 29  1  0  0  0
 29 30  1  0  0  0
 30 31  2  0  0  0
 31 32  1  0  0  0
 32 33  2  0  0  0
 33 34  1  0  0  0
 34 35  2  0  0  0
  7  8  1  0  0  0
  8  9  1  0  0  0
  9 10  2  0  0  0
 10 11  1  0  0  0
 11 12  2  0  0  0
 12 13  1  0  0  0
 13 15  1  0  0  0
 15 16  2  0  0  0
 15 17  1  0  0  0
 13 14  2  0  0  0
  8  1  1  0  0  0
 14  9  1  0  0  0
 35 30  1  0  0  0
M  CHG 1  15   1
M  CHG 1  17  -1
M  END
> <minimizedAffinity>
-8.24054

> <CNNscore>
0.3247770369

> <CNNaffinity>
6.2656564713

> <CNN_VS>
2.0349414349

> <CNNaffinity_variance>
0.3307823539

$$$$
[H]c1c([H])c([H])c(C([H])([H])N(C([H])([H])[H])C([H])([H])C([H])([H])OC(=O)C2=C(C([H])([H])[H])N=C(C([H])([H])[H])C([H])(C(=O)OC([H])([H])[H])C2([H])c2c([H])c([H])c([H])c([N+](=O)[O-])c2[H])c([H])c1[H]


 35 37  0  0  0  0  0  0  0  0999 V2000
    3.0656    5.6027   14.5865 C   0  0  0  0  0  0  0  0  0  0  0  0
    2.2578    6.6840   14.0129 C   0  0  0  0  0  0  0  0  0  0  0  0
    1.1485    6.2639   13.0624 C   0  0  0  0  0  0  0  0  0  0  0  0
    2.3999    7.9130   14.2371 N   0  0  0  0  0  0  0  0  0  0  0  0
    3.4056    8.3840   15.1127 C   0  0  0  0  0  0  0  0  0  0  0  0
    3.5119    9.8746   15.2999 C   0  0  0  0  0  0  0  0  0  0  0  0
    4.2051    7.5239   15.7078 C   0  0  0  0  0  0  0  0  0  0  0  0
    4.0822    6.0420   15.5326 C   0  0  0  0  0  0  0  0  0  0  0  0
    3.9202    5.4394   16.8904 C   0  0  0  0  0  0  0  0  0  0  0  0
    3.3542    6.1069   17.9412 C   0  0  0  0  0  0  0  0  0  0  0  0
    3.2004    5.5136   19.1778 C   0  0  0  0  0  0  0  0  0  0  0  0
    3.6306    4.2041   19.3642 C   0  0  0  0  0  0  0  0  0  0  0  0
    4.2052    3.5201   18.3052 C   0  0  0  0  0  0  0  0  0  0  0  0
    4.3420    4.1489   17.0816 C   0  0  0  0  0  0  0  0  0  0  0  0
    4.6360    2.1853   18.5190 N   0  0  0  0  0  0  0  0  0  0  0  0
    4.6943    1.4206   17.5433 O   0  0  0  0  0  0  0  0  0  0  0  0
    4.9885    1.7052   19.7485 O   0  0  0  0  0  0  0  0  0  0  0  0
    3.6537    4.8649   13.4037 C   0  0  0  0  0  0  0  0  0  0  0  0
    3.4933    3.6562   13.2366 O   0  0  0  0  0  0  0  0  0  0  0  0
    4.9204    4.9790   11.3276 C   0  0  0  0  0  0  0  0  0  0  0  0
    4.3910    5.5973   12.4964 O   0  0  0  0  0  0  0  0  0  0  0  0
    5.2424    8.0041   16.6069 C   0  0  0  0  0  0  0  0  0  0  0  0
    6.4586    7.9375   16.1844 O   0  0  0  0  0  0  0  0  0  0  0  0
    5.1100    8.5318   17.8701 O   0  0  0  0  0  0  0  0  0  0  0  0
    6.2707    8.5396   18.7192 C   0  0  0  0  0  0  0  0  0  0  0  0
    6.2841    7.4267   19.6881 C   0  0  0  0  0  0  0  0  0  0  0  0
    5.5927    7.5570   20.9057 N   0  0  0  0  0  0  0  0  0  0  0  0
    5.0407    8.7752   21.2963 C   0  0  0  0  0  0  0  0  0  0  0  0
    6.3311    6.8960   21.9462 C   0  0  0  0  0  0  0  0  0  0  0  0
    5.8184    5.5597   22.3055 C   0  0  0  0  0  0  0  0  0  0  0  0
    6.5605    4.3960   22.2194 C   0  0  0  0  0  0  0  0  0  0  0  0
    6.0437    3.1660   22.5653 C   0  0  0  0  0  0  0  0  0  0  0  0
    4.7393    3.0922   23.0138 C   0  0  0  0  0  0  0  0  0  0  0  0
    3.9840    4.2407   23.1065 C   0  0  0  0  0  0  0  0  0  0  0  0
    4.5189    5.4466   22.7577 C   0  0  0  0  0  0  0  0  0  0  0  0
 20 21  1  0  0  0
 21 18  1  0  0  0
 18 19  2  0  0  0
 18  1  1  0  0  0
  1  2  1  0  0  0
  2  3  1  0  0  0
  2  4  2  0  0  0
  4  5  1  0  0  0
  5  6  1  0  0  0
  5  7  2  0  0  0
  7 22  1  0  0  0
 22 23  2  0  0  0
 22 24  1  0  0  0
 24 25  1  0  0  0
 25 26  1  0  0  0
 26 27  1  0  0  0
 27 28  1  0  0  0
 27 29  1  0  0  0
 29 30  1  0  0  0
 30 31  2  0  0  0
 31 32  1  0  0  0
 32 33  2  0  0  0
 33 34  1  0  0  0
 34 35  2  0  0  0
  7  8  1  0  0  0
  8  9  1  0  0  0
  9 10  2  0  0  0
 10 11  1  0  0  0
 11 12  2  0  0  0
 12 13  1  0  0  0
 13 15  1  0  0  0
 15 16  2  0  0  0
 15 17  1  0  0  0
 13 14  2  0  0  0
  8  1  1  0  0  0
 14  9  1  0  0  0
 35 30  1  0  0  0
M  CHG 1  15   1
M  CHG 1  17  -1
M  END
> <minimizedAffinity>
-6.84593

> <CNNscore>
0.2961818278

> <CNNaffinity>
5.8953895569

> <CNN_VS>
1.7461072206

> <CNNaffinity_variance>
0.1627271622

$$$$
[H]/C(=C(\[H])C([H])([H])C([H])([H])C([H])([H])C([H])([H])C([H])([H])C([H])([H])C([H])([H])C([H])([H])[H])C([H])([H])C([H])([H])C([H])([H])C([H])([H])C([H])([H])C([H])([H])C([H])([H])C(=O)c1nc2c([H])c([H])c([H])nc2o1


 28 29  0  0  0  0  0  0  0  0999 V2000
    3.4618    3.2606   14.4076 C   0  0  0  0  0  0  0  0  0  0  0  0
    3.1588    1.9623   14.9845 C   0  0  0  0  0  0  0  0  0  0  0  0
    3.0758    1.6848   16.4168 C   0  0  0  0  0  0  0  0  0  0  0  0
    3.3607    0.2966   16.8935 C   0  0  0  0  0  0  0  0  0  0  0  0
    2.7717    0.0905   18.2686 C   0  0  0  0  0  0  0  0  0  0  0  0
    1.7146   -0.5650   18.3714 O   0  0  0  0  0  0  0  0  0  0  0  0
    3.4096    0.6348   19.4344 C   0  0  0  0  0  0  0  0  0  0  0  0
    2.9728    0.5001   20.7115 N   0  0  0  0  0  0  0  0  0  0  0  0
    3.8126    1.1374   21.5483 C   0  0  0  0  0  0  0  0  0  0  0  0
    3.8962    1.3463   22.8972 C   0  0  0  0  0  0  0  0  0  0  0  0
    4.9371    2.0762   23.4123 C   0  0  0  0  0  0  0  0  0  0  0  0
    5.8869    2.5889   22.5491 C   0  0  0  0  0  0  0  0  0  0  0  0
    5.8152    2.3882   21.2054 N   0  0  0  0  0  0  0  0  0  0  0  0
    4.7921    1.6725   20.7129 C   0  0  0  0  0  0  0  0  0  0  0  0
    4.5096    1.3473   19.4679 O   0  0  0  0  0  0  0  0  0  0  0  0
    2.4749    4.0411   13.6413 C   0  0  0  0  0  0  0  0  0  0  0  0
    1.8618    5.1842   14.3742 C   0  0  0  0  0  0  0  0  0  0  0  0
    1.3483    6.3052   13.4828 C   0  0  0  0  0  0  0  0  0  0  0  0
   -1.0814    6.3287   13.6432 C   0  0  0  0  0  0  0  0  0  0  0  0
    0.0785    6.8017   14.0271 C   0  0  0  0  0  0  0  0  0  0  0  0
   -1.2547    5.2836   12.6595 C   0  0  0  0  0  0  0  0  0  0  0  0
   -1.7765    5.8023   11.3211 C   0  0  0  0  0  0  0  0  0  0  0  0
   -0.9763    5.2965   10.1785 C   0  0  0  0  0  0  0  0  0  0  0  0
    0.0744    4.2504   10.5499 C   0  0  0  0  0  0  0  0  0  0  0  0
    1.4498    4.7025   10.2388 C   0  0  0  0  0  0  0  0  0  0  0  0
    1.6558    5.9008    9.4029 C   0  0  0  0  0  0  0  0  0  0  0  0
    2.5036    8.2132    9.0813 C   0  0  0  0  0  0  0  0  0  0  0  0
    1.9800    7.1965   10.0381 C   0  0  0  0  0  0  0  0  0  0  0  0
 27 28  1  0  0  0
 28 26  1  0  0  0
 26 25  1  0  0  0
 25 24  1  0  0  0
 24 23  1  0  0  0
 23 22  1  0  0  0
 22 21  1  0  0  0
 21 19  1  0  0  0
 19 20  2  0  0  0
 20 18  1  0  0  0
 18 17  1  0  0  0
 17 16  1  0  0  0
 16  1  1  0  0  0
  1  2  1  0  0  0
  2  3  1  0  0  0
  3  4  1  0  0  0
  4  5  1  0  0  0
  5  6  2  0  0  0
  5  7  1  0  0  0
  7  8  2  0  0  0
  8  9  1  0  0  0
  9 10  2  0  0  0
 10 11  1  0  0  0
 11 12  2  0  0  0
 12 13  1  0  0  0
 13 14  2  0  0  0
 14 15  1  0  0  0
 15  7  1  0  0  0
 14  9  1  0  0  0
M  END
> <minimizedAffinity>
-5.57933

> <CNNscore>
0.6200948954

> <CNNaffinity>
6.3746786118

> <CNN_VS>
3.9529056549

> <CNNaffinity_variance>
0.1177355871

$$$$
[H]/C(=C(\[H])C([H])([H])C([H])([H])C([H])([H])C([H])([H])C([H])([H])C([H])([H])C([H])([H])C([H])([H])[H])C([H])([H])C([H])([H])C([H])([H])C([H])([H])C([H])([H])C([H])([H])C([H])([H])C(=O)c1nc2c([H])c([H])c([H])nc2o1


 28 29  0  0  0  0  0  0  0  0999 V2000
    5.9835    1.9068   21.8787 C   0  0  0  0  0  0  0  0  0  0  0  0
    4.8267    1.1661   21.4062 C   0  0  0  0  0  0  0  0  0  0  0  0
    4.0169    1.5345   20.2469 C   0  0  0  0  0  0  0  0  0  0  0  0
    4.5764    1.2990   18.8804 C   0  0  0  0  0  0  0  0  0  0  0  0
    3.4591    1.0117   17.9062 C   0  0  0  0  0  0  0  0  0  0  0  0
    2.5784    0.1908   18.2355 O   0  0  0  0  0  0  0  0  0  0  0  0
    3.4069    1.6653   16.6285 C   0  0  0  0  0  0  0  0  0  0  0  0
    2.8266    1.1679   15.5079 N   0  0  0  0  0  0  0  0  0  0  0  0
    2.9658    2.0453   14.4968 C   0  0  0  0  0  0  0  0  0  0  0  0
    2.6043    2.1023   13.1791 C   0  0  0  0  0  0  0  0  0  0  0  0
    2.9316    3.2024   12.4279 C   0  0  0  0  0  0  0  0  0  0  0  0
    3.6255    4.2382   13.0244 C   0  0  0  0  0  0  0  0  0  0  0  0
    3.9908    4.1937   14.3341 N   0  0  0  0  0  0  0  0  0  0  0  0
    3.6651    3.1122   15.0593 C   0  0  0  0  0  0  0  0  0  0  0  0
    3.9041    2.8401   16.3260 O   0  0  0  0  0  0  0  0  0  0  0  0
    5.9367    2.7890   23.0577 C   0  0  0  0  0  0  0  0  0  0  0  0
    4.5851    2.9804   23.6545 C   0  0  0  0  0  0  0  0  0  0  0  0
    3.8550    4.2283   23.1807 C   0  0  0  0  0  0  0  0  0  0  0  0
    4.6819    5.6124   21.3559 C   0  0  0  0  0  0  0  0  0  0  0  0
    4.8262    5.1449   22.5713 C   0  0  0  0  0  0  0  0  0  0  0  0
    3.5754    5.2936   20.4818 C   0  0  0  0  0  0  0  0  0  0  0  0
    3.9949    5.1255   19.0229 C   0  0  0  0  0  0  0  0  0  0  0  0
    5.4176    4.7238   18.8961 C   0  0  0  0  0  0  0  0  0  0  0  0
    6.1405    5.3123   17.6847 C   0  0  0  0  0  0  0  0  0  0  0  0
    6.5597    6.7148   17.9092 C   0  0  0  0  0  0  0  0  0  0  0  0
    7.5875    7.0191   18.9230 C   0  0  0  0  0  0  0  0  0  0  0  0
    7.8989    7.6062   21.3163 C   0  0  0  0  0  0  0  0  0  0  0  0
    7.2926    7.9815   20.0067 C   0  0  0  0  0  0  0  0  0  0  0  0
 27 28  1  0  0  0
 28 26  1  0  0  0
 26 25  1  0  0  0
 25 24  1  0  0  0
 24 23  1  0  0  0
 23 22  1  0  0  0
 22 21  1  0  0  0
 21 19  1  0  0  0
 19 20  2  0  0  0
 20 18  1  0  0  0
 18 17  1  0  0  0
 17 16  1  0  0  0
 16  1  1  0  0  0
  1  2  1  0  0  0
  2  3  1  0  0  0
  3  4  1  0  0  0
  4  5  1  0  0  0
  5  6  2  0  0  0
  5  7  1  0  0  0
  7  8  2  0  0  0
  8  9  1  0  0  0
  9 10  2  0  0  0
 10 11  1  0  0  0
 11 12  2  0  0  0
 12 13  1  0  0  0
 13 14  2  0  0  0
 14 15  1  0  0  0
 15  7  1  0  0  0
 14  9  1  0  0  0
M  END
> <minimizedAffinity>
-6.16710

> <CNNscore>
0.5678066015

> <CNNaffinity>
6.7285752296

> <CNN_VS>
3.8205294609

> <CNNaffinity_variance>
0.1267938018

$$$$
[H]/C(=C(\[H])C([H])([H])C([H])([H])C([H])([H])C([H])([H])C([H])([H])C([H])([H])C([H])([H])C([H])([H])[H])C([H])([H])C([H])([H])C([H])([H])C([H])([H])C([H])([H])C([H])([H])C([H])([H])C(=O)c1nc2c([H])c([H])c([H])nc2o1


 28 29  0  0  0  0  0  0  0  0999 V2000
    5.6099    1.9474   20.2098 C   0  0  0  0  0  0  0  0  0  0  0  0
    4.5253    2.7289   19.6415 C   0  0  0  0  0  0  0  0  0  0  0  0
    3.8484    2.4246   18.3826 C   0  0  0  0  0  0  0  0  0  0  0  0
    4.1770    1.1428   17.6863 C   0  0  0  0  0  0  0  0  0  0  0  0
    3.1339    0.8420   16.6367 C   0  0  0  0  0  0  0  0  0  0  0  0
    2.3921   -0.1482   16.8012 O   0  0  0  0  0  0  0  0  0  0  0  0
    2.9951    1.6731   15.4739 C   0  0  0  0  0  0  0  0  0  0  0  0
    1.9618    1.6397   14.5957 N   0  0  0  0  0  0  0  0  0  0  0  0
    2.1592    2.5537   13.6274 C   0  0  0  0  0  0  0  0  0  0  0  0
    1.4910    2.9713   12.5097 C   0  0  0  0  0  0  0  0  0  0  0  0
    2.0192    3.9693   11.7310 C   0  0  0  0  0  0  0  0  0  0  0  0
    3.2257    4.5360   12.0963 C   0  0  0  0  0  0  0  0  0  0  0  0
    3.9001    4.1296   13.2057 N   0  0  0  0  0  0  0  0  0  0  0  0
    3.3736    3.1522   13.9600 C   0  0  0  0  0  0  0  0  0  0  0  0
    3.8308    2.5961   15.0633 O   0  0  0  0  0  0  0  0  0  0  0  0
    5.3959    0.9292   21.2529 C   0  0  0  0  0  0  0  0  0  0  0  0
    3.9710    0.5956   21.5320 C   0  0  0  0  0  0  0  0  0  0  0  0
    3.4401    1.1391   22.8502 C   0  0  0  0  0  0  0  0  0  0  0  0
    4.5183    3.1444   23.7138 C   0  0  0  0  0  0  0  0  0  0  0  0
    4.5239    1.8452   23.5442 C   0  0  0  0  0  0  0  0  0  0  0  0
    3.4704    4.0262   23.2509 C   0  0  0  0  0  0  0  0  0  0  0  0
    3.9993    5.2182   22.4560 C   0  0  0  0  0  0  0  0  0  0  0  0
    5.4589    5.1179   22.2083 C   0  0  0  0  0  0  0  0  0  0  0  0
    6.1430    6.4457   21.8840 C   0  0  0  0  0  0  0  0  0  0  0  0
    6.8065    6.4256   20.5602 C   0  0  0  0  0  0  0  0  0  0  0  0
    6.0557    5.9801   19.3708 C   0  0  0  0  0  0  0  0  0  0  0  0
    3.6403    6.4245   18.9994 C   0  0  0  0  0  0  0  0  0  0  0  0
    5.0434    6.8696   18.7615 C   0  0  0  0  0  0  0  0  0  0  0  0
 27 28  1  0  0  0
 28 26  1  0  0  0
 26 25  1  0  0  0
 25 24  1  0  0  0
 24 23  1  0  0  0
 23 22  1  0  0  0
 22 21  1  0  0  0
 21 19  1  0  0  0
 19 20  2  0  0  0
 20 18  1  0  0  0
 18 17  1  0  0  0
 17 16  1  0  0  0
 16  1  1  0  0  0
  1  2  1  0  0  0
  2  3  1  0  0  0
  3  4  1  0  0  0
  4  5  1  0  0  0
  5  6  2  0  0  0
  5  7  1  0  0  0
  7  8  2  0  0  0
  8  9  1  0  0  0
  9 10  2  0  0  0
 10 11  1  0  0  0
 11 12  2  0  0  0
 12 13  1  0  0  0
 13 14  2  0  0  0
 14 15  1  0  0  0
 15  7  1  0  0  0
 14  9  1  0  0  0
M  END
> <minimizedAffinity>
-6.19503

> <CNNscore>
0.4272685051

> <CNNaffinity>
6.5126867294

> <CNN_VS>
2.7826659679

> <CNNaffinity_variance>
0.1931341588

$$$$
[H]/C(=C(\[H])C([H])([H])C([H])([H])C([H])([H])C([H])([H])C([H])([H])C([H])([H])C([H])([H])C([H])([H])[H])C([H])([H])C([H])([H])C([H])([H])C([H])([H])C([H])([H])C([H])([H])C([H])([H])C(=O)c1nc2c([H])c([H])c([H])nc2o1


 28 29  0  0  0  0  0  0  0  0999 V2000
    3.4378    2.9521   14.2769 C   0  0  0  0  0  0  0  0  0  0  0  0
    2.9199    1.7652   14.9351 C   0  0  0  0  0  0  0  0  0  0  0  0
    2.8586    1.5737   16.3825 C   0  0  0  0  0  0  0  0  0  0  0  0
    3.3087    0.2656   16.9499 C   0  0  0  0  0  0  0  0  0  0  0  0
    2.7326    0.0757   18.3327 C   0  0  0  0  0  0  0  0  0  0  0  0
    1.6720   -0.5714   18.4522 O   0  0  0  0  0  0  0  0  0  0  0  0
    3.3862    0.6257   19.4872 C   0  0  0  0  0  0  0  0  0  0  0  0
    2.9557    0.5147   20.7686 N   0  0  0  0  0  0  0  0  0  0  0  0
    3.8106    1.1502   21.5915 C   0  0  0  0  0  0  0  0  0  0  0  0
    3.9061    1.3757   22.9369 C   0  0  0  0  0  0  0  0  0  0  0  0
    4.9613    2.0963   23.4356 C   0  0  0  0  0  0  0  0  0  0  0  0
    5.9133    2.5829   22.5596 C   0  0  0  0  0  0  0  0  0  0  0  0
    5.8297    2.3654   21.2193 N   0  0  0  0  0  0  0  0  0  0  0  0
    4.7927    1.6590   20.7428 C   0  0  0  0  0  0  0  0  0  0  0  0
    4.4972    1.3216   19.5041 O   0  0  0  0  0  0  0  0  0  0  0  0
    2.6807    3.6864   13.2482 C   0  0  0  0  0  0  0  0  0  0  0  0
    2.4486    5.1290   13.5391 C   0  0  0  0  0  0  0  0  0  0  0  0
    2.9251    6.0789   12.4504 C   0  0  0  0  0  0  0  0  0  0  0  0
    2.1643    8.3723   12.7516 C   0  0  0  0  0  0  0  0  0  0  0  0
    1.9450    7.1616   12.3016 C   0  0  0  0  0  0  0  0  0  0  0  0
    3.3693    8.7865   13.4346 C   0  0  0  0  0  0  0  0  0  0  0  0
    3.1173    9.8527   14.4987 C   0  0  0  0  0  0  0  0  0  0  0  0
    3.7335    9.4958   15.8004 C   0  0  0  0  0  0  0  0  0  0  0  0
    5.1673    8.9746   15.7052 C   0  0  0  0  0  0  0  0  0  0  0  0
    5.3357    7.6700   16.3856 C   0  0  0  0  0  0  0  0  0  0  0  0
    4.2261    7.1091   17.1798 C   0  0  0  0  0  0  0  0  0  0  0  0
    2.7873    5.1958   17.8421 C   0  0  0  0  0  0  0  0  0  0  0  0
    3.5864    5.8427   16.7621 C   0  0  0  0  0  0  0  0  0  0  0  0
 27 28  1  0  0  0
 28 26  1  0  0  0
 26 25  1  0  0  0
 25 24  1  0  0  0
 24 23  1  0  0  0
 23 22  1  0  0  0
 22 21  1  0  0  0
 21 19  1  0  0  0
 19 20  2  0  0  0
 20 18  1  0  0  0
 18 17  1  0  0  0
 17 16  1  0  0  0
 16  1  1  0  0  0
  1  2  1  0  0  0
  2  3  1  0  0  0
  3  4  1  0  0  0
  4  5  1  0  0  0
  5  6  2  0  0  0
  5  7  1  0  0  0
  7  8  2  0  0  0
  8  9  1  0  0  0
  9 10  2  0  0  0
 10 11  1  0  0  0
 11 12  2  0  0  0
 12 13  1  0  0  0
 13 14  2  0  0  0
 14 15  1  0  0  0
 15  7  1  0  0  0
 14  9  1  0  0  0
M  END
> <minimizedAffinity>
-5.85521

> <CNNscore>
0.4197483063

> <CNNaffinity>
6.2715659142

> <CNN_VS>
2.6324791908

> <CNNaffinity_variance>
0.2491345853

$$$$
[H]/C(=C(\[H])C([H])([H])C([H])([H])C([H])([H])C([H])([H])C([H])([H])C([H])([H])C([H])([H])C([H])([H])[H])C([H])([H])C([H])([H])C([H])([H])C([H])([H])C([H])([H])C([H])([H])C([H])([H])C(=O)c1nc2c([H])c([H])c([H])nc2o1


 28 29  0  0  0  0  0  0  0  0999 V2000
    6.2657    5.4874   22.0496 C   0  0  0  0  0  0  0  0  0  0  0  0
    5.6231    4.1892   21.9395 C   0  0  0  0  0  0  0  0  0  0  0  0
    6.0790    2.9734   22.6097 C   0  0  0  0  0  0  0  0  0  0  0  0
    6.0897    1.6929   21.8377 C   0  0  0  0  0  0  0  0  0  0  0  0
    4.6763    1.2748   21.5094 C   0  0  0  0  0  0  0  0  0  0  0  0
    3.9113    0.9734   22.4484 O   0  0  0  0  0  0  0  0  0  0  0  0
    4.2184    1.2234   20.1493 C   0  0  0  0  0  0  0  0  0  0  0  0
    4.6063    2.0561   19.1512 N   0  0  0  0  0  0  0  0  0  0  0  0
    3.9776    1.7201   18.0095 C   0  0  0  0  0  0  0  0  0  0  0  0
    3.9600    2.1731   16.7193 C   0  0  0  0  0  0  0  0  0  0  0  0
    3.1623    1.5561   15.7894 C   0  0  0  0  0  0  0  0  0  0  0  0
    2.3871    0.4807   16.1804 C   0  0  0  0  0  0  0  0  0  0  0  0
    2.3956    0.0206   17.4606 N   0  0  0  0  0  0  0  0  0  0  0  0
    3.1801    0.6322   18.3618 C   0  0  0  0  0  0  0  0  0  0  0  0
    3.3573    0.3749   19.6416 O   0  0  0  0  0  0  0  0  0  0  0  0
    7.7193    5.6433   22.2317 C   0  0  0  0  0  0  0  0  0  0  0  0
    8.1686    7.0120   22.6117 C   0  0  0  0  0  0  0  0  0  0  0  0
    7.1281    7.8362   23.3551 C   0  0  0  0  0  0  0  0  0  0  0  0
    6.1669    9.6674   22.0698 C   0  0  0  0  0  0  0  0  0  0  0  0
    7.1346    9.2037   22.8214 C   0  0  0  0  0  0  0  0  0  0  0  0
    4.9982    8.9109   21.6802 C   0  0  0  0  0  0  0  0  0  0  0  0
    4.9157    8.6708   20.1741 C   0  0  0  0  0  0  0  0  0  0  0  0
    6.2394    8.8023   19.5168 C   0  0  0  0  0  0  0  0  0  0  0  0
    6.8861    7.4767   19.1155 C   0  0  0  0  0  0  0  0  0  0  0  0
    6.1947    6.8394   17.9714 C   0  0  0  0  0  0  0  0  0  0  0  0
    5.4355    5.5912   18.1771 C   0  0  0  0  0  0  0  0  0  0  0  0
    3.2909    5.5405   19.4291 C   0  0  0  0  0  0  0  0  0  0  0  0
    3.9587    5.6042   18.0975 C   0  0  0  0  0  0  0  0  0  0  0  0
 27 28  1  0  0  0
 28 26  1  0  0  0
 26 25  1  0  0  0
 25 24  1  0  0  0
 24 23  1  0  0  0
 23 22  1  0  0  0
 22 21  1  0  0  0
 21 19  1  0  0  0
 19 20  2  0  0  0
 20 18  1  0  0  0
 18 17  1  0  0  0
 17 16  1  0  0  0
 16  1  1  0  0  0
  1  2  1  0  0  0
  2  3  1  0  0  0
  3  4  1  0  0  0
  4  5  1  0  0  0
  5  6  2  0  0  0
  5  7  1  0  0  0
  7  8  2  0  0  0
  8  9  1  0  0  0
  9 10  2  0  0  0
 10 11  1  0  0  0
 11 12  2  0  0  0
 12 13  1  0  0  0
 13 14  2  0  0  0
 14 15  1  0  0  0
 15  7  1  0  0  0
 14  9  1  0  0  0
M  END
> <minimizedAffinity>
-6.20515

> <CNNscore>
0.4046839774

> <CNNaffinity>
6.4091186523

> <CNN_VS>
2.5936677456

> <CNNaffinity_variance>
0.1861779094

$$$$
[H]/C(=C(\[H])C([H])([H])C([H])([H])C([H])([H])C([H])([H])C([H])([H])C([H])([H])C([H])([H])C([H])([H])[H])C([H])([H])C([H])([H])C([H])([H])C([H])([H])C([H])([H])C([H])([H])C([H])([H])C(=O)c1nc2c([H])c([H])c([H])nc2o1


 28 29  0  0  0  0  0  0  0  0999 V2000
    4.2199    2.8392   16.4702 C   0  0  0  0  0  0  0  0  0  0  0  0
    3.3022    2.0345   15.6825 C   0  0  0  0  0  0  0  0  0  0  0  0
    2.5955    0.8537   16.1740 C   0  0  0  0  0  0  0  0  0  0  0  0
    3.3170   -0.0803   17.0921 C   0  0  0  0  0  0  0  0  0  0  0  0
    2.6721   -0.0648   18.4574 C   0  0  0  0  0  0  0  0  0  0  0  0
    1.5343   -0.5621   18.5841 O   0  0  0  0  0  0  0  0  0  0  0  0
    3.3483    0.5084   19.5872 C   0  0  0  0  0  0  0  0  0  0  0  0
    4.5852    1.0649   19.5708 N   0  0  0  0  0  0  0  0  0  0  0  0
    4.9038    1.4998   20.8041 C   0  0  0  0  0  0  0  0  0  0  0  0
    5.9723    2.1215   21.3889 C   0  0  0  0  0  0  0  0  0  0  0  0
    5.9395    2.4220   22.7269 C   0  0  0  0  0  0  0  0  0  0  0  0
    4.8175    2.0869   23.4611 C   0  0  0  0  0  0  0  0  0  0  0  0
    3.7482    1.4683   22.8912 N   0  0  0  0  0  0  0  0  0  0  0  0
    3.7916    1.1792   21.5812 C   0  0  0  0  0  0  0  0  0  0  0  0
    2.8951    0.5926   20.8146 O   0  0  0  0  0  0  0  0  0  0  0  0
    3.7619    3.8399   17.4497 C   0  0  0  0  0  0  0  0  0  0  0  0
    4.8452    4.5524   18.1836 C   0  0  0  0  0  0  0  0  0  0  0  0
    4.3573    5.6148   19.1572 C   0  0  0  0  0  0  0  0  0  0  0  0
    3.9767    5.3294   21.5454 C   0  0  0  0  0  0  0  0  0  0  0  0
    3.7399    4.9530   20.3130 C   0  0  0  0  0  0  0  0  0  0  0  0
    4.8540    6.4174   21.9151 C   0  0  0  0  0  0  0  0  0  0  0  0
    6.2844    5.9628   22.1977 C   0  0  0  0  0  0  0  0  0  0  0  0
    7.2862    6.9384   21.7015 C   0  0  0  0  0  0  0  0  0  0  0  0
    7.2916    7.1308   20.1851 C   0  0  0  0  0  0  0  0  0  0  0  0
    7.0568    8.5409   19.7983 C   0  0  0  0  0  0  0  0  0  0  0  0
    6.5264    9.4946   20.7912 C   0  0  0  0  0  0  0  0  0  0  0  0
    4.3463    9.2723   19.6219 C   0  0  0  0  0  0  0  0  0  0  0  0
    5.1219    9.9490   20.7008 C   0  0  0  0  0  0  0  0  0  0  0  0
 27 28  1  0  0  0
 28 26  1  0  0  0
 26 25  1  0  0  0
 25 24  1  0  0  0
 24 23  1  0  0  0
 23 22  1  0  0  0
 22 21  1  0  0  0
 21 19  1  0  0  0
 19 20  2  0  0  0
 20 18  1  0  0  0
 18 17  1  0  0  0
 17 16  1  0  0  0
 16  1  1  0  0  0
  1  2  1  0  0  0
  2  3  1  0  0  0
  3  4  1  0  0  0
  4  5  1  0  0  0
  5  6  2  0  0  0
  5  7  1  0  0  0
  7  8  2  0  0  0
  8  9  1  0  0  0
  9 10  2  0  0  0
 10 11  1  0  0  0
 11 12  2  0  0  0
 12 13  1  0  0  0
 13 14  2  0  0  0
 14 15  1  0  0  0
 15  7  1  0  0  0
 14  9  1  0  0  0
M  END
> <minimizedAffinity>
-6.49333

> <CNNscore>
0.3638273478

> <CNNaffinity>
6.5248246193

> <CNN_VS>
2.3739097118

> <CNNaffinity_variance>
0.1774297655

$$$$
[H]/C(=C(\[H])C([H])([H])C([H])([H])C([H])([H])C([H])([H])C([H])([H])C([H])([H])C([H])([H])C([H])([H])[H])C([H])([H])C([H])([H])C([H])([H])C([H])([H])C([H])([H])C([H])([H])C([H])([H])C(=O)c1nc2c([H])c([H])c([H])nc2o1


 28 29  0  0  0  0  0  0  0  0999 V2000
    3.5757    5.4246   20.0642 C   0  0  0  0  0  0  0  0  0  0  0  0
    4.3597    5.8664   21.2045 C   0  0  0  0  0  0  0  0  0  0  0  0
    4.6238    5.0635   22.3966 C   0  0  0  0  0  0  0  0  0  0  0  0
    5.5947    3.9310   22.2946 C   0  0  0  0  0  0  0  0  0  0  0  0
    4.8571    2.6136   22.3147 C   0  0  0  0  0  0  0  0  0  0  0  0
    4.6408    2.0690   23.4168 O   0  0  0  0  0  0  0  0  0  0  0  0
    4.4129    1.9971   21.0961 C   0  0  0  0  0  0  0  0  0  0  0  0
    4.8673    2.2862   19.8512 N   0  0  0  0  0  0  0  0  0  0  0  0
    4.2312    1.5195   18.9462 C   0  0  0  0  0  0  0  0  0  0  0  0
    4.2592    1.3621   17.5880 C   0  0  0  0  0  0  0  0  0  0  0  0
    3.4331    0.4452   16.9893 C   0  0  0  0  0  0  0  0  0  0  0  0
    2.5832   -0.3061   17.7789 C   0  0  0  0  0  0  0  0  0  0  0  0
    2.5458   -0.1592   19.1308 N   0  0  0  0  0  0  0  0  0  0  0  0
    3.3586    0.7411   19.7055 C   0  0  0  0  0  0  0  0  0  0  0  0
    3.5031    1.0608   20.9754 O   0  0  0  0  0  0  0  0  0  0  0  0
    3.3038    6.2885   18.9022 C   0  0  0  0  0  0  0  0  0  0  0  0
    4.1991    7.4716   18.7671 C   0  0  0  0  0  0  0  0  0  0  0  0
    3.5756    8.7900   19.2004 C   0  0  0  0  0  0  0  0  0  0  0  0
    5.2780   10.0193   20.4333 C   0  0  0  0  0  0  0  0  0  0  0  0
    4.6332    9.8017   19.3137 C   0  0  0  0  0  0  0  0  0  0  0  0
    5.0367    9.3086   21.6688 C   0  0  0  0  0  0  0  0  0  0  0  0
    6.2265    9.3512   22.6255 C   0  0  0  0  0  0  0  0  0  0  0  0
    6.8476    8.0150   22.8003 C   0  0  0  0  0  0  0  0  0  0  0  0
    8.3333    7.9517   22.4470 C   0  0  0  0  0  0  0  0  0  0  0  0
    8.6034    7.0247   21.3241 C   0  0  0  0  0  0  0  0  0  0  0  0
    7.5471    6.7480   20.3320 C   0  0  0  0  0  0  0  0  0  0  0  0
    7.8941    8.3999   18.5099 C   0  0  0  0  0  0  0  0  0  0  0  0
    7.8126    6.9611   18.8927 C   0  0  0  0  0  0  0  0  0  0  0  0
 27 28  1  0  0  0
 28 26  1  0  0  0
 26 25  1  0  0  0
 25 24  1  0  0  0
 24 23  1  0  0  0
 23 22  1  0  0  0
 22 21  1  0  0  0
 21 19  1  0  0  0
 19 20  2  0  0  0
 20 18  1  0  0  0
 18 17  1  0  0  0
 17 16  1  0  0  0
 16  1  1  0  0  0
  1  2  1  0  0  0
  2  3  1  0  0  0
  3  4  1  0  0  0
  4  5  1  0  0  0
  5  6  2  0  0  0
  5  7  1  0  0  0
  7  8  2  0  0  0
  8  9  1  0  0  0
  9 10  2  0  0  0
 10 11  1  0  0  0
 11 12  2  0  0  0
 12 13  1  0  0  0
 13 14  2  0  0  0
 14 15  1  0  0  0
 15  7  1  0  0  0
 14  9  1  0  0  0
M  END
> <minimizedAffinity>
-6.29176

> <CNNscore>
0.3409976661

> <CNNaffinity>
6.4059476852

> <CNN_VS>
2.1844131947

> <CNNaffinity_variance>
0.1304460019

$$$$
[H]/C(=C(\[H])C([H])([H])C([H])([H])C([H])([H])C([H])([H])C([H])([H])C([H])([H])C([H])([H])C([H])([H])[H])C([H])([H])C([H])([H])C([H])([H])C([H])([H])C([H])([H])C([H])([H])C([H])([H])C(=O)c1nc2c([H])c([H])c([H])nc2o1


 28 29  0  0  0  0  0  0  0  0999 V2000
    4.8826    3.3235   23.3006 C   0  0  0  0  0  0  0  0  0  0  0  0
    5.8630    2.3215   22.9200 C   0  0  0  0  0  0  0  0  0  0  0  0
    6.1661    1.9312   21.5448 C   0  0  0  0  0  0  0  0  0  0  0  0
    5.5400    0.6872   21.0005 C   0  0  0  0  0  0  0  0  0  0  0  0
    4.1516    0.9880   20.4886 C   0  0  0  0  0  0  0  0  0  0  0  0
    3.1955    0.9251   21.2884 O   0  0  0  0  0  0  0  0  0  0  0  0
    3.9313    1.3386   19.1134 C   0  0  0  0  0  0  0  0  0  0  0  0
    4.4266    2.4348   18.4868 N   0  0  0  0  0  0  0  0  0  0  0  0
    4.0199    2.4470   17.2037 C   0  0  0  0  0  0  0  0  0  0  0  0
    4.1892    3.2631   16.1196 C   0  0  0  0  0  0  0  0  0  0  0  0
    3.5988    2.9420   14.9239 C   0  0  0  0  0  0  0  0  0  0  0  0
    2.8391    1.7904   14.8403 C   0  0  0  0  0  0  0  0  0  0  0  0
    2.6630    0.9702   15.9113 N   0  0  0  0  0  0  0  0  0  0  0  0
    3.2456    1.2946   17.0762 C   0  0  0  0  0  0  0  0  0  0  0  0
    3.2228    0.6701   18.2359 O   0  0  0  0  0  0  0  0  0  0  0  0
    4.9816    4.7330   22.8835 C   0  0  0  0  0  0  0  0  0  0  0  0
    3.8069    5.2570   22.1317 C   0  0  0  0  0  0  0  0  0  0  0  0
    3.9044    5.1076   20.6208 C   0  0  0  0  0  0  0  0  0  0  0  0
    5.6096    6.0842   19.1827 C   0  0  0  0  0  0  0  0  0  0  0  0
    5.2954    5.3334   20.2094 C   0  0  0  0  0  0  0  0  0  0  0  0
    4.6510    6.7691   18.3450 C   0  0  0  0  0  0  0  0  0  0  0  0
    3.7638    7.7398   19.1218 C   0  0  0  0  0  0  0  0  0  0  0  0
    4.1872    9.1499   18.9366 C   0  0  0  0  0  0  0  0  0  0  0  0
    5.1259    9.6808   20.0198 C   0  0  0  0  0  0  0  0  0  0  0  0
    4.8631    9.0646   21.3405 C   0  0  0  0  0  0  0  0  0  0  0  0
    5.9869    8.5477   22.1447 C   0  0  0  0  0  0  0  0  0  0  0  0
    7.9754    7.0666   21.9970 C   0  0  0  0  0  0  0  0  0  0  0  0
    7.2985    8.3016   21.5071 C   0  0  0  0  0  0  0  0  0  0  0  0
 27 28  1  0  0  0
 28 26  1  0  0  0
 26 25  1  0  0  0
 25 24  1  0  0  0
 24 23  1  0  0  0
 23 22  1  0  0  0
 22 21  1  0  0  0
 21 19  1  0  0  0
 19 20  2  0  0  0
 20 18  1  0  0  0
 18 17  1  0  0  0
 17 16  1  0  0  0
 16  1  1  0  0  0
  1  2  1  0  0  0
  2  3  1  0  0  0
  3  4  1  0  0  0
  4  5  1  0  0  0
  5  6  2  0  0  0
  5  7  1  0  0  0
  7  8  2  0  0  0
  8  9  1  0  0  0
  9 10  2  0  0  0
 10 11  1  0  0  0
 11 12  2  0  0  0
 12 13  1  0  0  0
 13 14  2  0  0  0
 14 15  1  0  0  0
 15  7  1  0  0  0
 14  9  1  0  0  0
M  END
> <minimizedAffinity>
-6.54235

> <CNNscore>
0.3313180208

> <CNNaffinity>
6.4022688866

> <CNN_VS>
2.1211869717

> <CNNaffinity_variance>
0.1527332515

$$$$
[H]/C(=C(\[H])C([H])([H])C([H])([H])C([H])([H])C([H])([H])C([H])([H])C([H])([H])C([H])([H])C([H])([H])[H])C([H])([H])C([H])([H])C([H])([H])C([H])([H])C([H])([H])C([H])([H])C([H])([H])C(=O)c1nc2c([H])c([H])c([H])nc2o1


 28 29  0  0  0  0  0  0  0  0999 V2000
    4.7935    3.1758   16.8711 C   0  0  0  0  0  0  0  0  0  0  0  0
    3.4096    2.9198   16.5112 C   0  0  0  0  0  0  0  0  0  0  0  0
    2.7913    1.5967   16.4633 C   0  0  0  0  0  0  0  0  0  0  0  0
    3.5023    0.4517   17.1108 C   0  0  0  0  0  0  0  0  0  0  0  0
    2.9022    0.1707   18.4677 C   0  0  0  0  0  0  0  0  0  0  0  0
    1.8591   -0.5120   18.5276 O   0  0  0  0  0  0  0  0  0  0  0  0
    3.5141    0.6756   19.6648 C   0  0  0  0  0  0  0  0  0  0  0  0
    4.7815    1.1479   19.7675 N   0  0  0  0  0  0  0  0  0  0  0  0
    5.0198    1.5370   21.0338 C   0  0  0  0  0  0  0  0  0  0  0  0
    6.0719    2.0744   21.7226 C   0  0  0  0  0  0  0  0  0  0  0  0
    5.9431    2.3510   23.0600 C   0  0  0  0  0  0  0  0  0  0  0  0
    4.7422    2.0782   23.6874 C   0  0  0  0  0  0  0  0  0  0  0  0
    3.6881    1.5438   23.0135 N   0  0  0  0  0  0  0  0  0  0  0  0
    3.8258    1.2773   21.7052 C   0  0  0  0  0  0  0  0  0  0  0  0
    2.9627    0.7668   20.8508 O   0  0  0  0  0  0  0  0  0  0  0  0
    5.1836    4.1986   17.8571 C   0  0  0  0  0  0  0  0  0  0  0  0
    4.1924    4.4462   18.9414 C   0  0  0  0  0  0  0  0  0  0  0  0
    4.3090    5.8096   19.6065 C   0  0  0  0  0  0  0  0  0  0  0  0
    3.9028    8.0383   18.7135 C   0  0  0  0  0  0  0  0  0  0  0  0
    3.5363    6.7857   18.8286 C   0  0  0  0  0  0  0  0  0  0  0  0
    5.0854    8.6048   19.3222 C   0  0  0  0  0  0  0  0  0  0  0  0
    4.7705    9.5145   20.5079 C   0  0  0  0  0  0  0  0  0  0  0  0
    5.0652    8.8584   21.8057 C   0  0  0  0  0  0  0  0  0  0  0  0
    6.4056    8.1257   21.8595 C   0  0  0  0  0  0  0  0  0  0  0  0
    6.2686    6.7438   22.3740 C   0  0  0  0  0  0  0  0  0  0  0  0
    7.3060    5.7409   22.0658 C   0  0  0  0  0  0  0  0  0  0  0  0
    9.5594    5.7514   23.1105 C   0  0  0  0  0  0  0  0  0  0  0  0
    8.7206    6.1556   21.9459 C   0  0  0  0  0  0  0  0  0  0  0  0
 27 28  1  0  0  0
 28 26  1  0  0  0
 26 25  1  0  0  0
 25 24  1  0  0  0
 24 23  1  0  0  0
 23 22  1  0  0  0
 22 21  1  0  0  0
 21 19  1  0  0  0
 19 20  2  0  0  0
 20 18  1  0  0  0
 18 17  1  0  0  0
 17 16  1  0  0  0
 16  1  1  0  0  0
  1  2  1  0  0  0
  2  3  1  0  0  0
  3  4  1  0  0  0
  4  5  1  0  0  0
  5  6  2  0  0  0
  5  7  1  0  0  0
  7  8  2  0  0  0
  8  9  1  0  0  0
  9 10  2  0  0  0
 10 11  1  0  0  0
 11 12  2  0  0  0
 12 13  1  0  0  0
 13 14  2  0  0  0
 14 15  1  0  0  0
 15  7  1  0  0  0
 14  9  1  0  0  0
M  END
> <minimizedAffinity>
-6.66153

> <CNNscore>
0.2845733166

> <CNNaffinity>
6.3959288597

> <CNN_VS>
1.8201106787

> <CNNaffinity_variance>
0.2602098584

$$$$
[H]c1c([H])c([H])c(C([H])([H])C([H])([H])C([H])([H])[H])c(OC([H])(C2=NC([H])([H])C([H])([H])N2[H])C([H])([H])[H])c1[H]


 18 19  0  0  0  0  0  0  0  0999 V2000
    4.2158    1.5319   18.2188 C   0  0  0  0  0  0  0  0  0  0  0  0
    3.3558    0.6333   17.6277 C   0  0  0  0  0  0  0  0  0  0  0  0
    2.8478    0.8273   16.3605 C   0  0  0  0  0  0  0  0  0  0  0  0
    3.1939    1.9483   15.6352 C   0  0  0  0  0  0  0  0  0  0  0  0
    4.0534    2.8594   16.2090 C   0  0  0  0  0  0  0  0  0  0  0  0
    4.5610    2.6668   17.4743 C   0  0  0  0  0  0  0  0  0  0  0  0
    4.7724    1.3647   19.5643 C   0  0  0  0  0  0  0  0  0  0  0  0
    3.6800   -0.0177   21.3263 C   0  0  0  0  0  0  0  0  0  0  0  0
    3.7096    1.3554   20.6436 C   0  0  0  0  0  0  0  0  0  0  0  0
    5.4119    3.5439   18.0720 O   0  0  0  0  0  0  0  0  0  0  0  0
    5.2127    4.8763   18.3786 C   0  0  0  0  0  0  0  0  0  0  0  0
    6.3065    5.7865   17.9160 C   0  0  0  0  0  0  0  0  0  0  0  0
    5.0000    5.0834   19.8612 C   0  0  0  0  0  0  0  0  0  0  0  0
    3.8365    5.0699   20.3971 N   0  0  0  0  0  0  0  0  0  0  0  0
    3.9221    5.2918   21.8094 C   0  0  0  0  0  0  0  0  0  0  0  0
    5.3537    5.7121   22.0554 C   0  0  0  0  0  0  0  0  0  0  0  0
    6.0004    5.3119   20.8323 N   0  0  0  0  0  0  0  0  0  0  0  0
    7.0481    5.2055   20.6824 H   0  0  0  0  0  0  0  0  0  0  0  0
  8  9  1  0  0  0
  9  7  1  0  0  0
  7  1  1  0  0  0
  1  2  2  0  0  0
  2  3  1  0  0  0
  3  4  2  0  0  0
  4  5  1  0  0  0
  5  6  2  0  0  0
  6 10  1  0  0  0
 10 11  1  0  0  0
 11 12  1  0  0  0
 11 13  1  0  0  0
 13 14  2  0  0  0
 14 15  1  0  0  0
 15 16  1  0  0  0
 16 17  1  0  0  0
  6  1  1  0  0  0
 17 13  1  0  0  0
 17 18  1  0  0  0
M  END
> <minimizedAffinity>
-6.18952

> <CNNscore>
0.6034758091

> <CNNaffinity>
5.0928487778

> <CNN_VS>
3.0734109879

> <CNNaffinity_variance>
0.1625166386

$$$$
[H]c1c([H])c([H])c(C([H])([H])C([H])([H])C([H])([H])[H])c(OC([H])(C2=NC([H])([H])C([H])([H])N2[H])C([H])([H])[H])c1[H]


 18 19  0  0  0  0  0  0  0  0999 V2000
    3.7595    1.3935   18.9346 C   0  0  0  0  0  0  0  0  0  0  0  0
    3.1667    0.1549   18.8302 C   0  0  0  0  0  0  0  0  0  0  0  0
    2.6611   -0.3193   17.6382 C   0  0  0  0  0  0  0  0  0  0  0  0
    2.7365    0.4483   16.4948 C   0  0  0  0  0  0  0  0  0  0  0  0
    3.3261    1.6906   16.5783 C   0  0  0  0  0  0  0  0  0  0  0  0
    3.8312    2.1653   17.7681 C   0  0  0  0  0  0  0  0  0  0  0  0
    4.3035    1.9353   20.1831 C   0  0  0  0  0  0  0  0  0  0  0  0
    4.2158    2.0140   22.6720 C   0  0  0  0  0  0  0  0  0  0  0  0
    3.6620    1.3313   21.4152 C   0  0  0  0  0  0  0  0  0  0  0  0
    4.4203    3.3856   17.8879 O   0  0  0  0  0  0  0  0  0  0  0  0
    5.1923    4.0719   16.9702 C   0  0  0  0  0  0  0  0  0  0  0  0
    6.1573    5.0409   17.5773 C   0  0  0  0  0  0  0  0  0  0  0  0
    4.3399    4.8021   15.9571 C   0  0  0  0  0  0  0  0  0  0  0  0
    3.5857    5.7873   16.2761 N   0  0  0  0  0  0  0  0  0  0  0  0
    2.8911    6.2908   15.1293 C   0  0  0  0  0  0  0  0  0  0  0  0
    3.1424    5.2735   14.0391 C   0  0  0  0  0  0  0  0  0  0  0  0
    4.2494    4.5239   14.5749 N   0  0  0  0  0  0  0  0  0  0  0  0
    4.8896    3.8735   14.0286 H   0  0  0  0  0  0  0  0  0  0  0  0
  8  9  1  0  0  0
  9  7  1  0  0  0
  7  1  1  0  0  0
  1  2  2  0  0  0
  2  3  1  0  0  0
  3  4  2  0  0  0
  4  5  1  0  0  0
  5  6  2  0  0  0
  6 10  1  0  0  0
 10 11  1  0  0  0
 11 12  1  0  0  0
 11 13  1  0  0  0
 13 14  2  0  0  0
 14 15  1  0  0  0
 15 16  1  0  0  0
 16 17  1  0  0  0
  6  1  1  0  0  0
 17 13  1  0  0  0
 17 18  1  0  0  0
M  END
> <minimizedAffinity>
-5.56737

> <CNNscore>
0.5933718681

> <CNNaffinity>
5.0313863754

> <CNN_VS>
2.9854831696

> <CNNaffinity_variance>
0.0795745105

$$$$
[H]c1c([H])c([H])c(C([H])([H])C([H])([H])C([H])([H])[H])c(OC([H])(C2=NC([H])([H])C([H])([H])N2[H])C([H])([H])[H])c1[H]


 18 19  0  0  0  0  0  0  0  0999 V2000
    4.3771    2.5461   19.1345 C   0  0  0  0  0  0  0  0  0  0  0  0
    3.9986    1.3410   18.5859 C   0  0  0  0  0  0  0  0  0  0  0  0
    3.7137    1.2020   17.2439 C   0  0  0  0  0  0  0  0  0  0  0  0
    3.8019    2.2869   16.3968 C   0  0  0  0  0  0  0  0  0  0  0  0
    4.1792    3.5015   16.9263 C   0  0  0  0  0  0  0  0  0  0  0  0
    4.4638    3.6416   18.2662 C   0  0  0  0  0  0  0  0  0  0  0  0
    4.6828    2.7359   20.5553 C   0  0  0  0  0  0  0  0  0  0  0  0
    3.5111    1.6024   22.4397 C   0  0  0  0  0  0  0  0  0  0  0  0
    4.5846    1.4529   21.3545 C   0  0  0  0  0  0  0  0  0  0  0  0
    4.8398    4.8242   18.8235 O   0  0  0  0  0  0  0  0  0  0  0  0
    4.0992    5.9776   18.9971 C   0  0  0  0  0  0  0  0  0  0  0  0
    3.8723    6.7603   17.7422 C   0  0  0  0  0  0  0  0  0  0  0  0
    4.7163    6.8877   20.0350 C   0  0  0  0  0  0  0  0  0  0  0  0
    5.7169    6.5331   20.7522 N   0  0  0  0  0  0  0  0  0  0  0  0
    6.0977    7.5810   21.6510 C   0  0  0  0  0  0  0  0  0  0  0  0
    4.9838    8.5997   21.5621 C   0  0  0  0  0  0  0  0  0  0  0  0
    4.3049    8.2005   20.3562 N   0  0  0  0  0  0  0  0  0  0  0  0
    3.6140    8.7887   19.8012 H   0  0  0  0  0  0  0  0  0  0  0  0
  8  9  1  0  0  0
  9  7  1  0  0  0
  7  1  1  0  0  0
  1  2  2  0  0  0
  2  3  1  0  0  0
  3  4  2  0  0  0
  4  5  1  0  0  0
  5  6  2  0  0  0
  6 10  1  0  0  0
 10 11  1  0  0  0
 11 12  1  0  0  0
 11 13  1  0  0  0
 13 14  2  0  0  0
 14 15  1  0  0  0
 15 16  1  0  0  0
 16 17  1  0  0  0
  6  1  1  0  0  0
 17 13  1  0  0  0
 17 18  1  0  0  0
M  END
> <minimizedAffinity>
-5.99822

> <CNNscore>
0.5403732061

> <CNNaffinity>
4.9213819504

> <CNN_VS>
2.6593830585

> <CNNaffinity_variance>
0.0990996286

$$$$
[H]c1c([H])c([H])c(C([H])([H])C([H])([H])C([H])([H])[H])c(OC([H])(C2=NC([H])([H])C([H])([H])N2[H])C([H])([H])[H])c1[H]


 18 19  0  0  0  0  0  0  0  0999 V2000
    4.4200    2.0002   19.9751 C   0  0  0  0  0  0  0  0  0  0  0  0
    3.7300    0.8551   19.6451 C   0  0  0  0  0  0  0  0  0  0  0  0
    3.2278   -0.0014   20.6020 C   0  0  0  0  0  0  0  0  0  0  0  0
    3.4056    0.2702   21.9425 C   0  0  0  0  0  0  0  0  0  0  0  0
    4.0933    1.4113   22.2934 C   0  0  0  0  0  0  0  0  0  0  0  0
    4.5953    2.2671   21.3388 C   0  0  0  0  0  0  0  0  0  0  0  0
    4.9736    2.9323   18.9888 C   0  0  0  0  0  0  0  0  0  0  0  0
    4.6754    3.7930   16.6695 C   0  0  0  0  0  0  0  0  0  0  0  0
    4.6392    2.5466   17.5626 C   0  0  0  0  0  0  0  0  0  0  0  0
    5.2782    3.4024   21.6479 O   0  0  0  0  0  0  0  0  0  0  0  0
    4.8955    4.4529   22.4597 C   0  0  0  0  0  0  0  0  0  0  0  0
    3.4861    4.3688   22.9549 C   0  0  0  0  0  0  0  0  0  0  0  0
    5.0943    5.7878   21.7779 C   0  0  0  0  0  0  0  0  0  0  0  0
    5.9544    5.9615   20.8445 N   0  0  0  0  0  0  0  0  0  0  0  0
    5.9354    7.3154   20.3781 C   0  0  0  0  0  0  0  0  0  0  0  0
    5.0714    8.0611   21.3701 C   0  0  0  0  0  0  0  0  0  0  0  0
    4.3978    6.9861   22.0520 N   0  0  0  0  0  0  0  0  0  0  0  0
    3.5275    7.0747   22.6570 H   0  0  0  0  0  0  0  0  0  0  0  0
  8  9  1  0  0  0
  9  7  1  0  0  0
  7  1  1  0  0  0
  1  2  2  0  0  0
  2  3  1  0  0  0
  3  4  2  0  0  0
  4  5  1  0  0  0
  5  6  2  0  0  0
  6 10  1  0  0  0
 10 11  1  0  0  0
 11 12  1  0  0  0
 11 13  1  0  0  0
 13 14  2  0  0  0
 14 15  1  0  0  0
 15 16  1  0  0  0
 16 17  1  0  0  0
  6  1  1  0  0  0
 17 13  1  0  0  0
 17 18  1  0  0  0
M  END
> <minimizedAffinity>
-6.60531

> <CNNscore>
0.5368376970

> <CNNaffinity>
4.9755611420

> <CNN_VS>
2.6710686684

> <CNNaffinity_variance>
0.2536827624

$$$$
[H]c1c([H])c([H])c(C([H])([H])C([H])([H])C([H])([H])[H])c(OC([H])(C2=NC([H])([H])C([H])([H])N2[H])C([H])([H])[H])c1[H]


 18 19  0  0  0  0  0  0  0  0999 V2000
    4.8575    2.1796   19.7017 C   0  0  0  0  0  0  0  0  0  0  0  0
    4.3059    1.3568   18.7450 C   0  0  0  0  0  0  0  0  0  0  0  0
    3.9599    1.8164   17.4918 C   0  0  0  0  0  0  0  0  0  0  0  0
    4.1608    3.1386   17.1546 C   0  0  0  0  0  0  0  0  0  0  0  0
    4.7117    3.9781   18.0978 C   0  0  0  0  0  0  0  0  0  0  0  0
    5.0574    3.5204   19.3496 C   0  0  0  0  0  0  0  0  0  0  0  0
    5.2333    1.7312   21.0455 C   0  0  0  0  0  0  0  0  0  0  0  0
    4.3156    1.8855   23.3569 C   0  0  0  0  0  0  0  0  0  0  0  0
    4.0350    1.4267   21.9205 C   0  0  0  0  0  0  0  0  0  0  0  0
    5.6038    4.3195   20.3053 O   0  0  0  0  0  0  0  0  0  0  0  0
    5.0558    5.4204   20.9351 C   0  0  0  0  0  0  0  0  0  0  0  0
    3.7741    5.1446   21.6562 C   0  0  0  0  0  0  0  0  0  0  0  0
    4.8369    6.5649   19.9715 C   0  0  0  0  0  0  0  0  0  0  0  0
    5.8067    7.1822   19.4060 N   0  0  0  0  0  0  0  0  0  0  0  0
    5.3199    8.2192   18.5465 C   0  0  0  0  0  0  0  0  0  0  0  0
    3.8447    8.3296   18.8597 C   0  0  0  0  0  0  0  0  0  0  0  0
    3.5936    7.1010   19.5682 N   0  0  0  0  0  0  0  0  0  0  0  0
    2.6400    6.6692   19.7567 H   0  0  0  0  0  0  0  0  0  0  0  0
  8  9  1  0  0  0
  9  7  1  0  0  0
  7  1  1  0  0  0
  1  2  2  0  0  0
  2  3  1  0  0  0
  3  4  2  0  0  0
  4  5  1  0  0  0
  5  6  2  0  0  0
  6 10  1  0  0  0
 10 11  1  0  0  0
 11 12  1  0  0  0
 11 13  1  0  0  0
 13 14  2  0  0  0
 14 15  1  0  0  0
 15 16  1  0  0  0
 16 17  1  0  0  0
  6  1  1  0  0  0
 17 13  1  0  0  0
 17 18  1  0  0  0
M  END
> <minimizedAffinity>
-6.08606

> <CNNscore>
0.5301198959

> <CNNaffinity>
4.9958810806

> <CNN_VS>
2.6484160423

> <CNNaffinity_variance>
0.0951264277

$$$$
[H]c1c([H])c([H])c(C([H])([H])C([H])([H])C([H])([H])[H])c(OC([H])(C2=NC([H])([H])C([H])([H])N2[H])C([H])([H])[H])c1[H]


 18 19  0  0  0  0  0  0  0  0999 V2000
    4.6909    2.4042   19.1648 C   0  0  0  0  0  0  0  0  0  0  0  0
    4.1532    1.2528   18.6342 C   0  0  0  0  0  0  0  0  0  0  0  0
    3.7921    1.1544   17.3071 C   0  0  0  0  0  0  0  0  0  0  0  0
    3.9629    2.2271   16.4571 C   0  0  0  0  0  0  0  0  0  0  0  0
    4.4997    3.3883   16.9686 C   0  0  0  0  0  0  0  0  0  0  0  0
    4.8604    3.4877   18.2937 C   0  0  0  0  0  0  0  0  0  0  0  0
    5.0820    2.5503   20.5697 C   0  0  0  0  0  0  0  0  0  0  0  0
    6.8305    1.0417   21.5056 C   0  0  0  0  0  0  0  0  0  0  0  0
    5.3283    1.2210   21.2530 C   0  0  0  0  0  0  0  0  0  0  0  0
    5.3935    4.6171   18.8331 O   0  0  0  0  0  0  0  0  0  0  0  0
    4.7684    5.8081   19.1492 C   0  0  0  0  0  0  0  0  0  0  0  0
    3.3349    5.6645   19.5534 C   0  0  0  0  0  0  0  0  0  0  0  0
    4.8583    6.8050   18.0159 C   0  0  0  0  0  0  0  0  0  0  0  0
    5.9353    6.9903   17.3474 N   0  0  0  0  0  0  0  0  0  0  0  0
    5.7441    7.9874   16.3373 C   0  0  0  0  0  0  0  0  0  0  0  0
    4.3992    8.6063   16.6450 C   0  0  0  0  0  0  0  0  0  0  0  0
    3.8217    7.6417   17.5453 N   0  0  0  0  0  0  0  0  0  0  0  0
    2.7946    7.5686   17.8117 H   0  0  0  0  0  0  0  0  0  0  0  0
  8  9  1  0  0  0
  9  7  1  0  0  0
  7  1  1  0  0  0
  1  2  2  0  0  0
  2  3  1  0  0  0
  3  4  2  0  0  0
  4  5  1  0  0  0
  5  6  2  0  0  0
  6 10  1  0  0  0
 10 11  1  0  0  0
 11 12  1  0  0  0
 11 13  1  0  0  0
 13 14  2  0  0  0
 14 15  1  0  0  0
 15 16  1  0  0  0
 16 17  1  0  0  0
  6  1  1  0  0  0
 17 13  1  0  0  0
 17 18  1  0  0  0
M  END
> <minimizedAffinity>
-5.86488

> <CNNscore>
0.5175254345

> <CNNaffinity>
4.7304935455

> <CNN_VS>
2.4481506348

> <CNNaffinity_variance>
0.2596626282

$$$$
[H]c1c([H])c([H])c(C([H])([H])C([H])([H])C([H])([H])[H])c(OC([H])(C2=NC([H])([H])C([H])([H])N2[H])C([H])([H])[H])c1[H]


 18 19  0  0  0  0  0  0  0  0999 V2000
    4.8438    3.1077   21.3037 C   0  0  0  0  0  0  0  0  0  0  0  0
    4.7833    2.5617   22.5665 C   0  0  0  0  0  0  0  0  0  0  0  0
    4.2408    3.2425   23.6359 C   0  0  0  0  0  0  0  0  0  0  0  0
    3.7334    4.5139   23.4676 C   0  0  0  0  0  0  0  0  0  0  0  0
    3.7844    5.0778   22.2116 C   0  0  0  0  0  0  0  0  0  0  0  0
    4.3260    4.3991   21.1431 C   0  0  0  0  0  0  0  0  0  0  0  0
    5.4170    2.4194   20.1436 C   0  0  0  0  0  0  0  0  0  0  0  0
    3.5476    1.0488   19.2295 C   0  0  0  0  0  0  0  0  0  0  0  0
    4.8875    1.0103   19.9749 C   0  0  0  0  0  0  0  0  0  0  0  0
    4.3926    4.9236   19.8897 O   0  0  0  0  0  0  0  0  0  0  0  0
    3.3723    5.4139   19.0974 C   0  0  0  0  0  0  0  0  0  0  0  0
    3.0777    4.5848   17.8872 C   0  0  0  0  0  0  0  0  0  0  0  0
    3.6376    6.8371   18.6611 C   0  0  0  0  0  0  0  0  0  0  0  0
    4.2226    7.1198   17.5570 N   0  0  0  0  0  0  0  0  0  0  0  0
    4.3466    8.5371   17.3930 C   0  0  0  0  0  0  0  0  0  0  0  0
    3.9581    9.1234   18.7316 C   0  0  0  0  0  0  0  0  0  0  0  0
    3.2984    8.0124   19.3680 N   0  0  0  0  0  0  0  0  0  0  0  0
    2.6654    8.0638   20.2211 H   0  0  0  0  0  0  0  0  0  0  0  0
  8  9  1  0  0  0
  9  7  1  0  0  0
  7  1  1  0  0  0
  1  2  2  0  0  0
  2  3  1  0  0  0
  3  4  2  0  0  0
  4  5  1  0  0  0
  5  6  2  0  0  0
  6 10  1  0  0  0
 10 11  1  0  0  0
 11 12  1  0  0  0
 11 13  1  0  0  0
 13 14  2  0  0  0
 14 15  1  0  0  0
 15 16  1  0  0  0
 16 17  1  0  0  0
  6  1  1  0  0  0
 17 13  1  0  0  0
 17 18  1  0  0  0
M  END
> <minimizedAffinity>
-5.97350

> <CNNscore>
0.4956616759

> <CNNaffinity>
4.9032497406

> <CNN_VS>
2.4303529263

> <CNNaffinity_variance>
0.1200291961

$$$$
[H]c1c([H])c([H])c(C([H])([H])C([H])([H])C([H])([H])[H])c(OC([H])(C2=NC([H])([H])C([H])([H])N2[H])C([H])([H])[H])c1[H]


 18 19  0  0  0  0  0  0  0  0999 V2000
    5.2501    2.9173   20.7105 C   0  0  0  0  0  0  0  0  0  0  0  0
    4.9917    1.5772   20.5263 C   0  0  0  0  0  0  0  0  0  0  0  0
    4.4327    1.0899   19.3637 C   0  0  0  0  0  0  0  0  0  0  0  0
    4.1109    1.9475   18.3325 C   0  0  0  0  0  0  0  0  0  0  0  0
    4.3618    3.2921   18.4972 C   0  0  0  0  0  0  0  0  0  0  0  0
    4.9197    3.7798   19.6577 C   0  0  0  0  0  0  0  0  0  0  0  0
    5.8374    3.4748   21.9321 C   0  0  0  0  0  0  0  0  0  0  0  0
    3.9065    4.2613   23.2966 C   0  0  0  0  0  0  0  0  0  0  0  0
    5.0032    3.1971   23.1656 C   0  0  0  0  0  0  0  0  0  0  0  0
    5.1820    5.1000   19.8551 O   0  0  0  0  0  0  0  0  0  0  0  0
    4.3020    6.1296   20.1284 C   0  0  0  0  0  0  0  0  0  0  0  0
    3.6102    6.6863   18.9241 C   0  0  0  0  0  0  0  0  0  0  0  0
    4.9778    7.2612   20.8694 C   0  0  0  0  0  0  0  0  0  0  0  0
    6.1011    7.1165   21.4682 N   0  0  0  0  0  0  0  0  0  0  0  0
    6.5110    8.3411   22.0874 C   0  0  0  0  0  0  0  0  0  0  0  0
    5.3068    9.2509   21.9952 C   0  0  0  0  0  0  0  0  0  0  0  0
    4.4985    8.5829   21.0079 N   0  0  0  0  0  0  0  0  0  0  0  0
    3.6824    9.0073   20.4738 H   0  0  0  0  0  0  0  0  0  0  0  0
  8  9  1  0  0  0
  9  7  1  0  0  0
  7  1  1  0  0  0
  1  2  2  0  0  0
  2  3  1  0  0  0
  3  4  2  0  0  0
  4  5  1  0  0  0
  5  6  2  0  0  0
  6 10  1  0  0  0
 10 11  1  0  0  0
 11 12  1  0  0  0
 11 13  1  0  0  0
 13 14  2  0  0  0
 14 15  1  0  0  0
 15 16  1  0  0  0
 16 17  1  0  0  0
  6  1  1  0  0  0
 17 13  1  0  0  0
 17 18  1  0  0  0
M  END
> <minimizedAffinity>
-6.27542

> <CNNscore>
0.4586177468

> <CNNaffinity>
4.7344088554

> <CNN_VS>
2.1712839603

> <CNNaffinity_variance>
0.1254239082

$$$$
[H]c1c([H])c([H])c(C([H])([H])C([H])([H])C([H])([H])[H])c(OC([H])(C2=NC([H])([H])C([H])([H])N2[H])C([H])([H])[H])c1[H]


 18 19  0  0  0  0  0  0  0  0999 V2000
    4.2953    2.0634   20.0159 C   0  0  0  0  0  0  0  0  0  0  0  0
    3.9482    0.7945   20.4232 C   0  0  0  0  0  0  0  0  0  0  0  0
    3.6344    0.5038   21.7341 C   0  0  0  0  0  0  0  0  0  0  0  0
    3.6596    1.4951   22.6928 C   0  0  0  0  0  0  0  0  0  0  0  0
    4.0043    2.7715   22.3055 C   0  0  0  0  0  0  0  0  0  0  0  0
    4.3180    3.0629   20.9968 C   0  0  0  0  0  0  0  0  0  0  0  0
    4.6405    2.4114   18.6347 C   0  0  0  0  0  0  0  0  0  0  0  0
    3.6926    2.1722   16.3427 C   0  0  0  0  0  0  0  0  0  0  0  0
    4.0870    1.4278   17.6244 C   0  0  0  0  0  0  0  0  0  0  0  0
    4.6619    4.3107   20.5781 O   0  0  0  0  0  0  0  0  0  0  0  0
    3.9086    5.4689   20.5875 C   0  0  0  0  0  0  0  0  0  0  0  0
    3.2780    5.8058   19.2730 C   0  0  0  0  0  0  0  0  0  0  0  0
    4.7155    6.6571   21.0603 C   0  0  0  0  0  0  0  0  0  0  0  0
    5.8037    6.5286   21.7239 N   0  0  0  0  0  0  0  0  0  0  0  0
    6.3603    7.8086   22.0446 C   0  0  0  0  0  0  0  0  0  0  0  0
    5.2842    8.8074   21.6828 C   0  0  0  0  0  0  0  0  0  0  0  0
    4.4084    8.0205   20.8532 N   0  0  0  0  0  0  0  0  0  0  0  0
    3.6599    8.3965   20.1976 H   0  0  0  0  0  0  0  0  0  0  0  0
  8  9  1  0  0  0
  9  7  1  0  0  0
  7  1  1  0  0  0
  1  2  2  0  0  0
  2  3  1  0  0  0
  3  4  2  0  0  0
  4  5  1  0  0  0
  5  6  2  0  0  0
  6 10  1  0  0  0
 10 11  1  0  0  0
 11 12  1  0  0  0
 11 13  1  0  0  0
 13 14  2  0  0  0
 14 15  1  0  0  0
 15 16  1  0  0  0
 16 17  1  0  0  0
  6  1  1  0  0  0
 17 13  1  0  0  0
 17 18  1  0  0  0
M  END
> <minimizedAffinity>
-6.58995

> <CNNscore>
0.4383296967

> <CNNaffinity>
4.7729692459

> <CNN_VS>
2.0921342373

> <CNNaffinity_variance>
0.1607693732

$$$$
[H]C1=C2C([H])([H])C([H])([H])C([H])([H])C([H])([H])[C@]2([H])/C(=C(\[H])C([H])([H])C2([H])C([H])([H])C([H])([H])C(C([H])([H])[H])(C([H])([H])[H])[N+]2(C([H])([H])[H])C([H])([H])[H])[C@]2([H])[C@@]1([H])C(=O)O[C@@]2([H])C([H])([H])[H]


 26 29  0  0  0  0  0  0  0  0999 V2000
    7.5143    6.8608   18.8556 C   0  0  0  0  0  0  0  0  0  0  0  0
    6.0682    6.3760   18.5528 C   0  0  0  0  0  0  0  0  0  0  0  0
    5.2591    7.3782   19.1144 O   0  0  0  0  0  0  0  0  0  0  0  0
    5.3327    7.1491   20.4868 C   0  0  0  0  0  0  0  0  0  0  0  0
    4.8388    7.9040   21.3541 O   0  0  0  0  0  0  0  0  0  0  0  0
    6.0787    5.8894   20.7179 C   0  0  0  0  0  0  0  0  0  0  0  0
    5.7168    5.1309   21.8835 C   0  0  0  0  0  0  0  0  0  0  0  0
    5.0262    4.0422   21.9014 C   0  0  0  0  0  0  0  0  0  0  0  0
    4.6978    3.3185   23.1529 C   0  0  0  0  0  0  0  0  0  0  0  0
    4.6510    1.8350   22.8120 C   0  0  0  0  0  0  0  0  0  0  0  0
    5.5767    1.4855   21.6913 C   0  0  0  0  0  0  0  0  0  0  0  0
    5.3465    2.2055   20.4079 C   0  0  0  0  0  0  0  0  0  0  0  0
    4.5304    3.4704   20.6633 C   0  0  0  0  0  0  0  0  0  0  0  0
    4.6744    4.3805   19.4452 C   0  0  0  0  0  0  0  0  0  0  0  0
    3.6942    4.2196   18.6108 C   0  0  0  0  0  0  0  0  0  0  0  0
    5.8184    5.1963   19.3528 C   0  0  0  0  0  0  0  0  0  0  0  0
    3.5088    4.9150   17.3641 C   0  0  0  0  0  0  0  0  0  0  0  0
    3.7599    3.8557   16.2396 C   0  0  0  0  0  0  0  0  0  0  0  0
    3.4220    2.4847   16.7560 C   0  0  0  0  0  0  0  0  0  0  0  0
    2.0686    2.2442   16.0858 C   0  0  0  0  0  0  0  0  0  0  0  0
    2.3462    2.8543   14.7202 C   0  0  0  0  0  0  0  0  0  0  0  0
    3.2831    1.9119   13.9984 C   0  0  0  0  0  0  0  0  0  0  0  0
    1.1098    3.0281   13.8994 C   0  0  0  0  0  0  0  0  0  0  0  0
    2.9822    4.1037   15.0800 N   0  0  0  0  0  0  0  0  0  0  0  0
    3.9187    4.4013   13.9823 C   0  0  0  0  0  0  0  0  0  0  0  0
    2.0682    5.2012   15.1422 C   0  0  0  0  0  0  0  0  0  0  0  0
  1  2  1  0  0  0
  2  3  1  0  0  0
  3  4  1  0  0  0
  4  5  2  0  0  0
  4  6  1  0  0  0
  6  7  1  0  0  0
  7  8  2  0  0  0
  8  9  1  0  0  0
  9 10  1  0  0  0
 10 11  1  0  0  0
 11 12  1  0  0  0
 12 13  1  0  0  0
 13 14  1  0  0  0
 14 15  2  0  0  0
 15 17  1  0  0  0
 17 18  1  0  0  0
 18 19  1  0  0  0
 19 20  1  0  0  0
 20 21  1  0  0  0
 21 22  1  0  0  0
 21 23  1  0  0  0
 21 24  1  0  0  0
 24 25  1  0  0  0
 24 26  1  0  0  0
 14 16  1  0  0  0
 16  2  1  0  0  0
 16  6  1  0  0  0
 13  8  1  0  0  0
 24 18  1  0  0  0
M  CHG 1  24   1
M  END
> <minimizedAffinity>
-8.16795

> <CNNscore>
0.4903818369

> <CNNaffinity>
6.3520183563

> <CNN_VS>
3.1149144173

> <CNNaffinity_variance>
0.0888069123

$$$$
[H]C1=C2C([H])([H])C([H])([H])C([H])([H])C([H])([H])[C@]2([H])/C(=C(\[H])C([H])([H])C2([H])C([H])([H])C([H])([H])C(C([H])([H])[H])(C([H])([H])[H])[N+]2(C([H])([H])[H])C([H])([H])[H])[C@]2([H])[C@@]1([H])C(=O)O[C@@]2([H])C([H])([H])[H]


 26 29  0  0  0  0  0  0  0  0999 V2000
    1.5771    2.5398   12.7535 C   0  0  0  0  0  0  0  0  0  0  0  0
    2.4640    2.8163   11.5066 C   0  0  0  0  0  0  0  0  0  0  0  0
    1.5878    3.4548   10.6126 O   0  0  0  0  0  0  0  0  0  0  0  0
    0.7754    2.4278   10.1366 C   0  0  0  0  0  0  0  0  0  0  0  0
   -0.2201    2.6021    9.3985 O   0  0  0  0  0  0  0  0  0  0  0  0
    1.2929    1.1372   10.6500 C   0  0  0  0  0  0  0  0  0  0  0  0
    1.0885   -0.0160    9.8173 C   0  0  0  0  0  0  0  0  0  0  0  0
    1.9824   -0.6087    9.1018 C   0  0  0  0  0  0  0  0  0  0  0  0
    1.6868   -1.7991    8.2692 C   0  0  0  0  0  0  0  0  0  0  0  0
    2.9432   -2.6597    8.2581 C   0  0  0  0  0  0  0  0  0  0  0  0
    3.7347   -2.5166    9.5183 C   0  0  0  0  0  0  0  0  0  0  0  0
    4.1891   -1.1372    9.8488 C   0  0  0  0  0  0  0  0  0  0  0  0
    3.3479   -0.1181    9.0839 C   0  0  0  0  0  0  0  0  0  0  0  0
    3.5381    1.2450    9.7464 C   0  0  0  0  0  0  0  0  0  0  0  0
    4.4609    1.9386    9.1547 C   0  0  0  0  0  0  0  0  0  0  0  0
    2.7723    1.5441   10.8896 C   0  0  0  0  0  0  0  0  0  0  0  0
    4.8959    3.2638    9.5106 C   0  0  0  0  0  0  0  0  0  0  0  0
    6.4301    3.3094    9.2042 C   0  0  0  0  0  0  0  0  0  0  0  0
    6.8865    1.9608    8.7210 C   0  0  0  0  0  0  0  0  0  0  0  0
    7.0147    2.2156    7.2186 C   0  0  0  0  0  0  0  0  0  0  0  0
    7.6034    3.6179    7.2452 C   0  0  0  0  0  0  0  0  0  0  0  0
    9.0344    3.4866    7.7162 C   0  0  0  0  0  0  0  0  0  0  0  0
    7.5953    4.2769    5.9042 C   0  0  0  0  0  0  0  0  0  0  0  0
    6.7558    4.2744    8.2175 N   0  0  0  0  0  0  0  0  0  0  0  0
    7.6070    5.2886    8.8637 C   0  0  0  0  0  0  0  0  0  0  0  0
    5.6633    4.9802    7.6241 C   0  0  0  0  0  0  0  0  0  0  0  0
  1  2  1  0  0  0
  2  3  1  0  0  0
  3  4  1  0  0  0
  4  5  2  0  0  0
  4  6  1  0  0  0
  6  7  1  0  0  0
  7  8  2  0  0  0
  8  9  1  0  0  0
  9 10  1  0  0  0
 10 11  1  0  0  0
 11 12  1  0  0  0
 12 13  1  0  0  0
 13 14  1  0  0  0
 14 15  2  0  0  0
 15 17  1  0  0  0
 17 18  1  0  0  0
 18 19  1  0  0  0
 19 20  1  0  0  0
 20 21  1  0  0  0
 21 22  1  0  0  0
 21 23  1  0  0  0
 21 24  1  0  0  0
 24 25  1  0  0  0
 24 26  1  0  0  0
 14 16  1  0  0  0
 16  2  1  0  0  0
 16  6  1  0  0  0
 13  8  1  0  0  0
 24 18  1  0  0  0
M  CHG 1  24   1
M  END
> <minimizedAffinity>
-5.42388

> <CNNscore>
0.4337629974

> <CNNaffinity>
4.8744363785

> <CNN_VS>
2.1143500805

> <CNNaffinity_variance>
0.0961046964

$$$$
[H]C1=C2C([H])([H])C([H])([H])C([H])([H])C([H])([H])[C@]2([H])/C(=C(\[H])C([H])([H])C2([H])C([H])([H])C([H])([H])C(C([H])([H])[H])(C([H])([H])[H])[N+]2(C([H])([H])[H])C([H])([H])[H])[C@]2([H])[C@@]1([H])C(=O)O[C@@]2([H])C([H])([H])[H]


 26 29  0  0  0  0  0  0  0  0999 V2000
    1.7620    1.9979   16.8758 C   0  0  0  0  0  0  0  0  0  0  0  0
    2.9505    2.9419   16.5379 C   0  0  0  0  0  0  0  0  0  0  0  0
    4.0041    2.0573   16.2510 O   0  0  0  0  0  0  0  0  0  0  0  0
    4.3958    1.5750   17.4981 C   0  0  0  0  0  0  0  0  0  0  0  0
    5.2385    0.6656   17.6683 O   0  0  0  0  0  0  0  0  0  0  0  0
    3.6540    2.3144   18.5469 C   0  0  0  0  0  0  0  0  0  0  0  0
    4.3237    2.4919   19.8059 C   0  0  0  0  0  0  0  0  0  0  0  0
    4.8606    3.5817   20.2377 C   0  0  0  0  0  0  0  0  0  0  0  0
    5.5329    3.6801   21.5552 C   0  0  0  0  0  0  0  0  0  0  0  0
    5.3039    5.0953   22.0691 C   0  0  0  0  0  0  0  0  0  0  0  0
    4.0119    5.6688   21.5823 C   0  0  0  0  0  0  0  0  0  0  0  0
    3.8475    5.7411   20.1037 C   0  0  0  0  0  0  0  0  0  0  0  0
    4.8265    4.7847   19.4269 C   0  0  0  0  0  0  0  0  0  0  0  0
    4.3567    4.5650   17.9902 C   0  0  0  0  0  0  0  0  0  0  0  0
    4.9577    5.3643   17.1640 C   0  0  0  0  0  0  0  0  0  0  0  0
    3.3438    3.6150   17.7571 C   0  0  0  0  0  0  0  0  0  0  0  0
    4.7621    5.4275   15.7393 C   0  0  0  0  0  0  0  0  0  0  0  0
    3.8445    6.6699   15.4861 C   0  0  0  0  0  0  0  0  0  0  0  0
    4.6539    7.9293   15.6249 C   0  0  0  0  0  0  0  0  0  0  0  0
    4.8511    8.3142   14.1581 C   0  0  0  0  0  0  0  0  0  0  0  0
    3.4762    7.9595   13.6123 C   0  0  0  0  0  0  0  0  0  0  0  0
    2.5120    9.0001   14.1359 C   0  0  0  0  0  0  0  0  0  0  0  0
    3.4254    7.9625   12.1190 C   0  0  0  0  0  0  0  0  0  0  0  0
    3.2561    6.6534   14.1960 N   0  0  0  0  0  0  0  0  0  0  0  0
    1.7988    6.5441   14.3827 C   0  0  0  0  0  0  0  0  0  0  0  0
    3.6358    5.5807   13.3306 C   0  0  0  0  0  0  0  0  0  0  0  0
  1  2  1  0  0  0
  2  3  1  0  0  0
  3  4  1  0  0  0
  4  5  2  0  0  0
  4  6  1  0  0  0
  6  7  1  0  0  0
  7  8  2  0  0  0
  8  9  1  0  0  0
  9 10  1  0  0  0
 10 11  1  0  0  0
 11 12  1  0  0  0
 12 13  1  0  0  0
 13 14  1  0  0  0
 14 15  2  0  0  0
 15 17  1  0  0  0
 17 18  1  0  0  0
 18 19  1  0  0  0
 19 20  1  0  0  0
 20 21  1  0  0  0
 21 22  1  0  0  0
 21 23  1  0  0  0
 21 24  1  0  0  0
 24 25  1  0  0  0
 24 26  1  0  0  0
 14 16  1  0  0  0
 16  2  1  0  0  0
 16  6  1  0  0  0
 13  8  1  0  0  0
 24 18  1  0  0  0
M  CHG 1  24   1
M  END
> <minimizedAffinity>
-5.42634

> <CNNscore>
0.4172483087

> <CNNaffinity>
5.7338685989

> <CNN_VS>
2.3924469948

> <CNNaffinity_variance>
0.3168939948

$$$$
[H]C1=C2C([H])([H])C([H])([H])C([H])([H])C([H])([H])[C@]2([H])/C(=C(\[H])C([H])([H])C2([H])C([H])([H])C([H])([H])C(C([H])([H])[H])(C([H])([H])[H])[N+]2(C([H])([H])[H])C([H])([H])[H])[C@]2([H])[C@@]1([H])C(=O)O[C@@]2([H])C([H])([H])[H]


 26 29  0  0  0  0  0  0  0  0999 V2000
    5.3986    0.8900   17.6473 C   0  0  0  0  0  0  0  0  0  0  0  0
    4.5129    2.1580   17.8069 C   0  0  0  0  0  0  0  0  0  0  0  0
    3.3589    1.6767   18.4482 O   0  0  0  0  0  0  0  0  0  0  0  0
    2.6689    0.9965   17.4470 C   0  0  0  0  0  0  0  0  0  0  0  0
    1.6354    0.3179   17.6405 O   0  0  0  0  0  0  0  0  0  0  0  0
    3.3635    1.2197   16.1567 C   0  0  0  0  0  0  0  0  0  0  0  0
    2.5446    1.2206   14.9758 C   0  0  0  0  0  0  0  0  0  0  0  0
    2.1873    2.2561   14.2958 C   0  0  0  0  0  0  0  0  0  0  0  0
    1.3391    2.1685   13.0831 C   0  0  0  0  0  0  0  0  0  0  0  0
    1.7744    3.2917   12.1514 C   0  0  0  0  0  0  0  0  0  0  0  0
    3.2220    3.6281   12.3132 C   0  0  0  0  0  0  0  0  0  0  0  0
    3.6449    4.0454   13.6790 C   0  0  0  0  0  0  0  0  0  0  0  0
    2.6131    3.5818   14.7044 C   0  0  0  0  0  0  0  0  0  0  0  0
    3.2607    3.6390   16.0866 C   0  0  0  0  0  0  0  0  0  0  0  0
    2.9919    4.7535   16.6937 C   0  0  0  0  0  0  0  0  0  0  0  0
    4.0723    2.5609   16.4886 C   0  0  0  0  0  0  0  0  0  0  0  0
    3.4338    5.1401   18.0080 C   0  0  0  0  0  0  0  0  0  0  0  0
    3.9243    6.6208   17.8783 C   0  0  0  0  0  0  0  0  0  0  0  0
    3.5523    7.3841   19.1190 C   0  0  0  0  0  0  0  0  0  0  0  0
    4.9009    7.4519   19.8368 C   0  0  0  0  0  0  0  0  0  0  0  0
    5.8146    7.6925   18.6448 C   0  0  0  0  0  0  0  0  0  0  0  0
    5.5746    9.1129   18.1847 C   0  0  0  0  0  0  0  0  0  0  0  0
    7.2618    7.5319   18.9803 C   0  0  0  0  0  0  0  0  0  0  0  0
    5.3279    6.7115   17.6984 N   0  0  0  0  0  0  0  0  0  0  0  0
    5.5600    7.2974   16.3667 C   0  0  0  0  0  0  0  0  0  0  0  0
    6.0608    5.4845   17.7350 C   0  0  0  0  0  0  0  0  0  0  0  0
  1  2  1  0  0  0
  2  3  1  0  0  0
  3  4  1  0  0  0
  4  5  2  0  0  0
  4  6  1  0  0  0
  6  7  1  0  0  0
  7  8  2  0  0  0
  8  9  1  0  0  0
  9 10  1  0  0  0
 10 11  1  0  0  0
 11 12  1  0  0  0
 12 13  1  0  0  0
 13 14  1  0  0  0
 14 15  2  0  0  0
 15 17  1  0  0  0
 17 18  1  0  0  0
 18 19  1  0  0  0
 19 20  1  0  0  0
 20 21  1  0  0  0
 21 22  1  0  0  0
 21 23  1  0  0  0
 21 24  1  0  0  0
 24 25  1  0  0  0
 24 26  1  0  0  0
 14 16  1  0  0  0
 16  2  1  0  0  0
 16  6  1  0  0  0
 13  8  1  0  0  0
 24 18  1  0  0  0
M  CHG 1  24   1
M  END
> <minimizedAffinity>
-6.50938

> <CNNscore>
0.3978037536

> <CNNaffinity>
6.0257019997

> <CNN_VS>
2.3970468044

> <CNNaffinity_variance>
0.2168338746

$$$$
[H]C1=C2C([H])([H])C([H])([H])C([H])([H])C([H])([H])[C@]2([H])/C(=C(\[H])C([H])([H])C2([H])C([H])([H])C([H])([H])C(C([H])([H])[H])(C([H])([H])[H])[N+]2(C([H])([H])[H])C([H])([H])[H])[C@]2([H])[C@@]1([H])C(=O)O[C@@]2([H])C([H])([H])[H]


 26 29  0  0  0  0  0  0  0  0999 V2000
    4.3212    4.7260    6.6389 C   0  0  0  0  0  0  0  0  0  0  0  0
    4.0873    4.6240    8.1727 C   0  0  0  0  0  0  0  0  0  0  0  0
    5.3451    4.9290    8.7200 O   0  0  0  0  0  0  0  0  0  0  0  0
    6.1049    3.7836    8.4918 C   0  0  0  0  0  0  0  0  0  0  0  0
    7.3304    3.6929    8.7286 O   0  0  0  0  0  0  0  0  0  0  0  0
    5.2213    2.7312    7.9363 C   0  0  0  0  0  0  0  0  0  0  0  0
    5.5638    1.3711    8.2489 C   0  0  0  0  0  0  0  0  0  0  0  0
    4.9638    0.6090    9.0984 C   0  0  0  0  0  0  0  0  0  0  0  0
    5.3820   -0.7889    9.3605 C   0  0  0  0  0  0  0  0  0  0  0  0
    4.1226   -1.5765    9.6964 C   0  0  0  0  0  0  0  0  0  0  0  0
    2.9147   -1.0272    9.0076 C   0  0  0  0  0  0  0  0  0  0  0  0
    2.5924    0.3981    9.2960 C   0  0  0  0  0  0  0  0  0  0  0  0
    3.8265    1.1057    9.8505 C   0  0  0  0  0  0  0  0  0  0  0  0
    3.6010    2.6118    9.7334 C   0  0  0  0  0  0  0  0  0  0  0  0
    3.1306    3.1110   10.8344 C   0  0  0  0  0  0  0  0  0  0  0  0
    3.8619    3.2316    8.4962 C   0  0  0  0  0  0  0  0  0  0  0  0
    2.8065    4.4922   11.0779 C   0  0  0  0  0  0  0  0  0  0  0  0
    1.2924    4.6490   10.7139 C   0  0  0  0  0  0  0  0  0  0  0  0
    0.4979    3.5671   11.3913 C   0  0  0  0  0  0  0  0  0  0  0  0
   -0.1394    4.3477   12.5415 C   0  0  0  0  0  0  0  0  0  0  0  0
   -0.4649    5.6471   11.8209 C   0  0  0  0  0  0  0  0  0  0  0  0
   -1.6221    5.3579   10.8913 C   0  0  0  0  0  0  0  0  0  0  0  0
   -0.8584    6.7460   12.7538 C   0  0  0  0  0  0  0  0  0  0  0  0
    0.7687    5.9060   11.1096 N   0  0  0  0  0  0  0  0  0  0  0  0
    0.3754    6.6203    9.8825 C   0  0  0  0  0  0  0  0  0  0  0  0
    1.6538    6.7760   11.8192 C   0  0  0  0  0  0  0  0  0  0  0  0
  1  2  1  0  0  0
  2  3  1  0  0  0
  3  4  1  0  0  0
  4  5  2  0  0  0
  4  6  1  0  0  0
  6  7  1  0  0  0
  7  8  2  0  0  0
  8  9  1  0  0  0
  9 10  1  0  0  0
 10 11  1  0  0  0
 11 12  1  0  0  0
 12 13  1  0  0  0
 13 14  1  0  0  0
 14 15  2  0  0  0
 15 17  1  0  0  0
 17 18  1  0  0  0
 18 19  1  0  0  0
 19 20  1  0  0  0
 20 21  1  0  0  0
 21 22  1  0  0  0
 21 23  1  0  0  0
 21 24  1  0  0  0
 24 25  1  0  0  0
 24 26  1  0  0  0
 14 16  1  0  0  0
 16  2  1  0  0  0
 16  6  1  0  0  0
 13  8  1  0  0  0
 24 18  1  0  0  0
M  CHG 1  24   1
M  END
> <minimizedAffinity>
-5.01350

> <CNNscore>
0.3910532296

> <CNNaffinity>
4.9451894760

> <CNN_VS>
1.9338322878

> <CNNaffinity_variance>
0.0054092882

$$$$
[H]C1=C2C([H])([H])C([H])([H])C([H])([H])C([H])([H])[C@]2([H])/C(=C(\[H])C([H])([H])C2([H])C([H])([H])C([H])([H])C(C([H])([H])[H])(C([H])([H])[H])[N+]2(C([H])([H])[H])C([H])([H])[H])[C@]2([H])[C@@]1([H])C(=O)O[C@@]2([H])C([H])([H])[H]


 26 29  0  0  0  0  0  0  0  0999 V2000
    5.8457    9.8339    7.0218 C   0  0  0  0  0  0  0  0  0  0  0  0
    4.8976    8.8929    7.8175 C   0  0  0  0  0  0  0  0  0  0  0  0
    5.3517    7.6059    7.4828 O   0  0  0  0  0  0  0  0  0  0  0  0
    4.8912    7.4074    6.1828 C   0  0  0  0  0  0  0  0  0  0  0  0
    5.1870    6.4191    5.4743 O   0  0  0  0  0  0  0  0  0  0  0  0
    4.0170    8.5450    5.8105 C   0  0  0  0  0  0  0  0  0  0  0  0
    2.9527    8.2643    4.8867 C   0  0  0  0  0  0  0  0  0  0  0  0
    1.7010    8.1533    5.1754 C   0  0  0  0  0  0  0  0  0  0  0  0
    0.6634    7.8630    4.1572 C   0  0  0  0  0  0  0  0  0  0  0  0
   -0.6086    8.5735    4.6005 C   0  0  0  0  0  0  0  0  0  0  0  0
   -0.3172    9.8177    5.3764 C   0  0  0  0  0  0  0  0  0  0  0  0
    0.5004    9.6403    6.6086 C   0  0  0  0  0  0  0  0  0  0  0  0
    1.2499    8.3116    6.5455 C   0  0  0  0  0  0  0  0  0  0  0  0
    2.3732    8.3522    7.5796 C   0  0  0  0  0  0  0  0  0  0  0  0
    2.0112    7.8064    8.6993 C   0  0  0  0  0  0  0  0  0  0  0  0
    3.5782    8.9923    7.2314 C   0  0  0  0  0  0  0  0  0  0  0  0
    2.8171    7.6685    9.8840 C   0  0  0  0  0  0  0  0  0  0  0  0
    1.8107    7.5147   11.0729 C   0  0  0  0  0  0  0  0  0  0  0  0
    1.0199    6.2475   10.9015 C   0  0  0  0  0  0  0  0  0  0  0  0
    1.7015    5.3362   11.9230 C   0  0  0  0  0  0  0  0  0  0  0  0
    1.9258    6.3344   13.0486 C   0  0  0  0  0  0  0  0  0  0  0  0
    0.5729    6.6204   13.6606 C   0  0  0  0  0  0  0  0  0  0  0  0
    2.8368    5.8149   14.1129 C   0  0  0  0  0  0  0  0  0  0  0  0
    2.4632    7.4708   12.3311 N   0  0  0  0  0  0  0  0  0  0  0  0
    2.0300    8.6578   13.0887 C   0  0  0  0  0  0  0  0  0  0  0  0
    3.8925    7.4995   12.3149 C   0  0  0  0  0  0  0  0  0  0  0  0
  1  2  1  0  0  0
  2  3  1  0  0  0
  3  4  1  0  0  0
  4  5  2  0  0  0
  4  6  1  0  0  0
  6  7  1  0  0  0
  7  8  2  0  0  0
  8  9  1  0  0  0
  9 10  1  0  0  0
 10 11  1  0  0  0
 11 12  1  0  0  0
 12 13  1  0  0  0
 13 14  1  0  0  0
 14 15  2  0  0  0
 15 17  1  0  0  0
 17 18  1  0  0  0
 18 19  1  0  0  0
 19 20  1  0  0  0
 20 21  1  0  0  0
 21 22  1  0  0  0
 21 23  1  0  0  0
 21 24  1  0  0  0
 24 25  1  0  0  0
 24 26  1  0  0  0
 14 16  1  0  0  0
 16  2  1  0  0  0
 16  6  1  0  0  0
 13  8  1  0  0  0
 24 18  1  0  0  0
M  CHG 1  24   1
M  END
> <minimizedAffinity>
-5.14443

> <CNNscore>
0.3907504976

> <CNNaffinity>
5.0580496788

> <CNN_VS>
1.9764354229

> <CNNaffinity_variance>
0.1310210228

$$$$
[H]C1=C2C([H])([H])C([H])([H])C([H])([H])C([H])([H])[C@]2([H])/C(=C(\[H])C([H])([H])C2([H])C([H])([H])C([H])([H])C(C([H])([H])[H])(C([H])([H])[H])[N+]2(C([H])([H])[H])C([H])([H])[H])[C@]2([H])[C@@]1([H])C(=O)O[C@@]2([H])C([H])([H])[H]


 26 29  0  0  0  0  0  0  0  0999 V2000
    5.5001    1.2087   18.3347 C   0  0  0  0  0  0  0  0  0  0  0  0
    4.4137    2.3190   18.4029 C   0  0  0  0  0  0  0  0  0  0  0  0
    3.2834    1.6457   18.8967 O   0  0  0  0  0  0  0  0  0  0  0  0
    2.8292    0.8978   17.8125 C   0  0  0  0  0  0  0  0  0  0  0  0
    1.8999    0.0618   17.8738 O   0  0  0  0  0  0  0  0  0  0  0  0
    3.6244    1.2648   16.6168 C   0  0  0  0  0  0  0  0  0  0  0  0
    2.9576    1.1749   15.3470 C   0  0  0  0  0  0  0  0  0  0  0  0
    2.5229    2.1628   14.6417 C   0  0  0  0  0  0  0  0  0  0  0  0
    1.8448    1.9820   13.3359 C   0  0  0  0  0  0  0  0  0  0  0  0
    2.2028    3.1868   12.4760 C   0  0  0  0  0  0  0  0  0  0  0  0
    3.5511    3.7381   12.8127 C   0  0  0  0  0  0  0  0  0  0  0  0
    3.7425    4.1740   14.2240 C   0  0  0  0  0  0  0  0  0  0  0  0
    2.6849    3.5254   15.1139 C   0  0  0  0  0  0  0  0  0  0  0  0
    3.1513    3.6401   16.5638 C   0  0  0  0  0  0  0  0  0  0  0  0
    2.6424    4.6805   17.1480 C   0  0  0  0  0  0  0  0  0  0  0  0
    4.0705    2.6888   17.0466 C   0  0  0  0  0  0  0  0  0  0  0  0
    2.8632    5.0908   18.5100 C   0  0  0  0  0  0  0  0  0  0  0  0
    4.1797    5.9372   18.4958 C   0  0  0  0  0  0  0  0  0  0  0  0
    3.9135    7.2701   17.8531 C   0  0  0  0  0  0  0  0  0  0  0  0
    3.8497    8.1799   19.0806 C   0  0  0  0  0  0  0  0  0  0  0  0
    4.9752    7.5761   19.9068 C   0  0  0  0  0  0  0  0  0  0  0  0
    6.2728    7.9628   19.2335 C   0  0  0  0  0  0  0  0  0  0  0  0
    4.9946    8.0756   21.3149 C   0  0  0  0  0  0  0  0  0  0  0  0
    4.6926    6.1607   19.7988 N   0  0  0  0  0  0  0  0  0  0  0  0
    6.0019    5.4892   19.8733 C   0  0  0  0  0  0  0  0  0  0  0  0
    3.9166    5.6585   20.8895 C   0  0  0  0  0  0  0  0  0  0  0  0
  1  2  1  0  0  0
  2  3  1  0  0  0
  3  4  1  0  0  0
  4  5  2  0  0  0
  4  6  1  0  0  0
  6  7  1  0  0  0
  7  8  2  0  0  0
  8  9  1  0  0  0
  9 10  1  0  0  0
 10 11  1  0  0  0
 11 12  1  0  0  0
 12 13  1  0  0  0
 13 14  1  0  0  0
 14 15  2  0  0  0
 15 17  1  0  0  0
 17 18  1  0  0  0
 18 19  1  0  0  0
 19 20  1  0  0  0
 20 21  1  0  0  0
 21 22  1  0  0  0
 21 23  1  0  0  0
 21 24  1  0  0  0
 24 25  1  0  0  0
 24 26  1  0  0  0
 14 16  1  0  0  0
 16  2  1  0  0  0
 16  6  1  0  0  0
 13  8  1  0  0  0
 24 18  1  0  0  0
M  CHG 1  24   1
M  END
> <minimizedAffinity>
-7.69532

> <CNNscore>
0.3681718111

> <CNNaffinity>
6.0834069252

> <CNN_VS>
2.2397389412

> <CNNaffinity_variance>
0.1773192436

$$$$
[H]C1=C2C([H])([H])C([H])([H])C([H])([H])C([H])([H])[C@]2([H])/C(=C(\[H])C([H])([H])C2([H])C([H])([H])C([H])([H])C(C([H])([H])[H])(C([H])([H])[H])[N+]2(C([H])([H])[H])C([H])([H])[H])[C@]2([H])[C@@]1([H])C(=O)O[C@@]2([H])C([H])([H])[H]


 26 29  0  0  0  0  0  0  0  0999 V2000
    6.5708    1.9057   21.6444 C   0  0  0  0  0  0  0  0  0  0  0  0
    5.5109    2.9827   21.2777 C   0  0  0  0  0  0  0  0  0  0  0  0
    4.4370    2.6961   22.1376 O   0  0  0  0  0  0  0  0  0  0  0  0
    3.8547    1.5549   21.5900 C   0  0  0  0  0  0  0  0  0  0  0  0
    2.9297    0.9080   22.1303 O   0  0  0  0  0  0  0  0  0  0  0  0
    4.5127    1.2618   20.2946 C   0  0  0  0  0  0  0  0  0  0  0  0
    3.7049    0.6248   19.2912 C   0  0  0  0  0  0  0  0  0  0  0  0
    3.2033    1.1872   18.2451 C   0  0  0  0  0  0  0  0  0  0  0  0
    2.3793    0.4539   17.2546 C   0  0  0  0  0  0  0  0  0  0  0  0
    2.6499    1.0837   15.8946 C   0  0  0  0  0  0  0  0  0  0  0  0
    4.0334    1.6419   15.7980 C   0  0  0  0  0  0  0  0  0  0  0  0
    4.3886    2.6801   16.8052 C   0  0  0  0  0  0  0  0  0  0  0  0
    3.4323    2.5977   17.9925 C   0  0  0  0  0  0  0  0  0  0  0  0
    4.0617    3.3544   19.1605 C   0  0  0  0  0  0  0  0  0  0  0  0
    3.6334    4.5773   19.2231 C   0  0  0  0  0  0  0  0  0  0  0  0
    5.0197    2.6883   19.9487 C   0  0  0  0  0  0  0  0  0  0  0  0
    4.0119    5.5677   20.1967 C   0  0  0  0  0  0  0  0  0  0  0  0
    4.8703    6.6240   19.4239 C   0  0  0  0  0  0  0  0  0  0  0  0
    3.9699    7.4841   18.5812 C   0  0  0  0  0  0  0  0  0  0  0  0
    3.9234    8.7650   19.4152 C   0  0  0  0  0  0  0  0  0  0  0  0
    5.3734    8.8279   19.8707 C   0  0  0  0  0  0  0  0  0  0  0  0
    6.1991    9.2091   18.6625 C   0  0  0  0  0  0  0  0  0  0  0  0
    5.6006    9.8375   20.9485 C   0  0  0  0  0  0  0  0  0  0  0  0
    5.6072    7.4645   20.2965 N   0  0  0  0  0  0  0  0  0  0  0  0
    7.0362    7.2105   20.0430 C   0  0  0  0  0  0  0  0  0  0  0  0
    5.4035    7.2715   21.6983 C   0  0  0  0  0  0  0  0  0  0  0  0
  1  2  1  0  0  0
  2  3  1  0  0  0
  3  4  1  0  0  0
  4  5  2  0  0  0
  4  6  1  0  0  0
  6  7  1  0  0  0
  7  8  2  0  0  0
  8  9  1  0  0  0
  9 10  1  0  0  0
 10 11  1  0  0  0
 11 12  1  0  0  0
 12 13  1  0  0  0
 13 14  1  0  0  0
 14 15  2  0  0  0
 15 17  1  0  0  0
 17 18  1  0  0  0
 18 19  1  0  0  0
 19 20  1  0  0  0
 20 21  1  0  0  0
 21 22  1  0  0  0
 21 23  1  0  0  0
 21 24  1  0  0  0
 24 25  1  0  0  0
 24 26  1  0  0  0
 14 16  1  0  0  0
 16  2  1  0  0  0
 16  6  1  0  0  0
 13  8  1  0  0  0
 24 18  1  0  0  0
M  CHG 1  24   1
M  END
> <minimizedAffinity>
-9.36254

> <CNNscore>
0.3665848672

> <CNNaffinity>
6.2629132271

> <CNN_VS>
2.2958891392

> <CNNaffinity_variance>
0.1035314575

$$$$
[H]C1=C2C([H])([H])C([H])([H])C([H])([H])C([H])([H])[C@]2([H])/C(=C(\[H])C([H])([H])C2([H])C([H])([H])C([H])([H])C(C([H])([H])[H])(C([H])([H])[H])[N+]2(C([H])([H])[H])C([H])([H])[H])[C@]2([H])[C@@]1([H])C(=O)O[C@@]2([H])C([H])([H])[H]


 26 29  0  0  0  0  0  0  0  0999 V2000
    1.7006    1.2650    9.9399 C   0  0  0  0  0  0  0  0  0  0  0  0
    2.3950    2.4990   10.5822 C   0  0  0  0  0  0  0  0  0  0  0  0
    1.6294    3.5848   10.1244 O   0  0  0  0  0  0  0  0  0  0  0  0
    2.0074    3.7328    8.7916 C   0  0  0  0  0  0  0  0  0  0  0  0
    1.4644    4.5253    7.9896 O   0  0  0  0  0  0  0  0  0  0  0  0
    3.1324    2.8091    8.5123 C   0  0  0  0  0  0  0  0  0  0  0  0
    4.0798    3.2300    7.5171 C   0  0  0  0  0  0  0  0  0  0  0  0
    5.2682    3.6795    7.7367 C   0  0  0  0  0  0  0  0  0  0  0  0
    6.1860    4.0918    6.6480 C   0  0  0  0  0  0  0  0  0  0  0  0
    7.6012    3.7747    7.1127 C   0  0  0  0  0  0  0  0  0  0  0  0
    7.6405    2.5996    8.0361 C   0  0  0  0  0  0  0  0  0  0  0  0
    6.8220    2.7171    9.2749 C   0  0  0  0  0  0  0  0  0  0  0  0
    5.7639    3.8030    9.0949 C   0  0  0  0  0  0  0  0  0  0  0  0
    4.7009    3.6116   10.1750 C   0  0  0  0  0  0  0  0  0  0  0  0
    4.9311    4.3603   11.2090 C   0  0  0  0  0  0  0  0  0  0  0  0
    3.6890    2.6577    9.9541 C   0  0  0  0  0  0  0  0  0  0  0  0
    4.1332    4.4370   12.4046 C   0  0  0  0  0  0  0  0  0  0  0  0
    3.8430    5.9583   12.6308 C   0  0  0  0  0  0  0  0  0  0  0  0
    3.3435    6.5704   11.3516 C   0  0  0  0  0  0  0  0  0  0  0  0
    1.8466    6.6809   11.6444 C   0  0  0  0  0  0  0  0  0  0  0  0
    1.9009    7.1045   13.1043 C   0  0  0  0  0  0  0  0  0  0  0  0
    2.3841    8.5372   13.1301 C   0  0  0  0  0  0  0  0  0  0  0  0
    0.5703    7.0319   13.7802 C   0  0  0  0  0  0  0  0  0  0  0  0
    2.8747    6.1792   13.6430 N   0  0  0  0  0  0  0  0  0  0  0  0
    3.5451    6.9030   14.7373 C   0  0  0  0  0  0  0  0  0  0  0  0
    2.2814    5.0178   14.2288 C   0  0  0  0  0  0  0  0  0  0  0  0
  1  2  1  0  0  0
  2  3  1  0  0  0
  3  4  1  0  0  0
  4  5  2  0  0  0
  4  6  1  0  0  0
  6  7  1  0  0  0
  7  8  2  0  0  0
  8  9  1  0  0  0
  9 10  1  0  0  0
 10 11  1  0  0  0
 11 12  1  0  0  0
 12 13  1  0  0  0
 13 14  1  0  0  0
 14 15  2  0  0  0
 15 17  1  0  0  0
 17 18  1  0  0  0
 18 19  1  0  0  0
 19 20  1  0  0  0
 20 21  1  0  0  0
 21 22  1  0  0  0
 21 23  1  0  0  0
 21 24  1  0  0  0
 24 25  1  0  0  0
 24 26  1  0  0  0
 14 16  1  0  0  0
 16  2  1  0  0  0
 16  6  1  0  0  0
 13  8  1  0  0  0
 24 18  1  0  0  0
M  CHG 1  24   1
M  END
> <minimizedAffinity>
-4.84225

> <CNNscore>
0.3653656542

> <CNNaffinity>
4.9551639557

> <CNN_VS>
1.8104467392

> <CNNaffinity_variance>
0.0392404497

$$$$
[H]c1c([H])c([H])c(C([H])([H])N2C([H])([H])C([H])([H])C([H])(C([H])([H])C([H])([H])N([H])C(=O)c3c([H])c([H])c([H])c([N+](=O)[O-])c3[H])C([H])([H])C2([H])[H])c([H])c1[H]


 28 30  0  0  0  0  0  0  0  0999 V2000
    6.6120    6.0663   17.9227 C   0  0  0  0  0  0  0  0  0  0  0  0
    5.6386    3.5765   18.7547 O   0  0  0  0  0  0  0  0  0  0  0  0
    5.2933    3.9834   17.6175 C   0  0  0  0  0  0  0  0  0  0  0  0
    5.7536    5.2221   17.1479 N   0  0  0  0  0  0  0  0  0  0  0  0
    5.4800    5.5728   16.2049 H   0  0  0  0  0  0  0  0  0  0  0  0
    4.4142    3.0997   16.8624 C   0  0  0  0  0  0  0  0  0  0  0  0
    4.1027    3.3719   15.5513 C   0  0  0  0  0  0  0  0  0  0  0  0
    3.2572    2.5216   14.8260 C   0  0  0  0  0  0  0  0  0  0  0  0
    2.7302    1.4024   15.4250 C   0  0  0  0  0  0  0  0  0  0  0  0
    3.0215    1.0949   16.7453 C   0  0  0  0  0  0  0  0  0  0  0  0
    3.8646    1.9702   17.4194 C   0  0  0  0  0  0  0  0  0  0  0  0
    2.4948   -0.0486   17.3898 N   0  0  0  0  0  0  0  0  0  0  0  0
    3.0634   -1.1352   17.2470 O   0  0  0  0  0  0  0  0  0  0  0  0
    1.3769    0.0401   18.1588 O   0  0  0  0  0  0  0  0  0  0  0  0
    5.8878    7.3233   18.3055 C   0  0  0  0  0  0  0  0  0  0  0  0
    5.4140    7.1332   19.7391 C   0  0  0  0  0  0  0  0  0  0  0  0
    6.3525    6.2425   20.5102 C   0  0  0  0  0  0  0  0  0  0  0  0
    5.8765    6.2750   21.9666 C   0  0  0  0  0  0  0  0  0  0  0  0
    4.5517    5.7823   22.0679 N   0  0  0  0  0  0  0  0  0  0  0  0
    3.8978    5.4693   20.8445 C   0  0  0  0  0  0  0  0  0  0  0  0
    4.0291    6.5328   19.7857 C   0  0  0  0  0  0  0  0  0  0  0  0
    4.4962    4.6467   22.9479 C   0  0  0  0  0  0  0  0  0  0  0  0
    4.9488    3.3850   22.3603 C   0  0  0  0  0  0  0  0  0  0  0  0
    3.9687    2.5553   21.8329 C   0  0  0  0  0  0  0  0  0  0  0  0
    4.2640    1.3447   21.2425 C   0  0  0  0  0  0  0  0  0  0  0  0
    5.5854    0.9771   21.1915 C   0  0  0  0  0  0  0  0  0  0  0  0
    6.5603    1.7912   21.7106 C   0  0  0  0  0  0  0  0  0  0  0  0
    6.2568    2.9908   22.2945 C   0  0  0  0  0  0  0  0  0  0  0  0
  2  3  2  0  0  0
  3  4  1  0  0  0
  4  1  1  0  0  0
  1 15  1  0  0  0
 15 16  1  0  0  0
 16 17  1  0  0  0
 17 18  1  0  0  0
 18 19  1  0  0  0
 19 22  1  0  0  0
 22 23  1  0  0  0
 23 24  2  0  0  0
 24 25  1  0  0  0
 25 26  2  0  0  0
 26 27  1  0  0  0
 27 28  2  0  0  0
 19 20  1  0  0  0
 20 21  1  0  0  0
  3  6  1  0  0  0
  6  7  2  0  0  0
  7  8  1  0  0  0
  8  9  2  0  0  0
  9 10  1  0  0  0
 10 12  1  0  0  0
 12 13  2  0  0  0
 12 14  1  0  0  0
 10 11  2  0  0  0
 21 16  1  0  0  0
 11  6  1  0  0  0
 28 23  1  0  0  0
  4  5  1  0  0  0
M  CHG 1  12   1
M  CHG 1  14  -1
M  END
> <minimizedAffinity>
-8.21928

> <CNNscore>
0.7240751982

> <CNNaffinity>
6.4256668091

> <CNN_VS>
4.6526660919

> <CNNaffinity_variance>
0.0777280480

$$$$
[H]c1c([H])c([H])c(C([H])([H])N2C([H])([H])C([H])([H])C([H])(C([H])([H])C([H])([H])N([H])C(=O)c3c([H])c([H])c([H])c([N+](=O)[O-])c3[H])C([H])([H])C2([H])[H])c([H])c1[H]


 28 30  0  0  0  0  0  0  0  0999 V2000
    3.5020   -0.1597   20.5128 C   0  0  0  0  0  0  0  0  0  0  0  0
    2.6169   -0.4870   17.8768 O   0  0  0  0  0  0  0  0  0  0  0  0
    3.2121    0.5825   18.1600 C   0  0  0  0  0  0  0  0  0  0  0  0
    3.6800    0.7988   19.4642 N   0  0  0  0  0  0  0  0  0  0  0  0
    4.1796    1.6788   19.7150 H   0  0  0  0  0  0  0  0  0  0  0  0
    3.3678    1.5354   17.0684 C   0  0  0  0  0  0  0  0  0  0  0  0
    4.1465    2.6581   17.2220 C   0  0  0  0  0  0  0  0  0  0  0  0
    4.2956    3.5739   16.1719 C   0  0  0  0  0  0  0  0  0  0  0  0
    3.6599    3.3542   14.9732 C   0  0  0  0  0  0  0  0  0  0  0  0
    2.8666    2.2334   14.7806 C   0  0  0  0  0  0  0  0  0  0  0  0
    2.7519    1.3571   15.8531 C   0  0  0  0  0  0  0  0  0  0  0  0
    2.1994    1.9795   13.5596 N   0  0  0  0  0  0  0  0  0  0  0  0
    2.8592    1.8959   12.5194 O   0  0  0  0  0  0  0  0  0  0  0  0
    0.8485    1.8279   13.5243 O   0  0  0  0  0  0  0  0  0  0  0  0
    2.9369    0.5098   21.7308 C   0  0  0  0  0  0  0  0  0  0  0  0
    4.0201    1.4392   22.2587 C   0  0  0  0  0  0  0  0  0  0  0  0
    3.4831    2.8275   22.4889 C   0  0  0  0  0  0  0  0  0  0  0  0
    4.6021    3.6115   23.1830 C   0  0  0  0  0  0  0  0  0  0  0  0
    5.7532    3.6703   22.3587 N   0  0  0  0  0  0  0  0  0  0  0  0
    5.7009    2.9308   21.1453 C   0  0  0  0  0  0  0  0  0  0  0  0
    5.1861    1.5238   21.3026 C   0  0  0  0  0  0  0  0  0  0  0  0
    6.1085    5.0346   22.0763 C   0  0  0  0  0  0  0  0  0  0  0  0
    5.5330    5.5829   20.8475 C   0  0  0  0  0  0  0  0  0  0  0  0
    6.4227    5.9071   19.8324 C   0  0  0  0  0  0  0  0  0  0  0  0
    6.0081    6.4219   18.6222 C   0  0  0  0  0  0  0  0  0  0  0  0
    4.6593    6.6083   18.4485 C   0  0  0  0  0  0  0  0  0  0  0  0
    3.7733    6.2906   19.4468 C   0  0  0  0  0  0  0  0  0  0  0  0
    4.1949    5.7802   20.6442 C   0  0  0  0  0  0  0  0  0  0  0  0
  2  3  2  0  0  0
  3  4  1  0  0  0
  4  1  1  0  0  0
  1 15  1  0  0  0
 15 16  1  0  0  0
 16 17  1  0  0  0
 17 18  1  0  0  0
 18 19  1  0  0  0
 19 22  1  0  0  0
 22 23  1  0  0  0
 23 24  2  0  0  0
 24 25  1  0  0  0
 25 26  2  0  0  0
 26 27  1  0  0  0
 27 28  2  0  0  0
 19 20  1  0  0  0
 20 21  1  0  0  0
  3  6  1  0  0  0
  6  7  2  0  0  0
  7  8  1  0  0  0
  8  9  2  0  0  0
  9 10  1  0  0  0
 10 12  1  0  0  0
 12 13  2  0  0  0
 12 14  1  0  0  0
 10 11  2  0  0  0
 21 16  1  0  0  0
 11  6  1  0  0  0
 28 23  1  0  0  0
  4  5  1  0  0  0
M  CHG 1  12   1
M  CHG 1  14  -1
M  END
> <minimizedAffinity>
-7.89725

> <CNNscore>
0.5893453360

> <CNNaffinity>
6.4501152039

> <CNN_VS>
3.8013453484

> <CNNaffinity_variance>
0.3989455700

$$$$
[H]c1c([H])c([H])c(C([H])([H])N2C([H])([H])C([H])([H])C([H])(C([H])([H])C([H])([H])N([H])C(=O)c3c([H])c([H])c([H])c([N+](=O)[O-])c3[H])C([H])([H])C2([H])[H])c([H])c1[H]


 28 30  0  0  0  0  0  0  0  0999 V2000
    4.4144    1.0553   21.6742 C   0  0  0  0  0  0  0  0  0  0  0  0
    5.3713    2.5044   19.4780 O   0  0  0  0  0  0  0  0  0  0  0  0
    4.3955    1.7370   19.2855 C   0  0  0  0  0  0  0  0  0  0  0  0
    3.8727    0.9891   20.3505 N   0  0  0  0  0  0  0  0  0  0  0  0
    3.0606    0.3508   20.2090 H   0  0  0  0  0  0  0  0  0  0  0  0
    3.8768    1.6920   17.9244 C   0  0  0  0  0  0  0  0  0  0  0  0
    3.1603    0.6053   17.4815 C   0  0  0  0  0  0  0  0  0  0  0  0
    2.6620    0.5628   16.1725 C   0  0  0  0  0  0  0  0  0  0  0  0
    2.8879    1.6145   15.3169 C   0  0  0  0  0  0  0  0  0  0  0  0
    3.6058    2.7275   15.7274 C   0  0  0  0  0  0  0  0  0  0  0  0
    4.0777    2.7196   17.0345 C   0  0  0  0  0  0  0  0  0  0  0  0
    3.8553    3.8250   14.8709 N   0  0  0  0  0  0  0  0  0  0  0  0
    4.0606    4.9383   15.3638 O   0  0  0  0  0  0  0  0  0  0  0  0
    3.8708    3.6637   13.5208 O   0  0  0  0  0  0  0  0  0  0  0  0
    3.5565    1.9328   22.5374 C   0  0  0  0  0  0  0  0  0  0  0  0
    4.4068    3.1370   22.9149 C   0  0  0  0  0  0  0  0  0  0  0  0
    4.1349    4.3043   22.0026 C   0  0  0  0  0  0  0  0  0  0  0  0
    4.9025    5.4948   22.5875 C   0  0  0  0  0  0  0  0  0  0  0  0
    6.2927    5.2223   22.6207 N   0  0  0  0  0  0  0  0  0  0  0  0
    6.6906    3.9143   22.2295 C   0  0  0  0  0  0  0  0  0  0  0  0
    5.8800    2.8101   22.8566 C   0  0  0  0  0  0  0  0  0  0  0  0
    7.0214    6.1965   21.8546 C   0  0  0  0  0  0  0  0  0  0  0  0
    8.4700    6.1912   22.0630 C   0  0  0  0  0  0  0  0  0  0  0  0
    9.2607    6.4641   20.9551 C   0  0  0  0  0  0  0  0  0  0  0  0
   10.6377    6.4994   21.0201 C   0  0  0  0  0  0  0  0  0  0  0  0
   11.2149    6.2508   22.2403 C   0  0  0  0  0  0  0  0  0  0  0  0
   10.4406    5.9801   23.3402 C   0  0  0  0  0  0  0  0  0  0  0  0
    9.0748    5.9475   23.2653 C   0  0  0  0  0  0  0  0  0  0  0  0
  2  3  2  0  0  0
  3  4  1  0  0  0
  4  1  1  0  0  0
  1 15  1  0  0  0
 15 16  1  0  0  0
 16 17  1  0  0  0
 17 18  1  0  0  0
 18 19  1  0  0  0
 19 22  1  0  0  0
 22 23  1  0  0  0
 23 24  2  0  0  0
 24 25  1  0  0  0
 25 26  2  0  0  0
 26 27  1  0  0  0
 27 28  2  0  0  0
 19 20  1  0  0  0
 20 21  1  0  0  0
  3  6  1  0  0  0
  6  7  2  0  0  0
  7  8  1  0  0  0
  8  9  2  0  0  0
  9 10  1  0  0  0
 10 12  1  0  0  0
 12 13  2  0  0  0
 12 14  1  0  0  0
 10 11  2  0  0  0
 21 16  1  0  0  0
 11  6  1  0  0  0
 28 23  1  0  0  0
  4  5  1  0  0  0
M  CHG 1  12   1
M  CHG 1  14  -1
M  END
> <minimizedAffinity>
-7.76204

> <CNNscore>
0.5733013153

> <CNNaffinity>
6.2524280548

> <CNN_VS>
3.5845253468

> <CNNaffinity_variance>
0.1051853895

$$$$
[H]c1c([H])c([H])c(C([H])([H])N2C([H])([H])C([H])([H])C([H])(C([H])([H])C([H])([H])N([H])C(=O)c3c([H])c([H])c([H])c([N+](=O)[O-])c3[H])C([H])([H])C2([H])[H])c([H])c1[H]


 28 30  0  0  0  0  0  0  0  0999 V2000
    3.0986   -0.1979   20.3382 C   0  0  0  0  0  0  0  0  0  0  0  0
    2.4609   -0.5796   17.6388 O   0  0  0  0  0  0  0  0  0  0  0  0
    3.0089    0.5051   17.9573 C   0  0  0  0  0  0  0  0  0  0  0  0
    3.3534    0.7488   19.2948 N   0  0  0  0  0  0  0  0  0  0  0  0
    3.8125    1.6417   19.5755 H   0  0  0  0  0  0  0  0  0  0  0  0
    3.2455    1.4452   16.8692 C   0  0  0  0  0  0  0  0  0  0  0  0
    4.0874    2.5187   17.0392 C   0  0  0  0  0  0  0  0  0  0  0  0
    4.3142    3.4223   15.9924 C   0  0  0  0  0  0  0  0  0  0  0  0
    3.6921    3.2399   14.7805 C   0  0  0  0  0  0  0  0  0  0  0  0
    2.8364    2.1691   14.5711 C   0  0  0  0  0  0  0  0  0  0  0  0
    2.6459    1.3028   15.6411 C   0  0  0  0  0  0  0  0  0  0  0  0
    2.1811    1.9544   13.3362 N   0  0  0  0  0  0  0  0  0  0  0  0
    2.8515    1.8991   12.3009 O   0  0  0  0  0  0  0  0  0  0  0  0
    0.8301    1.8095   13.2823 O   0  0  0  0  0  0  0  0  0  0  0  0
    3.6769    0.2948   21.6320 C   0  0  0  0  0  0  0  0  0  0  0  0
    4.0393    1.7572   21.4178 C   0  0  0  0  0  0  0  0  0  0  0  0
    5.4956    1.9125   21.0663 C   0  0  0  0  0  0  0  0  0  0  0  0
    5.6944    3.3873   20.6999 C   0  0  0  0  0  0  0  0  0  0  0  0
    5.3723    4.2207   21.7998 N   0  0  0  0  0  0  0  0  0  0  0  0
    4.8412    3.5739   22.9495 C   0  0  0  0  0  0  0  0  0  0  0  0
    3.7480    2.5820   22.6489 C   0  0  0  0  0  0  0  0  0  0  0  0
    6.5028    5.0243   22.1785 C   0  0  0  0  0  0  0  0  0  0  0  0
    6.2642    6.4682   22.1788 C   0  0  0  0  0  0  0  0  0  0  0  0
    5.2381    6.9311   21.3664 C   0  0  0  0  0  0  0  0  0  0  0  0
    4.9055    8.2668   21.2842 C   0  0  0  0  0  0  0  0  0  0  0  0
    5.6361    9.1436   22.0467 C   0  0  0  0  0  0  0  0  0  0  0  0
    6.6520    8.6942   22.8522 C   0  0  0  0  0  0  0  0  0  0  0  0
    6.9742    7.3666   22.9267 C   0  0  0  0  0  0  0  0  0  0  0  0
  2  3  2  0  0  0
  3  4  1  0  0  0
  4  1  1  0  0  0
  1 15  1  0  0  0
 15 16  1  0  0  0
 16 17  1  0  0  0
 17 18  1  0  0  0
 18 19  1  0  0  0
 19 22  1  0  0  0
 22 23  1  0  0  0
 23 24  2  0  0  0
 24 25  1  0  0  0
 25 26  2  0  0  0
 26 27  1  0  0  0
 27 28  2  0  0  0
 19 20  1  0  0  0
 20 21  1  0  0  0
  3  6  1  0  0  0
  6  7  2  0  0  0
  7  8  1  0  0  0
  8  9  2  0  0  0
  9 10  1  0  0  0
 10 12  1  0  0  0
 12 13  2  0  0  0
 12 14  1  0  0  0
 10 11  2  0  0  0
 21 16  1  0  0  0
 11  6  1  0  0  0
 28 23  1  0  0  0
  4  5  1  0  0  0
M  CHG 1  12   1
M  CHG 1  14  -1
M  END
> <minimizedAffinity>
-8.33487

> <CNNscore>
0.4952537715

> <CNNaffinity>
6.1263599396

> <CNN_VS>
3.0341029167

> <CNNaffinity_variance>
0.1044349298

$$$$
[H]c1c([H])c([H])c(C([H])([H])N2C([H])([H])C([H])([H])C([H])(C([H])([H])C([H])([H])N([H])C(=O)c3c([H])c([H])c([H])c([N+](=O)[O-])c3[H])C([H])([H])C2([H])[H])c([H])c1[H]


 28 30  0  0  0  0  0  0  0  0999 V2000
    3.0404   -0.2012   20.3718 C   0  0  0  0  0  0  0  0  0  0  0  0
    2.5022   -0.6698   17.6644 O   0  0  0  0  0  0  0  0  0  0  0  0
    2.9736    0.4522   17.9761 C   0  0  0  0  0  0  0  0  0  0  0  0
    3.2653    0.7407   19.3172 N   0  0  0  0  0  0  0  0  0  0  0  0
    3.6609    1.6652   19.5924 H   0  0  0  0  0  0  0  0  0  0  0  0
    3.1819    1.3855   16.8764 C   0  0  0  0  0  0  0  0  0  0  0  0
    2.7731    1.0714   15.6018 C   0  0  0  0  0  0  0  0  0  0  0  0
    2.9740    1.9694   14.5449 C   0  0  0  0  0  0  0  0  0  0  0  0
    3.5852    3.1784   14.7773 C   0  0  0  0  0  0  0  0  0  0  0  0
    4.0109    3.5305   16.0491 C   0  0  0  0  0  0  0  0  0  0  0  0
    3.7879    2.6048   17.0614 C   0  0  0  0  0  0  0  0  0  0  0  0
    4.6431    4.7663   16.3203 N   0  0  0  0  0  0  0  0  0  0  0  0
    4.1928    5.7970   15.8111 O   0  0  0  0  0  0  0  0  0  0  0  0
    5.7332    4.8262   17.1308 O   0  0  0  0  0  0  0  0  0  0  0  0
    3.7523    0.2409   21.6164 C   0  0  0  0  0  0  0  0  0  0  0  0
    4.0303    1.7282   21.4538 C   0  0  0  0  0  0  0  0  0  0  0  0
    5.4746    1.9785   21.1073 C   0  0  0  0  0  0  0  0  0  0  0  0
    5.5883    3.4741   20.7932 C   0  0  0  0  0  0  0  0  0  0  0  0
    5.2220    4.2486   21.9219 N   0  0  0  0  0  0  0  0  0  0  0  0
    4.7314    3.5325   23.0483 C   0  0  0  0  0  0  0  0  0  0  0  0
    3.6956    2.4912   22.7133 C   0  0  0  0  0  0  0  0  0  0  0  0
    6.3059    5.1014   22.3282 C   0  0  0  0  0  0  0  0  0  0  0  0
    6.0565    6.5354   22.1757 C   0  0  0  0  0  0  0  0  0  0  0  0
    6.9429    7.3939   22.8117 C   0  0  0  0  0  0  0  0  0  0  0  0
    6.8249    8.7658   22.7381 C   0  0  0  0  0  0  0  0  0  0  0  0
    5.7813    9.2673   22.0010 C   0  0  0  0  0  0  0  0  0  0  0  0
    4.9007    8.4257   21.3694 C   0  0  0  0  0  0  0  0  0  0  0  0
    5.0265    7.0656   21.4486 C   0  0  0  0  0  0  0  0  0  0  0  0
  2  3  2  0  0  0
  3  4  1  0  0  0
  4  1  1  0  0  0
  1 15  1  0  0  0
 15 16  1  0  0  0
 16 17  1  0  0  0
 17 18  1  0  0  0
 18 19  1  0  0  0
 19 22  1  0  0  0
 22 23  1  0  0  0
 23 24  2  0  0  0
 24 25  1  0  0  0
 25 26  2  0  0  0
 26 27  1  0  0  0
 27 28  2  0  0  0
 19 20  1  0  0  0
 20 21  1  0  0  0
  3  6  1  0  0  0
  6  7  2  0  0  0
  7  8  1  0  0  0
  8  9  2  0  0  0
  9 10  1  0  0  0
 10 12  1  0  0  0
 12 13  2  0  0  0
 12 14  1  0  0  0
 10 11  2  0  0  0
 21 16  1  0  0  0
 11  6  1  0  0  0
 28 23  1  0  0  0
  4  5  1  0  0  0
M  CHG 1  12   1
M  CHG 1  14  -1
M  END
> <minimizedAffinity>
-8.36697

> <CNNscore>
0.4525500238

> <CNNaffinity>
6.0933084488

> <CNN_VS>
2.7575268745

> <CNNaffinity_variance>
0.0555253550

$$$$
[H]c1c([H])c([H])c(C([H])([H])N2C([H])([H])C([H])([H])C([H])(C([H])([H])C([H])([H])N([H])C(=O)c3c([H])c([H])c([H])c([N+](=O)[O-])c3[H])C([H])([H])C2([H])[H])c([H])c1[H]


 28 30  0  0  0  0  0  0  0  0999 V2000
    6.4576    5.7775   17.7955 C   0  0  0  0  0  0  0  0  0  0  0  0
    5.4472    3.3214   18.6818 O   0  0  0  0  0  0  0  0  0  0  0  0
    5.1465    3.6860   17.5179 C   0  0  0  0  0  0  0  0  0  0  0  0
    5.6273    4.9059   17.0204 N   0  0  0  0  0  0  0  0  0  0  0  0
    5.3908    5.2214   16.0553 H   0  0  0  0  0  0  0  0  0  0  0  0
    4.2947    2.7756   16.7632 C   0  0  0  0  0  0  0  0  0  0  0  0
    3.8956    1.5764   17.3043 C   0  0  0  0  0  0  0  0  0  0  0  0
    3.0767    0.7015   16.5779 C   0  0  0  0  0  0  0  0  0  0  0  0
    2.6643    1.0390   15.3109 C   0  0  0  0  0  0  0  0  0  0  0  0
    3.0461    2.2397   14.7318 C   0  0  0  0  0  0  0  0  0  0  0  0
    3.8581    3.0709   15.4942 C   0  0  0  0  0  0  0  0  0  0  0  0
    2.6389    2.6154   13.4305 N   0  0  0  0  0  0  0  0  0  0  0  0
    3.1896    3.5742   12.8811 O   0  0  0  0  0  0  0  0  0  0  0  0
    1.6544    1.9336   12.7863 O   0  0  0  0  0  0  0  0  0  0  0  0
    5.7060    7.0286   18.1434 C   0  0  0  0  0  0  0  0  0  0  0  0
    5.3006    6.9008   19.6046 C   0  0  0  0  0  0  0  0  0  0  0  0
    6.2662    6.0297   20.3644 C   0  0  0  0  0  0  0  0  0  0  0  0
    5.8620    6.1252   21.8396 C   0  0  0  0  0  0  0  0  0  0  0  0
    4.5388    5.6531   22.0242 N   0  0  0  0  0  0  0  0  0  0  0  0
    3.8230    5.3001   20.8472 C   0  0  0  0  0  0  0  0  0  0  0  0
    3.9135    6.3195   19.7417 C   0  0  0  0  0  0  0  0  0  0  0  0
    4.5145    4.5536   22.9504 C   0  0  0  0  0  0  0  0  0  0  0  0
    4.9289    3.2652   22.3935 C   0  0  0  0  0  0  0  0  0  0  0  0
    3.9173    2.4156   21.9668 C   0  0  0  0  0  0  0  0  0  0  0  0
    4.1745    1.1785   21.4146 C   0  0  0  0  0  0  0  0  0  0  0  0
    5.4901    0.8048   21.2975 C   0  0  0  0  0  0  0  0  0  0  0  0
    6.4959    1.6386   21.7169 C   0  0  0  0  0  0  0  0  0  0  0  0
    6.2301    2.8643   22.2636 C   0  0  0  0  0  0  0  0  0  0  0  0
  2  3  2  0  0  0
  3  4  1  0  0  0
  4  1  1  0  0  0
  1 15  1  0  0  0
 15 16  1  0  0  0
 16 17  1  0  0  0
 17 18  1  0  0  0
 18 19  1  0  0  0
 19 22  1  0  0  0
 22 23  1  0  0  0
 23 24  2  0  0  0
 24 25  1  0  0  0
 25 26  2  0  0  0
 26 27  1  0  0  0
 27 28  2  0  0  0
 19 20  1  0  0  0
 20 21  1  0  0  0
  3  6  1  0  0  0
  6  7  2  0  0  0
  7  8  1  0  0  0
  8  9  2  0  0  0
  9 10  1  0  0  0
 10 12  1  0  0  0
 12 13  2  0  0  0
 12 14  1  0  0  0
 10 11  2  0  0  0
 21 16  1  0  0  0
 11  6  1  0  0  0
 28 23  1  0  0  0
  4  5  1  0  0  0
M  CHG 1  12   1
M  CHG 1  14  -1
M  END
> <minimizedAffinity>
-8.19123

> <CNNscore>
0.4457799196

> <CNNaffinity>
5.8838648796

> <CNN_VS>
2.6229088306

> <CNNaffinity_variance>
0.3307968080

$$$$
[H]c1c([H])c([H])c(C([H])([H])N2C([H])([H])C([H])([H])C([H])(C([H])([H])C([H])([H])N([H])C(=O)c3c([H])c([H])c([H])c([N+](=O)[O-])c3[H])C([H])([H])C2([H])[H])c([H])c1[H]


 28 30  0  0  0  0  0  0  0  0999 V2000
    3.7572    3.4497   16.1385 C   0  0  0  0  0  0  0  0  0  0  0  0
    5.3863    3.6561   18.4061 O   0  0  0  0  0  0  0  0  0  0  0  0
    4.3831    2.9036   18.4796 C   0  0  0  0  0  0  0  0  0  0  0  0
    3.5338    2.7596   17.3728 N   0  0  0  0  0  0  0  0  0  0  0  0
    2.6994    2.1360   17.4155 H   0  0  0  0  0  0  0  0  0  0  0  0
    4.1858    2.2242   19.7537 C   0  0  0  0  0  0  0  0  0  0  0  0
    3.8049    0.9038   19.7939 C   0  0  0  0  0  0  0  0  0  0  0  0
    3.6153    0.2514   21.0195 C   0  0  0  0  0  0  0  0  0  0  0  0
    3.8103    0.9321   22.1975 C   0  0  0  0  0  0  0  0  0  0  0  0
    4.1947    2.2643   22.1972 C   0  0  0  0  0  0  0  0  0  0  0  0
    4.3692    2.8641   20.9558 C   0  0  0  0  0  0  0  0  0  0  0  0
    4.4028    2.9920   23.3920 N   0  0  0  0  0  0  0  0  0  0  0  0
    4.7252    2.3852   24.4178 O   0  0  0  0  0  0  0  0  0  0  0  0
    4.2518    4.3432   23.4181 O   0  0  0  0  0  0  0  0  0  0  0  0
    3.5150    2.5254   14.9816 C   0  0  0  0  0  0  0  0  0  0  0  0
    2.2354    2.9984   14.3072 C   0  0  0  0  0  0  0  0  0  0  0  0
    2.2789    2.7531   12.8217 C   0  0  0  0  0  0  0  0  0  0  0  0
    0.8838    3.0964   12.2884 C   0  0  0  0  0  0  0  0  0  0  0  0
    0.5743    4.4554   12.5439 N   0  0  0  0  0  0  0  0  0  0  0  0
    1.5222    5.1867   13.3113 C   0  0  0  0  0  0  0  0  0  0  0  0
    1.9984    4.4703   14.5479 C   0  0  0  0  0  0  0  0  0  0  0  0
    0.3043    5.1558   11.3176 C   0  0  0  0  0  0  0  0  0  0  0  0
   -1.1140    5.3617   11.0211 C   0  0  0  0  0  0  0  0  0  0  0  0
   -1.4493    5.5693    9.6901 C   0  0  0  0  0  0  0  0  0  0  0  0
   -2.7503    5.7657    9.2774 C   0  0  0  0  0  0  0  0  0  0  0  0
   -3.7246    5.7496   10.2441 C   0  0  0  0  0  0  0  0  0  0  0  0
   -3.4016    5.5453   11.5619 C   0  0  0  0  0  0  0  0  0  0  0  0
   -2.1074    5.3513   11.9612 C   0  0  0  0  0  0  0  0  0  0  0  0
  2  3  2  0  0  0
  3  4  1  0  0  0
  4  1  1  0  0  0
  1 15  1  0  0  0
 15 16  1  0  0  0
 16 17  1  0  0  0
 17 18  1  0  0  0
 18 19  1  0  0  0
 19 22  1  0  0  0
 22 23  1  0  0  0
 23 24  2  0  0  0
 24 25  1  0  0  0
 25 26  2  0  0  0
 26 27  1  0  0  0
 27 28  2  0  0  0
 19 20  1  0  0  0
 20 21  1  0  0  0
  3  6  1  0  0  0
  6  7  2  0  0  0
  7  8  1  0  0  0
  8  9  2  0  0  0
  9 10  1  0  0  0
 10 12  1  0  0  0
 12 13  2  0  0  0
 12 14  1  0  0  0
 10 11  2  0  0  0
 21 16  1  0  0  0
 11  6  1  0  0  0
 28 23  1  0  0  0
  4  5  1  0  0  0
M  CHG 1  12   1
M  CHG 1  14  -1
M  END
> <minimizedAffinity>
-7.29455

> <CNNscore>
0.3975481093

> <CNNaffinity>
5.3158655167

> <CNN_VS>
2.1133122444

> <CNNaffinity_variance>
0.1740292907

$$$$
[H]c1c([H])c([H])c(C([H])([H])N2C([H])([H])C([H])([H])C([H])(C([H])([H])C([H])([H])N([H])C(=O)c3c([H])c([H])c([H])c([N+](=O)[O-])c3[H])C([H])([H])C2([H])[H])c([H])c1[H]


 28 30  0  0  0  0  0  0  0  0999 V2000
    3.7945    1.3931   22.4112 C   0  0  0  0  0  0  0  0  0  0  0  0
    5.5366    0.8820   20.2798 O   0  0  0  0  0  0  0  0  0  0  0  0
    4.5855    1.6764   20.0735 C   0  0  0  0  0  0  0  0  0  0  0  0
    3.6838    1.9717   21.1063 N   0  0  0  0  0  0  0  0  0  0  0  0
    2.8916    2.6319   20.9532 H   0  0  0  0  0  0  0  0  0  0  0  0
    4.5026    2.2390   18.7318 C   0  0  0  0  0  0  0  0  0  0  0  0
    5.1446    3.4148   18.4225 C   0  0  0  0  0  0  0  0  0  0  0  0
    5.0642    3.9552   17.1320 C   0  0  0  0  0  0  0  0  0  0  0  0
    4.3380    3.3088   16.1605 C   0  0  0  0  0  0  0  0  0  0  0  0
    3.6771    2.1211   16.4345 C   0  0  0  0  0  0  0  0  0  0  0  0
    3.7888    1.6281   17.7291 C   0  0  0  0  0  0  0  0  0  0  0  0
    2.9217    1.4325   15.4570 N   0  0  0  0  0  0  0  0  0  0  0  0
    2.2005    0.4929   15.8056 O   0  0  0  0  0  0  0  0  0  0  0  0
    2.9836    1.7954   14.1480 O   0  0  0  0  0  0  0  0  0  0  0  0
    4.5743    2.3040   23.3130 C   0  0  0  0  0  0  0  0  0  0  0  0
    4.9499    3.5222   22.4820 C   0  0  0  0  0  0  0  0  0  0  0  0
    6.4431    3.7155   22.4411 C   0  0  0  0  0  0  0  0  0  0  0  0
    6.7029    4.8461   21.4398 C   0  0  0  0  0  0  0  0  0  0  0  0
    6.0734    6.0421   21.8657 N   0  0  0  0  0  0  0  0  0  0  0  0
    5.2612    5.9498   23.0294 C   0  0  0  0  0  0  0  0  0  0  0  0
    4.3141    4.7782   23.0287 C   0  0  0  0  0  0  0  0  0  0  0  0
    7.0389    7.0940   22.0345 C   0  0  0  0  0  0  0  0  0  0  0  0
    8.4325    6.6515   22.0975 C   0  0  0  0  0  0  0  0  0  0  0  0
    9.1811    6.7807   20.9355 C   0  0  0  0  0  0  0  0  0  0  0  0
   10.5075    6.4103   20.8656 C   0  0  0  0  0  0  0  0  0  0  0  0
   11.0771    5.8987   22.0048 C   0  0  0  0  0  0  0  0  0  0  0  0
   10.3442    5.7676   23.1573 C   0  0  0  0  0  0  0  0  0  0  0  0
    9.0284    6.1381   23.2164 C   0  0  0  0  0  0  0  0  0  0  0  0
  2  3  2  0  0  0
  3  4  1  0  0  0
  4  1  1  0  0  0
  1 15  1  0  0  0
 15 16  1  0  0  0
 16 17  1  0  0  0
 17 18  1  0  0  0
 18 19  1  0  0  0
 19 22  1  0  0  0
 22 23  1  0  0  0
 23 24  2  0  0  0
 24 25  1  0  0  0
 25 26  2  0  0  0
 26 27  1  0  0  0
 27 28  2  0  0  0
 19 20  1  0  0  0
 20 21  1  0  0  0
  3  6  1  0  0  0
  6  7  2  0  0  0
  7  8  1  0  0  0
  8  9  2  0  0  0
  9 10  1  0  0  0
 10 12  1  0  0  0
 12 13  2  0  0  0
 12 14  1  0  0  0
 10 11  2  0  0  0
 21 16  1  0  0  0
 11  6  1  0  0  0
 28 23  1  0  0  0
  4  5  1  0  0  0
M  CHG 1  12   1
M  CHG 1  14  -1
M  END
> <minimizedAffinity>
-7.27399

> <CNNscore>
0.3974780440

> <CNNaffinity>
6.0391049385

> <CNN_VS>
2.4004116058

> <CNNaffinity_variance>
0.0265362225

$$$$
[H]c1c([H])c([H])c(C([H])([H])N2C([H])([H])C([H])([H])C([H])(C([H])([H])C([H])([H])N([H])C(=O)c3c([H])c([H])c([H])c([N+](=O)[O-])c3[H])C([H])([H])C2([H])[H])c([H])c1[H]


 28 30  0  0  0  0  0  0  0  0999 V2000
    2.6962    0.7532   16.0664 C   0  0  0  0  0  0  0  0  0  0  0  0
    2.3066   -0.6919   18.4326 O   0  0  0  0  0  0  0  0  0  0  0  0
    2.9316    0.3949   18.5132 C   0  0  0  0  0  0  0  0  0  0  0  0
    3.1530    1.1620   17.3602 N   0  0  0  0  0  0  0  0  0  0  0  0
    3.6660    2.0683   17.4101 H   0  0  0  0  0  0  0  0  0  0  0  0
    3.3859    0.7734   19.8451 C   0  0  0  0  0  0  0  0  0  0  0  0
    2.9500    0.0908   20.9561 C   0  0  0  0  0  0  0  0  0  0  0  0
    3.3873    0.4555   22.2365 C   0  0  0  0  0  0  0  0  0  0  0  0
    4.2610    1.5053   22.3911 C   0  0  0  0  0  0  0  0  0  0  0  0
    4.7227    2.2173   21.2945 C   0  0  0  0  0  0  0  0  0  0  0  0
    4.2586    1.8153   20.0478 C   0  0  0  0  0  0  0  0  0  0  0  0
    5.6213    3.3022   21.4206 N   0  0  0  0  0  0  0  0  0  0  0  0
    5.5873    4.2117   20.5864 O   0  0  0  0  0  0  0  0  0  0  0  0
    6.5140    3.3498   22.4453 O   0  0  0  0  0  0  0  0  0  0  0  0
    3.0825    1.7753   15.0381 C   0  0  0  0  0  0  0  0  0  0  0  0
    3.0149    3.1313   15.7255 C   0  0  0  0  0  0  0  0  0  0  0  0
    2.6837    4.2246   14.7439 C   0  0  0  0  0  0  0  0  0  0  0  0
    2.4656    5.4949   15.5729 C   0  0  0  0  0  0  0  0  0  0  0  0
    3.6418    5.8297   16.2887 N   0  0  0  0  0  0  0  0  0  0  0  0
    4.7207    4.9076   16.1995 C   0  0  0  0  0  0  0  0  0  0  0  0
    4.3210    3.4696   16.4041 C   0  0  0  0  0  0  0  0  0  0  0  0
    4.1007    7.1439   15.9289 C   0  0  0  0  0  0  0  0  0  0  0  0
    4.0053    8.1459   16.9913 C   0  0  0  0  0  0  0  0  0  0  0  0
    4.0506    7.6768   18.2971 C   0  0  0  0  0  0  0  0  0  0  0  0
    3.9806    8.5178   19.3876 C   0  0  0  0  0  0  0  0  0  0  0  0
    3.8620    9.8621   19.1369 C   0  0  0  0  0  0  0  0  0  0  0  0
    3.8163   10.3338   17.8493 C   0  0  0  0  0  0  0  0  0  0  0  0
    3.8865    9.4910   16.7738 C   0  0  0  0  0  0  0  0  0  0  0  0
  2  3  2  0  0  0
  3  4  1  0  0  0
  4  1  1  0  0  0
  1 15  1  0  0  0
 15 16  1  0  0  0
 16 17  1  0  0  0
 17 18  1  0  0  0
 18 19  1  0  0  0
 19 22  1  0  0  0
 22 23  1  0  0  0
 23 24  2  0  0  0
 24 25  1  0  0  0
 25 26  2  0  0  0
 26 27  1  0  0  0
 27 28  2  0  0  0
 19 20  1  0  0  0
 20 21  1  0  0  0
  3  6  1  0  0  0
  6  7  2  0  0  0
  7  8  1  0  0  0
  8  9  2  0  0  0
  9 10  1  0  0  0
 10 12  1  0  0  0
 12 13  2  0  0  0
 12 14  1  0  0  0
 10 11  2  0  0  0
 21 16  1  0  0  0
 11  6  1  0  0  0
 28 23  1  0  0  0
  4  5  1  0  0  0
M  CHG 1  12   1
M  CHG 1  14  -1
M  END
> <minimizedAffinity>
-7.69396

> <CNNscore>
0.3721922934

> <CNNaffinity>
5.8819832802

> <CNN_VS>
2.1892287731

> <CNNaffinity_variance>
0.0836136863

$$$$
[H]OC(=O)c1c([H])c([H])c(OC2([H])C([H])([H])SC2([H])[H])c([H])c1[H]


 15 16  0  0  0  0  0  0  0  0999 V2000
    5.8115   -1.8053    3.4927 C   0  0  0  0  0  0  0  0  0  0  0  0
    6.5542   -1.0873    2.5662 C   0  0  0  0  0  0  0  0  0  0  0  0
    6.2370    0.2440    2.3210 C   0  0  0  0  0  0  0  0  0  0  0  0
    5.2061    0.8880    2.9648 C   0  0  0  0  0  0  0  0  0  0  0  0
    4.4704    0.1592    3.8895 C   0  0  0  0  0  0  0  0  0  0  0  0
    4.7711   -1.1773    4.1512 C   0  0  0  0  0  0  0  0  0  0  0  0
    6.1340   -4.0380    2.8066 O   0  0  0  0  0  0  0  0  0  0  0  0
    6.1468   -3.2081    3.7502 C   0  0  0  0  0  0  0  0  0  0  0  0
    6.4769   -3.6168    5.0308 O   0  0  0  0  0  0  0  0  0  0  0  0
    5.7514   -4.0619    5.5943 H   0  0  0  0  0  0  0  0  0  0  0  0
    4.8958    2.1545    2.7389 O   0  0  0  0  0  0  0  0  0  0  0  0
    5.1019    3.3806    3.2030 C   0  0  0  0  0  0  0  0  0  0  0  0
    6.1071    3.5815    4.3463 C   0  0  0  0  0  0  0  0  0  0  0  0
    5.8809    5.3611    4.0305 S   0  0  0  0  0  0  0  0  0  0  0  0
    5.8630    4.4219    2.4563 C   0  0  0  0  0  0  0  0  0  0  0  0
  7  8  2  0  0  0
  8  9  1  0  0  0
  8  1  1  0  0  0
  1  2  2  0  0  0
  2  3  1  0  0  0
  3  4  2  0  0  0
  4 11  1  0  0  0
 11 12  1  0  0  0
 12 13  1  0  0  0
 13 14  1  0  0  0
 14 15  1  0  0  0
  4  5  1  0  0  0
  5  6  2  0  0  0
  6  1  1  0  0  0
 15 12  1  0  0  0
  9 10  1  0  0  0
M  END
> <minimizedAffinity>
-0.59897

> <CNNscore>
0.8663904667

> <CNNaffinity>
3.2199859619

> <CNN_VS>
2.7897651196

> <CNNaffinity_variance>
0.2953083813

$$$$
[H]OC(=O)c1c([H])c([H])c(OC2([H])C([H])([H])SC2([H])[H])c([H])c1[H]


 15 16  0  0  0  0  0  0  0  0999 V2000
    2.7589    1.7429   15.2346 C   0  0  0  0  0  0  0  0  0  0  0  0
    3.6742    2.6786   15.6952 C   0  0  0  0  0  0  0  0  0  0  0  0
    4.2443    2.5147   16.9527 C   0  0  0  0  0  0  0  0  0  0  0  0
    3.9362    1.4522   17.7701 C   0  0  0  0  0  0  0  0  0  0  0  0
    3.0192    0.5227   17.2982 C   0  0  0  0  0  0  0  0  0  0  0  0
    2.4351    0.6673   16.0400 C   0  0  0  0  0  0  0  0  0  0  0  0
    2.8465    2.3867   12.9680 O   0  0  0  0  0  0  0  0  0  0  0  0
    2.1591    1.9168   13.9093 C   0  0  0  0  0  0  0  0  0  0  0  0
    0.8378    1.5639   13.6961 O   0  0  0  0  0  0  0  0  0  0  0  0
    0.1346    2.3037   13.7144 H   0  0  0  0  0  0  0  0  0  0  0  0
    4.4728    1.2867   18.9685 O   0  0  0  0  0  0  0  0  0  0  0  0
    4.2500    1.5211   20.2555 C   0  0  0  0  0  0  0  0  0  0  0  0
    3.2896    0.5998   21.0215 C   0  0  0  0  0  0  0  0  0  0  0  0
    3.8690    1.4812   22.5065 S   0  0  0  0  0  0  0  0  0  0  0  0
    5.2490    1.2378   21.3246 C   0  0  0  0  0  0  0  0  0  0  0  0
  7  8  2  0  0  0
  8  9  1  0  0  0
  8  1  1  0  0  0
  1  2  2  0  0  0
  2  3  1  0  0  0
  3  4  2  0  0  0
  4 11  1  0  0  0
 11 12  1  0  0  0
 12 13  1  0  0  0
 13 14  1  0  0  0
 14 15  1  0  0  0
  4  5  1  0  0  0
  5  6  2  0  0  0
  6  1  1  0  0  0
 15 12  1  0  0  0
  9 10  1  0  0  0
M  END
> <minimizedAffinity>
-5.93109

> <CNNscore>
0.5313671231

> <CNNaffinity>
3.9702458382

> <CNN_VS>
2.1096580029

> <CNNaffinity_variance>
0.2308039367

$$$$
[H]OC(=O)c1c([H])c([H])c(OC2([H])C([H])([H])SC2([H])[H])c([H])c1[H]


 15 16  0  0  0  0  0  0  0  0999 V2000
    3.9267    2.9970   16.5716 C   0  0  0  0  0  0  0  0  0  0  0  0
    4.7221    3.7557   17.4184 C   0  0  0  0  0  0  0  0  0  0  0  0
    5.1235    3.2223   18.6381 C   0  0  0  0  0  0  0  0  0  0  0  0
    4.7616    1.9597   19.0467 C   0  0  0  0  0  0  0  0  0  0  0  0
    3.9656    1.2105   18.1907 C   0  0  0  0  0  0  0  0  0  0  0  0
    3.5515    1.7255   16.9626 C   0  0  0  0  0  0  0  0  0  0  0  0
    2.3410    3.3476   14.8621 O   0  0  0  0  0  0  0  0  0  0  0  0
    3.5045    3.5603   15.2867 C   0  0  0  0  0  0  0  0  0  0  0  0
    4.3867    4.3249   14.5431 O   0  0  0  0  0  0  0  0  0  0  0  0
    4.8817    3.8733   13.7730 H   0  0  0  0  0  0  0  0  0  0  0  0
    5.1380    1.4426   20.2052 O   0  0  0  0  0  0  0  0  0  0  0  0
    5.0188    1.6151   21.5156 C   0  0  0  0  0  0  0  0  0  0  0  0
    5.6461    2.8599   22.1597 C   0  0  0  0  0  0  0  0  0  0  0  0
    4.7620    2.3409   23.6653 S   0  0  0  0  0  0  0  0  0  0  0  0
    3.7436    2.0124   22.1768 C   0  0  0  0  0  0  0  0  0  0  0  0
  7  8  2  0  0  0
  8  9  1  0  0  0
  8  1  1  0  0  0
  1  2  2  0  0  0
  2  3  1  0  0  0
  3  4  2  0  0  0
  4 11  1  0  0  0
 11 12  1  0  0  0
 12 13  1  0  0  0
 13 14  1  0  0  0
 14 15  1  0  0  0
  4  5  1  0  0  0
  5  6  2  0  0  0
  6  1  1  0  0  0
 15 12  1  0  0  0
  9 10  1  0  0  0
M  END
> <minimizedAffinity>
-5.02252

> <CNNscore>
0.4395267665

> <CNNaffinity>
4.1311025620

> <CNN_VS>
1.8157300949

> <CNNaffinity_variance>
0.1996581256

$$$$
[H]OC(=O)c1c([H])c([H])c(OC2([H])C([H])([H])SC2([H])[H])c([H])c1[H]


 15 16  0  0  0  0  0  0  0  0999 V2000
    2.6226    6.1831   13.2688 C   0  0  0  0  0  0  0  0  0  0  0  0
    2.0767    6.2275   14.5438 C   0  0  0  0  0  0  0  0  0  0  0  0
    2.4444    5.2655   15.4779 C   0  0  0  0  0  0  0  0  0  0  0  0
    3.3367    4.2593   15.1893 C   0  0  0  0  0  0  0  0  0  0  0  0
    3.8760    4.2255   13.9103 C   0  0  0  0  0  0  0  0  0  0  0  0
    3.5214    5.1803   12.9576 C   0  0  0  0  0  0  0  0  0  0  0  0
    1.1724    7.0577   11.6282 O   0  0  0  0  0  0  0  0  0  0  0  0
    2.2343    7.1975   12.2855 C   0  0  0  0  0  0  0  0  0  0  0  0
    3.0366    8.3069   12.0822 O   0  0  0  0  0  0  0  0  0  0  0  0
    3.6749    8.2978   11.2856 H   0  0  0  0  0  0  0  0  0  0  0  0
    3.6934    3.3388   16.0707 O   0  0  0  0  0  0  0  0  0  0  0  0
    3.2315    2.2772   16.7192 C   0  0  0  0  0  0  0  0  0  0  0  0
    2.7848    1.0507   15.9106 C   0  0  0  0  0  0  0  0  0  0  0  0
    2.6582    0.2197   17.5266 S   0  0  0  0  0  0  0  0  0  0  0  0
    4.1013    1.3498   17.4966 C   0  0  0  0  0  0  0  0  0  0  0  0
  7  8  2  0  0  0
  8  9  1  0  0  0
  8  1  1  0  0  0
  1  2  2  0  0  0
  2  3  1  0  0  0
  3  4  2  0  0  0
  4 11  1  0  0  0
 11 12  1  0  0  0
 12 13  1  0  0  0
 13 14  1  0  0  0
 14 15  1  0  0  0
  4  5  1  0  0  0
  5  6  2  0  0  0
  6  1  1  0  0  0
 15 12  1  0  0  0
  9 10  1  0  0  0
M  END
> <minimizedAffinity>
-3.83075

> <CNNscore>
0.4228749275

> <CNNaffinity>
3.5547192097

> <CNN_VS>
1.5032016039

> <CNNaffinity_variance>
0.2874249816

$$$$
[H]OC(=O)c1c([H])c([H])c(OC2([H])C([H])([H])SC2([H])[H])c([H])c1[H]


 15 16  0  0  0  0  0  0  0  0999 V2000
    3.6538    2.9307   15.0210 C   0  0  0  0  0  0  0  0  0  0  0  0
    3.1009    1.6945   15.3236 C   0  0  0  0  0  0  0  0  0  0  0  0
    3.2264    1.1874   16.6122 C   0  0  0  0  0  0  0  0  0  0  0  0
    3.8831    1.8663   17.6120 C   0  0  0  0  0  0  0  0  0  0  0  0
    4.4320    3.1021   17.2969 C   0  0  0  0  0  0  0  0  0  0  0  0
    4.3181    3.6299   16.0110 C   0  0  0  0  0  0  0  0  0  0  0  0
    2.6458    2.9978   12.8904 O   0  0  0  0  0  0  0  0  0  0  0  0
    3.5208    3.4639   13.6628 C   0  0  0  0  0  0  0  0  0  0  0  0
    4.3578    4.4789   13.2328 O   0  0  0  0  0  0  0  0  0  0  0  0
    5.1681    4.2249   12.6663 H   0  0  0  0  0  0  0  0  0  0  0  0
    4.0083    1.3929   18.8415 O   0  0  0  0  0  0  0  0  0  0  0  0
    4.7180    1.5431   19.9528 C   0  0  0  0  0  0  0  0  0  0  0  0
    4.2539    2.5698   20.9959 C   0  0  0  0  0  0  0  0  0  0  0  0
    5.5423    1.8458   22.0605 S   0  0  0  0  0  0  0  0  0  0  0  0
    4.7306    0.5433   21.0579 C   0  0  0  0  0  0  0  0  0  0  0  0
  7  8  2  0  0  0
  8  9  1  0  0  0
  8  1  1  0  0  0
  1  2  2  0  0  0
  2  3  1  0  0  0
  3  4  2  0  0  0
  4 11  1  0  0  0
 11 12  1  0  0  0
 12 13  1  0  0  0
 13 14  1  0  0  0
 14 15  1  0  0  0
  4  5  1  0  0  0
  5  6  2  0  0  0
  6  1  1  0  0  0
 15 12  1  0  0  0
  9 10  1  0  0  0
M  END
> <minimizedAffinity>
-5.27489

> <CNNscore>
0.4218981862

> <CNNaffinity>
3.8669846058

> <CNN_VS>
1.6314737797

> <CNNaffinity_variance>
0.2888537049

$$$$
[H]OC(=O)c1c([H])c([H])c(OC2([H])C([H])([H])SC2([H])[H])c([H])c1[H]


 15 16  0  0  0  0  0  0  0  0999 V2000
    4.1162    6.8053   17.7596 C   0  0  0  0  0  0  0  0  0  0  0  0
    4.8673    7.3978   18.7648 C   0  0  0  0  0  0  0  0  0  0  0  0
    4.7999    6.8896   20.0573 C   0  0  0  0  0  0  0  0  0  0  0  0
    4.0113    5.8118   20.3866 C   0  0  0  0  0  0  0  0  0  0  0  0
    3.2646    5.2277   19.3722 C   0  0  0  0  0  0  0  0  0  0  0  0
    3.3169    5.7210   18.0688 C   0  0  0  0  0  0  0  0  0  0  0  0
    4.0129    8.5703   16.1995 O   0  0  0  0  0  0  0  0  0  0  0  0
    4.1882    7.3418   16.3981 C   0  0  0  0  0  0  0  0  0  0  0  0
    4.4488    6.4960   15.3340 O   0  0  0  0  0  0  0  0  0  0  0  0
    3.6587    6.1686   14.7767 H   0  0  0  0  0  0  0  0  0  0  0  0
    3.9398    5.3203   21.6132 O   0  0  0  0  0  0  0  0  0  0  0  0
    4.4801    4.4029   22.4054 C   0  0  0  0  0  0  0  0  0  0  0  0
    4.0111    2.9461   22.2804 C   0  0  0  0  0  0  0  0  0  0  0  0
    5.3892    2.5641   23.4085 S   0  0  0  0  0  0  0  0  0  0  0  0
    5.8682    3.8879   22.2343 C   0  0  0  0  0  0  0  0  0  0  0  0
  7  8  2  0  0  0
  8  9  1  0  0  0
  8  1  1  0  0  0
  1  2  2  0  0  0
  2  3  1  0  0  0
  3  4  2  0  0  0
  4 11  1  0  0  0
 11 12  1  0  0  0
 12 13  1  0  0  0
 13 14  1  0  0  0
 14 15  1  0  0  0
  4  5  1  0  0  0
  5  6  2  0  0  0
  6  1  1  0  0  0
 15 12  1  0  0  0
  9 10  1  0  0  0
M  END
> <minimizedAffinity>
-4.33996

> <CNNscore>
0.4014534056

> <CNNaffinity>
3.8154380322

> <CNN_VS>
1.5317206383

> <CNNaffinity_variance>
0.4130881727

$$$$
[H]OC(=O)c1c([H])c([H])c(OC2([H])C([H])([H])SC2([H])[H])c([H])c1[H]


 15 16  0  0  0  0  0  0  0  0999 V2000
    4.3880    2.5943   22.1409 C   0  0  0  0  0  0  0  0  0  0  0  0
    5.0862    3.2961   21.1685 C   0  0  0  0  0  0  0  0  0  0  0  0
    5.0811    2.8342   19.8571 C   0  0  0  0  0  0  0  0  0  0  0  0
    4.4058    1.6977   19.4772 C   0  0  0  0  0  0  0  0  0  0  0  0
    3.7110    1.0042   20.4591 C   0  0  0  0  0  0  0  0  0  0  0  0
    3.7024    1.4494   21.7808 C   0  0  0  0  0  0  0  0  0  0  0  0
    3.6268    4.0188   23.8588 O   0  0  0  0  0  0  0  0  0  0  0  0
    4.3942    3.0821   23.5224 C   0  0  0  0  0  0  0  0  0  0  0  0
    5.2441    2.5115   24.4539 O   0  0  0  0  0  0  0  0  0  0  0  0
    6.1207    2.9918   24.6612 H   0  0  0  0  0  0  0  0  0  0  0  0
    4.3944    1.2494   18.2322 O   0  0  0  0  0  0  0  0  0  0  0  0
    3.8601    1.4853   17.0405 C   0  0  0  0  0  0  0  0  0  0  0  0
    2.7351    0.5690   16.5378 C   0  0  0  0  0  0  0  0  0  0  0  0
    2.5586    1.7787   15.1875 S   0  0  0  0  0  0  0  0  0  0  0  0
    2.9448    2.6287   16.7651 C   0  0  0  0  0  0  0  0  0  0  0  0
  7  8  2  0  0  0
  8  9  1  0  0  0
  8  1  1  0  0  0
  1  2  2  0  0  0
  2  3  1  0  0  0
  3  4  2  0  0  0
  4 11  1  0  0  0
 11 12  1  0  0  0
 12 13  1  0  0  0
 13 14  1  0  0  0
 14 15  1  0  0  0
  4  5  1  0  0  0
  5  6  2  0  0  0
  6  1  1  0  0  0
 15 12  1  0  0  0
  9 10  1  0  0  0
M  END
> <minimizedAffinity>
-5.77950

> <CNNscore>
0.3982219398

> <CNNaffinity>
3.9906277657

> <CNN_VS>
1.5891555548

> <CNNaffinity_variance>
0.3111533821

$$$$
[H]OC(=O)c1c([H])c([H])c(OC2([H])C([H])([H])SC2([H])[H])c([H])c1[H]


 15 16  0  0  0  0  0  0  0  0999 V2000
    4.4749    7.3669   19.7656 C   0  0  0  0  0  0  0  0  0  0  0  0
    4.3314    7.6881   18.4234 C   0  0  0  0  0  0  0  0  0  0  0  0
    3.8537    6.7276   17.5387 C   0  0  0  0  0  0  0  0  0  0  0  0
    3.5130    5.4573   17.9415 C   0  0  0  0  0  0  0  0  0  0  0  0
    3.6609    5.1481   19.2869 C   0  0  0  0  0  0  0  0  0  0  0  0
    4.1383    6.0959   20.1918 C   0  0  0  0  0  0  0  0  0  0  0  0
    5.8725    9.1814   20.3259 O   0  0  0  0  0  0  0  0  0  0  0  0
    4.9784    8.3799   20.6967 C   0  0  0  0  0  0  0  0  0  0  0  0
    4.4693    8.4527   21.9817 O   0  0  0  0  0  0  0  0  0  0  0  0
    5.0024    8.0153   22.7344 H   0  0  0  0  0  0  0  0  0  0  0  0
    3.0575    4.5358   17.1080 O   0  0  0  0  0  0  0  0  0  0  0  0
    2.9280    3.2223   16.9706 C   0  0  0  0  0  0  0  0  0  0  0  0
    2.4205    2.6631   15.6335 C   0  0  0  0  0  0  0  0  0  0  0  0
    2.8562    1.0341   16.3222 S   0  0  0  0  0  0  0  0  0  0  0  0
    4.0863    2.2954   16.8284 C   0  0  0  0  0  0  0  0  0  0  0  0
  7  8  2  0  0  0
  8  9  1  0  0  0
  8  1  1  0  0  0
  1  2  2  0  0  0
  2  3  1  0  0  0
  3  4  2  0  0  0
  4 11  1  0  0  0
 11 12  1  0  0  0
 12 13  1  0  0  0
 13 14  1  0  0  0
 14 15  1  0  0  0
  4  5  1  0  0  0
  5  6  2  0  0  0
  6  1  1  0  0  0
 15 12  1  0  0  0
  9 10  1  0  0  0
M  END
> <minimizedAffinity>
-4.85559

> <CNNscore>
0.3769653440

> <CNNaffinity>
3.5744826794

> <CNN_VS>
1.3474560976

> <CNNaffinity_variance>
0.3020542264

$$$$
[H]OC(=O)c1c([H])c([H])c(OC2([H])C([H])([H])SC2([H])[H])c([H])c1[H]


 15 16  0  0  0  0  0  0  0  0999 V2000
    3.0919    6.2491   15.3422 C   0  0  0  0  0  0  0  0  0  0  0  0
    3.9610    6.9006   16.2057 C   0  0  0  0  0  0  0  0  0  0  0  0
    4.0457    6.4864   17.5303 C   0  0  0  0  0  0  0  0  0  0  0  0
    3.2959    5.4460   18.0278 C   0  0  0  0  0  0  0  0  0  0  0  0
    2.4301    4.8021   17.1541 C   0  0  0  0  0  0  0  0  0  0  0  0
    2.3291    5.2009   15.8215 C   0  0  0  0  0  0  0  0  0  0  0  0
    4.0125    6.6079   13.2012 O   0  0  0  0  0  0  0  0  0  0  0  0
    3.0038    6.6866   13.9467 C   0  0  0  0  0  0  0  0  0  0  0  0
    1.8112    7.1855   13.4519 O   0  0  0  0  0  0  0  0  0  0  0  0
    1.7000    8.1988   13.3997 H   0  0  0  0  0  0  0  0  0  0  0  0
    3.3688    5.0438   19.2865 O   0  0  0  0  0  0  0  0  0  0  0  0
    4.2416    4.7653   20.2466 C   0  0  0  0  0  0  0  0  0  0  0  0
    3.9979    5.3254   21.6554 C   0  0  0  0  0  0  0  0  0  0  0  0
    5.3829    4.2540   22.1569 S   0  0  0  0  0  0  0  0  0  0  0  0
    4.3563    3.4237   20.8853 C   0  0  0  0  0  0  0  0  0  0  0  0
  7  8  2  0  0  0
  8  9  1  0  0  0
  8  1  1  0  0  0
  1  2  2  0  0  0
  2  3  1  0  0  0
  3  4  2  0  0  0
  4 11  1  0  0  0
 11 12  1  0  0  0
 12 13  1  0  0  0
 13 14  1  0  0  0
 14 15  1  0  0  0
  4  5  1  0  0  0
  5  6  2  0  0  0
  6  1  1  0  0  0
 15 12  1  0  0  0
  9 10  1  0  0  0
M  END
> <minimizedAffinity>
-3.98728

> <CNNscore>
0.3481247425

> <CNNaffinity>
3.4633030891

> <CNN_VS>
1.2056615353

> <CNNaffinity_variance>
0.3692919910

$$$$
[H]C([H])=C([H])C(=O)N([H])C([H])([H])C([H])([H])C([H])([H])C([H])([H])[C@@]([H])(C(=O)N1C([H])([H])C([H])([H])N(c2c([H])c([H])c([H])c(C([H])([H])[H])c2[H])C([H])([H])C1([H])[H])N([H])C(=O)C([H])([H])c1c([H])c([H])c([H])c([H])c1[H]


 37 39  0  0  0  0  0  0  0  0999 V2000
    4.0658    4.7413   16.4447 C   0  0  0  0  0  0  0  0  0  0  0  0
    2.7538    5.1031   15.8856 C   0  0  0  0  0  0  0  0  0  0  0  0
    1.7526    5.1303   16.6856 O   0  0  0  0  0  0  0  0  0  0  0  0
    2.5399    5.4215   14.5300 N   0  0  0  0  0  0  0  0  0  0  0  0
    3.6037    5.4419   13.5690 C   0  0  0  0  0  0  0  0  0  0  0  0
    3.3244    6.5516   12.5607 C   0  0  0  0  0  0  0  0  0  0  0  0
    2.0809    6.2148   11.8940 N   0  0  0  0  0  0  0  0  0  0  0  0
    1.1367    5.3752   12.5676 C   0  0  0  0  0  0  0  0  0  0  0  0
    1.2034    5.7543   14.0470 C   0  0  0  0  0  0  0  0  0  0  0  0
    1.8008    6.7174   10.5972 C   0  0  0  0  0  0  0  0  0  0  0  0
    0.6585    6.2547    9.9501 C   0  0  0  0  0  0  0  0  0  0  0  0
    0.3621    6.7289    8.6977 C   0  0  0  0  0  0  0  0  0  0  0  0
    1.1574    7.6453    8.0639 C   0  0  0  0  0  0  0  0  0  0  0  0
    2.2909    8.1184    8.6806 C   0  0  0  0  0  0  0  0  0  0  0  0
    3.1716    9.1022    8.0305 C   0  0  0  0  0  0  0  0  0  0  0  0
    2.5860    7.6372    9.9449 C   0  0  0  0  0  0  0  0  0  0  0  0
    4.2250    5.3613   17.7832 N   0  0  0  0  0  0  0  0  0  0  0  0
    5.5051    5.6220   18.3044 C   0  0  0  0  0  0  0  0  0  0  0  0
    6.5155    5.3227   17.6216 O   0  0  0  0  0  0  0  0  0  0  0  0
    3.3763    5.5860   18.2987 H   0  0  0  0  0  0  0  0  0  0  0  0
    5.6379    6.2364   19.6294 C   0  0  0  0  0  0  0  0  0  0  0  0
    5.3422    5.3254   20.7364 C   0  0  0  0  0  0  0  0  0  0  0  0
    4.3750    5.7175   21.6491 C   0  0  0  0  0  0  0  0  0  0  0  0
    4.0322    4.9229   22.7265 C   0  0  0  0  0  0  0  0  0  0  0  0
    4.6402    3.7116   22.9314 C   0  0  0  0  0  0  0  0  0  0  0  0
    5.6014    3.3069   22.0361 C   0  0  0  0  0  0  0  0  0  0  0  0
    5.9445    4.1093   20.9521 C   0  0  0  0  0  0  0  0  0  0  0  0
    4.1847    3.2512   16.7386 C   0  0  0  0  0  0  0  0  0  0  0  0
    3.4942    2.3787   15.7440 C   0  0  0  0  0  0  0  0  0  0  0  0
    2.5185    1.3924   16.3678 C   0  0  0  0  0  0  0  0  0  0  0  0
    3.2228    0.2294   16.9756 C   0  0  0  0  0  0  0  0  0  0  0  0
    3.2583    0.3288   19.4588 C   0  0  0  0  0  0  0  0  0  0  0  0
    4.3159    1.0574   19.4344 O   0  0  0  0  0  0  0  0  0  0  0  0
    2.6602   -0.1137   18.2626 N   0  0  0  0  0  0  0  0  0  0  0  0
    1.7832   -0.7092   18.2783 H   0  0  0  0  0  0  0  0  0  0  0  0
    3.0238    0.6268   21.8476 C   0  0  0  0  0  0  0  0  0  0  0  0
    2.7142   -0.0143   20.7432 C   0  0  0  0  0  0  0  0  0  0  0  0
 36 37  2  0  0  0
 37 32  1  0  0  0
 32 33  2  0  0  0
 32 34  1  0  0  0
 34 31  1  0  0  0
 31 30  1  0  0  0
 30 29  1  0  0  0
 29 28  1  0  0  0
 28  1  1  0  0  0
  1 17  1  0  0  0
 17 18  1  0  0  0
 18 19  2  0  0  0
 18 21  1  0  0  0
 21 22  1  0  0  0
 22 23  2  0  0  0
 23 24  1  0  0  0
 24 25  2  0  0  0
 25 26  1  0  0  0
 26 27  2  0  0  0
  1  2  1  0  0  0
  2  3  2  0  0  0
  2  4  1  0  0  0
  4  5  1  0  0  0
  5  6  1  0  0  0
  6  7  1  0  0  0
  7 10  1  0  0  0
 10 11  2  0  0  0
 11 12  1  0  0  0
 12 13  2  0  0  0
 13 14  1  0  0  0
 14 15  1  0  0  0
 14 16  2  0  0  0
  7  8  1  0  0  0
  8  9  1  0  0  0
 27 22  1  0  0  0
  9  4  1  0  0  0
 16 10  1  0  0  0
 34 35  1  0  0  0
 17 20  1  0  0  0
M  END
> <minimizedAffinity>
-7.45893

> <CNNscore>
0.3830644190

> <CNNaffinity>
6.3268198967

> <CNN_VS>
2.4235796928

> <CNNaffinity_variance>
0.0387543775

$$$$
[H]C([H])=C([H])C(=O)N([H])C([H])([H])C([H])([H])C([H])([H])C([H])([H])[C@@]([H])(C(=O)N1C([H])([H])C([H])([H])N(c2c([H])c([H])c([H])c(C([H])([H])[H])c2[H])C([H])([H])C1([H])[H])N([H])C(=O)C([H])([H])c1c([H])c([H])c([H])c([H])c1[H]


 37 39  0  0  0  0  0  0  0  0999 V2000
    3.3664    3.3958   17.1884 C   0  0  0  0  0  0  0  0  0  0  0  0
    3.0430    4.7792   17.5712 C   0  0  0  0  0  0  0  0  0  0  0  0
    1.9840    5.3026   17.0735 O   0  0  0  0  0  0  0  0  0  0  0  0
    3.8259    5.5529   18.4504 N   0  0  0  0  0  0  0  0  0  0  0  0
    5.0117    5.0424   19.0741 C   0  0  0  0  0  0  0  0  0  0  0  0
    5.1215    5.6441   20.4713 C   0  0  0  0  0  0  0  0  0  0  0  0
    5.2458    7.0798   20.3055 N   0  0  0  0  0  0  0  0  0  0  0  0
    4.7248    7.6899   19.1196 C   0  0  0  0  0  0  0  0  0  0  0  0
    3.4478    6.9263   18.7688 C   0  0  0  0  0  0  0  0  0  0  0  0
    5.8665    7.8687   21.3081 C   0  0  0  0  0  0  0  0  0  0  0  0
    5.6119    9.2373   21.3129 C   0  0  0  0  0  0  0  0  0  0  0  0
    6.1954   10.0217   22.2749 C   0  0  0  0  0  0  0  0  0  0  0  0
    7.0221    9.4980   23.2322 C   0  0  0  0  0  0  0  0  0  0  0  0
    7.2900    8.1501   23.2499 C   0  0  0  0  0  0  0  0  0  0  0  0
    8.1750    7.5508   24.2617 C   0  0  0  0  0  0  0  0  0  0  0  0
    6.6985    7.3621   22.2771 C   0  0  0  0  0  0  0  0  0  0  0  0
    3.2049    2.5033   18.3625 N   0  0  0  0  0  0  0  0  0  0  0  0
    4.0555    1.3981   18.5447 C   0  0  0  0  0  0  0  0  0  0  0  0
    4.9564    1.1742   17.6991 O   0  0  0  0  0  0  0  0  0  0  0  0
    2.4604    2.7257   19.0204 H   0  0  0  0  0  0  0  0  0  0  0  0
    3.8776    0.5303   19.7135 C   0  0  0  0  0  0  0  0  0  0  0  0
    4.3879    1.1043   20.9597 C   0  0  0  0  0  0  0  0  0  0  0  0
    5.7268    1.4621   21.0002 C   0  0  0  0  0  0  0  0  0  0  0  0
    6.2958    2.0090   22.1347 C   0  0  0  0  0  0  0  0  0  0  0  0
    5.5513    2.2182   23.2664 C   0  0  0  0  0  0  0  0  0  0  0  0
    4.2220    1.8695   23.2439 C   0  0  0  0  0  0  0  0  0  0  0  0
    3.6519    1.3189   22.1000 C   0  0  0  0  0  0  0  0  0  0  0  0
    2.3781    2.8223   16.1808 C   0  0  0  0  0  0  0  0  0  0  0  0
    2.9602    2.5821   14.8277 C   0  0  0  0  0  0  0  0  0  0  0  0
    3.8724    3.7001   14.3464 C   0  0  0  0  0  0  0  0  0  0  0  0
    3.2050    4.5562   13.3267 C   0  0  0  0  0  0  0  0  0  0  0  0
    0.9813    5.6521   13.5052 C   0  0  0  0  0  0  0  0  0  0  0  0
    0.5242    4.9250   12.5500 O   0  0  0  0  0  0  0  0  0  0  0  0
    2.3128    5.5123   13.9436 N   0  0  0  0  0  0  0  0  0  0  0  0
    2.6918    6.1054   14.7363 H   0  0  0  0  0  0  0  0  0  0  0  0
   -1.2010    6.6344   13.8553 C   0  0  0  0  0  0  0  0  0  0  0  0
    0.0890    6.6056   14.1036 C   0  0  0  0  0  0  0  0  0  0  0  0
 36 37  2  0  0  0
 37 32  1  0  0  0
 32 33  2  0  0  0
 32 34  1  0  0  0
 34 31  1  0  0  0
 31 30  1  0  0  0
 30 29  1  0  0  0
 29 28  1  0  0  0
 28  1  1  0  0  0
  1 17  1  0  0  0
 17 18  1  0  0  0
 18 19  2  0  0  0
 18 21  1  0  0  0
 21 22  1  0  0  0
 22 23  2  0  0  0
 23 24  1  0  0  0
 24 25  2  0  0  0
 25 26  1  0  0  0
 26 27  2  0  0  0
  1  2  1  0  0  0
  2  3  2  0  0  0
  2  4  1  0  0  0
  4  5  1  0  0  0
  5  6  1  0  0  0
  6  7  1  0  0  0
  7 10  1  0  0  0
 10 11  2  0  0  0
 11 12  1  0  0  0
 12 13  2  0  0  0
 13 14  1  0  0  0
 14 15  1  0  0  0
 14 16  2  0  0  0
  7  8  1  0  0  0
  8  9  1  0  0  0
 27 22  1  0  0  0
  9  4  1  0  0  0
 16 10  1  0  0  0
 34 35  1  0  0  0
 17 20  1  0  0  0
M  END
> <minimizedAffinity>
-7.96605

> <CNNscore>
0.3375305831

> <CNNaffinity>
6.4284958839

> <CNN_VS>
2.1698138714

> <CNNaffinity_variance>
0.1853493452

$$$$
[H]C([H])=C([H])C(=O)N([H])C([H])([H])C([H])([H])C([H])([H])C([H])([H])[C@@]([H])(C(=O)N1C([H])([H])C([H])([H])N(c2c([H])c([H])c([H])c(C([H])([H])[H])c2[H])C([H])([H])C1([H])[H])N([H])C(=O)C([H])([H])c1c([H])c([H])c([H])c([H])c1[H]


 37 39  0  0  0  0  0  0  0  0999 V2000
    5.3696    6.7830   21.2172 C   0  0  0  0  0  0  0  0  0  0  0  0
    5.8716    6.5858   19.8482 C   0  0  0  0  0  0  0  0  0  0  0  0
    7.0457    7.0221   19.5760 O   0  0  0  0  0  0  0  0  0  0  0  0
    5.1392    5.9459   18.8290 N   0  0  0  0  0  0  0  0  0  0  0  0
    3.8300    5.4042   19.0486 C   0  0  0  0  0  0  0  0  0  0  0  0
    3.6785    4.1449   18.2018 C   0  0  0  0  0  0  0  0  0  0  0  0
    3.8046    4.5498   16.8145 N   0  0  0  0  0  0  0  0  0  0  0  0
    4.5338    5.7417   16.5022 C   0  0  0  0  0  0  0  0  0  0  0  0
    5.6997    5.8033   17.4889 C   0  0  0  0  0  0  0  0  0  0  0  0
    3.2214    3.7709   15.7820 C   0  0  0  0  0  0  0  0  0  0  0  0
    3.5079    2.4090   15.7502 C   0  0  0  0  0  0  0  0  0  0  0  0
    2.9525    1.6326   14.7653 C   0  0  0  0  0  0  0  0  0  0  0  0
    2.1234    2.1579   13.8110 C   0  0  0  0  0  0  0  0  0  0  0  0
    1.8244    3.4993   13.8197 C   0  0  0  0  0  0  0  0  0  0  0  0
    0.9390    4.1008   12.8095 C   0  0  0  0  0  0  0  0  0  0  0  0
    2.3871    4.2791   14.8158 C   0  0  0  0  0  0  0  0  0  0  0  0
    5.6051    5.5551   22.0159 N   0  0  0  0  0  0  0  0  0  0  0  0
    4.5258    4.8390   22.5641 C   0  0  0  0  0  0  0  0  0  0  0  0
    3.3562    5.2524   22.3694 O   0  0  0  0  0  0  0  0  0  0  0  0
    6.5706    5.2597   22.1462 H   0  0  0  0  0  0  0  0  0  0  0  0
    4.7829    3.6274   23.3494 C   0  0  0  0  0  0  0  0  0  0  0  0
    5.1510    2.4647   22.5397 C   0  0  0  0  0  0  0  0  0  0  0  0
    4.1261    1.6483   22.0862 C   0  0  0  0  0  0  0  0  0  0  0  0
    4.3795    0.5279   21.3179 C   0  0  0  0  0  0  0  0  0  0  0  0
    5.6610    0.1828   20.9750 C   0  0  0  0  0  0  0  0  0  0  0  0
    6.6894    0.9811   21.4159 C   0  0  0  0  0  0  0  0  0  0  0  0
    6.4311    2.1087   22.1896 C   0  0  0  0  0  0  0  0  0  0  0  0
    6.1522    7.8452   21.9789 C   0  0  0  0  0  0  0  0  0  0  0  0
    7.0841    7.2937   23.0060 C   0  0  0  0  0  0  0  0  0  0  0  0
    7.3176    8.2264   24.1846 C   0  0  0  0  0  0  0  0  0  0  0  0
    8.6364    7.9790   24.8310 C   0  0  0  0  0  0  0  0  0  0  0  0
   10.3430    6.3159   24.1247 C   0  0  0  0  0  0  0  0  0  0  0  0
   10.1609    5.6416   25.2027 O   0  0  0  0  0  0  0  0  0  0  0  0
    9.6077    7.4917   23.8773 N   0  0  0  0  0  0  0  0  0  0  0  0
    9.7499    8.0472   22.9856 H   0  0  0  0  0  0  0  0  0  0  0  0
   10.9966    5.2842   22.0370 C   0  0  0  0  0  0  0  0  0  0  0  0
   11.3178    5.8280   23.1893 C   0  0  0  0  0  0  0  0  0  0  0  0
 36 37  2  0  0  0
 37 32  1  0  0  0
 32 33  2  0  0  0
 32 34  1  0  0  0
 34 31  1  0  0  0
 31 30  1  0  0  0
 30 29  1  0  0  0
 29 28  1  0  0  0
 28  1  1  0  0  0
  1 17  1  0  0  0
 17 18  1  0  0  0
 18 19  2  0  0  0
 18 21  1  0  0  0
 21 22  1  0  0  0
 22 23  2  0  0  0
 23 24  1  0  0  0
 24 25  2  0  0  0
 25 26  1  0  0  0
 26 27  2  0  0  0
  1  2  1  0  0  0
  2  3  2  0  0  0
  2  4  1  0  0  0
  4  5  1  0  0  0
  5  6  1  0  0  0
  6  7  1  0  0  0
  7 10  1  0  0  0
 10 11  2  0  0  0
 11 12  1  0  0  0
 12 13  2  0  0  0
 13 14  1  0  0  0
 14 15  1  0  0  0
 14 16  2  0  0  0
  7  8  1  0  0  0
  8  9  1  0  0  0
 27 22  1  0  0  0
  9  4  1  0  0  0
 16 10  1  0  0  0
 34 35  1  0  0  0
 17 20  1  0  0  0
M  END
> <minimizedAffinity>
-8.28280

> <CNNscore>
0.3370774984

> <CNNaffinity>
6.5358495712

> <CNN_VS>
2.2030878067

> <CNNaffinity_variance>
0.3472908437

$$$$
[H]C([H])=C([H])C(=O)N([H])C([H])([H])C([H])([H])C([H])([H])C([H])([H])[C@@]([H])(C(=O)N1C([H])([H])C([H])([H])N(c2c([H])c([H])c([H])c(C([H])([H])[H])c2[H])C([H])([H])C1([H])[H])N([H])C(=O)C([H])([H])c1c([H])c([H])c([H])c([H])c1[H]


 37 39  0  0  0  0  0  0  0  0999 V2000
    3.3217    3.1972   17.0905 C   0  0  0  0  0  0  0  0  0  0  0  0
    3.0518    4.6051   17.4219 C   0  0  0  0  0  0  0  0  0  0  0  0
    2.0577    5.1726   16.8450 O   0  0  0  0  0  0  0  0  0  0  0  0
    3.8184    5.3569   18.3339 N   0  0  0  0  0  0  0  0  0  0  0  0
    4.9315    4.7986   19.0445 C   0  0  0  0  0  0  0  0  0  0  0  0
    4.9847    5.4278   20.4328 C   0  0  0  0  0  0  0  0  0  0  0  0
    5.1990    6.8502   20.2451 N   0  0  0  0  0  0  0  0  0  0  0  0
    4.7900    7.4580   19.0149 C   0  0  0  0  0  0  0  0  0  0  0  0
    3.4976    6.7562   18.5976 C   0  0  0  0  0  0  0  0  0  0  0  0
    5.7970    7.6289   21.2692 C   0  0  0  0  0  0  0  0  0  0  0  0
    5.2931    8.9065   21.4966 C   0  0  0  0  0  0  0  0  0  0  0  0
    5.8500    9.6779   22.4845 C   0  0  0  0  0  0  0  0  0  0  0  0
    6.8883    9.2282   23.2551 C   0  0  0  0  0  0  0  0  0  0  0  0
    7.4044    7.9708   23.0512 C   0  0  0  0  0  0  0  0  0  0  0  0
    8.5213    7.4532   23.8579 C   0  0  0  0  0  0  0  0  0  0  0  0
    6.8389    7.1955   22.0531 C   0  0  0  0  0  0  0  0  0  0  0  0
    3.1557    2.3592   18.3035 N   0  0  0  0  0  0  0  0  0  0  0  0
    4.0687    1.3294   18.5934 C   0  0  0  0  0  0  0  0  0  0  0  0
    5.0296    1.1263   17.8108 O   0  0  0  0  0  0  0  0  0  0  0  0
    2.3614    2.5621   18.9072 H   0  0  0  0  0  0  0  0  0  0  0  0
    3.8850    0.5146   19.7988 C   0  0  0  0  0  0  0  0  0  0  0  0
    4.4847    1.0942   21.0018 C   0  0  0  0  0  0  0  0  0  0  0  0
    3.6710    1.2484   22.1138 C   0  0  0  0  0  0  0  0  0  0  0  0
    4.1505    1.7885   23.2921 C   0  0  0  0  0  0  0  0  0  0  0  0
    5.4555    2.1928   23.4031 C   0  0  0  0  0  0  0  0  0  0  0  0
    6.2765    2.0471   22.3104 C   0  0  0  0  0  0  0  0  0  0  0  0
    5.7908    1.5030   21.1252 C   0  0  0  0  0  0  0  0  0  0  0  0
    2.2943    2.6166   16.1270 C   0  0  0  0  0  0  0  0  0  0  0  0
    2.8719    1.6935   15.1064 C   0  0  0  0  0  0  0  0  0  0  0  0
    2.6961    2.1764   13.6747 C   0  0  0  0  0  0  0  0  0  0  0  0
    1.5136    3.0712   13.5357 C   0  0  0  0  0  0  0  0  0  0  0  0
    0.8611    3.3185   11.1502 C   0  0  0  0  0  0  0  0  0  0  0  0
    1.7471    4.2333   10.9821 O   0  0  0  0  0  0  0  0  0  0  0  0
    0.6981    2.6947   12.4027 N   0  0  0  0  0  0  0  0  0  0  0  0
   -0.0271    1.9343   12.5437 H   0  0  0  0  0  0  0  0  0  0  0  0
   -0.0054    1.7399    9.5356 C   0  0  0  0  0  0  0  0  0  0  0  0
    0.0498    2.9599   10.0204 C   0  0  0  0  0  0  0  0  0  0  0  0
 36 37  2  0  0  0
 37 32  1  0  0  0
 32 33  2  0  0  0
 32 34  1  0  0  0
 34 31  1  0  0  0
 31 30  1  0  0  0
 30 29  1  0  0  0
 29 28  1  0  0  0
 28  1  1  0  0  0
  1 17  1  0  0  0
 17 18  1  0  0  0
 18 19  2  0  0  0
 18 21  1  0  0  0
 21 22  1  0  0  0
 22 23  2  0  0  0
 23 24  1  0  0  0
 24 25  2  0  0  0
 25 26  1  0  0  0
 26 27  2  0  0  0
  1  2  1  0  0  0
  2  3  2  0  0  0
  2  4  1  0  0  0
  4  5  1  0  0  0
  5  6  1  0  0  0
  6  7  1  0  0  0
  7 10  1  0  0  0
 10 11  2  0  0  0
 11 12  1  0  0  0
 12 13  2  0  0  0
 13 14  1  0  0  0
 14 15  1  0  0  0
 14 16  2  0  0  0
  7  8  1  0  0  0
  8  9  1  0  0  0
 27 22  1  0  0  0
  9  4  1  0  0  0
 16 10  1  0  0  0
 34 35  1  0  0  0
 17 20  1  0  0  0
M  END
> <minimizedAffinity>
-7.86129

> <CNNscore>
0.3318294585

> <CNNaffinity>
6.4909958839

> <CNN_VS>
2.1539037228

> <CNNaffinity_variance>
0.1859042495

$$$$
[H]C([H])=C([H])C(=O)N([H])C([H])([H])C([H])([H])C([H])([H])C([H])([H])[C@@]([H])(C(=O)N1C([H])([H])C([H])([H])N(c2c([H])c([H])c([H])c(C([H])([H])[H])c2[H])C([H])([H])C1([H])[H])N([H])C(=O)C([H])([H])c1c([H])c([H])c([H])c([H])c1[H]


 37 39  0  0  0  0  0  0  0  0999 V2000
    4.3715    5.7607   17.8441 C   0  0  0  0  0  0  0  0  0  0  0  0
    3.1186    5.5145   17.1130 C   0  0  0  0  0  0  0  0  0  0  0  0
    2.1195    5.0647   17.7783 O   0  0  0  0  0  0  0  0  0  0  0  0
    2.9573    5.7472   15.7329 N   0  0  0  0  0  0  0  0  0  0  0  0
    4.0108    6.2728   14.9146 C   0  0  0  0  0  0  0  0  0  0  0  0
    3.3933    7.1719   13.8486 C   0  0  0  0  0  0  0  0  0  0  0  0
    2.5276    6.3357   13.0390 N   0  0  0  0  0  0  0  0  0  0  0  0
    1.9832    5.1410   13.6102 C   0  0  0  0  0  0  0  0  0  0  0  0
    1.6861    5.4617   15.0750 C   0  0  0  0  0  0  0  0  0  0  0  0
    2.2178    6.7015   11.7036 C   0  0  0  0  0  0  0  0  0  0  0  0
    3.1790    7.3995   10.9780 C   0  0  0  0  0  0  0  0  0  0  0  0
    2.9065    7.7602    9.6830 C   0  0  0  0  0  0  0  0  0  0  0  0
    1.7155    7.4538    9.0818 C   0  0  0  0  0  0  0  0  0  0  0  0
    0.7495    6.7654    9.7759 C   0  0  0  0  0  0  0  0  0  0  0  0
   -0.5438    6.4197    9.1642 C   0  0  0  0  0  0  0  0  0  0  0  0
    1.0290    6.4030   11.0826 C   0  0  0  0  0  0  0  0  0  0  0  0
    4.1167    5.6980   19.3043 N   0  0  0  0  0  0  0  0  0  0  0  0
    4.8891    6.4596   20.1997 C   0  0  0  0  0  0  0  0  0  0  0  0
    5.8004    7.1957   19.7475 O   0  0  0  0  0  0  0  0  0  0  0  0
    3.3673    5.0869   19.6228 H   0  0  0  0  0  0  0  0  0  0  0  0
    4.6185    6.3823   21.6390 C   0  0  0  0  0  0  0  0  0  0  0  0
    4.8765    5.0635   22.2196 C   0  0  0  0  0  0  0  0  0  0  0  0
    6.0392    4.4112   21.8386 C   0  0  0  0  0  0  0  0  0  0  0  0
    6.3637    3.1624   22.3336 C   0  0  0  0  0  0  0  0  0  0  0  0
    5.5423    2.5213   23.2242 C   0  0  0  0  0  0  0  0  0  0  0  0
    4.3855    3.1535   23.6130 C   0  0  0  0  0  0  0  0  0  0  0  0
    4.0612    4.4110   23.1128 C   0  0  0  0  0  0  0  0  0  0  0  0
    5.4010    4.6590   17.6261 C   0  0  0  0  0  0  0  0  0  0  0  0
    4.9724    3.3194   18.1254 C   0  0  0  0  0  0  0  0  0  0  0  0
    4.7076    2.3097   17.0190 C   0  0  0  0  0  0  0  0  0  0  0  0
    3.5983    1.3812   17.3734 C   0  0  0  0  0  0  0  0  0  0  0  0
    2.7653    0.0602   19.3069 C   0  0  0  0  0  0  0  0  0  0  0  0
    1.9597   -0.5866   18.5434 O   0  0  0  0  0  0  0  0  0  0  0  0
    3.6148    1.0536   18.7816 N   0  0  0  0  0  0  0  0  0  0  0  0
    4.2861    1.5846   19.4071 H   0  0  0  0  0  0  0  0  0  0  0  0
    3.8454   -0.2188   21.4529 C   0  0  0  0  0  0  0  0  0  0  0  0
    2.7656   -0.2665   20.7057 C   0  0  0  0  0  0  0  0  0  0  0  0
 36 37  2  0  0  0
 37 32  1  0  0  0
 32 33  2  0  0  0
 32 34  1  0  0  0
 34 31  1  0  0  0
 31 30  1  0  0  0
 30 29  1  0  0  0
 29 28  1  0  0  0
 28  1  1  0  0  0
  1 17  1  0  0  0
 17 18  1  0  0  0
 18 19  2  0  0  0
 18 21  1  0  0  0
 21 22  1  0  0  0
 22 23  2  0  0  0
 23 24  1  0  0  0
 24 25  2  0  0  0
 25 26  1  0  0  0
 26 27  2  0  0  0
  1  2  1  0  0  0
  2  3  2  0  0  0
  2  4  1  0  0  0
  4  5  1  0  0  0
  5  6  1  0  0  0
  6  7  1  0  0  0
  7 10  1  0  0  0
 10 11  2  0  0  0
 11 12  1  0  0  0
 12 13  2  0  0  0
 13 14  1  0  0  0
 14 15  1  0  0  0
 14 16  2  0  0  0
  7  8  1  0  0  0
  8  9  1  0  0  0
 27 22  1  0  0  0
  9  4  1  0  0  0
 16 10  1  0  0  0
 34 35  1  0  0  0
 17 20  1  0  0  0
M  END
> <minimizedAffinity>
-7.96465

> <CNNscore>
0.3075963259

> <CNNaffinity>
6.2070298195

> <CNN_VS>
1.9092595577

> <CNNaffinity_variance>
0.1734529436

$$$$
[H]C([H])=C([H])C(=O)N([H])C([H])([H])C([H])([H])C([H])([H])C([H])([H])[C@@]([H])(C(=O)N1C([H])([H])C([H])([H])N(c2c([H])c([H])c([H])c(C([H])([H])[H])c2[H])C([H])([H])C1([H])[H])N([H])C(=O)C([H])([H])c1c([H])c([H])c([H])c([H])c1[H]


 37 39  0  0  0  0  0  0  0  0999 V2000
    3.1705    4.0697   17.8061 C   0  0  0  0  0  0  0  0  0  0  0  0
    3.7486    4.3588   16.4843 C   0  0  0  0  0  0  0  0  0  0  0  0
    4.7140    5.2001   16.4277 O   0  0  0  0  0  0  0  0  0  0  0  0
    3.3045    3.7638   15.2871 N   0  0  0  0  0  0  0  0  0  0  0  0
    2.2490    2.7939   15.2571 C   0  0  0  0  0  0  0  0  0  0  0  0
    2.5556    1.7781   14.1616 C   0  0  0  0  0  0  0  0  0  0  0  0
    2.5773    2.5035   12.9056 N   0  0  0  0  0  0  0  0  0  0  0  0
    2.8703    3.9049   12.9176 C   0  0  0  0  0  0  0  0  0  0  0  0
    3.9184    4.1155   14.0104 C   0  0  0  0  0  0  0  0  0  0  0  0
    2.3209    1.8319   11.6824 C   0  0  0  0  0  0  0  0  0  0  0  0
    0.9960    1.5636   11.3500 C   0  0  0  0  0  0  0  0  0  0  0  0
    0.7207    0.9202   10.1704 C   0  0  0  0  0  0  0  0  0  0  0  0
    1.7114    0.5334    9.3086 C   0  0  0  0  0  0  0  0  0  0  0  0
    3.0276    0.7863    9.6128 C   0  0  0  0  0  0  0  0  0  0  0  0
    4.1204    0.3840    8.7126 C   0  0  0  0  0  0  0  0  0  0  0  0
    3.3009    1.4362   10.8044 C   0  0  0  0  0  0  0  0  0  0  0  0
    4.1852    3.4025   18.6584 N   0  0  0  0  0  0  0  0  0  0  0  0
    4.1855    2.0043   18.8107 C   0  0  0  0  0  0  0  0  0  0  0  0
    3.3139    1.3244   18.2149 O   0  0  0  0  0  0  0  0  0  0  0  0
    4.8711    3.9959   19.1209 H   0  0  0  0  0  0  0  0  0  0  0  0
    5.1989    1.3667   19.6576 C   0  0  0  0  0  0  0  0  0  0  0  0
    5.0099    1.6071   21.0892 C   0  0  0  0  0  0  0  0  0  0  0  0
    6.0148    2.2829   21.7644 C   0  0  0  0  0  0  0  0  0  0  0  0
    5.9235    2.5522   23.1167 C   0  0  0  0  0  0  0  0  0  0  0  0
    4.8292    2.1582   23.8421 C   0  0  0  0  0  0  0  0  0  0  0  0
    3.8233    1.4872   23.1888 C   0  0  0  0  0  0  0  0  0  0  0  0
    3.9180    1.2173   21.8268 C   0  0  0  0  0  0  0  0  0  0  0  0
    2.8407    5.3346   18.5886 C   0  0  0  0  0  0  0  0  0  0  0  0
    3.8504    5.6855   19.6301 C   0  0  0  0  0  0  0  0  0  0  0  0
    4.5963    6.9808   19.3480 C   0  0  0  0  0  0  0  0  0  0  0  0
    3.7037    8.0123   18.7501 C   0  0  0  0  0  0  0  0  0  0  0  0
    4.7321    9.1325   16.7841 C   0  0  0  0  0  0  0  0  0  0  0  0
    5.3284    9.9736   17.5503 O   0  0  0  0  0  0  0  0  0  0  0  0
    3.9093    8.1241   17.3233 N   0  0  0  0  0  0  0  0  0  0  0  0
    3.4211    7.4236   16.6949 H   0  0  0  0  0  0  0  0  0  0  0  0
    4.1537    9.9770   14.5927 C   0  0  0  0  0  0  0  0  0  0  0  0
    4.9354    9.2596   15.3678 C   0  0  0  0  0  0  0  0  0  0  0  0
 36 37  2  0  0  0
 37 32  1  0  0  0
 32 33  2  0  0  0
 32 34  1  0  0  0
 34 31  1  0  0  0
 31 30  1  0  0  0
 30 29  1  0  0  0
 29 28  1  0  0  0
 28  1  1  0  0  0
  1 17  1  0  0  0
 17 18  1  0  0  0
 18 19  2  0  0  0
 18 21  1  0  0  0
 21 22  1  0  0  0
 22 23  2  0  0  0
 23 24  1  0  0  0
 24 25  2  0  0  0
 25 26  1  0  0  0
 26 27  2  0  0  0
  1  2  1  0  0  0
  2  3  2  0  0  0
  2  4  1  0  0  0
  4  5  1  0  0  0
  5  6  1  0  0  0
  6  7  1  0  0  0
  7 10  1  0  0  0
 10 11  2  0  0  0
 11 12  1  0  0  0
 12 13  2  0  0  0
 13 14  1  0  0  0
 14 15  1  0  0  0
 14 16  2  0  0  0
  7  8  1  0  0  0
  8  9  1  0  0  0
 27 22  1  0  0  0
  9  4  1  0  0  0
 16 10  1  0  0  0
 34 35  1  0  0  0
 17 20  1  0  0  0
M  END
> <minimizedAffinity>
-7.15240

> <CNNscore>
0.2953107059

> <CNNaffinity>
6.3225870132

> <CNN_VS>
1.8671276569

> <CNNaffinity_variance>
0.2407194823

$$$$
[H]C([H])=C([H])C(=O)N([H])C([H])([H])C([H])([H])C([H])([H])C([H])([H])[C@@]([H])(C(=O)N1C([H])([H])C([H])([H])N(c2c([H])c([H])c([H])c(C([H])([H])[H])c2[H])C([H])([H])C1([H])[H])N([H])C(=O)C([H])([H])c1c([H])c([H])c([H])c([H])c1[H]


 37 39  0  0  0  0  0  0  0  0999 V2000
    2.4423    3.9929   15.8543 C   0  0  0  0  0  0  0  0  0  0  0  0
    2.8893    4.1735   14.4642 C   0  0  0  0  0  0  0  0  0  0  0  0
    3.9018    4.9320   14.2581 O   0  0  0  0  0  0  0  0  0  0  0  0
    2.2719    3.5606   13.3561 N   0  0  0  0  0  0  0  0  0  0  0  0
    1.1510    2.6772   13.4931 C   0  0  0  0  0  0  0  0  0  0  0  0
    1.2578    1.5905   12.4284 C   0  0  0  0  0  0  0  0  0  0  0  0
    1.1930    2.2527   11.1394 N   0  0  0  0  0  0  0  0  0  0  0  0
    1.5881    3.6255   11.0429 C   0  0  0  0  0  0  0  0  0  0  0  0
    2.7640    3.8028   12.0034 C   0  0  0  0  0  0  0  0  0  0  0  0
    0.7531    1.5475    9.9896 C   0  0  0  0  0  0  0  0  0  0  0  0
    0.3666    0.2194   10.1462 C   0  0  0  0  0  0  0  0  0  0  0  0
   -0.0678   -0.4832    9.0513 C   0  0  0  0  0  0  0  0  0  0  0  0
   -0.1329    0.0835    7.8069 C   0  0  0  0  0  0  0  0  0  0  0  0
    0.2427    1.3930    7.6249 C   0  0  0  0  0  0  0  0  0  0  0  0
    0.1885    2.0363    6.3022 C   0  0  0  0  0  0  0  0  0  0  0  0
    0.6803    2.0985    8.7329 C   0  0  0  0  0  0  0  0  0  0  0  0
    3.4758    3.2509   16.6175 N   0  0  0  0  0  0  0  0  0  0  0  0
    3.2721    1.9072   16.9797 C   0  0  0  0  0  0  0  0  0  0  0  0
    2.2015    1.3406   16.6488 O   0  0  0  0  0  0  0  0  0  0  0  0
    4.3268    3.7530   16.8628 H   0  0  0  0  0  0  0  0  0  0  0  0
    4.3082    1.1936   17.7333 C   0  0  0  0  0  0  0  0  0  0  0  0
    4.1592    1.2954   19.1860 C   0  0  0  0  0  0  0  0  0  0  0  0
    4.8856    2.2800   19.8380 C   0  0  0  0  0  0  0  0  0  0  0  0
    4.8093    2.4484   21.2076 C   0  0  0  0  0  0  0  0  0  0  0  0
    4.0075    1.6429   21.9737 C   0  0  0  0  0  0  0  0  0  0  0  0
    3.2800    0.6615   21.3438 C   0  0  0  0  0  0  0  0  0  0  0  0
    3.3589    0.4943   19.9645 C   0  0  0  0  0  0  0  0  0  0  0  0
    2.3363    5.3117   16.6097 C   0  0  0  0  0  0  0  0  0  0  0  0
    3.0732    5.3296   17.9075 C   0  0  0  0  0  0  0  0  0  0  0  0
    4.0789    6.4647   18.0248 C   0  0  0  0  0  0  0  0  0  0  0  0
    3.9656    7.1693   19.3320 C   0  0  0  0  0  0  0  0  0  0  0  0
    5.0446    6.2078   21.3541 C   0  0  0  0  0  0  0  0  0  0  0  0
    3.9244    5.7117   21.7403 O   0  0  0  0  0  0  0  0  0  0  0  0
    5.1322    6.9430   20.1557 N   0  0  0  0  0  0  0  0  0  0  0  0
    6.0561    7.3480   19.8298 H   0  0  0  0  0  0  0  0  0  0  0  0
    6.9066    6.9623   22.7008 C   0  0  0  0  0  0  0  0  0  0  0  0
    6.1947    5.9855   22.1855 C   0  0  0  0  0  0  0  0  0  0  0  0
 36 37  2  0  0  0
 37 32  1  0  0  0
 32 33  2  0  0  0
 32 34  1  0  0  0
 34 31  1  0  0  0
 31 30  1  0  0  0
 30 29  1  0  0  0
 29 28  1  0  0  0
 28  1  1  0  0  0
  1 17  1  0  0  0
 17 18  1  0  0  0
 18 19  2  0  0  0
 18 21  1  0  0  0
 21 22  1  0  0  0
 22 23  2  0  0  0
 23 24  1  0  0  0
 24 25  2  0  0  0
 25 26  1  0  0  0
 26 27  2  0  0  0
  1  2  1  0  0  0
  2  3  2  0  0  0
  2  4  1  0  0  0
  4  5  1  0  0  0
  5  6  1  0  0  0
  6  7  1  0  0  0
  7 10  1  0  0  0
 10 11  2  0  0  0
 11 12  1  0  0  0
 12 13  2  0  0  0
 13 14  1  0  0  0
 14 15  1  0  0  0
 14 16  2  0  0  0
  7  8  1  0  0  0
  8  9  1  0  0  0
 27 22  1  0  0  0
  9  4  1  0  0  0
 16 10  1  0  0  0
 34 35  1  0  0  0
 17 20  1  0  0  0
M  END
> <minimizedAffinity>
-6.75386

> <CNNscore>
0.2919051945

> <CNNaffinity>
6.0286240578

> <CNN_VS>
1.7597867250

> <CNNaffinity_variance>
0.1127367243

$$$$
[H]C([H])=C([H])C(=O)N([H])C([H])([H])C([H])([H])C([H])([H])C([H])([H])[C@@]([H])(C(=O)N1C([H])([H])C([H])([H])N(c2c([H])c([H])c([H])c(C([H])([H])[H])c2[H])C([H])([H])C1([H])[H])N([H])C(=O)C([H])([H])c1c([H])c([H])c([H])c([H])c1[H]


 37 39  0  0  0  0  0  0  0  0999 V2000
    4.9510    7.5863   17.7668 C   0  0  0  0  0  0  0  0  0  0  0  0
    4.4993    8.5609   16.7612 C   0  0  0  0  0  0  0  0  0  0  0  0
    4.7221    9.8018   16.9925 O   0  0  0  0  0  0  0  0  0  0  0  0
    3.8431    8.2072   15.5658 N   0  0  0  0  0  0  0  0  0  0  0  0
    3.5748    6.8441   15.2115 C   0  0  0  0  0  0  0  0  0  0  0  0
    3.6955    6.7043   13.6976 C   0  0  0  0  0  0  0  0  0  0  0  0
    2.6827    7.5615   13.1112 N   0  0  0  0  0  0  0  0  0  0  0  0
    2.2056    8.6853   13.8592 C   0  0  0  0  0  0  0  0  0  0  0  0
    3.4096    9.2348   14.6242 C   0  0  0  0  0  0  0  0  0  0  0  0
    2.1792    7.2951   11.8118 C   0  0  0  0  0  0  0  0  0  0  0  0
    0.8960    6.7663   11.7044 C   0  0  0  0  0  0  0  0  0  0  0  0
    0.3836    6.5047   10.4594 C   0  0  0  0  0  0  0  0  0  0  0  0
    1.0975    6.7485    9.3171 C   0  0  0  0  0  0  0  0  0  0  0  0
    2.3666    7.2703    9.3951 C   0  0  0  0  0  0  0  0  0  0  0  0
    3.1656    7.5440    8.1898 C   0  0  0  0  0  0  0  0  0  0  0  0
    2.8797    7.5331   10.6540 C   0  0  0  0  0  0  0  0  0  0  0  0
    6.0771    8.1589   18.5447 N   0  0  0  0  0  0  0  0  0  0  0  0
    7.2772    7.4423   18.7012 C   0  0  0  0  0  0  0  0  0  0  0  0
    7.3852    6.3081   18.1732 O   0  0  0  0  0  0  0  0  0  0  0  0
    5.9420    9.0814   18.9537 H   0  0  0  0  0  0  0  0  0  0  0  0
    8.3772    8.0288   19.4737 C   0  0  0  0  0  0  0  0  0  0  0  0
    8.9249    7.1351   20.4956 C   0  0  0  0  0  0  0  0  0  0  0  0
    8.0851    6.7533   21.5307 C   0  0  0  0  0  0  0  0  0  0  0  0
    8.5165    5.9142   22.5405 C   0  0  0  0  0  0  0  0  0  0  0  0
    9.7976    5.4269   22.5537 C   0  0  0  0  0  0  0  0  0  0  0  0
   10.6438    5.7950   21.5350 C   0  0  0  0  0  0  0  0  0  0  0  0
   10.2066    6.6402   20.5195 C   0  0  0  0  0  0  0  0  0  0  0  0
    3.8970    7.3166   18.8333 C   0  0  0  0  0  0  0  0  0  0  0  0
    4.4313    6.6623   20.0638 C   0  0  0  0  0  0  0  0  0  0  0  0
    4.0408    5.1983   20.1975 C   0  0  0  0  0  0  0  0  0  0  0  0
    5.2046    4.2948   19.9793 C   0  0  0  0  0  0  0  0  0  0  0  0
    4.6929    1.8955   20.3778 C   0  0  0  0  0  0  0  0  0  0  0  0
    4.3254    1.7503   19.1555 O   0  0  0  0  0  0  0  0  0  0  0  0
    5.1477    3.1422   20.8504 N   0  0  0  0  0  0  0  0  0  0  0  0
    5.4586    3.2645   21.8565 H   0  0  0  0  0  0  0  0  0  0  0  0
    3.4885    0.1850   21.5917 C   0  0  0  0  0  0  0  0  0  0  0  0
    4.6223    0.7463   21.2366 C   0  0  0  0  0  0  0  0  0  0  0  0
 36 37  2  0  0  0
 37 32  1  0  0  0
 32 33  2  0  0  0
 32 34  1  0  0  0
 34 31  1  0  0  0
 31 30  1  0  0  0
 30 29  1  0  0  0
 29 28  1  0  0  0
 28  1  1  0  0  0
  1 17  1  0  0  0
 17 18  1  0  0  0
 18 19  2  0  0  0
 18 21  1  0  0  0
 21 22  1  0  0  0
 22 23  2  0  0  0
 23 24  1  0  0  0
 24 25  2  0  0  0
 25 26  1  0  0  0
 26 27  2  0  0  0
  1  2  1  0  0  0
  2  3  2  0  0  0
  2  4  1  0  0  0
  4  5  1  0  0  0
  5  6  1  0  0  0
  6  7  1  0  0  0
  7 10  1  0  0  0
 10 11  2  0  0  0
 11 12  1  0  0  0
 12 13  2  0  0  0
 13 14  1  0  0  0
 14 15  1  0  0  0
 14 16  2  0  0  0
  7  8  1  0  0  0
  8  9  1  0  0  0
 27 22  1  0  0  0
  9  4  1  0  0  0
 16 10  1  0  0  0
 34 35  1  0  0  0
 17 20  1  0  0  0
M  END
> <minimizedAffinity>
-6.81146

> <CNNscore>
0.2841922343

> <CNNaffinity>
6.0203742981

> <CNN_VS>
1.7109435797

> <CNNaffinity_variance>
0.0677264333

$$$$
[H]C([H])=C([H])C(=O)N([H])C([H])([H])C([H])([H])C([H])([H])C([H])([H])[C@@]([H])(C(=O)N1C([H])([H])C([H])([H])N(c2c([H])c([H])c([H])c(C([H])([H])[H])c2[H])C([H])([H])C1([H])[H])N([H])C(=O)C([H])([H])c1c([H])c([H])c([H])c([H])c1[H]


 37 39  0  0  0  0  0  0  0  0999 V2000
    3.2986    5.2311   15.2755 C   0  0  0  0  0  0  0  0  0  0  0  0
    3.1415    4.9363   13.8426 C   0  0  0  0  0  0  0  0  0  0  0  0
    4.1206    4.3690   13.2405 O   0  0  0  0  0  0  0  0  0  0  0  0
    1.9815    5.2385   13.1024 N   0  0  0  0  0  0  0  0  0  0  0  0
    0.8285    5.8488   13.6972 C   0  0  0  0  0  0  0  0  0  0  0  0
   -0.4187    5.2911   13.0194 C   0  0  0  0  0  0  0  0  0  0  0  0
   -0.3441    5.6667   11.6202 N   0  0  0  0  0  0  0  0  0  0  0  0
    0.9382    5.9230   11.0371 C   0  0  0  0  0  0  0  0  0  0  0  0
    1.9079    4.9299   11.6777 C   0  0  0  0  0  0  0  0  0  0  0  0
   -1.5239    5.7696   10.8390 C   0  0  0  0  0  0  0  0  0  0  0  0
   -2.7480    5.5966   11.4790 C   0  0  0  0  0  0  0  0  0  0  0  0
   -3.9039    5.6964   10.7475 C   0  0  0  0  0  0  0  0  0  0  0  0
   -3.8899    5.9617    9.4046 C   0  0  0  0  0  0  0  0  0  0  0  0
   -2.6950    6.1368    8.7486 C   0  0  0  0  0  0  0  0  0  0  0  0
   -2.6394    6.4213    7.3056 C   0  0  0  0  0  0  0  0  0  0  0  0
   -1.5307    6.0354    9.4910 C   0  0  0  0  0  0  0  0  0  0  0  0
    4.1669    4.2047   15.9030 N   0  0  0  0  0  0  0  0  0  0  0  0
    3.6060    3.0733   16.5224 C   0  0  0  0  0  0  0  0  0  0  0  0
    2.3573    2.9414   16.5387 O   0  0  0  0  0  0  0  0  0  0  0  0
    5.1729    4.3557   15.8643 H   0  0  0  0  0  0  0  0  0  0  0  0
    4.4841    2.0713   17.1353 C   0  0  0  0  0  0  0  0  0  0  0  0
    4.4163    2.0401   18.5972 C   0  0  0  0  0  0  0  0  0  0  0  0
    5.0543    3.0571   19.2909 C   0  0  0  0  0  0  0  0  0  0  0  0
    5.0449    3.1076   20.6719 C   0  0  0  0  0  0  0  0  0  0  0  0
    4.4002    2.1481   21.4085 C   0  0  0  0  0  0  0  0  0  0  0  0
    3.7623    1.1325   20.7372 C   0  0  0  0  0  0  0  0  0  0  0  0
    3.7735    1.0842   19.3464 C   0  0  0  0  0  0  0  0  0  0  0  0
    4.0604    6.5266   15.5252 C   0  0  0  0  0  0  0  0  0  0  0  0
    4.7199    6.5957   16.8623 C   0  0  0  0  0  0  0  0  0  0  0  0
    3.8479    7.2152   17.9437 C   0  0  0  0  0  0  0  0  0  0  0  0
    4.0848    6.5844   19.2720 C   0  0  0  0  0  0  0  0  0  0  0  0
    5.2443    8.1675   20.7973 C   0  0  0  0  0  0  0  0  0  0  0  0
    6.3805    7.8648   20.2801 O   0  0  0  0  0  0  0  0  0  0  0  0
    4.0581    7.5656   20.3337 N   0  0  0  0  0  0  0  0  0  0  0  0
    3.1177    7.8179   20.7530 H   0  0  0  0  0  0  0  0  0  0  0  0
    6.3177    9.7227   22.3070 C   0  0  0  0  0  0  0  0  0  0  0  0
    5.2311    9.1357   21.8583 C   0  0  0  0  0  0  0  0  0  0  0  0
 36 37  2  0  0  0
 37 32  1  0  0  0
 32 33  2  0  0  0
 32 34  1  0  0  0
 34 31  1  0  0  0
 31 30  1  0  0  0
 30 29  1  0  0  0
 29 28  1  0  0  0
 28  1  1  0  0  0
  1 17  1  0  0  0
 17 18  1  0  0  0
 18 19  2  0  0  0
 18 21  1  0  0  0
 21 22  1  0  0  0
 22 23  2  0  0  0
 23 24  1  0  0  0
 24 25  2  0  0  0
 25 26  1  0  0  0
 26 27  2  0  0  0
  1  2  1  0  0  0
  2  3  2  0  0  0
  2  4  1  0  0  0
  4  5  1  0  0  0
  5  6  1  0  0  0
  6  7  1  0  0  0
  7 10  1  0  0  0
 10 11  2  0  0  0
 11 12  1  0  0  0
 12 13  2  0  0  0
 13 14  1  0  0  0
 14 15  1  0  0  0
 14 16  2  0  0  0
  7  8  1  0  0  0
  8  9  1  0  0  0
 27 22  1  0  0  0
  9  4  1  0  0  0
 16 10  1  0  0  0
 34 35  1  0  0  0
 17 20  1  0  0  0
M  END
> <minimizedAffinity>
-7.49706

> <CNNscore>
0.2814251781

> <CNNaffinity>
5.7774600983

> <CNN_VS>
1.6259226799

> <CNNaffinity_variance>
0.0930357948

$$$$
[H]c1nc([H])c(N([H])c2c([H])c(-c3c([H])c([H])c4c([H])c(C#N)c([H])nn34)nc([H])c2C(=O)N([H])[C@]2([H])C([H])([H])C([H])([H])[C@@]([H])(N([H])C(=O)C3([H])C([H])([H])C3([H])[H])C([H])([H])C2([H])[H])c([H])c1[H]


 42 47  0  0  0  0  0  0  0  0999 V2000
    3.4165    1.9749   16.8717 C   0  0  0  0  0  0  0  0  0  0  0  0
    3.8115    3.2727   16.7405 C   0  0  0  0  0  0  0  0  0  0  0  0
    3.9219    3.9893   15.5521 C   0  0  0  0  0  0  0  0  0  0  0  0
    3.5896    3.2942   14.3848 C   0  0  0  0  0  0  0  0  0  0  0  0
    3.1835    1.9570   14.5049 C   0  0  0  0  0  0  0  0  0  0  0  0
    3.1076    1.3503   15.6922 N   0  0  0  0  0  0  0  0  0  0  0  0
    4.4225    1.7622   21.9746 C   0  0  0  0  0  0  0  0  0  0  0  0
    4.7220    2.7407   21.0626 C   0  0  0  0  0  0  0  0  0  0  0  0
    4.3527    2.5678   19.7920 N   0  0  0  0  0  0  0  0  0  0  0  0
    3.7077    1.5009   19.3484 N   0  0  0  0  0  0  0  0  0  0  0  0
    3.2974    1.2264   18.1158 C   0  0  0  0  0  0  0  0  0  0  0  0
    2.6743   -0.0261   18.1947 C   0  0  0  0  0  0  0  0  0  0  0  0
    2.7355   -0.4627   19.4945 C   0  0  0  0  0  0  0  0  0  0  0  0
    3.3998    0.5264   20.2187 C   0  0  0  0  0  0  0  0  0  0  0  0
    3.7506    0.6392   21.5433 C   0  0  0  0  0  0  0  0  0  0  0  0
    5.1349    2.0761   24.4442 N   0  0  0  0  0  0  0  0  0  0  0  0
    4.8174    1.9319   23.3390 C   0  0  0  0  0  0  0  0  0  0  0  0
    3.5648    3.9344   13.0959 C   0  0  0  0  0  0  0  0  0  0  0  0
    2.4764    3.9531   12.4226 O   0  0  0  0  0  0  0  0  0  0  0  0
    4.6817    4.5594   12.5102 N   0  0  0  0  0  0  0  0  0  0  0  0
    5.5839    4.5798   13.0191 H   0  0  0  0  0  0  0  0  0  0  0  0
    4.5258    5.1667   11.1972 C   0  0  0  0  0  0  0  0  0  0  0  0
    4.1314    6.6259   11.4460 C   0  0  0  0  0  0  0  0  0  0  0  0
    4.1563    7.3723   10.1170 C   0  0  0  0  0  0  0  0  0  0  0  0
    5.6449    7.5448    9.7803 C   0  0  0  0  0  0  0  0  0  0  0  0
    6.4632    6.4445   10.3615 C   0  0  0  0  0  0  0  0  0  0  0  0
    5.7160    5.1010   10.3177 C   0  0  0  0  0  0  0  0  0  0  0  0
    5.7476    7.5376    8.3283 N   0  0  0  0  0  0  0  0  0  0  0  0
    5.4892    8.7214    7.6068 C   0  0  0  0  0  0  0  0  0  0  0  0
    5.1617    9.7862    8.2260 O   0  0  0  0  0  0  0  0  0  0  0  0
    6.0110    6.6754    7.8220 H   0  0  0  0  0  0  0  0  0  0  0  0
    5.5923    8.7460    6.1365 C   0  0  0  0  0  0  0  0  0  0  0  0
    6.8625    8.4382    5.4766 C   0  0  0  0  0  0  0  0  0  0  0  0
    6.5135    9.8805    5.6449 C   0  0  0  0  0  0  0  0  0  0  0  0
    4.4612    5.2763   15.5607 N   0  0  0  0  0  0  0  0  0  0  0  0
    4.7505    5.7413   14.6732 H   0  0  0  0  0  0  0  0  0  0  0  0
    4.7098    6.0198   16.7325 C   0  0  0  0  0  0  0  0  0  0  0  0
    3.7629    6.8328   17.3692 C   0  0  0  0  0  0  0  0  0  0  0  0
    4.0635    7.5352   18.5076 C   0  0  0  0  0  0  0  0  0  0  0  0
    5.3277    7.4403   19.0392 C   0  0  0  0  0  0  0  0  0  0  0  0
    6.2607    6.6705   18.4536 N   0  0  0  0  0  0  0  0  0  0  0  0
    5.9636    5.9885   17.3470 C   0  0  0  0  0  0  0  0  0  0  0  0
 16 17  3  0  0  0
 17  7  1  0  0  0
  7  8  1  0  0  0
  8  9  2  0  0  0
  9 10  1  0  0  0
 10 11  1  0  0  0
 11  1  1  0  0  0
  1  2  2  0  0  0
  2  3  1  0  0  0
  3 35  1  0  0  0
 35 37  1  0  0  0
 37 38  2  0  0  0
 38 39  1  0  0  0
 39 40  2  0  0  0
 40 41  1  0  0  0
 41 42  2  0  0  0
  3  4  2  0  0  0
  4 18  1  0  0  0
 18 19  2  0  0  0
 18 20  1  0  0  0
 20 22  1  0  0  0
 22 23  1  0  0  0
 23 24  1  0  0  0
 24 25  1  0  0  0
 25 28  1  0  0  0
 28 29  1  0  0  0
 29 30  2  0  0  0
 29 32  1  0  0  0
 32 33  1  0  0  0
 33 34  1  0  0  0
 25 26  1  0  0  0
 26 27  1  0  0  0
  4  5  1  0  0  0
  5  6  2  0  0  0
 11 12  2  0  0  0
 12 13  1  0  0  0
 13 14  2  0  0  0
 14 15  1  0  0  0
 15  7  2  0  0  0
 14 10  1  0  0  0
  6  1  1  0  0  0
 42 37  1  0  0  0
 27 22  1  0  0  0
 34 32  1  0  0  0
 35 36  1  0  0  0
 20 21  1  0  0  0
 28 31  1  0  0  0
M  END
> <minimizedAffinity>
-9.32632

> <CNNscore>
0.3320188522

> <CNNaffinity>
6.8635034561

> <CNN_VS>
2.2788126469

> <CNNaffinity_variance>
0.1146293506

$$$$
[H]c1nc([H])c(N([H])c2c([H])c(-c3c([H])c([H])c4c([H])c(C#N)c([H])nn34)nc([H])c2C(=O)N([H])[C@]2([H])C([H])([H])C([H])([H])[C@@]([H])(N([H])C(=O)C3([H])C([H])([H])C3([H])[H])C([H])([H])C2([H])[H])c([H])c1[H]


 42 47  0  0  0  0  0  0  0  0999 V2000
    3.3620    1.9281   16.8931 C   0  0  0  0  0  0  0  0  0  0  0  0
    3.8091    3.2084   16.7571 C   0  0  0  0  0  0  0  0  0  0  0  0
    3.9130    3.9283   15.5701 C   0  0  0  0  0  0  0  0  0  0  0  0
    3.5136    3.2571   14.4099 C   0  0  0  0  0  0  0  0  0  0  0  0
    3.0533    1.9380   14.5349 C   0  0  0  0  0  0  0  0  0  0  0  0
    2.9886    1.3264   15.7204 N   0  0  0  0  0  0  0  0  0  0  0  0
    4.3431    1.7290   22.0014 C   0  0  0  0  0  0  0  0  0  0  0  0
    4.6296    2.7138   21.0919 C   0  0  0  0  0  0  0  0  0  0  0  0
    4.2706    2.5353   19.8192 N   0  0  0  0  0  0  0  0  0  0  0  0
    3.6479    1.4572   19.3710 N   0  0  0  0  0  0  0  0  0  0  0  0
    3.2497    1.1763   18.1358 C   0  0  0  0  0  0  0  0  0  0  0  0
    2.6495   -0.0876   18.2101 C   0  0  0  0  0  0  0  0  0  0  0  0
    2.7115   -0.5242   19.5099 C   0  0  0  0  0  0  0  0  0  0  0  0
    3.3532    0.4762   20.2387 C   0  0  0  0  0  0  0  0  0  0  0  0
    3.6945    0.5942   21.5654 C   0  0  0  0  0  0  0  0  0  0  0  0
    5.0329    2.0424   24.4775 N   0  0  0  0  0  0  0  0  0  0  0  0
    4.7271    1.9046   23.3681 C   0  0  0  0  0  0  0  0  0  0  0  0
    3.4760    3.9073   13.1264 C   0  0  0  0  0  0  0  0  0  0  0  0
    4.5727    4.1732   12.5224 O   0  0  0  0  0  0  0  0  0  0  0  0
    2.2870    4.2787   12.4710 N   0  0  0  0  0  0  0  0  0  0  0  0
    1.3723    4.0769   12.9139 H   0  0  0  0  0  0  0  0  0  0  0  0
    2.3860    4.9359   11.1767 C   0  0  0  0  0  0  0  0  0  0  0  0
    1.2023    4.4271   10.3481 C   0  0  0  0  0  0  0  0  0  0  0  0
    1.1276    5.2330    9.0563 C   0  0  0  0  0  0  0  0  0  0  0  0
    0.5970    6.6128    9.4731 C   0  0  0  0  0  0  0  0  0  0  0  0
    0.9821    6.9414   10.8736 C   0  0  0  0  0  0  0  0  0  0  0  0
    2.3879    6.4168   11.2108 C   0  0  0  0  0  0  0  0  0  0  0  0
    1.1760    7.5783    8.5504 N   0  0  0  0  0  0  0  0  0  0  0  0
    0.3870    8.1015    7.5051 C   0  0  0  0  0  0  0  0  0  0  0  0
   -0.8225    7.7232    7.3693 O   0  0  0  0  0  0  0  0  0  0  0  0
    2.1574    7.8864    8.6559 H   0  0  0  0  0  0  0  0  0  0  0  0
    0.9442    9.0860    6.5600 C   0  0  0  0  0  0  0  0  0  0  0  0
    1.5569   10.3216    7.0512 C   0  0  0  0  0  0  0  0  0  0  0  0
    0.1460   10.4052    6.5688 C   0  0  0  0  0  0  0  0  0  0  0  0
    4.5082    5.1904   15.5692 N   0  0  0  0  0  0  0  0  0  0  0  0
    4.8535    5.6186   14.6832 H   0  0  0  0  0  0  0  0  0  0  0  0
    4.7421    5.9534   16.7315 C   0  0  0  0  0  0  0  0  0  0  0  0
    3.7855    6.7719   17.3462 C   0  0  0  0  0  0  0  0  0  0  0  0
    4.0719    7.4934   18.4762 C   0  0  0  0  0  0  0  0  0  0  0  0
    5.3313    7.4126   19.0214 C   0  0  0  0  0  0  0  0  0  0  0  0
    6.2734    6.6381   18.4570 N   0  0  0  0  0  0  0  0  0  0  0  0
    5.9901    5.9375   17.3584 C   0  0  0  0  0  0  0  0  0  0  0  0
 16 17  3  0  0  0
 17  7  1  0  0  0
  7  8  1  0  0  0
  8  9  2  0  0  0
  9 10  1  0  0  0
 10 11  1  0  0  0
 11  1  1  0  0  0
  1  2  2  0  0  0
  2  3  1  0  0  0
  3 35  1  0  0  0
 35 37  1  0  0  0
 37 38  2  0  0  0
 38 39  1  0  0  0
 39 40  2  0  0  0
 40 41  1  0  0  0
 41 42  2  0  0  0
  3  4  2  0  0  0
  4 18  1  0  0  0
 18 19  2  0  0  0
 18 20  1  0  0  0
 20 22  1  0  0  0
 22 23  1  0  0  0
 23 24  1  0  0  0
 24 25  1  0  0  0
 25 28  1  0  0  0
 28 29  1  0  0  0
 29 30  2  0  0  0
 29 32  1  0  0  0
 32 33  1  0  0  0
 33 34  1  0  0  0
 25 26  1  0  0  0
 26 27  1  0  0  0
  4  5  1  0  0  0
  5  6  2  0  0  0
 11 12  2  0  0  0
 12 13  1  0  0  0
 13 14  2  0  0  0
 14 15  1  0  0  0
 15  7  2  0  0  0
 14 10  1  0  0  0
  6  1  1  0  0  0
 42 37  1  0  0  0
 27 22  1  0  0  0
 34 32  1  0  0  0
 35 36  1  0  0  0
 20 21  1  0  0  0
 28 31  1  0  0  0
M  END
> <minimizedAffinity>
-8.67266

> <CNNscore>
0.3188090920

> <CNNaffinity>
6.7990760803

> <CNN_VS>
2.1676073074

> <CNNaffinity_variance>
0.1473574489

$$$$
[H]c1nc([H])c(N([H])c2c([H])c(-c3c([H])c([H])c4c([H])c(C#N)c([H])nn34)nc([H])c2C(=O)N([H])[C@]2([H])C([H])([H])C([H])([H])[C@@]([H])(N([H])C(=O)C3([H])C([H])([H])C3([H])[H])C([H])([H])C2([H])[H])c([H])c1[H]


 42 47  0  0  0  0  0  0  0  0999 V2000
    5.7334    6.5924   18.3889 C   0  0  0  0  0  0  0  0  0  0  0  0
    5.8311    5.2368   18.2879 C   0  0  0  0  0  0  0  0  0  0  0  0
    4.9711    4.3937   17.5898 C   0  0  0  0  0  0  0  0  0  0  0  0
    3.9057    5.0152   16.9305 C   0  0  0  0  0  0  0  0  0  0  0  0
    3.7917    6.4098   17.0279 C   0  0  0  0  0  0  0  0  0  0  0  0
    4.6682    7.1390   17.7232 N   0  0  0  0  0  0  0  0  0  0  0  0
    7.7639    7.9705   22.9797 C   0  0  0  0  0  0  0  0  0  0  0  0
    6.8615    6.9827   22.6819 C   0  0  0  0  0  0  0  0  0  0  0  0
    6.4886    6.8165   21.4115 N   0  0  0  0  0  0  0  0  0  0  0  0
    6.9383    7.5512   20.4070 N   0  0  0  0  0  0  0  0  0  0  0  0
    6.6358    7.4749   19.1164 C   0  0  0  0  0  0  0  0  0  0  0  0
    7.3855    8.4807   18.4921 C   0  0  0  0  0  0  0  0  0  0  0  0
    8.1222    9.1332   19.4488 C   0  0  0  0  0  0  0  0  0  0  0  0
    7.8240    8.5257   20.6678 C   0  0  0  0  0  0  0  0  0  0  0  0
    8.2513    8.7521   21.9549 C   0  0  0  0  0  0  0  0  0  0  0  0
    8.4951    8.3269   25.4380 N   0  0  0  0  0  0  0  0  0  0  0  0
    8.1683    8.1635   24.3382 C   0  0  0  0  0  0  0  0  0  0  0  0
    2.9939    4.2815   16.0926 C   0  0  0  0  0  0  0  0  0  0  0  0
    2.0488    3.6062   16.6301 O   0  0  0  0  0  0  0  0  0  0  0  0
    3.0696    4.2559   14.6873 N   0  0  0  0  0  0  0  0  0  0  0  0
    3.8110    4.7938   14.2033 H   0  0  0  0  0  0  0  0  0  0  0  0
    2.0883    3.4694   13.9554 C   0  0  0  0  0  0  0  0  0  0  0  0
    1.2974    4.4635   13.0992 C   0  0  0  0  0  0  0  0  0  0  0  0
    0.3938    3.6822   12.1522 C   0  0  0  0  0  0  0  0  0  0  0  0
    1.3356    3.0952   11.0903 C   0  0  0  0  0  0  0  0  0  0  0  0
    2.6983    2.8618   11.6438 C   0  0  0  0  0  0  0  0  0  0  0  0
    2.6409    2.3888   13.1060 C   0  0  0  0  0  0  0  0  0  0  0  0
    0.7440    1.8374   10.6578 N   0  0  0  0  0  0  0  0  0  0  0  0
    0.8415    1.4516    9.3049 C   0  0  0  0  0  0  0  0  0  0  0  0
    1.4386    2.2059    8.4689 O   0  0  0  0  0  0  0  0  0  0  0  0
    0.2570    1.2235   11.3325 H   0  0  0  0  0  0  0  0  0  0  0  0
    0.2584    0.1803    8.8395 C   0  0  0  0  0  0  0  0  0  0  0  0
    0.0011   -0.9079    9.7845 C   0  0  0  0  0  0  0  0  0  0  0  0
    1.2528   -0.9903    8.9742 C   0  0  0  0  0  0  0  0  0  0  0  0
    5.1252    3.0096   17.6798 N   0  0  0  0  0  0  0  0  0  0  0  0
    5.6036    2.4741   16.9236 H   0  0  0  0  0  0  0  0  0  0  0  0
    4.6169    2.2262   18.7360 C   0  0  0  0  0  0  0  0  0  0  0  0
    4.9356    2.4171   20.0869 C   0  0  0  0  0  0  0  0  0  0  0  0
    4.4106    1.6208   21.0718 C   0  0  0  0  0  0  0  0  0  0  0  0
    3.5486    0.6075   20.7256 C   0  0  0  0  0  0  0  0  0  0  0  0
    3.2221    0.3957   19.4394 N   0  0  0  0  0  0  0  0  0  0  0  0
    3.7345    1.1730   18.4849 C   0  0  0  0  0  0  0  0  0  0  0  0
 16 17  3  0  0  0
 17  7  1  0  0  0
  7  8  1  0  0  0
  8  9  2  0  0  0
  9 10  1  0  0  0
 10 11  1  0  0  0
 11  1  1  0  0  0
  1  2  2  0  0  0
  2  3  1  0  0  0
  3 35  1  0  0  0
 35 37  1  0  0  0
 37 38  2  0  0  0
 38 39  1  0  0  0
 39 40  2  0  0  0
 40 41  1  0  0  0
 41 42  2  0  0  0
  3  4  2  0  0  0
  4 18  1  0  0  0
 18 19  2  0  0  0
 18 20  1  0  0  0
 20 22  1  0  0  0
 22 23  1  0  0  0
 23 24  1  0  0  0
 24 25  1  0  0  0
 25 28  1  0  0  0
 28 29  1  0  0  0
 29 30  2  0  0  0
 29 32  1  0  0  0
 32 33  1  0  0  0
 33 34  1  0  0  0
 25 26  1  0  0  0
 26 27  1  0  0  0
  4  5  1  0  0  0
  5  6  2  0  0  0
 11 12  2  0  0  0
 12 13  1  0  0  0
 13 14  2  0  0  0
 14 15  1  0  0  0
 15  7  2  0  0  0
 14 10  1  0  0  0
  6  1  1  0  0  0
 42 37  1  0  0  0
 27 22  1  0  0  0
 34 32  1  0  0  0
 35 36  1  0  0  0
 20 21  1  0  0  0
 28 31  1  0  0  0
M  END
> <minimizedAffinity>
-7.70728

> <CNNscore>
0.2294099927

> <CNNaffinity>
6.7864580154

> <CNN_VS>
1.5568813086

> <CNNaffinity_variance>
0.2263275385

$$$$
[H]c1nc([H])c(N([H])c2c([H])c(-c3c([H])c([H])c4c([H])c(C#N)c([H])nn34)nc([H])c2C(=O)N([H])[C@]2([H])C([H])([H])C([H])([H])[C@@]([H])(N([H])C(=O)C3([H])C([H])([H])C3([H])[H])C([H])([H])C2([H])[H])c([H])c1[H]


 42 47  0  0  0  0  0  0  0  0999 V2000
    3.8835    2.7216   16.7894 C   0  0  0  0  0  0  0  0  0  0  0  0
    4.1740    3.6935   15.8792 C   0  0  0  0  0  0  0  0  0  0  0  0
    3.7208    3.7601   14.5647 C   0  0  0  0  0  0  0  0  0  0  0  0
    2.8837    2.7184   14.1520 C   0  0  0  0  0  0  0  0  0  0  0  0
    2.5782    1.7101   15.0779 C   0  0  0  0  0  0  0  0  0  0  0  0
    3.0615    1.7301   16.3227 N   0  0  0  0  0  0  0  0  0  0  0  0
    5.8549    5.2686   20.8788 C   0  0  0  0  0  0  0  0  0  0  0  0
    5.5042    5.7386   19.6399 C   0  0  0  0  0  0  0  0  0  0  0  0
    5.0097    4.8811   18.7451 N   0  0  0  0  0  0  0  0  0  0  0  0
    4.8326    3.5905   18.9775 N   0  0  0  0  0  0  0  0  0  0  0  0
    4.3548    2.6543   18.1662 C   0  0  0  0  0  0  0  0  0  0  0  0
    4.3814    1.4640   18.9050 C   0  0  0  0  0  0  0  0  0  0  0  0
    4.8827    1.7365   20.1533 C   0  0  0  0  0  0  0  0  0  0  0  0
    5.1660    3.1013   20.1823 C   0  0  0  0  0  0  0  0  0  0  0  0
    5.6816    3.9291   21.1516 C   0  0  0  0  0  0  0  0  0  0  0  0
    6.8203    6.9099   22.6336 N   0  0  0  0  0  0  0  0  0  0  0  0
    6.3915    6.1757   21.8460 C   0  0  0  0  0  0  0  0  0  0  0  0
    2.2640    2.7059   12.8529 C   0  0  0  0  0  0  0  0  0  0  0  0
    1.3131    3.5247   12.6006 O   0  0  0  0  0  0  0  0  0  0  0  0
    2.6418    1.8356   11.8133 N   0  0  0  0  0  0  0  0  0  0  0  0
    3.4128    1.1601   11.9641 H   0  0  0  0  0  0  0  0  0  0  0  0
    1.9310    1.9204   10.5466 C   0  0  0  0  0  0  0  0  0  0  0  0
    2.9817    1.7071    9.4525 C   0  0  0  0  0  0  0  0  0  0  0  0
    2.2703    1.5759    8.1106 C   0  0  0  0  0  0  0  0  0  0  0  0
    1.6160    0.1865    8.1363 C   0  0  0  0  0  0  0  0  0  0  0  0
    1.2818   -0.2297    9.5266 C   0  0  0  0  0  0  0  0  0  0  0  0
    0.8131    0.9634   10.3763 C   0  0  0  0  0  0  0  0  0  0  0  0
    0.4060    0.2806    7.3326 N   0  0  0  0  0  0  0  0  0  0  0  0
    0.0476   -0.7894    6.4868 C   0  0  0  0  0  0  0  0  0  0  0  0
    0.7853   -1.8270    6.4249 O   0  0  0  0  0  0  0  0  0  0  0  0
   -0.1942    1.1214    7.3784 H   0  0  0  0  0  0  0  0  0  0  0  0
   -1.1756   -0.7254    5.6668 C   0  0  0  0  0  0  0  0  0  0  0  0
   -2.2854    0.1461    6.0569 C   0  0  0  0  0  0  0  0  0  0  0  0
   -2.3968   -1.3001    6.4124 C   0  0  0  0  0  0  0  0  0  0  0  0
    4.2041    4.7511   13.7091 N   0  0  0  0  0  0  0  0  0  0  0  0
    5.0477    4.5841   13.1193 H   0  0  0  0  0  0  0  0  0  0  0  0
    3.6514    6.0441   13.6076 C   0  0  0  0  0  0  0  0  0  0  0  0
    3.6219    6.9761   14.6534 C   0  0  0  0  0  0  0  0  0  0  0  0
    3.0682    8.2203   14.4959 C   0  0  0  0  0  0  0  0  0  0  0  0
    2.5270    8.5637   13.2797 C   0  0  0  0  0  0  0  0  0  0  0  0
    2.5374    7.6939   12.2554 N   0  0  0  0  0  0  0  0  0  0  0  0
    3.0776    6.4850   12.4130 C   0  0  0  0  0  0  0  0  0  0  0  0
 16 17  3  0  0  0
 17  7  1  0  0  0
  7  8  1  0  0  0
  8  9  2  0  0  0
  9 10  1  0  0  0
 10 11  1  0  0  0
 11  1  1  0  0  0
  1  2  2  0  0  0
  2  3  1  0  0  0
  3 35  1  0  0  0
 35 37  1  0  0  0
 37 38  2  0  0  0
 38 39  1  0  0  0
 39 40  2  0  0  0
 40 41  1  0  0  0
 41 42  2  0  0  0
  3  4  2  0  0  0
  4 18  1  0  0  0
 18 19  2  0  0  0
 18 20  1  0  0  0
 20 22  1  0  0  0
 22 23  1  0  0  0
 23 24  1  0  0  0
 24 25  1  0  0  0
 25 28  1  0  0  0
 28 29  1  0  0  0
 29 30  2  0  0  0
 29 32  1  0  0  0
 32 33  1  0  0  0
 33 34  1  0  0  0
 25 26  1  0  0  0
 26 27  1  0  0  0
  4  5  1  0  0  0
  5  6  2  0  0  0
 11 12  2  0  0  0
 12 13  1  0  0  0
 13 14  2  0  0  0
 14 15  1  0  0  0
 15  7  2  0  0  0
 14 10  1  0  0  0
  6  1  1  0  0  0
 42 37  1  0  0  0
 27 22  1  0  0  0
 34 32  1  0  0  0
 35 36  1  0  0  0
 20 21  1  0  0  0
 28 31  1  0  0  0
M  END
> <minimizedAffinity>
-7.49355

> <CNNscore>
0.1579950452

> <CNNaffinity>
6.6832323074

> <CNN_VS>
1.0559176207

> <CNNaffinity_variance>
0.7549062371

$$$$
[H]c1nc([H])c(N([H])c2c([H])c(-c3c([H])c([H])c4c([H])c(C#N)c([H])nn34)nc([H])c2C(=O)N([H])[C@]2([H])C([H])([H])C([H])([H])[C@@]([H])(N([H])C(=O)C3([H])C([H])([H])C3([H])[H])C([H])([H])C2([H])[H])c([H])c1[H]


 42 47  0  0  0  0  0  0  0  0999 V2000
    3.8697    2.8700   17.1154 C   0  0  0  0  0  0  0  0  0  0  0  0
    4.1730    3.8296   16.1963 C   0  0  0  0  0  0  0  0  0  0  0  0
    3.6589    3.9342   14.9069 C   0  0  0  0  0  0  0  0  0  0  0  0
    2.7394    2.9490   14.5324 C   0  0  0  0  0  0  0  0  0  0  0  0
    2.4197    1.9539   15.4678 C   0  0  0  0  0  0  0  0  0  0  0  0
    2.9656    1.9344   16.6864 N   0  0  0  0  0  0  0  0  0  0  0  0
    6.0328    5.2983   21.1799 C   0  0  0  0  0  0  0  0  0  0  0  0
    5.6248    5.8039   19.9730 C   0  0  0  0  0  0  0  0  0  0  0  0
    5.0881    4.9725   19.0779 N   0  0  0  0  0  0  0  0  0  0  0  0
    4.9210    3.6756   19.2808 N   0  0  0  0  0  0  0  0  0  0  0  0
    4.4049    2.7630   18.4660 C   0  0  0  0  0  0  0  0  0  0  0  0
    4.4651    1.5519   19.1680 C   0  0  0  0  0  0  0  0  0  0  0  0
    5.0247    1.7883   20.3987 C   0  0  0  0  0  0  0  0  0  0  0  0
    5.3102    3.1519   20.4540 C   0  0  0  0  0  0  0  0  0  0  0  0
    5.8714    3.9514   21.4216 C   0  0  0  0  0  0  0  0  0  0  0  0
    7.0813    6.8941   22.9290 N   0  0  0  0  0  0  0  0  0  0  0  0
    6.6150    6.1773   22.1468 C   0  0  0  0  0  0  0  0  0  0  0  0
    2.0553    2.9848   13.2666 C   0  0  0  0  0  0  0  0  0  0  0  0
    2.3326    2.1087   12.3756 O   0  0  0  0  0  0  0  0  0  0  0  0
    1.0759    3.9387   12.9322 N   0  0  0  0  0  0  0  0  0  0  0  0
    0.8087    4.6636   13.6226 H   0  0  0  0  0  0  0  0  0  0  0  0
    0.4622    3.8686   11.6148 C   0  0  0  0  0  0  0  0  0  0  0  0
   -0.9388    4.4697   11.7641 C   0  0  0  0  0  0  0  0  0  0  0  0
   -1.5573    4.6179   10.3787 C   0  0  0  0  0  0  0  0  0  0  0  0
   -0.8195    5.8003    9.7331 C   0  0  0  0  0  0  0  0  0  0  0  0
    0.5657    5.9301   10.2642 C   0  0  0  0  0  0  0  0  0  0  0  0
    1.2005    4.5545   10.5290 C   0  0  0  0  0  0  0  0  0  0  0  0
   -0.7891    5.5412    8.3011 N   0  0  0  0  0  0  0  0  0  0  0  0
   -0.9890    6.6050    7.3971 C   0  0  0  0  0  0  0  0  0  0  0  0
   -1.2012    7.7826    7.8362 O   0  0  0  0  0  0  0  0  0  0  0  0
   -0.6192    4.5869    7.9408 H   0  0  0  0  0  0  0  0  0  0  0  0
   -0.9566    6.3739    5.9417 C   0  0  0  0  0  0  0  0  0  0  0  0
   -1.6658    7.2750    5.0315 C   0  0  0  0  0  0  0  0  0  0  0  0
   -2.3454    5.9944    5.3899 C   0  0  0  0  0  0  0  0  0  0  0  0
    4.1582    4.9005   14.0326 N   0  0  0  0  0  0  0  0  0  0  0  0
    4.9505    4.6829   13.3904 H   0  0  0  0  0  0  0  0  0  0  0  0
    3.6934    6.2304   13.9775 C   0  0  0  0  0  0  0  0  0  0  0  0
    3.0040    6.7829   12.8901 C   0  0  0  0  0  0  0  0  0  0  0  0
    2.5772    8.0857   12.8927 C   0  0  0  0  0  0  0  0  0  0  0  0
    2.8322    8.8720   13.9912 C   0  0  0  0  0  0  0  0  0  0  0  0
    3.4918    8.3746   15.0511 N   0  0  0  0  0  0  0  0  0  0  0  0
    3.9045    7.1067   15.0444 C   0  0  0  0  0  0  0  0  0  0  0  0
 16 17  3  0  0  0
 17  7  1  0  0  0
  7  8  1  0  0  0
  8  9  2  0  0  0
  9 10  1  0  0  0
 10 11  1  0  0  0
 11  1  1  0  0  0
  1  2  2  0  0  0
  2  3  1  0  0  0
  3 35  1  0  0  0
 35 37  1  0  0  0
 37 38  2  0  0  0
 38 39  1  0  0  0
 39 40  2  0  0  0
 40 41  1  0  0  0
 41 42  2  0  0  0
  3  4  2  0  0  0
  4 18  1  0  0  0
 18 19  2  0  0  0
 18 20  1  0  0  0
 20 22  1  0  0  0
 22 23  1  0  0  0
 23 24  1  0  0  0
 24 25  1  0  0  0
 25 28  1  0  0  0
 28 29  1  0  0  0
 29 30  2  0  0  0
 29 32  1  0  0  0
 32 33  1  0  0  0
 33 34  1  0  0  0
 25 26  1  0  0  0
 26 27  1  0  0  0
  4  5  1  0  0  0
  5  6  2  0  0  0
 11 12  2  0  0  0
 12 13  1  0  0  0
 13 14  2  0  0  0
 14 15  1  0  0  0
 15  7  2  0  0  0
 14 10  1  0  0  0
  6  1  1  0  0  0
 42 37  1  0  0  0
 27 22  1  0  0  0
 34 32  1  0  0  0
 35 36  1  0  0  0
 20 21  1  0  0  0
 28 31  1  0  0  0
M  END
> <minimizedAffinity>
-7.75978

> <CNNscore>
0.1348444968

> <CNNaffinity>
6.4950561523

> <CNN_VS>
0.8758226037

> <CNNaffinity_variance>
0.4120283723

$$$$
[H]c1nc([H])c(N([H])c2c([H])c(-c3c([H])c([H])c4c([H])c(C#N)c([H])nn34)nc([H])c2C(=O)N([H])[C@]2([H])C([H])([H])C([H])([H])[C@@]([H])(N([H])C(=O)C3([H])C([H])([H])C3([H])[H])C([H])([H])C2([H])[H])c([H])c1[H]


 42 47  0  0  0  0  0  0  0  0999 V2000
    5.0954    5.8028   19.4187 C   0  0  0  0  0  0  0  0  0  0  0  0
    4.5966    6.8017   18.6371 C   0  0  0  0  0  0  0  0  0  0  0  0
    3.8472    6.6482   17.4740 C   0  0  0  0  0  0  0  0  0  0  0  0
    3.5880    5.3310   17.0819 C   0  0  0  0  0  0  0  0  0  0  0  0
    4.0973    4.2929   17.8759 C   0  0  0  0  0  0  0  0  0  0  0  0
    4.8086    4.5373   18.9794 N   0  0  0  0  0  0  0  0  0  0  0  0
    9.5525    7.3820   21.5950 C   0  0  0  0  0  0  0  0  0  0  0  0
    9.1606    7.4100   20.2818 C   0  0  0  0  0  0  0  0  0  0  0  0
    7.9512    6.9447   19.9636 N   0  0  0  0  0  0  0  0  0  0  0  0
    7.0938    6.4520   20.8429 N   0  0  0  0  0  0  0  0  0  0  0  0
    5.8761    5.9637   20.6380 C   0  0  0  0  0  0  0  0  0  0  0  0
    5.4063    5.5772   21.9002 C   0  0  0  0  0  0  0  0  0  0  0  0
    6.3770    5.8534   22.8304 C   0  0  0  0  0  0  0  0  0  0  0  0
    7.4494    6.4126   22.1367 C   0  0  0  0  0  0  0  0  0  0  0  0
    8.6814    6.8754   22.5348 C   0  0  0  0  0  0  0  0  0  0  0  0
   11.9007    8.2696   22.2303 N   0  0  0  0  0  0  0  0  0  0  0  0
   10.8486    7.8726   21.9498 C   0  0  0  0  0  0  0  0  0  0  0  0
    2.7471    5.0211   15.9556 C   0  0  0  0  0  0  0  0  0  0  0  0
    1.5609    5.4992   15.9045 O   0  0  0  0  0  0  0  0  0  0  0  0
    3.1491    4.2101   14.8777 N   0  0  0  0  0  0  0  0  0  0  0  0
    4.1032    3.8065   14.8670 H   0  0  0  0  0  0  0  0  0  0  0  0
    2.2004    3.9690   13.8012 C   0  0  0  0  0  0  0  0  0  0  0  0
    2.9729    4.1828   12.4958 C   0  0  0  0  0  0  0  0  0  0  0  0
    2.0943    3.7430   11.3303 C   0  0  0  0  0  0  0  0  0  0  0  0
    2.0816    2.2084   11.3926 C   0  0  0  0  0  0  0  0  0  0  0  0
    2.2653    1.7210   12.7878 C   0  0  0  0  0  0  0  0  0  0  0  0
    1.5579    2.6343   13.8030 C   0  0  0  0  0  0  0  0  0  0  0  0
    0.7904    1.7807   10.8742 N   0  0  0  0  0  0  0  0  0  0  0  0
    0.7200    0.6608   10.0200 C   0  0  0  0  0  0  0  0  0  0  0  0
    1.7836    0.0348    9.7015 O   0  0  0  0  0  0  0  0  0  0  0  0
   -0.0746    2.2870   11.1286 H   0  0  0  0  0  0  0  0  0  0  0  0
   -0.5743    0.2003    9.4855 C   0  0  0  0  0  0  0  0  0  0  0  0
   -0.6299   -0.5866    8.2522 C   0  0  0  0  0  0  0  0  0  0  0  0
   -0.9129    0.8756    8.1413 C   0  0  0  0  0  0  0  0  0  0  0  0
    3.5107    7.7652   16.7081 N   0  0  0  0  0  0  0  0  0  0  0  0
    2.8544    7.6832   15.9018 H   0  0  0  0  0  0  0  0  0  0  0  0
    4.0507    9.0518   16.9096 C   0  0  0  0  0  0  0  0  0  0  0  0
    3.4999   10.0160   17.7640 C   0  0  0  0  0  0  0  0  0  0  0  0
    4.0695   11.2535   17.9182 C   0  0  0  0  0  0  0  0  0  0  0  0
    5.2116   11.5576   17.2160 C   0  0  0  0  0  0  0  0  0  0  0  0
    5.7659   10.6568   16.3870 N   0  0  0  0  0  0  0  0  0  0  0  0
    5.2089    9.4542   16.2407 C   0  0  0  0  0  0  0  0  0  0  0  0
 16 17  3  0  0  0
 17  7  1  0  0  0
  7  8  1  0  0  0
  8  9  2  0  0  0
  9 10  1  0  0  0
 10 11  1  0  0  0
 11  1  1  0  0  0
  1  2  2  0  0  0
  2  3  1  0  0  0
  3 35  1  0  0  0
 35 37  1  0  0  0
 37 38  2  0  0  0
 38 39  1  0  0  0
 39 40  2  0  0  0
 40 41  1  0  0  0
 41 42  2  0  0  0
  3  4  2  0  0  0
  4 18  1  0  0  0
 18 19  2  0  0  0
 18 20  1  0  0  0
 20 22  1  0  0  0
 22 23  1  0  0  0
 23 24  1  0  0  0
 24 25  1  0  0  0
 25 28  1  0  0  0
 28 29  1  0  0  0
 29 30  2  0  0  0
 29 32  1  0  0  0
 32 33  1  0  0  0
 33 34  1  0  0  0
 25 26  1  0  0  0
 26 27  1  0  0  0
  4  5  1  0  0  0
  5  6  2  0  0  0
 11 12  2  0  0  0
 12 13  1  0  0  0
 13 14  2  0  0  0
 14 15  1  0  0  0
 15  7  2  0  0  0
 14 10  1  0  0  0
  6  1  1  0  0  0
 42 37  1  0  0  0
 27 22  1  0  0  0
 34 32  1  0  0  0
 35 36  1  0  0  0
 20 21  1  0  0  0
 28 31  1  0  0  0
M  END
> <minimizedAffinity>
-7.25617

> <CNNscore>
0.1221075654

> <CNNaffinity>
6.1457757950

> <CNN_VS>
0.7504457235

> <CNNaffinity_variance>
0.3544222713

$$$$
[H]c1nc([H])c(N([H])c2c([H])c(-c3c([H])c([H])c4c([H])c(C#N)c([H])nn34)nc([H])c2C(=O)N([H])[C@]2([H])C([H])([H])C([H])([H])[C@@]([H])(N([H])C(=O)C3([H])C([H])([H])C3([H])[H])C([H])([H])C2([H])[H])c([H])c1[H]


 42 47  0  0  0  0  0  0  0  0999 V2000
    4.0142    2.4808   17.4251 C   0  0  0  0  0  0  0  0  0  0  0  0
    4.2017    3.4291   16.4643 C   0  0  0  0  0  0  0  0  0  0  0  0
    3.7010    3.4035   15.1657 C   0  0  0  0  0  0  0  0  0  0  0  0
    2.9295    2.2866   14.8287 C   0  0  0  0  0  0  0  0  0  0  0  0
    2.7302    1.3016   15.8073 C   0  0  0  0  0  0  0  0  0  0  0  0
    3.2522    1.4126   17.0315 N   0  0  0  0  0  0  0  0  0  0  0  0
    6.1015    5.3125   21.2619 C   0  0  0  0  0  0  0  0  0  0  0  0
    5.7016    5.6956   20.0080 C   0  0  0  0  0  0  0  0  0  0  0  0
    5.1851    4.7759   19.1908 N   0  0  0  0  0  0  0  0  0  0  0  0
    5.0309    3.5022   19.5147 N   0  0  0  0  0  0  0  0  0  0  0  0
    4.5350    2.5097   18.7853 C   0  0  0  0  0  0  0  0  0  0  0  0
    4.6012    1.3718   19.6001 C   0  0  0  0  0  0  0  0  0  0  0  0
    5.1437    1.7315   20.8085 C   0  0  0  0  0  0  0  0  0  0  0  0
    5.4126    3.0977   20.7365 C   0  0  0  0  0  0  0  0  0  0  0  0
    5.9531    3.9928   21.6292 C   0  0  0  0  0  0  0  0  0  0  0  0
    7.1141    7.0725   22.8689 N   0  0  0  0  0  0  0  0  0  0  0  0
    6.6621    6.2869   22.1465 C   0  0  0  0  0  0  0  0  0  0  0  0
    2.2693    2.1709   13.5550 C   0  0  0  0  0  0  0  0  0  0  0  0
    0.9904    2.1497   13.5079 O   0  0  0  0  0  0  0  0  0  0  0  0
    2.9490    2.0794   12.3259 N   0  0  0  0  0  0  0  0  0  0  0  0
    3.9847    2.1015   12.3093 H   0  0  0  0  0  0  0  0  0  0  0  0
    2.1631    1.9609   11.1072 C   0  0  0  0  0  0  0  0  0  0  0  0
    2.2291    3.3294   10.4220 C   0  0  0  0  0  0  0  0  0  0  0  0
    1.6010    3.2138    9.0379 C   0  0  0  0  0  0  0  0  0  0  0  0
    2.6235    2.4365    8.1957 C   0  0  0  0  0  0  0  0  0  0  0  0
    3.4350    1.5172    9.0408 C   0  0  0  0  0  0  0  0  0  0  0  0
    2.5943    0.8979   10.1699 C   0  0  0  0  0  0  0  0  0  0  0  0
    1.8639    1.6793    7.2116 N   0  0  0  0  0  0  0  0  0  0  0  0
    1.8217    2.1230    5.8736 C   0  0  0  0  0  0  0  0  0  0  0  0
    2.4409    3.1842    5.5346 O   0  0  0  0  0  0  0  0  0  0  0  0
    1.3585    0.8189    7.4829 H   0  0  0  0  0  0  0  0  0  0  0  0
    1.0666    1.3728    4.8539 C   0  0  0  0  0  0  0  0  0  0  0  0
    0.5886    2.0424    3.6429 C   0  0  0  0  0  0  0  0  0  0  0  0
   -0.3943    1.8552    4.7516 C   0  0  0  0  0  0  0  0  0  0  0  0
    4.0811    4.3871   14.2516 N   0  0  0  0  0  0  0  0  0  0  0  0
    4.9063    4.2490   13.6291 H   0  0  0  0  0  0  0  0  0  0  0  0
    3.4430    5.6382   14.1279 C   0  0  0  0  0  0  0  0  0  0  0  0
    3.8275    6.7941   14.8199 C   0  0  0  0  0  0  0  0  0  0  0  0
    3.1665    7.9845   14.6601 C   0  0  0  0  0  0  0  0  0  0  0  0
    2.0972    8.0466   13.7982 C   0  0  0  0  0  0  0  0  0  0  0  0
    1.7009    6.9567   13.1193 N   0  0  0  0  0  0  0  0  0  0  0  0
    2.3473    5.8013   13.2773 C   0  0  0  0  0  0  0  0  0  0  0  0
 16 17  3  0  0  0
 17  7  1  0  0  0
  7  8  1  0  0  0
  8  9  2  0  0  0
  9 10  1  0  0  0
 10 11  1  0  0  0
 11  1  1  0  0  0
  1  2  2  0  0  0
  2  3  1  0  0  0
  3 35  1  0  0  0
 35 37  1  0  0  0
 37 38  2  0  0  0
 38 39  1  0  0  0
 39 40  2  0  0  0
 40 41  1  0  0  0
 41 42  2  0  0  0
  3  4  2  0  0  0
  4 18  1  0  0  0
 18 19  2  0  0  0
 18 20  1  0  0  0
 20 22  1  0  0  0
 22 23  1  0  0  0
 23 24  1  0  0  0
 24 25  1  0  0  0
 25 28  1  0  0  0
 28 29  1  0  0  0
 29 30  2  0  0  0
 29 32  1  0  0  0
 32 33  1  0  0  0
 33 34  1  0  0  0
 25 26  1  0  0  0
 26 27  1  0  0  0
  4  5  1  0  0  0
  5  6  2  0  0  0
 11 12  2  0  0  0
 12 13  1  0  0  0
 13 14  2  0  0  0
 14 15  1  0  0  0
 15  7  2  0  0  0
 14 10  1  0  0  0
  6  1  1  0  0  0
 42 37  1  0  0  0
 27 22  1  0  0  0
 34 32  1  0  0  0
 35 36  1  0  0  0
 20 21  1  0  0  0
 28 31  1  0  0  0
M  END
> <minimizedAffinity>
-7.42471

> <CNNscore>
0.1107567996

> <CNNaffinity>
6.5406050682

> <CNN_VS>
0.7244164944

> <CNNaffinity_variance>
0.5514980555

$$$$
[H]c1nc([H])c(N([H])c2c([H])c(-c3c([H])c([H])c4c([H])c(C#N)c([H])nn34)nc([H])c2C(=O)N([H])[C@]2([H])C([H])([H])C([H])([H])[C@@]([H])(N([H])C(=O)C3([H])C([H])([H])C3([H])[H])C([H])([H])C2([H])[H])c([H])c1[H]


 42 47  0  0  0  0  0  0  0  0999 V2000
    0.4092    6.4160   11.6214 C   0  0  0  0  0  0  0  0  0  0  0  0
    1.4781    5.6973   12.0669 C   0  0  0  0  0  0  0  0  0  0  0  0
    2.5019    6.1584   12.8897 C   0  0  0  0  0  0  0  0  0  0  0  0
    2.4096    7.4948   13.2918 C   0  0  0  0  0  0  0  0  0  0  0  0
    1.3158    8.2470   12.8388 C   0  0  0  0  0  0  0  0  0  0  0  0
    0.3785    7.7173   12.0485 N   0  0  0  0  0  0  0  0  0  0  0  0
   -1.9563    6.6709    6.9915 C   0  0  0  0  0  0  0  0  0  0  0  0
   -0.8592    7.3505    7.4534 C   0  0  0  0  0  0  0  0  0  0  0  0
   -0.4309    7.1093    8.6939 N   0  0  0  0  0  0  0  0  0  0  0  0
   -1.0022    6.2461    9.5184 N   0  0  0  0  0  0  0  0  0  0  0  0
   -0.6641    5.9322   10.7635 C   0  0  0  0  0  0  0  0  0  0  0  0
   -1.5958    4.9710   11.1774 C   0  0  0  0  0  0  0  0  0  0  0  0
   -2.4725    4.7410   10.1468 C   0  0  0  0  0  0  0  0  0  0  0  0
   -2.0780    5.5649    9.0935 C   0  0  0  0  0  0  0  0  0  0  0  0
   -2.5729    5.7645    7.8263 C   0  0  0  0  0  0  0  0  0  0  0  0
   -2.8108    7.1218    4.5890 N   0  0  0  0  0  0  0  0  0  0  0  0
   -2.4296    6.9236    5.6654 C   0  0  0  0  0  0  0  0  0  0  0  0
    3.3431    8.0796   14.2182 C   0  0  0  0  0  0  0  0  0  0  0  0
    4.5728    8.1977   13.8834 O   0  0  0  0  0  0  0  0  0  0  0  0
    2.9888    8.5446   15.4986 N   0  0  0  0  0  0  0  0  0  0  0  0
    2.0039    8.4802   15.8136 H   0  0  0  0  0  0  0  0  0  0  0  0
    4.0301    9.1110   16.3422 C   0  0  0  0  0  0  0  0  0  0  0  0
    3.4177   10.3504   17.0021 C   0  0  0  0  0  0  0  0  0  0  0  0
    4.3864   10.8712   18.0577 C   0  0  0  0  0  0  0  0  0  0  0  0
    4.2936    9.8692   19.2181 C   0  0  0  0  0  0  0  0  0  0  0  0
    3.9301    8.5092   18.7323 C   0  0  0  0  0  0  0  0  0  0  0  0
    4.5816    8.2018   17.3735 C   0  0  0  0  0  0  0  0  0  0  0  0
    5.6028    9.8452   19.8539 N   0  0  0  0  0  0  0  0  0  0  0  0
    5.7188    9.4141   21.1916 C   0  0  0  0  0  0  0  0  0  0  0  0
    4.6803    9.0553   21.8375 O   0  0  0  0  0  0  0  0  0  0  0  0
    6.4476   10.1372   19.3340 H   0  0  0  0  0  0  0  0  0  0  0  0
    7.0324    9.3723   21.8591 C   0  0  0  0  0  0  0  0  0  0  0  0
    7.1210    9.3141   23.3193 C   0  0  0  0  0  0  0  0  0  0  0  0
    7.3006   10.6508   22.6782 C   0  0  0  0  0  0  0  0  0  0  0  0
    3.6000    5.3413   13.1621 N   0  0  0  0  0  0  0  0  0  0  0  0
    4.4996    5.4656   12.6496 H   0  0  0  0  0  0  0  0  0  0  0  0
    3.5796    4.2728   14.0816 C   0  0  0  0  0  0  0  0  0  0  0  0
    3.1148    2.9844   13.7870 C   0  0  0  0  0  0  0  0  0  0  0  0
    3.1177    1.9841   14.7245 C   0  0  0  0  0  0  0  0  0  0  0  0
    3.5889    2.2515   15.9880 C   0  0  0  0  0  0  0  0  0  0  0  0
    4.0413    3.4765   16.3051 N   0  0  0  0  0  0  0  0  0  0  0  0
    4.0373    4.4461   15.3898 C   0  0  0  0  0  0  0  0  0  0  0  0
 16 17  3  0  0  0
 17  7  1  0  0  0
  7  8  1  0  0  0
  8  9  2  0  0  0
  9 10  1  0  0  0
 10 11  1  0  0  0
 11  1  1  0  0  0
  1  2  2  0  0  0
  2  3  1  0  0  0
  3 35  1  0  0  0
 35 37  1  0  0  0
 37 38  2  0  0  0
 38 39  1  0  0  0
 39 40  2  0  0  0
 40 41  1  0  0  0
 41 42  2  0  0  0
  3  4  2  0  0  0
  4 18  1  0  0  0
 18 19  2  0  0  0
 18 20  1  0  0  0
 20 22  1  0  0  0
 22 23  1  0  0  0
 23 24  1  0  0  0
 24 25  1  0  0  0
 25 28  1  0  0  0
 28 29  1  0  0  0
 29 30  2  0  0  0
 29 32  1  0  0  0
 32 33  1  0  0  0
 33 34  1  0  0  0
 25 26  1  0  0  0
 26 27  1  0  0  0
  4  5  1  0  0  0
  5  6  2  0  0  0
 11 12  2  0  0  0
 12 13  1  0  0  0
 13 14  2  0  0  0
 14 15  1  0  0  0
 15  7  2  0  0  0
 14 10  1  0  0  0
  6  1  1  0  0  0
 42 37  1  0  0  0
 27 22  1  0  0  0
 34 32  1  0  0  0
 35 36  1  0  0  0
 20 21  1  0  0  0
 28 31  1  0  0  0
M  END
> <minimizedAffinity>
-7.56828

> <CNNscore>
0.1085253283

> <CNNaffinity>
6.2133617401

> <CNN_VS>
0.6743071079

> <CNNaffinity_variance>
0.1869146377

$$$$
[H]c1nc([H])c(N([H])c2c([H])c(-c3c([H])c([H])c4c([H])c(C#N)c([H])nn34)nc([H])c2C(=O)N([H])[C@]2([H])C([H])([H])C([H])([H])[C@@]([H])(N([H])C(=O)C3([H])C([H])([H])C3([H])[H])C([H])([H])C2([H])[H])c([H])c1[H]


 42 47  0  0  0  0  0  0  0  0999 V2000
    4.1170    6.1601   18.1016 C   0  0  0  0  0  0  0  0  0  0  0  0
    4.3973    7.4793   17.9057 C   0  0  0  0  0  0  0  0  0  0  0  0
    4.3421    8.1679   16.6971 C   0  0  0  0  0  0  0  0  0  0  0  0
    3.9578    7.4169   15.5816 C   0  0  0  0  0  0  0  0  0  0  0  0
    3.6684    6.0571   15.7682 C   0  0  0  0  0  0  0  0  0  0  0  0
    3.7493    5.4807   16.9702 N   0  0  0  0  0  0  0  0  0  0  0  0
    3.9896    1.5638   20.5418 C   0  0  0  0  0  0  0  0  0  0  0  0
    3.9089    1.8476   19.2033 C   0  0  0  0  0  0  0  0  0  0  0  0
    3.9689    3.1223   18.8133 N   0  0  0  0  0  0  0  0  0  0  0  0
    4.1034    4.1438   19.6437 N   0  0  0  0  0  0  0  0  0  0  0  0
    4.1711    5.4407   19.3672 C   0  0  0  0  0  0  0  0  0  0  0  0
    4.3084    6.0844   20.6042 C   0  0  0  0  0  0  0  0  0  0  0  0
    4.3182    5.1324   21.5927 C   0  0  0  0  0  0  0  0  0  0  0  0
    4.1861    3.8967   20.9605 C   0  0  0  0  0  0  0  0  0  0  0  0
    4.1308    2.6062   21.4318 C   0  0  0  0  0  0  0  0  0  0  0  0
    3.8706   -0.9000   21.3298 N   0  0  0  0  0  0  0  0  0  0  0  0
    3.9210    0.2020   20.9745 C   0  0  0  0  0  0  0  0  0  0  0  0
    3.7649    8.0163   14.2873 C   0  0  0  0  0  0  0  0  0  0  0  0
    3.7247    9.2913   14.1832 O   0  0  0  0  0  0  0  0  0  0  0  0
    3.6160    7.2796   13.0973 N   0  0  0  0  0  0  0  0  0  0  0  0
    3.6506    6.2445   13.1267 H   0  0  0  0  0  0  0  0  0  0  0  0
    3.4217    8.0071   11.8523 C   0  0  0  0  0  0  0  0  0  0  0  0
    4.1344    7.1939   10.7672 C   0  0  0  0  0  0  0  0  0  0  0  0
    3.7931    7.7901    9.4063 C   0  0  0  0  0  0  0  0  0  0  0  0
    2.3364    7.3815    9.1419 C   0  0  0  0  0  0  0  0  0  0  0  0
    1.5807    7.2145   10.4143 C   0  0  0  0  0  0  0  0  0  0  0  0
    2.0118    8.2492   11.4673 C   0  0  0  0  0  0  0  0  0  0  0  0
    1.7450    8.4417    8.3388 N   0  0  0  0  0  0  0  0  0  0  0  0
    1.6751    8.2967    6.9378 C   0  0  0  0  0  0  0  0  0  0  0  0
    2.1341    7.2453    6.3826 O   0  0  0  0  0  0  0  0  0  0  0  0
    1.3732    9.2972    8.7852 H   0  0  0  0  0  0  0  0  0  0  0  0
    1.0753    9.3505    6.0997 C   0  0  0  0  0  0  0  0  0  0  0  0
    0.3320   10.4528    6.7128 C   0  0  0  0  0  0  0  0  0  0  0  0
   -0.4653    9.3200    6.1547 C   0  0  0  0  0  0  0  0  0  0  0  0
    4.7795    9.4912   16.6271 N   0  0  0  0  0  0  0  0  0  0  0  0
    5.5384    9.7698   15.9684 H   0  0  0  0  0  0  0  0  0  0  0  0
    4.2938   10.5273   17.4506 C   0  0  0  0  0  0  0  0  0  0  0  0
    2.9385   10.8490   17.6009 C   0  0  0  0  0  0  0  0  0  0  0  0
    2.5253   11.8708   18.4163 C   0  0  0  0  0  0  0  0  0  0  0  0
    3.4652   12.6001   19.1052 C   0  0  0  0  0  0  0  0  0  0  0  0
    4.7737   12.3193   18.9836 N   0  0  0  0  0  0  0  0  0  0  0  0
    5.1710   11.3241   18.1899 C   0  0  0  0  0  0  0  0  0  0  0  0
 16 17  3  0  0  0
 17  7  1  0  0  0
  7  8  1  0  0  0
  8  9  2  0  0  0
  9 10  1  0  0  0
 10 11  1  0  0  0
 11  1  1  0  0  0
  1  2  2  0  0  0
  2  3  1  0  0  0
  3 35  1  0  0  0
 35 37  1  0  0  0
 37 38  2  0  0  0
 38 39  1  0  0  0
 39 40  2  0  0  0
 40 41  1  0  0  0
 41 42  2  0  0  0
  3  4  2  0  0  0
  4 18  1  0  0  0
 18 19  2  0  0  0
 18 20  1  0  0  0
 20 22  1  0  0  0
 22 23  1  0  0  0
 23 24  1  0  0  0
 24 25  1  0  0  0
 25 28  1  0  0  0
 28 29  1  0  0  0
 29 30  2  0  0  0
 29 32  1  0  0  0
 32 33  1  0  0  0
 33 34  1  0  0  0
 25 26  1  0  0  0
 26 27  1  0  0  0
  4  5  1  0  0  0
  5  6  2  0  0  0
 11 12  2  0  0  0
 12 13  1  0  0  0
 13 14  2  0  0  0
 14 15  1  0  0  0
 15  7  2  0  0  0
 14 10  1  0  0  0
  6  1  1  0  0  0
 42 37  1  0  0  0
 27 22  1  0  0  0
 34 32  1  0  0  0
 35 36  1  0  0  0
 20 21  1  0  0  0
 28 31  1  0  0  0
M  END
> <minimizedAffinity>
-8.00858

> <CNNscore>
0.1041087806

> <CNNaffinity>
6.0200190544

> <CNN_VS>
0.6267368197

> <CNNaffinity_variance>
0.5053120852

$$$$
[H]c1c([H])c([H])c(N2C(N3C([H])([H])C([H])([H])C([H])([H])C([H])([H])C3([H])[H])=Nc3c([H])c([H])c([H])c([H])c3C2([H])C([H])([H])C(=O)N([H])C([H])([H])c2c([H])c([H])c([H])c([H])c2[H])c([H])c1[H]


 34 38  0  0  0  0  0  0  0  0999 V2000
    4.4290    2.0917   18.4401 C   0  0  0  0  0  0  0  0  0  0  0  0
    3.9448    1.5517   19.7145 C   0  0  0  0  0  0  0  0  0  0  0  0
    3.4964    0.2589   19.8937 C   0  0  0  0  0  0  0  0  0  0  0  0
    3.1945   -0.1821   21.1792 C   0  0  0  0  0  0  0  0  0  0  0  0
    3.3273    0.6309   22.2783 C   0  0  0  0  0  0  0  0  0  0  0  0
    3.7661    1.9169   22.1136 C   0  0  0  0  0  0  0  0  0  0  0  0
    4.0739    2.3803   20.8165 C   0  0  0  0  0  0  0  0  0  0  0  0
    4.3338    3.7717   20.6601 N   0  0  0  0  0  0  0  0  0  0  0  0
    4.4381    4.2927   19.4719 C   0  0  0  0  0  0  0  0  0  0  0  0
    4.2206    3.4964   18.3177 N   0  0  0  0  0  0  0  0  0  0  0  0
    4.7070    5.6915   19.3857 N   0  0  0  0  0  0  0  0  0  0  0  0
    6.0584    6.1176   19.1799 C   0  0  0  0  0  0  0  0  0  0  0  0
    6.1075    7.3252   18.2250 C   0  0  0  0  0  0  0  0  0  0  0  0
    5.2200    8.3770   18.8517 C   0  0  0  0  0  0  0  0  0  0  0  0
    3.8102    7.9018   18.8044 C   0  0  0  0  0  0  0  0  0  0  0  0
    3.5814    6.5870   19.5042 C   0  0  0  0  0  0  0  0  0  0  0  0
    3.8106    4.0938   17.1046 C   0  0  0  0  0  0  0  0  0  0  0  0
    2.5299    4.5509   16.8887 C   0  0  0  0  0  0  0  0  0  0  0  0
    2.1701    5.1227   15.6919 C   0  0  0  0  0  0  0  0  0  0  0  0
    3.0596    5.2688   14.6539 C   0  0  0  0  0  0  0  0  0  0  0  0
    4.3401    4.8097   14.8747 C   0  0  0  0  0  0  0  0  0  0  0  0
    4.7163    4.2385   16.0577 C   0  0  0  0  0  0  0  0  0  0  0  0
    4.3136    1.2755   17.2226 C   0  0  0  0  0  0  0  0  0  0  0  0
    1.9334    1.2052   17.1951 O   0  0  0  0  0  0  0  0  0  0  0  0
    3.0022    1.3363   16.5440 C   0  0  0  0  0  0  0  0  0  0  0  0
    2.8895    1.5438   15.1371 N   0  0  0  0  0  0  0  0  0  0  0  0
    3.7371    1.6615   14.5293 H   0  0  0  0  0  0  0  0  0  0  0  0
    1.5909    1.5955   14.5135 C   0  0  0  0  0  0  0  0  0  0  0  0
    1.5965    2.3314   13.2277 C   0  0  0  0  0  0  0  0  0  0  0  0
    2.6234    2.1279   12.3411 C   0  0  0  0  0  0  0  0  0  0  0  0
    2.6734    2.7934   11.1177 C   0  0  0  0  0  0  0  0  0  0  0  0
    1.6701    3.6807   10.7814 C   0  0  0  0  0  0  0  0  0  0  0  0
    0.6294    3.8844   11.6846 C   0  0  0  0  0  0  0  0  0  0  0  0
    0.5953    3.2109   12.9026 C   0  0  0  0  0  0  0  0  0  0  0  0
 24 25  2  0  0  0
 25 23  1  0  0  0
 23  1  1  0  0  0
  1  2  1  0  0  0
  2  3  2  0  0  0
  3  4  1  0  0  0
  4  5  2  0  0  0
  5  6  1  0  0  0
  6  7  2  0  0  0
  7  8  1  0  0  0
  8  9  2  0  0  0
  9 11  1  0  0  0
 11 12  1  0  0  0
 12 13  1  0  0  0
 13 14  1  0  0  0
 14 15  1  0  0  0
 15 16  1  0  0  0
  9 10  1  0  0  0
 10 17  1  0  0  0
 17 18  2  0  0  0
 18 19  1  0  0  0
 19 20  2  0  0  0
 20 21  1  0  0  0
 21 22  2  0  0  0
 25 26  1  0  0  0
 26 28  1  0  0  0
 28 29  1  0  0  0
 29 30  2  0  0  0
 30 31  1  0  0  0
 31 32  2  0  0  0
 32 33  1  0  0  0
 33 34  2  0  0  0
 10  1  1  0  0  0
 22 17  1  0  0  0
 34 29  1  0  0  0
  7  2  1  0  0  0
 16 11  1  0  0  0
 26 27  1  0  0  0
M  END
> <minimizedAffinity>
-8.14962

> <CNNscore>
0.5561254025

> <CNNaffinity>
6.9710822105

> <CNN_VS>
3.8767960072

> <CNNaffinity_variance>
0.1924466938

$$$$
[H]c1c([H])c([H])c(N2C(N3C([H])([H])C([H])([H])C([H])([H])C([H])([H])C3([H])[H])=Nc3c([H])c([H])c([H])c([H])c3C2([H])C([H])([H])C(=O)N([H])C([H])([H])c2c([H])c([H])c([H])c([H])c2[H])c([H])c1[H]


 34 38  0  0  0  0  0  0  0  0999 V2000
    1.3692    2.4653    9.2441 C   0  0  0  0  0  0  0  0  0  0  0  0
    0.6667    1.1904    9.4214 C   0  0  0  0  0  0  0  0  0  0  0  0
   -0.0543    0.5531    8.4322 C   0  0  0  0  0  0  0  0  0  0  0  0
   -0.5598   -0.7211    8.6755 C   0  0  0  0  0  0  0  0  0  0  0  0
   -0.3650   -1.3658    9.8726 C   0  0  0  0  0  0  0  0  0  0  0  0
    0.3439   -0.7426   10.8638 C   0  0  0  0  0  0  0  0  0  0  0  0
    0.8609    0.5504   10.6341 C   0  0  0  0  0  0  0  0  0  0  0  0
    1.4166    1.2435   11.7471 N   0  0  0  0  0  0  0  0  0  0  0  0
    1.7371    2.5010   11.6467 C   0  0  0  0  0  0  0  0  0  0  0  0
    1.4684    3.2167   10.4512 N   0  0  0  0  0  0  0  0  0  0  0  0
    2.2966    3.1335   12.7971 N   0  0  0  0  0  0  0  0  0  0  0  0
    1.7991    2.7686   14.0892 C   0  0  0  0  0  0  0  0  0  0  0  0
    2.9460    2.7091   15.1156 C   0  0  0  0  0  0  0  0  0  0  0  0
    3.6034    4.0702   15.0720 C   0  0  0  0  0  0  0  0  0  0  0  0
    4.2717    4.2353   13.7522 C   0  0  0  0  0  0  0  0  0  0  0  0
    3.3436    4.1012   12.5727 C   0  0  0  0  0  0  0  0  0  0  0  0
    1.3062    4.6201   10.4800 C   0  0  0  0  0  0  0  0  0  0  0  0
    2.1312    5.4848    9.7962 C   0  0  0  0  0  0  0  0  0  0  0  0
    1.9419    6.8447    9.8538 C   0  0  0  0  0  0  0  0  0  0  0  0
    0.9288    7.4122   10.5898 C   0  0  0  0  0  0  0  0  0  0  0  0
    0.1059    6.5427   11.2724 C   0  0  0  0  0  0  0  0  0  0  0  0
    0.2784    5.1879   11.2272 C   0  0  0  0  0  0  0  0  0  0  0  0
    1.2017    3.2103    7.9876 C   0  0  0  0  0  0  0  0  0  0  0  0
    2.4939    3.8330    6.0868 O   0  0  0  0  0  0  0  0  0  0  0  0
    2.2437    2.9699    6.9677 C   0  0  0  0  0  0  0  0  0  0  0  0
    3.0041    1.7633    6.9356 N   0  0  0  0  0  0  0  0  0  0  0  0
    2.8512    0.9985    7.6380 H   0  0  0  0  0  0  0  0  0  0  0  0
    4.0109    1.5675    5.9228 C   0  0  0  0  0  0  0  0  0  0  0  0
    4.0251    0.1884    5.3815 C   0  0  0  0  0  0  0  0  0  0  0  0
    2.9505   -0.2602    4.6562 C   0  0  0  0  0  0  0  0  0  0  0  0
    2.9163   -1.5475    4.1236 C   0  0  0  0  0  0  0  0  0  0  0  0
    3.9847   -2.3989    4.3257 C   0  0  0  0  0  0  0  0  0  0  0  0
    5.0736   -1.9393    5.0628 C   0  0  0  0  0  0  0  0  0  0  0  0
    5.0911   -0.6500    5.5877 C   0  0  0  0  0  0  0  0  0  0  0  0
 24 25  2  0  0  0
 25 23  1  0  0  0
 23  1  1  0  0  0
  1  2  1  0  0  0
  2  3  2  0  0  0
  3  4  1  0  0  0
  4  5  2  0  0  0
  5  6  1  0  0  0
  6  7  2  0  0  0
  7  8  1  0  0  0
  8  9  2  0  0  0
  9 11  1  0  0  0
 11 12  1  0  0  0
 12 13  1  0  0  0
 13 14  1  0  0  0
 14 15  1  0  0  0
 15 16  1  0  0  0
  9 10  1  0  0  0
 10 17  1  0  0  0
 17 18  2  0  0  0
 18 19  1  0  0  0
 19 20  2  0  0  0
 20 21  1  0  0  0
 21 22  2  0  0  0
 25 26  1  0  0  0
 26 28  1  0  0  0
 28 29  1  0  0  0
 29 30  2  0  0  0
 30 31  1  0  0  0
 31 32  2  0  0  0
 32 33  1  0  0  0
 33 34  2  0  0  0
 10  1  1  0  0  0
 22 17  1  0  0  0
 34 29  1  0  0  0
  7  2  1  0  0  0
 16 11  1  0  0  0
 26 27  1  0  0  0
M  END
> <minimizedAffinity>
-1.60396

> <CNNscore>
0.3849107623

> <CNNaffinity>
5.8043770790

> <CNN_VS>
2.2341670990

> <CNNaffinity_variance>
1.3880900145

$$$$
[H]c1c([H])c([H])c(N2C(N3C([H])([H])C([H])([H])C([H])([H])C([H])([H])C3([H])[H])=Nc3c([H])c([H])c([H])c([H])c3C2([H])C([H])([H])C(=O)N([H])C([H])([H])c2c([H])c([H])c([H])c([H])c2[H])c([H])c1[H]


 34 38  0  0  0  0  0  0  0  0999 V2000
    3.2478    1.0497    9.4657 C   0  0  0  0  0  0  0  0  0  0  0  0
    4.5877    1.5450    9.1344 C   0  0  0  0  0  0  0  0  0  0  0  0
    4.9308    2.8799    9.0662 C   0  0  0  0  0  0  0  0  0  0  0  0
    6.2661    3.2283    8.8817 C   0  0  0  0  0  0  0  0  0  0  0  0
    7.2559    2.2833    8.7634 C   0  0  0  0  0  0  0  0  0  0  0  0
    6.9281    0.9558    8.8243 C   0  0  0  0  0  0  0  0  0  0  0  0
    5.5786    0.5859    9.0082 C   0  0  0  0  0  0  0  0  0  0  0  0
    5.2498   -0.7926    8.8675 N   0  0  0  0  0  0  0  0  0  0  0  0
    4.0055   -1.1732    8.8384 C   0  0  0  0  0  0  0  0  0  0  0  0
    2.9607   -0.2136    8.8715 N   0  0  0  0  0  0  0  0  0  0  0  0
    3.7453   -2.5698    8.7032 N   0  0  0  0  0  0  0  0  0  0  0  0
    3.4231   -3.3232    9.8774 C   0  0  0  0  0  0  0  0  0  0  0  0
    2.3344   -4.3686    9.5701 C   0  0  0  0  0  0  0  0  0  0  0  0
    2.8806   -5.2042    8.4342 C   0  0  0  0  0  0  0  0  0  0  0  0
    2.9603   -4.3564    7.2135 C   0  0  0  0  0  0  0  0  0  0  0  0
    3.8175   -3.1275    7.3740 C   0  0  0  0  0  0  0  0  0  0  0  0
    1.6927   -0.5192    8.3278 C   0  0  0  0  0  0  0  0  0  0  0  0
    0.6744   -1.0782    9.0670 C   0  0  0  0  0  0  0  0  0  0  0  0
   -0.5438   -1.3642    8.4989 C   0  0  0  0  0  0  0  0  0  0  0  0
   -0.8113   -1.1109    7.1744 C   0  0  0  0  0  0  0  0  0  0  0  0
    0.2110   -0.5515    6.4387 C   0  0  0  0  0  0  0  0  0  0  0  0
    1.4288   -0.2602    6.9860 C   0  0  0  0  0  0  0  0  0  0  0  0
    2.1405    2.0073    9.6032 C   0  0  0  0  0  0  0  0  0  0  0  0
    0.6648    1.2469   11.3106 O   0  0  0  0  0  0  0  0  0  0  0  0
    1.5341    2.0817   10.9489 C   0  0  0  0  0  0  0  0  0  0  0  0
    1.9020    3.0910   11.8875 N   0  0  0  0  0  0  0  0  0  0  0  0
    2.6199    3.8211   11.6564 H   0  0  0  0  0  0  0  0  0  0  0  0
    1.2854    3.1294   13.1899 C   0  0  0  0  0  0  0  0  0  0  0  0
    2.2445    2.8772   14.2906 C   0  0  0  0  0  0  0  0  0  0  0  0
    3.0971    3.8782   14.6820 C   0  0  0  0  0  0  0  0  0  0  0  0
    4.0155    3.6923   15.7135 C   0  0  0  0  0  0  0  0  0  0  0  0
    4.0761    2.4749   16.3627 C   0  0  0  0  0  0  0  0  0  0  0  0
    3.2087    1.4614   15.9621 C   0  0  0  0  0  0  0  0  0  0  0  0
    2.2973    1.6645   14.9295 C   0  0  0  0  0  0  0  0  0  0  0  0
 24 25  2  0  0  0
 25 23  1  0  0  0
 23  1  1  0  0  0
  1  2  1  0  0  0
  2  3  2  0  0  0
  3  4  1  0  0  0
  4  5  2  0  0  0
  5  6  1  0  0  0
  6  7  2  0  0  0
  7  8  1  0  0  0
  8  9  2  0  0  0
  9 11  1  0  0  0
 11 12  1  0  0  0
 12 13  1  0  0  0
 13 14  1  0  0  0
 14 15  1  0  0  0
 15 16  1  0  0  0
  9 10  1  0  0  0
 10 17  1  0  0  0
 17 18  2  0  0  0
 18 19  1  0  0  0
 19 20  2  0  0  0
 20 21  1  0  0  0
 21 22  2  0  0  0
 25 26  1  0  0  0
 26 28  1  0  0  0
 28 29  1  0  0  0
 29 30  2  0  0  0
 30 31  1  0  0  0
 31 32  2  0  0  0
 32 33  1  0  0  0
 33 34  2  0  0  0
 10  1  1  0  0  0
 22 17  1  0  0  0
 34 29  1  0  0  0
  7  2  1  0  0  0
 16 11  1  0  0  0
 26 27  1  0  0  0
M  END
> <minimizedAffinity>
-5.87528

> <CNNscore>
0.3796771467

> <CNNaffinity>
5.7534627914

> <CNN_VS>
2.1844582558

> <CNNaffinity_variance>
0.1493780166

$$$$
[H]c1c([H])c([H])c(N2C(N3C([H])([H])C([H])([H])C([H])([H])C([H])([H])C3([H])[H])=Nc3c([H])c([H])c([H])c([H])c3C2([H])C([H])([H])C(=O)N([H])C([H])([H])c2c([H])c([H])c([H])c([H])c2[H])c([H])c1[H]


 34 38  0  0  0  0  0  0  0  0999 V2000
    5.1420    3.3671   17.8442 C   0  0  0  0  0  0  0  0  0  0  0  0
    4.1684    2.4844   17.1937 C   0  0  0  0  0  0  0  0  0  0  0  0
    3.7010    2.6532   15.9063 C   0  0  0  0  0  0  0  0  0  0  0  0
    2.8866    1.6726   15.3464 C   0  0  0  0  0  0  0  0  0  0  0  0
    2.5309    0.5396   16.0367 C   0  0  0  0  0  0  0  0  0  0  0  0
    2.9837    0.3625   17.3162 C   0  0  0  0  0  0  0  0  0  0  0  0
    3.8080    1.3486   17.8993 C   0  0  0  0  0  0  0  0  0  0  0  0
    4.0941    1.2284   19.2892 N   0  0  0  0  0  0  0  0  0  0  0  0
    4.6873    2.1965   19.9256 C   0  0  0  0  0  0  0  0  0  0  0  0
    4.9896    3.4131   19.2606 N   0  0  0  0  0  0  0  0  0  0  0  0
    4.9517    2.0085   21.3153 N   0  0  0  0  0  0  0  0  0  0  0  0
    6.3142    1.9619   21.7530 C   0  0  0  0  0  0  0  0  0  0  0  0
    6.4754    2.6836   23.1042 C   0  0  0  0  0  0  0  0  0  0  0  0
    5.5038    2.0080   24.0457 C   0  0  0  0  0  0  0  0  0  0  0  0
    4.1168    2.3177   23.6032 C   0  0  0  0  0  0  0  0  0  0  0  0
    3.8116    1.8868   22.1919 C   0  0  0  0  0  0  0  0  0  0  0  0
    5.1269    4.6130   19.9941 C   0  0  0  0  0  0  0  0  0  0  0  0
    6.2998    5.3326   20.0425 C   0  0  0  0  0  0  0  0  0  0  0  0
    6.3933    6.4937   20.7717 C   0  0  0  0  0  0  0  0  0  0  0  0
    5.3320    6.9965   21.4865 C   0  0  0  0  0  0  0  0  0  0  0  0
    4.1604    6.2728   21.4351 C   0  0  0  0  0  0  0  0  0  0  0  0
    4.0484    5.1164   20.7156 C   0  0  0  0  0  0  0  0  0  0  0  0
    5.5638    4.5996   17.1623 C   0  0  0  0  0  0  0  0  0  0  0  0
    3.5243    5.7979   17.4370 O   0  0  0  0  0  0  0  0  0  0  0  0
    4.4647    5.4579   16.6732 C   0  0  0  0  0  0  0  0  0  0  0  0
    4.4203    5.9344   15.3292 N   0  0  0  0  0  0  0  0  0  0  0  0
    5.1696    5.6920   14.6352 H   0  0  0  0  0  0  0  0  0  0  0  0
    3.3295    6.7688   14.8914 C   0  0  0  0  0  0  0  0  0  0  0  0
    2.3423    6.0402   14.0609 C   0  0  0  0  0  0  0  0  0  0  0  0
    2.7573    4.9741   13.3037 C   0  0  0  0  0  0  0  0  0  0  0  0
    1.8679    4.2545   12.5080 C   0  0  0  0  0  0  0  0  0  0  0  0
    0.5354    4.6159   12.4745 C   0  0  0  0  0  0  0  0  0  0  0  0
    0.1185    5.6990   13.2448 C   0  0  0  0  0  0  0  0  0  0  0  0
    1.0208    6.4068   14.0341 C   0  0  0  0  0  0  0  0  0  0  0  0
 24 25  2  0  0  0
 25 23  1  0  0  0
 23  1  1  0  0  0
  1  2  1  0  0  0
  2  3  2  0  0  0
  3  4  1  0  0  0
  4  5  2  0  0  0
  5  6  1  0  0  0
  6  7  2  0  0  0
  7  8  1  0  0  0
  8  9  2  0  0  0
  9 11  1  0  0  0
 11 12  1  0  0  0
 12 13  1  0  0  0
 13 14  1  0  0  0
 14 15  1  0  0  0
 15 16  1  0  0  0
  9 10  1  0  0  0
 10 17  1  0  0  0
 17 18  2  0  0  0
 18 19  1  0  0  0
 19 20  2  0  0  0
 20 21  1  0  0  0
 21 22  2  0  0  0
 25 26  1  0  0  0
 26 28  1  0  0  0
 28 29  1  0  0  0
 29 30  2  0  0  0
 30 31  1  0  0  0
 31 32  2  0  0  0
 32 33  1  0  0  0
 33 34  2  0  0  0
 10  1  1  0  0  0
 22 17  1  0  0  0
 34 29  1  0  0  0
  7  2  1  0  0  0
 16 11  1  0  0  0
 26 27  1  0  0  0
M  END
> <minimizedAffinity>
-9.19821

> <CNNscore>
0.3356340230

> <CNNaffinity>
6.6071333885

> <CNN_VS>
2.2175786495

> <CNNaffinity_variance>
0.3516250253

$$$$
[H]c1c([H])c([H])c(N2C(N3C([H])([H])C([H])([H])C([H])([H])C([H])([H])C3([H])[H])=Nc3c([H])c([H])c([H])c([H])c3C2([H])C([H])([H])C(=O)N([H])C([H])([H])c2c([H])c([H])c([H])c([H])c2[H])c([H])c1[H]


 34 38  0  0  0  0  0  0  0  0999 V2000
    5.4045    6.1600   18.5826 C   0  0  0  0  0  0  0  0  0  0  0  0
    6.5346    7.0088   18.9734 C   0  0  0  0  0  0  0  0  0  0  0  0
    7.2160    7.8450   18.1127 C   0  0  0  0  0  0  0  0  0  0  0  0
    8.1798    8.7081   18.6271 C   0  0  0  0  0  0  0  0  0  0  0  0
    8.4765    8.7531   19.9675 C   0  0  0  0  0  0  0  0  0  0  0  0
    7.8114    7.9252   20.8310 C   0  0  0  0  0  0  0  0  0  0  0  0
    6.8333    7.0424   20.3252 C   0  0  0  0  0  0  0  0  0  0  0  0
    6.3082    6.0631   21.2158 N   0  0  0  0  0  0  0  0  0  0  0  0
    5.5483    5.1058   20.7683 C   0  0  0  0  0  0  0  0  0  0  0  0
    5.2941    4.9822   19.3776 N   0  0  0  0  0  0  0  0  0  0  0  0
    5.0489    4.1621   21.7150 N   0  0  0  0  0  0  0  0  0  0  0  0
    5.8226    2.9878   21.9847 C   0  0  0  0  0  0  0  0  0  0  0  0
    5.7626    2.6302   23.4818 C   0  0  0  0  0  0  0  0  0  0  0  0
    4.2930    2.4864   23.8081 C   0  0  0  0  0  0  0  0  0  0  0  0
    3.6476    3.8235   23.7022 C   0  0  0  0  0  0  0  0  0  0  0  0
    3.7881    4.4679   22.3473 C   0  0  0  0  0  0  0  0  0  0  0  0
    4.9491    3.7291   18.8232 C   0  0  0  0  0  0  0  0  0  0  0  0
    5.3311    3.3369   17.5599 C   0  0  0  0  0  0  0  0  0  0  0  0
    4.9710    2.1102   17.0558 C   0  0  0  0  0  0  0  0  0  0  0  0
    4.2167    1.2153   17.7770 C   0  0  0  0  0  0  0  0  0  0  0  0
    3.8367    1.6124   19.0408 C   0  0  0  0  0  0  0  0  0  0  0  0
    4.1852    2.8279   19.5590 C   0  0  0  0  0  0  0  0  0  0  0  0
    5.0350    6.0627   17.1627 C   0  0  0  0  0  0  0  0  0  0  0  0
    3.7150    8.0254   17.4389 O   0  0  0  0  0  0  0  0  0  0  0  0
    4.1825    7.1583   16.6559 C   0  0  0  0  0  0  0  0  0  0  0  0
    3.8547    7.2812   15.2730 N   0  0  0  0  0  0  0  0  0  0  0  0
    4.2082    6.5955   14.5613 H   0  0  0  0  0  0  0  0  0  0  0  0
    3.0185    8.3643   14.8196 C   0  0  0  0  0  0  0  0  0  0  0  0
    2.1489    7.9853   13.6815 C   0  0  0  0  0  0  0  0  0  0  0  0
    2.5523    8.2729   12.4023 C   0  0  0  0  0  0  0  0  0  0  0  0
    1.7722    7.9350   11.2981 C   0  0  0  0  0  0  0  0  0  0  0  0
    0.5628    7.2953   11.4864 C   0  0  0  0  0  0  0  0  0  0  0  0
    0.1570    7.0053   12.7870 C   0  0  0  0  0  0  0  0  0  0  0  0
    0.9491    7.3502   13.8787 C   0  0  0  0  0  0  0  0  0  0  0  0
 24 25  2  0  0  0
 25 23  1  0  0  0
 23  1  1  0  0  0
  1  2  1  0  0  0
  2  3  2  0  0  0
  3  4  1  0  0  0
  4  5  2  0  0  0
  5  6  1  0  0  0
  6  7  2  0  0  0
  7  8  1  0  0  0
  8  9  2  0  0  0
  9 11  1  0  0  0
 11 12  1  0  0  0
 12 13  1  0  0  0
 13 14  1  0  0  0
 14 15  1  0  0  0
 15 16  1  0  0  0
  9 10  1  0  0  0
 10 17  1  0  0  0
 17 18  2  0  0  0
 18 19  1  0  0  0
 19 20  2  0  0  0
 20 21  1  0  0  0
 21 22  2  0  0  0
 25 26  1  0  0  0
 26 28  1  0  0  0
 28 29  1  0  0  0
 29 30  2  0  0  0
 30 31  1  0  0  0
 31 32  2  0  0  0
 32 33  1  0  0  0
 33 34  2  0  0  0
 10  1  1  0  0  0
 22 17  1  0  0  0
 34 29  1  0  0  0
  7  2  1  0  0  0
 16 11  1  0  0  0
 26 27  1  0  0  0
M  END
> <minimizedAffinity>
-8.23556

> <CNNscore>
0.3346455395

> <CNNaffinity>
6.1984872818

> <CNN_VS>
2.0742962360

> <CNNaffinity_variance>
0.1555528343

$$$$
[H]c1c([H])c([H])c(N2C(N3C([H])([H])C([H])([H])C([H])([H])C([H])([H])C3([H])[H])=Nc3c([H])c([H])c([H])c([H])c3C2([H])C([H])([H])C(=O)N([H])C([H])([H])c2c([H])c([H])c([H])c([H])c2[H])c([H])c1[H]


 34 38  0  0  0  0  0  0  0  0999 V2000
    4.6018    6.2806   17.3682 C   0  0  0  0  0  0  0  0  0  0  0  0
    5.5714    7.3730   17.2381 C   0  0  0  0  0  0  0  0  0  0  0  0
    5.9360    7.9536   16.0405 C   0  0  0  0  0  0  0  0  0  0  0  0
    6.7587    9.0767   16.0541 C   0  0  0  0  0  0  0  0  0  0  0  0
    7.2220    9.6263   17.2245 C   0  0  0  0  0  0  0  0  0  0  0  0
    6.8719    9.0569   18.4189 C   0  0  0  0  0  0  0  0  0  0  0  0
    6.0407    7.9163   18.4224 C   0  0  0  0  0  0  0  0  0  0  0  0
    5.8615    7.2372   19.6612 N   0  0  0  0  0  0  0  0  0  0  0  0
    5.2652    6.0808   19.6982 C   0  0  0  0  0  0  0  0  0  0  0  0
    4.8526    5.4476   18.4972 N   0  0  0  0  0  0  0  0  0  0  0  0
    5.1113    5.4579   20.9729 N   0  0  0  0  0  0  0  0  0  0  0  0
    3.9134    5.7072   21.7167 C   0  0  0  0  0  0  0  0  0  0  0  0
    3.4442    4.4280   22.4351 C   0  0  0  0  0  0  0  0  0  0  0  0
    4.6142    3.9849   23.2844 C   0  0  0  0  0  0  0  0  0  0  0  0
    5.7161    3.5438   22.3862 C   0  0  0  0  0  0  0  0  0  0  0  0
    6.1839    4.6030   21.4219 C   0  0  0  0  0  0  0  0  0  0  0  0
    4.7051    4.0433   18.4444 C   0  0  0  0  0  0  0  0  0  0  0  0
    3.8327    3.3496   19.2528 C   0  0  0  0  0  0  0  0  0  0  0  0
    3.7222    1.9822   19.1730 C   0  0  0  0  0  0  0  0  0  0  0  0
    4.4688    1.2377   18.2907 C   0  0  0  0  0  0  0  0  0  0  0  0
    5.3405    1.9364   17.4837 C   0  0  0  0  0  0  0  0  0  0  0  0
    5.4642    3.2958   17.5487 C   0  0  0  0  0  0  0  0  0  0  0  0
    4.0680    5.6442   16.1550 C   0  0  0  0  0  0  0  0  0  0  0  0
    1.8117    5.2622   16.8136 O   0  0  0  0  0  0  0  0  0  0  0  0
    2.6059    5.7587   15.9733 C   0  0  0  0  0  0  0  0  0  0  0  0
    2.0352    6.4291   14.8508 N   0  0  0  0  0  0  0  0  0  0  0  0
    2.6350    6.8677   14.1094 H   0  0  0  0  0  0  0  0  0  0  0  0
    0.6034    6.5176   14.7101 C   0  0  0  0  0  0  0  0  0  0  0  0
    0.1547    6.4268   13.3010 C   0  0  0  0  0  0  0  0  0  0  0  0
    1.0014    6.8278   12.2988 C   0  0  0  0  0  0  0  0  0  0  0  0
    0.6281    6.7599   10.9579 C   0  0  0  0  0  0  0  0  0  0  0  0
   -0.6217    6.2791   10.6204 C   0  0  0  0  0  0  0  0  0  0  0  0
   -1.4782    5.8733   11.6412 C   0  0  0  0  0  0  0  0  0  0  0  0
   -1.0888    5.9480   12.9757 C   0  0  0  0  0  0  0  0  0  0  0  0
 24 25  2  0  0  0
 25 23  1  0  0  0
 23  1  1  0  0  0
  1  2  1  0  0  0
  2  3  2  0  0  0
  3  4  1  0  0  0
  4  5  2  0  0  0
  5  6  1  0  0  0
  6  7  2  0  0  0
  7  8  1  0  0  0
  8  9  2  0  0  0
  9 11  1  0  0  0
 11 12  1  0  0  0
 12 13  1  0  0  0
 13 14  1  0  0  0
 14 15  1  0  0  0
 15 16  1  0  0  0
  9 10  1  0  0  0
 10 17  1  0  0  0
 17 18  2  0  0  0
 18 19  1  0  0  0
 19 20  2  0  0  0
 20 21  1  0  0  0
 21 22  2  0  0  0
 25 26  1  0  0  0
 26 28  1  0  0  0
 28 29  1  0  0  0
 29 30  2  0  0  0
 30 31  1  0  0  0
 31 32  2  0  0  0
 32 33  1  0  0  0
 33 34  2  0  0  0
 10  1  1  0  0  0
 22 17  1  0  0  0
 34 29  1  0  0  0
  7  2  1  0  0  0
 16 11  1  0  0  0
 26 27  1  0  0  0
M  END
> <minimizedAffinity>
-6.93873

> <CNNscore>
0.3211023808

> <CNNaffinity>
6.0923957825

> <CNN_VS>
1.9562827349

> <CNNaffinity_variance>
0.1401831508

$$$$
[H]c1c([H])c([H])c(N2C(N3C([H])([H])C([H])([H])C([H])([H])C([H])([H])C3([H])[H])=Nc3c([H])c([H])c([H])c([H])c3C2([H])C([H])([H])C(=O)N([H])C([H])([H])c2c([H])c([H])c([H])c([H])c2[H])c([H])c1[H]


 34 38  0  0  0  0  0  0  0  0999 V2000
    4.4983    5.1819   17.8860 C   0  0  0  0  0  0  0  0  0  0  0  0
    3.5551    4.9682   16.7837 C   0  0  0  0  0  0  0  0  0  0  0  0
    3.0559    5.9720   15.9789 C   0  0  0  0  0  0  0  0  0  0  0  0
    2.2780    5.6325   14.8752 C   0  0  0  0  0  0  0  0  0  0  0  0
    1.9891    4.3269   14.5614 C   0  0  0  0  0  0  0  0  0  0  0  0
    2.4740    3.3222   15.3545 C   0  0  0  0  0  0  0  0  0  0  0  0
    3.2619    3.6496   16.4787 C   0  0  0  0  0  0  0  0  0  0  0  0
    3.5796    2.5998   17.3870 N   0  0  0  0  0  0  0  0  0  0  0  0
    4.1387    2.8661   18.5318 C   0  0  0  0  0  0  0  0  0  0  0  0
    4.3708    4.2108   18.9214 N   0  0  0  0  0  0  0  0  0  0  0  0
    4.4379    1.7674   19.3919 N   0  0  0  0  0  0  0  0  0  0  0  0
    5.7689    1.6420   19.9049 C   0  0  0  0  0  0  0  0  0  0  0  0
    5.7439    1.1544   21.3658 C   0  0  0  0  0  0  0  0  0  0  0  0
    4.9667   -0.1427   21.3495 C   0  0  0  0  0  0  0  0  0  0  0  0
    3.5472    0.1558   21.0156 C   0  0  0  0  0  0  0  0  0  0  0  0
    3.3610    0.8553   19.6940 C   0  0  0  0  0  0  0  0  0  0  0  0
    4.4655    4.5518   20.2894 C   0  0  0  0  0  0  0  0  0  0  0  0
    3.3720    4.6181   21.1235 C   0  0  0  0  0  0  0  0  0  0  0  0
    3.5065    4.9580   22.4483 C   0  0  0  0  0  0  0  0  0  0  0  0
    4.7277    5.2480   23.0092 C   0  0  0  0  0  0  0  0  0  0  0  0
    5.8191    5.1804   22.1704 C   0  0  0  0  0  0  0  0  0  0  0  0
    5.7051    4.8443   20.8507 C   0  0  0  0  0  0  0  0  0  0  0  0
    4.8486    6.5553   18.2771 C   0  0  0  0  0  0  0  0  0  0  0  0
    7.0100    6.7968   17.3071 O   0  0  0  0  0  0  0  0  0  0  0  0
    5.8321    7.2288   17.4035 C   0  0  0  0  0  0  0  0  0  0  0  0
    5.4950    8.3851   16.6390 N   0  0  0  0  0  0  0  0  0  0  0  0
    4.5322    8.8021   16.6687 H   0  0  0  0  0  0  0  0  0  0  0  0
    6.4844    9.0132   15.7998 C   0  0  0  0  0  0  0  0  0  0  0  0
    6.3223    8.6781   14.3658 C   0  0  0  0  0  0  0  0  0  0  0  0
    5.1012    8.2510   13.9091 C   0  0  0  0  0  0  0  0  0  0  0  0
    4.8963    7.9261   12.5696 C   0  0  0  0  0  0  0  0  0  0  0  0
    5.9414    8.0336   11.6732 C   0  0  0  0  0  0  0  0  0  0  0  0
    7.1795    8.4676   12.1412 C   0  0  0  0  0  0  0  0  0  0  0  0
    7.3665    8.7880   13.4830 C   0  0  0  0  0  0  0  0  0  0  0  0
 24 25  2  0  0  0
 25 23  1  0  0  0
 23  1  1  0  0  0
  1  2  1  0  0  0
  2  3  2  0  0  0
  3  4  1  0  0  0
  4  5  2  0  0  0
  5  6  1  0  0  0
  6  7  2  0  0  0
  7  8  1  0  0  0
  8  9  2  0  0  0
  9 11  1  0  0  0
 11 12  1  0  0  0
 12 13  1  0  0  0
 13 14  1  0  0  0
 14 15  1  0  0  0
 15 16  1  0  0  0
  9 10  1  0  0  0
 10 17  1  0  0  0
 17 18  2  0  0  0
 18 19  1  0  0  0
 19 20  2  0  0  0
 20 21  1  0  0  0
 21 22  2  0  0  0
 25 26  1  0  0  0
 26 28  1  0  0  0
 28 29  1  0  0  0
 29 30  2  0  0  0
 30 31  1  0  0  0
 31 32  2  0  0  0
 32 33  1  0  0  0
 33 34  2  0  0  0
 10  1  1  0  0  0
 22 17  1  0  0  0
 34 29  1  0  0  0
  7  2  1  0  0  0
 16 11  1  0  0  0
 26 27  1  0  0  0
M  END
> <minimizedAffinity>
-6.72320

> <CNNscore>
0.3083828986

> <CNNaffinity>
6.2021026611

> <CNN_VS>
1.9126224518

> <CNNaffinity_variance>
0.6989288926

$$$$
[H]c1c([H])c([H])c(N2C(N3C([H])([H])C([H])([H])C([H])([H])C([H])([H])C3([H])[H])=Nc3c([H])c([H])c([H])c([H])c3C2([H])C([H])([H])C(=O)N([H])C([H])([H])c2c([H])c([H])c([H])c([H])c2[H])c([H])c1[H]


 34 38  0  0  0  0  0  0  0  0999 V2000
    5.3426    3.7912   17.7317 C   0  0  0  0  0  0  0  0  0  0  0  0
    4.3890    3.0041   16.9434 C   0  0  0  0  0  0  0  0  0  0  0  0
    3.9935    3.3169   15.6589 C   0  0  0  0  0  0  0  0  0  0  0  0
    3.1922    2.4193   14.9585 C   0  0  0  0  0  0  0  0  0  0  0  0
    2.7800    1.2293   15.5069 C   0  0  0  0  0  0  0  0  0  0  0  0
    3.1612    0.9095   16.7820 C   0  0  0  0  0  0  0  0  0  0  0  0
    3.9713    1.8099   17.5066 C   0  0  0  0  0  0  0  0  0  0  0  0
    4.1812    1.5391   18.8888 N   0  0  0  0  0  0  0  0  0  0  0  0
    4.7574    2.4214   19.6527 C   0  0  0  0  0  0  0  0  0  0  0  0
    5.1163    3.6932   19.1355 N   0  0  0  0  0  0  0  0  0  0  0  0
    4.9444    2.0837   21.0266 N   0  0  0  0  0  0  0  0  0  0  0  0
    6.2736    2.0919   21.5589 C   0  0  0  0  0  0  0  0  0  0  0  0
    6.2802    2.6504   22.9944 C   0  0  0  0  0  0  0  0  0  0  0  0
    5.3118    1.7876   23.7720 C   0  0  0  0  0  0  0  0  0  0  0  0
    3.9353    2.0384   23.2642 C   0  0  0  0  0  0  0  0  0  0  0  0
    3.7639    1.7634   21.7926 C   0  0  0  0  0  0  0  0  0  0  0  0
    5.2364    4.8067   19.9971 C   0  0  0  0  0  0  0  0  0  0  0  0
    6.4082    5.5131   20.1511 C   0  0  0  0  0  0  0  0  0  0  0  0
    6.4845    6.5887   21.0032 C   0  0  0  0  0  0  0  0  0  0  0  0
    5.4063    7.0150   21.7420 C   0  0  0  0  0  0  0  0  0  0  0  0
    4.2359    6.3048   21.5845 C   0  0  0  0  0  0  0  0  0  0  0  0
    4.1408    5.2329   20.7422 C   0  0  0  0  0  0  0  0  0  0  0  0
    5.8221    5.0777   17.2054 C   0  0  0  0  0  0  0  0  0  0  0  0
    3.7778    6.2353   17.5944 O   0  0  0  0  0  0  0  0  0  0  0  0
    4.7649    6.0427   16.8381 C   0  0  0  0  0  0  0  0  0  0  0  0
    4.8146    6.7908   15.6244 N   0  0  0  0  0  0  0  0  0  0  0  0
    5.6070    6.6832   14.9446 H   0  0  0  0  0  0  0  0  0  0  0  0
    3.7620    7.7215   15.3027 C   0  0  0  0  0  0  0  0  0  0  0  0
    3.0189    7.3515   14.0756 C   0  0  0  0  0  0  0  0  0  0  0  0
    2.1555    8.2574   13.5136 C   0  0  0  0  0  0  0  0  0  0  0  0
    1.4353    7.9590   12.3585 C   0  0  0  0  0  0  0  0  0  0  0  0
    1.5878    6.7246   11.7584 C   0  0  0  0  0  0  0  0  0  0  0  0
    2.4655    5.8078   12.3324 C   0  0  0  0  0  0  0  0  0  0  0  0
    3.1771    6.1227   13.4868 C   0  0  0  0  0  0  0  0  0  0  0  0
 24 25  2  0  0  0
 25 23  1  0  0  0
 23  1  1  0  0  0
  1  2  1  0  0  0
  2  3  2  0  0  0
  3  4  1  0  0  0
  4  5  2  0  0  0
  5  6  1  0  0  0
  6  7  2  0  0  0
  7  8  1  0  0  0
  8  9  2  0  0  0
  9 11  1  0  0  0
 11 12  1  0  0  0
 12 13  1  0  0  0
 13 14  1  0  0  0
 14 15  1  0  0  0
 15 16  1  0  0  0
  9 10  1  0  0  0
 10 17  1  0  0  0
 17 18  2  0  0  0
 18 19  1  0  0  0
 19 20  2  0  0  0
 20 21  1  0  0  0
 21 22  2  0  0  0
 25 26  1  0  0  0
 26 28  1  0  0  0
 28 29  1  0  0  0
 29 30  2  0  0  0
 30 31  1  0  0  0
 31 32  2  0  0  0
 32 33  1  0  0  0
 33 34  2  0  0  0
 10  1  1  0  0  0
 22 17  1  0  0  0
 34 29  1  0  0  0
  7  2  1  0  0  0
 16 11  1  0  0  0
 26 27  1  0  0  0
M  END
> <minimizedAffinity>
-9.22101

> <CNNscore>
0.3070915937

> <CNNaffinity>
6.3903002739

> <CNN_VS>
1.9624074697

> <CNNaffinity_variance>
0.5368380547

$$$$
[H]c1c([H])c([H])c(N2C(N3C([H])([H])C([H])([H])C([H])([H])C([H])([H])C3([H])[H])=Nc3c([H])c([H])c([H])c([H])c3C2([H])C([H])([H])C(=O)N([H])C([H])([H])c2c([H])c([H])c([H])c([H])c2[H])c([H])c1[H]


 34 38  0  0  0  0  0  0  0  0999 V2000
    2.2699    3.1213   13.9790 C   0  0  0  0  0  0  0  0  0  0  0  0
    2.7946    2.4827   15.1904 C   0  0  0  0  0  0  0  0  0  0  0  0
    2.4022    1.2423   15.6505 C   0  0  0  0  0  0  0  0  0  0  0  0
    3.0718    0.6774   16.7326 C   0  0  0  0  0  0  0  0  0  0  0  0
    4.1126    1.3175   17.3600 C   0  0  0  0  0  0  0  0  0  0  0  0
    4.5082    2.5506   16.9166 C   0  0  0  0  0  0  0  0  0  0  0  0
    3.8379    3.1383   15.8224 C   0  0  0  0  0  0  0  0  0  0  0  0
    4.1415    4.4959   15.5178 N   0  0  0  0  0  0  0  0  0  0  0  0
    3.4287    5.1508   14.6477 C   0  0  0  0  0  0  0  0  0  0  0  0
    2.2950    4.5447   14.0468 N   0  0  0  0  0  0  0  0  0  0  0  0
    3.7912    6.5055   14.3829 N   0  0  0  0  0  0  0  0  0  0  0  0
    4.1726    6.8643   13.0503 C   0  0  0  0  0  0  0  0  0  0  0  0
    3.6251    8.2570   12.6852 C   0  0  0  0  0  0  0  0  0  0  0  0
    4.1521    9.1939   13.7488 C   0  0  0  0  0  0  0  0  0  0  0  0
    3.5091    8.8521   15.0470 C   0  0  0  0  0  0  0  0  0  0  0  0
    3.7373    7.4300   15.4899 C   0  0  0  0  0  0  0  0  0  0  0  0
    1.2416    5.3411   13.5441 C   0  0  0  0  0  0  0  0  0  0  0  0
    0.3524    6.0086   14.3562 C   0  0  0  0  0  0  0  0  0  0  0  0
   -0.6617    6.7703   13.8271 C   0  0  0  0  0  0  0  0  0  0  0  0
   -0.8435    6.9070   12.4712 C   0  0  0  0  0  0  0  0  0  0  0  0
    0.0489    6.2370   11.6625 C   0  0  0  0  0  0  0  0  0  0  0  0
    1.0634    5.4751   12.1703 C   0  0  0  0  0  0  0  0  0  0  0  0
    1.1528    2.4913   13.2599 C   0  0  0  0  0  0  0  0  0  0  0  0
    2.7034    1.8267   11.5793 O   0  0  0  0  0  0  0  0  0  0  0  0
    1.5141    1.8268   11.9904 C   0  0  0  0  0  0  0  0  0  0  0  0
    0.5431    1.1634   11.1829 N   0  0  0  0  0  0  0  0  0  0  0  0
   -0.4681    1.1224   11.4616 H   0  0  0  0  0  0  0  0  0  0  0  0
    0.9368    0.5283    9.9502 C   0  0  0  0  0  0  0  0  0  0  0  0
   -0.0808   -0.4188    9.4378 C   0  0  0  0  0  0  0  0  0  0  0  0
    0.2073   -1.7596    9.4000 C   0  0  0  0  0  0  0  0  0  0  0  0
   -0.7163   -2.6911    8.9296 C   0  0  0  0  0  0  0  0  0  0  0  0
   -1.9533   -2.2637    8.4889 C   0  0  0  0  0  0  0  0  0  0  0  0
   -2.2416   -0.9015    8.5288 C   0  0  0  0  0  0  0  0  0  0  0  0
   -1.3069    0.0154    9.0020 C   0  0  0  0  0  0  0  0  0  0  0  0
 24 25  2  0  0  0
 25 23  1  0  0  0
 23  1  1  0  0  0
  1  2  1  0  0  0
  2  3  2  0  0  0
  3  4  1  0  0  0
  4  5  2  0  0  0
  5  6  1  0  0  0
  6  7  2  0  0  0
  7  8  1  0  0  0
  8  9  2  0  0  0
  9 11  1  0  0  0
 11 12  1  0  0  0
 12 13  1  0  0  0
 13 14  1  0  0  0
 14 15  1  0  0  0
 15 16  1  0  0  0
  9 10  1  0  0  0
 10 17  1  0  0  0
 17 18  2  0  0  0
 18 19  1  0  0  0
 19 20  2  0  0  0
 20 21  1  0  0  0
 21 22  2  0  0  0
 25 26  1  0  0  0
 26 28  1  0  0  0
 28 29  1  0  0  0
 29 30  2  0  0  0
 30 31  1  0  0  0
 31 32  2  0  0  0
 32 33  1  0  0  0
 33 34  2  0  0  0
 10  1  1  0  0  0
 22 17  1  0  0  0
 34 29  1  0  0  0
  7  2  1  0  0  0
 16 11  1  0  0  0
 26 27  1  0  0  0
M  END
> <minimizedAffinity>
-7.81172

> <CNNscore>
0.2961700261

> <CNNaffinity>
5.8127698898

> <CNN_VS>
1.7215682268

> <CNNaffinity_variance>
0.1750971824

$$$$
[H]c1c([H])c([H])c(C([H])(N2C([H])([H])C([H])([H])N(C([H])([H])C#N)C([H])([H])C2([H])[H])C([H])([H])OC([H])([H])c2c([H])c(C(F)(F)F)c([H])c(C(F)(F)F)c2[H])c([H])c1[H]


 33 35  0  0  0  0  0  0  0  0999 V2000
    5.5421    5.2389   18.9277 C   0  0  0  0  0  0  0  0  0  0  0  0
    4.9626    5.9000   20.1325 C   0  0  0  0  0  0  0  0  0  0  0  0
    7.2215    9.0072   21.8516 N   0  0  0  0  0  0  0  0  0  0  0  0
    7.8960    7.8686   21.3423 C   0  0  0  0  0  0  0  0  0  0  0  0
    6.9767    6.6517   21.2831 C   0  0  0  0  0  0  0  0  0  0  0  0
    5.7785    6.9500   20.5909 N   0  0  0  0  0  0  0  0  0  0  0  0
    5.1171    8.1695   20.8972 C   0  0  0  0  0  0  0  0  0  0  0  0
    5.8227    8.8348   22.0483 C   0  0  0  0  0  0  0  0  0  0  0  0
    7.9140    9.8374   22.7643 C   0  0  0  0  0  0  0  0  0  0  0  0
    7.7278    8.7786   25.1862 N   0  0  0  0  0  0  0  0  0  0  0  0
    7.8209    9.2522   24.1114 C   0  0  0  0  0  0  0  0  0  0  0  0
    4.6258    4.8676   21.1444 C   0  0  0  0  0  0  0  0  0  0  0  0
    3.9143    5.1205   22.2963 C   0  0  0  0  0  0  0  0  0  0  0  0
    3.6552    4.1376   23.2322 C   0  0  0  0  0  0  0  0  0  0  0  0
    4.1000    2.8485   23.0565 C   0  0  0  0  0  0  0  0  0  0  0  0
    4.8141    2.5743   21.9041 C   0  0  0  0  0  0  0  0  0  0  0  0
    5.0663    3.5695   20.9770 C   0  0  0  0  0  0  0  0  0  0  0  0
    4.7762    5.3336   17.7685 O   0  0  0  0  0  0  0  0  0  0  0  0
    5.3095    4.3112   16.9428 C   0  0  0  0  0  0  0  0  0  0  0  0
    4.3590    3.2750   16.5912 C   0  0  0  0  0  0  0  0  0  0  0  0
    3.7500    3.2849   15.3167 C   0  0  0  0  0  0  0  0  0  0  0  0
    2.8536    2.3400   14.9206 C   0  0  0  0  0  0  0  0  0  0  0  0
    2.5157    1.3271   15.7836 C   0  0  0  0  0  0  0  0  0  0  0  0
    3.0985    1.3023   17.0284 C   0  0  0  0  0  0  0  0  0  0  0  0
    4.0202    2.2638   17.4495 C   0  0  0  0  0  0  0  0  0  0  0  0
    2.2077    2.3511   13.5737 C   0  0  0  0  0  0  0  0  0  0  0  0
    1.1291    1.5357   13.5201 F   0  0  0  0  0  0  0  0  0  0  0  0
    3.1993    1.9871   12.6735 F   0  0  0  0  0  0  0  0  0  0  0  0
    1.9018    3.6728   13.2894 F   0  0  0  0  0  0  0  0  0  0  0  0
    2.7030    0.1696   17.9249 C   0  0  0  0  0  0  0  0  0  0  0  0
    3.1098   -1.0472   17.3617 F   0  0  0  0  0  0  0  0  0  0  0  0
    3.3800    0.3415   19.1043 F   0  0  0  0  0  0  0  0  0  0  0  0
    1.3413    0.0951   18.1309 F   0  0  0  0  0  0  0  0  0  0  0  0
 10 11  3  0  0  0
 11  9  1  0  0  0
  9  3  1  0  0  0
  3  4  1  0  0  0
  4  5  1  0  0  0
  5  6  1  0  0  0
  6  2  1  0  0  0
  2  1  1  0  0  0
  1 18  1  0  0  0
 18 19  1  0  0  0
 19 20  1  0  0  0
 20 21  2  0  0  0
 21 22  1  0  0  0
 22 26  1  0  0  0
 26 27  1  0  0  0
 26 28  1  0  0  0
 26 29  1  0  0  0
 22 23  2  0  0  0
 23 24  1  0  0  0
 24 30  1  0  0  0
 30 31  1  0  0  0
 30 32  1  0  0  0
 30 33  1  0  0  0
 24 25  2  0  0  0
  2 12  1  0  0  0
 12 13  2  0  0  0
 13 14  1  0  0  0
 14 15  2  0  0  0
 15 16  1  0  0  0
 16 17  2  0  0  0
  6  7  1  0  0  0
  7  8  1  0  0  0
  8  3  1  0  0  0
 25 20  1  0  0  0
 17 12  1  0  0  0
M  END
> <minimizedAffinity>
-8.27443

> <CNNscore>
0.5699483156

> <CNNaffinity>
6.4385681152

> <CNN_VS>
3.6696510315

> <CNNaffinity_variance>
0.2531502843

$$$$
[H]c1c([H])c([H])c(C([H])(N2C([H])([H])C([H])([H])N(C([H])([H])C#N)C([H])([H])C2([H])[H])C([H])([H])OC([H])([H])c2c([H])c(C(F)(F)F)c([H])c(C(F)(F)F)c2[H])c([H])c1[H]


 33 35  0  0  0  0  0  0  0  0999 V2000
    5.6697    5.4752   19.3444 C   0  0  0  0  0  0  0  0  0  0  0  0
    4.9159    5.7382   20.6041 C   0  0  0  0  0  0  0  0  0  0  0  0
    7.0339    8.7500   22.6425 N   0  0  0  0  0  0  0  0  0  0  0  0
    5.7374    9.0384   22.1459 C   0  0  0  0  0  0  0  0  0  0  0  0
    5.3540    8.1036   21.0020 C   0  0  0  0  0  0  0  0  0  0  0  0
    5.5243    6.7477   21.3715 N   0  0  0  0  0  0  0  0  0  0  0  0
    6.7200    6.3859   22.0480 C   0  0  0  0  0  0  0  0  0  0  0  0
    7.6351    7.5798   22.1000 C   0  0  0  0  0  0  0  0  0  0  0  0
    7.8831    9.8375   22.9562 C   0  0  0  0  0  0  0  0  0  0  0  0
    9.6434    9.0718   24.7827 N   0  0  0  0  0  0  0  0  0  0  0  0
    8.8526    9.4104   23.9777 C   0  0  0  0  0  0  0  0  0  0  0  0
    4.6809    4.4550   21.3123 C   0  0  0  0  0  0  0  0  0  0  0  0
    5.1584    3.2374   20.8803 C   0  0  0  0  0  0  0  0  0  0  0  0
    4.8839    2.0598   21.5490 C   0  0  0  0  0  0  0  0  0  0  0  0
    4.1134    2.0476   22.6877 C   0  0  0  0  0  0  0  0  0  0  0  0
    3.6270    3.2613   23.1389 C   0  0  0  0  0  0  0  0  0  0  0  0
    3.9098    4.4316   22.4577 C   0  0  0  0  0  0  0  0  0  0  0  0
    4.8983    5.4285   18.1859 O   0  0  0  0  0  0  0  0  0  0  0  0
    5.5291    4.4177   17.4166 C   0  0  0  0  0  0  0  0  0  0  0  0
    4.6117    3.4769   16.8051 C   0  0  0  0  0  0  0  0  0  0  0  0
    4.1632    2.3565   17.5391 C   0  0  0  0  0  0  0  0  0  0  0  0
    3.2986    1.4378   17.0274 C   0  0  0  0  0  0  0  0  0  0  0  0
    2.8325    1.5913   15.7452 C   0  0  0  0  0  0  0  0  0  0  0  0
    3.2591    2.6759   15.0162 C   0  0  0  0  0  0  0  0  0  0  0  0
    4.1452    3.6273   15.5268 C   0  0  0  0  0  0  0  0  0  0  0  0
    2.8255    0.2517   17.8024 C   0  0  0  0  0  0  0  0  0  0  0  0
    3.2865    0.2584   19.0746 F   0  0  0  0  0  0  0  0  0  0  0  0
    3.2440   -0.8616   17.0871 F   0  0  0  0  0  0  0  0  0  0  0  0
    1.4413    0.2537   17.7283 F   0  0  0  0  0  0  0  0  0  0  0  0
    2.7107    2.8008   13.6280 C   0  0  0  0  0  0  0  0  0  0  0  0
    2.8818    1.5930   12.9385 F   0  0  0  0  0  0  0  0  0  0  0  0
    1.3658    3.0348   13.7517 F   0  0  0  0  0  0  0  0  0  0  0  0
    3.3291    3.7889   12.8907 F   0  0  0  0  0  0  0  0  0  0  0  0
 10 11  3  0  0  0
 11  9  1  0  0  0
  9  3  1  0  0  0
  3  4  1  0  0  0
  4  5  1  0  0  0
  5  6  1  0  0  0
  6  2  1  0  0  0
  2  1  1  0  0  0
  1 18  1  0  0  0
 18 19  1  0  0  0
 19 20  1  0  0  0
 20 21  2  0  0  0
 21 22  1  0  0  0
 22 26  1  0  0  0
 26 27  1  0  0  0
 26 28  1  0  0  0
 26 29  1  0  0  0
 22 23  2  0  0  0
 23 24  1  0  0  0
 24 30  1  0  0  0
 30 31  1  0  0  0
 30 32  1  0  0  0
 30 33  1  0  0  0
 24 25  2  0  0  0
  2 12  1  0  0  0
 12 13  2  0  0  0
 13 14  1  0  0  0
 14 15  2  0  0  0
 15 16  1  0  0  0
 16 17  2  0  0  0
  6  7  1  0  0  0
  7  8  1  0  0  0
  8  3  1  0  0  0
 25 20  1  0  0  0
 17 12  1  0  0  0
M  END
> <minimizedAffinity>
-8.06000

> <CNNscore>
0.5414378047

> <CNNaffinity>
6.3537955284

> <CNN_VS>
3.4401850700

> <CNNaffinity_variance>
0.1613527834

$$$$
[H]c1c([H])c([H])c(C([H])(N2C([H])([H])C([H])([H])N(C([H])([H])C#N)C([H])([H])C2([H])[H])C([H])([H])OC([H])([H])c2c([H])c(C(F)(F)F)c([H])c(C(F)(F)F)c2[H])c([H])c1[H]


 33 35  0  0  0  0  0  0  0  0999 V2000
    2.2364    4.1689   12.1323 C   0  0  0  0  0  0  0  0  0  0  0  0
    1.9956    5.6153   11.8598 C   0  0  0  0  0  0  0  0  0  0  0  0
    5.3451    8.0441   12.6302 N   0  0  0  0  0  0  0  0  0  0  0  0
    4.0856    8.4231   13.1602 C   0  0  0  0  0  0  0  0  0  0  0  0
    2.9354    7.8069   12.3686 C   0  0  0  0  0  0  0  0  0  0  0  0
    3.0933    6.4056   12.2453 N   0  0  0  0  0  0  0  0  0  0  0  0
    4.3773    5.9071   11.8971 C   0  0  0  0  0  0  0  0  0  0  0  0
    5.2892    7.0665   11.5977 C   0  0  0  0  0  0  0  0  0  0  0  0
    6.3546    9.0318   12.5433 C   0  0  0  0  0  0  0  0  0  0  0  0
    8.6875    7.8346   12.1624 N   0  0  0  0  0  0  0  0  0  0  0  0
    7.6524    8.3737   12.3235 C   0  0  0  0  0  0  0  0  0  0  0  0
    0.6893    6.0135   12.4415 C   0  0  0  0  0  0  0  0  0  0  0  0
    0.5258    6.4648   13.7325 C   0  0  0  0  0  0  0  0  0  0  0  0
   -0.7147    6.7888   14.2475 C   0  0  0  0  0  0  0  0  0  0  0  0
   -1.8555    6.6743   13.4885 C   0  0  0  0  0  0  0  0  0  0  0  0
   -1.7113    6.2253   12.1883 C   0  0  0  0  0  0  0  0  0  0  0  0
   -0.4625    5.9039   11.6875 C   0  0  0  0  0  0  0  0  0  0  0  0
    2.0096    3.7631   13.4450 O   0  0  0  0  0  0  0  0  0  0  0  0
    2.9739    2.7416   13.6400 C   0  0  0  0  0  0  0  0  0  0  0  0
    3.3148    2.5035   15.0285 C   0  0  0  0  0  0  0  0  0  0  0  0
    4.1505    3.4145   15.7118 C   0  0  0  0  0  0  0  0  0  0  0  0
    4.5054    3.2537   17.0163 C   0  0  0  0  0  0  0  0  0  0  0  0
    4.0403    2.1657   17.7126 C   0  0  0  0  0  0  0  0  0  0  0  0
    3.2262    1.2685   17.0628 C   0  0  0  0  0  0  0  0  0  0  0  0
    2.8526    1.4196   15.7254 C   0  0  0  0  0  0  0  0  0  0  0  0
    5.3907    4.2158   17.7389 C   0  0  0  0  0  0  0  0  0  0  0  0
    6.5681    4.4029   17.0989 F   0  0  0  0  0  0  0  0  0  0  0  0
    5.5520    3.6981   19.0164 F   0  0  0  0  0  0  0  0  0  0  0  0
    4.6653    5.3872   17.8915 F   0  0  0  0  0  0  0  0  0  0  0  0
    2.7383    0.1067   17.8725 C   0  0  0  0  0  0  0  0  0  0  0  0
    1.3405    0.1430   17.9624 F   0  0  0  0  0  0  0  0  0  0  0  0
    3.0929   -1.0288   17.1914 F   0  0  0  0  0  0  0  0  0  0  0  0
    3.2354    0.0993   19.1590 F   0  0  0  0  0  0  0  0  0  0  0  0
 10 11  3  0  0  0
 11  9  1  0  0  0
  9  3  1  0  0  0
  3  4  1  0  0  0
  4  5  1  0  0  0
  5  6  1  0  0  0
  6  2  1  0  0  0
  2  1  1  0  0  0
  1 18  1  0  0  0
 18 19  1  0  0  0
 19 20  1  0  0  0
 20 21  2  0  0  0
 21 22  1  0  0  0
 22 26  1  0  0  0
 26 27  1  0  0  0
 26 28  1  0  0  0
 26 29  1  0  0  0
 22 23  2  0  0  0
 23 24  1  0  0  0
 24 30  1  0  0  0
 30 31  1  0  0  0
 30 32  1  0  0  0
 30 33  1  0  0  0
 24 25  2  0  0  0
  2 12  1  0  0  0
 12 13  2  0  0  0
 13 14  1  0  0  0
 14 15  2  0  0  0
 15 16  1  0  0  0
 16 17  2  0  0  0
  6  7  1  0  0  0
  7  8  1  0  0  0
  8  3  1  0  0  0
 25 20  1  0  0  0
 17 12  1  0  0  0
M  END
> <minimizedAffinity>
-7.60368

> <CNNscore>
0.4646902978

> <CNNaffinity>
5.7021741867

> <CNN_VS>
2.6497449875

> <CNNaffinity_variance>
0.4742050767

$$$$
[H]c1c([H])c([H])c(C([H])(N2C([H])([H])C([H])([H])N(C([H])([H])C#N)C([H])([H])C2([H])[H])C([H])([H])OC([H])([H])c2c([H])c(C(F)(F)F)c([H])c(C(F)(F)F)c2[H])c([H])c1[H]


 33 35  0  0  0  0  0  0  0  0999 V2000
    6.1877    5.8672   19.8164 C   0  0  0  0  0  0  0  0  0  0  0  0
    5.7089    6.3277   21.1516 C   0  0  0  0  0  0  0  0  0  0  0  0
    8.1807    9.0202   23.2379 N   0  0  0  0  0  0  0  0  0  0  0  0
    8.7533    7.8422   22.6945 C   0  0  0  0  0  0  0  0  0  0  0  0
    7.7047    6.7531   22.4863 C   0  0  0  0  0  0  0  0  0  0  0  0
    6.6054    7.2389   21.7382 N   0  0  0  0  0  0  0  0  0  0  0  0
    6.0706    8.5082   22.0863 C   0  0  0  0  0  0  0  0  0  0  0  0
    6.7605    9.0080   23.3271 C   0  0  0  0  0  0  0  0  0  0  0  0
    8.8951    9.7001   24.2525 C   0  0  0  0  0  0  0  0  0  0  0  0
    9.3573    8.0352   26.2614 N   0  0  0  0  0  0  0  0  0  0  0  0
    9.1572    8.7688   25.3615 C   0  0  0  0  0  0  0  0  0  0  0  0
    5.3658    5.1474   21.9838 C   0  0  0  0  0  0  0  0  0  0  0  0
    4.2397    5.0611   22.7722 C   0  0  0  0  0  0  0  0  0  0  0  0
    3.9771    3.9585   23.5624 C   0  0  0  0  0  0  0  0  0  0  0  0
    4.8358    2.8854   23.5999 C   0  0  0  0  0  0  0  0  0  0  0  0
    5.9711    2.9522   22.8126 C   0  0  0  0  0  0  0  0  0  0  0  0
    6.2205    4.0636   22.0275 C   0  0  0  0  0  0  0  0  0  0  0  0
    5.1892    5.6116   18.8798 O   0  0  0  0  0  0  0  0  0  0  0  0
    5.7350    4.5580   18.1030 C   0  0  0  0  0  0  0  0  0  0  0  0
    4.9215    3.3588   18.0730 C   0  0  0  0  0  0  0  0  0  0  0  0
    4.7946    2.5681   19.2366 C   0  0  0  0  0  0  0  0  0  0  0  0
    4.0431    1.4337   19.2787 C   0  0  0  0  0  0  0  0  0  0  0  0
    3.3733    1.0261   18.1517 C   0  0  0  0  0  0  0  0  0  0  0  0
    3.4862    1.7836   17.0101 C   0  0  0  0  0  0  0  0  0  0  0  0
    4.2525    2.9499   16.9508 C   0  0  0  0  0  0  0  0  0  0  0  0
    3.9100    0.5960   20.5084 C   0  0  0  0  0  0  0  0  0  0  0  0
    5.1129    0.2833   21.0436 F   0  0  0  0  0  0  0  0  0  0  0  0
    3.1855   -0.5250   20.1282 F   0  0  0  0  0  0  0  0  0  0  0  0
    3.0947    1.2980   21.3824 F   0  0  0  0  0  0  0  0  0  0  0  0
    2.7260    1.2997   15.8137 C   0  0  0  0  0  0  0  0  0  0  0  0
    2.3176   -0.0256   16.0137 F   0  0  0  0  0  0  0  0  0  0  0  0
    1.6044    2.0813   15.7130 F   0  0  0  0  0  0  0  0  0  0  0  0
    3.4698    1.3325   14.6527 F   0  0  0  0  0  0  0  0  0  0  0  0
 10 11  3  0  0  0
 11  9  1  0  0  0
  9  3  1  0  0  0
  3  4  1  0  0  0
  4  5  1  0  0  0
  5  6  1  0  0  0
  6  2  1  0  0  0
  2  1  1  0  0  0
  1 18  1  0  0  0
 18 19  1  0  0  0
 19 20  1  0  0  0
 20 21  2  0  0  0
 21 22  1  0  0  0
 22 26  1  0  0  0
 26 27  1  0  0  0
 26 28  1  0  0  0
 26 29  1  0  0  0
 22 23  2  0  0  0
 23 24  1  0  0  0
 24 30  1  0  0  0
 30 31  1  0  0  0
 30 32  1  0  0  0
 30 33  1  0  0  0
 24 25  2  0  0  0
  2 12  1  0  0  0
 12 13  2  0  0  0
 13 14  1  0  0  0
 14 15  2  0  0  0
 15 16  1  0  0  0
 16 17  2  0  0  0
  6  7  1  0  0  0
  7  8  1  0  0  0
  8  3  1  0  0  0
 25 20  1  0  0  0
 17 12  1  0  0  0
M  END
> <minimizedAffinity>
-8.63363

> <CNNscore>
0.4408939183

> <CNNaffinity>
6.2300643921

> <CNN_VS>
2.7467975616

> <CNNaffinity_variance>
0.1847318411

$$$$
[H]c1c([H])c([H])c(C([H])(N2C([H])([H])C([H])([H])N(C([H])([H])C#N)C([H])([H])C2([H])[H])C([H])([H])OC([H])([H])c2c([H])c(C(F)(F)F)c([H])c(C(F)(F)F)c2[H])c([H])c1[H]


 33 35  0  0  0  0  0  0  0  0999 V2000
    3.3300    6.2448   16.4604 C   0  0  0  0  0  0  0  0  0  0  0  0
    3.6377    5.5390   15.1831 C   0  0  0  0  0  0  0  0  0  0  0  0
    2.1812    7.3173   11.6577 N   0  0  0  0  0  0  0  0  0  0  0  0
    1.4219    7.4332   12.8497 C   0  0  0  0  0  0  0  0  0  0  0  0
    1.7593    6.3222   13.8402 C   0  0  0  0  0  0  0  0  0  0  0  0
    3.1543    6.2483   14.0689 N   0  0  0  0  0  0  0  0  0  0  0  0
    4.0190    6.3122   12.9435 C   0  0  0  0  0  0  0  0  0  0  0  0
    3.1901    6.3142   11.6872 C   0  0  0  0  0  0  0  0  0  0  0  0
    1.5253    7.5508   10.4259 C   0  0  0  0  0  0  0  0  0  0  0  0
    3.2890    8.3951    8.6378 N   0  0  0  0  0  0  0  0  0  0  0  0
    2.5121    8.0125    9.4366 C   0  0  0  0  0  0  0  0  0  0  0  0
    3.1895    4.1274   15.2822 C   0  0  0  0  0  0  0  0  0  0  0  0
    2.3615    3.6493   16.2736 C   0  0  0  0  0  0  0  0  0  0  0  0
    1.9989    2.3182   16.3516 C   0  0  0  0  0  0  0  0  0  0  0  0
    2.4523    1.3993   15.4349 C   0  0  0  0  0  0  0  0  0  0  0  0
    3.2828    1.8609   14.4298 C   0  0  0  0  0  0  0  0  0  0  0  0
    3.6376    3.1965   14.3658 C   0  0  0  0  0  0  0  0  0  0  0  0
    4.3731    6.2937   17.3816 O   0  0  0  0  0  0  0  0  0  0  0  0
    3.7021    6.3127   18.6309 C   0  0  0  0  0  0  0  0  0  0  0  0
    3.9133    5.1267   19.4369 C   0  0  0  0  0  0  0  0  0  0  0  0
    3.9324    5.2301   20.8455 C   0  0  0  0  0  0  0  0  0  0  0  0
    4.1206    4.1565   21.6612 C   0  0  0  0  0  0  0  0  0  0  0  0
    4.3010    2.9129   21.1082 C   0  0  0  0  0  0  0  0  0  0  0  0
    4.2858    2.7940   19.7387 C   0  0  0  0  0  0  0  0  0  0  0  0
    4.0934    3.8854   18.8885 C   0  0  0  0  0  0  0  0  0  0  0  0
    4.1428    4.2655   23.1508 C   0  0  0  0  0  0  0  0  0  0  0  0
    2.9047    4.1623   23.6870 F   0  0  0  0  0  0  0  0  0  0  0  0
    4.7494    5.4812   23.4341 F   0  0  0  0  0  0  0  0  0  0  0  0
    5.0141    3.2894   23.6087 F   0  0  0  0  0  0  0  0  0  0  0  0
    4.4759    1.4136   19.1894 C   0  0  0  0  0  0  0  0  0  0  0  0
    5.4504    0.7355   19.9336 F   0  0  0  0  0  0  0  0  0  0  0  0
    3.2838    0.7557   19.3473 F   0  0  0  0  0  0  0  0  0  0  0  0
    4.8842    1.4090   17.8720 F   0  0  0  0  0  0  0  0  0  0  0  0
 10 11  3  0  0  0
 11  9  1  0  0  0
  9  3  1  0  0  0
  3  4  1  0  0  0
  4  5  1  0  0  0
  5  6  1  0  0  0
  6  2  1  0  0  0
  2  1  1  0  0  0
  1 18  1  0  0  0
 18 19  1  0  0  0
 19 20  1  0  0  0
 20 21  2  0  0  0
 21 22  1  0  0  0
 22 26  1  0  0  0
 26 27  1  0  0  0
 26 28  1  0  0  0
 26 29  1  0  0  0
 22 23  2  0  0  0
 23 24  1  0  0  0
 24 30  1  0  0  0
 30 31  1  0  0  0
 30 32  1  0  0  0
 30 33  1  0  0  0
 24 25  2  0  0  0
  2 12  1  0  0  0
 12 13  2  0  0  0
 13 14  1  0  0  0
 14 15  2  0  0  0
 15 16  1  0  0  0
 16 17  2  0  0  0
  6  7  1  0  0  0
  7  8  1  0  0  0
  8  3  1  0  0  0
 25 20  1  0  0  0
 17 12  1  0  0  0
M  END
> <minimizedAffinity>
-7.42814

> <CNNscore>
0.4396302402

> <CNNaffinity>
5.7853546143

> <CNN_VS>
2.5434167385

> <CNNaffinity_variance>
0.4271477759

$$$$
[H]c1c([H])c([H])c(C([H])(N2C([H])([H])C([H])([H])N(C([H])([H])C#N)C([H])([H])C2([H])[H])C([H])([H])OC([H])([H])c2c([H])c(C(F)(F)F)c([H])c(C(F)(F)F)c2[H])c([H])c1[H]


 33 35  0  0  0  0  0  0  0  0999 V2000
    3.0406    6.4539   14.7747 C   0  0  0  0  0  0  0  0  0  0  0  0
    2.6302    5.4727   13.7292 C   0  0  0  0  0  0  0  0  0  0  0  0
    5.4191    5.8251   10.5971 N   0  0  0  0  0  0  0  0  0  0  0  0
    5.0020    4.5320   11.0028 C   0  0  0  0  0  0  0  0  0  0  0  0
    4.4719    4.5368   12.4340 C   0  0  0  0  0  0  0  0  0  0  0  0
    3.4754    5.5273   12.6064 N   0  0  0  0  0  0  0  0  0  0  0  0
    3.7188    6.8191   12.0675 C   0  0  0  0  0  0  0  0  0  0  0  0
    5.1200    6.8664   11.5198 C   0  0  0  0  0  0  0  0  0  0  0  0
    6.6169    5.9343    9.8519 C   0  0  0  0  0  0  0  0  0  0  0  0
    8.4942    6.9625   11.4138 N   0  0  0  0  0  0  0  0  0  0  0  0
    7.6671    6.5031   10.7117 C   0  0  0  0  0  0  0  0  0  0  0  0
    1.1826    5.6356   13.4445 C   0  0  0  0  0  0  0  0  0  0  0  0
    0.4115    6.6659   13.9355 C   0  0  0  0  0  0  0  0  0  0  0  0
   -0.9427    6.7593   13.6777 C   0  0  0  0  0  0  0  0  0  0  0  0
   -1.5909    5.8190   12.9121 C   0  0  0  0  0  0  0  0  0  0  0  0
   -0.8327    4.7780   12.4076 C   0  0  0  0  0  0  0  0  0  0  0  0
    0.5221    4.6978   12.6754 C   0  0  0  0  0  0  0  0  0  0  0  0
    4.0051    6.0020   15.6718 O   0  0  0  0  0  0  0  0  0  0  0  0
    3.2532    5.7160   16.8399 C   0  0  0  0  0  0  0  0  0  0  0  0
    3.4782    4.3907   17.3818 C   0  0  0  0  0  0  0  0  0  0  0  0
    4.1093    4.2438   18.6369 C   0  0  0  0  0  0  0  0  0  0  0  0
    4.3464    3.0298   19.2055 C   0  0  0  0  0  0  0  0  0  0  0  0
    3.9623    1.8892   18.5449 C   0  0  0  0  0  0  0  0  0  0  0  0
    3.3470    2.0135   17.3218 C   0  0  0  0  0  0  0  0  0  0  0  0
    3.0963    3.2515   16.7255 C   0  0  0  0  0  0  0  0  0  0  0  0
    5.0156    2.8738   20.5319 C   0  0  0  0  0  0  0  0  0  0  0  0
    4.1302    2.9027   21.5548 F   0  0  0  0  0  0  0  0  0  0  0  0
    5.9537    3.8938   20.6068 F   0  0  0  0  0  0  0  0  0  0  0  0
    5.7401    1.6933   20.4762 F   0  0  0  0  0  0  0  0  0  0  0  0
    2.9387    0.7384   16.6507 C   0  0  0  0  0  0  0  0  0  0  0  0
    1.7812    0.2316   17.2562 F   0  0  0  0  0  0  0  0  0  0  0  0
    2.6379    1.0523   15.3508 F   0  0  0  0  0  0  0  0  0  0  0  0
    3.9059   -0.2423   16.7221 F   0  0  0  0  0  0  0  0  0  0  0  0
 10 11  3  0  0  0
 11  9  1  0  0  0
  9  3  1  0  0  0
  3  4  1  0  0  0
  4  5  1  0  0  0
  5  6  1  0  0  0
  6  2  1  0  0  0
  2  1  1  0  0  0
  1 18  1  0  0  0
 18 19  1  0  0  0
 19 20  1  0  0  0
 20 21  2  0  0  0
 21 22  1  0  0  0
 22 26  1  0  0  0
 26 27  1  0  0  0
 26 28  1  0  0  0
 26 29  1  0  0  0
 22 23  2  0  0  0
 23 24  1  0  0  0
 24 30  1  0  0  0
 30 31  1  0  0  0
 30 32  1  0  0  0
 30 33  1  0  0  0
 24 25  2  0  0  0
  2 12  1  0  0  0
 12 13  2  0  0  0
 13 14  1  0  0  0
 14 15  2  0  0  0
 15 16  1  0  0  0
 16 17  2  0  0  0
  6  7  1  0  0  0
  7  8  1  0  0  0
  8  3  1  0  0  0
 25 20  1  0  0  0
 17 12  1  0  0  0
M  END
> <minimizedAffinity>
-7.05265

> <CNNscore>
0.3932938278

> <CNNaffinity>
5.7625446320

> <CNN_VS>
2.2663731575

> <CNNaffinity_variance>
0.5036286116

$$$$
[H]c1c([H])c([H])c(C([H])(N2C([H])([H])C([H])([H])N(C([H])([H])C#N)C([H])([H])C2([H])[H])C([H])([H])OC([H])([H])c2c([H])c(C(F)(F)F)c([H])c(C(F)(F)F)c2[H])c([H])c1[H]


 33 35  0  0  0  0  0  0  0  0999 V2000
    4.5827    4.0630   16.9388 C   0  0  0  0  0  0  0  0  0  0  0  0
    4.4710    5.2512   16.0443 C   0  0  0  0  0  0  0  0  0  0  0  0
    4.2739    8.7138   18.4283 N   0  0  0  0  0  0  0  0  0  0  0  0
    4.3272    8.8531   17.0182 C   0  0  0  0  0  0  0  0  0  0  0  0
    4.9418    7.6232   16.3556 C   0  0  0  0  0  0  0  0  0  0  0  0
    4.2934    6.4379   16.7780 N   0  0  0  0  0  0  0  0  0  0  0  0
    4.0232    6.2831   18.1641 C   0  0  0  0  0  0  0  0  0  0  0  0
    4.6443    7.4294   18.9163 C   0  0  0  0  0  0  0  0  0  0  0  0
    4.6087    9.8372   19.2207 C   0  0  0  0  0  0  0  0  0  0  0  0
    4.9077    9.0699   21.7393 N   0  0  0  0  0  0  0  0  0  0  0  0
    4.7641    9.4085   20.6200 C   0  0  0  0  0  0  0  0  0  0  0  0
    3.4462    4.9871   15.0035 C   0  0  0  0  0  0  0  0  0  0  0  0
    2.2736    5.6989   14.8780 C   0  0  0  0  0  0  0  0  0  0  0  0
    1.3273    5.3953   13.9181 C   0  0  0  0  0  0  0  0  0  0  0  0
    1.5130    4.3582   13.0347 C   0  0  0  0  0  0  0  0  0  0  0  0
    2.6859    3.6333   13.1430 C   0  0  0  0  0  0  0  0  0  0  0  0
    3.6233    3.9490   14.1102 C   0  0  0  0  0  0  0  0  0  0  0  0
    3.3761    3.5672   17.4262 O   0  0  0  0  0  0  0  0  0  0  0  0
    3.7407    2.3139   17.9810 C   0  0  0  0  0  0  0  0  0  0  0  0
    4.3316    2.3979   19.3017 C   0  0  0  0  0  0  0  0  0  0  0  0
    3.9223    3.4172   20.1898 C   0  0  0  0  0  0  0  0  0  0  0  0
    4.4324    3.5502   21.4450 C   0  0  0  0  0  0  0  0  0  0  0  0
    5.3858    2.6646   21.8829 C   0  0  0  0  0  0  0  0  0  0  0  0
    5.7962    1.6665   21.0313 C   0  0  0  0  0  0  0  0  0  0  0  0
    5.2824    1.5163   19.7411 C   0  0  0  0  0  0  0  0  0  0  0  0
    4.0014    4.6291   22.3840 C   0  0  0  0  0  0  0  0  0  0  0  0
    3.0622    4.1980   23.2575 F   0  0  0  0  0  0  0  0  0  0  0  0
    3.5516    5.6711   21.5852 F   0  0  0  0  0  0  0  0  0  0  0  0
    5.1479    5.0953   23.0082 F   0  0  0  0  0  0  0  0  0  0  0  0
    6.8294    0.7218   21.5638 C   0  0  0  0  0  0  0  0  0  0  0  0
    6.9489    0.8802   22.9508 F   0  0  0  0  0  0  0  0  0  0  0  0
    6.3726   -0.5467   21.3168 F   0  0  0  0  0  0  0  0  0  0  0  0
    8.0786    0.9240   21.0153 F   0  0  0  0  0  0  0  0  0  0  0  0
 10 11  3  0  0  0
 11  9  1  0  0  0
  9  3  1  0  0  0
  3  4  1  0  0  0
  4  5  1  0  0  0
  5  6  1  0  0  0
  6  2  1  0  0  0
  2  1  1  0  0  0
  1 18  1  0  0  0
 18 19  1  0  0  0
 19 20  1  0  0  0
 20 21  2  0  0  0
 21 22  1  0  0  0
 22 26  1  0  0  0
 26 27  1  0  0  0
 26 28  1  0  0  0
 26 29  1  0  0  0
 22 23  2  0  0  0
 23 24  1  0  0  0
 24 30  1  0  0  0
 30 31  1  0  0  0
 30 32  1  0  0  0
 30 33  1  0  0  0
 24 25  2  0  0  0
  2 12  1  0  0  0
 12 13  2  0  0  0
 13 14  1  0  0  0
 14 15  2  0  0  0
 15 16  1  0  0  0
 16 17  2  0  0  0
  6  7  1  0  0  0
  7  8  1  0  0  0
  8  3  1  0  0  0
 25 20  1  0  0  0
 17 12  1  0  0  0
M  END
> <minimizedAffinity>
-7.37334

> <CNNscore>
0.3897969723

> <CNNaffinity>
5.9496202469

> <CNN_VS>
2.3191440105

> <CNNaffinity_variance>
0.8324435353

$$$$
[H]c1c([H])c([H])c(C([H])(N2C([H])([H])C([H])([H])N(C([H])([H])C#N)C([H])([H])C2([H])[H])C([H])([H])OC([H])([H])c2c([H])c(C(F)(F)F)c([H])c(C(F)(F)F)c2[H])c([H])c1[H]


 33 35  0  0  0  0  0  0  0  0999 V2000
    4.4743    4.2666   15.8912 C   0  0  0  0  0  0  0  0  0  0  0  0
    3.9303    5.5413   15.3402 C   0  0  0  0  0  0  0  0  0  0  0  0
    3.8162    8.2876   18.5272 N   0  0  0  0  0  0  0  0  0  0  0  0
    4.1393    8.7560   17.2284 C   0  0  0  0  0  0  0  0  0  0  0  0
    4.6771    7.6338   16.3448 C   0  0  0  0  0  0  0  0  0  0  0  0
    3.7989    6.5235   16.3383 N   0  0  0  0  0  0  0  0  0  0  0  0
    3.2667    6.0868   17.5810 C   0  0  0  0  0  0  0  0  0  0  0  0
    3.9035    6.8769   18.6926 C   0  0  0  0  0  0  0  0  0  0  0  0
    4.1639    9.0996   19.6326 C   0  0  0  0  0  0  0  0  0  0  0  0
    6.7195    8.6987   20.2065 N   0  0  0  0  0  0  0  0  0  0  0  0
    5.5819    8.8821   19.9609 C   0  0  0  0  0  0  0  0  0  0  0  0
    2.6981    5.2541   14.5640 C   0  0  0  0  0  0  0  0  0  0  0  0
    2.4810    4.0864   13.8666 C   0  0  0  0  0  0  0  0  0  0  0  0
    1.3351    3.8746   13.1242 C   0  0  0  0  0  0  0  0  0  0  0  0
    0.3482    4.8287   13.0454 C   0  0  0  0  0  0  0  0  0  0  0  0
    0.5467    6.0073   13.7415 C   0  0  0  0  0  0  0  0  0  0  0  0
    1.7000    6.2048   14.4796 C   0  0  0  0  0  0  0  0  0  0  0  0
    3.6201    3.5724   16.7442 O   0  0  0  0  0  0  0  0  0  0  0  0
    4.4473    2.5457   17.2668 C   0  0  0  0  0  0  0  0  0  0  0  0
    4.5434    2.5384   18.7130 C   0  0  0  0  0  0  0  0  0  0  0  0
    3.9452    1.4928   19.4505 C   0  0  0  0  0  0  0  0  0  0  0  0
    4.0020    1.4224   20.8089 C   0  0  0  0  0  0  0  0  0  0  0  0
    4.6648    2.4007   21.5078 C   0  0  0  0  0  0  0  0  0  0  0  0
    5.2526    3.4263   20.8059 C   0  0  0  0  0  0  0  0  0  0  0  0
    5.2038    3.5125   19.4126 C   0  0  0  0  0  0  0  0  0  0  0  0
    3.3678    0.3179   21.5895 C   0  0  0  0  0  0  0  0  0  0  0  0
    2.0491    0.1921   21.3137 F   0  0  0  0  0  0  0  0  0  0  0  0
    3.6103    0.6082   22.9248 F   0  0  0  0  0  0  0  0  0  0  0  0
    4.0909   -0.8318   21.3124 F   0  0  0  0  0  0  0  0  0  0  0  0
    5.9719    4.4598   21.6169 C   0  0  0  0  0  0  0  0  0  0  0  0
    6.4462    5.4771   20.7782 F   0  0  0  0  0  0  0  0  0  0  0  0
    5.0502    5.0063   22.4716 F   0  0  0  0  0  0  0  0  0  0  0  0
    7.0551    3.9499   22.3018 F   0  0  0  0  0  0  0  0  0  0  0  0
 10 11  3  0  0  0
 11  9  1  0  0  0
  9  3  1  0  0  0
  3  4  1  0  0  0
  4  5  1  0  0  0
  5  6  1  0  0  0
  6  2  1  0  0  0
  2  1  1  0  0  0
  1 18  1  0  0  0
 18 19  1  0  0  0
 19 20  1  0  0  0
 20 21  2  0  0  0
 21 22  1  0  0  0
 22 26  1  0  0  0
 26 27  1  0  0  0
 26 28  1  0  0  0
 26 29  1  0  0  0
 22 23  2  0  0  0
 23 24  1  0  0  0
 24 30  1  0  0  0
 30 31  1  0  0  0
 30 32  1  0  0  0
 30 33  1  0  0  0
 24 25  2  0  0  0
  2 12  1  0  0  0
 12 13  2  0  0  0
 13 14  1  0  0  0
 14 15  2  0  0  0
 15 16  1  0  0  0
 16 17  2  0  0  0
  6  7  1  0  0  0
  7  8  1  0  0  0
  8  3  1  0  0  0
 25 20  1  0  0  0
 17 12  1  0  0  0
M  END
> <minimizedAffinity>
-7.64455

> <CNNscore>
0.3852962554

> <CNNaffinity>
6.0878272057

> <CNN_VS>
2.3456170559

> <CNNaffinity_variance>
0.6078131795

$$$$
[H]c1c([H])c([H])c(C([H])(N2C([H])([H])C([H])([H])N(C([H])([H])C#N)C([H])([H])C2([H])[H])C([H])([H])OC([H])([H])c2c([H])c(C(F)(F)F)c([H])c(C(F)(F)F)c2[H])c([H])c1[H]


 33 35  0  0  0  0  0  0  0  0999 V2000
    2.8036    4.1331   14.2922 C   0  0  0  0  0  0  0  0  0  0  0  0
    2.0659    4.0865   12.9968 C   0  0  0  0  0  0  0  0  0  0  0  0
    4.8684    4.6854    9.9146 N   0  0  0  0  0  0  0  0  0  0  0  0
    3.6173    4.0965    9.6003 C   0  0  0  0  0  0  0  0  0  0  0  0
    2.9772    3.4511   10.8263 C   0  0  0  0  0  0  0  0  0  0  0  0
    2.9122    4.3621   11.9078 N   0  0  0  0  0  0  0  0  0  0  0  0
    4.0641    5.1438   12.1915 C   0  0  0  0  0  0  0  0  0  0  0  0
    5.1919    4.6973   11.3004 C   0  0  0  0  0  0  0  0  0  0  0  0
    5.9310    4.5202    8.9952 C   0  0  0  0  0  0  0  0  0  0  0  0
    6.7046    1.9860    9.0171 N   0  0  0  0  0  0  0  0  0  0  0  0
    6.3685    3.1152    9.0145 C   0  0  0  0  0  0  0  0  0  0  0  0
    0.8534    4.9374   13.0918 C   0  0  0  0  0  0  0  0  0  0  0  0
    0.7481    6.0410   13.9091 C   0  0  0  0  0  0  0  0  0  0  0  0
   -0.4135    6.7841   13.9967 C   0  0  0  0  0  0  0  0  0  0  0  0
   -1.5300    6.4535   13.2655 C   0  0  0  0  0  0  0  0  0  0  0  0
   -1.4428    5.3498   12.4365 C   0  0  0  0  0  0  0  0  0  0  0  0
   -0.2730    4.6153   12.3606 C   0  0  0  0  0  0  0  0  0  0  0  0
    2.4767    3.1305   15.2016 O   0  0  0  0  0  0  0  0  0  0  0  0
    3.7323    2.5440   15.5032 C   0  0  0  0  0  0  0  0  0  0  0  0
    4.1765    2.7587   16.8661 C   0  0  0  0  0  0  0  0  0  0  0  0
    4.8073    3.9734   17.2151 C   0  0  0  0  0  0  0  0  0  0  0  0
    5.2438    4.2417   18.4764 C   0  0  0  0  0  0  0  0  0  0  0  0
    5.0715    3.3032   19.4636 C   0  0  0  0  0  0  0  0  0  0  0  0
    4.4598    2.1150   19.1414 C   0  0  0  0  0  0  0  0  0  0  0  0
    4.0060    1.8249   17.8526 C   0  0  0  0  0  0  0  0  0  0  0  0
    5.9128    5.5252   18.8457 C   0  0  0  0  0  0  0  0  0  0  0  0
    6.3035    5.5409   20.1411 F   0  0  0  0  0  0  0  0  0  0  0  0
    5.0007    6.5284   18.5494 F   0  0  0  0  0  0  0  0  0  0  0  0
    6.9660    5.6946   17.9605 F   0  0  0  0  0  0  0  0  0  0  0  0
    4.2871    1.1322   20.2583 C   0  0  0  0  0  0  0  0  0  0  0  0
    3.6462    1.7498   21.3405 F   0  0  0  0  0  0  0  0  0  0  0  0
    3.4692    0.1373   19.7891 F   0  0  0  0  0  0  0  0  0  0  0  0
    5.4837    0.6256   20.7206 F   0  0  0  0  0  0  0  0  0  0  0  0
 10 11  3  0  0  0
 11  9  1  0  0  0
  9  3  1  0  0  0
  3  4  1  0  0  0
  4  5  1  0  0  0
  5  6  1  0  0  0
  6  2  1  0  0  0
  2  1  1  0  0  0
  1 18  1  0  0  0
 18 19  1  0  0  0
 19 20  1  0  0  0
 20 21  2  0  0  0
 21 22  1  0  0  0
 22 26  1  0  0  0
 26 27  1  0  0  0
 26 28  1  0  0  0
 26 29  1  0  0  0
 22 23  2  0  0  0
 23 24  1  0  0  0
 24 30  1  0  0  0
 30 31  1  0  0  0
 30 32  1  0  0  0
 30 33  1  0  0  0
 24 25  2  0  0  0
  2 12  1  0  0  0
 12 13  2  0  0  0
 13 14  1  0  0  0
 14 15  2  0  0  0
 15 16  1  0  0  0
 16 17  2  0  0  0
  6  7  1  0  0  0
  7  8  1  0  0  0
  8  3  1  0  0  0
 25 20  1  0  0  0
 17 12  1  0  0  0
M  END
> <minimizedAffinity>
-6.97078

> <CNNscore>
0.3749801517

> <CNNaffinity>
5.7965383530

> <CNN_VS>
2.1735868454

> <CNNaffinity_variance>
0.5672231317

$$$$
[H]OC(=O)c1c([H])c([H])c([H])c(O[H])c1C(=O)c1c(O[H])c([H])c(C(=O)OC([H])([H])[C@]2([H])C([H])([H])C([H])([H])C([H])([H])[C@@]2([H])N([H])C(=O)c2c([H])c([H])c(O[H])c([H])c2[H])c([H])c1O[H]


 45 48  0  0  0  0  0  0  0  0999 V2000
    3.4135    1.7920   17.3068 C   0  0  0  0  0  0  0  0  0  0  0  0
    2.5118    1.4110   16.3588 C   0  0  0  0  0  0  0  0  0  0  0  0
    2.3712    2.1220   15.1588 C   0  0  0  0  0  0  0  0  0  0  0  0
    1.4358    1.6443   14.2739 O   0  0  0  0  0  0  0  0  0  0  0  0
    3.1341    3.2352   14.8839 C   0  0  0  0  0  0  0  0  0  0  0  0
    4.0583    3.6205   15.8652 C   0  0  0  0  0  0  0  0  0  0  0  0
    4.8885    4.7448   15.7025 O   0  0  0  0  0  0  0  0  0  0  0  0
    4.1746    2.9025   17.0316 C   0  0  0  0  0  0  0  0  0  0  0  0
    1.1717    1.9406   13.3820 H   0  0  0  0  0  0  0  0  0  0  0  0
    5.5341    4.9979   16.4082 H   0  0  0  0  0  0  0  0  0  0  0  0
    3.5748    1.0486   18.5773 C   0  0  0  0  0  0  0  0  0  0  0  0
    3.0598   -0.0745   18.6521 O   0  0  0  0  0  0  0  0  0  0  0  0
    4.2408    1.5632   19.5902 O   0  0  0  0  0  0  0  0  0  0  0  0
    4.8406    2.6824   20.0318 C   0  0  0  0  0  0  0  0  0  0  0  0
    5.2438    3.9805   22.0404 C   0  0  0  0  0  0  0  0  0  0  0  0
    4.3595    3.6476   23.2176 C   0  0  0  0  0  0  0  0  0  0  0  0
    4.4101    2.1753   23.4435 C   0  0  0  0  0  0  0  0  0  0  0  0
    5.1421    1.5570   22.2600 C   0  0  0  0  0  0  0  0  0  0  0  0
    5.5051    2.6350   21.3546 C   0  0  0  0  0  0  0  0  0  0  0  0
    6.3220    6.1010   20.7027 O   0  0  0  0  0  0  0  0  0  0  0  0
    6.9672    5.7120   21.7200 C   0  0  0  0  0  0  0  0  0  0  0  0
    6.4734    4.6269   22.4552 N   0  0  0  0  0  0  0  0  0  0  0  0
    6.9944    4.2833   23.3035 H   0  0  0  0  0  0  0  0  0  0  0  0
    8.1764    6.4052   22.0702 C   0  0  0  0  0  0  0  0  0  0  0  0
    8.3122    7.7470   21.8138 C   0  0  0  0  0  0  0  0  0  0  0  0
    9.4839    8.4307   22.1482 C   0  0  0  0  0  0  0  0  0  0  0  0
   10.5159    7.7479   22.7435 C   0  0  0  0  0  0  0  0  0  0  0  0
   11.6956    8.4131   23.0859 O   0  0  0  0  0  0  0  0  0  0  0  0
   10.3774    6.3996   23.0004 C   0  0  0  0  0  0  0  0  0  0  0  0
    9.2270    5.7180   22.6744 C   0  0  0  0  0  0  0  0  0  0  0  0
   11.8175    8.8442   23.9834 H   0  0  0  0  0  0  0  0  0  0  0  0
    2.9613    4.1174   13.7764 C   0  0  0  0  0  0  0  0  0  0  0  0
    3.8664    3.9352   12.8416 O   0  0  0  0  0  0  0  0  0  0  0  0
    1.9898    5.1403   13.4890 C   0  0  0  0  0  0  0  0  0  0  0  0
    0.9722    4.7165   12.5955 C   0  0  0  0  0  0  0  0  0  0  0  0
    0.9910    3.4167   12.1097 O   0  0  0  0  0  0  0  0  0  0  0  0
   -0.0307    5.5428   12.1927 C   0  0  0  0  0  0  0  0  0  0  0  0
   -0.0212    6.8222   12.6910 C   0  0  0  0  0  0  0  0  0  0  0  0
    0.9424    7.2573   13.5451 C   0  0  0  0  0  0  0  0  0  0  0  0
    2.0022    6.4016   13.9720 C   0  0  0  0  0  0  0  0  0  0  0  0
    0.2644    3.1287   11.4779 H   0  0  0  0  0  0  0  0  0  0  0  0
    3.0861    7.0276   14.6949 C   0  0  0  0  0  0  0  0  0  0  0  0
    4.1007    7.4096   14.0176 O   0  0  0  0  0  0  0  0  0  0  0  0
    3.1663    7.2539   16.0230 O   0  0  0  0  0  0  0  0  0  0  0  0
    3.9834    7.4858   16.5520 H   0  0  0  0  0  0  0  0  0  0  0  0
 20 21  2  0  0  0
 21 22  1  0  0  0
 22 15  1  0  0  0
 15 16  1  0  0  0
 16 17  1  0  0  0
 17 18  1  0  0  0
 18 19  1  0  0  0
 19 14  1  0  0  0
 14 13  1  0  0  0
 13 11  1  0  0  0
 11 12  2  0  0  0
 11  1  1  0  0  0
  1  2  2  0  0  0
  2  3  1  0  0  0
  3  4  1  0  0  0
  3  5  2  0  0  0
  5 32  1  0  0  0
 32 33  2  0  0  0
 32 34  1  0  0  0
 34 35  2  0  0  0
 35 36  1  0  0  0
 35 37  1  0  0  0
 37 38  2  0  0  0
 38 39  1  0  0  0
 39 40  2  0  0  0
 40 42  1  0  0  0
 42 43  2  0  0  0
 42 44  1  0  0  0
  5  6  1  0  0  0
  6  7  1  0  0  0
  6  8  2  0  0  0
 21 24  1  0  0  0
 24 25  2  0  0  0
 25 26  1  0  0  0
 26 27  2  0  0  0
 27 28  1  0  0  0
 27 29  1  0  0  0
 29 30  2  0  0  0
 19 15  1  0  0  0
  8  1  1  0  0  0
 30 24  1  0  0  0
 40 34  1  0  0  0
 22 23  1  0  0  0
  4  9  1  0  0  0
 36 41  1  0  0  0
 44 45  1  0  0  0
  7 10  1  0  0  0
 28 31  1  0  0  0
M  END
> <minimizedAffinity>
-9.04575

> <CNNscore>
0.5622109175

> <CNNaffinity>
6.3599839211

> <CNN_VS>
3.5756523609

> <CNNaffinity_variance>
0.1437141150

$$$$
[H]OC(=O)c1c([H])c([H])c([H])c(O[H])c1C(=O)c1c(O[H])c([H])c(C(=O)OC([H])([H])[C@]2([H])C([H])([H])C([H])([H])C([H])([H])[C@@]2([H])N([H])C(=O)c2c([H])c([H])c(O[H])c([H])c2[H])c([H])c1O[H]


 45 48  0  0  0  0  0  0  0  0999 V2000
    3.0869    2.0721   16.4525 C   0  0  0  0  0  0  0  0  0  0  0  0
    2.9491    1.7296   15.1408 C   0  0  0  0  0  0  0  0  0  0  0  0
    2.6095    2.6826   14.1703 C   0  0  0  0  0  0  0  0  0  0  0  0
    2.5036    2.2260   12.8794 O   0  0  0  0  0  0  0  0  0  0  0  0
    2.3990    4.0040   14.4964 C   0  0  0  0  0  0  0  0  0  0  0  0
    2.5418    4.3471   15.8483 C   0  0  0  0  0  0  0  0  0  0  0  0
    2.3449    5.6633   16.3050 O   0  0  0  0  0  0  0  0  0  0  0  0
    2.8771    3.3908   16.7772 C   0  0  0  0  0  0  0  0  0  0  0  0
    2.3071    2.6845   12.0402 H   0  0  0  0  0  0  0  0  0  0  0  0
    2.4516    5.8827   17.2638 H   0  0  0  0  0  0  0  0  0  0  0  0
    3.4482    1.0767   17.4876 C   0  0  0  0  0  0  0  0  0  0  0  0
    3.0495   -0.0842   17.3284 O   0  0  0  0  0  0  0  0  0  0  0  0
    4.1665    1.4138   18.5386 O   0  0  0  0  0  0  0  0  0  0  0  0
    4.1675    1.4411   19.8828 C   0  0  0  0  0  0  0  0  0  0  0  0
    4.7618    3.5981   20.8191 C   0  0  0  0  0  0  0  0  0  0  0  0
    4.6639    3.7033   22.3217 C   0  0  0  0  0  0  0  0  0  0  0  0
    5.4183    2.5678   22.9239 C   0  0  0  0  0  0  0  0  0  0  0  0
    5.7919    1.6179   21.7938 C   0  0  0  0  0  0  0  0  0  0  0  0
    5.2632    2.1733   20.5587 C   0  0  0  0  0  0  0  0  0  0  0  0
    3.9053    5.5791   19.1488 O   0  0  0  0  0  0  0  0  0  0  0  0
    5.1428    5.5866   19.4151 C   0  0  0  0  0  0  0  0  0  0  0  0
    5.6538    4.5978   20.2653 N   0  0  0  0  0  0  0  0  0  0  0  0
    6.6806    4.5817   20.4989 H   0  0  0  0  0  0  0  0  0  0  0  0
    5.9628    6.6118   18.8304 C   0  0  0  0  0  0  0  0  0  0  0  0
    5.6332    7.1635   17.6174 C   0  0  0  0  0  0  0  0  0  0  0  0
    6.4241    8.1593   17.0386 C   0  0  0  0  0  0  0  0  0  0  0  0
    7.5494    8.5927   17.6954 C   0  0  0  0  0  0  0  0  0  0  0  0
    8.3534    9.5875   17.1339 O   0  0  0  0  0  0  0  0  0  0  0  0
    7.8789    8.0370   18.9143 C   0  0  0  0  0  0  0  0  0  0  0  0
    7.1058    7.0557   19.4919 C   0  0  0  0  0  0  0  0  0  0  0  0
    8.1958   10.5608   17.3186 H   0  0  0  0  0  0  0  0  0  0  0  0
    1.8971    5.0136   13.6226 C   0  0  0  0  0  0  0  0  0  0  0  0
    2.8065    5.9105   13.3148 O   0  0  0  0  0  0  0  0  0  0  0  0
    0.6093    5.2214   13.0134 C   0  0  0  0  0  0  0  0  0  0  0  0
   -0.2351    6.0835   13.7599 C   0  0  0  0  0  0  0  0  0  0  0  0
    0.2314    6.6347   14.9450 O   0  0  0  0  0  0  0  0  0  0  0  0
   -1.4964    6.3936   13.3552 C   0  0  0  0  0  0  0  0  0  0  0  0
   -1.9284    5.8324   12.1789 C   0  0  0  0  0  0  0  0  0  0  0  0
   -1.1435    5.0003   11.4447 C   0  0  0  0  0  0  0  0  0  0  0  0
    0.1800    4.6638   11.8607 C   0  0  0  0  0  0  0  0  0  0  0  0
   -0.3762    7.2440   15.4641 H   0  0  0  0  0  0  0  0  0  0  0  0
    0.8368    3.6042   11.1291 C   0  0  0  0  0  0  0  0  0  0  0  0
    1.9032    3.9042   10.4913 O   0  0  0  0  0  0  0  0  0  0  0  0
    0.4510    2.3151   11.0250 O   0  0  0  0  0  0  0  0  0  0  0  0
    0.7698    1.6366   10.3622 H   0  0  0  0  0  0  0  0  0  0  0  0
 20 21  2  0  0  0
 21 22  1  0  0  0
 22 15  1  0  0  0
 15 16  1  0  0  0
 16 17  1  0  0  0
 17 18  1  0  0  0
 18 19  1  0  0  0
 19 14  1  0  0  0
 14 13  1  0  0  0
 13 11  1  0  0  0
 11 12  2  0  0  0
 11  1  1  0  0  0
  1  2  2  0  0  0
  2  3  1  0  0  0
  3  4  1  0  0  0
  3  5  2  0  0  0
  5 32  1  0  0  0
 32 33  2  0  0  0
 32 34  1  0  0  0
 34 35  2  0  0  0
 35 36  1  0  0  0
 35 37  1  0  0  0
 37 38  2  0  0  0
 38 39  1  0  0  0
 39 40  2  0  0  0
 40 42  1  0  0  0
 42 43  2  0  0  0
 42 44  1  0  0  0
  5  6  1  0  0  0
  6  7  1  0  0  0
  6  8  2  0  0  0
 21 24  1  0  0  0
 24 25  2  0  0  0
 25 26  1  0  0  0
 26 27  2  0  0  0
 27 28  1  0  0  0
 27 29  1  0  0  0
 29 30  2  0  0  0
 19 15  1  0  0  0
  8  1  1  0  0  0
 30 24  1  0  0  0
 40 34  1  0  0  0
 22 23  1  0  0  0
  4  9  1  0  0  0
 36 41  1  0  0  0
 44 45  1  0  0  0
  7 10  1  0  0  0
 28 31  1  0  0  0
M  END
> <minimizedAffinity>
-9.41967

> <CNNscore>
0.5606839061

> <CNNaffinity>
6.3157415390

> <CNN_VS>
3.5411345959

> <CNNaffinity_variance>
0.0786626190

$$$$
[H]OC(=O)c1c([H])c([H])c([H])c(O[H])c1C(=O)c1c(O[H])c([H])c(C(=O)OC([H])([H])[C@]2([H])C([H])([H])C([H])([H])C([H])([H])[C@@]2([H])N([H])C(=O)c2c([H])c([H])c(O[H])c([H])c2[H])c([H])c1O[H]


 45 48  0  0  0  0  0  0  0  0999 V2000
    3.5121    2.3501   16.5954 C   0  0  0  0  0  0  0  0  0  0  0  0
    2.5599    1.7687   15.8128 C   0  0  0  0  0  0  0  0  0  0  0  0
    2.1223    2.3739   14.6264 C   0  0  0  0  0  0  0  0  0  0  0  0
    1.1635    1.6954   13.9145 O   0  0  0  0  0  0  0  0  0  0  0  0
    2.6313    3.5800   14.1989 C   0  0  0  0  0  0  0  0  0  0  0  0
    3.6095    4.1714   15.0107 C   0  0  0  0  0  0  0  0  0  0  0  0
    4.1987    5.4064   14.6832 O   0  0  0  0  0  0  0  0  0  0  0  0
    4.0198    3.5534   16.1681 C   0  0  0  0  0  0  0  0  0  0  0  0
    0.7230    1.8900   13.0653 H   0  0  0  0  0  0  0  0  0  0  0  0
    4.8877    5.8049   15.2708 H   0  0  0  0  0  0  0  0  0  0  0  0
    3.9859    1.7209   17.8493 C   0  0  0  0  0  0  0  0  0  0  0  0
    4.2439    0.5107   17.8198 O   0  0  0  0  0  0  0  0  0  0  0  0
    4.1273    2.4224   18.9548 O   0  0  0  0  0  0  0  0  0  0  0  0
    4.9332    3.2944   19.5853 C   0  0  0  0  0  0  0  0  0  0  0  0
    5.1790    4.0190   21.8868 C   0  0  0  0  0  0  0  0  0  0  0  0
    4.2087    3.4067   22.8678 C   0  0  0  0  0  0  0  0  0  0  0  0
    4.2462    1.9256   22.7056 C   0  0  0  0  0  0  0  0  0  0  0  0
    5.0677    1.6237   21.4596 C   0  0  0  0  0  0  0  0  0  0  0  0
    5.4954    2.8936   20.8956 C   0  0  0  0  0  0  0  0  0  0  0  0
    6.5603    6.1984   20.9979 O   0  0  0  0  0  0  0  0  0  0  0  0
    7.0286    5.6402   22.0331 C   0  0  0  0  0  0  0  0  0  0  0  0
    6.3716    4.5143   22.5455 N   0  0  0  0  0  0  0  0  0  0  0  0
    6.7441    4.0311   23.4039 H   0  0  0  0  0  0  0  0  0  0  0  0
    8.2131    6.1912   22.6317 C   0  0  0  0  0  0  0  0  0  0  0  0
    9.4131    5.5304   22.5436 C   0  0  0  0  0  0  0  0  0  0  0  0
   10.5706    6.0557   23.1234 C   0  0  0  0  0  0  0  0  0  0  0  0
   10.5055    7.2533   23.7922 C   0  0  0  0  0  0  0  0  0  0  0  0
   11.6514    7.7957   24.3787 O   0  0  0  0  0  0  0  0  0  0  0  0
    9.2986    7.9158   23.8796 C   0  0  0  0  0  0  0  0  0  0  0  0
    8.1534    7.4059   23.3115 C   0  0  0  0  0  0  0  0  0  0  0  0
   12.2595    8.4149   23.8758 H   0  0  0  0  0  0  0  0  0  0  0  0
    2.1462    4.3537   13.1030 C   0  0  0  0  0  0  0  0  0  0  0  0
    1.5109    5.4357   13.4929 O   0  0  0  0  0  0  0  0  0  0  0  0
    2.2344    4.1827   11.6762 C   0  0  0  0  0  0  0  0  0  0  0  0
    1.0693    3.6096   11.1040 C   0  0  0  0  0  0  0  0  0  0  0  0
   -0.0051    3.2910   11.9226 O   0  0  0  0  0  0  0  0  0  0  0  0
    0.9634    3.3579    9.7712 C   0  0  0  0  0  0  0  0  0  0  0  0
    2.0432    3.6843    8.9883 C   0  0  0  0  0  0  0  0  0  0  0  0
    3.1736    4.2308    9.5089 C   0  0  0  0  0  0  0  0  0  0  0  0
    3.2987    4.4958   10.9060 C   0  0  0  0  0  0  0  0  0  0  0  0
   -0.8246    2.8860   11.5050 H   0  0  0  0  0  0  0  0  0  0  0  0
    4.6143    4.8647   11.3779 C   0  0  0  0  0  0  0  0  0  0  0  0
    5.5708    4.0483   11.1490 O   0  0  0  0  0  0  0  0  0  0  0  0
    4.9630    5.9806   12.0522 O   0  0  0  0  0  0  0  0  0  0  0  0
    5.8089    6.1440   12.5612 H   0  0  0  0  0  0  0  0  0  0  0  0
 20 21  2  0  0  0
 21 22  1  0  0  0
 22 15  1  0  0  0
 15 16  1  0  0  0
 16 17  1  0  0  0
 17 18  1  0  0  0
 18 19  1  0  0  0
 19 14  1  0  0  0
 14 13  1  0  0  0
 13 11  1  0  0  0
 11 12  2  0  0  0
 11  1  1  0  0  0
  1  2  2  0  0  0
  2  3  1  0  0  0
  3  4  1  0  0  0
  3  5  2  0  0  0
  5 32  1  0  0  0
 32 33  2  0  0  0
 32 34  1  0  0  0
 34 35  2  0  0  0
 35 36  1  0  0  0
 35 37  1  0  0  0
 37 38  2  0  0  0
 38 39  1  0  0  0
 39 40  2  0  0  0
 40 42  1  0  0  0
 42 43  2  0  0  0
 42 44  1  0  0  0
  5  6  1  0  0  0
  6  7  1  0  0  0
  6  8  2  0  0  0
 21 24  1  0  0  0
 24 25  2  0  0  0
 25 26  1  0  0  0
 26 27  2  0  0  0
 27 28  1  0  0  0
 27 29  1  0  0  0
 29 30  2  0  0  0
 19 15  1  0  0  0
  8  1  1  0  0  0
 30 24  1  0  0  0
 40 34  1  0  0  0
 22 23  1  0  0  0
  4  9  1  0  0  0
 36 41  1  0  0  0
 44 45  1  0  0  0
  7 10  1  0  0  0
 28 31  1  0  0  0
M  END
> <minimizedAffinity>
-8.38907

> <CNNscore>
0.4524140656

> <CNNaffinity>
6.1429286003

> <CNN_VS>
2.7791473866

> <CNNaffinity_variance>
0.2229378968

$$$$
[H]OC(=O)c1c([H])c([H])c([H])c(O[H])c1C(=O)c1c(O[H])c([H])c(C(=O)OC([H])([H])[C@]2([H])C([H])([H])C([H])([H])C([H])([H])[C@@]2([H])N([H])C(=O)c2c([H])c([H])c(O[H])c([H])c2[H])c([H])c1O[H]


 45 48  0  0  0  0  0  0  0  0999 V2000
    3.5077    2.0835   16.5403 C   0  0  0  0  0  0  0  0  0  0  0  0
    3.0224    1.6003   15.3622 C   0  0  0  0  0  0  0  0  0  0  0  0
    3.0322    2.3782   14.1960 C   0  0  0  0  0  0  0  0  0  0  0  0
    2.5234    1.7870   13.0655 O   0  0  0  0  0  0  0  0  0  0  0  0
    3.5297    3.6623   14.1870 C   0  0  0  0  0  0  0  0  0  0  0  0
    4.0259    4.1515   15.4035 C   0  0  0  0  0  0  0  0  0  0  0  0
    4.5529    5.4508   15.5218 O   0  0  0  0  0  0  0  0  0  0  0  0
    4.0043    3.3647   16.5306 C   0  0  0  0  0  0  0  0  0  0  0  0
    2.4418    2.1031   12.1454 H   0  0  0  0  0  0  0  0  0  0  0  0
    4.8981    5.7749   16.3904 H   0  0  0  0  0  0  0  0  0  0  0  0
    3.5065    1.2720   17.7790 C   0  0  0  0  0  0  0  0  0  0  0  0
    3.0503    0.1235   17.7097 O   0  0  0  0  0  0  0  0  0  0  0  0
    3.9729    1.7542   18.9122 O   0  0  0  0  0  0  0  0  0  0  0  0
    4.8437    2.6355   19.4342 C   0  0  0  0  0  0  0  0  0  0  0  0
    4.9024    3.5459   21.6814 C   0  0  0  0  0  0  0  0  0  0  0  0
    3.9216    2.9379   22.6545 C   0  0  0  0  0  0  0  0  0  0  0  0
    4.0723    1.4558   22.6115 C   0  0  0  0  0  0  0  0  0  0  0  0
    4.9848    1.1239   21.4385 C   0  0  0  0  0  0  0  0  0  0  0  0
    5.3547    2.3764   20.8000 C   0  0  0  0  0  0  0  0  0  0  0  0
    6.0287    5.8786   20.8224 O   0  0  0  0  0  0  0  0  0  0  0  0
    6.5431    5.3750   21.8637 C   0  0  0  0  0  0  0  0  0  0  0  0
    6.0166    4.1764   22.3617 N   0  0  0  0  0  0  0  0  0  0  0  0
    6.4299    3.7367   23.2248 H   0  0  0  0  0  0  0  0  0  0  0  0
    7.6435    6.0602   22.4839 C   0  0  0  0  0  0  0  0  0  0  0  0
    8.8740    5.4598   22.5836 C   0  0  0  0  0  0  0  0  0  0  0  0
    9.9504    6.1156   23.1863 C   0  0  0  0  0  0  0  0  0  0  0  0
    9.7733    7.3821   23.6865 C   0  0  0  0  0  0  0  0  0  0  0  0
   10.8368    8.0551   24.2926 O   0  0  0  0  0  0  0  0  0  0  0  0
    8.5360    7.9837   23.5853 C   0  0  0  0  0  0  0  0  0  0  0  0
    7.4701    7.3453   22.9933 C   0  0  0  0  0  0  0  0  0  0  0  0
   11.4608    8.6387   23.7670 H   0  0  0  0  0  0  0  0  0  0  0  0
    3.4409    4.5884   13.1056 C   0  0  0  0  0  0  0  0  0  0  0  0
    4.5033    4.5636   12.3331 O   0  0  0  0  0  0  0  0  0  0  0  0
    2.4177    5.5166   12.7005 C   0  0  0  0  0  0  0  0  0  0  0  0
    2.7543    6.8719   12.9518 C   0  0  0  0  0  0  0  0  0  0  0  0
    3.9817    7.1735   13.5247 O   0  0  0  0  0  0  0  0  0  0  0  0
    1.9123    7.8971   12.6500 C   0  0  0  0  0  0  0  0  0  0  0  0
    0.7058    7.5659   12.0844 C   0  0  0  0  0  0  0  0  0  0  0  0
    0.3546    6.2767   11.8356 C   0  0  0  0  0  0  0  0  0  0  0  0
    1.2272    5.1919   12.1515 C   0  0  0  0  0  0  0  0  0  0  0  0
    4.2084    8.1373   13.6971 H   0  0  0  0  0  0  0  0  0  0  0  0
    0.6667    3.8631   12.0538 C   0  0  0  0  0  0  0  0  0  0  0  0
    0.9666    3.1735   11.0201 O   0  0  0  0  0  0  0  0  0  0  0  0
   -0.1581    3.2520   12.9300 O   0  0  0  0  0  0  0  0  0  0  0  0
   -0.7126    2.4339   12.7740 H   0  0  0  0  0  0  0  0  0  0  0  0
 20 21  2  0  0  0
 21 22  1  0  0  0
 22 15  1  0  0  0
 15 16  1  0  0  0
 16 17  1  0  0  0
 17 18  1  0  0  0
 18 19  1  0  0  0
 19 14  1  0  0  0
 14 13  1  0  0  0
 13 11  1  0  0  0
 11 12  2  0  0  0
 11  1  1  0  0  0
  1  2  2  0  0  0
  2  3  1  0  0  0
  3  4  1  0  0  0
  3  5  2  0  0  0
  5 32  1  0  0  0
 32 33  2  0  0  0
 32 34  1  0  0  0
 34 35  2  0  0  0
 35 36  1  0  0  0
 35 37  1  0  0  0
 37 38  2  0  0  0
 38 39  1  0  0  0
 39 40  2  0  0  0
 40 42  1  0  0  0
 42 43  2  0  0  0
 42 44  1  0  0  0
  5  6  1  0  0  0
  6  7  1  0  0  0
  6  8  2  0  0  0
 21 24  1  0  0  0
 24 25  2  0  0  0
 25 26  1  0  0  0
 26 27  2  0  0  0
 27 28  1  0  0  0
 27 29  1  0  0  0
 29 30  2  0  0  0
 19 15  1  0  0  0
  8  1  1  0  0  0
 30 24  1  0  0  0
 40 34  1  0  0  0
 22 23  1  0  0  0
  4  9  1  0  0  0
 36 41  1  0  0  0
 44 45  1  0  0  0
  7 10  1  0  0  0
 28 31  1  0  0  0
M  END
> <minimizedAffinity>
-9.21043

> <CNNscore>
0.4100910127

> <CNNaffinity>
6.2260026932

> <CNN_VS>
2.5532276630

> <CNNaffinity_variance>
0.2397619188

$$$$
[H]OC(=O)c1c([H])c([H])c([H])c(O[H])c1C(=O)c1c(O[H])c([H])c(C(=O)OC([H])([H])[C@]2([H])C([H])([H])C([H])([H])C([H])([H])[C@@]2([H])N([H])C(=O)c2c([H])c([H])c(O[H])c([H])c2[H])c([H])c1O[H]


 45 48  0  0  0  0  0  0  0  0999 V2000
    3.1369    1.7494   16.0298 C   0  0  0  0  0  0  0  0  0  0  0  0
    2.0353    1.3936   15.3106 C   0  0  0  0  0  0  0  0  0  0  0  0
    1.6167    2.1407   14.2007 C   0  0  0  0  0  0  0  0  0  0  0  0
    0.4972    1.6861   13.5479 O   0  0  0  0  0  0  0  0  0  0  0  0
    2.2960    3.2653   13.7878 C   0  0  0  0  0  0  0  0  0  0  0  0
    3.4272    3.6245   14.5340 C   0  0  0  0  0  0  0  0  0  0  0  0
    4.1985    4.7572   14.2146 O   0  0  0  0  0  0  0  0  0  0  0  0
    3.8143    2.8714   15.6170 C   0  0  0  0  0  0  0  0  0  0  0  0
    0.0303    2.0086   12.7535 H   0  0  0  0  0  0  0  0  0  0  0  0
    4.9933    4.9914   14.7550 H   0  0  0  0  0  0  0  0  0  0  0  0
    3.5921    0.9680   17.2023 C   0  0  0  0  0  0  0  0  0  0  0  0
    3.4851   -0.2639   17.1451 O   0  0  0  0  0  0  0  0  0  0  0  0
    4.0919    1.5612   18.2665 O   0  0  0  0  0  0  0  0  0  0  0  0
    4.4058    2.7601   18.7876 C   0  0  0  0  0  0  0  0  0  0  0  0
    4.2086    3.4862   21.0933 C   0  0  0  0  0  0  0  0  0  0  0  0
    3.8314    2.4108   22.0831 C   0  0  0  0  0  0  0  0  0  0  0  0
    4.7582    1.2578   21.9022 C   0  0  0  0  0  0  0  0  0  0  0  0
    5.5677    1.5169   20.6387 C   0  0  0  0  0  0  0  0  0  0  0  0
    5.1232    2.7846   20.0831 C   0  0  0  0  0  0  0  0  0  0  0  0
    4.1261    6.0243   20.0935 O   0  0  0  0  0  0  0  0  0  0  0  0
    4.7814    5.8815   21.1671 C   0  0  0  0  0  0  0  0  0  0  0  0
    4.8678    4.6052   21.7376 N   0  0  0  0  0  0  0  0  0  0  0  0
    5.4099    4.4610   22.6288 H   0  0  0  0  0  0  0  0  0  0  0  0
    5.4047    7.0387   21.7480 C   0  0  0  0  0  0  0  0  0  0  0  0
    4.9230    8.2974   21.4866 C   0  0  0  0  0  0  0  0  0  0  0  0
    5.5222    9.4297   22.0442 C   0  0  0  0  0  0  0  0  0  0  0  0
    6.6108    9.2796   22.8676 C   0  0  0  0  0  0  0  0  0  0  0  0
    7.2242   10.3989   23.4354 O   0  0  0  0  0  0  0  0  0  0  0  0
    7.0932    8.0139   23.1291 C   0  0  0  0  0  0  0  0  0  0  0  0
    6.5094    6.8929   22.5842 C   0  0  0  0  0  0  0  0  0  0  0  0
    6.9378   10.7639   24.3247 H   0  0  0  0  0  0  0  0  0  0  0  0
    1.8684    4.1805   12.7806 C   0  0  0  0  0  0  0  0  0  0  0  0
    2.6638    4.1859   11.7349 O   0  0  0  0  0  0  0  0  0  0  0  0
    0.7410    5.0713   12.6900 C   0  0  0  0  0  0  0  0  0  0  0  0
   -0.3343    4.5442   11.9287 C   0  0  0  0  0  0  0  0  0  0  0  0
   -0.2198    3.2765   11.3759 O   0  0  0  0  0  0  0  0  0  0  0  0
   -1.4842    5.2400   11.7178 C   0  0  0  0  0  0  0  0  0  0  0  0
   -1.5665    6.4910   12.2779 C   0  0  0  0  0  0  0  0  0  0  0  0
   -0.5514    7.0233   13.0085 C   0  0  0  0  0  0  0  0  0  0  0  0
    0.6617    6.3051   13.2334 C   0  0  0  0  0  0  0  0  0  0  0  0
   -0.9885    2.9144   10.8393 H   0  0  0  0  0  0  0  0  0  0  0  0
    1.7506    7.0473   13.8274 C   0  0  0  0  0  0  0  0  0  0  0  0
    2.3135    7.9414   13.1080 O   0  0  0  0  0  0  0  0  0  0  0  0
    2.2636    6.9038   15.0675 O   0  0  0  0  0  0  0  0  0  0  0  0
    3.1367    7.2540   15.4086 H   0  0  0  0  0  0  0  0  0  0  0  0
 20 21  2  0  0  0
 21 22  1  0  0  0
 22 15  1  0  0  0
 15 16  1  0  0  0
 16 17  1  0  0  0
 17 18  1  0  0  0
 18 19  1  0  0  0
 19 14  1  0  0  0
 14 13  1  0  0  0
 13 11  1  0  0  0
 11 12  2  0  0  0
 11  1  1  0  0  0
  1  2  2  0  0  0
  2  3  1  0  0  0
  3  4  1  0  0  0
  3  5  2  0  0  0
  5 32  1  0  0  0
 32 33  2  0  0  0
 32 34  1  0  0  0
 34 35  2  0  0  0
 35 36  1  0  0  0
 35 37  1  0  0  0
 37 38  2  0  0  0
 38 39  1  0  0  0
 39 40  2  0  0  0
 40 42  1  0  0  0
 42 43  2  0  0  0
 42 44  1  0  0  0
  5  6  1  0  0  0
  6  7  1  0  0  0
  6  8  2  0  0  0
 21 24  1  0  0  0
 24 25  2  0  0  0
 25 26  1  0  0  0
 26 27  2  0  0  0
 27 28  1  0  0  0
 27 29  1  0  0  0
 29 30  2  0  0  0
 19 15  1  0  0  0
  8  1  1  0  0  0
 30 24  1  0  0  0
 40 34  1  0  0  0
 22 23  1  0  0  0
  4  9  1  0  0  0
 36 41  1  0  0  0
 44 45  1  0  0  0
  7 10  1  0  0  0
 28 31  1  0  0  0
M  END
> <minimizedAffinity>
-9.71164

> <CNNscore>
0.3938229084

> <CNNaffinity>
6.0681886673

> <CNN_VS>
2.3897917271

> <CNNaffinity_variance>
0.1902657449

$$$$
[H]OC(=O)c1c([H])c([H])c([H])c(O[H])c1C(=O)c1c(O[H])c([H])c(C(=O)OC([H])([H])[C@]2([H])C([H])([H])C([H])([H])C([H])([H])[C@@]2([H])N([H])C(=O)c2c([H])c([H])c(O[H])c([H])c2[H])c([H])c1O[H]


 45 48  0  0  0  0  0  0  0  0999 V2000
    3.2007    1.6676   16.5277 C   0  0  0  0  0  0  0  0  0  0  0  0
    2.2056    1.2744   15.6839 C   0  0  0  0  0  0  0  0  0  0  0  0
    1.9168    1.9901   14.5136 C   0  0  0  0  0  0  0  0  0  0  0  0
    0.8972    1.4991   13.7355 O   0  0  0  0  0  0  0  0  0  0  0  0
    2.6219    3.1204   14.1642 C   0  0  0  0  0  0  0  0  0  0  0  0
    3.6431    3.5182   15.0386 C   0  0  0  0  0  0  0  0  0  0  0  0
    4.4275    4.6602   14.7934 O   0  0  0  0  0  0  0  0  0  0  0  0
    3.9041    2.7952   16.1783 C   0  0  0  0  0  0  0  0  0  0  0  0
    0.5285    1.7957   12.8815 H   0  0  0  0  0  0  0  0  0  0  0  0
    5.1434    4.9219   15.4241 H   0  0  0  0  0  0  0  0  0  0  0  0
    3.5186    0.9196   17.7655 C   0  0  0  0  0  0  0  0  0  0  0  0
    3.0137   -0.2023   17.9013 O   0  0  0  0  0  0  0  0  0  0  0  0
    4.3087    1.4289   18.6878 O   0  0  0  0  0  0  0  0  0  0  0  0
    4.5595    1.4413   20.0085 C   0  0  0  0  0  0  0  0  0  0  0  0
    4.4991    3.7278   20.8152 C   0  0  0  0  0  0  0  0  0  0  0  0
    4.5151    3.8879   22.3161 C   0  0  0  0  0  0  0  0  0  0  0  0
    5.6539    3.0967   22.8623 C   0  0  0  0  0  0  0  0  0  0  0  0
    6.2095    2.2513   21.7243 C   0  0  0  0  0  0  0  0  0  0  0  0
    5.4132    2.5287   20.5401 C   0  0  0  0  0  0  0  0  0  0  0  0
    3.0950    4.9145   18.7982 O   0  0  0  0  0  0  0  0  0  0  0  0
    4.1822    5.4811   19.1133 C   0  0  0  0  0  0  0  0  0  0  0  0
    4.9568    4.9263   20.1400 N   0  0  0  0  0  0  0  0  0  0  0  0
    5.8667    5.3780   20.4177 H   0  0  0  0  0  0  0  0  0  0  0  0
    4.5678    6.6677   18.4003 C   0  0  0  0  0  0  0  0  0  0  0  0
    5.5774    6.6278   17.4709 C   0  0  0  0  0  0  0  0  0  0  0  0
    5.9619    7.7755   16.7732 C   0  0  0  0  0  0  0  0  0  0  0  0
    5.3181    8.9626   17.0219 C   0  0  0  0  0  0  0  0  0  0  0  0
    5.6873   10.1215   16.3348 O   0  0  0  0  0  0  0  0  0  0  0  0
    4.3039    9.0006   17.9562 C   0  0  0  0  0  0  0  0  0  0  0  0
    3.9184    7.8751   18.6482 C   0  0  0  0  0  0  0  0  0  0  0  0
    5.2587   10.3793   15.4654 H   0  0  0  0  0  0  0  0  0  0  0  0
    2.3082    4.0060   13.0909 C   0  0  0  0  0  0  0  0  0  0  0  0
    3.1535    3.9036   12.0903 O   0  0  0  0  0  0  0  0  0  0  0  0
    1.2495    4.9619   12.8954 C   0  0  0  0  0  0  0  0  0  0  0  0
    0.1749    4.4614   12.1155 C   0  0  0  0  0  0  0  0  0  0  0  0
    0.2263    3.1577   11.6428 O   0  0  0  0  0  0  0  0  0  0  0  0
   -0.9143    5.2173   11.8102 C   0  0  0  0  0  0  0  0  0  0  0  0
   -0.9350    6.5027   12.2926 C   0  0  0  0  0  0  0  0  0  0  0  0
    0.0813    7.0104   13.0388 C   0  0  0  0  0  0  0  0  0  0  0  0
    1.2313    6.2290   13.3623 C   0  0  0  0  0  0  0  0  0  0  0  0
   -0.5413    2.8151   11.0920 H   0  0  0  0  0  0  0  0  0  0  0  0
    2.3415    6.9327   13.9637 C   0  0  0  0  0  0  0  0  0  0  0  0
    3.1167    7.5836   13.1831 O   0  0  0  0  0  0  0  0  0  0  0  0
    2.6740    6.9802   15.2709 O   0  0  0  0  0  0  0  0  0  0  0  0
    3.5430    7.2791   15.6668 H   0  0  0  0  0  0  0  0  0  0  0  0
 20 21  2  0  0  0
 21 22  1  0  0  0
 22 15  1  0  0  0
 15 16  1  0  0  0
 16 17  1  0  0  0
 17 18  1  0  0  0
 18 19  1  0  0  0
 19 14  1  0  0  0
 14 13  1  0  0  0
 13 11  1  0  0  0
 11 12  2  0  0  0
 11  1  1  0  0  0
  1  2  2  0  0  0
  2  3  1  0  0  0
  3  4  1  0  0  0
  3  5  2  0  0  0
  5 32  1  0  0  0
 32 33  2  0  0  0
 32 34  1  0  0  0
 34 35  2  0  0  0
 35 36  1  0  0  0
 35 37  1  0  0  0
 37 38  2  0  0  0
 38 39  1  0  0  0
 39 40  2  0  0  0
 40 42  1  0  0  0
 42 43  2  0  0  0
 42 44  1  0  0  0
  5  6  1  0  0  0
  6  7  1  0  0  0
  6  8  2  0  0  0
 21 24  1  0  0  0
 24 25  2  0  0  0
 25 26  1  0  0  0
 26 27  2  0  0  0
 27 28  1  0  0  0
 27 29  1  0  0  0
 29 30  2  0  0  0
 19 15  1  0  0  0
  8  1  1  0  0  0
 30 24  1  0  0  0
 40 34  1  0  0  0
 22 23  1  0  0  0
  4  9  1  0  0  0
 36 41  1  0  0  0
 44 45  1  0  0  0
  7 10  1  0  0  0
 28 31  1  0  0  0
M  END
> <minimizedAffinity>
-9.46852

> <CNNscore>
0.3712832332

> <CNNaffinity>
6.1051740646

> <CNN_VS>
2.2667486668

> <CNNaffinity_variance>
0.1051487103

$$$$
[H]OC(=O)c1c([H])c([H])c([H])c(O[H])c1C(=O)c1c(O[H])c([H])c(C(=O)OC([H])([H])[C@]2([H])C([H])([H])C([H])([H])C([H])([H])[C@@]2([H])N([H])C(=O)c2c([H])c([H])c(O[H])c([H])c2[H])c([H])c1O[H]


 45 48  0  0  0  0  0  0  0  0999 V2000
    3.2221    1.5666   17.1891 C   0  0  0  0  0  0  0  0  0  0  0  0
    2.3403    1.1605   16.2327 C   0  0  0  0  0  0  0  0  0  0  0  0
    2.1848    1.8723   15.0350 C   0  0  0  0  0  0  0  0  0  0  0  0
    1.2722    1.3681   14.1411 O   0  0  0  0  0  0  0  0  0  0  0  0
    2.9124    3.0114   14.7707 C   0  0  0  0  0  0  0  0  0  0  0  0
    3.8163    3.4224   15.7605 C   0  0  0  0  0  0  0  0  0  0  0  0
    4.6100    4.5743   15.6091 O   0  0  0  0  0  0  0  0  0  0  0  0
    3.9479    2.7030   16.9245 C   0  0  0  0  0  0  0  0  0  0  0  0
    1.0048    1.6599   13.2487 H   0  0  0  0  0  0  0  0  0  0  0  0
    5.2417    4.8452   16.3207 H   0  0  0  0  0  0  0  0  0  0  0  0
    3.3987    0.8229   18.4573 C   0  0  0  0  0  0  0  0  0  0  0  0
    2.8715   -0.2936   18.5437 O   0  0  0  0  0  0  0  0  0  0  0  0
    4.0905    1.3304   19.4563 O   0  0  0  0  0  0  0  0  0  0  0  0
    5.1343    1.1037   20.2728 C   0  0  0  0  0  0  0  0  0  0  0  0
    4.3906    3.1637   21.3148 C   0  0  0  0  0  0  0  0  0  0  0  0
    4.0093    3.0543   22.7712 C   0  0  0  0  0  0  0  0  0  0  0  0
    5.1255    2.3899   23.5020 C   0  0  0  0  0  0  0  0  0  0  0  0
    6.1077    1.8709   22.4605 C   0  0  0  0  0  0  0  0  0  0  0  0
    5.5800    2.2112   21.1493 C   0  0  0  0  0  0  0  0  0  0  0  0
    3.1599    4.4902   19.2718 O   0  0  0  0  0  0  0  0  0  0  0  0
    4.0535    5.1429   19.8865 C   0  0  0  0  0  0  0  0  0  0  0  0
    4.7288    4.5245   20.9464 N   0  0  0  0  0  0  0  0  0  0  0  0
    5.4783    5.0462   21.4709 H   0  0  0  0  0  0  0  0  0  0  0  0
    4.3305    6.4886   19.4652 C   0  0  0  0  0  0  0  0  0  0  0  0
    4.0024    6.9063   18.1993 C   0  0  0  0  0  0  0  0  0  0  0  0
    4.2688    8.2115   17.7782 C   0  0  0  0  0  0  0  0  0  0  0  0
    4.8686    9.0904   18.6462 C   0  0  0  0  0  0  0  0  0  0  0  0
    5.1432   10.3999   18.2448 O   0  0  0  0  0  0  0  0  0  0  0  0
    5.1975    8.6687   19.9179 C   0  0  0  0  0  0  0  0  0  0  0  0
    4.9389    7.3849   20.3413 C   0  0  0  0  0  0  0  0  0  0  0  0
    4.4803   11.1417   18.3731 H   0  0  0  0  0  0  0  0  0  0  0  0
    2.7184    3.8928   13.6660 C   0  0  0  0  0  0  0  0  0  0  0  0
    1.8906    4.8743   13.9444 O   0  0  0  0  0  0  0  0  0  0  0  0
    3.2618    3.9169   12.3330 C   0  0  0  0  0  0  0  0  0  0  0  0
    4.2213    4.9431   12.1338 C   0  0  0  0  0  0  0  0  0  0  0  0
    4.5474    5.7842   13.1883 O   0  0  0  0  0  0  0  0  0  0  0  0
    4.8401    5.1363   10.9376 C   0  0  0  0  0  0  0  0  0  0  0  0
    4.4958    4.2878    9.9144 C   0  0  0  0  0  0  0  0  0  0  0  0
    3.5776    3.2986   10.0747 C   0  0  0  0  0  0  0  0  0  0  0  0
    2.9184    3.0882   11.3234 C   0  0  0  0  0  0  0  0  0  0  0  0
    5.2287    6.5068   13.0344 H   0  0  0  0  0  0  0  0  0  0  0  0
    1.8077    2.1631   11.3192 C   0  0  0  0  0  0  0  0  0  0  0  0
    2.0745    0.9258   11.1408 O   0  0  0  0  0  0  0  0  0  0  0  0
    0.4979    2.4500   11.4728 O   0  0  0  0  0  0  0  0  0  0  0  0
   -0.2825    1.8602   11.2620 H   0  0  0  0  0  0  0  0  0  0  0  0
 20 21  2  0  0  0
 21 22  1  0  0  0
 22 15  1  0  0  0
 15 16  1  0  0  0
 16 17  1  0  0  0
 17 18  1  0  0  0
 18 19  1  0  0  0
 19 14  1  0  0  0
 14 13  1  0  0  0
 13 11  1  0  0  0
 11 12  2  0  0  0
 11  1  1  0  0  0
  1  2  2  0  0  0
  2  3  1  0  0  0
  3  4  1  0  0  0
  3  5  2  0  0  0
  5 32  1  0  0  0
 32 33  2  0  0  0
 32 34  1  0  0  0
 34 35  2  0  0  0
 35 36  1  0  0  0
 35 37  1  0  0  0
 37 38  2  0  0  0
 38 39  1  0  0  0
 39 40  2  0  0  0
 40 42  1  0  0  0
 42 43  2  0  0  0
 42 44  1  0  0  0
  5  6  1  0  0  0
  6  7  1  0  0  0
  6  8  2  0  0  0
 21 24  1  0  0  0
 24 25  2  0  0  0
 25 26  1  0  0  0
 26 27  2  0  0  0
 27 28  1  0  0  0
 27 29  1  0  0  0
 29 30  2  0  0  0
 19 15  1  0  0  0
  8  1  1  0  0  0
 30 24  1  0  0  0
 40 34  1  0  0  0
 22 23  1  0  0  0
  4  9  1  0  0  0
 36 41  1  0  0  0
 44 45  1  0  0  0
  7 10  1  0  0  0
 28 31  1  0  0  0
M  END
> <minimizedAffinity>
-8.74741

> <CNNscore>
0.3164674342

> <CNNaffinity>
6.1136789322

> <CNN_VS>
1.9347802401

> <CNNaffinity_variance>
0.1039678827

$$$$
[H]OC(=O)c1c([H])c([H])c([H])c(O[H])c1C(=O)c1c(O[H])c([H])c(C(=O)OC([H])([H])[C@]2([H])C([H])([H])C([H])([H])C([H])([H])[C@@]2([H])N([H])C(=O)c2c([H])c([H])c(O[H])c([H])c2[H])c([H])c1O[H]


 45 48  0  0  0  0  0  0  0  0999 V2000
    3.0595    1.6217   16.5269 C   0  0  0  0  0  0  0  0  0  0  0  0
    3.7320    2.7990   16.3899 C   0  0  0  0  0  0  0  0  0  0  0  0
    3.5028    3.6466   15.2970 C   0  0  0  0  0  0  0  0  0  0  0  0
    4.2327    4.8096   15.2648 O   0  0  0  0  0  0  0  0  0  0  0  0
    2.5917    3.3295   14.3141 C   0  0  0  0  0  0  0  0  0  0  0  0
    1.9053    2.1161   14.4627 C   0  0  0  0  0  0  0  0  0  0  0  0
    0.9559    1.6799   13.5202 O   0  0  0  0  0  0  0  0  0  0  0  0
    2.1504    1.3062   15.5461 C   0  0  0  0  0  0  0  0  0  0  0  0
    4.2387    5.5578   14.6377 H   0  0  0  0  0  0  0  0  0  0  0  0
    0.4831    0.8200   13.6457 H   0  0  0  0  0  0  0  0  0  0  0  0
    3.2893    0.7184   17.6775 C   0  0  0  0  0  0  0  0  0  0  0  0
    2.6804   -0.3592   17.6891 O   0  0  0  0  0  0  0  0  0  0  0  0
    4.1106    1.0490   18.6524 O   0  0  0  0  0  0  0  0  0  0  0  0
    4.1599    1.4346   19.9394 C   0  0  0  0  0  0  0  0  0  0  0  0
    4.5591    3.6751   20.7778 C   0  0  0  0  0  0  0  0  0  0  0  0
    4.8372    3.7749   22.2581 C   0  0  0  0  0  0  0  0  0  0  0  0
    5.9225    2.8123   22.5997 C   0  0  0  0  0  0  0  0  0  0  0  0
    6.1617    1.9407   21.3742 C   0  0  0  0  0  0  0  0  0  0  0  0
    5.2351    2.3711   20.3400 C   0  0  0  0  0  0  0  0  0  0  0  0
    3.0210    5.1564   19.0783 O   0  0  0  0  0  0  0  0  0  0  0  0
    4.2224    5.5366   19.1992 C   0  0  0  0  0  0  0  0  0  0  0  0
    5.0711    4.8223   20.0543 N   0  0  0  0  0  0  0  0  0  0  0  0
    6.0755    5.1178   20.1687 H   0  0  0  0  0  0  0  0  0  0  0  0
    4.6557    6.6848   18.4515 C   0  0  0  0  0  0  0  0  0  0  0  0
    3.9142    7.8401   18.4523 C   0  0  0  0  0  0  0  0  0  0  0  0
    4.3247    8.9618   17.7275 C   0  0  0  0  0  0  0  0  0  0  0  0
    5.4899    8.9064   17.0029 C   0  0  0  0  0  0  0  0  0  0  0  0
    5.9180   10.0171   16.2718 O   0  0  0  0  0  0  0  0  0  0  0  0
    6.2336    7.7446   17.0035 C   0  0  0  0  0  0  0  0  0  0  0  0
    5.8369    6.6348   17.7144 C   0  0  0  0  0  0  0  0  0  0  0  0
    6.5150   10.7158   16.6736 H   0  0  0  0  0  0  0  0  0  0  0  0
    2.3998    4.0352   13.0895 C   0  0  0  0  0  0  0  0  0  0  0  0
    1.1469    4.3819   12.8992 O   0  0  0  0  0  0  0  0  0  0  0  0
    3.3074    4.4452   12.0497 C   0  0  0  0  0  0  0  0  0  0  0  0
    3.5567    3.4326   11.0874 C   0  0  0  0  0  0  0  0  0  0  0  0
    2.9281    2.2021   11.2155 O   0  0  0  0  0  0  0  0  0  0  0  0
    4.3962    3.6231   10.0339 C   0  0  0  0  0  0  0  0  0  0  0  0
    5.0026    4.8511    9.9352 C   0  0  0  0  0  0  0  0  0  0  0  0
    4.7860    5.8385   10.8437 C   0  0  0  0  0  0  0  0  0  0  0  0
    3.9109    5.6498   11.9557 C   0  0  0  0  0  0  0  0  0  0  0  0
    3.1127    1.4936   10.5272 H   0  0  0  0  0  0  0  0  0  0  0  0
    3.9284    6.6769   12.9726 C   0  0  0  0  0  0  0  0  0  0  0  0
    2.8020    7.1462   13.3531 O   0  0  0  0  0  0  0  0  0  0  0  0
    5.0076    7.2199   13.5744 O   0  0  0  0  0  0  0  0  0  0  0  0
    5.0440    8.0633   14.1116 H   0  0  0  0  0  0  0  0  0  0  0  0
 20 21  2  0  0  0
 21 22  1  0  0  0
 22 15  1  0  0  0
 15 16  1  0  0  0
 16 17  1  0  0  0
 17 18  1  0  0  0
 18 19  1  0  0  0
 19 14  1  0  0  0
 14 13  1  0  0  0
 13 11  1  0  0  0
 11 12  2  0  0  0
 11  1  1  0  0  0
  1  2  2  0  0  0
  2  3  1  0  0  0
  3  4  1  0  0  0
  3  5  2  0  0  0
  5 32  1  0  0  0
 32 33  2  0  0  0
 32 34  1  0  0  0
 34 35  2  0  0  0
 35 36  1  0  0  0
 35 37  1  0  0  0
 37 38  2  0  0  0
 38 39  1  0  0  0
 39 40  2  0  0  0
 40 42  1  0  0  0
 42 43  2  0  0  0
 42 44  1  0  0  0
  5  6  1  0  0  0
  6  7  1  0  0  0
  6  8  2  0  0  0
 21 24  1  0  0  0
 24 25  2  0  0  0
 25 26  1  0  0  0
 26 27  2  0  0  0
 27 28  1  0  0  0
 27 29  1  0  0  0
 29 30  2  0  0  0
 19 15  1  0  0  0
  8  1  1  0  0  0
 30 24  1  0  0  0
 40 34  1  0  0  0
 22 23  1  0  0  0
  4  9  1  0  0  0
 36 41  1  0  0  0
 44 45  1  0  0  0
  7 10  1  0  0  0
 28 31  1  0  0  0
M  END
> <minimizedAffinity>
-8.88938

> <CNNscore>
0.2793470025

> <CNNaffinity>
5.9987869263

> <CNN_VS>
1.6757431030

> <CNNaffinity_variance>
0.1349635571

$$$$
[H]OC(=O)c1c([H])c([H])c([H])c(O[H])c1C(=O)c1c(O[H])c([H])c(C(=O)OC([H])([H])[C@]2([H])C([H])([H])C([H])([H])C([H])([H])[C@@]2([H])N([H])C(=O)c2c([H])c([H])c(O[H])c([H])c2[H])c([H])c1O[H]


 45 48  0  0  0  0  0  0  0  0999 V2000
    2.7314    5.0145   16.2035 C   0  0  0  0  0  0  0  0  0  0  0  0
    3.3920    3.8452   16.4352 C   0  0  0  0  0  0  0  0  0  0  0  0
    3.9868    3.5775   17.6760 C   0  0  0  0  0  0  0  0  0  0  0  0
    4.6206    2.3652   17.7985 O   0  0  0  0  0  0  0  0  0  0  0  0
    3.9325    4.4807   18.7143 C   0  0  0  0  0  0  0  0  0  0  0  0
    3.2519    5.6811   18.4668 C   0  0  0  0  0  0  0  0  0  0  0  0
    3.1356    6.6843   19.4465 O   0  0  0  0  0  0  0  0  0  0  0  0
    2.6773    5.9150   17.2400 C   0  0  0  0  0  0  0  0  0  0  0  0
    5.0797    1.9431   18.5496 H   0  0  0  0  0  0  0  0  0  0  0  0
    2.6502    7.5236   19.2498 H   0  0  0  0  0  0  0  0  0  0  0  0
    2.0960    5.3093   14.8989 C   0  0  0  0  0  0  0  0  0  0  0  0
    0.9002    5.6288   14.9045 O   0  0  0  0  0  0  0  0  0  0  0  0
    2.7773    5.2340   13.7745 O   0  0  0  0  0  0  0  0  0  0  0  0
    3.9121    5.6278   13.1705 C   0  0  0  0  0  0  0  0  0  0  0  0
    2.9527    7.4046   11.8269 C   0  0  0  0  0  0  0  0  0  0  0  0
    2.0377    8.3535   12.5624 C   0  0  0  0  0  0  0  0  0  0  0  0
    2.7473    8.8461   13.7769 C   0  0  0  0  0  0  0  0  0  0  0  0
    4.0197    8.0232   13.9272 C   0  0  0  0  0  0  0  0  0  0  0  0
    4.0550    7.0635   12.8358 C   0  0  0  0  0  0  0  0  0  0  0  0
    3.4777    5.9551    9.5749 O   0  0  0  0  0  0  0  0  0  0  0  0
    3.7312    7.1930    9.4989 C   0  0  0  0  0  0  0  0  0  0  0  0
    3.4877    7.9994   10.6179 N   0  0  0  0  0  0  0  0  0  0  0  0
    3.6937    9.0315   10.5796 H   0  0  0  0  0  0  0  0  0  0  0  0
    4.2571    7.7098    8.2654 C   0  0  0  0  0  0  0  0  0  0  0  0
    4.9397    8.9006    8.2409 C   0  0  0  0  0  0  0  0  0  0  0  0
    5.4536    9.4135    7.0472 C   0  0  0  0  0  0  0  0  0  0  0  0
    5.2725    8.7136    5.8798 C   0  0  0  0  0  0  0  0  0  0  0  0
    5.7787    9.2090    4.6758 O   0  0  0  0  0  0  0  0  0  0  0  0
    4.5864    7.5171    5.9065 C   0  0  0  0  0  0  0  0  0  0  0  0
    4.0766    7.0043    7.0776 C   0  0  0  0  0  0  0  0  0  0  0  0
    6.7017    8.9799    4.3567 H   0  0  0  0  0  0  0  0  0  0  0  0
    4.6342    4.3785   19.9520 C   0  0  0  0  0  0  0  0  0  0  0  0
    5.8154    4.9523   19.9099 O   0  0  0  0  0  0  0  0  0  0  0  0
    4.2907    3.7894   21.2200 C   0  0  0  0  0  0  0  0  0  0  0  0
    4.0152    4.7467   22.2304 C   0  0  0  0  0  0  0  0  0  0  0  0
    4.0838    6.0985   21.9243 O   0  0  0  0  0  0  0  0  0  0  0  0
    3.6832    4.3874   23.4999 C   0  0  0  0  0  0  0  0  0  0  0  0
    3.6238    3.0426   23.7709 C   0  0  0  0  0  0  0  0  0  0  0  0
    3.8862    2.1030   22.8246 C   0  0  0  0  0  0  0  0  0  0  0  0
    4.2397    2.4671   21.4903 C   0  0  0  0  0  0  0  0  0  0  0  0
    3.8859    6.7665   22.6486 H   0  0  0  0  0  0  0  0  0  0  0  0
    4.7128    1.4025   20.6345 C   0  0  0  0  0  0  0  0  0  0  0  0
    3.8340    0.7215   20.0036 O   0  0  0  0  0  0  0  0  0  0  0  0
    5.9908    1.0240   20.4227 O   0  0  0  0  0  0  0  0  0  0  0  0
    6.3119    0.1708   20.0102 H   0  0  0  0  0  0  0  0  0  0  0  0
 20 21  2  0  0  0
 21 22  1  0  0  0
 22 15  1  0  0  0
 15 16  1  0  0  0
 16 17  1  0  0  0
 17 18  1  0  0  0
 18 19  1  0  0  0
 19 14  1  0  0  0
 14 13  1  0  0  0
 13 11  1  0  0  0
 11 12  2  0  0  0
 11  1  1  0  0  0
  1  2  2  0  0  0
  2  3  1  0  0  0
  3  4  1  0  0  0
  3  5  2  0  0  0
  5 32  1  0  0  0
 32 33  2  0  0  0
 32 34  1  0  0  0
 34 35  2  0  0  0
 35 36  1  0  0  0
 35 37  1  0  0  0
 37 38  2  0  0  0
 38 39  1  0  0  0
 39 40  2  0  0  0
 40 42  1  0  0  0
 42 43  2  0  0  0
 42 44  1  0  0  0
  5  6  1  0  0  0
  6  7  1  0  0  0
  6  8  2  0  0  0
 21 24  1  0  0  0
 24 25  2  0  0  0
 25 26  1  0  0  0
 26 27  2  0  0  0
 27 28  1  0  0  0
 27 29  1  0  0  0
 29 30  2  0  0  0
 19 15  1  0  0  0
  8  1  1  0  0  0
 30 24  1  0  0  0
 40 34  1  0  0  0
 22 23  1  0  0  0
  4  9  1  0  0  0
 36 41  1  0  0  0
 44 45  1  0  0  0
  7 10  1  0  0  0
 28 31  1  0  0  0
M  END
> <minimizedAffinity>
-8.39397

> <CNNscore>
0.2495959699

> <CNNaffinity>
5.0776662827

> <CNN_VS>
1.2673650980

> <CNNaffinity_variance>
0.2298305035

$$$$
[H]OC(=O)C([H])([H])C([H])([H])c1c2c(n([H])c1C([H])=C1C(=O)N([H])c3c([H])c([H])c(S(=O)(=O)N([H])C([H])([H])[H])c([H])c31)C([H])([H])C([H])([H])C([H])([H])C2=O


 35 38  0  0  0  0  0  0  0  0999 V2000
    4.4722    1.6401   21.9856 C   0  0  0  0  0  0  0  0  0  0  0  0
    4.0229    0.3914   22.3585 C   0  0  0  0  0  0  0  0  0  0  0  0
    3.3875   -0.4341   21.4632 C   0  0  0  0  0  0  0  0  0  0  0  0
    3.1679   -0.0467   20.1352 C   0  0  0  0  0  0  0  0  0  0  0  0
    3.6143    1.1990   19.7572 C   0  0  0  0  0  0  0  0  0  0  0  0
    4.2550    2.0105   20.6924 C   0  0  0  0  0  0  0  0  0  0  0  0
    3.3088    1.4470   18.3328 C   0  0  0  0  0  0  0  0  0  0  0  0
    3.6208    2.5213   17.6546 C   0  0  0  0  0  0  0  0  0  0  0  0
    2.6412    0.2231   17.9182 C   0  0  0  0  0  0  0  0  0  0  0  0
    2.1903   -0.0447   16.7751 O   0  0  0  0  0  0  0  0  0  0  0  0
    2.5599   -0.6853   19.0320 N   0  0  0  0  0  0  0  0  0  0  0  0
    2.1401   -1.6331   19.0464 H   0  0  0  0  0  0  0  0  0  0  0  0
    3.3308    2.7923   16.2605 C   0  0  0  0  0  0  0  0  0  0  0  0
    3.4702    2.0821   15.1430 N   0  0  0  0  0  0  0  0  0  0  0  0
    3.0760    2.7844   14.0632 C   0  0  0  0  0  0  0  0  0  0  0  0
    2.6519    4.0255   14.4873 C   0  0  0  0  0  0  0  0  0  0  0  0
    2.8117    4.0267   15.8553 C   0  0  0  0  0  0  0  0  0  0  0  0
    2.1766    4.9651   13.4876 C   0  0  0  0  0  0  0  0  0  0  0  0
    1.3303    5.8191   13.8480 O   0  0  0  0  0  0  0  0  0  0  0  0
    2.6553    4.9441   12.0769 C   0  0  0  0  0  0  0  0  0  0  0  0
    3.6112    3.7540   11.9151 C   0  0  0  0  0  0  0  0  0  0  0  0
    3.0039    2.5197   12.5935 C   0  0  0  0  0  0  0  0  0  0  0  0
    3.8113    1.1195   15.0667 H   0  0  0  0  0  0  0  0  0  0  0  0
    2.4745    5.1623   16.7138 C   0  0  0  0  0  0  0  0  0  0  0  0
    3.6046    6.1485   16.9051 C   0  0  0  0  0  0  0  0  0  0  0  0
    3.8208    6.2865   18.3611 C   0  0  0  0  0  0  0  0  0  0  0  0
    4.6139    5.5431   18.9690 O   0  0  0  0  0  0  0  0  0  0  0  0
    3.1318    7.2564   19.0610 O   0  0  0  0  0  0  0  0  0  0  0  0
    2.1229    7.3147   19.1000 H   0  0  0  0  0  0  0  0  0  0  0  0
    5.2885    2.7053   23.0942 S   0  0  0  0  0  0  0  0  0  0  0  0
    6.5344    3.1915   22.4082 O   0  0  0  0  0  0  0  0  0  0  0  0
    5.6916    1.9895   24.3335 O   0  0  0  0  0  0  0  0  0  0  0  0
    4.5664    5.1845   22.5884 C   0  0  0  0  0  0  0  0  0  0  0  0
    4.3545    4.0839   23.5102 N   0  0  0  0  0  0  0  0  0  0  0  0
    4.4211    4.3576   24.4928 H   0  0  0  0  0  0  0  0  0  0  0  0
 33 34  1  0  0  0
 34 30  1  0  0  0
 30 31  2  0  0  0
 30 32  2  0  0  0
 30  1  1  0  0  0
  1  2  2  0  0  0
  2  3  1  0  0  0
  3  4  2  0  0  0
  4  5  1  0  0  0
  5  6  2  0  0  0
  5  7  1  0  0  0
  7  8  2  0  0  0
  8 13  1  0  0  0
 13 14  1  0  0  0
 14 15  1  0  0  0
 15 16  2  0  0  0
 16 17  1  0  0  0
 17 24  1  0  0  0
 24 25  1  0  0  0
 25 26  1  0  0  0
 26 27  2  0  0  0
 26 28  1  0  0  0
 16 18  1  0  0  0
 18 19  2  0  0  0
 18 20  1  0  0  0
 20 21  1  0  0  0
 21 22  1  0  0  0
  7  9  1  0  0  0
  9 10  2  0  0  0
  9 11  1  0  0  0
  6  1  1  0  0  0
 17 13  2  0  0  0
 11  4  1  0  0  0
 22 15  1  0  0  0
 34 35  1  0  0  0
 14 23  1  0  0  0
 28 29  1  0  0  0
 11 12  1  0  0  0
M  END
> <minimizedAffinity>
-8.93527

> <CNNscore>
0.8923596740

> <CNNaffinity>
6.9910302162

> <CNN_VS>
6.2385134697

> <CNNaffinity_variance>
0.1084953994

$$$$
[H]OC(=O)C([H])([H])C([H])([H])c1c2c(n([H])c1C([H])=C1C(=O)N([H])c3c([H])c([H])c(S(=O)(=O)N([H])C([H])([H])[H])c([H])c31)C([H])([H])C([H])([H])C([H])([H])C2=O


 35 38  0  0  0  0  0  0  0  0999 V2000
    3.5444    4.2327   12.7535 C   0  0  0  0  0  0  0  0  0  0  0  0
    2.6526    3.3951   12.1185 C   0  0  0  0  0  0  0  0  0  0  0  0
    2.0818    2.3321   12.7751 C   0  0  0  0  0  0  0  0  0  0  0  0
    2.3782    2.0516   14.1150 C   0  0  0  0  0  0  0  0  0  0  0  0
    3.2680    2.8845   14.7542 C   0  0  0  0  0  0  0  0  0  0  0  0
    3.8284    3.9538   14.0567 C   0  0  0  0  0  0  0  0  0  0  0  0
    3.4650    2.4536   16.1539 C   0  0  0  0  0  0  0  0  0  0  0  0
    4.2248    3.0430   17.0408 C   0  0  0  0  0  0  0  0  0  0  0  0
    2.6021    1.2883   16.2673 C   0  0  0  0  0  0  0  0  0  0  0  0
    2.4275    0.5704   17.2850 O   0  0  0  0  0  0  0  0  0  0  0  0
    1.9412    1.0510   15.0106 N   0  0  0  0  0  0  0  0  0  0  0  0
    1.2683    0.2961   14.7819 H   0  0  0  0  0  0  0  0  0  0  0  0
    4.4393    2.6407   18.4167 C   0  0  0  0  0  0  0  0  0  0  0  0
    4.2951    1.4866   19.0648 N   0  0  0  0  0  0  0  0  0  0  0  0
    4.6012    1.6155   20.3702 C   0  0  0  0  0  0  0  0  0  0  0  0
    4.9686    2.9241   20.5997 C   0  0  0  0  0  0  0  0  0  0  0  0
    4.8668    3.5590   19.3818 C   0  0  0  0  0  0  0  0  0  0  0  0
    5.3449    3.3027   21.9500 C   0  0  0  0  0  0  0  0  0  0  0  0
    6.1536    4.2533   22.0834 O   0  0  0  0  0  0  0  0  0  0  0  0
    4.8092    2.6095   23.1550 C   0  0  0  0  0  0  0  0  0  0  0  0
    3.9194    1.4512   22.6830 C   0  0  0  0  0  0  0  0  0  0  0  0
    4.6266    0.6974   21.5499 C   0  0  0  0  0  0  0  0  0  0  0  0
    4.0086    0.5892   18.6628 H   0  0  0  0  0  0  0  0  0  0  0  0
    5.1723    4.9744   19.1730 C   0  0  0  0  0  0  0  0  0  0  0  0
    4.0766    5.9149   19.6215 C   0  0  0  0  0  0  0  0  0  0  0  0
    4.6677    6.8257   20.6250 C   0  0  0  0  0  0  0  0  0  0  0  0
    5.5150    7.6793   20.3017 O   0  0  0  0  0  0  0  0  0  0  0  0
    4.2745    6.7294   21.9446 O   0  0  0  0  0  0  0  0  0  0  0  0
    4.3653    5.8895   22.5006 H   0  0  0  0  0  0  0  0  0  0  0  0
    4.2774    5.5926   11.9515 S   0  0  0  0  0  0  0  0  0  0  0  0
    3.2927    6.0912   10.9312 O   0  0  0  0  0  0  0  0  0  0  0  0
    5.5204    5.1942   11.2393 O   0  0  0  0  0  0  0  0  0  0  0  0
    3.6213    7.9406   12.9416 C   0  0  0  0  0  0  0  0  0  0  0  0
    4.6229    6.8932   13.0171 N   0  0  0  0  0  0  0  0  0  0  0  0
    5.5818    7.2422   12.9594 H   0  0  0  0  0  0  0  0  0  0  0  0
 33 34  1  0  0  0
 34 30  1  0  0  0
 30 31  2  0  0  0
 30 32  2  0  0  0
 30  1  1  0  0  0
  1  2  2  0  0  0
  2  3  1  0  0  0
  3  4  2  0  0  0
  4  5  1  0  0  0
  5  6  2  0  0  0
  5  7  1  0  0  0
  7  8  2  0  0  0
  8 13  1  0  0  0
 13 14  1  0  0  0
 14 15  1  0  0  0
 15 16  2  0  0  0
 16 17  1  0  0  0
 17 24  1  0  0  0
 24 25  1  0  0  0
 25 26  1  0  0  0
 26 27  2  0  0  0
 26 28  1  0  0  0
 16 18  1  0  0  0
 18 19  2  0  0  0
 18 20  1  0  0  0
 20 21  1  0  0  0
 21 22  1  0  0  0
  7  9  1  0  0  0
  9 10  2  0  0  0
  9 11  1  0  0  0
  6  1  1  0  0  0
 17 13  2  0  0  0
 11  4  1  0  0  0
 22 15  1  0  0  0
 34 35  1  0  0  0
 14 23  1  0  0  0
 28 29  1  0  0  0
 11 12  1  0  0  0
M  END
> <minimizedAffinity>
-9.34541

> <CNNscore>
0.7481050491

> <CNNaffinity>
6.7893600464

> <CNN_VS>
5.0791544914

> <CNNaffinity_variance>
0.2673009038

$$$$
[H]OC(=O)C([H])([H])C([H])([H])c1c2c(n([H])c1C([H])=C1C(=O)N([H])c3c([H])c([H])c(S(=O)(=O)N([H])C([H])([H])[H])c([H])c31)C([H])([H])C([H])([H])C([H])([H])C2=O


 35 38  0  0  0  0  0  0  0  0999 V2000
    1.5492    4.7792   13.5559 C   0  0  0  0  0  0  0  0  0  0  0  0
    1.0387    3.6831   12.8941 C   0  0  0  0  0  0  0  0  0  0  0  0
    1.1952    2.4128   13.3927 C   0  0  0  0  0  0  0  0  0  0  0  0
    1.8778    2.1737   14.5921 C   0  0  0  0  0  0  0  0  0  0  0  0
    2.3898    3.2643   15.2573 C   0  0  0  0  0  0  0  0  0  0  0  0
    2.2123    4.5392   14.7219 C   0  0  0  0  0  0  0  0  0  0  0  0
    3.0713    2.8396   16.4979 C   0  0  0  0  0  0  0  0  0  0  0  0
    3.6414    3.6291   17.3715 C   0  0  0  0  0  0  0  0  0  0  0  0
    2.9054    1.3947   16.4901 C   0  0  0  0  0  0  0  0  0  0  0  0
    3.3190    0.5795   17.3539 O   0  0  0  0  0  0  0  0  0  0  0  0
    2.1726    0.9977   15.3164 N   0  0  0  0  0  0  0  0  0  0  0  0
    1.9007    0.0377   15.0345 H   0  0  0  0  0  0  0  0  0  0  0  0
    4.3191    3.2403   18.5924 C   0  0  0  0  0  0  0  0  0  0  0  0
    4.7835    2.0796   19.0504 N   0  0  0  0  0  0  0  0  0  0  0  0
    5.3254    2.2173   20.2759 C   0  0  0  0  0  0  0  0  0  0  0  0
    5.2151    3.5394   20.6500 C   0  0  0  0  0  0  0  0  0  0  0  0
    4.5887    4.1730   19.5998 C   0  0  0  0  0  0  0  0  0  0  0  0
    5.7364    3.9294   21.9478 C   0  0  0  0  0  0  0  0  0  0  0  0
    6.1324    5.1126   22.0839 O   0  0  0  0  0  0  0  0  0  0  0  0
    5.8121    2.9846   23.0974 C   0  0  0  0  0  0  0  0  0  0  0  0
    5.3399    1.6064   22.6142 C   0  0  0  0  0  0  0  0  0  0  0  0
    5.9813    1.2980   21.2555 C   0  0  0  0  0  0  0  0  0  0  0  0
    4.7687    1.1784   18.5640 H   0  0  0  0  0  0  0  0  0  0  0  0
    4.2763    5.6021   19.5801 C   0  0  0  0  0  0  0  0  0  0  0  0
    5.3546    6.4611   18.9588 C   0  0  0  0  0  0  0  0  0  0  0  0
    4.7038    7.3027   17.9321 C   0  0  0  0  0  0  0  0  0  0  0  0
    5.3384    8.1851   17.3242 O   0  0  0  0  0  0  0  0  0  0  0  0
    3.3686    7.1081   17.6411 O   0  0  0  0  0  0  0  0  0  0  0  0
    2.6256    7.1833   18.3231 H   0  0  0  0  0  0  0  0  0  0  0  0
    1.3597    6.4016   12.9544 S   0  0  0  0  0  0  0  0  0  0  0  0
    2.1494    6.4985   11.6792 O   0  0  0  0  0  0  0  0  0  0  0  0
    1.9033    7.4001   13.9127 O   0  0  0  0  0  0  0  0  0  0  0  0
   -1.1483    6.6021   13.7248 C   0  0  0  0  0  0  0  0  0  0  0  0
   -0.2701    6.7940   12.5856 N   0  0  0  0  0  0  0  0  0  0  0  0
   -0.6216    6.3696   11.7248 H   0  0  0  0  0  0  0  0  0  0  0  0
 33 34  1  0  0  0
 34 30  1  0  0  0
 30 31  2  0  0  0
 30 32  2  0  0  0
 30  1  1  0  0  0
  1  2  2  0  0  0
  2  3  1  0  0  0
  3  4  2  0  0  0
  4  5  1  0  0  0
  5  6  2  0  0  0
  5  7  1  0  0  0
  7  8  2  0  0  0
  8 13  1  0  0  0
 13 14  1  0  0  0
 14 15  1  0  0  0
 15 16  2  0  0  0
 16 17  1  0  0  0
 17 24  1  0  0  0
 24 25  1  0  0  0
 25 26  1  0  0  0
 26 27  2  0  0  0
 26 28  1  0  0  0
 16 18  1  0  0  0
 18 19  2  0  0  0
 18 20  1  0  0  0
 20 21  1  0  0  0
 21 22  1  0  0  0
  7  9  1  0  0  0
  9 10  2  0  0  0
  9 11  1  0  0  0
  6  1  1  0  0  0
 17 13  2  0  0  0
 11  4  1  0  0  0
 22 15  1  0  0  0
 34 35  1  0  0  0
 14 23  1  0  0  0
 28 29  1  0  0  0
 11 12  1  0  0  0
M  END
> <minimizedAffinity>
-8.20781

> <CNNscore>
0.6589077711

> <CNNaffinity>
6.5048356056

> <CNN_VS>
4.2860865593

> <CNNaffinity_variance>
0.0991077721

$$$$
[H]OC(=O)C([H])([H])C([H])([H])c1c2c(n([H])c1C([H])=C1C(=O)N([H])c3c([H])c([H])c(S(=O)(=O)N([H])C([H])([H])[H])c([H])c31)C([H])([H])C([H])([H])C([H])([H])C2=O


 35 38  0  0  0  0  0  0  0  0999 V2000
    3.4234    4.1153   13.2522 C   0  0  0  0  0  0  0  0  0  0  0  0
    2.7105    3.0734   12.6986 C   0  0  0  0  0  0  0  0  0  0  0  0
    2.3545    1.9771   13.4458 C   0  0  0  0  0  0  0  0  0  0  0  0
    2.6978    1.8680   14.7993 C   0  0  0  0  0  0  0  0  0  0  0  0
    3.4096    2.9052   15.3574 C   0  0  0  0  0  0  0  0  0  0  0  0
    3.7542    4.0023   14.5692 C   0  0  0  0  0  0  0  0  0  0  0  0
    3.6842    2.6346   16.7840 C   0  0  0  0  0  0  0  0  0  0  0  0
    4.3152    3.4288   17.6102 C   0  0  0  0  0  0  0  0  0  0  0  0
    3.0619    1.3382   17.0020 C   0  0  0  0  0  0  0  0  0  0  0  0
    3.0278    0.6847   18.0760 O   0  0  0  0  0  0  0  0  0  0  0  0
    2.4607    0.8776   15.7778 N   0  0  0  0  0  0  0  0  0  0  0  0
    1.9462   -0.0085   15.6195 H   0  0  0  0  0  0  0  0  0  0  0  0
    4.6014    3.1876   19.0106 C   0  0  0  0  0  0  0  0  0  0  0  0
    5.1983    2.1925   19.6634 N   0  0  0  0  0  0  0  0  0  0  0  0
    5.2053    2.4123   20.9923 C   0  0  0  0  0  0  0  0  0  0  0  0
    4.5807    3.6172   21.2333 C   0  0  0  0  0  0  0  0  0  0  0  0
    4.2065    4.0969   19.9978 C   0  0  0  0  0  0  0  0  0  0  0  0
    4.4685    4.0671   22.6093 C   0  0  0  0  0  0  0  0  0  0  0  0
    4.4183    5.3043   22.8145 O   0  0  0  0  0  0  0  0  0  0  0  0
    4.4123    3.1213   23.7591 C   0  0  0  0  0  0  0  0  0  0  0  0
    4.5756    1.6960   23.2130 C   0  0  0  0  0  0  0  0  0  0  0  0
    5.7159    1.6733   22.1875 C   0  0  0  0  0  0  0  0  0  0  0  0
    5.6260    1.3582   19.2512 H   0  0  0  0  0  0  0  0  0  0  0  0
    3.5097    5.3670   19.7939 C   0  0  0  0  0  0  0  0  0  0  0  0
    4.4239    6.5700   19.7347 C   0  0  0  0  0  0  0  0  0  0  0  0
    3.8282    7.5232   18.7743 C   0  0  0  0  0  0  0  0  0  0  0  0
    3.9694    7.3745   17.5459 O   0  0  0  0  0  0  0  0  0  0  0  0
    3.1021    8.5981   19.2461 O   0  0  0  0  0  0  0  0  0  0  0  0
    3.4750    9.3003   19.8713 H   0  0  0  0  0  0  0  0  0  0  0  0
    3.8815    5.5214   12.3342 S   0  0  0  0  0  0  0  0  0  0  0  0
    3.8368    6.6973   13.2693 O   0  0  0  0  0  0  0  0  0  0  0  0
    2.9263    5.7764   11.2236 O   0  0  0  0  0  0  0  0  0  0  0  0
    5.6215    4.3245   10.7646 C   0  0  0  0  0  0  0  0  0  0  0  0
    5.4749    5.4209   11.7039 N   0  0  0  0  0  0  0  0  0  0  0  0
    6.2112    5.4511   12.4121 H   0  0  0  0  0  0  0  0  0  0  0  0
 33 34  1  0  0  0
 34 30  1  0  0  0
 30 31  2  0  0  0
 30 32  2  0  0  0
 30  1  1  0  0  0
  1  2  2  0  0  0
  2  3  1  0  0  0
  3  4  2  0  0  0
  4  5  1  0  0  0
  5  6  2  0  0  0
  5  7  1  0  0  0
  7  8  2  0  0  0
  8 13  1  0  0  0
 13 14  1  0  0  0
 14 15  1  0  0  0
 15 16  2  0  0  0
 16 17  1  0  0  0
 17 24  1  0  0  0
 24 25  1  0  0  0
 25 26  1  0  0  0
 26 27  2  0  0  0
 26 28  1  0  0  0
 16 18  1  0  0  0
 18 19  2  0  0  0
 18 20  1  0  0  0
 20 21  1  0  0  0
 21 22  1  0  0  0
  7  9  1  0  0  0
  9 10  2  0  0  0
  9 11  1  0  0  0
  6  1  1  0  0  0
 17 13  2  0  0  0
 11  4  1  0  0  0
 22 15  1  0  0  0
 34 35  1  0  0  0
 14 23  1  0  0  0
 28 29  1  0  0  0
 11 12  1  0  0  0
M  END
> <minimizedAffinity>
-9.42966

> <CNNscore>
0.5301527381

> <CNNaffinity>
6.4501609802

> <CNN_VS>
3.4195704460

> <CNNaffinity_variance>
0.3815972209

$$$$
[H]OC(=O)C([H])([H])C([H])([H])c1c2c(n([H])c1C([H])=C1C(=O)N([H])c3c([H])c([H])c(S(=O)(=O)N([H])C([H])([H])[H])c([H])c31)C([H])([H])C([H])([H])C([H])([H])C2=O


 35 38  0  0  0  0  0  0  0  0999 V2000
    4.2541    1.7636   19.7871 C   0  0  0  0  0  0  0  0  0  0  0  0
    3.5706    0.5685   19.8537 C   0  0  0  0  0  0  0  0  0  0  0  0
    2.8936    0.0730   18.7660 C   0  0  0  0  0  0  0  0  0  0  0  0
    2.8670    0.7565   17.5438 C   0  0  0  0  0  0  0  0  0  0  0  0
    3.5477    1.9504   17.4713 C   0  0  0  0  0  0  0  0  0  0  0  0
    4.2238    2.4233   18.5951 C   0  0  0  0  0  0  0  0  0  0  0  0
    3.4227    2.5352   16.1200 C   0  0  0  0  0  0  0  0  0  0  0  0
    3.9711    3.6499   15.7102 C   0  0  0  0  0  0  0  0  0  0  0  0
    2.6028    1.5643   15.4124 C   0  0  0  0  0  0  0  0  0  0  0  0
    2.2230    1.6221   14.2149 O   0  0  0  0  0  0  0  0  0  0  0  0
    2.2676    0.4782   16.2957 N   0  0  0  0  0  0  0  0  0  0  0  0
    1.6966   -0.3599   16.0801 H   0  0  0  0  0  0  0  0  0  0  0  0
    3.8623    4.2479   14.3943 C   0  0  0  0  0  0  0  0  0  0  0  0
    4.0727    3.7900   13.1619 N   0  0  0  0  0  0  0  0  0  0  0  0
    3.8579    4.7479   12.2395 C   0  0  0  0  0  0  0  0  0  0  0  0
    3.4846    5.9016   12.8949 C   0  0  0  0  0  0  0  0  0  0  0  0
    3.4882    5.5866   14.2356 C   0  0  0  0  0  0  0  0  0  0  0  0
    3.1985    7.0804   12.0967 C   0  0  0  0  0  0  0  0  0  0  0  0
    2.3846    7.9146   12.5625 O   0  0  0  0  0  0  0  0  0  0  0  0
    3.8308    7.3218   10.7695 C   0  0  0  0  0  0  0  0  0  0  0  0
    4.7053    6.1069   10.4295 C   0  0  0  0  0  0  0  0  0  0  0  0
    3.9327    4.8208   10.7481 C   0  0  0  0  0  0  0  0  0  0  0  0
    4.3458    2.8385   12.8996 H   0  0  0  0  0  0  0  0  0  0  0  0
    3.1435    6.5339   15.2959 C   0  0  0  0  0  0  0  0  0  0  0  0
    4.3065    7.3726   15.7761 C   0  0  0  0  0  0  0  0  0  0  0  0
    3.9254    8.7898   15.5959 C   0  0  0  0  0  0  0  0  0  0  0  0
    4.7443    9.7078   15.7905 O   0  0  0  0  0  0  0  0  0  0  0  0
    2.6391    9.1027   15.2050 O   0  0  0  0  0  0  0  0  0  0  0  0
    1.8117    8.8379   15.7229 H   0  0  0  0  0  0  0  0  0  0  0  0
    5.1284    2.4132   21.1448 S   0  0  0  0  0  0  0  0  0  0  0  0
    5.6860    3.7428   20.7201 O   0  0  0  0  0  0  0  0  0  0  0  0
    6.2659    1.5344   21.5255 O   0  0  0  0  0  0  0  0  0  0  0  0
    4.6441    2.0183   23.7008 C   0  0  0  0  0  0  0  0  0  0  0  0
    4.1327    2.6831   22.5166 N   0  0  0  0  0  0  0  0  0  0  0  0
    3.1373    2.5167   22.3545 H   0  0  0  0  0  0  0  0  0  0  0  0
 33 34  1  0  0  0
 34 30  1  0  0  0
 30 31  2  0  0  0
 30 32  2  0  0  0
 30  1  1  0  0  0
  1  2  2  0  0  0
  2  3  1  0  0  0
  3  4  2  0  0  0
  4  5  1  0  0  0
  5  6  2  0  0  0
  5  7  1  0  0  0
  7  8  2  0  0  0
  8 13  1  0  0  0
 13 14  1  0  0  0
 14 15  1  0  0  0
 15 16  2  0  0  0
 16 17  1  0  0  0
 17 24  1  0  0  0
 24 25  1  0  0  0
 25 26  1  0  0  0
 26 27  2  0  0  0
 26 28  1  0  0  0
 16 18  1  0  0  0
 18 19  2  0  0  0
 18 20  1  0  0  0
 20 21  1  0  0  0
 21 22  1  0  0  0
  7  9  1  0  0  0
  9 10  2  0  0  0
  9 11  1  0  0  0
  6  1  1  0  0  0
 17 13  2  0  0  0
 11  4  1  0  0  0
 22 15  1  0  0  0
 34 35  1  0  0  0
 14 23  1  0  0  0
 28 29  1  0  0  0
 11 12  1  0  0  0
M  END
> <minimizedAffinity>
-7.94553

> <CNNscore>
0.3655240834

> <CNNaffinity>
6.2515115738

> <CNN_VS>
2.2850780487

> <CNNaffinity_variance>
0.1794474423

$$$$
[H]OC(=O)C([H])([H])C([H])([H])c1c2c(n([H])c1C([H])=C1C(=O)N([H])c3c([H])c([H])c(S(=O)(=O)N([H])C([H])([H])[H])c([H])c31)C([H])([H])C([H])([H])C([H])([H])C2=O


 35 38  0  0  0  0  0  0  0  0999 V2000
    3.5341    5.9903   13.5583 C   0  0  0  0  0  0  0  0  0  0  0  0
    3.1780    5.1783   12.5029 C   0  0  0  0  0  0  0  0  0  0  0  0
    3.0229    3.8233   12.6670 C   0  0  0  0  0  0  0  0  0  0  0  0
    3.2184    3.2069   13.9093 C   0  0  0  0  0  0  0  0  0  0  0  0
    3.5741    4.0127   14.9668 C   0  0  0  0  0  0  0  0  0  0  0  0
    3.7229    5.3840   14.7639 C   0  0  0  0  0  0  0  0  0  0  0  0
    3.7356    3.2097   16.1968 C   0  0  0  0  0  0  0  0  0  0  0  0
    4.0428    3.6707   17.3819 C   0  0  0  0  0  0  0  0  0  0  0  0
    3.4385    1.8572   15.7520 C   0  0  0  0  0  0  0  0  0  0  0  0
    3.4420    0.8114   16.4506 O   0  0  0  0  0  0  0  0  0  0  0  0
    3.1233    1.8676   14.3474 N   0  0  0  0  0  0  0  0  0  0  0  0
    2.8713    1.0592   13.7492 H   0  0  0  0  0  0  0  0  0  0  0  0
    4.2112    2.9071   18.6024 C   0  0  0  0  0  0  0  0  0  0  0  0
    3.8543    1.6777   18.9681 N   0  0  0  0  0  0  0  0  0  0  0  0
    4.2185    1.4188   20.2389 C   0  0  0  0  0  0  0  0  0  0  0  0
    4.8511    2.5354   20.7421 C   0  0  0  0  0  0  0  0  0  0  0  0
    4.8449    3.4594   19.7208 C   0  0  0  0  0  0  0  0  0  0  0  0
    5.3362    2.4893   22.1098 C   0  0  0  0  0  0  0  0  0  0  0  0
    6.3249    3.2056   22.4007 O   0  0  0  0  0  0  0  0  0  0  0  0
    4.7062    1.6343   23.1547 C   0  0  0  0  0  0  0  0  0  0  0  0
    3.5858    0.8199   22.4932 C   0  0  0  0  0  0  0  0  0  0  0  0
    4.0913    0.2497   21.1620 C   0  0  0  0  0  0  0  0  0  0  0  0
    3.3795    0.9792   18.3889 H   0  0  0  0  0  0  0  0  0  0  0  0
    5.4257    4.7977   19.8296 C   0  0  0  0  0  0  0  0  0  0  0  0
    4.4275    5.8768   20.1839 C   0  0  0  0  0  0  0  0  0  0  0  0
    4.4988    6.0729   21.6476 C   0  0  0  0  0  0  0  0  0  0  0  0
    3.7339    5.4629   22.4183 O   0  0  0  0  0  0  0  0  0  0  0  0
    5.4295    6.9476   22.1710 O   0  0  0  0  0  0  0  0  0  0  0  0
    5.4781    7.9292   21.9324 H   0  0  0  0  0  0  0  0  0  0  0  0
    3.7295    7.7112   13.3844 S   0  0  0  0  0  0  0  0  0  0  0  0
    5.2046    7.9842   13.2895 O   0  0  0  0  0  0  0  0  0  0  0  0
    3.1994    8.4377   14.5685 O   0  0  0  0  0  0  0  0  0  0  0  0
    1.5470    8.3138   12.0438 C   0  0  0  0  0  0  0  0  0  0  0  0
    2.9957    8.3290   11.9610 N   0  0  0  0  0  0  0  0  0  0  0  0
    3.3577    7.9297   11.0925 H   0  0  0  0  0  0  0  0  0  0  0  0
 33 34  1  0  0  0
 34 30  1  0  0  0
 30 31  2  0  0  0
 30 32  2  0  0  0
 30  1  1  0  0  0
  1  2  2  0  0  0
  2  3  1  0  0  0
  3  4  2  0  0  0
  4  5  1  0  0  0
  5  6  2  0  0  0
  5  7  1  0  0  0
  7  8  2  0  0  0
  8 13  1  0  0  0
 13 14  1  0  0  0
 14 15  1  0  0  0
 15 16  2  0  0  0
 16 17  1  0  0  0
 17 24  1  0  0  0
 24 25  1  0  0  0
 25 26  1  0  0  0
 26 27  2  0  0  0
 26 28  1  0  0  0
 16 18  1  0  0  0
 18 19  2  0  0  0
 18 20  1  0  0  0
 20 21  1  0  0  0
 21 22  1  0  0  0
  7  9  1  0  0  0
  9 10  2  0  0  0
  9 11  1  0  0  0
  6  1  1  0  0  0
 17 13  2  0  0  0
 11  4  1  0  0  0
 22 15  1  0  0  0
 34 35  1  0  0  0
 14 23  1  0  0  0
 28 29  1  0  0  0
 11 12  1  0  0  0
M  END
> <minimizedAffinity>
-8.77294

> <CNNscore>
0.2656627595

> <CNNaffinity>
6.0796232224

> <CNN_VS>
1.6151294708

> <CNNaffinity_variance>
0.6331846118

$$$$
[H]OC(=O)C([H])([H])C([H])([H])c1c2c(n([H])c1C([H])=C1C(=O)N([H])c3c([H])c([H])c(S(=O)(=O)N([H])C([H])([H])[H])c([H])c31)C([H])([H])C([H])([H])C([H])([H])C2=O


 35 38  0  0  0  0  0  0  0  0999 V2000
    3.9824    5.4236   11.7634 C   0  0  0  0  0  0  0  0  0  0  0  0
    2.8198    6.1488   11.6128 C   0  0  0  0  0  0  0  0  0  0  0  0
    1.9403    6.3100   12.6555 C   0  0  0  0  0  0  0  0  0  0  0  0
    2.1835    5.7475   13.9150 C   0  0  0  0  0  0  0  0  0  0  0  0
    3.3426    5.0224   14.0713 C   0  0  0  0  0  0  0  0  0  0  0  0
    4.2124    4.8790   12.9911 C   0  0  0  0  0  0  0  0  0  0  0  0
    3.4466    4.5056   15.4518 C   0  0  0  0  0  0  0  0  0  0  0  0
    4.4366    3.8016   15.9373 C   0  0  0  0  0  0  0  0  0  0  0  0
    2.2344    5.0014   16.0843 C   0  0  0  0  0  0  0  0  0  0  0  0
    1.8725    4.8212   17.2752 O   0  0  0  0  0  0  0  0  0  0  0  0
    1.4673    5.7611   15.1321 N   0  0  0  0  0  0  0  0  0  0  0  0
    0.5594    6.2373   15.2865 H   0  0  0  0  0  0  0  0  0  0  0  0
    4.5627    3.2794   17.2836 C   0  0  0  0  0  0  0  0  0  0  0  0
    4.3590    2.0784   17.8210 N   0  0  0  0  0  0  0  0  0  0  0  0
    4.5907    2.0892   19.1479 C   0  0  0  0  0  0  0  0  0  0  0  0
    4.9690    3.3645   19.5092 C   0  0  0  0  0  0  0  0  0  0  0  0
    4.9506    4.1023   18.3465 C   0  0  0  0  0  0  0  0  0  0  0  0
    5.2730    3.6186   20.9061 C   0  0  0  0  0  0  0  0  0  0  0  0
    6.0905    4.5348   21.1660 O   0  0  0  0  0  0  0  0  0  0  0  0
    4.6547    2.8390   22.0150 C   0  0  0  0  0  0  0  0  0  0  0  0
    3.7721    1.7464   21.3959 C   0  0  0  0  0  0  0  0  0  0  0  0
    4.5298    1.0743   20.2441 C   0  0  0  0  0  0  0  0  0  0  0  0
    4.0793    1.2254   17.3280 H   0  0  0  0  0  0  0  0  0  0  0  0
    5.2946    5.5226   18.2774 C   0  0  0  0  0  0  0  0  0  0  0  0
    6.7387    5.7911   17.9180 C   0  0  0  0  0  0  0  0  0  0  0  0
    7.1713    6.9676   18.7019 C   0  0  0  0  0  0  0  0  0  0  0  0
    7.2502    8.0963   18.1813 O   0  0  0  0  0  0  0  0  0  0  0  0
    7.4942    6.8139   20.0351 O   0  0  0  0  0  0  0  0  0  0  0  0
    8.2174    6.1927   20.3727 H   0  0  0  0  0  0  0  0  0  0  0  0
    5.1207    5.2088   10.4641 S   0  0  0  0  0  0  0  0  0  0  0  0
    4.3322    4.8451    9.2373 O   0  0  0  0  0  0  0  0  0  0  0  0
    6.0667    4.0986   10.7526 O   0  0  0  0  0  0  0  0  0  0  0  0
    6.0665    7.5383   11.2404 C   0  0  0  0  0  0  0  0  0  0  0  0
    6.0070    6.6346   10.1065 N   0  0  0  0  0  0  0  0  0  0  0  0
    5.7343    7.0931    9.2347 H   0  0  0  0  0  0  0  0  0  0  0  0
 33 34  1  0  0  0
 34 30  1  0  0  0
 30 31  2  0  0  0
 30 32  2  0  0  0
 30  1  1  0  0  0
  1  2  2  0  0  0
  2  3  1  0  0  0
  3  4  2  0  0  0
  4  5  1  0  0  0
  5  6  2  0  0  0
  5  7  1  0  0  0
  7  8  2  0  0  0
  8 13  1  0  0  0
 13 14  1  0  0  0
 14 15  1  0  0  0
 15 16  2  0  0  0
 16 17  1  0  0  0
 17 24  1  0  0  0
 24 25  1  0  0  0
 25 26  1  0  0  0
 26 27  2  0  0  0
 26 28  1  0  0  0
 16 18  1  0  0  0
 18 19  2  0  0  0
 18 20  1  0  0  0
 20 21  1  0  0  0
 21 22  1  0  0  0
  7  9  1  0  0  0
  9 10  2  0  0  0
  9 11  1  0  0  0
  6  1  1  0  0  0
 17 13  2  0  0  0
 11  4  1  0  0  0
 22 15  1  0  0  0
 34 35  1  0  0  0
 14 23  1  0  0  0
 28 29  1  0  0  0
 11 12  1  0  0  0
M  END
> <minimizedAffinity>
-7.51670

> <CNNscore>
0.2389740497

> <CNNaffinity>
5.8903908730

> <CNN_VS>
1.4076505899

> <CNNaffinity_variance>
0.2679246068

$$$$
[H]OC(=O)C([H])([H])C([H])([H])c1c2c(n([H])c1C([H])=C1C(=O)N([H])c3c([H])c([H])c(S(=O)(=O)N([H])C([H])([H])[H])c([H])c31)C([H])([H])C([H])([H])C([H])([H])C2=O


 35 38  0  0  0  0  0  0  0  0999 V2000
    3.4253    3.2588   17.3418 C   0  0  0  0  0  0  0  0  0  0  0  0
    3.7043    4.5020   17.8678 C   0  0  0  0  0  0  0  0  0  0  0  0
    3.3616    5.6520   17.1993 C   0  0  0  0  0  0  0  0  0  0  0  0
    2.7151    5.6146   15.9574 C   0  0  0  0  0  0  0  0  0  0  0  0
    2.4339    4.3762   15.4272 C   0  0  0  0  0  0  0  0  0  0  0  0
    2.7964    3.2299   16.1332 C   0  0  0  0  0  0  0  0  0  0  0  0
    1.7512    4.5149   14.1240 C   0  0  0  0  0  0  0  0  0  0  0  0
    1.3240    3.5343   13.3709 C   0  0  0  0  0  0  0  0  0  0  0  0
    1.6618    5.9558   13.9476 C   0  0  0  0  0  0  0  0  0  0  0  0
    1.1513    6.5704   12.9763 O   0  0  0  0  0  0  0  0  0  0  0  0
    2.2567    6.6199   15.0778 N   0  0  0  0  0  0  0  0  0  0  0  0
    2.3440    7.6405   15.2385 H   0  0  0  0  0  0  0  0  0  0  0  0
    0.6560    3.6411   12.0889 C   0  0  0  0  0  0  0  0  0  0  0  0
   -0.5678    4.0181   11.7244 N   0  0  0  0  0  0  0  0  0  0  0  0
   -0.7331    3.9245   10.3909 C   0  0  0  0  0  0  0  0  0  0  0  0
    0.4437    3.4618    9.8420 C   0  0  0  0  0  0  0  0  0  0  0  0
    1.3058    3.2868   10.9016 C   0  0  0  0  0  0  0  0  0  0  0  0
    0.5028    3.2798    8.4027 C   0  0  0  0  0  0  0  0  0  0  0  0
    1.6232    3.3908    7.8480 O   0  0  0  0  0  0  0  0  0  0  0  0
   -0.7033    2.9716    7.5842 C   0  0  0  0  0  0  0  0  0  0  0  0
   -1.9251    2.9785    8.5133 C   0  0  0  0  0  0  0  0  0  0  0  0
   -1.8520    4.1998    9.4383 C   0  0  0  0  0  0  0  0  0  0  0  0
   -1.3132    4.3582   12.3389 H   0  0  0  0  0  0  0  0  0  0  0  0
    2.6808    2.8069   10.7624 C   0  0  0  0  0  0  0  0  0  0  0  0
    2.8193    1.3027   10.8298 C   0  0  0  0  0  0  0  0  0  0  0  0
    3.3798    0.8583    9.5359 C   0  0  0  0  0  0  0  0  0  0  0  0
    3.4249   -0.3489    9.2329 O   0  0  0  0  0  0  0  0  0  0  0  0
    3.8623    1.7971    8.6465 O   0  0  0  0  0  0  0  0  0  0  0  0
    4.6042    2.4498    8.8621 H   0  0  0  0  0  0  0  0  0  0  0  0
    3.8387    1.7838   18.1684 S   0  0  0  0  0  0  0  0  0  0  0  0
    5.2037    1.3738   17.6911 O   0  0  0  0  0  0  0  0  0  0  0  0
    2.8849    0.6926   17.8361 O   0  0  0  0  0  0  0  0  0  0  0  0
    5.2842    2.1403   20.3380 C   0  0  0  0  0  0  0  0  0  0  0  0
    3.9202    1.9705   19.8727 N   0  0  0  0  0  0  0  0  0  0  0  0
    3.3950    1.2693   20.3993 H   0  0  0  0  0  0  0  0  0  0  0  0
 33 34  1  0  0  0
 34 30  1  0  0  0
 30 31  2  0  0  0
 30 32  2  0  0  0
 30  1  1  0  0  0
  1  2  2  0  0  0
  2  3  1  0  0  0
  3  4  2  0  0  0
  4  5  1  0  0  0
  5  6  2  0  0  0
  5  7  1  0  0  0
  7  8  2  0  0  0
  8 13  1  0  0  0
 13 14  1  0  0  0
 14 15  1  0  0  0
 15 16  2  0  0  0
 16 17  1  0  0  0
 17 24  1  0  0  0
 24 25  1  0  0  0
 25 26  1  0  0  0
 26 27  2  0  0  0
 26 28  1  0  0  0
 16 18  1  0  0  0
 18 19  2  0  0  0
 18 20  1  0  0  0
 20 21  1  0  0  0
 21 22  1  0  0  0
  7  9  1  0  0  0
  9 10  2  0  0  0
  9 11  1  0  0  0
  6  1  1  0  0  0
 17 13  2  0  0  0
 11  4  1  0  0  0
 22 15  1  0  0  0
 34 35  1  0  0  0
 14 23  1  0  0  0
 28 29  1  0  0  0
 11 12  1  0  0  0
M  END
> <minimizedAffinity>
-5.40969

> <CNNscore>
0.1867490411

> <CNNaffinity>
5.6756396294

> <CNN_VS>
1.0599203110

> <CNNaffinity_variance>
0.4074957967

$$$$
[H]OC(=O)C([H])([H])C([H])([H])c1c2c(n([H])c1C([H])=C1C(=O)N([H])c3c([H])c([H])c(S(=O)(=O)N([H])C([H])([H])[H])c([H])c31)C([H])([H])C([H])([H])C([H])([H])C2=O


 35 38  0  0  0  0  0  0  0  0999 V2000
    3.8502    4.8880   11.7545 C   0  0  0  0  0  0  0  0  0  0  0  0
    2.6347    5.4912   11.5125 C   0  0  0  0  0  0  0  0  0  0  0  0
    1.7737    5.7965   12.5384 C   0  0  0  0  0  0  0  0  0  0  0  0
    2.0903    5.5104   13.8724 C   0  0  0  0  0  0  0  0  0  0  0  0
    3.3026    4.9080   14.1202 C   0  0  0  0  0  0  0  0  0  0  0  0
    4.1515    4.6123   13.0545 C   0  0  0  0  0  0  0  0  0  0  0  0
    3.4803    4.6812   15.5695 C   0  0  0  0  0  0  0  0  0  0  0  0
    4.5312    4.1534   16.1426 C   0  0  0  0  0  0  0  0  0  0  0  0
    2.2527    5.2112   16.1417 C   0  0  0  0  0  0  0  0  0  0  0  0
    1.9365    5.2456   17.3584 O   0  0  0  0  0  0  0  0  0  0  0  0
    1.4076    5.7163   15.0915 N   0  0  0  0  0  0  0  0  0  0  0  0
    0.4720    6.1527   15.1866 H   0  0  0  0  0  0  0  0  0  0  0  0
    4.7304    3.9160   17.5586 C   0  0  0  0  0  0  0  0  0  0  0  0
    4.9307    4.7198   18.6010 N   0  0  0  0  0  0  0  0  0  0  0  0
    5.0887    4.0169   19.7392 C   0  0  0  0  0  0  0  0  0  0  0  0
    4.9869    2.6762   19.4355 C   0  0  0  0  0  0  0  0  0  0  0  0
    4.7637    2.6173   18.0778 C   0  0  0  0  0  0  0  0  0  0  0  0
    5.1257    1.7170   20.5167 C   0  0  0  0  0  0  0  0  0  0  0  0
    4.5336    0.6167   20.3975 O   0  0  0  0  0  0  0  0  0  0  0  0
    5.9339    1.9965   21.7366 C   0  0  0  0  0  0  0  0  0  0  0  0
    6.4644    3.4335   21.6387 C   0  0  0  0  0  0  0  0  0  0  0  0
    5.3346    4.3607   21.1732 C   0  0  0  0  0  0  0  0  0  0  0  0
    4.9527    5.7437   18.5905 H   0  0  0  0  0  0  0  0  0  0  0  0
    4.5898    1.3694   17.3342 C   0  0  0  0  0  0  0  0  0  0  0  0
    3.1759    0.8337   17.3496 C   0  0  0  0  0  0  0  0  0  0  0  0
    2.5187    1.3026   16.1109 C   0  0  0  0  0  0  0  0  0  0  0  0
    3.0784    1.1958   15.0035 O   0  0  0  0  0  0  0  0  0  0  0  0
    1.2621    1.8694   16.1816 O   0  0  0  0  0  0  0  0  0  0  0  0
    1.0429    2.6891   16.7320 H   0  0  0  0  0  0  0  0  0  0  0  0
    4.9663    4.4969   10.4772 S   0  0  0  0  0  0  0  0  0  0  0  0
    6.3533    4.6553   11.0342 O   0  0  0  0  0  0  0  0  0  0  0  0
    4.8198    5.4285    9.3276 O   0  0  0  0  0  0  0  0  0  0  0  0
    3.4271    2.4475    9.8819 C   0  0  0  0  0  0  0  0  0  0  0  0
    4.8118    2.8795    9.9237 N   0  0  0  0  0  0  0  0  0  0  0  0
    5.4319    2.2135   10.3890 H   0  0  0  0  0  0  0  0  0  0  0  0
 33 34  1  0  0  0
 34 30  1  0  0  0
 30 31  2  0  0  0
 30 32  2  0  0  0
 30  1  1  0  0  0
  1  2  2  0  0  0
  2  3  1  0  0  0
  3  4  2  0  0  0
  4  5  1  0  0  0
  5  6  2  0  0  0
  5  7  1  0  0  0
  7  8  2  0  0  0
  8 13  1  0  0  0
 13 14  1  0  0  0
 14 15  1  0  0  0
 15 16  2  0  0  0
 16 17  1  0  0  0
 17 24  1  0  0  0
 24 25  1  0  0  0
 25 26  1  0  0  0
 26 27  2  0  0  0
 26 28  1  0  0  0
 16 18  1  0  0  0
 18 19  2  0  0  0
 18 20  1  0  0  0
 20 21  1  0  0  0
 21 22  1  0  0  0
  7  9  1  0  0  0
  9 10  2  0  0  0
  9 11  1  0  0  0
  6  1  1  0  0  0
 17 13  2  0  0  0
 11  4  1  0  0  0
 22 15  1  0  0  0
 34 35  1  0  0  0
 14 23  1  0  0  0
 28 29  1  0  0  0
 11 12  1  0  0  0
M  END
> <minimizedAffinity>
-7.42614

> <CNNscore>
0.1554031819

> <CNNaffinity>
5.4060811996

> <CNN_VS>
0.8401222229

> <CNNaffinity_variance>
0.1316070557

$$$$
[H]c1nc(OC([H])([H])[H])c(N([H])S(=O)(=O)c2c([H])c([H])c(F)c([H])c2F)c([H])c1-c1nc([H])c2nc(N([H])[H])c(-c3c([H])c([H])c([H])c([H])c3[H])c([H])c2c1[H]


 40 44  0  0  0  0  0  0  0  0999 V2000
    3.6588    4.3739   11.9683 C   0  0  0  0  0  0  0  0  0  0  0  0
    3.2897    3.0874   11.8895 N   0  0  0  0  0  0  0  0  0  0  0  0
    3.1248    2.2901   12.9912 C   0  0  0  0  0  0  0  0  0  0  0  0
    3.3349    2.7839   14.2540 C   0  0  0  0  0  0  0  0  0  0  0  0
    3.7166    4.1122   14.3437 C   0  0  0  0  0  0  0  0  0  0  0  0
    3.8806    4.9122   13.2147 C   0  0  0  0  0  0  0  0  0  0  0  0
    3.1749    1.9811   15.4714 C   0  0  0  0  0  0  0  0  0  0  0  0
    3.7414    2.3448   16.6465 C   0  0  0  0  0  0  0  0  0  0  0  0
    3.5820    1.5706   17.8035 C   0  0  0  0  0  0  0  0  0  0  0  0
    4.1687    1.9614   18.9892 C   0  0  0  0  0  0  0  0  0  0  0  0
    3.9776    1.1523   20.1124 C   0  0  0  0  0  0  0  0  0  0  0  0
    3.2163   -0.0025   20.0079 C   0  0  0  0  0  0  0  0  0  0  0  0
    3.0486   -0.7817   21.1818 N   0  0  0  0  0  0  0  0  0  0  0  0
    2.6518   -0.3617   18.8290 N   0  0  0  0  0  0  0  0  0  0  0  0
    2.8335    0.4138   17.7468 C   0  0  0  0  0  0  0  0  0  0  0  0
    2.2645    0.0677   16.5233 C   0  0  0  0  0  0  0  0  0  0  0  0
    2.4412    0.8349   15.4430 N   0  0  0  0  0  0  0  0  0  0  0  0
    2.8249   -0.2865   22.0664 H   0  0  0  0  0  0  0  0  0  0  0  0
    3.1429   -1.8031   21.1696 H   0  0  0  0  0  0  0  0  0  0  0  0
    4.5983    1.5629   21.3373 C   0  0  0  0  0  0  0  0  0  0  0  0
    5.9419    1.3648   21.5508 C   0  0  0  0  0  0  0  0  0  0  0  0
    6.5620    1.7380   22.7118 C   0  0  0  0  0  0  0  0  0  0  0  0
    5.8327    2.3331   23.7109 C   0  0  0  0  0  0  0  0  0  0  0  0
    4.4835    2.5494   23.5365 C   0  0  0  0  0  0  0  0  0  0  0  0
    3.8820    2.1593   22.3464 C   0  0  0  0  0  0  0  0  0  0  0  0
    4.6596    4.7694    9.7585 C   0  0  0  0  0  0  0  0  0  0  0  0
    3.8110    5.1393   10.7977 O   0  0  0  0  0  0  0  0  0  0  0  0
    4.2762    6.2689   13.3047 N   0  0  0  0  0  0  0  0  0  0  0  0
    5.3033    6.4777   13.1458 H   0  0  0  0  0  0  0  0  0  0  0  0
    3.1892    7.5679   13.6555 S   0  0  0  0  0  0  0  0  0  0  0  0
    3.3223    7.9533   15.1119 O   0  0  0  0  0  0  0  0  0  0  0  0
    3.6107    8.7727   12.8672 O   0  0  0  0  0  0  0  0  0  0  0  0
    1.5439    7.1914   13.2805 C   0  0  0  0  0  0  0  0  0  0  0  0
    0.9658    7.6081   12.1048 C   0  0  0  0  0  0  0  0  0  0  0  0
   -0.3500    7.2801   11.8427 C   0  0  0  0  0  0  0  0  0  0  0  0
   -1.0872    6.5440   12.7400 C   0  0  0  0  0  0  0  0  0  0  0  0
   -2.3922    6.2095   12.4973 F   0  0  0  0  0  0  0  0  0  0  0  0
   -0.5226    6.1133   13.9330 C   0  0  0  0  0  0  0  0  0  0  0  0
    0.7930    6.4572   14.1650 C   0  0  0  0  0  0  0  0  0  0  0  0
    1.3778    6.0549   15.3179 F   0  0  0  0  0  0  0  0  0  0  0  0
 26 27  1  0  0  0
 27  1  1  0  0  0
  1  2  2  0  0  0
  2  3  1  0  0  0
  3  4  2  0  0  0
  4  7  1  0  0  0
  7  8  2  0  0  0
  8  9  1  0  0  0
  9 10  2  0  0  0
 10 11  1  0  0  0
 11 20  1  0  0  0
 20 21  2  0  0  0
 21 22  1  0  0  0
 22 23  2  0  0  0
 23 24  1  0  0  0
 24 25  2  0  0  0
 11 12  2  0  0  0
 12 13  1  0  0  0
 12 14  1  0  0  0
 14 15  2  0  0  0
 15 16  1  0  0  0
 16 17  2  0  0  0
  4  5  1  0  0  0
  5  6  2  0  0  0
  6 28  1  0  0  0
 28 30  1  0  0  0
 30 31  2  0  0  0
 30 32  2  0  0  0
 30 33  1  0  0  0
 33 34  2  0  0  0
 34 35  1  0  0  0
 35 36  2  0  0  0
 36 37  1  0  0  0
 36 38  1  0  0  0
 38 39  2  0  0  0
 39 40  1  0  0  0
  6  1  1  0  0  0
 39 33  1  0  0  0
 17  7  1  0  0  0
 15  9  1  0  0  0
 25 20  1  0  0  0
 13 18  1  0  0  0
 13 19  1  0  0  0
 28 29  1  0  0  0
M  END
> <minimizedAffinity>
-9.32353

> <CNNscore>
0.5961149931

> <CNNaffinity>
7.4068765640

> <CNN_VS>
4.4153499603

> <CNNaffinity_variance>
0.2651700974

$$$$
[H]c1nc(OC([H])([H])[H])c(N([H])S(=O)(=O)c2c([H])c([H])c(F)c([H])c2F)c([H])c1-c1nc([H])c2nc(N([H])[H])c(-c3c([H])c([H])c([H])c([H])c3[H])c([H])c2c1[H]


 40 44  0  0  0  0  0  0  0  0999 V2000
    3.3437    5.8910   12.4634 C   0  0  0  0  0  0  0  0  0  0  0  0
    2.7367    4.7156   12.2456 N   0  0  0  0  0  0  0  0  0  0  0  0
    2.6427    3.7368   13.1993 C   0  0  0  0  0  0  0  0  0  0  0  0
    3.1782    3.9197   14.4494 C   0  0  0  0  0  0  0  0  0  0  0  0
    3.8071    5.1315   14.6821 C   0  0  0  0  0  0  0  0  0  0  0  0
    3.8954    6.1188   13.7028 C   0  0  0  0  0  0  0  0  0  0  0  0
    3.1102    2.9106   15.5121 C   0  0  0  0  0  0  0  0  0  0  0  0
    3.6320    3.1321   16.7420 C   0  0  0  0  0  0  0  0  0  0  0  0
    3.5614    2.1613   17.7499 C   0  0  0  0  0  0  0  0  0  0  0  0
    4.1003    2.4099   18.9951 C   0  0  0  0  0  0  0  0  0  0  0  0
    4.0021    1.4069   19.9633 C   0  0  0  0  0  0  0  0  0  0  0  0
    3.3763    0.2086   19.6526 C   0  0  0  0  0  0  0  0  0  0  0  0
    3.2979   -0.7709   20.6762 N   0  0  0  0  0  0  0  0  0  0  0  0
    2.8559   -0.0077   18.4198 N   0  0  0  0  0  0  0  0  0  0  0  0
    2.9486    0.9544   17.4862 C   0  0  0  0  0  0  0  0  0  0  0  0
    2.4222    0.7579   16.2115 C   0  0  0  0  0  0  0  0  0  0  0  0
    2.5109    1.7110   15.2784 N   0  0  0  0  0  0  0  0  0  0  0  0
    3.0197   -0.4598   21.6268 H   0  0  0  0  0  0  0  0  0  0  0  0
    3.5072   -1.7587   20.4950 H   0  0  0  0  0  0  0  0  0  0  0  0
    4.5724    1.6721   21.2511 C   0  0  0  0  0  0  0  0  0  0  0  0
    3.7838    2.0622   22.3075 C   0  0  0  0  0  0  0  0  0  0  0  0
    4.2989    2.3303   23.5463 C   0  0  0  0  0  0  0  0  0  0  0  0
    5.6494    2.2112   23.7612 C   0  0  0  0  0  0  0  0  0  0  0  0
    6.4743    1.8229   22.7287 C   0  0  0  0  0  0  0  0  0  0  0  0
    5.9218    1.5576   21.4818 C   0  0  0  0  0  0  0  0  0  0  0  0
    2.3871    7.7735   11.2054 C   0  0  0  0  0  0  0  0  0  0  0  0
    3.4062    6.8552   11.4408 O   0  0  0  0  0  0  0  0  0  0  0  0
    4.5430    7.3560   13.9377 N   0  0  0  0  0  0  0  0  0  0  0  0
    5.2065    7.6974   13.1848 H   0  0  0  0  0  0  0  0  0  0  0  0
    4.3093    8.3105   15.3612 S   0  0  0  0  0  0  0  0  0  0  0  0
    5.2004    9.5308   15.2982 O   0  0  0  0  0  0  0  0  0  0  0  0
    2.9003    8.8254   15.3679 O   0  0  0  0  0  0  0  0  0  0  0  0
    4.5983    7.4288   16.8202 C   0  0  0  0  0  0  0  0  0  0  0  0
    3.5596    6.9709   17.5958 C   0  0  0  0  0  0  0  0  0  0  0  0
    3.8357    6.2656   18.7508 C   0  0  0  0  0  0  0  0  0  0  0  0
    5.1324    6.0160   19.1338 C   0  0  0  0  0  0  0  0  0  0  0  0
    5.4251    5.3188   20.2749 F   0  0  0  0  0  0  0  0  0  0  0  0
    6.1957    6.4694   18.3649 C   0  0  0  0  0  0  0  0  0  0  0  0
    5.8868    7.1705   17.2177 C   0  0  0  0  0  0  0  0  0  0  0  0
    6.8978    7.6286   16.4423 F   0  0  0  0  0  0  0  0  0  0  0  0
 26 27  1  0  0  0
 27  1  1  0  0  0
  1  2  2  0  0  0
  2  3  1  0  0  0
  3  4  2  0  0  0
  4  7  1  0  0  0
  7  8  2  0  0  0
  8  9  1  0  0  0
  9 10  2  0  0  0
 10 11  1  0  0  0
 11 20  1  0  0  0
 20 21  2  0  0  0
 21 22  1  0  0  0
 22 23  2  0  0  0
 23 24  1  0  0  0
 24 25  2  0  0  0
 11 12  2  0  0  0
 12 13  1  0  0  0
 12 14  1  0  0  0
 14 15  2  0  0  0
 15 16  1  0  0  0
 16 17  2  0  0  0
  4  5  1  0  0  0
  5  6  2  0  0  0
  6 28  1  0  0  0
 28 30  1  0  0  0
 30 31  2  0  0  0
 30 32  2  0  0  0
 30 33  1  0  0  0
 33 34  2  0  0  0
 34 35  1  0  0  0
 35 36  2  0  0  0
 36 37  1  0  0  0
 36 38  1  0  0  0
 38 39  2  0  0  0
 39 40  1  0  0  0
  6  1  1  0  0  0
 39 33  1  0  0  0
 17  7  1  0  0  0
 15  9  1  0  0  0
 25 20  1  0  0  0
 13 18  1  0  0  0
 13 19  1  0  0  0
 28 29  1  0  0  0
M  END
> <minimizedAffinity>
-9.15031

> <CNNscore>
0.5516796708

> <CNNaffinity>
7.5305938721

> <CNN_VS>
4.1544756889

> <CNNaffinity_variance>
0.3795983791

$$$$
[H]c1nc(OC([H])([H])[H])c(N([H])S(=O)(=O)c2c([H])c([H])c(F)c([H])c2F)c([H])c1-c1nc([H])c2nc(N([H])[H])c(-c3c([H])c([H])c([H])c([H])c3[H])c([H])c2c1[H]


 40 44  0  0  0  0  0  0  0  0999 V2000
    3.1622    5.4265   12.2272 C   0  0  0  0  0  0  0  0  0  0  0  0
    4.2004    4.6203   12.4911 N   0  0  0  0  0  0  0  0  0  0  0  0
    4.1964    3.7104   13.5151 C   0  0  0  0  0  0  0  0  0  0  0  0
    3.1044    3.5803   14.3356 C   0  0  0  0  0  0  0  0  0  0  0  0
    2.0278    4.4098   14.0694 C   0  0  0  0  0  0  0  0  0  0  0  0
    2.0450    5.3311   13.0242 C   0  0  0  0  0  0  0  0  0  0  0  0
    3.0396    2.6255   15.4476 C   0  0  0  0  0  0  0  0  0  0  0  0
    3.5856    2.8988   16.6564 C   0  0  0  0  0  0  0  0  0  0  0  0
    3.5179    1.9796   17.7119 C   0  0  0  0  0  0  0  0  0  0  0  0
    4.0816    2.2804   18.9344 C   0  0  0  0  0  0  0  0  0  0  0  0
    3.9851    1.3277   19.9523 C   0  0  0  0  0  0  0  0  0  0  0  0
    3.3363    0.1256   19.7112 C   0  0  0  0  0  0  0  0  0  0  0  0
    3.2610   -0.8014   20.7829 N   0  0  0  0  0  0  0  0  0  0  0  0
    2.7918   -0.1426   18.4991 N   0  0  0  0  0  0  0  0  0  0  0  0
    2.8827    0.7710   17.5180 C   0  0  0  0  0  0  0  0  0  0  0  0
    2.3318    0.5207   16.2633 C   0  0  0  0  0  0  0  0  0  0  0  0
    2.4186    1.4254   15.2831 N   0  0  0  0  0  0  0  0  0  0  0  0
    3.0038   -0.4398   21.7214 H   0  0  0  0  0  0  0  0  0  0  0  0
    3.4524   -1.8000   20.6471 H   0  0  0  0  0  0  0  0  0  0  0  0
    4.5813    1.6466   21.2160 C   0  0  0  0  0  0  0  0  0  0  0  0
    5.9373    1.5276   21.4087 C   0  0  0  0  0  0  0  0  0  0  0  0
    6.5353    1.8164   22.6049 C   0  0  0  0  0  0  0  0  0  0  0  0
    5.7701    2.2416   23.6622 C   0  0  0  0  0  0  0  0  0  0  0  0
    4.4074    2.3738   23.5103 C   0  0  0  0  0  0  0  0  0  0  0  0
    3.8290    2.0728   22.2834 C   0  0  0  0  0  0  0  0  0  0  0  0
    4.2201    7.3129   11.0595 C   0  0  0  0  0  0  0  0  0  0  0  0
    3.2295    6.3404   11.1597 O   0  0  0  0  0  0  0  0  0  0  0  0
    0.9470    6.1837   12.7544 N   0  0  0  0  0  0  0  0  0  0  0  0
    1.0624    7.2056   13.0114 H   0  0  0  0  0  0  0  0  0  0  0  0
   -0.5370    5.6479   12.0451 S   0  0  0  0  0  0  0  0  0  0  0  0
   -0.9519    4.3392   12.6795 O   0  0  0  0  0  0  0  0  0  0  0  0
   -1.6150    6.6341   12.3852 O   0  0  0  0  0  0  0  0  0  0  0  0
   -0.4422    5.4806   10.3269 C   0  0  0  0  0  0  0  0  0  0  0  0
   -1.0898    6.3557    9.4871 C   0  0  0  0  0  0  0  0  0  0  0  0
   -0.9824    6.1886    8.1203 C   0  0  0  0  0  0  0  0  0  0  0  0
   -0.2383    5.1612    7.5900 C   0  0  0  0  0  0  0  0  0  0  0  0
   -0.1205    4.9801    6.2382 F   0  0  0  0  0  0  0  0  0  0  0  0
    0.4234    4.2666    8.4202 C   0  0  0  0  0  0  0  0  0  0  0  0
    0.2964    4.4605    9.7800 C   0  0  0  0  0  0  0  0  0  0  0  0
    0.9276    3.6078   10.6213 F   0  0  0  0  0  0  0  0  0  0  0  0
 26 27  1  0  0  0
 27  1  1  0  0  0
  1  2  2  0  0  0
  2  3  1  0  0  0
  3  4  2  0  0  0
  4  7  1  0  0  0
  7  8  2  0  0  0
  8  9  1  0  0  0
  9 10  2  0  0  0
 10 11  1  0  0  0
 11 20  1  0  0  0
 20 21  2  0  0  0
 21 22  1  0  0  0
 22 23  2  0  0  0
 23 24  1  0  0  0
 24 25  2  0  0  0
 11 12  2  0  0  0
 12 13  1  0  0  0
 12 14  1  0  0  0
 14 15  2  0  0  0
 15 16  1  0  0  0
 16 17  2  0  0  0
  4  5  1  0  0  0
  5  6  2  0  0  0
  6 28  1  0  0  0
 28 30  1  0  0  0
 30 31  2  0  0  0
 30 32  2  0  0  0
 30 33  1  0  0  0
 33 34  2  0  0  0
 34 35  1  0  0  0
 35 36  2  0  0  0
 36 37  1  0  0  0
 36 38  1  0  0  0
 38 39  2  0  0  0
 39 40  1  0  0  0
  6  1  1  0  0  0
 39 33  1  0  0  0
 17  7  1  0  0  0
 15  9  1  0  0  0
 25 20  1  0  0  0
 13 18  1  0  0  0
 13 19  1  0  0  0
 28 29  1  0  0  0
M  END
> <minimizedAffinity>
-8.34280

> <CNNscore>
0.4935923815

> <CNNaffinity>
7.0337104797

> <CNN_VS>
3.4717860222

> <CNNaffinity_variance>
0.2646295428

$$$$
[H]c1nc(OC([H])([H])[H])c(N([H])S(=O)(=O)c2c([H])c([H])c(F)c([H])c2F)c([H])c1-c1nc([H])c2nc(N([H])[H])c(-c3c([H])c([H])c([H])c([H])c3[H])c([H])c2c1[H]


 40 44  0  0  0  0  0  0  0  0999 V2000
    3.2050    5.4911   11.4975 C   0  0  0  0  0  0  0  0  0  0  0  0
    3.3086    4.1681   11.3069 N   0  0  0  0  0  0  0  0  0  0  0  0
    3.2234    3.2587   12.3278 C   0  0  0  0  0  0  0  0  0  0  0  0
    3.0236    3.6707   13.6213 C   0  0  0  0  0  0  0  0  0  0  0  0
    2.9157    5.0361   13.8263 C   0  0  0  0  0  0  0  0  0  0  0  0
    3.0040    5.9504   12.7786 C   0  0  0  0  0  0  0  0  0  0  0  0
    2.9239    2.7465   14.7563 C   0  0  0  0  0  0  0  0  0  0  0  0
    3.5596    2.9835   15.9284 C   0  0  0  0  0  0  0  0  0  0  0  0
    3.4574    2.0941   17.0063 C   0  0  0  0  0  0  0  0  0  0  0  0
    4.1142    2.3569   18.1905 C   0  0  0  0  0  0  0  0  0  0  0  0
    3.9781    1.4364   19.2332 C   0  0  0  0  0  0  0  0  0  0  0  0
    3.1997    0.3025   19.0535 C   0  0  0  0  0  0  0  0  0  0  0  0
    3.0900   -0.5936   20.1483 N   0  0  0  0  0  0  0  0  0  0  0  0
    2.5658    0.0703   17.8780 N   0  0  0  0  0  0  0  0  0  0  0  0
    2.6944    0.9531   16.8732 C   0  0  0  0  0  0  0  0  0  0  0  0
    2.0537    0.7387   15.6551 C   0  0  0  0  0  0  0  0  0  0  0  0
    2.1774    1.6131   14.6516 N   0  0  0  0  0  0  0  0  0  0  0  0
    2.9219   -0.1918   21.0906 H   0  0  0  0  0  0  0  0  0  0  0  0
    3.1725   -1.6087   20.0251 H   0  0  0  0  0  0  0  0  0  0  0  0
    4.6712    1.7146   20.4564 C   0  0  0  0  0  0  0  0  0  0  0  0
    4.1272    2.5490   21.4039 C   0  0  0  0  0  0  0  0  0  0  0  0
    4.7672    2.8406   22.5775 C   0  0  0  0  0  0  0  0  0  0  0  0
    5.9977    2.2896   22.8357 C   0  0  0  0  0  0  0  0  0  0  0  0
    6.5775    1.4484   21.9118 C   0  0  0  0  0  0  0  0  0  0  0  0
    5.9031    1.1713   20.7291 C   0  0  0  0  0  0  0  0  0  0  0  0
    3.7977    5.9864    9.1641 C   0  0  0  0  0  0  0  0  0  0  0  0
    3.3014    6.3730   10.4056 O   0  0  0  0  0  0  0  0  0  0  0  0
    2.8994    7.3470   12.9876 N   0  0  0  0  0  0  0  0  0  0  0  0
    2.0548    7.8301   12.5671 H   0  0  0  0  0  0  0  0  0  0  0  0
    4.0578    8.2779   13.8728 S   0  0  0  0  0  0  0  0  0  0  0  0
    3.5392    9.6877   14.0483 O   0  0  0  0  0  0  0  0  0  0  0  0
    4.1791    7.7055   15.2542 O   0  0  0  0  0  0  0  0  0  0  0  0
    5.6181    8.2989   13.1281 C   0  0  0  0  0  0  0  0  0  0  0  0
    5.7906    7.9112   11.8203 C   0  0  0  0  0  0  0  0  0  0  0  0
    7.0539    7.9491   11.2630 C   0  0  0  0  0  0  0  0  0  0  0  0
    8.1381    8.3685   11.9972 C   0  0  0  0  0  0  0  0  0  0  0  0
    9.3971    8.4127   11.4618 F   0  0  0  0  0  0  0  0  0  0  0  0
    7.9856    8.7642   13.3192 C   0  0  0  0  0  0  0  0  0  0  0  0
    6.7118    8.7149   13.8462 C   0  0  0  0  0  0  0  0  0  0  0  0
    6.5240    9.0932   15.1327 F   0  0  0  0  0  0  0  0  0  0  0  0
 26 27  1  0  0  0
 27  1  1  0  0  0
  1  2  2  0  0  0
  2  3  1  0  0  0
  3  4  2  0  0  0
  4  7  1  0  0  0
  7  8  2  0  0  0
  8  9  1  0  0  0
  9 10  2  0  0  0
 10 11  1  0  0  0
 11 20  1  0  0  0
 20 21  2  0  0  0
 21 22  1  0  0  0
 22 23  2  0  0  0
 23 24  1  0  0  0
 24 25  2  0  0  0
 11 12  2  0  0  0
 12 13  1  0  0  0
 12 14  1  0  0  0
 14 15  2  0  0  0
 15 16  1  0  0  0
 16 17  2  0  0  0
  4  5  1  0  0  0
  5  6  2  0  0  0
  6 28  1  0  0  0
 28 30  1  0  0  0
 30 31  2  0  0  0
 30 32  2  0  0  0
 30 33  1  0  0  0
 33 34  2  0  0  0
 34 35  1  0  0  0
 35 36  2  0  0  0
 36 37  1  0  0  0
 36 38  1  0  0  0
 38 39  2  0  0  0
 39 40  1  0  0  0
  6  1  1  0  0  0
 39 33  1  0  0  0
 17  7  1  0  0  0
 15  9  1  0  0  0
 25 20  1  0  0  0
 13 18  1  0  0  0
 13 19  1  0  0  0
 28 29  1  0  0  0
M  END
> <minimizedAffinity>
-8.84298

> <CNNscore>
0.3692561090

> <CNNaffinity>
6.9345045090

> <CNN_VS>
2.5606081486

> <CNNaffinity_variance>
0.3071446419

$$$$
[H]c1nc(OC([H])([H])[H])c(N([H])S(=O)(=O)c2c([H])c([H])c(F)c([H])c2F)c([H])c1-c1nc([H])c2nc(N([H])[H])c(-c3c([H])c([H])c([H])c([H])c3[H])c([H])c2c1[H]


 40 44  0  0  0  0  0  0  0  0999 V2000
    4.5910    1.9567   19.5716 C   0  0  0  0  0  0  0  0  0  0  0  0
    3.8908    1.2918   18.6415 N   0  0  0  0  0  0  0  0  0  0  0  0
    3.4701    1.8674   17.4718 C   0  0  0  0  0  0  0  0  0  0  0  0
    3.7530    3.1809   17.1932 C   0  0  0  0  0  0  0  0  0  0  0  0
    4.4759    3.8746   18.1494 C   0  0  0  0  0  0  0  0  0  0  0  0
    4.8979    3.2767   19.3351 C   0  0  0  0  0  0  0  0  0  0  0  0
    3.3305    3.8534   15.9597 C   0  0  0  0  0  0  0  0  0  0  0  0
    2.0274    4.1134   15.6983 C   0  0  0  0  0  0  0  0  0  0  0  0
    1.6348    4.7565   14.5168 C   0  0  0  0  0  0  0  0  0  0  0  0
    0.3013    5.0106   14.2725 C   0  0  0  0  0  0  0  0  0  0  0  0
   -0.0347    5.6546   13.0785 C   0  0  0  0  0  0  0  0  0  0  0  0
    0.9639    6.0153   12.1860 C   0  0  0  0  0  0  0  0  0  0  0  0
    0.5664    6.6738   10.9936 N   0  0  0  0  0  0  0  0  0  0  0  0
    2.2666    5.7523   12.4529 N   0  0  0  0  0  0  0  0  0  0  0  0
    2.5935    5.1331   13.5998 C   0  0  0  0  0  0  0  0  0  0  0  0
    3.9245    4.8512   13.8986 C   0  0  0  0  0  0  0  0  0  0  0  0
    4.2562    4.2357   15.0379 N   0  0  0  0  0  0  0  0  0  0  0  0
   -0.1356    7.4348   11.0693 H   0  0  0  0  0  0  0  0  0  0  0  0
    0.9534    6.4149   10.0795 H   0  0  0  0  0  0  0  0  0  0  0  0
   -1.4236    5.9065   12.8305 C   0  0  0  0  0  0  0  0  0  0  0  0
   -2.1105    5.2007   11.8713 C   0  0  0  0  0  0  0  0  0  0  0  0
   -3.4340    5.4231   11.6054 C   0  0  0  0  0  0  0  0  0  0  0  0
   -4.1173    6.3817   12.3114 C   0  0  0  0  0  0  0  0  0  0  0  0
   -3.4654    7.1111   13.2811 C   0  0  0  0  0  0  0  0  0  0  0  0
   -2.1210    6.8624   13.5283 C   0  0  0  0  0  0  0  0  0  0  0  0
    4.0951    0.9006   21.7349 C   0  0  0  0  0  0  0  0  0  0  0  0
    4.9936    1.3072   20.7528 O   0  0  0  0  0  0  0  0  0  0  0  0
    5.6323    3.9864   20.3160 N   0  0  0  0  0  0  0  0  0  0  0  0
    6.6877    3.8935   20.2814 H   0  0  0  0  0  0  0  0  0  0  0  0
    4.9054    4.9709   21.5385 S   0  0  0  0  0  0  0  0  0  0  0  0
    3.4515    5.2056   21.1942 O   0  0  0  0  0  0  0  0  0  0  0  0
    4.9082    4.2105   22.8317 O   0  0  0  0  0  0  0  0  0  0  0  0
    5.7212    6.4785   21.7647 C   0  0  0  0  0  0  0  0  0  0  0  0
    5.0946    7.6752   21.5088 C   0  0  0  0  0  0  0  0  0  0  0  0
    5.7818    8.8566   21.7087 C   0  0  0  0  0  0  0  0  0  0  0  0
    7.0808    8.8512   22.1592 C   0  0  0  0  0  0  0  0  0  0  0  0
    7.7774   10.0119   22.3631 F   0  0  0  0  0  0  0  0  0  0  0  0
    7.7318    7.6539   22.4237 C   0  0  0  0  0  0  0  0  0  0  0  0
    7.0185    6.4919   22.2141 C   0  0  0  0  0  0  0  0  0  0  0  0
    7.6204    5.3046   22.4611 F   0  0  0  0  0  0  0  0  0  0  0  0
 26 27  1  0  0  0
 27  1  1  0  0  0
  1  2  2  0  0  0
  2  3  1  0  0  0
  3  4  2  0  0  0
  4  7  1  0  0  0
  7  8  2  0  0  0
  8  9  1  0  0  0
  9 10  2  0  0  0
 10 11  1  0  0  0
 11 20  1  0  0  0
 20 21  2  0  0  0
 21 22  1  0  0  0
 22 23  2  0  0  0
 23 24  1  0  0  0
 24 25  2  0  0  0
 11 12  2  0  0  0
 12 13  1  0  0  0
 12 14  1  0  0  0
 14 15  2  0  0  0
 15 16  1  0  0  0
 16 17  2  0  0  0
  4  5  1  0  0  0
  5  6  2  0  0  0
  6 28  1  0  0  0
 28 30  1  0  0  0
 30 31  2  0  0  0
 30 32  2  0  0  0
 30 33  1  0  0  0
 33 34  2  0  0  0
 34 35  1  0  0  0
 35 36  2  0  0  0
 36 37  1  0  0  0
 36 38  1  0  0  0
 38 39  2  0  0  0
 39 40  1  0  0  0
  6  1  1  0  0  0
 39 33  1  0  0  0
 17  7  1  0  0  0
 15  9  1  0  0  0
 25 20  1  0  0  0
 13 18  1  0  0  0
 13 19  1  0  0  0
 28 29  1  0  0  0
M  END
> <minimizedAffinity>
-8.33427

> <CNNscore>
0.1461080760

> <CNNaffinity>
6.3813042641

> <CNN_VS>
0.9323601127

> <CNNaffinity_variance>
0.5239554644

$$$$
[H]c1nc(OC([H])([H])[H])c(N([H])S(=O)(=O)c2c([H])c([H])c(F)c([H])c2F)c([H])c1-c1nc([H])c2nc(N([H])[H])c(-c3c([H])c([H])c([H])c([H])c3[H])c([H])c2c1[H]


 40 44  0  0  0  0  0  0  0  0999 V2000
    3.8892    1.1143   19.3522 C   0  0  0  0  0  0  0  0  0  0  0  0
    3.1019    0.3192   18.6138 N   0  0  0  0  0  0  0  0  0  0  0  0
    2.7486    0.6107   17.3227 C   0  0  0  0  0  0  0  0  0  0  0  0
    3.1951    1.7563   16.7134 C   0  0  0  0  0  0  0  0  0  0  0  0
    4.0088    2.5829   17.4700 C   0  0  0  0  0  0  0  0  0  0  0  0
    4.3607    2.2742   18.7824 C   0  0  0  0  0  0  0  0  0  0  0  0
    2.8519    2.1236   15.3352 C   0  0  0  0  0  0  0  0  0  0  0  0
    3.6140    2.9790   14.6131 C   0  0  0  0  0  0  0  0  0  0  0  0
    3.2771    3.3230   13.2971 C   0  0  0  0  0  0  0  0  0  0  0  0
    4.0689    4.1967   12.5814 C   0  0  0  0  0  0  0  0  0  0  0  0
    3.6866    4.5054   11.2731 C   0  0  0  0  0  0  0  0  0  0  0  0
    2.5411    3.9352   10.7376 C   0  0  0  0  0  0  0  0  0  0  0  0
    2.2050    4.2776    9.4023 N   0  0  0  0  0  0  0  0  0  0  0  0
    1.7820    3.0797   11.4652 N   0  0  0  0  0  0  0  0  0  0  0  0
    2.1464    2.7806   12.7235 C   0  0  0  0  0  0  0  0  0  0  0  0
    1.3842    1.9044   13.4928 C   0  0  0  0  0  0  0  0  0  0  0  0
    1.7414    1.6026   14.7451 N   0  0  0  0  0  0  0  0  0  0  0  0
    2.9651    4.2811    8.6952 H   0  0  0  0  0  0  0  0  0  0  0  0
    1.2446    4.5161    9.1317 H   0  0  0  0  0  0  0  0  0  0  0  0
    4.5116    5.4205   10.5409 C   0  0  0  0  0  0  0  0  0  0  0  0
    4.2212    6.7639   10.5078 C   0  0  0  0  0  0  0  0  0  0  0  0
    4.9841    7.6613    9.8118 C   0  0  0  0  0  0  0  0  0  0  0  0
    6.0829    7.2233    9.1154 C   0  0  0  0  0  0  0  0  0  0  0  0
    6.4081    5.8848    9.1229 C   0  0  0  0  0  0  0  0  0  0  0  0
    5.6140    4.9976    9.8389 C   0  0  0  0  0  0  0  0  0  0  0  0
    3.2537    0.4508   21.6320 C   0  0  0  0  0  0  0  0  0  0  0  0
    4.2152    0.7574   20.6735 O   0  0  0  0  0  0  0  0  0  0  0  0
    5.1882    3.1213   19.5588 N   0  0  0  0  0  0  0  0  0  0  0  0
    6.2299    2.9269   19.5304 H   0  0  0  0  0  0  0  0  0  0  0  0
    4.5928    4.4239   20.5289 S   0  0  0  0  0  0  0  0  0  0  0  0
    3.5080    5.1572   19.7721 O   0  0  0  0  0  0  0  0  0  0  0  0
    3.9335    3.8515   21.7488 O   0  0  0  0  0  0  0  0  0  0  0  0
    5.8342    5.5236   21.0178 C   0  0  0  0  0  0  0  0  0  0  0  0
    5.8580    6.8214   20.5644 C   0  0  0  0  0  0  0  0  0  0  0  0
    6.8649    7.6681   20.9851 C   0  0  0  0  0  0  0  0  0  0  0  0
    7.8411    7.2311   21.8491 C   0  0  0  0  0  0  0  0  0  0  0  0
    8.8466    8.0558   22.2766 F   0  0  0  0  0  0  0  0  0  0  0  0
    7.8354    5.9246   22.3187 C   0  0  0  0  0  0  0  0  0  0  0  0
    6.8169    5.1043   21.8801 C   0  0  0  0  0  0  0  0  0  0  0  0
    6.7784    3.8233   22.3168 F   0  0  0  0  0  0  0  0  0  0  0  0
 26 27  1  0  0  0
 27  1  1  0  0  0
  1  2  2  0  0  0
  2  3  1  0  0  0
  3  4  2  0  0  0
  4  7  1  0  0  0
  7  8  2  0  0  0
  8  9  1  0  0  0
  9 10  2  0  0  0
 10 11  1  0  0  0
 11 20  1  0  0  0
 20 21  2  0  0  0
 21 22  1  0  0  0
 22 23  2  0  0  0
 23 24  1  0  0  0
 24 25  2  0  0  0
 11 12  2  0  0  0
 12 13  1  0  0  0
 12 14  1  0  0  0
 14 15  2  0  0  0
 15 16  1  0  0  0
 16 17  2  0  0  0
  4  5  1  0  0  0
  5  6  2  0  0  0
  6 28  1  0  0  0
 28 30  1  0  0  0
 30 31  2  0  0  0
 30 32  2  0  0  0
 30 33  1  0  0  0
 33 34  2  0  0  0
 34 35  1  0  0  0
 35 36  2  0  0  0
 36 37  1  0  0  0
 36 38  1  0  0  0
 38 39  2  0  0  0
 39 40  1  0  0  0
  6  1  1  0  0  0
 39 33  1  0  0  0
 17  7  1  0  0  0
 15  9  1  0  0  0
 25 20  1  0  0  0
 13 18  1  0  0  0
 13 19  1  0  0  0
 28 29  1  0  0  0
M  END
> <minimizedAffinity>
-8.68166

> <CNNscore>
0.1321946681

> <CNNaffinity>
6.5882301331

> <CNN_VS>
0.8709288836

> <CNNaffinity_variance>
0.3411077559

$$$$
[H]c1nc(OC([H])([H])[H])c(N([H])S(=O)(=O)c2c([H])c([H])c(F)c([H])c2F)c([H])c1-c1nc([H])c2nc(N([H])[H])c(-c3c([H])c([H])c([H])c([H])c3[H])c([H])c2c1[H]


 40 44  0  0  0  0  0  0  0  0999 V2000
    3.0176    7.5676   11.4755 C   0  0  0  0  0  0  0  0  0  0  0  0
    4.2571    7.7004   11.9687 N   0  0  0  0  0  0  0  0  0  0  0  0
    4.5099    7.9694   13.2879 C   0  0  0  0  0  0  0  0  0  0  0  0
    3.4819    8.1186   14.1844 C   0  0  0  0  0  0  0  0  0  0  0  0
    2.1984    7.9829   13.6824 C   0  0  0  0  0  0  0  0  0  0  0  0
    1.9553    7.7089   12.3380 C   0  0  0  0  0  0  0  0  0  0  0  0
    3.6880    8.4071   15.6080 C   0  0  0  0  0  0  0  0  0  0  0  0
    3.9571    7.4277   16.5037 C   0  0  0  0  0  0  0  0  0  0  0  0
    4.1524    7.7144   17.8613 C   0  0  0  0  0  0  0  0  0  0  0  0
    4.4253    6.6998   18.7550 C   0  0  0  0  0  0  0  0  0  0  0  0
    4.6114    7.0417   20.0972 C   0  0  0  0  0  0  0  0  0  0  0  0
    4.5187    8.3691   20.4890 C   0  0  0  0  0  0  0  0  0  0  0  0
    4.7247    8.6597   21.8625 N   0  0  0  0  0  0  0  0  0  0  0  0
    4.2490    9.3453   19.5880 N   0  0  0  0  0  0  0  0  0  0  0  0
    4.0693    9.0203   18.2966 C   0  0  0  0  0  0  0  0  0  0  0  0
    3.7911   10.0040   17.3504 C   0  0  0  0  0  0  0  0  0  0  0  0
    3.6115    9.6873   16.0641 N   0  0  0  0  0  0  0  0  0  0  0  0
    5.5236    8.2018   22.3419 H   0  0  0  0  0  0  0  0  0  0  0  0
    4.1103    9.3006   22.3765 H   0  0  0  0  0  0  0  0  0  0  0  0
    4.8861    5.9792   21.0189 C   0  0  0  0  0  0  0  0  0  0  0  0
    3.8893    5.4453   21.8008 C   0  0  0  0  0  0  0  0  0  0  0  0
    4.1210    4.4365   22.6955 C   0  0  0  0  0  0  0  0  0  0  0  0
    5.3881    3.9262   22.8313 C   0  0  0  0  0  0  0  0  0  0  0  0
    6.4151    4.4337   22.0663 C   0  0  0  0  0  0  0  0  0  0  0  0
    6.1487    5.4583   21.1665 C   0  0  0  0  0  0  0  0  0  0  0  0
    3.2550    8.1454    9.0983 C   0  0  0  0  0  0  0  0  0  0  0  0
    2.8255    7.2910   10.1095 O   0  0  0  0  0  0  0  0  0  0  0  0
    0.6432    7.5755   11.8224 N   0  0  0  0  0  0  0  0  0  0  0  0
    0.3557    8.2612   11.0669 H   0  0  0  0  0  0  0  0  0  0  0  0
   -0.4844    6.3773   12.3566 S   0  0  0  0  0  0  0  0  0  0  0  0
    0.2674    5.1358   12.7816 O   0  0  0  0  0  0  0  0  0  0  0  0
   -1.1770    6.8846   13.5867 O   0  0  0  0  0  0  0  0  0  0  0  0
   -1.6686    5.9837   11.1599 C   0  0  0  0  0  0  0  0  0  0  0  0
   -2.9492    5.6280   11.5120 C   0  0  0  0  0  0  0  0  0  0  0  0
   -3.8653    5.3270   10.5232 C   0  0  0  0  0  0  0  0  0  0  0  0
   -3.5142    5.3785    9.1949 C   0  0  0  0  0  0  0  0  0  0  0  0
   -4.4087    5.0836    8.2014 F   0  0  0  0  0  0  0  0  0  0  0  0
   -2.2266    5.7353    8.8179 C   0  0  0  0  0  0  0  0  0  0  0  0
   -1.3355    6.0299    9.8287 C   0  0  0  0  0  0  0  0  0  0  0  0
   -0.0702    6.3821    9.4996 F   0  0  0  0  0  0  0  0  0  0  0  0
 26 27  1  0  0  0
 27  1  1  0  0  0
  1  2  2  0  0  0
  2  3  1  0  0  0
  3  4  2  0  0  0
  4  7  1  0  0  0
  7  8  2  0  0  0
  8  9  1  0  0  0
  9 10  2  0  0  0
 10 11  1  0  0  0
 11 20  1  0  0  0
 20 21  2  0  0  0
 21 22  1  0  0  0
 22 23  2  0  0  0
 23 24  1  0  0  0
 24 25  2  0  0  0
 11 12  2  0  0  0
 12 13  1  0  0  0
 12 14  1  0  0  0
 14 15  2  0  0  0
 15 16  1  0  0  0
 16 17  2  0  0  0
  4  5  1  0  0  0
  5  6  2  0  0  0
  6 28  1  0  0  0
 28 30  1  0  0  0
 30 31  2  0  0  0
 30 32  2  0  0  0
 30 33  1  0  0  0
 33 34  2  0  0  0
 34 35  1  0  0  0
 35 36  2  0  0  0
 36 37  1  0  0  0
 36 38  1  0  0  0
 38 39  2  0  0  0
 39 40  1  0  0  0
  6  1  1  0  0  0
 39 33  1  0  0  0
 17  7  1  0  0  0
 15  9  1  0  0  0
 25 20  1  0  0  0
 13 18  1  0  0  0
 13 19  1  0  0  0
 28 29  1  0  0  0
M  END
> <minimizedAffinity>
-8.78224

> <CNNscore>
0.1185915545

> <CNNaffinity>
5.7100663185

> <CNN_VS>
0.6771656275

> <CNNaffinity_variance>
0.3055778146

$$$$
[H]c1nc(OC([H])([H])[H])c(N([H])S(=O)(=O)c2c([H])c([H])c(F)c([H])c2F)c([H])c1-c1nc([H])c2nc(N([H])[H])c(-c3c([H])c([H])c([H])c([H])c3[H])c([H])c2c1[H]


 40 44  0  0  0  0  0  0  0  0999 V2000
    5.5638    2.0803   21.9198 C   0  0  0  0  0  0  0  0  0  0  0  0
    5.0409    0.9476   21.4290 N   0  0  0  0  0  0  0  0  0  0  0  0
    4.5319    0.8495   20.1609 C   0  0  0  0  0  0  0  0  0  0  0  0
    4.5346    1.9313   19.3168 C   0  0  0  0  0  0  0  0  0  0  0  0
    5.0731    3.1052   19.8167 C   0  0  0  0  0  0  0  0  0  0  0  0
    5.5878    3.1912   21.1087 C   0  0  0  0  0  0  0  0  0  0  0  0
    4.0046    1.8893   17.9494 C   0  0  0  0  0  0  0  0  0  0  0  0
    4.2750    2.8633   17.0483 C   0  0  0  0  0  0  0  0  0  0  0  0
    3.7638    2.8133   15.7446 C   0  0  0  0  0  0  0  0  0  0  0  0
    4.0530    3.8174   14.8442 C   0  0  0  0  0  0  0  0  0  0  0  0
    3.5171    3.7175   13.5574 C   0  0  0  0  0  0  0  0  0  0  0  0
    2.7224    2.6304   13.2247 C   0  0  0  0  0  0  0  0  0  0  0  0
    2.2117    2.5761   11.9020 N   0  0  0  0  0  0  0  0  0  0  0  0
    2.4549    1.6584   14.1309 N   0  0  0  0  0  0  0  0  0  0  0  0
    2.9683    1.7511   15.3693 C   0  0  0  0  0  0  0  0  0  0  0  0
    2.7091    0.7661   16.3195 C   0  0  0  0  0  0  0  0  0  0  0  0
    3.2170    0.8523   17.5530 N   0  0  0  0  0  0  0  0  0  0  0  0
    2.8596    2.7959   11.1212 H   0  0  0  0  0  0  0  0  0  0  0  0
    1.2347    2.3288   11.7105 H   0  0  0  0  0  0  0  0  0  0  0  0
    3.8168    4.7702   12.6321 C   0  0  0  0  0  0  0  0  0  0  0  0
    4.7988    4.6188   11.6819 C   0  0  0  0  0  0  0  0  0  0  0  0
    5.1139    5.6073   10.7901 C   0  0  0  0  0  0  0  0  0  0  0  0
    4.4360    6.8002   10.8303 C   0  0  0  0  0  0  0  0  0  0  0  0
    3.4449    6.9922   11.7674 C   0  0  0  0  0  0  0  0  0  0  0  0
    3.1476    5.9696   12.6598 C   0  0  0  0  0  0  0  0  0  0  0  0
    5.2565    2.0396   24.3581 C   0  0  0  0  0  0  0  0  0  0  0  0
    6.0706    2.1152   23.2318 O   0  0  0  0  0  0  0  0  0  0  0  0
    6.1336    4.3923   21.6230 N   0  0  0  0  0  0  0  0  0  0  0  0
    7.0098    4.3036   22.2130 H   0  0  0  0  0  0  0  0  0  0  0  0
    5.4529    5.9575   21.3422 S   0  0  0  0  0  0  0  0  0  0  0  0
    4.1617    6.0891   22.1187 O   0  0  0  0  0  0  0  0  0  0  0  0
    6.3821    6.9929   21.9034 O   0  0  0  0  0  0  0  0  0  0  0  0
    5.1833    6.2856   19.6661 C   0  0  0  0  0  0  0  0  0  0  0  0
    3.9118    6.4112   19.1583 C   0  0  0  0  0  0  0  0  0  0  0  0
    3.7421    6.6794   17.8140 C   0  0  0  0  0  0  0  0  0  0  0  0
    4.8254    6.8220   16.9794 C   0  0  0  0  0  0  0  0  0  0  0  0
    4.6766    7.0879   15.6449 F   0  0  0  0  0  0  0  0  0  0  0  0
    6.1176    6.6991   17.4720 C   0  0  0  0  0  0  0  0  0  0  0  0
    6.2534    6.4312   18.8183 C   0  0  0  0  0  0  0  0  0  0  0  0
    7.4985    6.3044   19.3349 F   0  0  0  0  0  0  0  0  0  0  0  0
 26 27  1  0  0  0
 27  1  1  0  0  0
  1  2  2  0  0  0
  2  3  1  0  0  0
  3  4  2  0  0  0
  4  7  1  0  0  0
  7  8  2  0  0  0
  8  9  1  0  0  0
  9 10  2  0  0  0
 10 11  1  0  0  0
 11 20  1  0  0  0
 20 21  2  0  0  0
 21 22  1  0  0  0
 22 23  2  0  0  0
 23 24  1  0  0  0
 24 25  2  0  0  0
 11 12  2  0  0  0
 12 13  1  0  0  0
 12 14  1  0  0  0
 14 15  2  0  0  0
 15 16  1  0  0  0
 16 17  2  0  0  0
  4  5  1  0  0  0
  5  6  2  0  0  0
  6 28  1  0  0  0
 28 30  1  0  0  0
 30 31  2  0  0  0
 30 32  2  0  0  0
 30 33  1  0  0  0
 33 34  2  0  0  0
 34 35  1  0  0  0
 35 36  2  0  0  0
 36 37  1  0  0  0
 36 38  1  0  0  0
 38 39  2  0  0  0
 39 40  1  0  0  0
  6  1  1  0  0  0
 39 33  1  0  0  0
 17  7  1  0  0  0
 15  9  1  0  0  0
 25 20  1  0  0  0
 13 18  1  0  0  0
 13 19  1  0  0  0
 28 29  1  0  0  0
M  END
> <minimizedAffinity>
-9.52177

> <CNNscore>
0.1128395349

> <CNNaffinity>
6.5842771530

> <CNN_VS>
0.7429667711

> <CNNaffinity_variance>
0.8420106173

$$$$
[H]c1nc(OC([H])([H])[H])c(N([H])S(=O)(=O)c2c([H])c([H])c(F)c([H])c2F)c([H])c1-c1nc([H])c2nc(N([H])[H])c(-c3c([H])c([H])c([H])c([H])c3[H])c([H])c2c1[H]


 40 44  0  0  0  0  0  0  0  0999 V2000
    5.2572    8.4255   19.1566 C   0  0  0  0  0  0  0  0  0  0  0  0
    4.8463    9.5303   18.5180 N   0  0  0  0  0  0  0  0  0  0  0  0
    4.3871    9.5185   17.2274 C   0  0  0  0  0  0  0  0  0  0  0  0
    4.3259    8.3480   16.5138 C   0  0  0  0  0  0  0  0  0  0  0  0
    4.7489    7.2023   17.1667 C   0  0  0  0  0  0  0  0  0  0  0  0
    5.2136    7.2285   18.4801 C   0  0  0  0  0  0  0  0  0  0  0  0
    3.8445    8.2706   15.1302 C   0  0  0  0  0  0  0  0  0  0  0  0
    4.5204    7.5877   14.1758 C   0  0  0  0  0  0  0  0  0  0  0  0
    4.0514    7.5200   12.8571 C   0  0  0  0  0  0  0  0  0  0  0  0
    4.7574    6.8182   11.9022 C   0  0  0  0  0  0  0  0  0  0  0  0
    4.2445    6.7833   10.6027 C   0  0  0  0  0  0  0  0  0  0  0  0
    3.0597    7.4434   10.3119 C   0  0  0  0  0  0  0  0  0  0  0  0
    2.5812    7.3676    8.9782 N   0  0  0  0  0  0  0  0  0  0  0  0
    2.3875    8.1256   11.2712 N   0  0  0  0  0  0  0  0  0  0  0  0
    2.8777    8.1615   12.5218 C   0  0  0  0  0  0  0  0  0  0  0  0
    2.2067    8.8552   13.5263 C   0  0  0  0  0  0  0  0  0  0  0  0
    2.6889    8.8947   14.7724 N   0  0  0  0  0  0  0  0  0  0  0  0
    2.5984    6.4427    8.5072 H   0  0  0  0  0  0  0  0  0  0  0  0
    2.2268    8.1940    8.4843 H   0  0  0  0  0  0  0  0  0  0  0  0
    4.9899    6.0584    9.6163 C   0  0  0  0  0  0  0  0  0  0  0  0
    4.8341    4.7005    9.4683 C   0  0  0  0  0  0  0  0  0  0  0  0
    5.5365    3.9792    8.5420 C   0  0  0  0  0  0  0  0  0  0  0  0
    6.4337    4.6169    7.7219 C   0  0  0  0  0  0  0  0  0  0  0  0
    6.6194    5.9768    7.8383 C   0  0  0  0  0  0  0  0  0  0  0  0
    5.8915    6.6822    8.7886 C   0  0  0  0  0  0  0  0  0  0  0  0
    4.9350    8.9897   21.5271 C   0  0  0  0  0  0  0  0  0  0  0  0
    5.7181    8.5053   20.4834 O   0  0  0  0  0  0  0  0  0  0  0  0
    5.6515    6.0585   19.1469 N   0  0  0  0  0  0  0  0  0  0  0  0
    6.6282    6.0815   19.5584 H   0  0  0  0  0  0  0  0  0  0  0  0
    4.6919    4.6291   19.3148 S   0  0  0  0  0  0  0  0  0  0  0  0
    3.2391    4.9688   19.0669 O   0  0  0  0  0  0  0  0  0  0  0  0
    5.0812    3.6603   18.2376 O   0  0  0  0  0  0  0  0  0  0  0  0
    4.8775    3.8686   20.8564 C   0  0  0  0  0  0  0  0  0  0  0  0
    5.5174    2.6583   20.9834 C   0  0  0  0  0  0  0  0  0  0  0  0
    5.6488    2.0890   22.2350 C   0  0  0  0  0  0  0  0  0  0  0  0
    5.1493    2.7153   23.3524 C   0  0  0  0  0  0  0  0  0  0  0  0
    5.2701    2.1663   24.6006 F   0  0  0  0  0  0  0  0  0  0  0  0
    4.4999    3.9377   23.2461 C   0  0  0  0  0  0  0  0  0  0  0  0
    4.3850    4.4798   21.9828 C   0  0  0  0  0  0  0  0  0  0  0  0
    3.7576    5.6711   21.8398 F   0  0  0  0  0  0  0  0  0  0  0  0
 26 27  1  0  0  0
 27  1  1  0  0  0
  1  2  2  0  0  0
  2  3  1  0  0  0
  3  4  2  0  0  0
  4  7  1  0  0  0
  7  8  2  0  0  0
  8  9  1  0  0  0
  9 10  2  0  0  0
 10 11  1  0  0  0
 11 20  1  0  0  0
 20 21  2  0  0  0
 21 22  1  0  0  0
 22 23  2  0  0  0
 23 24  1  0  0  0
 24 25  2  0  0  0
 11 12  2  0  0  0
 12 13  1  0  0  0
 12 14  1  0  0  0
 14 15  2  0  0  0
 15 16  1  0  0  0
 16 17  2  0  0  0
  4  5  1  0  0  0
  5  6  2  0  0  0
  6 28  1  0  0  0
 28 30  1  0  0  0
 30 31  2  0  0  0
 30 32  2  0  0  0
 30 33  1  0  0  0
 33 34  2  0  0  0
 34 35  1  0  0  0
 35 36  2  0  0  0
 36 37  1  0  0  0
 36 38  1  0  0  0
 38 39  2  0  0  0
 39 40  1  0  0  0
  6  1  1  0  0  0
 39 33  1  0  0  0
 17  7  1  0  0  0
 15  9  1  0  0  0
 25 20  1  0  0  0
 13 18  1  0  0  0
 13 19  1  0  0  0
 28 29  1  0  0  0
M  END
> <minimizedAffinity>
-8.21144

> <CNNscore>
0.1064332575

> <CNNaffinity>
6.0282378197

> <CNN_VS>
0.6416049600

> <CNNaffinity_variance>
0.7864679694

$$$$
[H]c1c([H])c(S(=O)(=O)C([H])([H])C([H])([H])C([H])([H])C([H])([H])C([H])([H])C([H])([H])[H])c(Cl)c(Cl)c1C(=O)C([H])([H])C([H])([H])N1C([H])([H])C1([H])C([H])([H])[H]


 25 26  0  0  0  0  0  0  0  0999 V2000
    3.5790    1.5466   18.7523 C   0  0  0  0  0  0  0  0  0  0  0  0
    4.2214    2.7412   18.4754 C   0  0  0  0  0  0  0  0  0  0  0  0
    4.8214    3.4667   19.4694 C   0  0  0  0  0  0  0  0  0  0  0  0
    4.8175    3.0485   20.7674 C   0  0  0  0  0  0  0  0  0  0  0  0
    4.1704    1.8437   21.0723 C   0  0  0  0  0  0  0  0  0  0  0  0
    4.1552    1.2993   22.7492 Cl  0  0  0  0  0  0  0  0  0  0  0  0
    3.5683    1.1264   20.0636 C   0  0  0  0  0  0  0  0  0  0  0  0
    2.7512   -0.3685   20.4486 Cl  0  0  0  0  0  0  0  0  0  0  0  0
    2.8951    0.5992   17.4500 S   0  0  0  0  0  0  0  0  0  0  0  0
    1.6669   -0.1028   18.0327 O   0  0  0  0  0  0  0  0  0  0  0  0
    3.8605   -0.3753   16.9054 O   0  0  0  0  0  0  0  0  0  0  0  0
    2.3476    1.7692   16.2281 C   0  0  0  0  0  0  0  0  0  0  0  0
    3.1120    1.6743   14.9548 C   0  0  0  0  0  0  0  0  0  0  0  0
    3.0349    3.0599   14.2935 C   0  0  0  0  0  0  0  0  0  0  0  0
    3.9463    4.0084   15.0205 C   0  0  0  0  0  0  0  0  0  0  0  0
    3.5186    5.8897   16.4804 C   0  0  0  0  0  0  0  0  0  0  0  0
    3.5323    5.4349   15.0264 C   0  0  0  0  0  0  0  0  0  0  0  0
    5.5732    3.7493   21.8405 C   0  0  0  0  0  0  0  0  0  0  0  0
    6.6976    3.4273   22.0965 O   0  0  0  0  0  0  0  0  0  0  0  0
    4.8281    4.8097   22.5147 C   0  0  0  0  0  0  0  0  0  0  0  0
    4.7897    6.1479   21.8896 C   0  0  0  0  0  0  0  0  0  0  0  0
    5.7960    6.6003   21.0473 N   0  0  0  0  0  0  0  0  0  0  0  0
    6.9407    7.3627   21.1933 C   0  0  0  0  0  0  0  0  0  0  0  0
    5.6765    8.0103   20.6246 C   0  0  0  0  0  0  0  0  0  0  0  0
    4.9641    8.9454   21.5529 C   0  0  0  0  0  0  0  0  0  0  0  0
 16 17  1  0  0  0
 17 15  1  0  0  0
 15 14  1  0  0  0
 14 13  1  0  0  0
 13 12  1  0  0  0
 12  9  1  0  0  0
  9 10  2  0  0  0
  9 11  2  0  0  0
  9  1  1  0  0  0
  1  2  2  0  0  0
  2  3  1  0  0  0
  3  4  2  0  0  0
  4 18  1  0  0  0
 18 19  2  0  0  0
 18 20  1  0  0  0
 20 21  1  0  0  0
 21 22  1  0  0  0
 22 23  1  0  0  0
 23 24  1  0  0  0
 24 25  1  0  0  0
  4  5  1  0  0  0
  5  6  1  0  0  0
  5  7  2  0  0  0
  7  8  1  0  0  0
  7  1  1  0  0  0
 24 22  1  0  0  0
M  END
> <minimizedAffinity>
-6.46543

> <CNNscore>
0.8459831476

> <CNNaffinity>
6.8959946632

> <CNN_VS>
5.8338952065

> <CNNaffinity_variance>
0.0529314205

$$$$
[H]c1c([H])c(S(=O)(=O)C([H])([H])C([H])([H])C([H])([H])C([H])([H])C([H])([H])C([H])([H])[H])c(Cl)c(Cl)c1C(=O)C([H])([H])C([H])([H])N1C([H])([H])C1([H])C([H])([H])[H]


 25 26  0  0  0  0  0  0  0  0999 V2000
    3.5809    1.5315   18.0796 C   0  0  0  0  0  0  0  0  0  0  0  0
    4.3206    2.1040   19.1001 C   0  0  0  0  0  0  0  0  0  0  0  0
    4.9584    3.3025   18.9226 C   0  0  0  0  0  0  0  0  0  0  0  0
    4.8927    3.9844   17.7435 C   0  0  0  0  0  0  0  0  0  0  0  0
    4.1522    3.4226   16.6949 C   0  0  0  0  0  0  0  0  0  0  0  0
    4.0677    4.2948   15.1649 Cl  0  0  0  0  0  0  0  0  0  0  0  0
    3.5192    2.2155   16.8861 C   0  0  0  0  0  0  0  0  0  0  0  0
    2.6077    1.5114   15.5730 Cl  0  0  0  0  0  0  0  0  0  0  0  0
    2.7075    0.0421   18.3623 S   0  0  0  0  0  0  0  0  0  0  0  0
    3.2048   -0.9504   17.3094 O   0  0  0  0  0  0  0  0  0  0  0  0
    1.2462    0.2293   18.2733 O   0  0  0  0  0  0  0  0  0  0  0  0
    3.2230   -0.5317   19.9644 C   0  0  0  0  0  0  0  0  0  0  0  0
    2.5827    0.2176   21.0794 C   0  0  0  0  0  0  0  0  0  0  0  0
    3.6701    0.4308   22.1449 C   0  0  0  0  0  0  0  0  0  0  0  0
    3.6039    1.8462   22.6457 C   0  0  0  0  0  0  0  0  0  0  0  0
    6.0012    1.8527   22.3194 C   0  0  0  0  0  0  0  0  0  0  0  0
    4.8715    2.4101   23.1763 C   0  0  0  0  0  0  0  0  0  0  0  0
    5.4651    5.3465   17.5691 C   0  0  0  0  0  0  0  0  0  0  0  0
    6.6355    5.4879   17.3602 O   0  0  0  0  0  0  0  0  0  0  0  0
    4.4944    6.4323   17.6832 C   0  0  0  0  0  0  0  0  0  0  0  0
    4.0837    6.8684   19.0338 C   0  0  0  0  0  0  0  0  0  0  0  0
    4.8726    7.7027   19.8138 N   0  0  0  0  0  0  0  0  0  0  0  0
    6.1601    7.6613   20.3173 C   0  0  0  0  0  0  0  0  0  0  0  0
    4.9853    7.3152   21.2344 C   0  0  0  0  0  0  0  0  0  0  0  0
    4.8363    5.8610   21.5614 C   0  0  0  0  0  0  0  0  0  0  0  0
 16 17  1  0  0  0
 17 15  1  0  0  0
 15 14  1  0  0  0
 14 13  1  0  0  0
 13 12  1  0  0  0
 12  9  1  0  0  0
  9 10  2  0  0  0
  9 11  2  0  0  0
  9  1  1  0  0  0
  1  2  2  0  0  0
  2  3  1  0  0  0
  3  4  2  0  0  0
  4 18  1  0  0  0
 18 19  2  0  0  0
 18 20  1  0  0  0
 20 21  1  0  0  0
 21 22  1  0  0  0
 22 23  1  0  0  0
 23 24  1  0  0  0
 24 25  1  0  0  0
  4  5  1  0  0  0
  5  6  1  0  0  0
  5  7  2  0  0  0
  7  8  1  0  0  0
  7  1  1  0  0  0
 24 22  1  0  0  0
M  END
> <minimizedAffinity>
-6.00512

> <CNNscore>
0.7184596062

> <CNNaffinity>
6.6741685867

> <CNN_VS>
4.7951207161

> <CNNaffinity_variance>
0.1227017418

$$$$
[H]c1c([H])c(S(=O)(=O)C([H])([H])C([H])([H])C([H])([H])C([H])([H])C([H])([H])C([H])([H])[H])c(Cl)c(Cl)c1C(=O)C([H])([H])C([H])([H])N1C([H])([H])C1([H])C([H])([H])[H]


 25 26  0  0  0  0  0  0  0  0999 V2000
    4.6370    2.3146   20.3654 C   0  0  0  0  0  0  0  0  0  0  0  0
    4.7520    3.4392   19.5665 C   0  0  0  0  0  0  0  0  0  0  0  0
    4.2656    3.4485   18.2867 C   0  0  0  0  0  0  0  0  0  0  0  0
    3.6471    2.3607   17.7447 C   0  0  0  0  0  0  0  0  0  0  0  0
    3.5220    1.2095   18.5336 C   0  0  0  0  0  0  0  0  0  0  0  0
    2.7293   -0.2035   17.8379 Cl  0  0  0  0  0  0  0  0  0  0  0  0
    4.0188    1.2130   19.8171 C   0  0  0  0  0  0  0  0  0  0  0  0
    3.8731   -0.2277   20.7937 Cl  0  0  0  0  0  0  0  0  0  0  0  0
    5.1917    2.3599   22.0241 S   0  0  0  0  0  0  0  0  0  0  0  0
    6.4470    1.4868   22.0782 O   0  0  0  0  0  0  0  0  0  0  0  0
    4.1637    1.8781   22.9672 O   0  0  0  0  0  0  0  0  0  0  0  0
    5.6646    4.0452   22.3368 C   0  0  0  0  0  0  0  0  0  0  0  0
    7.1386    4.2470   22.3018 C   0  0  0  0  0  0  0  0  0  0  0  0
    7.3695    5.7504   22.0786 C   0  0  0  0  0  0  0  0  0  0  0  0
    8.6907    6.1442   22.6771 C   0  0  0  0  0  0  0  0  0  0  0  0
   10.8620    5.3329   21.9839 C   0  0  0  0  0  0  0  0  0  0  0  0
    9.7958    6.3874   21.7149 C   0  0  0  0  0  0  0  0  0  0  0  0
    2.9950    2.3894   16.4077 C   0  0  0  0  0  0  0  0  0  0  0  0
    1.8334    2.1213   16.2962 O   0  0  0  0  0  0  0  0  0  0  0  0
    3.8832    2.7529   15.3064 C   0  0  0  0  0  0  0  0  0  0  0  0
    3.5119    3.9014   14.4542 C   0  0  0  0  0  0  0  0  0  0  0  0
    3.8291    5.2090   14.7952 N   0  0  0  0  0  0  0  0  0  0  0  0
    3.5063    6.0682   15.8298 C   0  0  0  0  0  0  0  0  0  0  0  0
    2.7885    6.2103   14.4861 C   0  0  0  0  0  0  0  0  0  0  0  0
    1.3673    5.7373   14.4673 C   0  0  0  0  0  0  0  0  0  0  0  0
 16 17  1  0  0  0
 17 15  1  0  0  0
 15 14  1  0  0  0
 14 13  1  0  0  0
 13 12  1  0  0  0
 12  9  1  0  0  0
  9 10  2  0  0  0
  9 11  2  0  0  0
  9  1  1  0  0  0
  1  2  2  0  0  0
  2  3  1  0  0  0
  3  4  2  0  0  0
  4 18  1  0  0  0
 18 19  2  0  0  0
 18 20  1  0  0  0
 20 21  1  0  0  0
 21 22  1  0  0  0
 22 23  1  0  0  0
 23 24  1  0  0  0
 24 25  1  0  0  0
  4  5  1  0  0  0
  5  6  1  0  0  0
  5  7  2  0  0  0
  7  8  1  0  0  0
  7  1  1  0  0  0
 24 22  1  0  0  0
M  END
> <minimizedAffinity>
-6.02238

> <CNNscore>
0.6703400612

> <CNNaffinity>
6.6683359146

> <CNN_VS>
4.4700527191

> <CNNaffinity_variance>
0.0964493752

$$$$
[H]c1c([H])c(S(=O)(=O)C([H])([H])C([H])([H])C([H])([H])C([H])([H])C([H])([H])C([H])([H])[H])c(Cl)c(Cl)c1C(=O)C([H])([H])C([H])([H])N1C([H])([H])C1([H])C([H])([H])[H]


 25 26  0  0  0  0  0  0  0  0999 V2000
    4.7768    2.9955   20.5802 C   0  0  0  0  0  0  0  0  0  0  0  0
    5.1112    3.4389   19.3122 C   0  0  0  0  0  0  0  0  0  0  0  0
    4.6906    2.7669   18.1959 C   0  0  0  0  0  0  0  0  0  0  0  0
    3.9261    1.6408   18.2799 C   0  0  0  0  0  0  0  0  0  0  0  0
    3.5778    1.1712   19.5533 C   0  0  0  0  0  0  0  0  0  0  0  0
    2.5949   -0.2879   19.6706 Cl  0  0  0  0  0  0  0  0  0  0  0  0
    4.0106    1.8546   20.6668 C   0  0  0  0  0  0  0  0  0  0  0  0
    3.5859    1.2596   22.2531 Cl  0  0  0  0  0  0  0  0  0  0  0  0
    5.2567    3.9213   21.9851 S   0  0  0  0  0  0  0  0  0  0  0  0
    6.2198    3.0316   22.7736 O   0  0  0  0  0  0  0  0  0  0  0  0
    4.0995    4.3199   22.8098 O   0  0  0  0  0  0  0  0  0  0  0  0
    6.1629    5.3196   21.3642 C   0  0  0  0  0  0  0  0  0  0  0  0
    7.3914    5.6078   22.1533 C   0  0  0  0  0  0  0  0  0  0  0  0
    7.2754    7.0656   22.6271 C   0  0  0  0  0  0  0  0  0  0  0  0
    8.6128    7.7385   22.4954 C   0  0  0  0  0  0  0  0  0  0  0  0
    8.1462    8.2214   24.8198 C   0  0  0  0  0  0  0  0  0  0  0  0
    9.0243    8.5996   23.6336 C   0  0  0  0  0  0  0  0  0  0  0  0
    3.3479    0.9701   17.0843 C   0  0  0  0  0  0  0  0  0  0  0  0
    3.4804   -0.2098   16.9303 O   0  0  0  0  0  0  0  0  0  0  0  0
    2.6467    1.8642   16.1661 C   0  0  0  0  0  0  0  0  0  0  0  0
    3.1114    1.9379   14.7655 C   0  0  0  0  0  0  0  0  0  0  0  0
    3.0764    3.1180   14.0354 N   0  0  0  0  0  0  0  0  0  0  0  0
    2.1363    4.1021   13.7893 C   0  0  0  0  0  0  0  0  0  0  0  0
    2.3939    3.0298   12.7288 C   0  0  0  0  0  0  0  0  0  0  0  0
    1.3166    1.9988   12.5872 C   0  0  0  0  0  0  0  0  0  0  0  0
 16 17  1  0  0  0
 17 15  1  0  0  0
 15 14  1  0  0  0
 14 13  1  0  0  0
 13 12  1  0  0  0
 12  9  1  0  0  0
  9 10  2  0  0  0
  9 11  2  0  0  0
  9  1  1  0  0  0
  1  2  2  0  0  0
  2  3  1  0  0  0
  3  4  2  0  0  0
  4 18  1  0  0  0
 18 19  2  0  0  0
 18 20  1  0  0  0
 20 21  1  0  0  0
 21 22  1  0  0  0
 22 23  1  0  0  0
 23 24  1  0  0  0
 24 25  1  0  0  0
  4  5  1  0  0  0
  5  6  1  0  0  0
  5  7  2  0  0  0
  7  8  1  0  0  0
  7  1  1  0  0  0
 24 22  1  0  0  0
M  END
> <minimizedAffinity>
-6.18073

> <CNNscore>
0.6020132303

> <CNNaffinity>
6.4963750839

> <CNN_VS>
3.9109036922

> <CNNaffinity_variance>
0.1436024755

$$$$
[H]c1c([H])c(S(=O)(=O)C([H])([H])C([H])([H])C([H])([H])C([H])([H])C([H])([H])C([H])([H])[H])c(Cl)c(Cl)c1C(=O)C([H])([H])C([H])([H])N1C([H])([H])C1([H])C([H])([H])[H]


 25 26  0  0  0  0  0  0  0  0999 V2000
    4.0268    1.9465   19.3820 C   0  0  0  0  0  0  0  0  0  0  0  0
    4.5007    3.2295   19.1680 C   0  0  0  0  0  0  0  0  0  0  0  0
    4.3785    3.8320   17.9446 C   0  0  0  0  0  0  0  0  0  0  0  0
    3.7861    3.2032   16.8894 C   0  0  0  0  0  0  0  0  0  0  0  0
    3.3015    1.9026   17.0815 C   0  0  0  0  0  0  0  0  0  0  0  0
    2.5400    1.0803   15.7203 Cl  0  0  0  0  0  0  0  0  0  0  0  0
    3.4344    1.3078   18.3155 C   0  0  0  0  0  0  0  0  0  0  0  0
    2.8413   -0.3185   18.5485 Cl  0  0  0  0  0  0  0  0  0  0  0  0
    4.1205    1.2346   20.9774 S   0  0  0  0  0  0  0  0  0  0  0  0
    5.2685    0.2244   20.9269 O   0  0  0  0  0  0  0  0  0  0  0  0
    2.8545    0.5868   21.3722 O   0  0  0  0  0  0  0  0  0  0  0  0
    4.5804    2.5544   22.0767 C   0  0  0  0  0  0  0  0  0  0  0  0
    6.0194    2.5161   22.4542 C   0  0  0  0  0  0  0  0  0  0  0  0
    6.5572    3.9451   22.2752 C   0  0  0  0  0  0  0  0  0  0  0  0
    5.4185    4.9206   22.3774 C   0  0  0  0  0  0  0  0  0  0  0  0
    6.3370    6.1996   20.5405 C   0  0  0  0  0  0  0  0  0  0  0  0
    5.7034    6.3055   21.9221 C   0  0  0  0  0  0  0  0  0  0  0  0
    3.5235    3.8831   15.5923 C   0  0  0  0  0  0  0  0  0  0  0  0
    4.2516    3.7050   14.6586 O   0  0  0  0  0  0  0  0  0  0  0  0
    2.3480    4.7504   15.5882 C   0  0  0  0  0  0  0  0  0  0  0  0
    2.1634    5.6780   14.4531 C   0  0  0  0  0  0  0  0  0  0  0  0
    1.5483    5.2883   13.2714 N   0  0  0  0  0  0  0  0  0  0  0  0
    1.1424    5.9222   12.1111 C   0  0  0  0  0  0  0  0  0  0  0  0
    0.1048    5.5880   13.1847 C   0  0  0  0  0  0  0  0  0  0  0  0
   -0.4001    6.7581   13.9719 C   0  0  0  0  0  0  0  0  0  0  0  0
 16 17  1  0  0  0
 17 15  1  0  0  0
 15 14  1  0  0  0
 14 13  1  0  0  0
 13 12  1  0  0  0
 12  9  1  0  0  0
  9 10  2  0  0  0
  9 11  2  0  0  0
  9  1  1  0  0  0
  1  2  2  0  0  0
  2  3  1  0  0  0
  3  4  2  0  0  0
  4 18  1  0  0  0
 18 19  2  0  0  0
 18 20  1  0  0  0
 20 21  1  0  0  0
 21 22  1  0  0  0
 22 23  1  0  0  0
 23 24  1  0  0  0
 24 25  1  0  0  0
  4  5  1  0  0  0
  5  6  1  0  0  0
  5  7  2  0  0  0
  7  8  1  0  0  0
  7  1  1  0  0  0
 24 22  1  0  0  0
M  END
> <minimizedAffinity>
-6.02003

> <CNNscore>
0.5948991776

> <CNNaffinity>
6.3765125275

> <CNN_VS>
3.7933821678

> <CNNaffinity_variance>
0.2125405520

$$$$
[H]c1c([H])c(S(=O)(=O)C([H])([H])C([H])([H])C([H])([H])C([H])([H])C([H])([H])C([H])([H])[H])c(Cl)c(Cl)c1C(=O)C([H])([H])C([H])([H])N1C([H])([H])C1([H])C([H])([H])[H]


 25 26  0  0  0  0  0  0  0  0999 V2000
    3.7251    1.9910   17.8495 C   0  0  0  0  0  0  0  0  0  0  0  0
    4.5923    2.4101   18.8440 C   0  0  0  0  0  0  0  0  0  0  0  0
    5.1352    3.6669   18.8233 C   0  0  0  0  0  0  0  0  0  0  0  0
    4.8468    4.5585   17.8326 C   0  0  0  0  0  0  0  0  0  0  0  0
    3.9739    4.1555   16.8134 C   0  0  0  0  0  0  0  0  0  0  0  0
    3.6012    5.3002   15.5251 Cl  0  0  0  0  0  0  0  0  0  0  0  0
    3.4384    2.8879   16.8447 C   0  0  0  0  0  0  0  0  0  0  0  0
    2.3609    2.3837   15.5659 Cl  0  0  0  0  0  0  0  0  0  0  0  0
    2.9810    0.4106   17.9473 S   0  0  0  0  0  0  0  0  0  0  0  0
    3.6231   -0.4321   16.8435 O   0  0  0  0  0  0  0  0  0  0  0  0
    1.5153    0.4756   17.7868 O   0  0  0  0  0  0  0  0  0  0  0  0
    3.4635   -0.2616   19.5211 C   0  0  0  0  0  0  0  0  0  0  0  0
    2.4046   -0.1218   20.5575 C   0  0  0  0  0  0  0  0  0  0  0  0
    3.0155    0.7080   21.6983 C   0  0  0  0  0  0  0  0  0  0  0  0
    4.5049    0.5077   21.7157 C   0  0  0  0  0  0  0  0  0  0  0  0
    4.7234    2.0460   23.5703 C   0  0  0  0  0  0  0  0  0  0  0  0
    5.3104    1.6485   22.2217 C   0  0  0  0  0  0  0  0  0  0  0  0
    5.3179    5.9696   17.8583 C   0  0  0  0  0  0  0  0  0  0  0  0
    6.2117    6.3213   17.1435 O   0  0  0  0  0  0  0  0  0  0  0  0
    4.6124    6.8281   18.8067 C   0  0  0  0  0  0  0  0  0  0  0  0
    3.8200    7.9572   18.2771 C   0  0  0  0  0  0  0  0  0  0  0  0
    4.3600    8.8988   17.4121 N   0  0  0  0  0  0  0  0  0  0  0  0
    5.1205   10.0461   17.5476 C   0  0  0  0  0  0  0  0  0  0  0  0
    3.6128   10.1692   17.3185 C   0  0  0  0  0  0  0  0  0  0  0  0
    2.8159   10.5847   18.5168 C   0  0  0  0  0  0  0  0  0  0  0  0
 16 17  1  0  0  0
 17 15  1  0  0  0
 15 14  1  0  0  0
 14 13  1  0  0  0
 13 12  1  0  0  0
 12  9  1  0  0  0
  9 10  2  0  0  0
  9 11  2  0  0  0
  9  1  1  0  0  0
  1  2  2  0  0  0
  2  3  1  0  0  0
  3  4  2  0  0  0
  4 18  1  0  0  0
 18 19  2  0  0  0
 18 20  1  0  0  0
 20 21  1  0  0  0
 21 22  1  0  0  0
 22 23  1  0  0  0
 23 24  1  0  0  0
 24 25  1  0  0  0
  4  5  1  0  0  0
  5  6  1  0  0  0
  5  7  2  0  0  0
  7  8  1  0  0  0
  7  1  1  0  0  0
 24 22  1  0  0  0
M  END
> <minimizedAffinity>
-5.33928

> <CNNscore>
0.5944089890

> <CNNaffinity>
6.3925323486

> <CNN_VS>
3.7997786999

> <CNNaffinity_variance>
0.0905320048

$$$$
[H]c1c([H])c(S(=O)(=O)C([H])([H])C([H])([H])C([H])([H])C([H])([H])C([H])([H])C([H])([H])[H])c(Cl)c(Cl)c1C(=O)C([H])([H])C([H])([H])N1C([H])([H])C1([H])C([H])([H])[H]


 25 26  0  0  0  0  0  0  0  0999 V2000
    4.2664    1.8573   19.6565 C   0  0  0  0  0  0  0  0  0  0  0  0
    4.8901    3.0711   19.4239 C   0  0  0  0  0  0  0  0  0  0  0  0
    4.8145    3.6803   18.2001 C   0  0  0  0  0  0  0  0  0  0  0  0
    4.1241    3.1265   17.1626 C   0  0  0  0  0  0  0  0  0  0  0  0
    3.4871    1.8965   17.3736 C   0  0  0  0  0  0  0  0  0  0  0  0
    2.5978    1.1706   16.0353 Cl  0  0  0  0  0  0  0  0  0  0  0  0
    3.5745    1.2935   18.6078 C   0  0  0  0  0  0  0  0  0  0  0  0
    2.7905   -0.2461   18.8640 Cl  0  0  0  0  0  0  0  0  0  0  0  0
    4.3090    1.1442   21.2535 S   0  0  0  0  0  0  0  0  0  0  0  0
    5.1605   -0.1213   21.1330 O   0  0  0  0  0  0  0  0  0  0  0  0
    2.9579    0.8339   21.7599 O   0  0  0  0  0  0  0  0  0  0  0  0
    5.1717    2.3065   22.2863 C   0  0  0  0  0  0  0  0  0  0  0  0
    4.4586    2.5847   23.5625 C   0  0  0  0  0  0  0  0  0  0  0  0
    3.8955    4.0105   23.4476 C   0  0  0  0  0  0  0  0  0  0  0  0
    4.8862    4.8789   22.7242 C   0  0  0  0  0  0  0  0  0  0  0  0
    5.4699    6.4095   20.9437 C   0  0  0  0  0  0  0  0  0  0  0  0
    4.3147    5.8722   21.7791 C   0  0  0  0  0  0  0  0  0  0  0  0
    3.9170    3.8296   15.8679 C   0  0  0  0  0  0  0  0  0  0  0  0
    4.3289    3.3537   14.8493 O   0  0  0  0  0  0  0  0  0  0  0  0
    3.2020    5.0991   15.9738 C   0  0  0  0  0  0  0  0  0  0  0  0
    3.8999    6.3349   15.5629 C   0  0  0  0  0  0  0  0  0  0  0  0
    3.7908    7.5192   16.2786 N   0  0  0  0  0  0  0  0  0  0  0  0
    4.4745    8.7209   16.3138 C   0  0  0  0  0  0  0  0  0  0  0  0
    4.7477    7.6715   17.3932 C   0  0  0  0  0  0  0  0  0  0  0  0
    6.0585    6.9567   17.2728 C   0  0  0  0  0  0  0  0  0  0  0  0
 16 17  1  0  0  0
 17 15  1  0  0  0
 15 14  1  0  0  0
 14 13  1  0  0  0
 13 12  1  0  0  0
 12  9  1  0  0  0
  9 10  2  0  0  0
  9 11  2  0  0  0
  9  1  1  0  0  0
  1  2  2  0  0  0
  2  3  1  0  0  0
  3  4  2  0  0  0
  4 18  1  0  0  0
 18 19  2  0  0  0
 18 20  1  0  0  0
 20 21  1  0  0  0
 21 22  1  0  0  0
 22 23  1  0  0  0
 23 24  1  0  0  0
 24 25  1  0  0  0
  4  5  1  0  0  0
  5  6  1  0  0  0
  5  7  2  0  0  0
  7  8  1  0  0  0
  7  1  1  0  0  0
 24 22  1  0  0  0
M  END
> <minimizedAffinity>
-6.19134

> <CNNscore>
0.5858832598

> <CNNaffinity>
6.4221258163

> <CNN_VS>
3.7626159191

> <CNNaffinity_variance>
0.1491913348

$$$$
[H]c1c([H])c(S(=O)(=O)C([H])([H])C([H])([H])C([H])([H])C([H])([H])C([H])([H])C([H])([H])[H])c(Cl)c(Cl)c1C(=O)C([H])([H])C([H])([H])N1C([H])([H])C1([H])C([H])([H])[H]


 25 26  0  0  0  0  0  0  0  0999 V2000
    4.8391    2.2253   20.2153 C   0  0  0  0  0  0  0  0  0  0  0  0
    5.1404    3.3046   19.4024 C   0  0  0  0  0  0  0  0  0  0  0  0
    4.6846    3.3656   18.1128 C   0  0  0  0  0  0  0  0  0  0  0  0
    3.9160    2.3763   17.5742 C   0  0  0  0  0  0  0  0  0  0  0  0
    3.6008    1.2722   18.3773 C   0  0  0  0  0  0  0  0  0  0  0  0
    2.6129   -0.0145   17.6863 Cl  0  0  0  0  0  0  0  0  0  0  0  0
    4.0688    1.2222   19.6707 C   0  0  0  0  0  0  0  0  0  0  0  0
    3.6852   -0.1614   20.6652 Cl  0  0  0  0  0  0  0  0  0  0  0  0
    5.3638    2.2144   21.8843 S   0  0  0  0  0  0  0  0  0  0  0  0
    6.6322    1.3599   21.9271 O   0  0  0  0  0  0  0  0  0  0  0  0
    4.3275    1.6799   22.7892 O   0  0  0  0  0  0  0  0  0  0  0  0
    5.8033    3.8935   22.2708 C   0  0  0  0  0  0  0  0  0  0  0  0
    4.7095    4.6330   22.9576 C   0  0  0  0  0  0  0  0  0  0  0  0
    4.1693    5.6556   21.9449 C   0  0  0  0  0  0  0  0  0  0  0  0
    5.3061    6.4939   21.4312 C   0  0  0  0  0  0  0  0  0  0  0  0
    4.9543    8.8821   21.5933 C   0  0  0  0  0  0  0  0  0  0  0  0
    4.9268    7.6931   20.6411 C   0  0  0  0  0  0  0  0  0  0  0  0
    3.3005    2.4810   16.2237 C   0  0  0  0  0  0  0  0  0  0  0  0
    3.7026    1.8033   15.3223 O   0  0  0  0  0  0  0  0  0  0  0  0
    2.2163    3.4550   16.1243 C   0  0  0  0  0  0  0  0  0  0  0  0
    2.3399    4.5452   15.1347 C   0  0  0  0  0  0  0  0  0  0  0  0
    1.7084    4.4984   13.8995 N   0  0  0  0  0  0  0  0  0  0  0  0
    1.5787    3.5630   12.8890 C   0  0  0  0  0  0  0  0  0  0  0  0
    2.5916    4.6991   12.7330 C   0  0  0  0  0  0  0  0  0  0  0  0
    4.0275    4.3008   12.8848 C   0  0  0  0  0  0  0  0  0  0  0  0
 16 17  1  0  0  0
 17 15  1  0  0  0
 15 14  1  0  0  0
 14 13  1  0  0  0
 13 12  1  0  0  0
 12  9  1  0  0  0
  9 10  2  0  0  0
  9 11  2  0  0  0
  9  1  1  0  0  0
  1  2  2  0  0  0
  2  3  1  0  0  0
  3  4  2  0  0  0
  4 18  1  0  0  0
 18 19  2  0  0  0
 18 20  1  0  0  0
 20 21  1  0  0  0
 21 22  1  0  0  0
 22 23  1  0  0  0
 23 24  1  0  0  0
 24 25  1  0  0  0
  4  5  1  0  0  0
  5  6  1  0  0  0
  5  7  2  0  0  0
  7  8  1  0  0  0
  7  1  1  0  0  0
 24 22  1  0  0  0
M  END
> <minimizedAffinity>
-6.52390

> <CNNscore>
0.5635403991

> <CNNaffinity>
6.3720483780

> <CNN_VS>
3.5909066200

> <CNNaffinity_variance>
0.1491953731

$$$$
[H]c1c([H])c(S(=O)(=O)C([H])([H])C([H])([H])C([H])([H])C([H])([H])C([H])([H])C([H])([H])[H])c(Cl)c(Cl)c1C(=O)C([H])([H])C([H])([H])N1C([H])([H])C1([H])C([H])([H])[H]


 25 26  0  0  0  0  0  0  0  0999 V2000
    4.2685    2.8695   18.1715 C   0  0  0  0  0  0  0  0  0  0  0  0
    4.6189    4.1184   17.6878 C   0  0  0  0  0  0  0  0  0  0  0  0
    4.2964    4.4971   16.4122 C   0  0  0  0  0  0  0  0  0  0  0  0
    3.6176    3.6702   15.5666 C   0  0  0  0  0  0  0  0  0  0  0  0
    3.2551    2.3996   16.0331 C   0  0  0  0  0  0  0  0  0  0  0  0
    2.3829    1.3220   14.9437 Cl  0  0  0  0  0  0  0  0  0  0  0  0
    3.5890    2.0308   17.3164 C   0  0  0  0  0  0  0  0  0  0  0  0
    3.1474    0.4416   17.8909 Cl  0  0  0  0  0  0  0  0  0  0  0  0
    4.6190    2.4451   19.8322 S   0  0  0  0  0  0  0  0  0  0  0  0
    5.6767    1.3409   19.7762 O   0  0  0  0  0  0  0  0  0  0  0  0
    3.4144    1.9961   20.5571 O   0  0  0  0  0  0  0  0  0  0  0  0
    5.3528    3.8906   20.5629 C   0  0  0  0  0  0  0  0  0  0  0  0
    4.3753    4.7084   21.3313 C   0  0  0  0  0  0  0  0  0  0  0  0
    4.8039    4.6320   22.8057 C   0  0  0  0  0  0  0  0  0  0  0  0
    3.8170    3.7921   23.5669 C   0  0  0  0  0  0  0  0  0  0  0  0
    5.7454    2.3532   23.8204 C   0  0  0  0  0  0  0  0  0  0  0  0
    4.2223    2.3876   23.8301 C   0  0  0  0  0  0  0  0  0  0  0  0
    3.1412    4.1057   14.2261 C   0  0  0  0  0  0  0  0  0  0  0  0
    2.0564    4.5965   14.1005 O   0  0  0  0  0  0  0  0  0  0  0  0
    4.0895    3.8729   13.1394 C   0  0  0  0  0  0  0  0  0  0  0  0
    4.2657    4.9300   12.1223 C   0  0  0  0  0  0  0  0  0  0  0  0
    3.8111    4.7858   10.8188 N   0  0  0  0  0  0  0  0  0  0  0  0
    3.7885    3.7652    9.8856 C   0  0  0  0  0  0  0  0  0  0  0  0
    4.8550    4.8569    9.7766 C   0  0  0  0  0  0  0  0  0  0  0  0
    6.2399    4.4388   10.1650 C   0  0  0  0  0  0  0  0  0  0  0  0
 16 17  1  0  0  0
 17 15  1  0  0  0
 15 14  1  0  0  0
 14 13  1  0  0  0
 13 12  1  0  0  0
 12  9  1  0  0  0
  9 10  2  0  0  0
  9 11  2  0  0  0
  9  1  1  0  0  0
  1  2  2  0  0  0
  2  3  1  0  0  0
  3  4  2  0  0  0
  4 18  1  0  0  0
 18 19  2  0  0  0
 18 20  1  0  0  0
 20 21  1  0  0  0
 21 22  1  0  0  0
 22 23  1  0  0  0
 23 24  1  0  0  0
 24 25  1  0  0  0
  4  5  1  0  0  0
  5  6  1  0  0  0
  5  7  2  0  0  0
  7  8  1  0  0  0
  7  1  1  0  0  0
 24 22  1  0  0  0
M  END
> <minimizedAffinity>
-5.32642

> <CNNscore>
0.5563924909

> <CNNaffinity>
6.3166842461

> <CNN_VS>
3.5145556927

> <CNNaffinity_variance>
0.1033853889

$$$$
[H]OC([H])([H])C([H])([H])N1C([H])([H])C([H])([H])N(c2c(Cl)c([H])c3nc(SC(C([H])([H])[H])(C([H])([H])[H])C([H])([H])[H])n([H])c3c2[H])[C@]([H])(C([H])([H])[H])C1([H])[H]


 27 29  0  0  0  0  0  0  0  0999 V2000
    3.3985    3.4111   15.4194 C   0  0  0  0  0  0  0  0  0  0  0  0
    4.1864    3.7893   16.5204 C   0  0  0  0  0  0  0  0  0  0  0  0
    4.3724    2.9708   17.6082 C   0  0  0  0  0  0  0  0  0  0  0  0
    5.0761    3.1439   18.7421 N   0  0  0  0  0  0  0  0  0  0  0  0
    4.9098    2.0197   19.4612 C   0  0  0  0  0  0  0  0  0  0  0  0
    4.1203    1.1642   18.7919 N   0  0  0  0  0  0  0  0  0  0  0  0
    3.7567    1.7125   17.6249 C   0  0  0  0  0  0  0  0  0  0  0  0
    2.9803    1.3259   16.5525 C   0  0  0  0  0  0  0  0  0  0  0  0
    2.8018    2.1678   15.4585 C   0  0  0  0  0  0  0  0  0  0  0  0
    1.7745    1.5877   14.1609 Cl  0  0  0  0  0  0  0  0  0  0  0  0
    5.6283    4.0001   18.9753 H   0  0  0  0  0  0  0  0  0  0  0  0
    1.3773    5.7332   15.0380 C   0  0  0  0  0  0  0  0  0  0  0  0
    2.5920    5.5283   14.2417 C   0  0  0  0  0  0  0  0  0  0  0  0
    2.1450    5.6708   12.7809 C   0  0  0  0  0  0  0  0  0  0  0  0
    3.2732    6.1075   12.0140 N   0  0  0  0  0  0  0  0  0  0  0  0
    4.3888    5.3162   12.3746 C   0  0  0  0  0  0  0  0  0  0  0  0
    3.9654    4.0050   13.0880 C   0  0  0  0  0  0  0  0  0  0  0  0
    3.2836    4.2854   14.3325 N   0  0  0  0  0  0  0  0  0  0  0  0
    2.9005    6.1324   10.6390 C   0  0  0  0  0  0  0  0  0  0  0  0
    1.4429    6.0445   10.3457 C   0  0  0  0  0  0  0  0  0  0  0  0
    1.0367    7.2933    9.8346 O   0  0  0  0  0  0  0  0  0  0  0  0
    1.8001    7.8713    9.6152 H   0  0  0  0  0  0  0  0  0  0  0  0
    5.6456    1.7450   21.0615 S   0  0  0  0  0  0  0  0  0  0  0  0
    4.4003    2.2004   22.3119 C   0  0  0  0  0  0  0  0  0  0  0  0
    5.0834    2.1914   23.6559 C   0  0  0  0  0  0  0  0  0  0  0  0
    3.9441    3.6219   22.0464 C   0  0  0  0  0  0  0  0  0  0  0  0
    3.2721    1.2198   22.2115 C   0  0  0  0  0  0  0  0  0  0  0  0
 12 13  1  0  0  0
 13 14  1  0  0  0
 14 15  1  0  0  0
 15 19  1  0  0  0
 19 20  1  0  0  0
 20 21  1  0  0  0
 15 16  1  0  0  0
 16 17  1  0  0  0
 17 18  1  0  0  0
 18  1  1  0  0  0
  1  2  2  0  0  0
  2  3  1  0  0  0
  3  4  1  0  0  0
  4  5  1  0  0  0
  5 23  1  0  0  0
 23 24  1  0  0  0
 24 25  1  0  0  0
 24 26  1  0  0  0
 24 27  1  0  0  0
  5  6  2  0  0  0
  6  7  1  0  0  0
  7  8  1  0  0  0
  8  9  2  0  0  0
  9 10  1  0  0  0
 18 13  1  0  0  0
  9  1  1  0  0  0
  7  3  2  0  0  0
 21 22  1  0  0  0
  4 11  1  0  0  0
M  END
> <minimizedAffinity>
-6.36528

> <CNNscore>
0.6229386330

> <CNNaffinity>
6.5132904053

> <CNN_VS>
4.0573801994

> <CNNaffinity_variance>
0.2429892570

$$$$
[H]OC([H])([H])C([H])([H])N1C([H])([H])C([H])([H])N(c2c(Cl)c([H])c3nc(SC(C([H])([H])[H])(C([H])([H])[H])C([H])([H])[H])n([H])c3c2[H])[C@]([H])(C([H])([H])[H])C1([H])[H]


 27 29  0  0  0  0  0  0  0  0999 V2000
    3.0378    3.6805   15.9667 C   0  0  0  0  0  0  0  0  0  0  0  0
    3.6760    4.1634   17.1224 C   0  0  0  0  0  0  0  0  0  0  0  0
    4.1329    3.3292   18.1139 C   0  0  0  0  0  0  0  0  0  0  0  0
    4.7584    3.5884   19.2768 N   0  0  0  0  0  0  0  0  0  0  0  0
    4.9759    2.3957   19.8589 C   0  0  0  0  0  0  0  0  0  0  0  0
    4.4971    1.4142   19.0776 N   0  0  0  0  0  0  0  0  0  0  0  0
    3.9588    1.9463   17.9722 C   0  0  0  0  0  0  0  0  0  0  0  0
    3.3345    1.4560   16.8443 C   0  0  0  0  0  0  0  0  0  0  0  0
    2.8772    2.3152   15.8495 C   0  0  0  0  0  0  0  0  0  0  0  0
    2.0752    1.5880   14.4697 Cl  0  0  0  0  0  0  0  0  0  0  0  0
    5.0064    4.5442   19.6195 H   0  0  0  0  0  0  0  0  0  0  0  0
    4.2390    4.1064   13.1386 C   0  0  0  0  0  0  0  0  0  0  0  0
    2.9417    4.6178   13.5935 C   0  0  0  0  0  0  0  0  0  0  0  0
    2.9203    6.0933   13.1731 C   0  0  0  0  0  0  0  0  0  0  0  0
    1.5532    6.4825   12.9955 N   0  0  0  0  0  0  0  0  0  0  0  0
    0.8107    6.0165   14.1056 C   0  0  0  0  0  0  0  0  0  0  0  0
    1.7235    5.6685   15.3110 C   0  0  0  0  0  0  0  0  0  0  0  0
    2.6302    4.5901   14.9840 N   0  0  0  0  0  0  0  0  0  0  0  0
    1.5154    7.8794   12.7176 C   0  0  0  0  0  0  0  0  0  0  0  0
    2.6239    8.6980   13.2827 C   0  0  0  0  0  0  0  0  0  0  0  0
    2.2007    9.1762   14.5389 O   0  0  0  0  0  0  0  0  0  0  0  0
    1.3768    8.7378   14.8453 H   0  0  0  0  0  0  0  0  0  0  0  0
    5.7836    2.1909   21.4348 S   0  0  0  0  0  0  0  0  0  0  0  0
    4.5059    2.3704   22.7220 C   0  0  0  0  0  0  0  0  0  0  0  0
    5.1752    2.1621   24.0569 C   0  0  0  0  0  0  0  0  0  0  0  0
    3.9867    3.7949   22.6943 C   0  0  0  0  0  0  0  0  0  0  0  0
    3.4257    1.3725   22.4360 C   0  0  0  0  0  0  0  0  0  0  0  0
 12 13  1  0  0  0
 13 14  1  0  0  0
 14 15  1  0  0  0
 15 19  1  0  0  0
 19 20  1  0  0  0
 20 21  1  0  0  0
 15 16  1  0  0  0
 16 17  1  0  0  0
 17 18  1  0  0  0
 18  1  1  0  0  0
  1  2  2  0  0  0
  2  3  1  0  0  0
  3  4  1  0  0  0
  4  5  1  0  0  0
  5 23  1  0  0  0
 23 24  1  0  0  0
 24 25  1  0  0  0
 24 26  1  0  0  0
 24 27  1  0  0  0
  5  6  2  0  0  0
  6  7  1  0  0  0
  7  8  1  0  0  0
  8  9  2  0  0  0
  9 10  1  0  0  0
 18 13  1  0  0  0
  9  1  1  0  0  0
  7  3  2  0  0  0
 21 22  1  0  0  0
  4 11  1  0  0  0
M  END
> <minimizedAffinity>
-7.30253

> <CNNscore>
0.6070691943

> <CNNaffinity>
6.4807739258

> <CNN_VS>
3.9342782497

> <CNNaffinity_variance>
0.1278217733

$$$$
[H]OC([H])([H])C([H])([H])N1C([H])([H])C([H])([H])N(c2c(Cl)c([H])c3nc(SC(C([H])([H])[H])(C([H])([H])[H])C([H])([H])[H])n([H])c3c2[H])[C@]([H])(C([H])([H])[H])C1([H])[H]


 27 29  0  0  0  0  0  0  0  0999 V2000
    4.9803    4.0050   19.8505 C   0  0  0  0  0  0  0  0  0  0  0  0
    4.2334    4.5166   18.7752 C   0  0  0  0  0  0  0  0  0  0  0  0
    3.7008    3.7097   17.7990 C   0  0  0  0  0  0  0  0  0  0  0  0
    2.9690    3.9984   16.7072 N   0  0  0  0  0  0  0  0  0  0  0  0
    2.7168    2.8231   16.1042 C   0  0  0  0  0  0  0  0  0  0  0  0
    3.2782    1.8234   16.8031 N   0  0  0  0  0  0  0  0  0  0  0  0
    3.9066    2.3259   17.8742 C   0  0  0  0  0  0  0  0  0  0  0  0
    4.6372    1.8076   18.9229 C   0  0  0  0  0  0  0  0  0  0  0  0
    5.1704    2.6395   19.9032 C   0  0  0  0  0  0  0  0  0  0  0  0
    6.1041    1.8786   21.1780 Cl  0  0  0  0  0  0  0  0  0  0  0  0
    2.6775    4.9611   16.4232 H   0  0  0  0  0  0  0  0  0  0  0  0
    3.8070    4.5708   22.6658 C   0  0  0  0  0  0  0  0  0  0  0  0
    5.1471    4.9591   22.2131 C   0  0  0  0  0  0  0  0  0  0  0  0
    5.2976    6.4318   22.6162 C   0  0  0  0  0  0  0  0  0  0  0  0
    6.6929    6.7000   22.7978 N   0  0  0  0  0  0  0  0  0  0  0  0
    7.3968    6.1562   21.6981 C   0  0  0  0  0  0  0  0  0  0  0  0
    6.4630    5.8761   20.4911 C   0  0  0  0  0  0  0  0  0  0  0  0
    5.4621    4.8867   20.8250 N   0  0  0  0  0  0  0  0  0  0  0  0
    6.8535    8.0913   23.0596 C   0  0  0  0  0  0  0  0  0  0  0  0
    7.4214    8.4547   24.3877 C   0  0  0  0  0  0  0  0  0  0  0  0
    6.3930    9.0591   25.1380 O   0  0  0  0  0  0  0  0  0  0  0  0
    5.5124    8.9505   24.7167 H   0  0  0  0  0  0  0  0  0  0  0  0
    1.7729    2.6593   14.6008 S   0  0  0  0  0  0  0  0  0  0  0  0
    2.4923    3.8111   13.3853 C   0  0  0  0  0  0  0  0  0  0  0  0
    2.1580    3.2871   12.0116 C   0  0  0  0  0  0  0  0  0  0  0  0
    1.8123    5.1584   13.5327 C   0  0  0  0  0  0  0  0  0  0  0  0
    3.9649    3.8925   13.6487 C   0  0  0  0  0  0  0  0  0  0  0  0
 12 13  1  0  0  0
 13 14  1  0  0  0
 14 15  1  0  0  0
 15 19  1  0  0  0
 19 20  1  0  0  0
 20 21  1  0  0  0
 15 16  1  0  0  0
 16 17  1  0  0  0
 17 18  1  0  0  0
 18  1  1  0  0  0
  1  2  2  0  0  0
  2  3  1  0  0  0
  3  4  1  0  0  0
  4  5  1  0  0  0
  5 23  1  0  0  0
 23 24  1  0  0  0
 24 25  1  0  0  0
 24 26  1  0  0  0
 24 27  1  0  0  0
  5  6  2  0  0  0
  6  7  1  0  0  0
  7  8  1  0  0  0
  8  9  2  0  0  0
  9 10  1  0  0  0
 18 13  1  0  0  0
  9  1  1  0  0  0
  7  3  2  0  0  0
 21 22  1  0  0  0
  4 11  1  0  0  0
M  END
> <minimizedAffinity>
-7.10225

> <CNNscore>
0.5218220353

> <CNNaffinity>
6.5413680077

> <CNN_VS>
3.4134299755

> <CNNaffinity_variance>
0.2543614507

$$$$
[H]OC([H])([H])C([H])([H])N1C([H])([H])C([H])([H])N(c2c(Cl)c([H])c3nc(SC(C([H])([H])[H])(C([H])([H])[H])C([H])([H])[H])n([H])c3c2[H])[C@]([H])(C([H])([H])[H])C1([H])[H]


 27 29  0  0  0  0  0  0  0  0999 V2000
    4.4544    3.8440   18.6508 C   0  0  0  0  0  0  0  0  0  0  0  0
    3.7287    4.2567   17.5198 C   0  0  0  0  0  0  0  0  0  0  0  0
    3.1787    3.3639   16.6321 C   0  0  0  0  0  0  0  0  0  0  0  0
    2.4618    3.5528   15.5090 N   0  0  0  0  0  0  0  0  0  0  0  0
    2.1795    2.3266   15.0344 C   0  0  0  0  0  0  0  0  0  0  0  0
    2.7079    1.3933   15.8424 N   0  0  0  0  0  0  0  0  0  0  0  0
    3.3443    1.9912   16.8583 C   0  0  0  0  0  0  0  0  0  0  0  0
    4.0537    1.5694   17.9634 C   0  0  0  0  0  0  0  0  0  0  0  0
    4.6048    2.4875   18.8526 C   0  0  0  0  0  0  0  0  0  0  0  0
    5.5090    1.8436   20.2104 Cl  0  0  0  0  0  0  0  0  0  0  0  0
    2.1997    4.4868   15.1199 H   0  0  0  0  0  0  0  0  0  0  0  0
    6.6162    5.9970   18.0906 C   0  0  0  0  0  0  0  0  0  0  0  0
    5.7074    5.9889   19.2419 C   0  0  0  0  0  0  0  0  0  0  0  0
    6.6016    6.2408   20.4630 C   0  0  0  0  0  0  0  0  0  0  0  0
    5.8004    6.8570   21.4780 N   0  0  0  0  0  0  0  0  0  0  0  0
    4.5864    6.1386   21.5830 C   0  0  0  0  0  0  0  0  0  0  0  0
    4.6893    4.7269   20.9475 C   0  0  0  0  0  0  0  0  0  0  0  0
    4.9557    4.8123   19.5283 N   0  0  0  0  0  0  0  0  0  0  0  0
    6.5906    6.9904   22.6560 C   0  0  0  0  0  0  0  0  0  0  0  0
    8.0328    6.6402   22.5300 C   0  0  0  0  0  0  0  0  0  0  0  0
    8.5102    6.3364   23.8206 O   0  0  0  0  0  0  0  0  0  0  0  0
    7.7825    6.2429   24.4737 H   0  0  0  0  0  0  0  0  0  0  0  0
    1.2399    2.0272   13.5494 S   0  0  0  0  0  0  0  0  0  0  0  0
    1.8148    3.2217   12.2986 C   0  0  0  0  0  0  0  0  0  0  0  0
    3.3158    3.3081   12.4108 C   0  0  0  0  0  0  0  0  0  0  0  0
    1.4954    2.6731   10.9215 C   0  0  0  0  0  0  0  0  0  0  0  0
    1.1228    4.5247   12.5592 C   0  0  0  0  0  0  0  0  0  0  0  0
 12 13  1  0  0  0
 13 14  1  0  0  0
 14 15  1  0  0  0
 15 19  1  0  0  0
 19 20  1  0  0  0
 20 21  1  0  0  0
 15 16  1  0  0  0
 16 17  1  0  0  0
 17 18  1  0  0  0
 18  1  1  0  0  0
  1  2  2  0  0  0
  2  3  1  0  0  0
  3  4  1  0  0  0
  4  5  1  0  0  0
  5 23  1  0  0  0
 23 24  1  0  0  0
 24 25  1  0  0  0
 24 26  1  0  0  0
 24 27  1  0  0  0
  5  6  2  0  0  0
  6  7  1  0  0  0
  7  8  1  0  0  0
  8  9  2  0  0  0
  9 10  1  0  0  0
 18 13  1  0  0  0
  9  1  1  0  0  0
  7  3  2  0  0  0
 21 22  1  0  0  0
  4 11  1  0  0  0
M  END
> <minimizedAffinity>
-6.59056

> <CNNscore>
0.5155531168

> <CNNaffinity>
6.4425382614

> <CNN_VS>
3.3214707375

> <CNNaffinity_variance>
0.2340979129

$$$$
[H]OC([H])([H])C([H])([H])N1C([H])([H])C([H])([H])N(c2c(Cl)c([H])c3nc(SC(C([H])([H])[H])(C([H])([H])[H])C([H])([H])[H])n([H])c3c2[H])[C@]([H])(C([H])([H])[H])C1([H])[H]


 27 29  0  0  0  0  0  0  0  0999 V2000
    5.0827    4.6512   18.4487 C   0  0  0  0  0  0  0  0  0  0  0  0
    4.7765    5.2329   17.2061 C   0  0  0  0  0  0  0  0  0  0  0  0
    4.3597    4.4897   16.1282 C   0  0  0  0  0  0  0  0  0  0  0  0
    4.0238    4.8494   14.8758 N   0  0  0  0  0  0  0  0  0  0  0  0
    3.6921    3.7137   14.2364 C   0  0  0  0  0  0  0  0  0  0  0  0
    3.8180    2.6688   15.0702 N   0  0  0  0  0  0  0  0  0  0  0  0
    4.2336    3.1014   16.2681 C   0  0  0  0  0  0  0  0  0  0  0  0
    4.5301    2.5148   17.4806 C   0  0  0  0  0  0  0  0  0  0  0  0
    4.9516    3.2825   18.5624 C   0  0  0  0  0  0  0  0  0  0  0  0
    5.3265    2.4325   20.0499 Cl  0  0  0  0  0  0  0  0  0  0  0  0
    4.0336    5.8303   14.5151 H   0  0  0  0  0  0  0  0  0  0  0  0
    3.5372    5.2396   21.0731 C   0  0  0  0  0  0  0  0  0  0  0  0
    4.9526    5.5437   20.8375 C   0  0  0  0  0  0  0  0  0  0  0  0
    5.1361    6.9941   21.3030 C   0  0  0  0  0  0  0  0  0  0  0  0
    6.5024    7.1618   21.6989 N   0  0  0  0  0  0  0  0  0  0  0  0
    7.3274    6.5931   20.7005 C   0  0  0  0  0  0  0  0  0  0  0  0
    6.5703    6.4024   19.3597 C   0  0  0  0  0  0  0  0  0  0  0  0
    5.4682    5.4778   19.5104 N   0  0  0  0  0  0  0  0  0  0  0  0
    6.7120    8.5332   22.0237 C   0  0  0  0  0  0  0  0  0  0  0  0
    5.5103    9.4126   21.9933 C   0  0  0  0  0  0  0  0  0  0  0  0
    5.5524   10.1473   20.7915 O   0  0  0  0  0  0  0  0  0  0  0  0
    6.2331    9.8063   20.1709 H   0  0  0  0  0  0  0  0  0  0  0  0
    3.1678    3.6479   12.5339 S   0  0  0  0  0  0  0  0  0  0  0  0
    1.3830    3.2791   12.5340 C   0  0  0  0  0  0  0  0  0  0  0  0
    0.6590    4.5436   12.9213 C   0  0  0  0  0  0  0  0  0  0  0  0
    0.9598    2.9311   11.1201 C   0  0  0  0  0  0  0  0  0  0  0  0
    1.1507    2.1455   13.4856 C   0  0  0  0  0  0  0  0  0  0  0  0
 12 13  1  0  0  0
 13 14  1  0  0  0
 14 15  1  0  0  0
 15 19  1  0  0  0
 19 20  1  0  0  0
 20 21  1  0  0  0
 15 16  1  0  0  0
 16 17  1  0  0  0
 17 18  1  0  0  0
 18  1  1  0  0  0
  1  2  2  0  0  0
  2  3  1  0  0  0
  3  4  1  0  0  0
  4  5  1  0  0  0
  5 23  1  0  0  0
 23 24  1  0  0  0
 24 25  1  0  0  0
 24 26  1  0  0  0
 24 27  1  0  0  0
  5  6  2  0  0  0
  6  7  1  0  0  0
  7  8  1  0  0  0
  8  9  2  0  0  0
  9 10  1  0  0  0
 18 13  1  0  0  0
  9  1  1  0  0  0
  7  3  2  0  0  0
 21 22  1  0  0  0
  4 11  1  0  0  0
M  END
> <minimizedAffinity>
-6.51290

> <CNNscore>
0.3197213709

> <CNNaffinity>
6.0560379028

> <CNN_VS>
1.9362447262

> <CNNaffinity_variance>
0.1541214436

$$$$
[H]OC([H])([H])C([H])([H])N1C([H])([H])C([H])([H])N(c2c(Cl)c([H])c3nc(SC(C([H])([H])[H])(C([H])([H])[H])C([H])([H])[H])n([H])c3c2[H])[C@]([H])(C([H])([H])[H])C1([H])[H]


 27 29  0  0  0  0  0  0  0  0999 V2000
    3.9191    2.2084   18.0500 C   0  0  0  0  0  0  0  0  0  0  0  0
    4.2001    3.0641   16.9706 C   0  0  0  0  0  0  0  0  0  0  0  0
    3.7177    2.8348   15.7047 C   0  0  0  0  0  0  0  0  0  0  0  0
    3.8692    3.5208   14.5570 N   0  0  0  0  0  0  0  0  0  0  0  0
    3.1784    2.8441   13.6224 C   0  0  0  0  0  0  0  0  0  0  0  0
    2.6087    1.7603   14.1737 N   0  0  0  0  0  0  0  0  0  0  0  0
    2.9160    1.7088   15.4767 C   0  0  0  0  0  0  0  0  0  0  0  0
    2.6308    0.8590   16.5249 C   0  0  0  0  0  0  0  0  0  0  0  0
    3.1281    1.1057   17.8012 C   0  0  0  0  0  0  0  0  0  0  0  0
    2.7253   -0.0523   19.0553 Cl  0  0  0  0  0  0  0  0  0  0  0  0
    4.4236    4.4014   14.4583 H   0  0  0  0  0  0  0  0  0  0  0  0
    5.6609    0.4467   19.9168 C   0  0  0  0  0  0  0  0  0  0  0  0
    5.4488    1.8900   20.0695 C   0  0  0  0  0  0  0  0  0  0  0  0
    5.0950    2.0910   21.5489 C   0  0  0  0  0  0  0  0  0  0  0  0
    5.4822    3.4194   21.9195 N   0  0  0  0  0  0  0  0  0  0  0  0
    5.0262    4.3103   20.9200 C   0  0  0  0  0  0  0  0  0  0  0  0
    3.9178    3.6769   20.0382 C   0  0  0  0  0  0  0  0  0  0  0  0
    4.4182    2.5265   19.3184 N   0  0  0  0  0  0  0  0  0  0  0  0
    5.0543    3.6562   23.2577 C   0  0  0  0  0  0  0  0  0  0  0  0
    4.7080    2.4538   24.0655 C   0  0  0  0  0  0  0  0  0  0  0  0
    5.8139    2.1628   24.8890 O   0  0  0  0  0  0  0  0  0  0  0  0
    6.4761    2.8883   24.8922 H   0  0  0  0  0  0  0  0  0  0  0  0
    3.0612    3.3449   11.9156 S   0  0  0  0  0  0  0  0  0  0  0  0
    1.9200    4.7644   11.8482 C   0  0  0  0  0  0  0  0  0  0  0  0
    1.3154    4.7945   10.4674 C   0  0  0  0  0  0  0  0  0  0  0  0
    0.7903    4.5252   12.8310 C   0  0  0  0  0  0  0  0  0  0  0  0
    2.7038    5.9970   12.1815 C   0  0  0  0  0  0  0  0  0  0  0  0
 12 13  1  0  0  0
 13 14  1  0  0  0
 14 15  1  0  0  0
 15 19  1  0  0  0
 19 20  1  0  0  0
 20 21  1  0  0  0
 15 16  1  0  0  0
 16 17  1  0  0  0
 17 18  1  0  0  0
 18  1  1  0  0  0
  1  2  2  0  0  0
  2  3  1  0  0  0
  3  4  1  0  0  0
  4  5  1  0  0  0
  5 23  1  0  0  0
 23 24  1  0  0  0
 24 25  1  0  0  0
 24 26  1  0  0  0
 24 27  1  0  0  0
  5  6  2  0  0  0
  6  7  1  0  0  0
  7  8  1  0  0  0
  8  9  2  0  0  0
  9 10  1  0  0  0
 18 13  1  0  0  0
  9  1  1  0  0  0
  7  3  2  0  0  0
 21 22  1  0  0  0
  4 11  1  0  0  0
M  END
> <minimizedAffinity>
-5.81766

> <CNNscore>
0.2975946367

> <CNNaffinity>
6.4946694374

> <CNN_VS>
1.9327788353

> <CNNaffinity_variance>
0.1779561043

$$$$
[H]OC([H])([H])C([H])([H])N1C([H])([H])C([H])([H])N(c2c(Cl)c([H])c3nc(SC(C([H])([H])[H])(C([H])([H])[H])C([H])([H])[H])n([H])c3c2[H])[C@]([H])(C([H])([H])[H])C1([H])[H]


 27 29  0  0  0  0  0  0  0  0999 V2000
    5.5343    5.3144   20.6823 C   0  0  0  0  0  0  0  0  0  0  0  0
    5.5804    5.2248   19.2803 C   0  0  0  0  0  0  0  0  0  0  0  0
    4.9478    4.2223   18.5856 C   0  0  0  0  0  0  0  0  0  0  0  0
    4.8723    3.9640   17.2671 N   0  0  0  0  0  0  0  0  0  0  0  0
    4.1221    2.8546   17.1453 C   0  0  0  0  0  0  0  0  0  0  0  0
    3.7379    2.4296   18.3598 N   0  0  0  0  0  0  0  0  0  0  0  0
    4.2290    3.2522   19.2962 C   0  0  0  0  0  0  0  0  0  0  0  0
    4.1737    3.3256   20.6724 C   0  0  0  0  0  0  0  0  0  0  0  0
    4.8210    4.3477   21.3606 C   0  0  0  0  0  0  0  0  0  0  0  0
    4.7071    4.3318   23.1107 Cl  0  0  0  0  0  0  0  0  0  0  0  0
    5.3239    4.5397   16.5207 H   0  0  0  0  0  0  0  0  0  0  0  0
    8.1456    5.2579   22.3557 C   0  0  0  0  0  0  0  0  0  0  0  0
    7.5033    6.4668   21.8289 C   0  0  0  0  0  0  0  0  0  0  0  0
    7.4532    7.4441   23.0107 C   0  0  0  0  0  0  0  0  0  0  0  0
    7.4472    8.7758   22.4831 N   0  0  0  0  0  0  0  0  0  0  0  0
    6.5020    8.8332   21.4324 C   0  0  0  0  0  0  0  0  0  0  0  0
    5.4985    7.6511   21.4877 C   0  0  0  0  0  0  0  0  0  0  0  0
    6.1756    6.3843   21.3173 N   0  0  0  0  0  0  0  0  0  0  0  0
    7.2848    9.6880   23.5655 C   0  0  0  0  0  0  0  0  0  0  0  0
    7.5434    9.1503   24.9301 C   0  0  0  0  0  0  0  0  0  0  0  0
    6.3504    9.2769   25.6694 O   0  0  0  0  0  0  0  0  0  0  0  0
    5.5838    9.5098   25.1011 H   0  0  0  0  0  0  0  0  0  0  0  0
    3.7200    2.0924   15.5848 S   0  0  0  0  0  0  0  0  0  0  0  0
    2.8225    3.3323   14.5955 C   0  0  0  0  0  0  0  0  0  0  0  0
    3.8201    3.9827   13.6709 C   0  0  0  0  0  0  0  0  0  0  0  0
    1.8038    2.6167   13.7297 C   0  0  0  0  0  0  0  0  0  0  0  0
    2.1766    4.2943   15.5453 C   0  0  0  0  0  0  0  0  0  0  0  0
 12 13  1  0  0  0
 13 14  1  0  0  0
 14 15  1  0  0  0
 15 19  1  0  0  0
 19 20  1  0  0  0
 20 21  1  0  0  0
 15 16  1  0  0  0
 16 17  1  0  0  0
 17 18  1  0  0  0
 18  1  1  0  0  0
  1  2  2  0  0  0
  2  3  1  0  0  0
  3  4  1  0  0  0
  4  5  1  0  0  0
  5 23  1  0  0  0
 23 24  1  0  0  0
 24 25  1  0  0  0
 24 26  1  0  0  0
 24 27  1  0  0  0
  5  6  2  0  0  0
  6  7  1  0  0  0
  7  8  1  0  0  0
  8  9  2  0  0  0
  9 10  1  0  0  0
 18 13  1  0  0  0
  9  1  1  0  0  0
  7  3  2  0  0  0
 21 22  1  0  0  0
  4 11  1  0  0  0
M  END
> <minimizedAffinity>
-7.10469

> <CNNscore>
0.2825703025

> <CNNaffinity>
6.0201416016

> <CNN_VS>
1.7011132240

> <CNNaffinity_variance>
0.1805912852

$$$$
[H]OC([H])([H])C([H])([H])N1C([H])([H])C([H])([H])N(c2c(Cl)c([H])c3nc(SC(C([H])([H])[H])(C([H])([H])[H])C([H])([H])[H])n([H])c3c2[H])[C@]([H])(C([H])([H])[H])C1([H])[H]


 27 29  0  0  0  0  0  0  0  0999 V2000
    4.1639    4.8218   16.5201 C   0  0  0  0  0  0  0  0  0  0  0  0
    4.5449    5.1772   17.8257 C   0  0  0  0  0  0  0  0  0  0  0  0
    4.8711    4.2417   18.7776 C   0  0  0  0  0  0  0  0  0  0  0  0
    5.2542    4.3741   20.0608 N   0  0  0  0  0  0  0  0  0  0  0  0
    5.4456    3.1266   20.5250 C   0  0  0  0  0  0  0  0  0  0  0  0
    5.1878    2.2354   19.5542 N   0  0  0  0  0  0  0  0  0  0  0  0
    4.8239    2.8830   18.4393 C   0  0  0  0  0  0  0  0  0  0  0  0
    4.4519    2.5173   17.1625 C   0  0  0  0  0  0  0  0  0  0  0  0
    4.1241    3.4780   16.2103 C   0  0  0  0  0  0  0  0  0  0  0  0
    3.6405    2.9025   14.6257 Cl  0  0  0  0  0  0  0  0  0  0  0  0
    5.3674    5.2869   20.5573 H   0  0  0  0  0  0  0  0  0  0  0  0
    5.2712    7.7187   16.4520 C   0  0  0  0  0  0  0  0  0  0  0  0
    4.5740    7.0523   15.3468 C   0  0  0  0  0  0  0  0  0  0  0  0
    3.5226    8.0614   14.8669 C   0  0  0  0  0  0  0  0  0  0  0  0
    3.2533    7.7957   13.4853 N   0  0  0  0  0  0  0  0  0  0  0  0
    3.0699    6.4019   13.3284 C   0  0  0  0  0  0  0  0  0  0  0  0
    2.7682    5.6995   14.6785 C   0  0  0  0  0  0  0  0  0  0  0  0
    3.8791    5.8331   15.5952 N   0  0  0  0  0  0  0  0  0  0  0  0
    2.1959    8.6509   13.0602 C   0  0  0  0  0  0  0  0  0  0  0  0
    1.3524    8.1543   11.9377 C   0  0  0  0  0  0  0  0  0  0  0  0
    1.9203    8.6278   10.7381 O   0  0  0  0  0  0  0  0  0  0  0  0
    2.8142    9.0111   10.8759 H   0  0  0  0  0  0  0  0  0  0  0  0
    5.9648    2.7535   22.1890 S   0  0  0  0  0  0  0  0  0  0  0  0
    4.4560    2.5170   23.1836 C   0  0  0  0  0  0  0  0  0  0  0  0
    3.8245    3.8722   23.3780 C   0  0  0  0  0  0  0  0  0  0  0  0
    3.4788    1.6730   22.3887 C   0  0  0  0  0  0  0  0  0  0  0  0
    4.8542    1.8565   24.4680 C   0  0  0  0  0  0  0  0  0  0  0  0
 12 13  1  0  0  0
 13 14  1  0  0  0
 14 15  1  0  0  0
 15 19  1  0  0  0
 19 20  1  0  0  0
 20 21  1  0  0  0
 15 16  1  0  0  0
 16 17  1  0  0  0
 17 18  1  0  0  0
 18  1  1  0  0  0
  1  2  2  0  0  0
  2  3  1  0  0  0
  3  4  1  0  0  0
  4  5  1  0  0  0
  5 23  1  0  0  0
 23 24  1  0  0  0
 24 25  1  0  0  0
 24 26  1  0  0  0
 24 27  1  0  0  0
  5  6  2  0  0  0
  6  7  1  0  0  0
  7  8  1  0  0  0
  8  9  2  0  0  0
  9 10  1  0  0  0
 18 13  1  0  0  0
  9  1  1  0  0  0
  7  3  2  0  0  0
 21 22  1  0  0  0
  4 11  1  0  0  0
M  END
> <minimizedAffinity>
-6.74957

> <CNNscore>
0.2570056617

> <CNNaffinity>
5.9949183464

> <CNN_VS>
1.5407279730

> <CNNaffinity_variance>
0.0962015539

$$$$
[H]OC([H])([H])C([H])([H])N1C([H])([H])C([H])([H])N(c2c(Cl)c([H])c3nc(SC(C([H])([H])[H])(C([H])([H])[H])C([H])([H])[H])n([H])c3c2[H])[C@]([H])(C([H])([H])[H])C1([H])[H]


 27 29  0  0  0  0  0  0  0  0999 V2000
    3.8699    2.5208   17.4011 C   0  0  0  0  0  0  0  0  0  0  0  0
    4.3129    3.5566   16.5603 C   0  0  0  0  0  0  0  0  0  0  0  0
    3.9950    3.6073   15.2246 C   0  0  0  0  0  0  0  0  0  0  0  0
    4.3142    4.4973   14.2671 N   0  0  0  0  0  0  0  0  0  0  0  0
    3.7343    4.0555   13.1370 C   0  0  0  0  0  0  0  0  0  0  0  0
    3.0683    2.9158   13.3830 N   0  0  0  0  0  0  0  0  0  0  0  0
    3.2003    2.5921   14.6763 C   0  0  0  0  0  0  0  0  0  0  0  0
    2.7573    1.5684   15.4875 C   0  0  0  0  0  0  0  0  0  0  0  0
    3.0891    1.5320   16.8387 C   0  0  0  0  0  0  0  0  0  0  0  0
    2.4943    0.1722   17.7730 Cl  0  0  0  0  0  0  0  0  0  0  0  0
    4.9002    5.3496   14.4178 H   0  0  0  0  0  0  0  0  0  0  0  0
    3.8068    4.9531   19.3252 C   0  0  0  0  0  0  0  0  0  0  0  0
    3.9127    3.5495   19.7377 C   0  0  0  0  0  0  0  0  0  0  0  0
    5.0632    3.5133   20.7522 C   0  0  0  0  0  0  0  0  0  0  0  0
    4.8390    2.4082   21.6355 N   0  0  0  0  0  0  0  0  0  0  0  0
    4.5015    1.2773   20.8558 C   0  0  0  0  0  0  0  0  0  0  0  0
    4.9135    1.4515   19.3701 C   0  0  0  0  0  0  0  0  0  0  0  0
    4.2064    2.5557   18.7592 N   0  0  0  0  0  0  0  0  0  0  0  0
    5.9591    2.2955   22.5089 C   0  0  0  0  0  0  0  0  0  0  0  0
    5.6589    2.2220   23.9659 C   0  0  0  0  0  0  0  0  0  0  0  0
    4.3835    2.7872   24.1655 O   0  0  0  0  0  0  0  0  0  0  0  0
    3.9055    2.9340   23.3201 H   0  0  0  0  0  0  0  0  0  0  0  0
    3.8557    4.8886   11.5657 S   0  0  0  0  0  0  0  0  0  0  0  0
    2.8619    6.4117   11.6858 C   0  0  0  0  0  0  0  0  0  0  0  0
    3.7313    7.4716   12.3135 C   0  0  0  0  0  0  0  0  0  0  0  0
    2.5202    6.8792   10.2844 C   0  0  0  0  0  0  0  0  0  0  0  0
    1.6365    6.0958   12.4877 C   0  0  0  0  0  0  0  0  0  0  0  0
 12 13  1  0  0  0
 13 14  1  0  0  0
 14 15  1  0  0  0
 15 19  1  0  0  0
 19 20  1  0  0  0
 20 21  1  0  0  0
 15 16  1  0  0  0
 16 17  1  0  0  0
 17 18  1  0  0  0
 18  1  1  0  0  0
  1  2  2  0  0  0
  2  3  1  0  0  0
  3  4  1  0  0  0
  4  5  1  0  0  0
  5 23  1  0  0  0
 23 24  1  0  0  0
 24 25  1  0  0  0
 24 26  1  0  0  0
 24 27  1  0  0  0
  5  6  2  0  0  0
  6  7  1  0  0  0
  7  8  1  0  0  0
  8  9  2  0  0  0
  9 10  1  0  0  0
 18 13  1  0  0  0
  9  1  1  0  0  0
  7  3  2  0  0  0
 21 22  1  0  0  0
  4 11  1  0  0  0
M  END
> <minimizedAffinity>
-6.90186

> <CNNscore>
0.2559120357

> <CNNaffinity>
6.1254816055

> <CNN_VS>
1.5675845146

> <CNNaffinity_variance>
0.2980773151

$$$$
[H]c1nc(N([H])S(=O)(=O)c2c([H])c(Cl)c(N(C([H])([H])[H])[C@]3([H])C([H])([H])N(C([H])([H])c4c([H])c([H])c(Cl)c([H])c4[H])C([H])([H])C3([H])[H])c([H])c2F)c([H])s1


 33 36  0  0  0  0  0  0  0  0999 V2000
    5.1277    6.5830   21.5282 C   0  0  0  0  0  0  0  0  0  0  0  0
    4.0995    5.9367   22.1802 C   0  0  0  0  0  0  0  0  0  0  0  0
    4.1978    4.6153   22.5527 C   0  0  0  0  0  0  0  0  0  0  0  0
    3.1705    3.9862   23.1990 F   0  0  0  0  0  0  0  0  0  0  0  0
    5.3444    3.8601   22.2896 C   0  0  0  0  0  0  0  0  0  0  0  0
    6.3658    4.5140   21.6387 C   0  0  0  0  0  0  0  0  0  0  0  0
    6.2590    5.8379   21.2688 C   0  0  0  0  0  0  0  0  0  0  0  0
    7.5963    6.6422   20.4321 Cl  0  0  0  0  0  0  0  0  0  0  0  0
    5.4291    2.1904   22.8068 S   0  0  0  0  0  0  0  0  0  0  0  0
    5.6022    2.2261   24.3143 O   0  0  0  0  0  0  0  0  0  0  0  0
    6.6252    1.4967   22.2489 O   0  0  0  0  0  0  0  0  0  0  0  0
    4.0051    1.3049   22.4890 N   0  0  0  0  0  0  0  0  0  0  0  0
    3.3963    1.0744   23.3023 H   0  0  0  0  0  0  0  0  0  0  0  0
    3.6256    0.8724   21.1494 C   0  0  0  0  0  0  0  0  0  0  0  0
    2.8017   -0.2146   20.9635 C   0  0  0  0  0  0  0  0  0  0  0  0
    2.6888   -0.2723   19.2617 S   0  0  0  0  0  0  0  0  0  0  0  0
    3.6794    1.0669   18.8910 C   0  0  0  0  0  0  0  0  0  0  0  0
    4.0436    1.4868   20.0892 N   0  0  0  0  0  0  0  0  0  0  0  0
    5.6145    8.9727   21.9848 C   0  0  0  0  0  0  0  0  0  0  0  0
    5.0580    7.9405   21.1314 N   0  0  0  0  0  0  0  0  0  0  0  0
    4.4495    8.3307   19.9024 C   0  0  0  0  0  0  0  0  0  0  0  0
    5.3369    9.1946   19.0299 C   0  0  0  0  0  0  0  0  0  0  0  0
    4.6237    9.0569   17.6891 C   0  0  0  0  0  0  0  0  0  0  0  0
    4.1894    7.6973   17.6396 N   0  0  0  0  0  0  0  0  0  0  0  0
    4.2235    7.1415   18.9578 C   0  0  0  0  0  0  0  0  0  0  0  0
    4.9522    6.9795   16.6629 C   0  0  0  0  0  0  0  0  0  0  0  0
    4.2556    5.7108   16.3393 C   0  0  0  0  0  0  0  0  0  0  0  0
    4.9124    4.4921   16.5388 C   0  0  0  0  0  0  0  0  0  0  0  0
    4.3184    3.2799   16.2637 C   0  0  0  0  0  0  0  0  0  0  0  0
    3.0336    3.2400   15.7744 C   0  0  0  0  0  0  0  0  0  0  0  0
    2.3005    1.6891   15.4325 Cl  0  0  0  0  0  0  0  0  0  0  0  0
    2.3573    4.4123   15.5655 C   0  0  0  0  0  0  0  0  0  0  0  0
    2.9756    5.6254   15.8500 C   0  0  0  0  0  0  0  0  0  0  0  0
 19 20  1  0  0  0
 20  1  1  0  0  0
  1  2  2  0  0  0
  2  3  1  0  0  0
  3  4  1  0  0  0
  3  5  2  0  0  0
  5  9  1  0  0  0
  9 10  2  0  0  0
  9 11  2  0  0  0
  9 12  1  0  0  0
 12 14  1  0  0  0
 14 15  2  0  0  0
 15 16  1  0  0  0
 16 17  1  0  0  0
 17 18  2  0  0  0
  5  6  1  0  0  0
  6  7  2  0  0  0
  7  8  1  0  0  0
 20 21  1  0  0  0
 21 22  1  0  0  0
 22 23  1  0  0  0
 23 24  1  0  0  0
 24 26  1  0  0  0
 26 27  1  0  0  0
 27 28  2  0  0  0
 28 29  1  0  0  0
 29 30  2  0  0  0
 30 31  1  0  0  0
 30 32  1  0  0  0
 32 33  2  0  0  0
 24 25  1  0  0  0
  7  1  1  0  0  0
 25 21  1  0  0  0
 18 14  1  0  0  0
 33 27  1  0  0  0
 12 13  1  0  0  0
M  END
> <minimizedAffinity>
-8.42070

> <CNNscore>
0.6458151340

> <CNNaffinity>
7.4545488358

> <CNN_VS>
4.8142604828

> <CNNaffinity_variance>
0.0402351916

$$$$
[H]c1nc(N([H])S(=O)(=O)c2c([H])c(Cl)c(N(C([H])([H])[H])[C@]3([H])C([H])([H])N(C([H])([H])c4c([H])c([H])c(Cl)c([H])c4[H])C([H])([H])C3([H])[H])c([H])c2F)c([H])s1


 33 36  0  0  0  0  0  0  0  0999 V2000
    4.6939    7.0546   18.5728 C   0  0  0  0  0  0  0  0  0  0  0  0
    3.6122    6.2002   18.5712 C   0  0  0  0  0  0  0  0  0  0  0  0
    3.0886    5.6997   17.4008 C   0  0  0  0  0  0  0  0  0  0  0  0
    2.0153    4.8530   17.4134 F   0  0  0  0  0  0  0  0  0  0  0  0
    3.6259    6.0310   16.1536 C   0  0  0  0  0  0  0  0  0  0  0  0
    4.7060    6.8841   16.1651 C   0  0  0  0  0  0  0  0  0  0  0  0
    5.2241    7.3813   17.3421 C   0  0  0  0  0  0  0  0  0  0  0  0
    6.6146    8.4772   17.3134 Cl  0  0  0  0  0  0  0  0  0  0  0  0
    2.9392    5.3473   14.6963 S   0  0  0  0  0  0  0  0  0  0  0  0
    3.4430    6.2069   13.5514 O   0  0  0  0  0  0  0  0  0  0  0  0
    1.4512    5.4409   14.6872 O   0  0  0  0  0  0  0  0  0  0  0  0
    3.4533    3.7499   14.3845 N   0  0  0  0  0  0  0  0  0  0  0  0
    3.8507    3.5532   13.4419 H   0  0  0  0  0  0  0  0  0  0  0  0
    3.3549    2.6811   15.3711 C   0  0  0  0  0  0  0  0  0  0  0  0
    2.3554    1.7376   15.2952 C   0  0  0  0  0  0  0  0  0  0  0  0
    2.7025    0.7604   16.6505 S   0  0  0  0  0  0  0  0  0  0  0  0
    4.0757    1.5942   17.2260 C   0  0  0  0  0  0  0  0  0  0  0  0
    4.1954    2.5758   16.3503 N   0  0  0  0  0  0  0  0  0  0  0  0
    4.7556    8.8370   20.2977 C   0  0  0  0  0  0  0  0  0  0  0  0
    5.2557    7.5869   19.7585 N   0  0  0  0  0  0  0  0  0  0  0  0
    6.3123    6.9240   20.4493 C   0  0  0  0  0  0  0  0  0  0  0  0
    6.5733    7.4739   21.8366 C   0  0  0  0  0  0  0  0  0  0  0  0
    7.3802    6.3291   22.4398 C   0  0  0  0  0  0  0  0  0  0  0  0
    6.7723    5.1409   21.9318 N   0  0  0  0  0  0  0  0  0  0  0  0
    5.9610    5.4711   20.8002 C   0  0  0  0  0  0  0  0  0  0  0  0
    6.0857    4.4578   22.9868 C   0  0  0  0  0  0  0  0  0  0  0  0
    5.5404    3.1814   22.4647 C   0  0  0  0  0  0  0  0  0  0  0  0
    4.1858    2.8835   22.6462 C   0  0  0  0  0  0  0  0  0  0  0  0
    3.6174    1.7183   22.1801 C   0  0  0  0  0  0  0  0  0  0  0  0
    4.3889    0.7987   21.5086 C   0  0  0  0  0  0  0  0  0  0  0  0
    3.6449   -0.6734   20.9261 Cl  0  0  0  0  0  0  0  0  0  0  0  0
    5.7196    1.0541   21.3108 C   0  0  0  0  0  0  0  0  0  0  0  0
    6.2735    2.2368   21.7897 C   0  0  0  0  0  0  0  0  0  0  0  0
 19 20  1  0  0  0
 20  1  1  0  0  0
  1  2  2  0  0  0
  2  3  1  0  0  0
  3  4  1  0  0  0
  3  5  2  0  0  0
  5  9  1  0  0  0
  9 10  2  0  0  0
  9 11  2  0  0  0
  9 12  1  0  0  0
 12 14  1  0  0  0
 14 15  2  0  0  0
 15 16  1  0  0  0
 16 17  1  0  0  0
 17 18  2  0  0  0
  5  6  1  0  0  0
  6  7  2  0  0  0
  7  8  1  0  0  0
 20 21  1  0  0  0
 21 22  1  0  0  0
 22 23  1  0  0  0
 23 24  1  0  0  0
 24 26  1  0  0  0
 26 27  1  0  0  0
 27 28  2  0  0  0
 28 29  1  0  0  0
 29 30  2  0  0  0
 30 31  1  0  0  0
 30 32  1  0  0  0
 32 33  2  0  0  0
 24 25  1  0  0  0
  7  1  1  0  0  0
 25 21  1  0  0  0
 18 14  1  0  0  0
 33 27  1  0  0  0
 12 13  1  0  0  0
M  END
> <minimizedAffinity>
-7.97266

> <CNNscore>
0.3873423040

> <CNNaffinity>
7.1198930740

> <CNN_VS>
2.7578358650

> <CNNaffinity_variance>
0.1410637796

$$$$
[H]c1nc(N([H])S(=O)(=O)c2c([H])c(Cl)c(N(C([H])([H])[H])[C@]3([H])C([H])([H])N(C([H])([H])c4c([H])c([H])c(Cl)c([H])c4[H])C([H])([H])C3([H])[H])c([H])c2F)c([H])s1


 33 36  0  0  0  0  0  0  0  0999 V2000
    5.1552    5.5605   19.0707 C   0  0  0  0  0  0  0  0  0  0  0  0
    5.3875    4.3730   18.4103 C   0  0  0  0  0  0  0  0  0  0  0  0
    4.7747    4.0801   17.2132 C   0  0  0  0  0  0  0  0  0  0  0  0
    5.0140    2.8985   16.5686 F   0  0  0  0  0  0  0  0  0  0  0  0
    3.8854    4.9707   16.6047 C   0  0  0  0  0  0  0  0  0  0  0  0
    3.6601    6.1538   17.2710 C   0  0  0  0  0  0  0  0  0  0  0  0
    4.2779    6.4392   18.4701 C   0  0  0  0  0  0  0  0  0  0  0  0
    3.9601    7.9730   19.2958 Cl  0  0  0  0  0  0  0  0  0  0  0  0
    3.1521    4.5615   15.0694 S   0  0  0  0  0  0  0  0  0  0  0  0
    1.9106    5.4269   14.9532 O   0  0  0  0  0  0  0  0  0  0  0  0
    2.6968    3.1422   15.0326 O   0  0  0  0  0  0  0  0  0  0  0  0
    4.1391    4.9221   13.7244 N   0  0  0  0  0  0  0  0  0  0  0  0
    4.9814    5.5103   13.8962 H   0  0  0  0  0  0  0  0  0  0  0  0
    3.8461    4.4448   12.3783 C   0  0  0  0  0  0  0  0  0  0  0  0
    4.8394    4.3464   11.4304 C   0  0  0  0  0  0  0  0  0  0  0  0
    3.9721    3.7555   10.0848 S   0  0  0  0  0  0  0  0  0  0  0  0
    2.4221    3.6692   10.7935 C   0  0  0  0  0  0  0  0  0  0  0  0
    2.6509    4.0970   12.0219 N   0  0  0  0  0  0  0  0  0  0  0  0
    7.0224    6.6214   20.3134 C   0  0  0  0  0  0  0  0  0  0  0  0
    5.7690    5.8917   20.3029 N   0  0  0  0  0  0  0  0  0  0  0  0
    5.1860    5.5257   21.5517 C   0  0  0  0  0  0  0  0  0  0  0  0
    3.9551    4.6527   21.4175 C   0  0  0  0  0  0  0  0  0  0  0  0
    3.8587    4.0924   22.8324 C   0  0  0  0  0  0  0  0  0  0  0  0
    5.2105    3.8626   23.2316 N   0  0  0  0  0  0  0  0  0  0  0  0
    6.0892    4.5894   22.3671 C   0  0  0  0  0  0  0  0  0  0  0  0
    5.4630    2.4546   23.3021 C   0  0  0  0  0  0  0  0  0  0  0  0
    4.7876    1.7827   22.1655 C   0  0  0  0  0  0  0  0  0  0  0  0
    3.5588    1.1466   22.3707 C   0  0  0  0  0  0  0  0  0  0  0  0
    2.8786    0.5104   21.3555 C   0  0  0  0  0  0  0  0  0  0  0  0
    3.4059    0.4859   20.0855 C   0  0  0  0  0  0  0  0  0  0  0  0
    2.5239   -0.3280   18.8129 Cl  0  0  0  0  0  0  0  0  0  0  0  0
    4.6072    1.0976   19.8446 C   0  0  0  0  0  0  0  0  0  0  0  0
    5.2775    1.7344   20.8838 C   0  0  0  0  0  0  0  0  0  0  0  0
 19 20  1  0  0  0
 20  1  1  0  0  0
  1  2  2  0  0  0
  2  3  1  0  0  0
  3  4  1  0  0  0
  3  5  2  0  0  0
  5  9  1  0  0  0
  9 10  2  0  0  0
  9 11  2  0  0  0
  9 12  1  0  0  0
 12 14  1  0  0  0
 14 15  2  0  0  0
 15 16  1  0  0  0
 16 17  1  0  0  0
 17 18  2  0  0  0
  5  6  1  0  0  0
  6  7  2  0  0  0
  7  8  1  0  0  0
 20 21  1  0  0  0
 21 22  1  0  0  0
 22 23  1  0  0  0
 23 24  1  0  0  0
 24 26  1  0  0  0
 26 27  1  0  0  0
 27 28  2  0  0  0
 28 29  1  0  0  0
 29 30  2  0  0  0
 30 31  1  0  0  0
 30 32  1  0  0  0
 32 33  2  0  0  0
 24 25  1  0  0  0
  7  1  1  0  0  0
 25 21  1  0  0  0
 18 14  1  0  0  0
 33 27  1  0  0  0
 12 13  1  0  0  0
M  END
> <minimizedAffinity>
-8.13515

> <CNNscore>
0.3271703124

> <CNNaffinity>
7.0269546509

> <CNN_VS>
2.2990109921

> <CNNaffinity_variance>
0.1896936446

$$$$
[H]c1nc(N([H])S(=O)(=O)c2c([H])c(Cl)c(N(C([H])([H])[H])[C@]3([H])C([H])([H])N(C([H])([H])c4c([H])c([H])c(Cl)c([H])c4[H])C([H])([H])C3([H])[H])c([H])c2F)c([H])s1


 33 36  0  0  0  0  0  0  0  0999 V2000
    4.0312    5.5330   18.2509 C   0  0  0  0  0  0  0  0  0  0  0  0
    3.2589    5.7013   19.3802 C   0  0  0  0  0  0  0  0  0  0  0  0
    3.6868    5.2775   20.6179 C   0  0  0  0  0  0  0  0  0  0  0  0
    2.9108    5.4506   21.7300 F   0  0  0  0  0  0  0  0  0  0  0  0
    4.9259    4.6549   20.7944 C   0  0  0  0  0  0  0  0  0  0  0  0
    5.6902    4.4917   19.6614 C   0  0  0  0  0  0  0  0  0  0  0  0
    5.2539    4.9189   18.4253 C   0  0  0  0  0  0  0  0  0  0  0  0
    6.2677    4.6893   16.9918 Cl  0  0  0  0  0  0  0  0  0  0  0  0
    5.4343    4.1576   22.3934 S   0  0  0  0  0  0  0  0  0  0  0  0
    5.4239    2.6398   22.3841 O   0  0  0  0  0  0  0  0  0  0  0  0
    4.4685    4.5918   23.4429 O   0  0  0  0  0  0  0  0  0  0  0  0
    7.0229    4.6430   22.7857 N   0  0  0  0  0  0  0  0  0  0  0  0
    7.6196    3.9554   23.2918 H   0  0  0  0  0  0  0  0  0  0  0  0
    7.5553    5.9564   22.4434 C   0  0  0  0  0  0  0  0  0  0  0  0
    6.8349    7.1010   22.7000 C   0  0  0  0  0  0  0  0  0  0  0  0
    7.8916    8.3088   22.1196 S   0  0  0  0  0  0  0  0  0  0  0  0
    9.1673    7.3052   21.5927 C   0  0  0  0  0  0  0  0  0  0  0  0
    8.7167    6.0995   21.8891 N   0  0  0  0  0  0  0  0  0  0  0  0
    3.9781    7.2802   16.4900 C   0  0  0  0  0  0  0  0  0  0  0  0
    3.6201    5.9571   16.9641 N   0  0  0  0  0  0  0  0  0  0  0  0
    2.8544    5.1131   16.1070 C   0  0  0  0  0  0  0  0  0  0  0  0
    3.5538    4.7671   14.8084 C   0  0  0  0  0  0  0  0  0  0  0  0
    2.7296    3.5639   14.3633 C   0  0  0  0  0  0  0  0  0  0  0  0
    2.4398    2.8495   15.5655 N   0  0  0  0  0  0  0  0  0  0  0  0
    2.6636    3.7056   16.6900 C   0  0  0  0  0  0  0  0  0  0  0  0
    3.1738    1.6200   15.5883 C   0  0  0  0  0  0  0  0  0  0  0  0
    3.1890    1.0893   16.9731 C   0  0  0  0  0  0  0  0  0  0  0  0
    4.1327    1.5703   17.8867 C   0  0  0  0  0  0  0  0  0  0  0  0
    4.1949    1.1226   19.1881 C   0  0  0  0  0  0  0  0  0  0  0  0
    3.3079    0.1685   19.6293 C   0  0  0  0  0  0  0  0  0  0  0  0
    3.4064   -0.3844   21.2859 Cl  0  0  0  0  0  0  0  0  0  0  0  0
    2.3689   -0.3273   18.7646 C   0  0  0  0  0  0  0  0  0  0  0  0
    2.3234    0.1385   17.4547 C   0  0  0  0  0  0  0  0  0  0  0  0
 19 20  1  0  0  0
 20  1  1  0  0  0
  1  2  2  0  0  0
  2  3  1  0  0  0
  3  4  1  0  0  0
  3  5  2  0  0  0
  5  9  1  0  0  0
  9 10  2  0  0  0
  9 11  2  0  0  0
  9 12  1  0  0  0
 12 14  1  0  0  0
 14 15  2  0  0  0
 15 16  1  0  0  0
 16 17  1  0  0  0
 17 18  2  0  0  0
  5  6  1  0  0  0
  6  7  2  0  0  0
  7  8  1  0  0  0
 20 21  1  0  0  0
 21 22  1  0  0  0
 22 23  1  0  0  0
 23 24  1  0  0  0
 24 26  1  0  0  0
 26 27  1  0  0  0
 27 28  2  0  0  0
 28 29  1  0  0  0
 29 30  2  0  0  0
 30 31  1  0  0  0
 30 32  1  0  0  0
 32 33  2  0  0  0
 24 25  1  0  0  0
  7  1  1  0  0  0
 25 21  1  0  0  0
 18 14  1  0  0  0
 33 27  1  0  0  0
 12 13  1  0  0  0
M  END
> <minimizedAffinity>
-8.34354

> <CNNscore>
0.3155373335

> <CNNaffinity>
7.0041556358

> <CNN_VS>
2.2100725174

> <CNNaffinity_variance>
0.1895300001

$$$$
[H]c1nc(N([H])S(=O)(=O)c2c([H])c(Cl)c(N(C([H])([H])[H])[C@]3([H])C([H])([H])N(C([H])([H])c4c([H])c([H])c(Cl)c([H])c4[H])C([H])([H])C3([H])[H])c([H])c2F)c([H])s1


 33 36  0  0  0  0  0  0  0  0999 V2000
    5.0798    5.4781   18.9306 C   0  0  0  0  0  0  0  0  0  0  0  0
    5.3120    4.2850   18.2805 C   0  0  0  0  0  0  0  0  0  0  0  0
    4.6333    3.9436   17.1328 C   0  0  0  0  0  0  0  0  0  0  0  0
    4.8732    2.7569   16.4978 F   0  0  0  0  0  0  0  0  0  0  0  0
    3.6738    4.7880   16.5668 C   0  0  0  0  0  0  0  0  0  0  0  0
    3.4491    5.9771   17.2224 C   0  0  0  0  0  0  0  0  0  0  0  0
    4.1332    6.3113   18.3718 C   0  0  0  0  0  0  0  0  0  0  0  0
    3.8139    7.8512   19.1856 Cl  0  0  0  0  0  0  0  0  0  0  0  0
    2.8569    4.3184   15.0920 S   0  0  0  0  0  0  0  0  0  0  0  0
    2.2205    2.9700   15.3757 O   0  0  0  0  0  0  0  0  0  0  0  0
    3.8145    4.1184   13.9669 O   0  0  0  0  0  0  0  0  0  0  0  0
    1.5979    5.3794   14.6422 N   0  0  0  0  0  0  0  0  0  0  0  0
    0.6470    5.1751   15.0151 H   0  0  0  0  0  0  0  0  0  0  0  0
    1.8078    6.5320   13.7743 C   0  0  0  0  0  0  0  0  0  0  0  0
    1.3222    6.5458   12.4863 C   0  0  0  0  0  0  0  0  0  0  0  0
    1.8352    8.0800   11.9428 S   0  0  0  0  0  0  0  0  0  0  0  0
    2.6245    8.6065   13.3612 C   0  0  0  0  0  0  0  0  0  0  0  0
    2.4533    7.5804   14.1751 N   0  0  0  0  0  0  0  0  0  0  0  0
    6.9817    6.6360   20.0252 C   0  0  0  0  0  0  0  0  0  0  0  0
    5.7604    5.8587   20.1125 N   0  0  0  0  0  0  0  0  0  0  0  0
    5.2766    5.4971   21.4042 C   0  0  0  0  0  0  0  0  0  0  0  0
    4.0404    4.6220   21.3693 C   0  0  0  0  0  0  0  0  0  0  0  0
    4.0550    4.0674   22.7897 C   0  0  0  0  0  0  0  0  0  0  0  0
    5.4341    3.8409   23.0837 N   0  0  0  0  0  0  0  0  0  0  0  0
    6.2418    4.5652   22.1508 C   0  0  0  0  0  0  0  0  0  0  0  0
    5.6934    2.4335   23.1400 C   0  0  0  0  0  0  0  0  0  0  0  0
    4.8548    1.7444   22.1295 C   0  0  0  0  0  0  0  0  0  0  0  0
    5.2992    1.6583   20.8060 C   0  0  0  0  0  0  0  0  0  0  0  0
    4.5703    1.0266   19.8223 C   0  0  0  0  0  0  0  0  0  0  0  0
    3.3585    0.4519   20.1275 C   0  0  0  0  0  0  0  0  0  0  0  0
    2.4511   -0.3444   18.8617 Cl  0  0  0  0  0  0  0  0  0  0  0  0
    2.8892    0.5152   21.4124 C   0  0  0  0  0  0  0  0  0  0  0  0
    3.6412    1.1577   22.3904 C   0  0  0  0  0  0  0  0  0  0  0  0
 19 20  1  0  0  0
 20  1  1  0  0  0
  1  2  2  0  0  0
  2  3  1  0  0  0
  3  4  1  0  0  0
  3  5  2  0  0  0
  5  9  1  0  0  0
  9 10  2  0  0  0
  9 11  2  0  0  0
  9 12  1  0  0  0
 12 14  1  0  0  0
 14 15  2  0  0  0
 15 16  1  0  0  0
 16 17  1  0  0  0
 17 18  2  0  0  0
  5  6  1  0  0  0
  6  7  2  0  0  0
  7  8  1  0  0  0
 20 21  1  0  0  0
 21 22  1  0  0  0
 22 23  1  0  0  0
 23 24  1  0  0  0
 24 26  1  0  0  0
 26 27  1  0  0  0
 27 28  2  0  0  0
 28 29  1  0  0  0
 29 30  2  0  0  0
 30 31  1  0  0  0
 30 32  1  0  0  0
 32 33  2  0  0  0
 24 25  1  0  0  0
  7  1  1  0  0  0
 25 21  1  0  0  0
 18 14  1  0  0  0
 33 27  1  0  0  0
 12 13  1  0  0  0
M  END
> <minimizedAffinity>
-8.37798

> <CNNscore>
0.2102127224

> <CNNaffinity>
6.8070802689

> <CNN_VS>
1.4309349060

> <CNNaffinity_variance>
0.1963385940

$$$$
[H]c1nc(N([H])S(=O)(=O)c2c([H])c(Cl)c(N(C([H])([H])[H])[C@]3([H])C([H])([H])N(C([H])([H])c4c([H])c([H])c(Cl)c([H])c4[H])C([H])([H])C3([H])[H])c([H])c2F)c([H])s1


 33 36  0  0  0  0  0  0  0  0999 V2000
    6.2840    7.1806   18.0985 C   0  0  0  0  0  0  0  0  0  0  0  0
    6.6167    5.8928   17.7367 C   0  0  0  0  0  0  0  0  0  0  0  0
    5.6665    4.9951   17.3057 C   0  0  0  0  0  0  0  0  0  0  0  0
    6.0101    3.7206   16.9498 F   0  0  0  0  0  0  0  0  0  0  0  0
    4.3156    5.3419   17.2122 C   0  0  0  0  0  0  0  0  0  0  0  0
    3.9930    6.6299   17.5749 C   0  0  0  0  0  0  0  0  0  0  0  0
    4.9510    7.5228   18.0060 C   0  0  0  0  0  0  0  0  0  0  0  0
    4.4941    9.1710   18.4643 Cl  0  0  0  0  0  0  0  0  0  0  0  0
    3.1505    4.1712   16.6338 S   0  0  0  0  0  0  0  0  0  0  0  0
    1.7827    4.7672   16.9124 O   0  0  0  0  0  0  0  0  0  0  0  0
    3.2282    2.8898   17.3921 O   0  0  0  0  0  0  0  0  0  0  0  0
    3.2403    3.8930   14.9523 N   0  0  0  0  0  0  0  0  0  0  0  0
    3.5871    2.9612   14.6417 H   0  0  0  0  0  0  0  0  0  0  0  0
    2.8569    4.8939   13.9639 C   0  0  0  0  0  0  0  0  0  0  0  0
    1.6370    4.8309   13.3293 C   0  0  0  0  0  0  0  0  0  0  0  0
    1.7086    6.1992   12.3119 S   0  0  0  0  0  0  0  0  0  0  0  0
    3.2599    6.7630   12.7451 C   0  0  0  0  0  0  0  0  0  0  0  0
    3.6403    5.8742   13.6451 N   0  0  0  0  0  0  0  0  0  0  0  0
    7.7411    9.1338   17.6314 C   0  0  0  0  0  0  0  0  0  0  0  0
    7.2368    8.1275   18.5461 N   0  0  0  0  0  0  0  0  0  0  0  0
    7.7234    8.1235   19.8864 C   0  0  0  0  0  0  0  0  0  0  0  0
    6.9848    9.0743   20.8061 C   0  0  0  0  0  0  0  0  0  0  0  0
    7.4044    8.5250   22.1653 C   0  0  0  0  0  0  0  0  0  0  0  0
    7.4263    7.1067   21.9998 N   0  0  0  0  0  0  0  0  0  0  0  0
    7.4512    6.7936   20.6038 C   0  0  0  0  0  0  0  0  0  0  0  0
    6.3455    6.5162   22.7307 C   0  0  0  0  0  0  0  0  0  0  0  0
    5.9906    5.2176   22.1083 C   0  0  0  0  0  0  0  0  0  0  0  0
    4.9150    5.1503   21.2167 C   0  0  0  0  0  0  0  0  0  0  0  0
    4.5390    3.9765   20.6012 C   0  0  0  0  0  0  0  0  0  0  0  0
    5.2305    2.8152   20.8561 C   0  0  0  0  0  0  0  0  0  0  0  0
    4.7345    1.3373   20.0628 Cl  0  0  0  0  0  0  0  0  0  0  0  0
    6.2899    2.8405   21.7235 C   0  0  0  0  0  0  0  0  0  0  0  0
    6.6530    4.0363   22.3342 C   0  0  0  0  0  0  0  0  0  0  0  0
 19 20  1  0  0  0
 20  1  1  0  0  0
  1  2  2  0  0  0
  2  3  1  0  0  0
  3  4  1  0  0  0
  3  5  2  0  0  0
  5  9  1  0  0  0
  9 10  2  0  0  0
  9 11  2  0  0  0
  9 12  1  0  0  0
 12 14  1  0  0  0
 14 15  2  0  0  0
 15 16  1  0  0  0
 16 17  1  0  0  0
 17 18  2  0  0  0
  5  6  1  0  0  0
  6  7  2  0  0  0
  7  8  1  0  0  0
 20 21  1  0  0  0
 21 22  1  0  0  0
 22 23  1  0  0  0
 23 24  1  0  0  0
 24 26  1  0  0  0
 26 27  1  0  0  0
 27 28  2  0  0  0
 28 29  1  0  0  0
 29 30  2  0  0  0
 30 31  1  0  0  0
 30 32  1  0  0  0
 32 33  2  0  0  0
 24 25  1  0  0  0
  7  1  1  0  0  0
 25 21  1  0  0  0
 18 14  1  0  0  0
 33 27  1  0  0  0
 12 13  1  0  0  0
M  END
> <minimizedAffinity>
-7.43005

> <CNNscore>
0.2067354023

> <CNNaffinity>
6.2022738457

> <CNN_VS>
1.2822295427

> <CNNaffinity_variance>
0.4144704938

$$$$
[H]c1nc(N([H])S(=O)(=O)c2c([H])c(Cl)c(N(C([H])([H])[H])[C@]3([H])C([H])([H])N(C([H])([H])c4c([H])c([H])c(Cl)c([H])c4[H])C([H])([H])C3([H])[H])c([H])c2F)c([H])s1


 33 36  0  0  0  0  0  0  0  0999 V2000
    5.2130    8.6973   19.2434 C   0  0  0  0  0  0  0  0  0  0  0  0
    4.1375    9.5095   18.9543 C   0  0  0  0  0  0  0  0  0  0  0  0
    3.7439    9.7530   17.6580 C   0  0  0  0  0  0  0  0  0  0  0  0
    2.6752   10.5607   17.3851 F   0  0  0  0  0  0  0  0  0  0  0  0
    4.4134    9.1899   16.5678 C   0  0  0  0  0  0  0  0  0  0  0  0
    5.4856    8.3800   16.8662 C   0  0  0  0  0  0  0  0  0  0  0  0
    5.8734    8.1415   18.1676 C   0  0  0  0  0  0  0  0  0  0  0  0
    7.2593    7.0935   18.5088 Cl  0  0  0  0  0  0  0  0  0  0  0  0
    3.8573    9.5106   14.9397 S   0  0  0  0  0  0  0  0  0  0  0  0
    4.7797    8.7316   14.0199 O   0  0  0  0  0  0  0  0  0  0  0  0
    3.9987   10.9502   14.5785 O   0  0  0  0  0  0  0  0  0  0  0  0
    2.2706    8.9578   14.6397 N   0  0  0  0  0  0  0  0  0  0  0  0
    1.5141    9.3259   15.2540 H   0  0  0  0  0  0  0  0  0  0  0  0
    1.9509    8.0108   13.5783 C   0  0  0  0  0  0  0  0  0  0  0  0
    1.9076    6.6576   13.8266 C   0  0  0  0  0  0  0  0  0  0  0  0
    1.5010    6.0395   12.2888 S   0  0  0  0  0  0  0  0  0  0  0  0
    1.4111    7.5132   11.4331 C   0  0  0  0  0  0  0  0  0  0  0  0
    1.6969    8.3995   12.3697 N   0  0  0  0  0  0  0  0  0  0  0  0
    6.7243    9.2004   21.1458 C   0  0  0  0  0  0  0  0  0  0  0  0
    5.6434    8.4271   20.5650 N   0  0  0  0  0  0  0  0  0  0  0  0
    5.0395    7.4047   21.3545 C   0  0  0  0  0  0  0  0  0  0  0  0
    4.4345    6.2811   20.5380 C   0  0  0  0  0  0  0  0  0  0  0  0
    4.2999    5.2037   21.6087 C   0  0  0  0  0  0  0  0  0  0  0  0
    5.4704    5.3367   22.4159 N   0  0  0  0  0  0  0  0  0  0  0  0
    6.0689    6.6138   22.1745 C   0  0  0  0  0  0  0  0  0  0  0  0
    6.3360    4.2157   22.2040 C   0  0  0  0  0  0  0  0  0  0  0  0
    5.5133    3.0003   21.9912 C   0  0  0  0  0  0  0  0  0  0  0  0
    5.5550    2.3456   20.7558 C   0  0  0  0  0  0  0  0  0  0  0  0
    4.8198    1.2096   20.4973 C   0  0  0  0  0  0  0  0  0  0  0  0
    4.0078    0.6803   21.4731 C   0  0  0  0  0  0  0  0  0  0  0  0
    3.0838   -0.7628   21.1214 Cl  0  0  0  0  0  0  0  0  0  0  0  0
    3.9398    1.2926   22.6961 C   0  0  0  0  0  0  0  0  0  0  0  0
    4.6905    2.4387   22.9362 C   0  0  0  0  0  0  0  0  0  0  0  0
 19 20  1  0  0  0
 20  1  1  0  0  0
  1  2  2  0  0  0
  2  3  1  0  0  0
  3  4  1  0  0  0
  3  5  2  0  0  0
  5  9  1  0  0  0
  9 10  2  0  0  0
  9 11  2  0  0  0
  9 12  1  0  0  0
 12 14  1  0  0  0
 14 15  2  0  0  0
 15 16  1  0  0  0
 16 17  1  0  0  0
 17 18  2  0  0  0
  5  6  1  0  0  0
  6  7  2  0  0  0
  7  8  1  0  0  0
 20 21  1  0  0  0
 21 22  1  0  0  0
 22 23  1  0  0  0
 23 24  1  0  0  0
 24 26  1  0  0  0
 26 27  1  0  0  0
 27 28  2  0  0  0
 28 29  1  0  0  0
 29 30  2  0  0  0
 30 31  1  0  0  0
 30 32  1  0  0  0
 32 33  2  0  0  0
 24 25  1  0  0  0
  7  1  1  0  0  0
 25 21  1  0  0  0
 18 14  1  0  0  0
 33 27  1  0  0  0
 12 13  1  0  0  0
M  END
> <minimizedAffinity>
-8.35505

> <CNNscore>
0.1886395216

> <CNNaffinity>
6.4316802025

> <CNN_VS>
1.2132691145

> <CNNaffinity_variance>
0.1824211776

$$$$
[H]c1nc(N([H])S(=O)(=O)c2c([H])c(Cl)c(N(C([H])([H])[H])[C@]3([H])C([H])([H])N(C([H])([H])c4c([H])c([H])c(Cl)c([H])c4[H])C([H])([H])C3([H])[H])c([H])c2F)c([H])s1


 33 36  0  0  0  0  0  0  0  0999 V2000
    4.2423    4.7732   16.2174 C   0  0  0  0  0  0  0  0  0  0  0  0
    5.4317    4.7145   16.9115 C   0  0  0  0  0  0  0  0  0  0  0  0
    5.9919    5.8353   17.4810 C   0  0  0  0  0  0  0  0  0  0  0  0
    7.1723    5.7631   18.1670 F   0  0  0  0  0  0  0  0  0  0  0  0
    5.3846    7.0907   17.3856 C   0  0  0  0  0  0  0  0  0  0  0  0
    4.1972    7.1395   16.6912 C   0  0  0  0  0  0  0  0  0  0  0  0
    3.6430    6.0119   16.1235 C   0  0  0  0  0  0  0  0  0  0  0  0
    2.1136    6.1177   15.2373 Cl  0  0  0  0  0  0  0  0  0  0  0  0
    6.1250    8.4803   18.1494 S   0  0  0  0  0  0  0  0  0  0  0  0
    5.3945    9.6957   17.6083 O   0  0  0  0  0  0  0  0  0  0  0  0
    7.5577    8.6277   17.7640 O   0  0  0  0  0  0  0  0  0  0  0  0
    5.9428    8.5035   19.8463 N   0  0  0  0  0  0  0  0  0  0  0  0
    6.0257    9.4268   20.3215 H   0  0  0  0  0  0  0  0  0  0  0  0
    5.6823    7.3019   20.6299 C   0  0  0  0  0  0  0  0  0  0  0  0
    6.6780    6.7148   21.3773 C   0  0  0  0  0  0  0  0  0  0  0  0
    5.8530    5.3896   22.0669 S   0  0  0  0  0  0  0  0  0  0  0  0
    4.3152    5.6543   21.3763 C   0  0  0  0  0  0  0  0  0  0  0  0
    4.5149    6.7426   20.6550 N   0  0  0  0  0  0  0  0  0  0  0  0
    3.7746    3.4170   14.1929 C   0  0  0  0  0  0  0  0  0  0  0  0
    3.6401    3.6395   15.6198 N   0  0  0  0  0  0  0  0  0  0  0  0
    2.8952    2.6960   16.3868 C   0  0  0  0  0  0  0  0  0  0  0  0
    2.9720    1.2802   15.8534 C   0  0  0  0  0  0  0  0  0  0  0  0
    2.4933    0.4997   17.0729 C   0  0  0  0  0  0  0  0  0  0  0  0
    3.0612    1.1798   18.1929 N   0  0  0  0  0  0  0  0  0  0  0  0
    3.4854    2.4851   17.7884 C   0  0  0  0  0  0  0  0  0  0  0  0
    4.0835    0.3702   18.7849 C   0  0  0  0  0  0  0  0  0  0  0  0
    4.3136    0.8211   20.1789 C   0  0  0  0  0  0  0  0  0  0  0  0
    5.5978    1.2071   20.5768 C   0  0  0  0  0  0  0  0  0  0  0  0
    5.8753    1.6409   21.8546 C   0  0  0  0  0  0  0  0  0  0  0  0
    4.8703    1.7058   22.7913 C   0  0  0  0  0  0  0  0  0  0  0  0
    5.2469    2.2597   24.4072 Cl  0  0  0  0  0  0  0  0  0  0  0  0
    3.5993    1.3362   22.4401 C   0  0  0  0  0  0  0  0  0  0  0  0
    3.3407    0.9012   21.1445 C   0  0  0  0  0  0  0  0  0  0  0  0
 19 20  1  0  0  0
 20  1  1  0  0  0
  1  2  2  0  0  0
  2  3  1  0  0  0
  3  4  1  0  0  0
  3  5  2  0  0  0
  5  9  1  0  0  0
  9 10  2  0  0  0
  9 11  2  0  0  0
  9 12  1  0  0  0
 12 14  1  0  0  0
 14 15  2  0  0  0
 15 16  1  0  0  0
 16 17  1  0  0  0
 17 18  2  0  0  0
  5  6  1  0  0  0
  6  7  2  0  0  0
  7  8  1  0  0  0
 20 21  1  0  0  0
 21 22  1  0  0  0
 22 23  1  0  0  0
 23 24  1  0  0  0
 24 26  1  0  0  0
 26 27  1  0  0  0
 27 28  2  0  0  0
 28 29  1  0  0  0
 29 30  2  0  0  0
 30 31  1  0  0  0
 30 32  1  0  0  0
 32 33  2  0  0  0
 24 25  1  0  0  0
  7  1  1  0  0  0
 25 21  1  0  0  0
 18 14  1  0  0  0
 33 27  1  0  0  0
 12 13  1  0  0  0
M  END
> <minimizedAffinity>
-7.61367

> <CNNscore>
0.1747921407

> <CNNaffinity>
6.5708532333

> <CNN_VS>
1.1485334635

> <CNNaffinity_variance>
0.3939241767

$$$$
[H]c1nc(N([H])S(=O)(=O)c2c([H])c(Cl)c(N(C([H])([H])[H])[C@]3([H])C([H])([H])N(C([H])([H])c4c([H])c([H])c(Cl)c([H])c4[H])C([H])([H])C3([H])[H])c([H])c2F)c([H])s1


 33 36  0  0  0  0  0  0  0  0999 V2000
    4.6352    8.0961   16.7293 C   0  0  0  0  0  0  0  0  0  0  0  0
    5.3363    7.0354   17.2616 C   0  0  0  0  0  0  0  0  0  0  0  0
    5.4896    6.8797   18.6205 C   0  0  0  0  0  0  0  0  0  0  0  0
    6.1875    5.8229   19.1354 F   0  0  0  0  0  0  0  0  0  0  0  0
    4.9427    7.7882   19.5314 C   0  0  0  0  0  0  0  0  0  0  0  0
    4.2440    8.8437   18.9908 C   0  0  0  0  0  0  0  0  0  0  0  0
    4.0954    8.9923   17.6282 C   0  0  0  0  0  0  0  0  0  0  0  0
    3.1893   10.3653   16.9729 Cl  0  0  0  0  0  0  0  0  0  0  0  0
    5.1445    7.5311   21.2506 S   0  0  0  0  0  0  0  0  0  0  0  0
    4.9829    8.8932   21.9006 O   0  0  0  0  0  0  0  0  0  0  0  0
    6.5167    7.0518   21.5827 O   0  0  0  0  0  0  0  0  0  0  0  0
    3.9586    6.5097   21.9313 N   0  0  0  0  0  0  0  0  0  0  0  0
    3.1022    6.9632   22.3135 H   0  0  0  0  0  0  0  0  0  0  0  0
    4.1046    5.0604   21.9929 C   0  0  0  0  0  0  0  0  0  0  0  0
    4.1270    4.4020   23.2015 C   0  0  0  0  0  0  0  0  0  0  0  0
    4.3115    2.7798   22.7051 S   0  0  0  0  0  0  0  0  0  0  0  0
    4.3490    3.0282   21.0173 C   0  0  0  0  0  0  0  0  0  0  0  0
    4.2182    4.3392   20.9236 N   0  0  0  0  0  0  0  0  0  0  0  0
    5.4682    8.9910   14.5703 C   0  0  0  0  0  0  0  0  0  0  0  0
    4.4597    8.2849   15.3370 N   0  0  0  0  0  0  0  0  0  0  0  0
    3.3069    7.7962   14.6549 C   0  0  0  0  0  0  0  0  0  0  0  0
    2.9566    8.5831   13.4085 C   0  0  0  0  0  0  0  0  0  0  0  0
    2.0306    7.5939   12.7090 C   0  0  0  0  0  0  0  0  0  0  0  0
    2.6080    6.3108   12.9537 N   0  0  0  0  0  0  0  0  0  0  0  0
    3.5360    6.4088   14.0384 C   0  0  0  0  0  0  0  0  0  0  0  0
    3.1542    5.7848   11.7388 C   0  0  0  0  0  0  0  0  0  0  0  0
    2.4699    4.5107   11.4104 C   0  0  0  0  0  0  0  0  0  0  0  0
    3.1306    3.2967   11.6255 C   0  0  0  0  0  0  0  0  0  0  0  0
    2.5478    2.0798   11.3469 C   0  0  0  0  0  0  0  0  0  0  0  0
    1.2709    2.0303   10.8382 C   0  0  0  0  0  0  0  0  0  0  0  0
    0.5520    0.4736   10.4923 Cl  0  0  0  0  0  0  0  0  0  0  0  0
    0.5911    3.1977   10.6137 C   0  0  0  0  0  0  0  0  0  0  0  0
    1.1980    4.4156   10.9021 C   0  0  0  0  0  0  0  0  0  0  0  0
 19 20  1  0  0  0
 20  1  1  0  0  0
  1  2  2  0  0  0
  2  3  1  0  0  0
  3  4  1  0  0  0
  3  5  2  0  0  0
  5  9  1  0  0  0
  9 10  2  0  0  0
  9 11  2  0  0  0
  9 12  1  0  0  0
 12 14  1  0  0  0
 14 15  2  0  0  0
 15 16  1  0  0  0
 16 17  1  0  0  0
 17 18  2  0  0  0
  5  6  1  0  0  0
  6  7  2  0  0  0
  7  8  1  0  0  0
 20 21  1  0  0  0
 21 22  1  0  0  0
 22 23  1  0  0  0
 23 24  1  0  0  0
 24 26  1  0  0  0
 26 27  1  0  0  0
 27 28  2  0  0  0
 28 29  1  0  0  0
 29 30  2  0  0  0
 30 31  1  0  0  0
 30 32  1  0  0  0
 32 33  2  0  0  0
 24 25  1  0  0  0
  7  1  1  0  0  0
 25 21  1  0  0  0
 18 14  1  0  0  0
 33 27  1  0  0  0
 12 13  1  0  0  0
M  END
> <minimizedAffinity>
-7.48374

> <CNNscore>
0.1546916962

> <CNNaffinity>
5.9554262161

> <CNN_VS>
0.9212549925

> <CNNaffinity_variance>
0.5795277357

$$$$
[H]OC1([H])C([H])([H])OC([H])([H])C([H])([H])C1(c1c([H])c([H])c(C(F)(F)F)c([H])c1F)N([H])C(=O)c1c([H])nn2c([H])c(C([H])([H])[H])c([H])nc12


 33 36  0  0  0  0  0  0  0  0999 V2000
    2.4942    5.1341   13.8195 C   0  0  0  0  0  0  0  0  0  0  0  0
    3.5864    5.9881   14.1131 C   0  0  0  0  0  0  0  0  0  0  0  0
    3.5814    7.4179   13.5936 C   0  0  0  0  0  0  0  0  0  0  0  0
    2.5072    7.8495   12.9068 O   0  0  0  0  0  0  0  0  0  0  0  0
    1.3212    7.3321   13.2636 C   0  0  0  0  0  0  0  0  0  0  0  0
    1.1929    5.9750   13.7778 C   0  0  0  0  0  0  0  0  0  0  0  0
    0.6164    6.0468   15.0624 O   0  0  0  0  0  0  0  0  0  0  0  0
   -0.3365    5.9003   15.0385 H   0  0  0  0  0  0  0  0  0  0  0  0
    2.3788    4.2252   12.6916 C   0  0  0  0  0  0  0  0  0  0  0  0
    3.4565    4.2318   11.7888 C   0  0  0  0  0  0  0  0  0  0  0  0
    3.5657    3.3361   10.7503 C   0  0  0  0  0  0  0  0  0  0  0  0
    2.6329    2.3789   10.5236 C   0  0  0  0  0  0  0  0  0  0  0  0
    1.5469    2.3392   11.4002 C   0  0  0  0  0  0  0  0  0  0  0  0
    1.4698    3.2547   12.4351 C   0  0  0  0  0  0  0  0  0  0  0  0
    0.3838    3.1789   13.2068 F   0  0  0  0  0  0  0  0  0  0  0  0
    2.7672    1.3876    9.4314 C   0  0  0  0  0  0  0  0  0  0  0  0
    2.3015    0.1342    9.8462 F   0  0  0  0  0  0  0  0  0  0  0  0
    2.0572    1.8399    8.3438 F   0  0  0  0  0  0  0  0  0  0  0  0
    4.0736    1.2706    8.9625 F   0  0  0  0  0  0  0  0  0  0  0  0
    3.3269    3.4306   15.3970 C   0  0  0  0  0  0  0  0  0  0  0  0
    4.4378    3.5293   14.8000 O   0  0  0  0  0  0  0  0  0  0  0  0
    2.2068    4.2424   14.9900 N   0  0  0  0  0  0  0  0  0  0  0  0
    1.3300    4.1632   15.4753 H   0  0  0  0  0  0  0  0  0  0  0  0
    5.6544    2.2033   21.5598 C   0  0  0  0  0  0  0  0  0  0  0  0
    5.0412    2.3443   20.1912 C   0  0  0  0  0  0  0  0  0  0  0  0
    5.2054    3.4841   19.4355 C   0  0  0  0  0  0  0  0  0  0  0  0
    4.6523    3.5889   18.2124 N   0  0  0  0  0  0  0  0  0  0  0  0
    3.9328    2.5809   17.7114 C   0  0  0  0  0  0  0  0  0  0  0  0
    3.2994    2.4633   16.4637 C   0  0  0  0  0  0  0  0  0  0  0  0
    2.7383    1.2226   16.5000 C   0  0  0  0  0  0  0  0  0  0  0  0
    3.0244    0.6459   17.6871 N   0  0  0  0  0  0  0  0  0  0  0  0
    3.7561    1.4743   18.4198 N   0  0  0  0  0  0  0  0  0  0  0  0
    4.2846    1.3047   19.6579 C   0  0  0  0  0  0  0  0  0  0  0  0
 24 25  1  0  0  0
 25 26  1  0  0  0
 26 27  2  0  0  0
 27 28  1  0  0  0
 28 29  2  0  0  0
 29 20  1  0  0  0
 20 21  2  0  0  0
 20 22  1  0  0  0
 22  1  1  0  0  0
  1  9  1  0  0  0
  9 10  2  0  0  0
 10 11  1  0  0  0
 11 12  2  0  0  0
 12 16  1  0  0  0
 16 17  1  0  0  0
 16 18  1  0  0  0
 16 19  1  0  0  0
 12 13  1  0  0  0
 13 14  2  0  0  0
 14 15  1  0  0  0
  1  2  1  0  0  0
  2  3  1  0  0  0
  3  4  1  0  0  0
  4  5  1  0  0  0
  5  6  1  0  0  0
  6  7  1  0  0  0
 29 30  1  0  0  0
 30 31  2  0  0  0
 31 32  1  0  0  0
 32 33  1  0  0  0
 33 25  2  0  0  0
 32 28  1  0  0  0
  6  1  1  0  0  0
 14  9  1  0  0  0
 22 23  1  0  0  0
  7  8  1  0  0  0
M  END
> <minimizedAffinity>
-7.50227

> <CNNscore>
0.5006732941

> <CNNaffinity>
6.3411707878

> <CNN_VS>
3.1748547554

> <CNNaffinity_variance>
0.8618043065

$$$$
[H]OC1([H])C([H])([H])OC([H])([H])C([H])([H])C1(c1c([H])c([H])c(C(F)(F)F)c([H])c1F)N([H])C(=O)c1c([H])nn2c([H])c(C([H])([H])[H])c([H])nc12


 33 36  0  0  0  0  0  0  0  0999 V2000
    5.1758    3.0894   21.5366 C   0  0  0  0  0  0  0  0  0  0  0  0
    6.1575    2.0763   21.6714 C   0  0  0  0  0  0  0  0  0  0  0  0
    6.5798    1.6209   23.0600 C   0  0  0  0  0  0  0  0  0  0  0  0
    5.9671    2.1627   24.1292 O   0  0  0  0  0  0  0  0  0  0  0  0
    4.6788    2.5047   23.9712 C   0  0  0  0  0  0  0  0  0  0  0  0
    4.1498    2.9549   22.6905 C   0  0  0  0  0  0  0  0  0  0  0  0
    3.1066    2.0831   22.3174 O   0  0  0  0  0  0  0  0  0  0  0  0
    2.2408    2.4337   22.5572 H   0  0  0  0  0  0  0  0  0  0  0  0
    5.4105    4.5187   21.4204 C   0  0  0  0  0  0  0  0  0  0  0  0
    4.3803    5.2598   20.8153 C   0  0  0  0  0  0  0  0  0  0  0  0
    4.3859    6.6342   20.7549 C   0  0  0  0  0  0  0  0  0  0  0  0
    5.3944    7.3741   21.2777 C   0  0  0  0  0  0  0  0  0  0  0  0
    6.4364    6.6739   21.8886 C   0  0  0  0  0  0  0  0  0  0  0  0
    6.3977    5.2913   21.9328 C   0  0  0  0  0  0  0  0  0  0  0  0
    7.4473    4.6919   22.4979 F   0  0  0  0  0  0  0  0  0  0  0  0
    5.3844    8.8549   21.2504 C   0  0  0  0  0  0  0  0  0  0  0  0
    6.5396    9.3421   20.6274 F   0  0  0  0  0  0  0  0  0  0  0  0
    4.2550    9.2700   20.5843 F   0  0  0  0  0  0  0  0  0  0  0  0
    5.2614    9.4200   22.5176 F   0  0  0  0  0  0  0  0  0  0  0  0
    4.2911    1.4197   19.9511 C   0  0  0  0  0  0  0  0  0  0  0  0
    4.9625    0.5628   20.5956 O   0  0  0  0  0  0  0  0  0  0  0  0
    4.2980    2.8040   20.3550 N   0  0  0  0  0  0  0  0  0  0  0  0
    3.7552    3.4768   19.8420 H   0  0  0  0  0  0  0  0  0  0  0  0
    2.8489    2.5816   13.5112 C   0  0  0  0  0  0  0  0  0  0  0  0
    3.0959    2.1779   14.9412 C   0  0  0  0  0  0  0  0  0  0  0  0
    3.9475    2.8867   15.7594 C   0  0  0  0  0  0  0  0  0  0  0  0
    4.1517    2.5118   17.0363 N   0  0  0  0  0  0  0  0  0  0  0  0
    3.5255    1.4403   17.5307 C   0  0  0  0  0  0  0  0  0  0  0  0
    3.5659    0.8938   18.8235 C   0  0  0  0  0  0  0  0  0  0  0  0
    2.7225   -0.1735   18.7514 C   0  0  0  0  0  0  0  0  0  0  0  0
    2.2161   -0.2492   17.5019 N   0  0  0  0  0  0  0  0  0  0  0  0
    2.7036    0.7382   16.7631 N   0  0  0  0  0  0  0  0  0  0  0  0
    2.4547    1.0608   15.4689 C   0  0  0  0  0  0  0  0  0  0  0  0
 24 25  1  0  0  0
 25 26  1  0  0  0
 26 27  2  0  0  0
 27 28  1  0  0  0
 28 29  2  0  0  0
 29 20  1  0  0  0
 20 21  2  0  0  0
 20 22  1  0  0  0
 22  1  1  0  0  0
  1  9  1  0  0  0
  9 10  2  0  0  0
 10 11  1  0  0  0
 11 12  2  0  0  0
 12 16  1  0  0  0
 16 17  1  0  0  0
 16 18  1  0  0  0
 16 19  1  0  0  0
 12 13  1  0  0  0
 13 14  2  0  0  0
 14 15  1  0  0  0
  1  2  1  0  0  0
  2  3  1  0  0  0
  3  4  1  0  0  0
  4  5  1  0  0  0
  5  6  1  0  0  0
  6  7  1  0  0  0
 29 30  1  0  0  0
 30 31  2  0  0  0
 31 32  1  0  0  0
 32 33  1  0  0  0
 33 25  2  0  0  0
 32 28  1  0  0  0
  6  1  1  0  0  0
 14  9  1  0  0  0
 22 23  1  0  0  0
  7  8  1  0  0  0
M  END
> <minimizedAffinity>
-10.12156

> <CNNscore>
0.4919871688

> <CNNaffinity>
6.5744247437

> <CNN_VS>
3.2345325947

> <CNNaffinity_variance>
0.4693976045

$$$$
[H]OC1([H])C([H])([H])OC([H])([H])C([H])([H])C1(c1c([H])c([H])c(C(F)(F)F)c([H])c1F)N([H])C(=O)c1c([H])nn2c([H])c(C([H])([H])[H])c([H])nc12


 33 36  0  0  0  0  0  0  0  0999 V2000
    1.9955    3.9340   12.3871 C   0  0  0  0  0  0  0  0  0  0  0  0
    2.2408    5.2554   12.8367 C   0  0  0  0  0  0  0  0  0  0  0  0
    1.6361    6.4292   12.0812 C   0  0  0  0  0  0  0  0  0  0  0  0
    0.8374    6.1742   11.0281 O   0  0  0  0  0  0  0  0  0  0  0  0
    0.1016    5.0534   11.0925 C   0  0  0  0  0  0  0  0  0  0  0  0
    0.5678    3.8613   11.7883 C   0  0  0  0  0  0  0  0  0  0  0  0
   -0.3686    3.5482   12.7946 O   0  0  0  0  0  0  0  0  0  0  0  0
   -0.9963    2.8753   12.5061 H   0  0  0  0  0  0  0  0  0  0  0  0
    2.8161    3.1598   11.4713 C   0  0  0  0  0  0  0  0  0  0  0  0
    2.3866    1.8430   11.2302 C   0  0  0  0  0  0  0  0  0  0  0  0
    2.9702    1.0285   10.2875 C   0  0  0  0  0  0  0  0  0  0  0  0
    4.0090    1.4427    9.5214 C   0  0  0  0  0  0  0  0  0  0  0  0
    4.4639    2.7460    9.7306 C   0  0  0  0  0  0  0  0  0  0  0  0
    3.8527    3.5385   10.6863 C   0  0  0  0  0  0  0  0  0  0  0  0
    4.3679    4.7576   10.8558 F   0  0  0  0  0  0  0  0  0  0  0  0
    4.6135    0.5830    8.4778 C   0  0  0  0  0  0  0  0  0  0  0  0
    3.8199   -0.5483    8.2535 F   0  0  0  0  0  0  0  0  0  0  0  0
    4.7476    1.3245    7.3273 F   0  0  0  0  0  0  0  0  0  0  0  0
    5.9140    0.1899    8.7850 F   0  0  0  0  0  0  0  0  0  0  0  0
    2.9874    2.9989   14.4428 C   0  0  0  0  0  0  0  0  0  0  0  0
    3.9799    3.7496   14.2153 O   0  0  0  0  0  0  0  0  0  0  0  0
    1.8488    3.0090   13.5580 N   0  0  0  0  0  0  0  0  0  0  0  0
    1.0610    2.4152   13.7508 H   0  0  0  0  0  0  0  0  0  0  0  0
    5.4218    2.8985   20.6851 C   0  0  0  0  0  0  0  0  0  0  0  0
    4.8089    2.7755   19.3147 C   0  0  0  0  0  0  0  0  0  0  0  0
    4.7830    3.8333   18.4328 C   0  0  0  0  0  0  0  0  0  0  0  0
    4.2340    3.7017   17.2105 N   0  0  0  0  0  0  0  0  0  0  0  0
    3.7043    2.5346   16.8335 C   0  0  0  0  0  0  0  0  0  0  0  0
    3.1147    2.1688   15.6128 C   0  0  0  0  0  0  0  0  0  0  0  0
    2.7750    0.8623   15.7948 C   0  0  0  0  0  0  0  0  0  0  0  0
    3.1427    0.4821   17.0372 N   0  0  0  0  0  0  0  0  0  0  0  0
    3.7127    1.5019   17.6647 N   0  0  0  0  0  0  0  0  0  0  0  0
    4.2485    1.5674   18.9095 C   0  0  0  0  0  0  0  0  0  0  0  0
 24 25  1  0  0  0
 25 26  1  0  0  0
 26 27  2  0  0  0
 27 28  1  0  0  0
 28 29  2  0  0  0
 29 20  1  0  0  0
 20 21  2  0  0  0
 20 22  1  0  0  0
 22  1  1  0  0  0
  1  9  1  0  0  0
  9 10  2  0  0  0
 10 11  1  0  0  0
 11 12  2  0  0  0
 12 16  1  0  0  0
 16 17  1  0  0  0
 16 18  1  0  0  0
 16 19  1  0  0  0
 12 13  1  0  0  0
 13 14  2  0  0  0
 14 15  1  0  0  0
  1  2  1  0  0  0
  2  3  1  0  0  0
  3  4  1  0  0  0
  4  5  1  0  0  0
  5  6  1  0  0  0
  6  7  1  0  0  0
 29 30  1  0  0  0
 30 31  2  0  0  0
 31 32  1  0  0  0
 32 33  1  0  0  0
 33 25  2  0  0  0
 32 28  1  0  0  0
  6  1  1  0  0  0
 14  9  1  0  0  0
 22 23  1  0  0  0
  7  8  1  0  0  0
M  END
> <minimizedAffinity>
-7.39144

> <CNNscore>
0.4548729658

> <CNNaffinity>
6.1250591278

> <CNN_VS>
2.7861237526

> <CNNaffinity_variance>
0.8401237726

$$$$
[H]OC1([H])C([H])([H])OC([H])([H])C([H])([H])C1(c1c([H])c([H])c(C(F)(F)F)c([H])c1F)N([H])C(=O)c1c([H])nn2c([H])c(C([H])([H])[H])c([H])nc12


 33 36  0  0  0  0  0  0  0  0999 V2000
    3.2243    4.8035   13.1009 C   0  0  0  0  0  0  0  0  0  0  0  0
    4.2900    4.2389   12.3568 C   0  0  0  0  0  0  0  0  0  0  0  0
    5.0315    5.0946   11.3409 C   0  0  0  0  0  0  0  0  0  0  0  0
    4.6836    6.3887   11.2132 O   0  0  0  0  0  0  0  0  0  0  0  0
    4.2556    7.0060   12.3256 C   0  0  0  0  0  0  0  0  0  0  0  0
    3.5354    6.2969   13.3749 C   0  0  0  0  0  0  0  0  0  0  0  0
    4.2647    6.4319   14.5738 O   0  0  0  0  0  0  0  0  0  0  0  0
    3.9274    7.1501   15.1219 H   0  0  0  0  0  0  0  0  0  0  0  0
    1.8132    4.7813   12.7544 C   0  0  0  0  0  0  0  0  0  0  0  0
    0.9831    5.6198   13.5189 C   0  0  0  0  0  0  0  0  0  0  0  0
   -0.3469    5.8186   13.2290 C   0  0  0  0  0  0  0  0  0  0  0  0
   -0.9536    5.2132   12.1787 C   0  0  0  0  0  0  0  0  0  0  0  0
   -0.1615    4.3728   11.3941 C   0  0  0  0  0  0  0  0  0  0  0  0
    1.1734    4.1968   11.7137 C   0  0  0  0  0  0  0  0  0  0  0  0
    1.8556    3.3490   10.9415 F   0  0  0  0  0  0  0  0  0  0  0  0
   -2.3748    5.4561   11.8396 C   0  0  0  0  0  0  0  0  0  0  0  0
   -3.0939    4.2550   11.8493 F   0  0  0  0  0  0  0  0  0  0  0  0
   -2.8933    6.3463   12.7507 F   0  0  0  0  0  0  0  0  0  0  0  0
   -2.5384    6.0904   10.6103 F   0  0  0  0  0  0  0  0  0  0  0  0
    3.2066    2.8219   14.5697 C   0  0  0  0  0  0  0  0  0  0  0  0
    3.2176    2.1302   13.5107 O   0  0  0  0  0  0  0  0  0  0  0  0
    3.2271    4.2621   14.4991 N   0  0  0  0  0  0  0  0  0  0  0  0
    3.2263    4.8038   15.3458 H   0  0  0  0  0  0  0  0  0  0  0  0
    5.4665    2.6851   20.8766 C   0  0  0  0  0  0  0  0  0  0  0  0
    4.8675    2.5864   19.4981 C   0  0  0  0  0  0  0  0  0  0  0  0
    5.0461    3.5751   18.5559 C   0  0  0  0  0  0  0  0  0  0  0  0
    4.5056    3.4660   17.3276 N   0  0  0  0  0  0  0  0  0  0  0  0
    3.7847    2.3890   17.0036 C   0  0  0  0  0  0  0  0  0  0  0  0
    3.1627    2.0571   15.7892 C   0  0  0  0  0  0  0  0  0  0  0  0
    2.5935    0.8445   16.0367 C   0  0  0  0  0  0  0  0  0  0  0  0
    2.8645    0.4839   17.3095 N   0  0  0  0  0  0  0  0  0  0  0  0
    3.5942    1.4248   17.8932 N   0  0  0  0  0  0  0  0  0  0  0  0
    4.1096    1.4727   19.1475 C   0  0  0  0  0  0  0  0  0  0  0  0
 24 25  1  0  0  0
 25 26  1  0  0  0
 26 27  2  0  0  0
 27 28  1  0  0  0
 28 29  2  0  0  0
 29 20  1  0  0  0
 20 21  2  0  0  0
 20 22  1  0  0  0
 22  1  1  0  0  0
  1  9  1  0  0  0
  9 10  2  0  0  0
 10 11  1  0  0  0
 11 12  2  0  0  0
 12 16  1  0  0  0
 16 17  1  0  0  0
 16 18  1  0  0  0
 16 19  1  0  0  0
 12 13  1  0  0  0
 13 14  2  0  0  0
 14 15  1  0  0  0
  1  2  1  0  0  0
  2  3  1  0  0  0
  3  4  1  0  0  0
  4  5  1  0  0  0
  5  6  1  0  0  0
  6  7  1  0  0  0
 29 30  1  0  0  0
 30 31  2  0  0  0
 31 32  1  0  0  0
 32 33  1  0  0  0
 33 25  2  0  0  0
 32 28  1  0  0  0
  6  1  1  0  0  0
 14  9  1  0  0  0
 22 23  1  0  0  0
  7  8  1  0  0  0
M  END
> <minimizedAffinity>
-8.08632

> <CNNscore>
0.4366527498

> <CNNaffinity>
5.9854950905

> <CNN_VS>
2.6135828495

> <CNNaffinity_variance>
0.8211678267

$$$$
[H]OC1([H])C([H])([H])OC([H])([H])C([H])([H])C1(c1c([H])c([H])c(C(F)(F)F)c([H])c1F)N([H])C(=O)c1c([H])nn2c([H])c(C([H])([H])[H])c([H])nc12


 33 36  0  0  0  0  0  0  0  0999 V2000
    3.2410    6.5121   14.6288 C   0  0  0  0  0  0  0  0  0  0  0  0
    1.8626    6.6813   14.3466 C   0  0  0  0  0  0  0  0  0  0  0  0
    1.4327    7.6669   13.2705 C   0  0  0  0  0  0  0  0  0  0  0  0
    2.3848    8.3184   12.5768 O   0  0  0  0  0  0  0  0  0  0  0  0
    3.5310    7.6532   12.3639 C   0  0  0  0  0  0  0  0  0  0  0  0
    4.0494    6.6810   13.3172 C   0  0  0  0  0  0  0  0  0  0  0  0
    4.1714    5.4421   12.6556 O   0  0  0  0  0  0  0  0  0  0  0  0
    5.0689    5.2906   12.3370 H   0  0  0  0  0  0  0  0  0  0  0  0
    4.0177    7.2217   15.6312 C   0  0  0  0  0  0  0  0  0  0  0  0
    4.9775    6.4556   16.3156 C   0  0  0  0  0  0  0  0  0  0  0  0
    5.8847    7.0052   17.1917 C   0  0  0  0  0  0  0  0  0  0  0  0
    5.9144    8.3340   17.4585 C   0  0  0  0  0  0  0  0  0  0  0  0
    4.9767    9.1292   16.7969 C   0  0  0  0  0  0  0  0  0  0  0  0
    4.0798    8.5432   15.9210 C   0  0  0  0  0  0  0  0  0  0  0  0
    3.1895    9.3615   15.3569 F   0  0  0  0  0  0  0  0  0  0  0  0
    6.9153    8.9348   18.3700 C   0  0  0  0  0  0  0  0  0  0  0  0
    7.7161    7.9402   18.9438 F   0  0  0  0  0  0  0  0  0  0  0  0
    7.6781    9.8258   17.6517 F   0  0  0  0  0  0  0  0  0  0  0  0
    6.3389    9.7096   19.3738 F   0  0  0  0  0  0  0  0  0  0  0  0
    2.7020    4.5279   15.9913 C   0  0  0  0  0  0  0  0  0  0  0  0
    1.8056    5.2369   16.5335 O   0  0  0  0  0  0  0  0  0  0  0  0
    3.5307    5.0756   14.9459 N   0  0  0  0  0  0  0  0  0  0  0  0
    4.2352    4.5025   14.5150 H   0  0  0  0  0  0  0  0  0  0  0  0
    5.3266    0.9279   20.9967 C   0  0  0  0  0  0  0  0  0  0  0  0
    4.6618    1.6002   19.8242 C   0  0  0  0  0  0  0  0  0  0  0  0
    4.6830    2.9680   19.6632 C   0  0  0  0  0  0  0  0  0  0  0  0
    4.0861    3.5495   18.6057 N   0  0  0  0  0  0  0  0  0  0  0  0
    3.4618    2.8021   17.6912 C   0  0  0  0  0  0  0  0  0  0  0  0
    2.8077    3.1886   16.5103 C   0  0  0  0  0  0  0  0  0  0  0  0
    2.3811    2.0109   15.9749 C   0  0  0  0  0  0  0  0  0  0  0  0
    2.7612    0.9981   16.7831 N   0  0  0  0  0  0  0  0  0  0  0  0
    3.4233    1.4837   17.8245 N   0  0  0  0  0  0  0  0  0  0  0  0
    4.0030    0.8352   18.8658 C   0  0  0  0  0  0  0  0  0  0  0  0
 24 25  1  0  0  0
 25 26  1  0  0  0
 26 27  2  0  0  0
 27 28  1  0  0  0
 28 29  2  0  0  0
 29 20  1  0  0  0
 20 21  2  0  0  0
 20 22  1  0  0  0
 22  1  1  0  0  0
  1  9  1  0  0  0
  9 10  2  0  0  0
 10 11  1  0  0  0
 11 12  2  0  0  0
 12 16  1  0  0  0
 16 17  1  0  0  0
 16 18  1  0  0  0
 16 19  1  0  0  0
 12 13  1  0  0  0
 13 14  2  0  0  0
 14 15  1  0  0  0
  1  2  1  0  0  0
  2  3  1  0  0  0
  3  4  1  0  0  0
  4  5  1  0  0  0
  5  6  1  0  0  0
  6  7  1  0  0  0
 29 30  1  0  0  0
 30 31  2  0  0  0
 31 32  1  0  0  0
 32 33  1  0  0  0
 33 25  2  0  0  0
 32 28  1  0  0  0
  6  1  1  0  0  0
 14  9  1  0  0  0
 22 23  1  0  0  0
  7  8  1  0  0  0
M  END
> <minimizedAffinity>
-7.43055

> <CNNscore>
0.3331856430

> <CNNaffinity>
5.7948808670

> <CNN_VS>
1.9307711124

> <CNNaffinity_variance>
0.5472904444

$$$$
[H]OC1([H])C([H])([H])OC([H])([H])C([H])([H])C1(c1c([H])c([H])c(C(F)(F)F)c([H])c1F)N([H])C(=O)c1c([H])nn2c([H])c(C([H])([H])[H])c([H])nc12


 33 36  0  0  0  0  0  0  0  0999 V2000
    5.5730    7.9216   19.1215 C   0  0  0  0  0  0  0  0  0  0  0  0
    4.7987    9.0813   19.3739 C   0  0  0  0  0  0  0  0  0  0  0  0
    4.9824    9.8359   20.6819 C   0  0  0  0  0  0  0  0  0  0  0  0
    5.9192    9.4053   21.5474 O   0  0  0  0  0  0  0  0  0  0  0  0
    7.0163    8.8466   21.0128 C   0  0  0  0  0  0  0  0  0  0  0  0
    6.9728    8.0997   19.7626 C   0  0  0  0  0  0  0  0  0  0  0  0
    7.8519    8.7202   18.8518 O   0  0  0  0  0  0  0  0  0  0  0  0
    8.7143    8.2889   18.8325 H   0  0  0  0  0  0  0  0  0  0  0  0
    5.2059    6.5477   19.4204 C   0  0  0  0  0  0  0  0  0  0  0  0
    5.4881    5.6071   18.4143 C   0  0  0  0  0  0  0  0  0  0  0  0
    5.3307    4.2523   18.5940 C   0  0  0  0  0  0  0  0  0  0  0  0
    4.8873    3.7273   19.7625 C   0  0  0  0  0  0  0  0  0  0  0  0
    4.5970    4.6300   20.7873 C   0  0  0  0  0  0  0  0  0  0  0  0
    4.7683    5.9863   20.5726 C   0  0  0  0  0  0  0  0  0  0  0  0
    4.4331    6.7884   21.5849 F   0  0  0  0  0  0  0  0  0  0  0  0
    4.7550    2.2672   19.9731 C   0  0  0  0  0  0  0  0  0  0  0  0
    3.5754    1.9765   20.6688 F   0  0  0  0  0  0  0  0  0  0  0  0
    4.7661    1.6479   18.7451 F   0  0  0  0  0  0  0  0  0  0  0  0
    5.8433    1.7151   20.6445 F   0  0  0  0  0  0  0  0  0  0  0  0
    4.9826    8.4730   16.7909 C   0  0  0  0  0  0  0  0  0  0  0  0
    3.9530    9.0354   17.2642 O   0  0  0  0  0  0  0  0  0  0  0  0
    5.9432    7.8536   17.6701 N   0  0  0  0  0  0  0  0  0  0  0  0
    6.7626    7.4160   17.2860 H   0  0  0  0  0  0  0  0  0  0  0  0
    9.3648    8.9723   11.7462 C   0  0  0  0  0  0  0  0  0  0  0  0
    8.2656    8.8341   12.7667 C   0  0  0  0  0  0  0  0  0  0  0  0
    8.5331    8.7448   14.1149 C   0  0  0  0  0  0  0  0  0  0  0  0
    7.5358    8.6258   15.0117 N   0  0  0  0  0  0  0  0  0  0  0  0
    6.2644    8.5937   14.6029 C   0  0  0  0  0  0  0  0  0  0  0  0
    5.0816    8.5065   15.3545 C   0  0  0  0  0  0  0  0  0  0  0  0
    4.0965    8.5322   14.4140 C   0  0  0  0  0  0  0  0  0  0  0  0
    4.6598    8.6316   13.1909 N   0  0  0  0  0  0  0  0  0  0  0  0
    5.9798    8.6738   13.3105 N   0  0  0  0  0  0  0  0  0  0  0  0
    6.9363    8.7940   12.3557 C   0  0  0  0  0  0  0  0  0  0  0  0
 24 25  1  0  0  0
 25 26  1  0  0  0
 26 27  2  0  0  0
 27 28  1  0  0  0
 28 29  2  0  0  0
 29 20  1  0  0  0
 20 21  2  0  0  0
 20 22  1  0  0  0
 22  1  1  0  0  0
  1  9  1  0  0  0
  9 10  2  0  0  0
 10 11  1  0  0  0
 11 12  2  0  0  0
 12 16  1  0  0  0
 16 17  1  0  0  0
 16 18  1  0  0  0
 16 19  1  0  0  0
 12 13  1  0  0  0
 13 14  2  0  0  0
 14 15  1  0  0  0
  1  2  1  0  0  0
  2  3  1  0  0  0
  3  4  1  0  0  0
  4  5  1  0  0  0
  5  6  1  0  0  0
  6  7  1  0  0  0
 29 30  1  0  0  0
 30 31  2  0  0  0
 31 32  1  0  0  0
 32 33  1  0  0  0
 33 25  2  0  0  0
 32 28  1  0  0  0
  6  1  1  0  0  0
 14  9  1  0  0  0
 22 23  1  0  0  0
  7  8  1  0  0  0
M  END
> <minimizedAffinity>
-6.99988

> <CNNscore>
0.2797099948

> <CNNaffinity>
5.2155084610

> <CNN_VS>
1.4588298798

> <CNNaffinity_variance>
1.0266134739

$$$$
[H]OC1([H])C([H])([H])OC([H])([H])C([H])([H])C1(c1c([H])c([H])c(C(F)(F)F)c([H])c1F)N([H])C(=O)c1c([H])nn2c([H])c(C([H])([H])[H])c([H])nc12


 33 36  0  0  0  0  0  0  0  0999 V2000
    5.5434    6.7465   20.5673 C   0  0  0  0  0  0  0  0  0  0  0  0
    4.7036    7.8869   20.6157 C   0  0  0  0  0  0  0  0  0  0  0  0
    5.0228    9.0128   21.5876 C   0  0  0  0  0  0  0  0  0  0  0  0
    6.1318    8.9149   22.3443 O   0  0  0  0  0  0  0  0  0  0  0  0
    7.1768    8.2764   21.7949 C   0  0  0  0  0  0  0  0  0  0  0  0
    7.0039    7.1826   20.8481 C   0  0  0  0  0  0  0  0  0  0  0  0
    7.6469    7.5396   19.6454 O   0  0  0  0  0  0  0  0  0  0  0  0
    8.5346    7.1674   19.5871 H   0  0  0  0  0  0  0  0  0  0  0  0
    5.3795    5.5124   21.3169 C   0  0  0  0  0  0  0  0  0  0  0  0
    6.5190    4.6935   21.4023 C   0  0  0  0  0  0  0  0  0  0  0  0
    6.5700    3.5651   22.1876 C   0  0  0  0  0  0  0  0  0  0  0  0
    5.5155    3.1614   22.9379 C   0  0  0  0  0  0  0  0  0  0  0  0
    4.3647    3.9498   22.8807 C   0  0  0  0  0  0  0  0  0  0  0  0
    4.3488    5.0792   22.0812 C   0  0  0  0  0  0  0  0  0  0  0  0
    3.2013    5.7596   22.0481 F   0  0  0  0  0  0  0  0  0  0  0  0
    5.5801    1.9700   23.8155 C   0  0  0  0  0  0  0  0  0  0  0  0
    4.3035    1.4256   23.9988 F   0  0  0  0  0  0  0  0  0  0  0  0
    6.4276    1.0518   23.2408 F   0  0  0  0  0  0  0  0  0  0  0  0
    6.1571    2.2395   25.0543 F   0  0  0  0  0  0  0  0  0  0  0  0
    4.4090    6.1058   18.4728 C   0  0  0  0  0  0  0  0  0  0  0  0
    3.3267    6.4038   19.0561 O   0  0  0  0  0  0  0  0  0  0  0  0
    5.6701    6.2581   19.1554 N   0  0  0  0  0  0  0  0  0  0  0  0
    6.5258    6.0265   18.6815 H   0  0  0  0  0  0  0  0  0  0  0  0
    2.8424    7.9956   12.2377 C   0  0  0  0  0  0  0  0  0  0  0  0
    3.2300    7.4246   13.5765 C   0  0  0  0  0  0  0  0  0  0  0  0
    3.3750    8.2204   14.6913 C   0  0  0  0  0  0  0  0  0  0  0  0
    3.7182    7.6899   15.8803 N   0  0  0  0  0  0  0  0  0  0  0  0
    3.9229    6.3748   15.9956 C   0  0  0  0  0  0  0  0  0  0  0  0
    4.2537    5.6136   17.1283 C   0  0  0  0  0  0  0  0  0  0  0  0
    4.3163    4.3378   16.6552 C   0  0  0  0  0  0  0  0  0  0  0  0
    4.0376    4.3453   15.3339 N   0  0  0  0  0  0  0  0  0  0  0  0
    3.7938    5.5870   14.9372 N   0  0  0  0  0  0  0  0  0  0  0  0
    3.4517    6.0570   13.7112 C   0  0  0  0  0  0  0  0  0  0  0  0
 24 25  1  0  0  0
 25 26  1  0  0  0
 26 27  2  0  0  0
 27 28  1  0  0  0
 28 29  2  0  0  0
 29 20  1  0  0  0
 20 21  2  0  0  0
 20 22  1  0  0  0
 22  1  1  0  0  0
  1  9  1  0  0  0
  9 10  2  0  0  0
 10 11  1  0  0  0
 11 12  2  0  0  0
 12 16  1  0  0  0
 16 17  1  0  0  0
 16 18  1  0  0  0
 16 19  1  0  0  0
 12 13  1  0  0  0
 13 14  2  0  0  0
 14 15  1  0  0  0
  1  2  1  0  0  0
  2  3  1  0  0  0
  3  4  1  0  0  0
  4  5  1  0  0  0
  5  6  1  0  0  0
  6  7  1  0  0  0
 29 30  1  0  0  0
 30 31  2  0  0  0
 31 32  1  0  0  0
 32 33  1  0  0  0
 33 25  2  0  0  0
 32 28  1  0  0  0
  6  1  1  0  0  0
 14  9  1  0  0  0
 22 23  1  0  0  0
  7  8  1  0  0  0
M  END
> <minimizedAffinity>
-8.19810

> <CNNscore>
0.2720721662

> <CNNaffinity>
5.5980844498

> <CNN_VS>
1.5230829716

> <CNNaffinity_variance>
0.9684978724

$$$$
[H]OC1([H])C([H])([H])OC([H])([H])C([H])([H])C1(c1c([H])c([H])c(C(F)(F)F)c([H])c1F)N([H])C(=O)c1c([H])nn2c([H])c(C([H])([H])[H])c([H])nc12


 33 36  0  0  0  0  0  0  0  0999 V2000
    4.4962    5.6350   18.6662 C   0  0  0  0  0  0  0  0  0  0  0  0
    3.6634    6.7345   18.3407 C   0  0  0  0  0  0  0  0  0  0  0  0
    4.1150    8.1456   18.6859 C   0  0  0  0  0  0  0  0  0  0  0  0
    5.3255    8.3141   19.2501 O   0  0  0  0  0  0  0  0  0  0  0  0
    6.2819    7.4458   18.8854 C   0  0  0  0  0  0  0  0  0  0  0  0
    5.9785    6.0662   18.5286 C   0  0  0  0  0  0  0  0  0  0  0  0
    6.4312    5.8454   17.2119 O   0  0  0  0  0  0  0  0  0  0  0  0
    7.3033    5.4342   17.1948 H   0  0  0  0  0  0  0  0  0  0  0  0
    4.4567    4.8441   19.8847 C   0  0  0  0  0  0  0  0  0  0  0  0
    4.6399    3.4599   19.7207 C   0  0  0  0  0  0  0  0  0  0  0  0
    4.7678    2.5932   20.7814 C   0  0  0  0  0  0  0  0  0  0  0  0
    4.7239    3.0180   22.0681 C   0  0  0  0  0  0  0  0  0  0  0  0
    4.5443    4.3874   22.2722 C   0  0  0  0  0  0  0  0  0  0  0  0
    4.4207    5.2308   21.1821 C   0  0  0  0  0  0  0  0  0  0  0  0
    4.2125    6.5198   21.4571 F   0  0  0  0  0  0  0  0  0  0  0  0
    4.9015    2.0939   23.2118 C   0  0  0  0  0  0  0  0  0  0  0  0
    6.2202    1.6270   23.2654 F   0  0  0  0  0  0  0  0  0  0  0  0
    4.5702    2.7628   24.3670 F   0  0  0  0  0  0  0  0  0  0  0  0
    4.0228    1.0137   23.1781 F   0  0  0  0  0  0  0  0  0  0  0  0
    3.0746    4.3356   17.1252 C   0  0  0  0  0  0  0  0  0  0  0  0
    2.0987    4.9906   17.5932 O   0  0  0  0  0  0  0  0  0  0  0  0
    4.4143    4.5900   17.5942 N   0  0  0  0  0  0  0  0  0  0  0  0
    5.1848    4.0705   17.2110 H   0  0  0  0  0  0  0  0  0  0  0  0
    0.3478    3.6180   11.0463 C   0  0  0  0  0  0  0  0  0  0  0  0
    0.9938    3.6198   12.4070 C   0  0  0  0  0  0  0  0  0  0  0  0
    1.2791    4.7905   13.0742 C   0  0  0  0  0  0  0  0  0  0  0  0
    1.8531    4.7706   14.2920 N   0  0  0  0  0  0  0  0  0  0  0  0
    2.1548    3.6066   14.8740 C   0  0  0  0  0  0  0  0  0  0  0  0
    2.7211    3.3528   16.1336 C   0  0  0  0  0  0  0  0  0  0  0  0
    2.7796    1.9932   16.1954 C   0  0  0  0  0  0  0  0  0  0  0  0
    2.2783    1.4798   15.0515 N   0  0  0  0  0  0  0  0  0  0  0  0
    1.8944    2.4654   14.2516 N   0  0  0  0  0  0  0  0  0  0  0  0
    1.3187    2.4150   13.0240 C   0  0  0  0  0  0  0  0  0  0  0  0
 24 25  1  0  0  0
 25 26  1  0  0  0
 26 27  2  0  0  0
 27 28  1  0  0  0
 28 29  2  0  0  0
 29 20  1  0  0  0
 20 21  2  0  0  0
 20 22  1  0  0  0
 22  1  1  0  0  0
  1  9  1  0  0  0
  9 10  2  0  0  0
 10 11  1  0  0  0
 11 12  2  0  0  0
 12 16  1  0  0  0
 16 17  1  0  0  0
 16 18  1  0  0  0
 16 19  1  0  0  0
 12 13  1  0  0  0
 13 14  2  0  0  0
 14 15  1  0  0  0
  1  2  1  0  0  0
  2  3  1  0  0  0
  3  4  1  0  0  0
  4  5  1  0  0  0
  5  6  1  0  0  0
  6  7  1  0  0  0
 29 30  1  0  0  0
 30 31  2  0  0  0
 31 32  1  0  0  0
 32 33  1  0  0  0
 33 25  2  0  0  0
 32 28  1  0  0  0
  6  1  1  0  0  0
 14  9  1  0  0  0
 22 23  1  0  0  0
  7  8  1  0  0  0
M  END
> <minimizedAffinity>
-8.94280

> <CNNscore>
0.2704217732

> <CNNaffinity>
6.1395506859

> <CNN_VS>
1.6602681875

> <CNNaffinity_variance>
0.4956634939

$$$$
[H]OC1([H])C([H])([H])OC([H])([H])C([H])([H])C1(c1c([H])c([H])c(C(F)(F)F)c([H])c1F)N([H])C(=O)c1c([H])nn2c([H])c(C([H])([H])[H])c([H])nc12


 33 36  0  0  0  0  0  0  0  0999 V2000
    4.5368    5.4649   18.3461 C   0  0  0  0  0  0  0  0  0  0  0  0
    3.7733    6.6299   18.6069 C   0  0  0  0  0  0  0  0  0  0  0  0
    4.3649    7.7381   19.4648 C   0  0  0  0  0  0  0  0  0  0  0  0
    5.6267    7.6008   19.9134 O   0  0  0  0  0  0  0  0  0  0  0  0
    6.4765    6.9351   19.1157 C   0  0  0  0  0  0  0  0  0  0  0  0
    6.0335    5.8544   18.2447 C   0  0  0  0  0  0  0  0  0  0  0  0
    6.3592    6.2010   16.9176 O   0  0  0  0  0  0  0  0  0  0  0  0
    7.1907    5.8026   16.6347 H   0  0  0  0  0  0  0  0  0  0  0  0
    4.5311    4.2307   19.1131 C   0  0  0  0  0  0  0  0  0  0  0  0
    4.0639    4.3350   20.4350 C   0  0  0  0  0  0  0  0  0  0  0  0
    3.8654    3.2408   21.2449 C   0  0  0  0  0  0  0  0  0  0  0  0
    4.1104    1.9768   20.8208 C   0  0  0  0  0  0  0  0  0  0  0  0
    4.5750    1.8316   19.5122 C   0  0  0  0  0  0  0  0  0  0  0  0
    4.7620    2.9540   18.7247 C   0  0  0  0  0  0  0  0  0  0  0  0
    5.2450    2.7384   17.4996 F   0  0  0  0  0  0  0  0  0  0  0  0
    3.8597    0.7937   21.6760 C   0  0  0  0  0  0  0  0  0  0  0  0
    2.5329    0.3666   21.5462 F   0  0  0  0  0  0  0  0  0  0  0  0
    4.7344   -0.2019   21.3083 F   0  0  0  0  0  0  0  0  0  0  0  0
    4.1487    1.0241   23.0190 F   0  0  0  0  0  0  0  0  0  0  0  0
    2.8904    4.7668   16.6472 C   0  0  0  0  0  0  0  0  0  0  0  0
    2.0035    5.0087   17.5162 O   0  0  0  0  0  0  0  0  0  0  0  0
    4.2838    4.9838   16.9487 N   0  0  0  0  0  0  0  0  0  0  0  0
    4.9813    4.7966   16.2495 H   0  0  0  0  0  0  0  0  0  0  0  0
   -0.2313    6.6311   11.0185 C   0  0  0  0  0  0  0  0  0  0  0  0
    0.4872    6.0651   12.2153 C   0  0  0  0  0  0  0  0  0  0  0  0
    0.9238    6.8668   13.2467 C   0  0  0  0  0  0  0  0  0  0  0  0
    1.5606    6.3407   14.3099 N   0  0  0  0  0  0  0  0  0  0  0  0
    1.7780    5.0244   14.3797 C   0  0  0  0  0  0  0  0  0  0  0  0
    2.3864    4.2674   15.3939 C   0  0  0  0  0  0  0  0  0  0  0  0
    2.3136    2.9879   14.9323 C   0  0  0  0  0  0  0  0  0  0  0  0
    1.7005    2.9895   13.7291 N   0  0  0  0  0  0  0  0  0  0  0  0
    1.3715    4.2309   13.3986 N   0  0  0  0  0  0  0  0  0  0  0  0
    0.7255    4.6962   12.2998 C   0  0  0  0  0  0  0  0  0  0  0  0
 24 25  1  0  0  0
 25 26  1  0  0  0
 26 27  2  0  0  0
 27 28  1  0  0  0
 28 29  2  0  0  0
 29 20  1  0  0  0
 20 21  2  0  0  0
 20 22  1  0  0  0
 22  1  1  0  0  0
  1  9  1  0  0  0
  9 10  2  0  0  0
 10 11  1  0  0  0
 11 12  2  0  0  0
 12 16  1  0  0  0
 16 17  1  0  0  0
 16 18  1  0  0  0
 16 19  1  0  0  0
 12 13  1  0  0  0
 13 14  2  0  0  0
 14 15  1  0  0  0
  1  2  1  0  0  0
  2  3  1  0  0  0
  3  4  1  0  0  0
  4  5  1  0  0  0
  5  6  1  0  0  0
  6  7  1  0  0  0
 29 30  1  0  0  0
 30 31  2  0  0  0
 31 32  1  0  0  0
 32 33  1  0  0  0
 33 25  2  0  0  0
 32 28  1  0  0  0
  6  1  1  0  0  0
 14  9  1  0  0  0
 22 23  1  0  0  0
  7  8  1  0  0  0
M  END
> <minimizedAffinity>
-9.00073

> <CNNscore>
0.2354485393

> <CNNaffinity>
5.9698925018

> <CNN_VS>
1.4056024551

> <CNNaffinity_variance>
0.2908608615

$$$$
[H]OC(=O)C([H])([H])C([H])([H])[C@@]([H])(C(=O)N1C([H])([H])C([H])([H])C([H])([H])[C@@]1([H])C(=O)N([H])[C@]([H])(C(=O)OC([H])([H])[H])C([H])([H])c1c([H])c([H])c([H])c([H])c1[H])N([H])C(=O)[C@@]([H])(N([H])C(=O)OC([H])([H])c1c([H])c([H])c([H])c([H])c1[H])[C@@]([H])(C([H])([H])[H])C([H])([H])C([H])([H])[H]


 51 53  0  0  0  0  0  0  0  0999 V2000
    4.3337    7.1525   18.6199 C   0  0  0  0  0  0  0  0  0  0  0  0
    3.5912    5.9816   18.2479 C   0  0  0  0  0  0  0  0  0  0  0  0
    2.8430    5.5620   19.3041 O   0  0  0  0  0  0  0  0  0  0  0  0
    3.4023    5.1461   17.1675 N   0  0  0  0  0  0  0  0  0  0  0  0
    2.4518    3.9984   17.2156 C   0  0  0  0  0  0  0  0  0  0  0  0
    3.3726    2.8732   16.7917 C   0  0  0  0  0  0  0  0  0  0  0  0
    4.2037    3.5077   15.7289 C   0  0  0  0  0  0  0  0  0  0  0  0
    3.9741    5.0344   15.8781 C   0  0  0  0  0  0  0  0  0  0  0  0
    3.1049    5.3928   14.7450 C   0  0  0  0  0  0  0  0  0  0  0  0
    3.1028    4.7040   13.7111 O   0  0  0  0  0  0  0  0  0  0  0  0
    2.2684    6.5317   14.8352 N   0  0  0  0  0  0  0  0  0  0  0  0
    2.2279    7.1326   15.6866 H   0  0  0  0  0  0  0  0  0  0  0  0
    1.4179    6.8941   13.6841 C   0  0  0  0  0  0  0  0  0  0  0  0
    1.8361    8.1853   13.1251 C   0  0  0  0  0  0  0  0  0  0  0  0
    2.1159    9.1551   13.9248 O   0  0  0  0  0  0  0  0  0  0  0  0
    1.9648    8.4661   11.8008 O   0  0  0  0  0  0  0  0  0  0  0  0
    1.8225    7.4603   10.7856 C   0  0  0  0  0  0  0  0  0  0  0  0
   -0.0014    6.9398   14.1498 C   0  0  0  0  0  0  0  0  0  0  0  0
   -0.9919    6.3012   13.2927 C   0  0  0  0  0  0  0  0  0  0  0  0
   -2.2744    6.8452   13.2996 C   0  0  0  0  0  0  0  0  0  0  0  0
   -3.2226    6.2863   12.4919 C   0  0  0  0  0  0  0  0  0  0  0  0
   -2.9563    5.2086   11.6736 C   0  0  0  0  0  0  0  0  0  0  0  0
   -1.6508    4.6854   11.6907 C   0  0  0  0  0  0  0  0  0  0  0  0
   -0.6969    5.2295   12.4897 C   0  0  0  0  0  0  0  0  0  0  0  0
    5.5413    7.1464   20.8599 C   0  0  0  0  0  0  0  0  0  0  0  0
    4.8298    8.1814   21.1378 O   0  0  0  0  0  0  0  0  0  0  0  0
    5.3512    6.5644   19.6056 N   0  0  0  0  0  0  0  0  0  0  0  0
    5.8823    5.7311   19.2933 H   0  0  0  0  0  0  0  0  0  0  0  0
    6.4631    6.7179   21.8919 C   0  0  0  0  0  0  0  0  0  0  0  0
    5.9710    5.5999   22.6549 N   0  0  0  0  0  0  0  0  0  0  0  0
    4.6777    5.0708   22.7417 C   0  0  0  0  0  0  0  0  0  0  0  0
    3.6411    5.4603   22.1731 O   0  0  0  0  0  0  0  0  0  0  0  0
    6.7079    5.0788   23.2602 H   0  0  0  0  0  0  0  0  0  0  0  0
    4.4586    3.9406   23.5771 O   0  0  0  0  0  0  0  0  0  0  0  0
    5.0888    2.7087   23.3394 C   0  0  0  0  0  0  0  0  0  0  0  0
    4.5197    1.9269   22.2483 C   0  0  0  0  0  0  0  0  0  0  0  0
    5.1150    1.9633   20.9914 C   0  0  0  0  0  0  0  0  0  0  0  0
    4.6335    1.2599   19.9178 C   0  0  0  0  0  0  0  0  0  0  0  0
    3.4994    0.4670   20.0685 C   0  0  0  0  0  0  0  0  0  0  0  0
    2.9006    0.4241   21.3143 C   0  0  0  0  0  0  0  0  0  0  0  0
    3.3996    1.1395   22.3856 C   0  0  0  0  0  0  0  0  0  0  0  0
    7.8752    6.4140   21.4430 C   0  0  0  0  0  0  0  0  0  0  0  0
    8.7262    7.6592   21.2398 C   0  0  0  0  0  0  0  0  0  0  0  0
   10.0430    5.5092   22.3574 C   0  0  0  0  0  0  0  0  0  0  0  0
    8.5506    5.6586   22.5809 C   0  0  0  0  0  0  0  0  0  0  0  0
    5.0259    8.0742   17.7434 C   0  0  0  0  0  0  0  0  0  0  0  0
    4.8993    9.5479   17.9542 C   0  0  0  0  0  0  0  0  0  0  0  0
    3.4657    9.9933   17.7984 C   0  0  0  0  0  0  0  0  0  0  0  0
    2.8063   10.3353   18.8033 O   0  0  0  0  0  0  0  0  0  0  0  0
    2.8355   10.0414   16.5583 O   0  0  0  0  0  0  0  0  0  0  0  0
    2.1039   10.6753   16.3371 H   0  0  0  0  0  0  0  0  0  0  0  0
 44 45  1  0  0  0
 45 42  1  0  0  0
 42 43  1  0  0  0
 42 29  1  0  0  0
 29 30  1  0  0  0
 30 31  1  0  0  0
 31 32  2  0  0  0
 31 34  1  0  0  0
 34 35  1  0  0  0
 35 36  1  0  0  0
 36 37  2  0  0  0
 37 38  1  0  0  0
 38 39  2  0  0  0
 39 40  1  0  0  0
 40 41  2  0  0  0
 29 25  1  0  0  0
 25 26  2  0  0  0
 25 27  1  0  0  0
 27  1  1  0  0  0
  1 46  1  0  0  0
 46 47  1  0  0  0
 47 48  1  0  0  0
 48 49  2  0  0  0
 48 50  1  0  0  0
  1  2  1  0  0  0
  2  3  2  0  0  0
  2  4  1  0  0  0
  4  5  1  0  0  0
  5  6  1  0  0  0
  6  7  1  0  0  0
  7  8  1  0  0  0
  8  9  1  0  0  0
  9 10  2  0  0  0
  9 11  1  0  0  0
 11 13  1  0  0  0
 13 18  1  0  0  0
 18 19  1  0  0  0
 19 20  2  0  0  0
 20 21  1  0  0  0
 21 22  2  0  0  0
 22 23  1  0  0  0
 23 24  2  0  0  0
 13 14  1  0  0  0
 14 15  2  0  0  0
 14 16  1  0  0  0
 16 17  1  0  0  0
 41 36  1  0  0  0
  8  4  1  0  0  0
 24 19  1  0  0  0
 30 33  1  0  0  0
 27 28  1  0  0  0
 50 51  1  0  0  0
 11 12  1  0  0  0
M  END
> <minimizedAffinity>
-8.95070

> <CNNscore>
0.2859954238

> <CNNaffinity>
6.7514815331

> <CNN_VS>
1.9308928251

> <CNNaffinity_variance>
0.2742547691

$$$$
[H]OC(=O)C([H])([H])C([H])([H])[C@@]([H])(C(=O)N1C([H])([H])C([H])([H])C([H])([H])[C@@]1([H])C(=O)N([H])[C@]([H])(C(=O)OC([H])([H])[H])C([H])([H])c1c([H])c([H])c([H])c([H])c1[H])N([H])C(=O)[C@@]([H])(N([H])C(=O)OC([H])([H])c1c([H])c([H])c([H])c([H])c1[H])[C@@]([H])(C([H])([H])[H])C([H])([H])C([H])([H])[H]


 51 53  0  0  0  0  0  0  0  0999 V2000
    3.7283    2.5373   18.3016 C   0  0  0  0  0  0  0  0  0  0  0  0
    4.3930    2.7011   19.5633 C   0  0  0  0  0  0  0  0  0  0  0  0
    5.0787    1.5659   19.8677 O   0  0  0  0  0  0  0  0  0  0  0  0
    4.5502    3.6363   20.5642 N   0  0  0  0  0  0  0  0  0  0  0  0
    5.4123    3.3804   21.7534 C   0  0  0  0  0  0  0  0  0  0  0  0
    4.4237    3.6664   22.8645 C   0  0  0  0  0  0  0  0  0  0  0  0
    3.6712    4.8435   22.3436 C   0  0  0  0  0  0  0  0  0  0  0  0
    4.0079    4.9155   20.8312 C   0  0  0  0  0  0  0  0  0  0  0  0
    4.9322    6.0551   20.7093 C   0  0  0  0  0  0  0  0  0  0  0  0
    5.9272    5.9818   19.9690 O   0  0  0  0  0  0  0  0  0  0  0  0
    4.6852    7.2405   21.4433 N   0  0  0  0  0  0  0  0  0  0  0  0
    3.8574    7.3521   22.0677 H   0  0  0  0  0  0  0  0  0  0  0  0
    5.6313    8.3683   21.3303 C   0  0  0  0  0  0  0  0  0  0  0  0
    6.4330    8.4885   22.5541 C   0  0  0  0  0  0  0  0  0  0  0  0
    6.6343    9.6550   23.0611 O   0  0  0  0  0  0  0  0  0  0  0  0
    6.9999    7.4534   23.2295 O   0  0  0  0  0  0  0  0  0  0  0  0
    8.4179    7.3560   23.4351 C   0  0  0  0  0  0  0  0  0  0  0  0
    4.8442    9.6126   21.0743 C   0  0  0  0  0  0  0  0  0  0  0  0
    5.1569   10.3448   19.8538 C   0  0  0  0  0  0  0  0  0  0  0  0
    6.4276   10.1563   19.3148 C   0  0  0  0  0  0  0  0  0  0  0  0
    6.7478   10.8091   18.1594 C   0  0  0  0  0  0  0  0  0  0  0  0
    5.8618   11.6433   17.5105 C   0  0  0  0  0  0  0  0  0  0  0  0
    4.5872   11.8098   18.0816 C   0  0  0  0  0  0  0  0  0  0  0  0
    4.2541   11.1682   19.2313 C   0  0  0  0  0  0  0  0  0  0  0  0
    3.3962    4.7248   17.0445 C   0  0  0  0  0  0  0  0  0  0  0  0
    2.1446    4.5688   17.2970 O   0  0  0  0  0  0  0  0  0  0  0  0
    4.2661    3.7413   17.5182 N   0  0  0  0  0  0  0  0  0  0  0  0
    5.2893    3.7810   17.3592 H   0  0  0  0  0  0  0  0  0  0  0  0
    3.7449    5.9092   16.2869 C   0  0  0  0  0  0  0  0  0  0  0  0
    2.6808    6.3585   15.4267 N   0  0  0  0  0  0  0  0  0  0  0  0
    2.2657    5.8717   14.1814 C   0  0  0  0  0  0  0  0  0  0  0  0
    2.7374    4.9271   13.5220 O   0  0  0  0  0  0  0  0  0  0  0  0
    2.1042    7.2051   15.7897 H   0  0  0  0  0  0  0  0  0  0  0  0
    1.1667    6.5025   13.5352 O   0  0  0  0  0  0  0  0  0  0  0  0
    0.3447    5.8147   12.6282 C   0  0  0  0  0  0  0  0  0  0  0  0
   -1.0784    6.1111   12.7406 C   0  0  0  0  0  0  0  0  0  0  0  0
   -1.5454    6.8453   13.8261 C   0  0  0  0  0  0  0  0  0  0  0  0
   -2.8687    7.1573   14.0012 C   0  0  0  0  0  0  0  0  0  0  0  0
   -3.8051    6.7310   13.0636 C   0  0  0  0  0  0  0  0  0  0  0  0
   -3.3505    6.0007   11.9809 C   0  0  0  0  0  0  0  0  0  0  0  0
   -2.0128    5.6954   11.8201 C   0  0  0  0  0  0  0  0  0  0  0  0
    4.2526    7.0888   17.0861 C   0  0  0  0  0  0  0  0  0  0  0  0
    5.7696    7.2109   17.0866 C   0  0  0  0  0  0  0  0  0  0  0  0
    4.8300    8.9701   15.5109 C   0  0  0  0  0  0  0  0  0  0  0  0
    3.7579    8.3474   16.3842 C   0  0  0  0  0  0  0  0  0  0  0  0
    3.7549    1.3781   17.4339 C   0  0  0  0  0  0  0  0  0  0  0  0
    2.5199    0.9584   16.7053 C   0  0  0  0  0  0  0  0  0  0  0  0
    2.4797    1.5603   15.3218 C   0  0  0  0  0  0  0  0  0  0  0  0
    3.5030    2.0958   14.8449 O   0  0  0  0  0  0  0  0  0  0  0  0
    1.3288    1.5423   14.5393 O   0  0  0  0  0  0  0  0  0  0  0  0
    1.3386    1.5298   13.5464 H   0  0  0  0  0  0  0  0  0  0  0  0
 44 45  1  0  0  0
 45 42  1  0  0  0
 42 43  1  0  0  0
 42 29  1  0  0  0
 29 30  1  0  0  0
 30 31  1  0  0  0
 31 32  2  0  0  0
 31 34  1  0  0  0
 34 35  1  0  0  0
 35 36  1  0  0  0
 36 37  2  0  0  0
 37 38  1  0  0  0
 38 39  2  0  0  0
 39 40  1  0  0  0
 40 41  2  0  0  0
 29 25  1  0  0  0
 25 26  2  0  0  0
 25 27  1  0  0  0
 27  1  1  0  0  0
  1 46  1  0  0  0
 46 47  1  0  0  0
 47 48  1  0  0  0
 48 49  2  0  0  0
 48 50  1  0  0  0
  1  2  1  0  0  0
  2  3  2  0  0  0
  2  4  1  0  0  0
  4  5  1  0  0  0
  5  6  1  0  0  0
  6  7  1  0  0  0
  7  8  1  0  0  0
  8  9  1  0  0  0
  9 10  2  0  0  0
  9 11  1  0  0  0
 11 13  1  0  0  0
 13 18  1  0  0  0
 18 19  1  0  0  0
 19 20  2  0  0  0
 20 21  1  0  0  0
 21 22  2  0  0  0
 22 23  1  0  0  0
 23 24  2  0  0  0
 13 14  1  0  0  0
 14 15  2  0  0  0
 14 16  1  0  0  0
 16 17  1  0  0  0
 41 36  1  0  0  0
  8  4  1  0  0  0
 24 19  1  0  0  0
 30 33  1  0  0  0
 27 28  1  0  0  0
 50 51  1  0  0  0
 11 12  1  0  0  0
M  END
> <minimizedAffinity>
-8.52305

> <CNNscore>
0.2774390876

> <CNNaffinity>
6.8740820885

> <CNN_VS>
1.9071390629

> <CNNaffinity_variance>
0.0797690600

$$$$
[H]OC(=O)C([H])([H])C([H])([H])[C@@]([H])(C(=O)N1C([H])([H])C([H])([H])C([H])([H])[C@@]1([H])C(=O)N([H])[C@]([H])(C(=O)OC([H])([H])[H])C([H])([H])c1c([H])c([H])c([H])c([H])c1[H])N([H])C(=O)[C@@]([H])(N([H])C(=O)OC([H])([H])c1c([H])c([H])c([H])c([H])c1[H])[C@@]([H])(C([H])([H])[H])C([H])([H])C([H])([H])[H]


 51 53  0  0  0  0  0  0  0  0999 V2000
    3.3157    5.8306   18.4841 C   0  0  0  0  0  0  0  0  0  0  0  0
    4.1034    5.0117   19.3612 C   0  0  0  0  0  0  0  0  0  0  0  0
    4.3354    3.8067   18.7732 O   0  0  0  0  0  0  0  0  0  0  0  0
    4.6902    5.0550   20.6081 N   0  0  0  0  0  0  0  0  0  0  0  0
    5.4953    3.9184   21.1401 C   0  0  0  0  0  0  0  0  0  0  0  0
    4.7910    3.6896   22.4611 C   0  0  0  0  0  0  0  0  0  0  0  0
    4.4939    5.0758   22.9227 C   0  0  0  0  0  0  0  0  0  0  0  0
    4.6959    5.9800   21.6787 C   0  0  0  0  0  0  0  0  0  0  0  0
    5.9664    6.6804   21.9298 C   0  0  0  0  0  0  0  0  0  0  0  0
    6.6457    7.1105   20.9826 O   0  0  0  0  0  0  0  0  0  0  0  0
    6.4166    6.8620   23.2600 N   0  0  0  0  0  0  0  0  0  0  0  0
    5.8749    6.5287   24.0865 H   0  0  0  0  0  0  0  0  0  0  0  0
    7.7031    7.5460   23.4983 C   0  0  0  0  0  0  0  0  0  0  0  0
    8.8013    6.5727   23.5341 C   0  0  0  0  0  0  0  0  0  0  0  0
    9.1192    5.9443   22.4559 O   0  0  0  0  0  0  0  0  0  0  0  0
    9.5433    6.2618   24.6304 O   0  0  0  0  0  0  0  0  0  0  0  0
   10.9782    6.3207   24.6280 C   0  0  0  0  0  0  0  0  0  0  0  0
    7.6008    8.2945   24.7876 C   0  0  0  0  0  0  0  0  0  0  0  0
    8.2799    9.5822   24.8520 C   0  0  0  0  0  0  0  0  0  0  0  0
    9.4043    9.6604   25.6708 C   0  0  0  0  0  0  0  0  0  0  0  0
   10.0790   10.8453   25.7383 C   0  0  0  0  0  0  0  0  0  0  0  0
    9.6887   11.9610   25.0277 C   0  0  0  0  0  0  0  0  0  0  0  0
    8.5499   11.8463   24.2100 C   0  0  0  0  0  0  0  0  0  0  0  0
    7.8674   10.6747   24.1332 C   0  0  0  0  0  0  0  0  0  0  0  0
    4.1271    8.2143   18.8522 C   0  0  0  0  0  0  0  0  0  0  0  0
    4.8872    8.0109   17.8346 O   0  0  0  0  0  0  0  0  0  0  0  0
    3.2998    7.1615   19.2464 N   0  0  0  0  0  0  0  0  0  0  0  0
    2.6577    7.2327   20.0567 H   0  0  0  0  0  0  0  0  0  0  0  0
    4.2338    9.5206   19.4692 C   0  0  0  0  0  0  0  0  0  0  0  0
    5.4398    9.6802   20.2401 N   0  0  0  0  0  0  0  0  0  0  0  0
    6.7199   10.0761   19.8344 C   0  0  0  0  0  0  0  0  0  0  0  0
    7.1123   10.3779   18.6922 O   0  0  0  0  0  0  0  0  0  0  0  0
    5.3554    9.4629   21.3016 H   0  0  0  0  0  0  0  0  0  0  0  0
    7.7493   10.1595   20.8125 O   0  0  0  0  0  0  0  0  0  0  0  0
    8.9027    9.3616   20.7459 C   0  0  0  0  0  0  0  0  0  0  0  0
   10.0789    9.9247   21.3979 C   0  0  0  0  0  0  0  0  0  0  0  0
   10.8957    9.1062   22.1714 C   0  0  0  0  0  0  0  0  0  0  0  0
   12.0137    9.5659   22.8180 C   0  0  0  0  0  0  0  0  0  0  0  0
   12.3669   10.9080   22.7101 C   0  0  0  0  0  0  0  0  0  0  0  0
   11.5613   11.7296   21.9430 C   0  0  0  0  0  0  0  0  0  0  0  0
   10.4380   11.2493   21.2980 C   0  0  0  0  0  0  0  0  0  0  0  0
    4.0879   10.7100   18.5462 C   0  0  0  0  0  0  0  0  0  0  0  0
    2.8070   10.6843   17.7248 C   0  0  0  0  0  0  0  0  0  0  0  0
    2.8142   12.8374   19.0000 C   0  0  0  0  0  0  0  0  0  0  0  0
    3.9629   11.9454   19.4293 C   0  0  0  0  0  0  0  0  0  0  0  0
    3.5562    6.1087   17.0833 C   0  0  0  0  0  0  0  0  0  0  0  0
    2.7532    5.4139   16.0322 C   0  0  0  0  0  0  0  0  0  0  0  0
    3.6039    4.4297   15.2671 C   0  0  0  0  0  0  0  0  0  0  0  0
    3.6378    3.2306   15.6172 O   0  0  0  0  0  0  0  0  0  0  0  0
    4.3658    4.8086   14.1656 O   0  0  0  0  0  0  0  0  0  0  0  0
    4.5898    4.1980   13.4152 H   0  0  0  0  0  0  0  0  0  0  0  0
 44 45  1  0  0  0
 45 42  1  0  0  0
 42 43  1  0  0  0
 42 29  1  0  0  0
 29 30  1  0  0  0
 30 31  1  0  0  0
 31 32  2  0  0  0
 31 34  1  0  0  0
 34 35  1  0  0  0
 35 36  1  0  0  0
 36 37  2  0  0  0
 37 38  1  0  0  0
 38 39  2  0  0  0
 39 40  1  0  0  0
 40 41  2  0  0  0
 29 25  1  0  0  0
 25 26  2  0  0  0
 25 27  1  0  0  0
 27  1  1  0  0  0
  1 46  1  0  0  0
 46 47  1  0  0  0
 47 48  1  0  0  0
 48 49  2  0  0  0
 48 50  1  0  0  0
  1  2  1  0  0  0
  2  3  2  0  0  0
  2  4  1  0  0  0
  4  5  1  0  0  0
  5  6  1  0  0  0
  6  7  1  0  0  0
  7  8  1  0  0  0
  8  9  1  0  0  0
  9 10  2  0  0  0
  9 11  1  0  0  0
 11 13  1  0  0  0
 13 18  1  0  0  0
 18 19  1  0  0  0
 19 20  2  0  0  0
 20 21  1  0  0  0
 21 22  2  0  0  0
 22 23  1  0  0  0
 23 24  2  0  0  0
 13 14  1  0  0  0
 14 15  2  0  0  0
 14 16  1  0  0  0
 16 17  1  0  0  0
 41 36  1  0  0  0
  8  4  1  0  0  0
 24 19  1  0  0  0
 30 33  1  0  0  0
 27 28  1  0  0  0
 50 51  1  0  0  0
 11 12  1  0  0  0
M  END
> <minimizedAffinity>
-6.84156

> <CNNscore>
0.2709687650

> <CNNaffinity>
6.2193098068

> <CNN_VS>
1.6852387190

> <CNNaffinity_variance>
0.0429612733

$$$$
[H]OC(=O)C([H])([H])C([H])([H])[C@@]([H])(C(=O)N1C([H])([H])C([H])([H])C([H])([H])[C@@]1([H])C(=O)N([H])[C@]([H])(C(=O)OC([H])([H])[H])C([H])([H])c1c([H])c([H])c([H])c([H])c1[H])N([H])C(=O)[C@@]([H])(N([H])C(=O)OC([H])([H])c1c([H])c([H])c([H])c([H])c1[H])[C@@]([H])(C([H])([H])[H])C([H])([H])C([H])([H])[H]


 51 53  0  0  0  0  0  0  0  0999 V2000
    4.2301    7.7163   17.3986 C   0  0  0  0  0  0  0  0  0  0  0  0
    3.6246    6.4156   17.3544 C   0  0  0  0  0  0  0  0  0  0  0  0
    3.1910    6.0726   18.5978 O   0  0  0  0  0  0  0  0  0  0  0  0
    3.3513    5.4043   16.4580 N   0  0  0  0  0  0  0  0  0  0  0  0
    2.6292    4.1648   16.8644 C   0  0  0  0  0  0  0  0  0  0  0  0
    3.6100    3.1162   16.3828 C   0  0  0  0  0  0  0  0  0  0  0  0
    4.0876    3.6793   15.0875 C   0  0  0  0  0  0  0  0  0  0  0  0
    3.6516    5.1678   15.0958 C   0  0  0  0  0  0  0  0  0  0  0  0
    2.5188    5.2292   14.1571 C   0  0  0  0  0  0  0  0  0  0  0  0
    2.2366    4.2500   13.4466 O   0  0  0  0  0  0  0  0  0  0  0  0
    1.7488    6.4139   14.0633 N   0  0  0  0  0  0  0  0  0  0  0  0
    1.9409    7.2561   14.6474 H   0  0  0  0  0  0  0  0  0  0  0  0
    0.6294    6.4714   13.1024 C   0  0  0  0  0  0  0  0  0  0  0  0
    0.9126    7.4489   12.0446 C   0  0  0  0  0  0  0  0  0  0  0  0
    1.4554    8.5739   12.3578 O   0  0  0  0  0  0  0  0  0  0  0  0
    0.6524    7.2755   10.7212 O   0  0  0  0  0  0  0  0  0  0  0  0
    0.8670    6.0216   10.0547 C   0  0  0  0  0  0  0  0  0  0  0  0
   -0.6113    6.8309   13.8538 C   0  0  0  0  0  0  0  0  0  0  0  0
   -1.8801    6.4988   13.2186 C   0  0  0  0  0  0  0  0  0  0  0  0
   -3.0091    7.1742   13.6768 C   0  0  0  0  0  0  0  0  0  0  0  0
   -4.2116    6.9046   13.0894 C   0  0  0  0  0  0  0  0  0  0  0  0
   -4.3467    5.9927   12.0636 C   0  0  0  0  0  0  0  0  0  0  0  0
   -3.1861    5.3300   11.6250 C   0  0  0  0  0  0  0  0  0  0  0  0
   -1.9829    5.5864   12.2001 C   0  0  0  0  0  0  0  0  0  0  0  0
    4.3346    8.8051   19.6963 C   0  0  0  0  0  0  0  0  0  0  0  0
    3.5465    9.6951   19.2047 O   0  0  0  0  0  0  0  0  0  0  0  0
    4.7282    7.7687   18.8483 N   0  0  0  0  0  0  0  0  0  0  0  0
    5.3640    7.0102   19.1558 H   0  0  0  0  0  0  0  0  0  0  0  0
    4.7222    8.9989   21.0785 C   0  0  0  0  0  0  0  0  0  0  0  0
    4.5869    7.8046   21.8720 N   0  0  0  0  0  0  0  0  0  0  0  0
    5.3173    6.6110   21.8309 C   0  0  0  0  0  0  0  0  0  0  0  0
    6.2615    6.3055   21.0793 O   0  0  0  0  0  0  0  0  0  0  0  0
    3.8002    7.8208   22.6215 H   0  0  0  0  0  0  0  0  0  0  0  0
    4.9785    5.5731   22.7427 O   0  0  0  0  0  0  0  0  0  0  0  0
    4.0030    4.6094   22.4410 C   0  0  0  0  0  0  0  0  0  0  0  0
    4.4988    3.4301   21.7415 C   0  0  0  0  0  0  0  0  0  0  0  0
    5.2642    2.4931   22.4282 C   0  0  0  0  0  0  0  0  0  0  0  0
    5.7685    1.3643   21.8359 C   0  0  0  0  0  0  0  0  0  0  0  0
    5.5162    1.1241   20.4883 C   0  0  0  0  0  0  0  0  0  0  0  0
    4.7559    2.0497   19.7972 C   0  0  0  0  0  0  0  0  0  0  0  0
    4.2554    3.1821   20.4101 C   0  0  0  0  0  0  0  0  0  0  0  0
    6.0983    9.5821   21.3116 C   0  0  0  0  0  0  0  0  0  0  0  0
    6.2644   10.9847   20.7449 C   0  0  0  0  0  0  0  0  0  0  0  0
    7.4756   10.5848   23.1695 C   0  0  0  0  0  0  0  0  0  0  0  0
    6.2626    9.7455   22.8176 C   0  0  0  0  0  0  0  0  0  0  0  0
    5.2730    8.2342   16.5376 C   0  0  0  0  0  0  0  0  0  0  0  0
    4.9227    8.8482   15.2213 C   0  0  0  0  0  0  0  0  0  0  0  0
    3.6288    9.6196   15.3139 C   0  0  0  0  0  0  0  0  0  0  0  0
    3.6269   10.7812   15.7744 O   0  0  0  0  0  0  0  0  0  0  0  0
    2.4142    9.0815   14.8985 O   0  0  0  0  0  0  0  0  0  0  0  0
    1.6595    9.6273   14.5542 H   0  0  0  0  0  0  0  0  0  0  0  0
 44 45  1  0  0  0
 45 42  1  0  0  0
 42 43  1  0  0  0
 42 29  1  0  0  0
 29 30  1  0  0  0
 30 31  1  0  0  0
 31 32  2  0  0  0
 31 34  1  0  0  0
 34 35  1  0  0  0
 35 36  1  0  0  0
 36 37  2  0  0  0
 37 38  1  0  0  0
 38 39  2  0  0  0
 39 40  1  0  0  0
 40 41  2  0  0  0
 29 25  1  0  0  0
 25 26  2  0  0  0
 25 27  1  0  0  0
 27  1  1  0  0  0
  1 46  1  0  0  0
 46 47  1  0  0  0
 47 48  1  0  0  0
 48 49  2  0  0  0
 48 50  1  0  0  0
  1  2  1  0  0  0
  2  3  2  0  0  0
  2  4  1  0  0  0
  4  5  1  0  0  0
  5  6  1  0  0  0
  6  7  1  0  0  0
  7  8  1  0  0  0
  8  9  1  0  0  0
  9 10  2  0  0  0
  9 11  1  0  0  0
 11 13  1  0  0  0
 13 18  1  0  0  0
 18 19  1  0  0  0
 19 20  2  0  0  0
 20 21  1  0  0  0
 21 22  2  0  0  0
 22 23  1  0  0  0
 23 24  2  0  0  0
 13 14  1  0  0  0
 14 15  2  0  0  0
 14 16  1  0  0  0
 16 17  1  0  0  0
 41 36  1  0  0  0
  8  4  1  0  0  0
 24 19  1  0  0  0
 30 33  1  0  0  0
 27 28  1  0  0  0
 50 51  1  0  0  0
 11 12  1  0  0  0
M  END
> <minimizedAffinity>
-8.99165

> <CNNscore>
0.2476928979

> <CNNaffinity>
6.3772711754

> <CNN_VS>
1.5796047449

> <CNNaffinity_variance>
0.2449056804

$$$$
[H]OC(=O)C([H])([H])C([H])([H])[C@@]([H])(C(=O)N1C([H])([H])C([H])([H])C([H])([H])[C@@]1([H])C(=O)N([H])[C@]([H])(C(=O)OC([H])([H])[H])C([H])([H])c1c([H])c([H])c([H])c([H])c1[H])N([H])C(=O)[C@@]([H])(N([H])C(=O)OC([H])([H])c1c([H])c([H])c([H])c([H])c1[H])[C@@]([H])(C([H])([H])[H])C([H])([H])C([H])([H])[H]


 51 53  0  0  0  0  0  0  0  0999 V2000
    5.2184    5.5481   22.5484 C   0  0  0  0  0  0  0  0  0  0  0  0
    4.8172    4.1705   22.5039 C   0  0  0  0  0  0  0  0  0  0  0  0
    4.2801    3.8136   23.7021 O   0  0  0  0  0  0  0  0  0  0  0  0
    4.8106    3.0966   21.6391 N   0  0  0  0  0  0  0  0  0  0  0  0
    4.2277    1.7792   22.0233 C   0  0  0  0  0  0  0  0  0  0  0  0
    5.4032    0.8719   21.7254 C   0  0  0  0  0  0  0  0  0  0  0  0
    5.9586    1.4509   20.4687 C   0  0  0  0  0  0  0  0  0  0  0  0
    5.3157    2.8565   20.3395 C   0  0  0  0  0  0  0  0  0  0  0  0
    4.3170    2.7122   19.2672 C   0  0  0  0  0  0  0  0  0  0  0  0
    3.5114    3.6277   19.0303 O   0  0  0  0  0  0  0  0  0  0  0  0
    4.2747    1.5204   18.5037 N   0  0  0  0  0  0  0  0  0  0  0  0
    4.9376    0.7305   18.6586 H   0  0  0  0  0  0  0  0  0  0  0  0
    3.2544    1.3781   17.4461 C   0  0  0  0  0  0  0  0  0  0  0  0
    2.4745    0.1512   17.6490 C   0  0  0  0  0  0  0  0  0  0  0  0
    2.3983   -0.7098   16.6943 O   0  0  0  0  0  0  0  0  0  0  0  0
    1.8050   -0.1781   18.7859 O   0  0  0  0  0  0  0  0  0  0  0  0
    2.4829   -0.5758   19.9878 C   0  0  0  0  0  0  0  0  0  0  0  0
    3.9522    1.3638   16.1247 C   0  0  0  0  0  0  0  0  0  0  0  0
    3.5421    2.3737   15.1575 C   0  0  0  0  0  0  0  0  0  0  0  0
    3.9350    3.6857   15.4126 C   0  0  0  0  0  0  0  0  0  0  0  0
    3.5876    4.6550   14.5162 C   0  0  0  0  0  0  0  0  0  0  0  0
    2.8659    4.3819   13.3731 C   0  0  0  0  0  0  0  0  0  0  0  0
    2.4868    3.0465   13.1463 C   0  0  0  0  0  0  0  0  0  0  0  0
    2.8237    2.0712   14.0293 C   0  0  0  0  0  0  0  0  0  0  0  0
    7.5972    6.3185   22.0757 C   0  0  0  0  0  0  0  0  0  0  0  0
    7.4543    7.0763   23.1052 O   0  0  0  0  0  0  0  0  0  0  0  0
    6.5126    5.5125   21.7260 N   0  0  0  0  0  0  0  0  0  0  0  0
    6.5351    4.8738   20.9102 H   0  0  0  0  0  0  0  0  0  0  0  0
    8.8758    6.4052   21.4003 C   0  0  0  0  0  0  0  0  0  0  0  0
    8.8850    7.3792   20.3394 N   0  0  0  0  0  0  0  0  0  0  0  0
    8.1837    7.3950   19.1279 C   0  0  0  0  0  0  0  0  0  0  0  0
    7.3845    6.5502   18.6837 O   0  0  0  0  0  0  0  0  0  0  0  0
    9.5322    8.2388   20.4917 H   0  0  0  0  0  0  0  0  0  0  0  0
    8.3719    8.4951   18.2460 O   0  0  0  0  0  0  0  0  0  0  0  0
    7.9035    9.7822   18.5546 C   0  0  0  0  0  0  0  0  0  0  0  0
    6.4788    9.9899   18.3248 C   0  0  0  0  0  0  0  0  0  0  0  0
    5.6739   10.4510   19.3617 C   0  0  0  0  0  0  0  0  0  0  0  0
    4.3270   10.6642   19.2216 C   0  0  0  0  0  0  0  0  0  0  0  0
    3.7157   10.4152   17.9961 C   0  0  0  0  0  0  0  0  0  0  0  0
    4.5075    9.9569   16.9591 C   0  0  0  0  0  0  0  0  0  0  0  0
    5.8637    9.7476   17.1180 C   0  0  0  0  0  0  0  0  0  0  0  0
   10.0832    6.6370   22.2814 C   0  0  0  0  0  0  0  0  0  0  0  0
   11.1823    5.6028   22.0854 C   0  0  0  0  0  0  0  0  0  0  0  0
   10.6760    8.9934   22.9523 C   0  0  0  0  0  0  0  0  0  0  0  0
   10.7050    7.9578   21.8449 C   0  0  0  0  0  0  0  0  0  0  0  0
    4.4490    6.7051   22.1407 C   0  0  0  0  0  0  0  0  0  0  0  0
    4.7494    7.3871   20.8457 C   0  0  0  0  0  0  0  0  0  0  0  0
    3.9475    6.7820   19.7194 C   0  0  0  0  0  0  0  0  0  0  0  0
    4.3244    6.9282   18.5369 O   0  0  0  0  0  0  0  0  0  0  0  0
    2.7842    6.0525   19.9468 O   0  0  0  0  0  0  0  0  0  0  0  0
    2.4667    5.3234   19.3521 H   0  0  0  0  0  0  0  0  0  0  0  0
 44 45  1  0  0  0
 45 42  1  0  0  0
 42 43  1  0  0  0
 42 29  1  0  0  0
 29 30  1  0  0  0
 30 31  1  0  0  0
 31 32  2  0  0  0
 31 34  1  0  0  0
 34 35  1  0  0  0
 35 36  1  0  0  0
 36 37  2  0  0  0
 37 38  1  0  0  0
 38 39  2  0  0  0
 39 40  1  0  0  0
 40 41  2  0  0  0
 29 25  1  0  0  0
 25 26  2  0  0  0
 25 27  1  0  0  0
 27  1  1  0  0  0
  1 46  1  0  0  0
 46 47  1  0  0  0
 47 48  1  0  0  0
 48 49  2  0  0  0
 48 50  1  0  0  0
  1  2  1  0  0  0
  2  3  2  0  0  0
  2  4  1  0  0  0
  4  5  1  0  0  0
  5  6  1  0  0  0
  6  7  1  0  0  0
  7  8  1  0  0  0
  8  9  1  0  0  0
  9 10  2  0  0  0
  9 11  1  0  0  0
 11 13  1  0  0  0
 13 18  1  0  0  0
 18 19  1  0  0  0
 19 20  2  0  0  0
 20 21  1  0  0  0
 21 22  2  0  0  0
 22 23  1  0  0  0
 23 24  2  0  0  0
 13 14  1  0  0  0
 14 15  2  0  0  0
 14 16  1  0  0  0
 16 17  1  0  0  0
 41 36  1  0  0  0
  8  4  1  0  0  0
 24 19  1  0  0  0
 30 33  1  0  0  0
 27 28  1  0  0  0
 50 51  1  0  0  0
 11 12  1  0  0  0
M  END
> <minimizedAffinity>
-7.46753

> <CNNscore>
0.2374872714

> <CNNaffinity>
6.7180328369

> <CNN_VS>
1.5954473019

> <CNNaffinity_variance>
0.2705741525

$$$$
[H]OC(=O)C([H])([H])C([H])([H])[C@@]([H])(C(=O)N1C([H])([H])C([H])([H])C([H])([H])[C@@]1([H])C(=O)N([H])[C@]([H])(C(=O)OC([H])([H])[H])C([H])([H])c1c([H])c([H])c([H])c([H])c1[H])N([H])C(=O)[C@@]([H])(N([H])C(=O)OC([H])([H])c1c([H])c([H])c([H])c([H])c1[H])[C@@]([H])(C([H])([H])[H])C([H])([H])C([H])([H])[H]


 51 53  0  0  0  0  0  0  0  0999 V2000
    6.6203    7.2972   20.0923 C   0  0  0  0  0  0  0  0  0  0  0  0
    5.5406    6.6730   20.8030 C   0  0  0  0  0  0  0  0  0  0  0  0
    4.8852    7.6054   21.5464 O   0  0  0  0  0  0  0  0  0  0  0  0
    4.9641    5.4327   20.9772 N   0  0  0  0  0  0  0  0  0  0  0  0
    3.7600    5.2368   21.8343 C   0  0  0  0  0  0  0  0  0  0  0  0
    4.2641    4.1448   22.7547 C   0  0  0  0  0  0  0  0  0  0  0  0
    5.0550    3.2763   21.8364 C   0  0  0  0  0  0  0  0  0  0  0  0
    5.2718    4.1187   20.5522 C   0  0  0  0  0  0  0  0  0  0  0  0
    4.3622    3.5240   19.5587 C   0  0  0  0  0  0  0  0  0  0  0  0
    3.5668    4.2388   18.9265 O   0  0  0  0  0  0  0  0  0  0  0  0
    4.3940    2.1276   19.3256 N   0  0  0  0  0  0  0  0  0  0  0  0
    5.0521    1.4901   19.8236 H   0  0  0  0  0  0  0  0  0  0  0  0
    3.4616    1.5396   18.3434 C   0  0  0  0  0  0  0  0  0  0  0  0
    2.9633    0.2447   18.8223 C   0  0  0  0  0  0  0  0  0  0  0  0
    2.2069   -0.4602   18.0545 O   0  0  0  0  0  0  0  0  0  0  0  0
    3.2342   -0.3037   20.0368 O   0  0  0  0  0  0  0  0  0  0  0  0
    2.6742    0.2127   21.2542 C   0  0  0  0  0  0  0  0  0  0  0  0
    4.1848    1.3945   17.0438 C   0  0  0  0  0  0  0  0  0  0  0  0
    3.6076    2.0789   15.8941 C   0  0  0  0  0  0  0  0  0  0  0  0
    4.0613    3.3710   15.6378 C   0  0  0  0  0  0  0  0  0  0  0  0
    3.5588    4.0344   14.5556 C   0  0  0  0  0  0  0  0  0  0  0  0
    2.6237    3.4729   13.7117 C   0  0  0  0  0  0  0  0  0  0  0  0
    2.1887    2.1665   13.9992 C   0  0  0  0  0  0  0  0  0  0  0  0
    2.6782    1.4940   15.0728 C   0  0  0  0  0  0  0  0  0  0  0  0
    5.4757    8.5256   18.1800 C   0  0  0  0  0  0  0  0  0  0  0  0
    5.6782    7.4542   17.4976 O   0  0  0  0  0  0  0  0  0  0  0  0
    5.9217    8.5289   19.5026 N   0  0  0  0  0  0  0  0  0  0  0  0
    5.8059    9.3485   20.1262 H   0  0  0  0  0  0  0  0  0  0  0  0
    4.8108    9.6048   17.4789 C   0  0  0  0  0  0  0  0  0  0  0  0
    3.7505    9.1461   16.6189 N   0  0  0  0  0  0  0  0  0  0  0  0
    3.5463    9.3618   15.2508 C   0  0  0  0  0  0  0  0  0  0  0  0
    4.2454   10.0178   14.4567 O   0  0  0  0  0  0  0  0  0  0  0  0
    2.9855    8.5377   17.0939 H   0  0  0  0  0  0  0  0  0  0  0  0
    2.4038    8.7821   14.6328 O   0  0  0  0  0  0  0  0  0  0  0  0
    2.5055    7.6752   13.7751 C   0  0  0  0  0  0  0  0  0  0  0  0
    1.2374    7.1895   13.2443 C   0  0  0  0  0  0  0  0  0  0  0  0
    1.0711    7.0587   11.8693 C   0  0  0  0  0  0  0  0  0  0  0  0
   -0.0933    6.6143   11.2982 C   0  0  0  0  0  0  0  0  0  0  0  0
   -1.1706    6.2728   12.1107 C   0  0  0  0  0  0  0  0  0  0  0  0
   -1.0149    6.3992   13.4790 C   0  0  0  0  0  0  0  0  0  0  0  0
    0.1660    6.8487   14.0376 C   0  0  0  0  0  0  0  0  0  0  0  0
    4.2848   10.7349   18.3358 C   0  0  0  0  0  0  0  0  0  0  0  0
    4.3682   12.0957   17.6596 C   0  0  0  0  0  0  0  0  0  0  0  0
    1.9868   11.7658   18.4386 C   0  0  0  0  0  0  0  0  0  0  0  0
    2.7947   10.4861   18.5341 C   0  0  0  0  0  0  0  0  0  0  0  0
    7.9040    7.7089   20.6213 C   0  0  0  0  0  0  0  0  0  0  0  0
    7.9721    8.5472   21.8563 C   0  0  0  0  0  0  0  0  0  0  0  0
    7.9276    7.6861   23.0950 C   0  0  0  0  0  0  0  0  0  0  0  0
    8.9237    7.0031   23.4158 O   0  0  0  0  0  0  0  0  0  0  0  0
    6.8025    7.6206   23.9117 O   0  0  0  0  0  0  0  0  0  0  0  0
    6.8400    7.4350   24.8865 H   0  0  0  0  0  0  0  0  0  0  0  0
 44 45  1  0  0  0
 45 42  1  0  0  0
 42 43  1  0  0  0
 42 29  1  0  0  0
 29 30  1  0  0  0
 30 31  1  0  0  0
 31 32  2  0  0  0
 31 34  1  0  0  0
 34 35  1  0  0  0
 35 36  1  0  0  0
 36 37  2  0  0  0
 37 38  1  0  0  0
 38 39  2  0  0  0
 39 40  1  0  0  0
 40 41  2  0  0  0
 29 25  1  0  0  0
 25 26  2  0  0  0
 25 27  1  0  0  0
 27  1  1  0  0  0
  1 46  1  0  0  0
 46 47  1  0  0  0
 47 48  1  0  0  0
 48 49  2  0  0  0
 48 50  1  0  0  0
  1  2  1  0  0  0
  2  3  2  0  0  0
  2  4  1  0  0  0
  4  5  1  0  0  0
  5  6  1  0  0  0
  6  7  1  0  0  0
  7  8  1  0  0  0
  8  9  1  0  0  0
  9 10  2  0  0  0
  9 11  1  0  0  0
 11 13  1  0  0  0
 13 18  1  0  0  0
 18 19  1  0  0  0
 19 20  2  0  0  0
 20 21  1  0  0  0
 21 22  2  0  0  0
 22 23  1  0  0  0
 23 24  2  0  0  0
 13 14  1  0  0  0
 14 15  2  0  0  0
 14 16  1  0  0  0
 16 17  1  0  0  0
 41 36  1  0  0  0
  8  4  1  0  0  0
 24 19  1  0  0  0
 30 33  1  0  0  0
 27 28  1  0  0  0
 50 51  1  0  0  0
 11 12  1  0  0  0
M  END
> <minimizedAffinity>
-8.90098

> <CNNscore>
0.1976798326

> <CNNaffinity>
6.8060569763

> <CNN_VS>
1.3454202414

> <CNNaffinity_variance>
0.2024666816

$$$$
[H]OC(=O)C([H])([H])C([H])([H])[C@@]([H])(C(=O)N1C([H])([H])C([H])([H])C([H])([H])[C@@]1([H])C(=O)N([H])[C@]([H])(C(=O)OC([H])([H])[H])C([H])([H])c1c([H])c([H])c([H])c([H])c1[H])N([H])C(=O)[C@@]([H])(N([H])C(=O)OC([H])([H])c1c([H])c([H])c([H])c([H])c1[H])[C@@]([H])(C([H])([H])[H])C([H])([H])C([H])([H])[H]


 51 53  0  0  0  0  0  0  0  0999 V2000
    3.0346    6.7491   14.8145 C   0  0  0  0  0  0  0  0  0  0  0  0
    2.2504    5.9844   13.8868 C   0  0  0  0  0  0  0  0  0  0  0  0
    0.9318    6.2724   14.0592 O   0  0  0  0  0  0  0  0  0  0  0  0
    2.4075    5.0487   12.8863 N   0  0  0  0  0  0  0  0  0  0  0  0
    1.2477    4.5190   12.1136 C   0  0  0  0  0  0  0  0  0  0  0  0
    1.4527    3.0318   12.3130 C   0  0  0  0  0  0  0  0  0  0  0  0
    2.9337    2.8862   12.2208 C   0  0  0  0  0  0  0  0  0  0  0  0
    3.5017    4.3229   12.3593 C   0  0  0  0  0  0  0  0  0  0  0  0
    3.9317    4.6861   10.9987 C   0  0  0  0  0  0  0  0  0  0  0  0
    4.0671    3.8113   10.1270 O   0  0  0  0  0  0  0  0  0  0  0  0
    4.1944    6.0415   10.6842 N   0  0  0  0  0  0  0  0  0  0  0  0
    4.0832    6.8109   11.3794 H   0  0  0  0  0  0  0  0  0  0  0  0
    4.6466    6.3908    9.3229 C   0  0  0  0  0  0  0  0  0  0  0  0
    6.1103    6.4930    9.2802 C   0  0  0  0  0  0  0  0  0  0  0  0
    6.7293    7.0583   10.2578 O   0  0  0  0  0  0  0  0  0  0  0  0
    6.9036    6.0305    8.2773 O   0  0  0  0  0  0  0  0  0  0  0  0
    7.9310    5.0523    8.5005 C   0  0  0  0  0  0  0  0  0  0  0  0
    4.0021    7.6821    8.9350 C   0  0  0  0  0  0  0  0  0  0  0  0
    4.5161    8.3363    7.7387 C   0  0  0  0  0  0  0  0  0  0  0  0
    4.2667    7.7073    6.5209 C   0  0  0  0  0  0  0  0  0  0  0  0
    4.7142    8.3032    5.3770 C   0  0  0  0  0  0  0  0  0  0  0  0
    5.4001    9.4996    5.3851 C   0  0  0  0  0  0  0  0  0  0  0  0
    5.6335   10.1077    6.6318 C   0  0  0  0  0  0  0  0  0  0  0  0
    5.1957    9.5267    7.7786 C   0  0  0  0  0  0  0  0  0  0  0  0
    3.8548    5.1590   16.6241 C   0  0  0  0  0  0  0  0  0  0  0  0
    2.8765    5.6083   17.3281 O   0  0  0  0  0  0  0  0  0  0  0  0
    4.0053    5.6839   15.3395 N   0  0  0  0  0  0  0  0  0  0  0  0
    4.7664    5.3851   14.7027 H   0  0  0  0  0  0  0  0  0  0  0  0
    4.6875    4.1612   17.2639 C   0  0  0  0  0  0  0  0  0  0  0  0
    4.6201    4.2123   18.7016 N   0  0  0  0  0  0  0  0  0  0  0  0
    5.2907    5.0471   19.6036 C   0  0  0  0  0  0  0  0  0  0  0  0
    6.1176    5.9454   19.3606 O   0  0  0  0  0  0  0  0  0  0  0  0
    3.9485    3.4976   19.1697 H   0  0  0  0  0  0  0  0  0  0  0  0
    5.0357    4.8919   20.9943 O   0  0  0  0  0  0  0  0  0  0  0  0
    5.7311    3.9558   21.7764 C   0  0  0  0  0  0  0  0  0  0  0  0
    5.2651    2.5802   21.6487 C   0  0  0  0  0  0  0  0  0  0  0  0
    3.9443    2.2691   21.9555 C   0  0  0  0  0  0  0  0  0  0  0  0
    3.4373    0.9987   21.8646 C   0  0  0  0  0  0  0  0  0  0  0  0
    4.2624   -0.0424   21.4489 C   0  0  0  0  0  0  0  0  0  0  0  0
    5.5770    0.2569   21.1414 C   0  0  0  0  0  0  0  0  0  0  0  0
    6.0713    1.5433   21.2385 C   0  0  0  0  0  0  0  0  0  0  0  0
    4.4779    2.7306   16.8196 C   0  0  0  0  0  0  0  0  0  0  0  0
    4.3794    1.7466   17.9764 C   0  0  0  0  0  0  0  0  0  0  0  0
    2.7778    1.2714   15.6645 C   0  0  0  0  0  0  0  0  0  0  0  0
    3.1168    2.6718   16.1375 C   0  0  0  0  0  0  0  0  0  0  0  0
    3.7838    7.9597   14.5490 C   0  0  0  0  0  0  0  0  0  0  0  0
    4.8199    7.9795   13.4727 C   0  0  0  0  0  0  0  0  0  0  0  0
    5.8066    9.0996   13.6953 C   0  0  0  0  0  0  0  0  0  0  0  0
    6.5705    9.0705   14.6839 O   0  0  0  0  0  0  0  0  0  0  0  0
    5.9045   10.1839   12.8282 O   0  0  0  0  0  0  0  0  0  0  0  0
    6.7428   10.6946   12.6779 H   0  0  0  0  0  0  0  0  0  0  0  0
 44 45  1  0  0  0
 45 42  1  0  0  0
 42 43  1  0  0  0
 42 29  1  0  0  0
 29 30  1  0  0  0
 30 31  1  0  0  0
 31 32  2  0  0  0
 31 34  1  0  0  0
 34 35  1  0  0  0
 35 36  1  0  0  0
 36 37  2  0  0  0
 37 38  1  0  0  0
 38 39  2  0  0  0
 39 40  1  0  0  0
 40 41  2  0  0  0
 29 25  1  0  0  0
 25 26  2  0  0  0
 25 27  1  0  0  0
 27  1  1  0  0  0
  1 46  1  0  0  0
 46 47  1  0  0  0
 47 48  1  0  0  0
 48 49  2  0  0  0
 48 50  1  0  0  0
  1  2  1  0  0  0
  2  3  2  0  0  0
  2  4  1  0  0  0
  4  5  1  0  0  0
  5  6  1  0  0  0
  6  7  1  0  0  0
  7  8  1  0  0  0
  8  9  1  0  0  0
  9 10  2  0  0  0
  9 11  1  0  0  0
 11 13  1  0  0  0
 13 18  1  0  0  0
 18 19  1  0  0  0
 19 20  2  0  0  0
 20 21  1  0  0  0
 21 22  2  0  0  0
 22 23  1  0  0  0
 23 24  2  0  0  0
 13 14  1  0  0  0
 14 15  2  0  0  0
 14 16  1  0  0  0
 16 17  1  0  0  0
 41 36  1  0  0  0
  8  4  1  0  0  0
 24 19  1  0  0  0
 30 33  1  0  0  0
 27 28  1  0  0  0
 50 51  1  0  0  0
 11 12  1  0  0  0
M  END
> <minimizedAffinity>
-7.50347

> <CNNscore>
0.1975064874

> <CNNaffinity>
6.2844982147

> <CNN_VS>
1.2412291765

> <CNNaffinity_variance>
0.2770419121

$$$$
[H]OC(=O)C([H])([H])C([H])([H])[C@@]([H])(C(=O)N1C([H])([H])C([H])([H])C([H])([H])[C@@]1([H])C(=O)N([H])[C@]([H])(C(=O)OC([H])([H])[H])C([H])([H])c1c([H])c([H])c([H])c([H])c1[H])N([H])C(=O)[C@@]([H])(N([H])C(=O)OC([H])([H])c1c([H])c([H])c([H])c([H])c1[H])[C@@]([H])(C([H])([H])[H])C([H])([H])C([H])([H])[H]


 51 53  0  0  0  0  0  0  0  0999 V2000
    4.2900    7.3179   18.9815 C   0  0  0  0  0  0  0  0  0  0  0  0
    3.5673    6.1747   18.5005 C   0  0  0  0  0  0  0  0  0  0  0  0
    2.5468    5.8889   19.3540 O   0  0  0  0  0  0  0  0  0  0  0  0
    3.5834    5.2734   17.4573 N   0  0  0  0  0  0  0  0  0  0  0  0
    2.5572    4.1995   17.3278 C   0  0  0  0  0  0  0  0  0  0  0  0
    3.4559    2.9856   17.2172 C   0  0  0  0  0  0  0  0  0  0  0  0
    4.5762    3.4790   16.3660 C   0  0  0  0  0  0  0  0  0  0  0  0
    4.4468    5.0247   16.3643 C   0  0  0  0  0  0  0  0  0  0  0  0
    3.9208    5.3529   15.0288 C   0  0  0  0  0  0  0  0  0  0  0  0
    3.3886    6.4550   14.8155 O   0  0  0  0  0  0  0  0  0  0  0  0
    4.0209    4.4039   13.9826 N   0  0  0  0  0  0  0  0  0  0  0  0
    4.4693    3.4713   14.1116 H   0  0  0  0  0  0  0  0  0  0  0  0
    3.4697    4.7356   12.6538 C   0  0  0  0  0  0  0  0  0  0  0  0
    2.1140    4.1910   12.5114 C   0  0  0  0  0  0  0  0  0  0  0  0
    1.1093    4.9965   12.5210 O   0  0  0  0  0  0  0  0  0  0  0  0
    1.8051    2.8752   12.3617 O   0  0  0  0  0  0  0  0  0  0  0  0
    1.2626    2.0876   13.4331 C   0  0  0  0  0  0  0  0  0  0  0  0
    4.3890    4.1780   11.6159 C   0  0  0  0  0  0  0  0  0  0  0  0
    4.9573    5.1272   10.6675 C   0  0  0  0  0  0  0  0  0  0  0  0
    4.2783    6.3319   10.4994 C   0  0  0  0  0  0  0  0  0  0  0  0
    4.7940    7.2545    9.6353 C   0  0  0  0  0  0  0  0  0  0  0  0
    5.9576    7.0368    8.9277 C   0  0  0  0  0  0  0  0  0  0  0  0
    6.6180    5.8103    9.1225 C   0  0  0  0  0  0  0  0  0  0  0  0
    6.1168    4.8819    9.9777 C   0  0  0  0  0  0  0  0  0  0  0  0
    5.4740    7.2398   21.2327 C   0  0  0  0  0  0  0  0  0  0  0  0
    4.8316    8.3217   21.5002 O   0  0  0  0  0  0  0  0  0  0  0  0
    5.2564    6.6667   19.9788 N   0  0  0  0  0  0  0  0  0  0  0  0
    5.7328    5.7981   19.6745 H   0  0  0  0  0  0  0  0  0  0  0  0
    6.3552    6.7544   22.2749 C   0  0  0  0  0  0  0  0  0  0  0  0
    5.8120    5.6283   22.9897 N   0  0  0  0  0  0  0  0  0  0  0  0
    4.5450    5.0385   22.9081 C   0  0  0  0  0  0  0  0  0  0  0  0
    3.5821    5.3663   22.1903 O   0  0  0  0  0  0  0  0  0  0  0  0
    6.4793    5.1552   23.7052 H   0  0  0  0  0  0  0  0  0  0  0  0
    4.2621    3.9148   23.7331 O   0  0  0  0  0  0  0  0  0  0  0  0
    4.9212    2.6865   23.5657 C   0  0  0  0  0  0  0  0  0  0  0  0
    4.4630    1.8918   22.4324 C   0  0  0  0  0  0  0  0  0  0  0  0
    5.2013    1.8839   21.2534 C   0  0  0  0  0  0  0  0  0  0  0  0
    4.8300    1.1660   20.1461 C   0  0  0  0  0  0  0  0  0  0  0  0
    3.6660    0.4036   20.1800 C   0  0  0  0  0  0  0  0  0  0  0  0
    2.9253    0.4048   21.3478 C   0  0  0  0  0  0  0  0  0  0  0  0
    3.3145    1.1342   22.4545 C   0  0  0  0  0  0  0  0  0  0  0  0
    7.7702    6.4244   21.8541 C   0  0  0  0  0  0  0  0  0  0  0  0
    8.3874    7.4696   20.9362 C   0  0  0  0  0  0  0  0  0  0  0  0
    8.5118    7.7747   23.8493 C   0  0  0  0  0  0  0  0  0  0  0  0
    8.6268    6.4535   23.1138 C   0  0  0  0  0  0  0  0  0  0  0  0
    5.0257    8.2900   18.1998 C   0  0  0  0  0  0  0  0  0  0  0  0
    4.3268    9.0931   17.1515 C   0  0  0  0  0  0  0  0  0  0  0  0
    5.2987    9.9868   16.4204 C   0  0  0  0  0  0  0  0  0  0  0  0
    6.3866    9.5248   16.0146 O   0  0  0  0  0  0  0  0  0  0  0  0
    5.0283   11.3295   16.1730 O   0  0  0  0  0  0  0  0  0  0  0  0
    5.3881   11.8289   15.3937 H   0  0  0  0  0  0  0  0  0  0  0  0
 44 45  1  0  0  0
 45 42  1  0  0  0
 42 43  1  0  0  0
 42 29  1  0  0  0
 29 30  1  0  0  0
 30 31  1  0  0  0
 31 32  2  0  0  0
 31 34  1  0  0  0
 34 35  1  0  0  0
 35 36  1  0  0  0
 36 37  2  0  0  0
 37 38  1  0  0  0
 38 39  2  0  0  0
 39 40  1  0  0  0
 40 41  2  0  0  0
 29 25  1  0  0  0
 25 26  2  0  0  0
 25 27  1  0  0  0
 27  1  1  0  0  0
  1 46  1  0  0  0
 46 47  1  0  0  0
 47 48  1  0  0  0
 48 49  2  0  0  0
 48 50  1  0  0  0
  1  2  1  0  0  0
  2  3  2  0  0  0
  2  4  1  0  0  0
  4  5  1  0  0  0
  5  6  1  0  0  0
  6  7  1  0  0  0
  7  8  1  0  0  0
  8  9  1  0  0  0
  9 10  2  0  0  0
  9 11  1  0  0  0
 11 13  1  0  0  0
 13 18  1  0  0  0
 18 19  1  0  0  0
 19 20  2  0  0  0
 20 21  1  0  0  0
 21 22  2  0  0  0
 22 23  1  0  0  0
 23 24  2  0  0  0
 13 14  1  0  0  0
 14 15  2  0  0  0
 14 16  1  0  0  0
 16 17  1  0  0  0
 41 36  1  0  0  0
  8  4  1  0  0  0
 24 19  1  0  0  0
 30 33  1  0  0  0
 27 28  1  0  0  0
 50 51  1  0  0  0
 11 12  1  0  0  0
M  END
> <minimizedAffinity>
-7.83543

> <CNNscore>
0.1890961677

> <CNNaffinity>
6.6398262978

> <CNN_VS>
1.2555657625

> <CNNaffinity_variance>
0.3047426343

$$$$
[H]OC(=O)C([H])([H])C([H])([H])[C@@]([H])(C(=O)N1C([H])([H])C([H])([H])C([H])([H])[C@@]1([H])C(=O)N([H])[C@]([H])(C(=O)OC([H])([H])[H])C([H])([H])c1c([H])c([H])c([H])c([H])c1[H])N([H])C(=O)[C@@]([H])(N([H])C(=O)OC([H])([H])c1c([H])c([H])c([H])c([H])c1[H])[C@@]([H])(C([H])([H])[H])C([H])([H])C([H])([H])[H]


 51 53  0  0  0  0  0  0  0  0999 V2000
    4.2204    7.8033   17.2925 C   0  0  0  0  0  0  0  0  0  0  0  0
    3.5728    6.5230   17.2478 C   0  0  0  0  0  0  0  0  0  0  0  0
    3.1432    6.1861   18.4942 O   0  0  0  0  0  0  0  0  0  0  0  0
    3.2562    5.5269   16.3485 N   0  0  0  0  0  0  0  0  0  0  0  0
    2.4993    4.3088   16.7562 C   0  0  0  0  0  0  0  0  0  0  0  0
    3.4398    3.2322   16.2563 C   0  0  0  0  0  0  0  0  0  0  0  0
    3.9199    3.7880   14.9587 C   0  0  0  0  0  0  0  0  0  0  0  0
    3.5323    5.2897   14.9813 C   0  0  0  0  0  0  0  0  0  0  0  0
    2.3910    5.3937   14.0570 C   0  0  0  0  0  0  0  0  0  0  0  0
    1.9028    4.3736   13.5427 O   0  0  0  0  0  0  0  0  0  0  0  0
    1.8492    6.6658   13.7515 N   0  0  0  0  0  0  0  0  0  0  0  0
    2.2182    7.5479   14.1677 H   0  0  0  0  0  0  0  0  0  0  0  0
    0.7193    6.7596   12.8058 C   0  0  0  0  0  0  0  0  0  0  0  0
   -0.5166    6.2796   13.4358 C   0  0  0  0  0  0  0  0  0  0  0  0
   -0.8306    6.7071   14.6093 O   0  0  0  0  0  0  0  0  0  0  0  0
   -1.3939    5.4009   12.8813 O   0  0  0  0  0  0  0  0  0  0  0  0
   -2.5333    5.8310   12.1203 C   0  0  0  0  0  0  0  0  0  0  0  0
    1.0580    5.9531   11.5941 C   0  0  0  0  0  0  0  0  0  0  0  0
    1.3433    6.6955   10.3731 C   0  0  0  0  0  0  0  0  0  0  0  0
    0.5319    6.4313    9.2719 C   0  0  0  0  0  0  0  0  0  0  0  0
    0.7559    7.1245    8.1173 C   0  0  0  0  0  0  0  0  0  0  0  0
    1.7514    8.0723    8.0041 C   0  0  0  0  0  0  0  0  0  0  0  0
    2.5510    8.3147    9.1357 C   0  0  0  0  0  0  0  0  0  0  0  0
    2.3413    7.6323   10.2910 C   0  0  0  0  0  0  0  0  0  0  0  0
    4.3245    8.7796   19.6402 C   0  0  0  0  0  0  0  0  0  0  0  0
    3.4600    9.6342   19.2197 O   0  0  0  0  0  0  0  0  0  0  0  0
    4.7616    7.8181   18.7276 N   0  0  0  0  0  0  0  0  0  0  0  0
    5.4589    7.0928   18.9757 H   0  0  0  0  0  0  0  0  0  0  0  0
    4.7433    8.9308   21.0186 C   0  0  0  0  0  0  0  0  0  0  0  0
    4.5996    7.7198   21.7848 N   0  0  0  0  0  0  0  0  0  0  0  0
    5.2514    6.4882   21.6497 C   0  0  0  0  0  0  0  0  0  0  0  0
    6.1133    6.1548   20.8156 O   0  0  0  0  0  0  0  0  0  0  0  0
    3.8768    7.7556   22.5956 H   0  0  0  0  0  0  0  0  0  0  0  0
    4.9238    5.4410   22.5549 O   0  0  0  0  0  0  0  0  0  0  0  0
    4.0443    4.4045   22.2036 C   0  0  0  0  0  0  0  0  0  0  0  0
    4.6893    3.1669   21.7814 C   0  0  0  0  0  0  0  0  0  0  0  0
    5.8860    2.7770   22.3740 C   0  0  0  0  0  0  0  0  0  0  0  0
    6.5519    1.6306   22.0250 C   0  0  0  0  0  0  0  0  0  0  0  0
    6.0258    0.8044   21.0360 C   0  0  0  0  0  0  0  0  0  0  0  0
    4.8363    1.1834   20.4412 C   0  0  0  0  0  0  0  0  0  0  0  0
    4.1785    2.3423   20.8055 C   0  0  0  0  0  0  0  0  0  0  0  0
    6.1353    9.4805   21.2381 C   0  0  0  0  0  0  0  0  0  0  0  0
    6.3236   10.8870   20.6882 C   0  0  0  0  0  0  0  0  0  0  0  0
    7.3458   10.6864   23.0914 C   0  0  0  0  0  0  0  0  0  0  0  0
    6.3264    9.6190   22.7434 C   0  0  0  0  0  0  0  0  0  0  0  0
    5.2541    8.3009   16.4087 C   0  0  0  0  0  0  0  0  0  0  0  0
    4.8870    8.9227   15.1006 C   0  0  0  0  0  0  0  0  0  0  0  0
    3.6089    9.7164   15.2213 C   0  0  0  0  0  0  0  0  0  0  0  0
    3.6376   10.8787   15.6793 O   0  0  0  0  0  0  0  0  0  0  0  0
    2.3761    9.1987   14.8349 O   0  0  0  0  0  0  0  0  0  0  0  0
    1.6232    9.7568   14.5069 H   0  0  0  0  0  0  0  0  0  0  0  0
 44 45  1  0  0  0
 45 42  1  0  0  0
 42 43  1  0  0  0
 42 29  1  0  0  0
 29 30  1  0  0  0
 30 31  1  0  0  0
 31 32  2  0  0  0
 31 34  1  0  0  0
 34 35  1  0  0  0
 35 36  1  0  0  0
 36 37  2  0  0  0
 37 38  1  0  0  0
 38 39  2  0  0  0
 39 40  1  0  0  0
 40 41  2  0  0  0
 29 25  1  0  0  0
 25 26  2  0  0  0
 25 27  1  0  0  0
 27  1  1  0  0  0
  1 46  1  0  0  0
 46 47  1  0  0  0
 47 48  1  0  0  0
 48 49  2  0  0  0
 48 50  1  0  0  0
  1  2  1  0  0  0
  2  3  2  0  0  0
  2  4  1  0  0  0
  4  5  1  0  0  0
  5  6  1  0  0  0
  6  7  1  0  0  0
  7  8  1  0  0  0
  8  9  1  0  0  0
  9 10  2  0  0  0
  9 11  1  0  0  0
 11 13  1  0  0  0
 13 18  1  0  0  0
 18 19  1  0  0  0
 19 20  2  0  0  0
 20 21  1  0  0  0
 21 22  2  0  0  0
 22 23  1  0  0  0
 23 24  2  0  0  0
 13 14  1  0  0  0
 14 15  2  0  0  0
 14 16  1  0  0  0
 16 17  1  0  0  0
 41 36  1  0  0  0
  8  4  1  0  0  0
 24 19  1  0  0  0
 30 33  1  0  0  0
 27 28  1  0  0  0
 50 51  1  0  0  0
 11 12  1  0  0  0
M  END
> <minimizedAffinity>
-8.39697

> <CNNscore>
0.1599399596

> <CNNaffinity>
6.2781682014

> <CNN_VS>
1.0041300058

> <CNNaffinity_variance>
0.3052313924

$$$$
[H]Oc1c([H])c([H])c([H])c(C2([H])C([H])([H])N(C([H])([H])C([H])([H])C([H])([H])C([H])([H])C([H])([H])C([H])([H])C([H])([H])C([H])([H])C([H])([H])[H])C([H])([H])C2([H])[H])c1[H]


 22 23  0  0  0  0  0  0  0  0999 V2000
    5.0499    4.9046   19.8493 N   0  0  0  0  0  0  0  0  0  0  0  0
    5.4789    5.6563   18.7016 C   0  0  0  0  0  0  0  0  0  0  0  0
    5.6166    4.6714   17.5679 C   0  0  0  0  0  0  0  0  0  0  0  0
    5.0092    3.4062   18.1001 C   0  0  0  0  0  0  0  0  0  0  0  0
    4.2263    3.8229   19.2885 C   0  0  0  0  0  0  0  0  0  0  0  0
    4.1780    2.7170   17.0736 C   0  0  0  0  0  0  0  0  0  0  0  0
    4.0932    3.2787   15.8184 C   0  0  0  0  0  0  0  0  0  0  0  0
    3.3299    2.6700   14.8164 C   0  0  0  0  0  0  0  0  0  0  0  0
    2.6665    1.4995   15.1115 C   0  0  0  0  0  0  0  0  0  0  0  0
    2.7660    0.9606   16.3664 C   0  0  0  0  0  0  0  0  0  0  0  0
    2.0904   -0.2168   16.6404 O   0  0  0  0  0  0  0  0  0  0  0  0
    3.5228    1.5543   17.3782 C   0  0  0  0  0  0  0  0  0  0  0  0
    1.5266   -0.6835   15.9354 H   0  0  0  0  0  0  0  0  0  0  0  0
    4.3106    5.6473   20.8153 C   0  0  0  0  0  0  0  0  0  0  0  0
    4.7147    5.4153   22.2362 C   0  0  0  0  0  0  0  0  0  0  0  0
    3.9094    4.3832   22.9432 C   0  0  0  0  0  0  0  0  0  0  0  0
    4.6582    3.1855   23.4245 C   0  0  0  0  0  0  0  0  0  0  0  0
    6.0436    3.0750   22.7385 C   0  0  0  0  0  0  0  0  0  0  0  0
    6.2731    1.6974   22.2526 C   0  0  0  0  0  0  0  0  0  0  0  0
    5.5967    1.2269   21.0393 C   0  0  0  0  0  0  0  0  0  0  0  0
    3.1833    0.7335   21.1906 C   0  0  0  0  0  0  0  0  0  0  0  0
    4.5575    0.1695   21.1169 C   0  0  0  0  0  0  0  0  0  0  0  0
 21 22  1  0  0  0
 22 20  1  0  0  0
 20 19  1  0  0  0
 19 18  1  0  0  0
 18 17  1  0  0  0
 17 16  1  0  0  0
 16 15  1  0  0  0
 15 14  1  0  0  0
 14  1  1  0  0  0
  1  2  1  0  0  0
  2  3  1  0  0  0
  3  4  1  0  0  0
  4  6  1  0  0  0
  6  7  2  0  0  0
  7  8  1  0  0  0
  8  9  2  0  0  0
  9 10  1  0  0  0
 10 11  1  0  0  0
 10 12  2  0  0  0
  4  5  1  0  0  0
  5  1  1  0  0  0
 12  6  1  0  0  0
 11 13  1  0  0  0
M  END
> <minimizedAffinity>
-7.30578

> <CNNscore>
0.6468333602

> <CNNaffinity>
5.7666640282

> <CNN_VS>
3.7300705910

> <CNNaffinity_variance>
0.5073569417

$$$$
[H]Oc1c([H])c([H])c([H])c(C2([H])C([H])([H])N(C([H])([H])C([H])([H])C([H])([H])C([H])([H])C([H])([H])C([H])([H])C([H])([H])C([H])([H])C([H])([H])[H])C([H])([H])C2([H])[H])c1[H]


 22 23  0  0  0  0  0  0  0  0999 V2000
    2.8937    3.3976   13.1530 N   0  0  0  0  0  0  0  0  0  0  0  0
    1.5460    2.9754   13.4209 C   0  0  0  0  0  0  0  0  0  0  0  0
    1.6424    1.7812   14.3369 C   0  0  0  0  0  0  0  0  0  0  0  0
    3.0882    1.7370   14.7376 C   0  0  0  0  0  0  0  0  0  0  0  0
    3.6286    3.0721   14.3846 C   0  0  0  0  0  0  0  0  0  0  0  0
    3.2523    1.4111   16.1821 C   0  0  0  0  0  0  0  0  0  0  0  0
    4.1275    2.1710   16.9269 C   0  0  0  0  0  0  0  0  0  0  0  0
    4.3156    1.9101   18.2883 C   0  0  0  0  0  0  0  0  0  0  0  0
    3.6084    0.8793   18.8667 C   0  0  0  0  0  0  0  0  0  0  0  0
    2.7443    0.1380   18.1056 C   0  0  0  0  0  0  0  0  0  0  0  0
    2.0440   -0.8935   18.7083 O   0  0  0  0  0  0  0  0  0  0  0  0
    2.5444    0.3841   16.7461 C   0  0  0  0  0  0  0  0  0  0  0  0
    2.1585   -1.1098   19.6946 H   0  0  0  0  0  0  0  0  0  0  0  0
    3.0410    4.7785   12.8323 C   0  0  0  0  0  0  0  0  0  0  0  0
    3.5521    5.6355   13.9460 C   0  0  0  0  0  0  0  0  0  0  0  0
    2.7121    6.8281   14.2387 C   0  0  0  0  0  0  0  0  0  0  0  0
    2.9719    8.0334   13.3981 C   0  0  0  0  0  0  0  0  0  0  0  0
    1.6819    8.5093   12.6828 C   0  0  0  0  0  0  0  0  0  0  0  0
    1.4204    7.6854   11.4831 C   0  0  0  0  0  0  0  0  0  0  0  0
    0.1980    6.8792   11.4010 C   0  0  0  0  0  0  0  0  0  0  0  0
   -1.2600    5.2484   12.5436 C   0  0  0  0  0  0  0  0  0  0  0  0
   -0.5866    6.5720   12.6233 C   0  0  0  0  0  0  0  0  0  0  0  0
 21 22  1  0  0  0
 22 20  1  0  0  0
 20 19  1  0  0  0
 19 18  1  0  0  0
 18 17  1  0  0  0
 17 16  1  0  0  0
 16 15  1  0  0  0
 15 14  1  0  0  0
 14  1  1  0  0  0
  1  2  1  0  0  0
  2  3  1  0  0  0
  3  4  1  0  0  0
  4  6  1  0  0  0
  6  7  2  0  0  0
  7  8  1  0  0  0
  8  9  2  0  0  0
  9 10  1  0  0  0
 10 11  1  0  0  0
 10 12  2  0  0  0
  4  5  1  0  0  0
  5  1  1  0  0  0
 12  6  1  0  0  0
 11 13  1  0  0  0
M  END
> <minimizedAffinity>
-5.69046

> <CNNscore>
0.4526534081

> <CNNaffinity>
5.0466427803

> <CNN_VS>
2.2843799591

> <CNNaffinity_variance>
0.1858216524

$$$$
[H]Oc1c([H])c([H])c([H])c(C2([H])C([H])([H])N(C([H])([H])C([H])([H])C([H])([H])C([H])([H])C([H])([H])C([H])([H])C([H])([H])C([H])([H])C([H])([H])[H])C([H])([H])C2([H])[H])c1[H]


 22 23  0  0  0  0  0  0  0  0999 V2000
    3.4782    0.3220   18.0518 N   0  0  0  0  0  0  0  0  0  0  0  0
    2.7684   -0.1799   19.1966 C   0  0  0  0  0  0  0  0  0  0  0  0
    3.3737    0.4874   20.4059 C   0  0  0  0  0  0  0  0  0  0  0  0
    4.2714    1.5462   19.8347 C   0  0  0  0  0  0  0  0  0  0  0  0
    3.8417    1.6977   18.4235 C   0  0  0  0  0  0  0  0  0  0  0  0
    4.1854    2.8188   20.6044 C   0  0  0  0  0  0  0  0  0  0  0  0
    4.2543    4.0069   19.9103 C   0  0  0  0  0  0  0  0  0  0  0  0
    4.1741    5.2304   20.5840 C   0  0  0  0  0  0  0  0  0  0  0  0
    4.0252    5.2213   21.9533 C   0  0  0  0  0  0  0  0  0  0  0  0
    3.9593    4.0276   22.6211 C   0  0  0  0  0  0  0  0  0  0  0  0
    3.8095    4.0427   23.9976 O   0  0  0  0  0  0  0  0  0  0  0  0
    4.0377    2.7977   21.9652 C   0  0  0  0  0  0  0  0  0  0  0  0
    3.7493    4.9140   24.5171 H   0  0  0  0  0  0  0  0  0  0  0  0
    2.7408    0.3113   16.8321 C   0  0  0  0  0  0  0  0  0  0  0  0
    2.4339    1.6611   16.2666 C   0  0  0  0  0  0  0  0  0  0  0  0
    2.8030    1.8258   14.8348 C   0  0  0  0  0  0  0  0  0  0  0  0
    3.5597    3.0656   14.4926 C   0  0  0  0  0  0  0  0  0  0  0  0
    2.6051    4.2025   14.0470 C   0  0  0  0  0  0  0  0  0  0  0  0
    1.4699    3.6533   13.2748 C   0  0  0  0  0  0  0  0  0  0  0  0
    1.2357    4.1020   11.8983 C   0  0  0  0  0  0  0  0  0  0  0  0
    1.1862    1.7133   11.2798 C   0  0  0  0  0  0  0  0  0  0  0  0
    1.0371    3.1154   10.8068 C   0  0  0  0  0  0  0  0  0  0  0  0
 21 22  1  0  0  0
 22 20  1  0  0  0
 20 19  1  0  0  0
 19 18  1  0  0  0
 18 17  1  0  0  0
 17 16  1  0  0  0
 16 15  1  0  0  0
 15 14  1  0  0  0
 14  1  1  0  0  0
  1  2  1  0  0  0
  2  3  1  0  0  0
  3  4  1  0  0  0
  4  6  1  0  0  0
  6  7  2  0  0  0
  7  8  1  0  0  0
  8  9  2  0  0  0
  9 10  1  0  0  0
 10 11  1  0  0  0
 10 12  2  0  0  0
  4  5  1  0  0  0
  5  1  1  0  0  0
 12  6  1  0  0  0
 11 13  1  0  0  0
M  END
> <minimizedAffinity>
-5.67188

> <CNNscore>
0.3833414316

> <CNNaffinity>
5.6951208115

> <CNN_VS>
2.1831758022

> <CNNaffinity_variance>
0.2200622857

$$$$
[H]Oc1c([H])c([H])c([H])c(C2([H])C([H])([H])N(C([H])([H])C([H])([H])C([H])([H])C([H])([H])C([H])([H])C([H])([H])C([H])([H])C([H])([H])C([H])([H])[H])C([H])([H])C2([H])[H])c1[H]


 22 23  0  0  0  0  0  0  0  0999 V2000
    4.4881    6.5257   18.5403 N   0  0  0  0  0  0  0  0  0  0  0  0
    5.8538    6.0776   18.5526 C   0  0  0  0  0  0  0  0  0  0  0  0
    6.2132    5.8294   19.9961 C   0  0  0  0  0  0  0  0  0  0  0  0
    4.9060    5.9324   20.7266 C   0  0  0  0  0  0  0  0  0  0  0  0
    3.8657    5.8272   19.6750 C   0  0  0  0  0  0  0  0  0  0  0  0
    4.7745    4.8832   21.7761 C   0  0  0  0  0  0  0  0  0  0  0  0
    3.6496    4.8938   22.5716 C   0  0  0  0  0  0  0  0  0  0  0  0
    3.4744    3.9286   23.5690 C   0  0  0  0  0  0  0  0  0  0  0  0
    4.4487    2.9698   23.7381 C   0  0  0  0  0  0  0  0  0  0  0  0
    5.5579    2.9801   22.9351 C   0  0  0  0  0  0  0  0  0  0  0  0
    6.5245    2.0065   23.1232 O   0  0  0  0  0  0  0  0  0  0  0  0
    5.7493    3.9354   21.9353 C   0  0  0  0  0  0  0  0  0  0  0  0
    6.4283    1.2921   23.8394 H   0  0  0  0  0  0  0  0  0  0  0  0
    3.7756    6.2572   17.3354 C   0  0  0  0  0  0  0  0  0  0  0  0
    2.5792    5.3738   17.4915 C   0  0  0  0  0  0  0  0  0  0  0  0
    2.6069    4.1475   16.6495 C   0  0  0  0  0  0  0  0  0  0  0  0
    3.9601    3.6322   16.2886 C   0  0  0  0  0  0  0  0  0  0  0  0
    4.2338    2.2578   16.9506 C   0  0  0  0  0  0  0  0  0  0  0  0
    4.8151    2.4380   18.2983 C   0  0  0  0  0  0  0  0  0  0  0  0
    4.0243    2.1041   19.4873 C   0  0  0  0  0  0  0  0  0  0  0  0
    3.2152    0.5078   21.1868 C   0  0  0  0  0  0  0  0  0  0  0  0
    4.3315    0.8871   20.2802 C   0  0  0  0  0  0  0  0  0  0  0  0
 21 22  1  0  0  0
 22 20  1  0  0  0
 20 19  1  0  0  0
 19 18  1  0  0  0
 18 17  1  0  0  0
 17 16  1  0  0  0
 16 15  1  0  0  0
 15 14  1  0  0  0
 14  1  1  0  0  0
  1  2  1  0  0  0
  2  3  1  0  0  0
  3  4  1  0  0  0
  4  6  1  0  0  0
  6  7  2  0  0  0
  7  8  1  0  0  0
  8  9  2  0  0  0
  9 10  1  0  0  0
 10 11  1  0  0  0
 10 12  2  0  0  0
  4  5  1  0  0  0
  5  1  1  0  0  0
 12  6  1  0  0  0
 11 13  1  0  0  0
M  END
> <minimizedAffinity>
-5.97623

> <CNNscore>
0.3825360835

> <CNNaffinity>
5.5520772934

> <CNN_VS>
2.1238698959

> <CNNaffinity_variance>
0.2368900329

$$$$
[H]Oc1c([H])c([H])c([H])c(C2([H])C([H])([H])N(C([H])([H])C([H])([H])C([H])([H])C([H])([H])C([H])([H])C([H])([H])C([H])([H])C([H])([H])C([H])([H])[H])C([H])([H])C2([H])[H])c1[H]


 22 23  0  0  0  0  0  0  0  0999 V2000
    3.9048    0.9446   18.2164 N   0  0  0  0  0  0  0  0  0  0  0  0
    3.0049    0.2225   19.0737 C   0  0  0  0  0  0  0  0  0  0  0  0
    3.4551    0.4834   20.4891 C   0  0  0  0  0  0  0  0  0  0  0  0
    4.4833    1.5689   20.3570 C   0  0  0  0  0  0  0  0  0  0  0  0
    4.2801    2.1313   19.0000 C   0  0  0  0  0  0  0  0  0  0  0  0
    4.3494    2.5917   21.4319 C   0  0  0  0  0  0  0  0  0  0  0  0
    4.4395    2.1764   22.7425 C   0  0  0  0  0  0  0  0  0  0  0  0
    4.3252    3.0965   23.7901 C   0  0  0  0  0  0  0  0  0  0  0  0
    4.1210    4.4237   23.4835 C   0  0  0  0  0  0  0  0  0  0  0  0
    4.0347    4.8122   22.1731 C   0  0  0  0  0  0  0  0  0  0  0  0
    3.8291    6.1518   21.8886 O   0  0  0  0  0  0  0  0  0  0  0  0
    4.1463    3.9080   21.1154 C   0  0  0  0  0  0  0  0  0  0  0  0
    3.7406    6.8453   22.6260 H   0  0  0  0  0  0  0  0  0  0  0  0
    3.3604    1.3284   16.9563 C   0  0  0  0  0  0  0  0  0  0  0  0
    3.7648    2.6869   16.4800 C   0  0  0  0  0  0  0  0  0  0  0  0
    3.5396    2.9211   15.0281 C   0  0  0  0  0  0  0  0  0  0  0  0
    2.7571    1.8727   14.3100 C   0  0  0  0  0  0  0  0  0  0  0  0
    2.5806    2.2296   12.8121 C   0  0  0  0  0  0  0  0  0  0  0  0
    2.2891    3.6705   12.6533 C   0  0  0  0  0  0  0  0  0  0  0  0
    3.1561    4.5048   11.8148 C   0  0  0  0  0  0  0  0  0  0  0  0
    5.5000    4.6351   11.0531 C   0  0  0  0  0  0  0  0  0  0  0  0
    4.2162    3.8881   10.9780 C   0  0  0  0  0  0  0  0  0  0  0  0
 21 22  1  0  0  0
 22 20  1  0  0  0
 20 19  1  0  0  0
 19 18  1  0  0  0
 18 17  1  0  0  0
 17 16  1  0  0  0
 16 15  1  0  0  0
 15 14  1  0  0  0
 14  1  1  0  0  0
  1  2  1  0  0  0
  2  3  1  0  0  0
  3  4  1  0  0  0
  4  6  1  0  0  0
  6  7  2  0  0  0
  7  8  1  0  0  0
  8  9  2  0  0  0
  9 10  1  0  0  0
 10 11  1  0  0  0
 10 12  2  0  0  0
  4  5  1  0  0  0
  5  1  1  0  0  0
 12  6  1  0  0  0
 11 13  1  0  0  0
M  END
> <minimizedAffinity>
-6.33406

> <CNNscore>
0.3630133271

> <CNNaffinity>
5.6909737587

> <CNN_VS>
2.0658993721

> <CNNaffinity_variance>
0.3547479510

$$$$
[H]Oc1c([H])c([H])c([H])c(C2([H])C([H])([H])N(C([H])([H])C([H])([H])C([H])([H])C([H])([H])C([H])([H])C([H])([H])C([H])([H])C([H])([H])C([H])([H])[H])C([H])([H])C2([H])[H])c1[H]


 22 23  0  0  0  0  0  0  0  0999 V2000
    4.5636    4.3616   19.4332 N   0  0  0  0  0  0  0  0  0  0  0  0
    5.5839    5.0053   18.6517 C   0  0  0  0  0  0  0  0  0  0  0  0
    5.6994    4.2249   17.3664 C   0  0  0  0  0  0  0  0  0  0  0  0
    4.5289    3.2857   17.3966 C   0  0  0  0  0  0  0  0  0  0  0  0
    3.6222    3.8306   18.4358 C   0  0  0  0  0  0  0  0  0  0  0  0
    3.8760    3.1723   16.0623 C   0  0  0  0  0  0  0  0  0  0  0  0
    4.2545    4.0542   15.0737 C   0  0  0  0  0  0  0  0  0  0  0  0
    3.6760    3.9883   13.8017 C   0  0  0  0  0  0  0  0  0  0  0  0
    2.7219    3.0248   13.5596 C   0  0  0  0  0  0  0  0  0  0  0  0
    2.3622    2.1597   14.5583 C   0  0  0  0  0  0  0  0  0  0  0  0
    1.4008    1.1992   14.2922 O   0  0  0  0  0  0  0  0  0  0  0  0
    2.9287    2.2110   15.8332 C   0  0  0  0  0  0  0  0  0  0  0  0
    0.9603    1.1253   13.3794 H   0  0  0  0  0  0  0  0  0  0  0  0
    3.8874    5.2090   20.3584 C   0  0  0  0  0  0  0  0  0  0  0  0
    4.7776    5.9548   21.3003 C   0  0  0  0  0  0  0  0  0  0  0  0
    5.1006    5.2193   22.5526 C   0  0  0  0  0  0  0  0  0  0  0  0
    3.9659    4.4959   23.1977 C   0  0  0  0  0  0  0  0  0  0  0  0
    4.3591    3.0410   23.5595 C   0  0  0  0  0  0  0  0  0  0  0  0
    3.7991    2.0922   22.5732 C   0  0  0  0  0  0  0  0  0  0  0  0
    4.6533    1.5517   21.5106 C   0  0  0  0  0  0  0  0  0  0  0  0
    3.2440   -0.4281   21.0807 C   0  0  0  0  0  0  0  0  0  0  0  0
    4.0929    0.6373   20.4840 C   0  0  0  0  0  0  0  0  0  0  0  0
 21 22  1  0  0  0
 22 20  1  0  0  0
 20 19  1  0  0  0
 19 18  1  0  0  0
 18 17  1  0  0  0
 17 16  1  0  0  0
 16 15  1  0  0  0
 15 14  1  0  0  0
 14  1  1  0  0  0
  1  2  1  0  0  0
  2  3  1  0  0  0
  3  4  1  0  0  0
  4  6  1  0  0  0
  6  7  2  0  0  0
  7  8  1  0  0  0
  8  9  2  0  0  0
  9 10  1  0  0  0
 10 11  1  0  0  0
 10 12  2  0  0  0
  4  5  1  0  0  0
  5  1  1  0  0  0
 12  6  1  0  0  0
 11 13  1  0  0  0
M  END
> <minimizedAffinity>
-6.34010

> <CNNscore>
0.3477897644

> <CNNaffinity>
5.6017675400

> <CNN_VS>
1.9482374191

> <CNNaffinity_variance>
0.2490545213

$$$$
[H]Oc1c([H])c([H])c([H])c(C2([H])C([H])([H])N(C([H])([H])C([H])([H])C([H])([H])C([H])([H])C([H])([H])C([H])([H])C([H])([H])C([H])([H])C([H])([H])[H])C([H])([H])C2([H])[H])c1[H]


 22 23  0  0  0  0  0  0  0  0999 V2000
    3.6248    1.6701   15.7482 N   0  0  0  0  0  0  0  0  0  0  0  0
    2.5903    0.7923   16.2231 C   0  0  0  0  0  0  0  0  0  0  0  0
    3.0091    0.3366   17.5983 C   0  0  0  0  0  0  0  0  0  0  0  0
    4.1907    1.2002   17.9311 C   0  0  0  0  0  0  0  0  0  0  0  0
    4.1345    2.3226   16.9636 C   0  0  0  0  0  0  0  0  0  0  0  0
    4.1600    1.6576   19.3487 C   0  0  0  0  0  0  0  0  0  0  0  0
    3.7160    0.7755   20.3093 C   0  0  0  0  0  0  0  0  0  0  0  0
    3.6713    1.1527   21.6557 C   0  0  0  0  0  0  0  0  0  0  0  0
    4.0798    2.4225   21.9992 C   0  0  0  0  0  0  0  0  0  0  0  0
    4.5168    3.2815   21.0264 C   0  0  0  0  0  0  0  0  0  0  0  0
    4.9226    4.5531   21.3950 O   0  0  0  0  0  0  0  0  0  0  0  0
    4.5680    2.9220   19.6784 C   0  0  0  0  0  0  0  0  0  0  0  0
    4.9013    4.8589   22.3638 H   0  0  0  0  0  0  0  0  0  0  0  0
    3.2008    2.6437   14.7975 C   0  0  0  0  0  0  0  0  0  0  0  0
    2.1461    2.1798   13.8444 C   0  0  0  0  0  0  0  0  0  0  0  0
    1.3627    3.2762   13.2138 C   0  0  0  0  0  0  0  0  0  0  0  0
    1.6684    4.6568   13.6909 C   0  0  0  0  0  0  0  0  0  0  0  0
    1.9100    5.6220   12.5025 C   0  0  0  0  0  0  0  0  0  0  0  0
    1.2532    6.9235   12.7501 C   0  0  0  0  0  0  0  0  0  0  0  0
   -0.0770    7.1899   12.1931 C   0  0  0  0  0  0  0  0  0  0  0  0
   -1.6261    6.7994   14.0743 C   0  0  0  0  0  0  0  0  0  0  0  0
   -1.2622    6.4387   12.6781 C   0  0  0  0  0  0  0  0  0  0  0  0
 21 22  1  0  0  0
 22 20  1  0  0  0
 20 19  1  0  0  0
 19 18  1  0  0  0
 18 17  1  0  0  0
 17 16  1  0  0  0
 16 15  1  0  0  0
 15 14  1  0  0  0
 14  1  1  0  0  0
  1  2  1  0  0  0
  2  3  1  0  0  0
  3  4  1  0  0  0
  4  6  1  0  0  0
  6  7  2  0  0  0
  7  8  1  0  0  0
  8  9  2  0  0  0
  9 10  1  0  0  0
 10 11  1  0  0  0
 10 12  2  0  0  0
  4  5  1  0  0  0
  5  1  1  0  0  0
 12  6  1  0  0  0
 11 13  1  0  0  0
M  END
> <minimizedAffinity>
-5.76270

> <CNNscore>
0.3446141779

> <CNNaffinity>
5.3030233383

> <CNN_VS>
1.8274970055

> <CNNaffinity_variance>
0.2386266291

$$$$
[H]Oc1c([H])c([H])c([H])c(C2([H])C([H])([H])N(C([H])([H])C([H])([H])C([H])([H])C([H])([H])C([H])([H])C([H])([H])C([H])([H])C([H])([H])C([H])([H])[H])C([H])([H])C2([H])[H])c1[H]


 22 23  0  0  0  0  0  0  0  0999 V2000
    3.4506    2.6759   14.7686 N   0  0  0  0  0  0  0  0  0  0  0  0
    2.3137    1.8086   14.9149 C   0  0  0  0  0  0  0  0  0  0  0  0
    2.6339    0.8652   16.0471 C   0  0  0  0  0  0  0  0  0  0  0  0
    3.8872    1.4258   16.6536 C   0  0  0  0  0  0  0  0  0  0  0  0
    3.9830    2.8110   16.1329 C   0  0  0  0  0  0  0  0  0  0  0  0
    3.8549    1.3693   18.1420 C   0  0  0  0  0  0  0  0  0  0  0  0
    4.4294    2.4044   18.8467 C   0  0  0  0  0  0  0  0  0  0  0  0
    4.4226    2.4030   20.2456 C   0  0  0  0  0  0  0  0  0  0  0  0
    3.8304    1.3465   20.9017 C   0  0  0  0  0  0  0  0  0  0  0  0
    3.2660    0.3293   20.1792 C   0  0  0  0  0  0  0  0  0  0  0  0
    2.6763   -0.7226   20.8600 O   0  0  0  0  0  0  0  0  0  0  0  0
    3.2638    0.3142   18.7833 C   0  0  0  0  0  0  0  0  0  0  0  0
    2.6554   -0.7546   21.8755 H   0  0  0  0  0  0  0  0  0  0  0  0
    3.1646    3.9573   14.2137 C   0  0  0  0  0  0  0  0  0  0  0  0
    2.9947    3.9796   12.7283 C   0  0  0  0  0  0  0  0  0  0  0  0
    1.7087    4.5676   12.2658 C   0  0  0  0  0  0  0  0  0  0  0  0
    0.8981    3.7226   11.3407 C   0  0  0  0  0  0  0  0  0  0  0  0
   -0.4445    4.4090   10.9825 C   0  0  0  0  0  0  0  0  0  0  0  0
   -1.2253    4.6908   12.2062 C   0  0  0  0  0  0  0  0  0  0  0  0
   -1.8425    6.0080   12.3937 C   0  0  0  0  0  0  0  0  0  0  0  0
   -0.3131    6.8335   14.1459 C   0  0  0  0  0  0  0  0  0  0  0  0
   -1.7247    6.7183   13.6920 C   0  0  0  0  0  0  0  0  0  0  0  0
 21 22  1  0  0  0
 22 20  1  0  0  0
 20 19  1  0  0  0
 19 18  1  0  0  0
 18 17  1  0  0  0
 17 16  1  0  0  0
 16 15  1  0  0  0
 15 14  1  0  0  0
 14  1  1  0  0  0
  1  2  1  0  0  0
  2  3  1  0  0  0
  3  4  1  0  0  0
  4  6  1  0  0  0
  6  7  2  0  0  0
  7  8  1  0  0  0
  8  9  2  0  0  0
  9 10  1  0  0  0
 10 11  1  0  0  0
 10 12  2  0  0  0
  4  5  1  0  0  0
  5  1  1  0  0  0
 12  6  1  0  0  0
 11 13  1  0  0  0
M  END
> <minimizedAffinity>
-5.63297

> <CNNscore>
0.3324947357

> <CNNaffinity>
5.3668680191

> <CNN_VS>
1.7844554186

> <CNNaffinity_variance>
0.1295013577

$$$$
[H]Oc1c([H])c([H])c([H])c(C2([H])C([H])([H])N(C([H])([H])C([H])([H])C([H])([H])C([H])([H])C([H])([H])C([H])([H])C([H])([H])C([H])([H])C([H])([H])[H])C([H])([H])C2([H])[H])c1[H]


 22 23  0  0  0  0  0  0  0  0999 V2000
    3.9298    3.7486   16.4327 N   0  0  0  0  0  0  0  0  0  0  0  0
    5.1816    4.3167   16.8527 C   0  0  0  0  0  0  0  0  0  0  0  0
    5.2458    4.1586   18.3510 C   0  0  0  0  0  0  0  0  0  0  0  0
    4.0851    3.2655   18.6797 C   0  0  0  0  0  0  0  0  0  0  0  0
    3.6874    2.6565   17.3874 C   0  0  0  0  0  0  0  0  0  0  0  0
    4.4421    2.2509   19.7106 C   0  0  0  0  0  0  0  0  0  0  0  0
    5.5196    2.5053   20.5305 C   0  0  0  0  0  0  0  0  0  0  0  0
    5.8948    1.5880   21.5179 C   0  0  0  0  0  0  0  0  0  0  0  0
    5.1650    0.4275   21.6521 C   0  0  0  0  0  0  0  0  0  0  0  0
    4.0981    0.1970   20.8251 C   0  0  0  0  0  0  0  0  0  0  0  0
    3.3790   -0.9765   20.9782 O   0  0  0  0  0  0  0  0  0  0  0  0
    3.7098    1.1010   19.8347 C   0  0  0  0  0  0  0  0  0  0  0  0
    3.6260   -1.6639   21.6846 H   0  0  0  0  0  0  0  0  0  0  0  0
    3.9084    3.2578   15.0947 C   0  0  0  0  0  0  0  0  0  0  0  0
    3.1548    1.9809   14.9013 C   0  0  0  0  0  0  0  0  0  0  0  0
    1.9479    2.1042   14.0401 C   0  0  0  0  0  0  0  0  0  0  0  0
    2.1865    2.0519   12.5680 C   0  0  0  0  0  0  0  0  0  0  0  0
    1.3389    3.1139   11.8224 C   0  0  0  0  0  0  0  0  0  0  0  0
    1.4680    4.4333   12.4775 C   0  0  0  0  0  0  0  0  0  0  0  0
    0.2809    5.2712   12.6764 C   0  0  0  0  0  0  0  0  0  0  0  0
   -1.9111    5.6847   11.6205 C   0  0  0  0  0  0  0  0  0  0  0  0
   -1.0758    4.7343   12.4022 C   0  0  0  0  0  0  0  0  0  0  0  0
 21 22  1  0  0  0
 22 20  1  0  0  0
 20 19  1  0  0  0
 19 18  1  0  0  0
 18 17  1  0  0  0
 17 16  1  0  0  0
 16 15  1  0  0  0
 15 14  1  0  0  0
 14  1  1  0  0  0
  1  2  1  0  0  0
  2  3  1  0  0  0
  3  4  1  0  0  0
  4  6  1  0  0  0
  6  7  2  0  0  0
  7  8  1  0  0  0
  8  9  2  0  0  0
  9 10  1  0  0  0
 10 11  1  0  0  0
 10 12  2  0  0  0
  4  5  1  0  0  0
  5  1  1  0  0  0
 12  6  1  0  0  0
 11 13  1  0  0  0
M  END
> <minimizedAffinity>
-5.46815

> <CNNscore>
0.3064479828

> <CNNaffinity>
5.3110866547

> <CNN_VS>
1.6275718212

> <CNNaffinity_variance>
0.2317067683

$$$$
[H]OC(=O)/C([H])=C(\[H])c1c([H])c([H])c(Oc2c(-c3c([H])c([H])c(OC(F)(F)F)c([H])c3C([H])([H])[H])c(=O)oc3c([H])c(OC([H])([H])C([H])([H])[H])c([H])c([H])c23)c([H])c1[H]


 39 42  0  0  0  0  0  0  0  0999 V2000
    1.3112    6.9569    7.2542 C   0  0  0  0  0  0  0  0  0  0  0  0
    1.9994    5.8308    6.8739 C   0  0  0  0  0  0  0  0  0  0  0  0
    2.2970    4.8862    7.8316 C   0  0  0  0  0  0  0  0  0  0  0  0
    1.9268    5.0369    9.1532 C   0  0  0  0  0  0  0  0  0  0  0  0
    2.2232    4.0767   10.1358 C   0  0  0  0  0  0  0  0  0  0  0  0
    1.7801    4.3724   11.4086 C   0  0  0  0  0  0  0  0  0  0  0  0
    1.0833    5.5345   11.7338 C   0  0  0  0  0  0  0  0  0  0  0  0
    0.6974    5.7583   12.9222 O   0  0  0  0  0  0  0  0  0  0  0  0
    0.8403    6.3836   10.7816 O   0  0  0  0  0  0  0  0  0  0  0  0
    1.2377    6.1593    9.5406 C   0  0  0  0  0  0  0  0  0  0  0  0
    0.9410    7.1091    8.5679 C   0  0  0  0  0  0  0  0  0  0  0  0
    2.0482    3.4679   12.5073 C   0  0  0  0  0  0  0  0  0  0  0  0
    1.1010    2.5563   12.8687 C   0  0  0  0  0  0  0  0  0  0  0  0
    1.3243    1.6829   13.9028 C   0  0  0  0  0  0  0  0  0  0  0  0
    2.5194    1.7333   14.5781 C   0  0  0  0  0  0  0  0  0  0  0  0
    3.4813    2.6577   14.2125 C   0  0  0  0  0  0  0  0  0  0  0  0
    3.2407    3.5220   13.1774 C   0  0  0  0  0  0  0  0  0  0  0  0
    4.3195    4.4882   12.8453 C   0  0  0  0  0  0  0  0  0  0  0  0
    2.7471    0.8420   15.6332 O   0  0  0  0  0  0  0  0  0  0  0  0
    3.0044    1.3187   16.9494 C   0  0  0  0  0  0  0  0  0  0  0  0
    2.3860    0.4752   17.8388 F   0  0  0  0  0  0  0  0  0  0  0  0
    4.3684    1.3310   17.1748 F   0  0  0  0  0  0  0  0  0  0  0  0
    2.5487    2.6176   17.1185 F   0  0  0  0  0  0  0  0  0  0  0  0
    1.0075    7.9092    6.3076 O   0  0  0  0  0  0  0  0  0  0  0  0
    2.9931    9.1443    5.7976 C   0  0  0  0  0  0  0  0  0  0  0  0
    1.8846    8.2695    5.2580 C   0  0  0  0  0  0  0  0  0  0  0  0
    2.8986    2.9784    9.7565 O   0  0  0  0  0  0  0  0  0  0  0  0
    2.6196    1.6697    9.6101 C   0  0  0  0  0  0  0  0  0  0  0  0
    1.3770    1.1132    9.4599 C   0  0  0  0  0  0  0  0  0  0  0  0
    1.1531   -0.2558    9.3165 C   0  0  0  0  0  0  0  0  0  0  0  0
    2.2249   -1.1433    9.3204 C   0  0  0  0  0  0  0  0  0  0  0  0
    3.4835   -0.6100    9.4694 C   0  0  0  0  0  0  0  0  0  0  0  0
    3.6791    0.7437    9.6093 C   0  0  0  0  0  0  0  0  0  0  0  0
    1.9681   -2.5649    9.1698 C   0  0  0  0  0  0  0  0  0  0  0  0
    2.8098   -3.5132    9.5271 C   0  0  0  0  0  0  0  0  0  0  0  0
    2.4288   -4.9241    9.3207 C   0  0  0  0  0  0  0  0  0  0  0  0
    2.9900   -5.6374    8.4608 O   0  0  0  0  0  0  0  0  0  0  0  0
    1.4303   -5.4950   10.0835 O   0  0  0  0  0  0  0  0  0  0  0  0
    1.6090   -6.2299   10.7776 H   0  0  0  0  0  0  0  0  0  0  0  0
 25 26  1  0  0  0
 26 24  1  0  0  0
 24  1  1  0  0  0
  1  2  2  0  0  0
  2  3  1  0  0  0
  3  4  2  0  0  0
  4  5  1  0  0  0
  5 27  1  0  0  0
 27 28  1  0  0  0
 28 29  2  0  0  0
 29 30  1  0  0  0
 30 31  2  0  0  0
 31 34  1  0  0  0
 34 35  2  0  0  0
 35 36  1  0  0  0
 36 37  2  0  0  0
 36 38  1  0  0  0
 31 32  1  0  0  0
 32 33  2  0  0  0
  5  6  2  0  0  0
  6 12  1  0  0  0
 12 13  2  0  0  0
 13 14  1  0  0  0
 14 15  2  0  0  0
 15 19  1  0  0  0
 19 20  1  0  0  0
 20 21  1  0  0  0
 20 22  1  0  0  0
 20 23  1  0  0  0
 15 16  1  0  0  0
 16 17  2  0  0  0
 17 18  1  0  0  0
  6  7  1  0  0  0
  7  8  2  0  0  0
  7  9  1  0  0  0
  9 10  1  0  0  0
 10 11  2  0  0  0
 11  1  1  0  0  0
 10  4  1  0  0  0
 33 28  1  0  0  0
 17 12  1  0  0  0
 38 39  1  0  0  0
M  END
> <minimizedAffinity>
-6.06615

> <CNNscore>
0.3125055432

> <CNNaffinity>
6.3165631294

> <CNN_VS>
1.9739609957

> <CNNaffinity_variance>
0.1919057667

$$$$
[H]OC(=O)/C([H])=C(\[H])c1c([H])c([H])c(Oc2c(-c3c([H])c([H])c(OC(F)(F)F)c([H])c3C([H])([H])[H])c(=O)oc3c([H])c(OC([H])([H])C([H])([H])[H])c([H])c([H])c23)c([H])c1[H]


 39 42  0  0  0  0  0  0  0  0999 V2000
    4.3866    9.1000   16.0536 C   0  0  0  0  0  0  0  0  0  0  0  0
    4.2649    7.7916   15.6544 C   0  0  0  0  0  0  0  0  0  0  0  0
    4.2870    6.8051   16.6159 C   0  0  0  0  0  0  0  0  0  0  0  0
    4.4272    7.0906   17.9594 C   0  0  0  0  0  0  0  0  0  0  0  0
    4.4471    6.0907   18.9470 C   0  0  0  0  0  0  0  0  0  0  0  0
    4.5887    6.5393   20.2442 C   0  0  0  0  0  0  0  0  0  0  0  0
    4.7067    7.8844   20.5882 C   0  0  0  0  0  0  0  0  0  0  0  0
    4.8348    8.2441   21.7988 O   0  0  0  0  0  0  0  0  0  0  0  0
    4.6817    8.7609   19.6301 O   0  0  0  0  0  0  0  0  0  0  0  0
    4.5481    8.3962   18.3662 C   0  0  0  0  0  0  0  0  0  0  0  0
    4.5253    9.3871   17.3895 C   0  0  0  0  0  0  0  0  0  0  0  0
    4.6461    5.5984   21.3435 C   0  0  0  0  0  0  0  0  0  0  0  0
    3.4853    5.1403   21.8924 C   0  0  0  0  0  0  0  0  0  0  0  0
    3.5043    4.2462   22.9326 C   0  0  0  0  0  0  0  0  0  0  0  0
    4.7118    3.8114   23.4223 C   0  0  0  0  0  0  0  0  0  0  0  0
    5.8905    4.2754   22.8664 C   0  0  0  0  0  0  0  0  0  0  0  0
    5.8520    5.1681   21.8282 C   0  0  0  0  0  0  0  0  0  0  0  0
    7.1582    5.6235   21.2859 C   0  0  0  0  0  0  0  0  0  0  0  0
    4.7311    2.8990   24.4837 O   0  0  0  0  0  0  0  0  0  0  0  0
    4.9042    1.5063   24.2467 C   0  0  0  0  0  0  0  0  0  0  0  0
    6.2218    1.2863   23.9300 F   0  0  0  0  0  0  0  0  0  0  0  0
    4.5644    0.8009   25.3863 F   0  0  0  0  0  0  0  0  0  0  0  0
    4.0803    1.0575   23.2254 F   0  0  0  0  0  0  0  0  0  0  0  0
    4.3666   10.0960   15.1035 O   0  0  0  0  0  0  0  0  0  0  0  0
    2.6114    9.3512   13.6567 C   0  0  0  0  0  0  0  0  0  0  0  0
    4.0279    9.8713   13.7487 C   0  0  0  0  0  0  0  0  0  0  0  0
    4.3295    4.8126   18.5485 O   0  0  0  0  0  0  0  0  0  0  0  0
    3.9087    4.1765   17.4393 C   0  0  0  0  0  0  0  0  0  0  0  0
    4.6994    3.5919   16.4856 C   0  0  0  0  0  0  0  0  0  0  0  0
    4.2007    2.9496   15.3528 C   0  0  0  0  0  0  0  0  0  0  0  0
    2.8277    2.8748   15.1395 C   0  0  0  0  0  0  0  0  0  0  0  0
    2.0115    3.4538   16.0825 C   0  0  0  0  0  0  0  0  0  0  0  0
    2.5268    4.0818   17.1917 C   0  0  0  0  0  0  0  0  0  0  0  0
    2.3307    2.2011   13.9525 C   0  0  0  0  0  0  0  0  0  0  0  0
    2.4683    2.6610   12.7256 C   0  0  0  0  0  0  0  0  0  0  0  0
    1.9167    1.8793   11.6017 C   0  0  0  0  0  0  0  0  0  0  0  0
    2.6550    1.3689   10.7313 O   0  0  0  0  0  0  0  0  0  0  0  0
    0.5544    1.6919   11.4856 O   0  0  0  0  0  0  0  0  0  0  0  0
    0.1041    0.7775   11.6080 H   0  0  0  0  0  0  0  0  0  0  0  0
 25 26  1  0  0  0
 26 24  1  0  0  0
 24  1  1  0  0  0
  1  2  2  0  0  0
  2  3  1  0  0  0
  3  4  2  0  0  0
  4  5  1  0  0  0
  5 27  1  0  0  0
 27 28  1  0  0  0
 28 29  2  0  0  0
 29 30  1  0  0  0
 30 31  2  0  0  0
 31 34  1  0  0  0
 34 35  2  0  0  0
 35 36  1  0  0  0
 36 37  2  0  0  0
 36 38  1  0  0  0
 31 32  1  0  0  0
 32 33  2  0  0  0
  5  6  2  0  0  0
  6 12  1  0  0  0
 12 13  2  0  0  0
 13 14  1  0  0  0
 14 15  2  0  0  0
 15 19  1  0  0  0
 19 20  1  0  0  0
 20 21  1  0  0  0
 20 22  1  0  0  0
 20 23  1  0  0  0
 15 16  1  0  0  0
 16 17  2  0  0  0
 17 18  1  0  0  0
  6  7  1  0  0  0
  7  8  2  0  0  0
  7  9  1  0  0  0
  9 10  1  0  0  0
 10 11  2  0  0  0
 11  1  1  0  0  0
 10  4  1  0  0  0
 33 28  1  0  0  0
 17 12  1  0  0  0
 38 39  1  0  0  0
M  END
> <minimizedAffinity>
-7.43857

> <CNNscore>
0.3035992682

> <CNNaffinity>
6.3841118813

> <CNN_VS>
1.9382116795

> <CNNaffinity_variance>
0.5768979788

$$$$
[H]OC(=O)/C([H])=C(\[H])c1c([H])c([H])c(Oc2c(-c3c([H])c([H])c(OC(F)(F)F)c([H])c3C([H])([H])[H])c(=O)oc3c([H])c(OC([H])([H])C([H])([H])[H])c([H])c([H])c23)c([H])c1[H]


 39 42  0  0  0  0  0  0  0  0999 V2000
    2.7629    4.6209   15.8642 C   0  0  0  0  0  0  0  0  0  0  0  0
    3.6250    3.8376   15.1366 C   0  0  0  0  0  0  0  0  0  0  0  0
    3.8196    4.1339   13.8053 C   0  0  0  0  0  0  0  0  0  0  0  0
    3.1780    5.1874   13.1849 C   0  0  0  0  0  0  0  0  0  0  0  0
    3.3735    5.4988   11.8284 C   0  0  0  0  0  0  0  0  0  0  0  0
    2.6632    6.5849   11.3596 C   0  0  0  0  0  0  0  0  0  0  0  0
    1.8018    7.3441   12.1490 C   0  0  0  0  0  0  0  0  0  0  0  0
    1.1715    8.3352   11.6676 O   0  0  0  0  0  0  0  0  0  0  0  0
    1.6631    7.0058   13.3952 O   0  0  0  0  0  0  0  0  0  0  0  0
    2.3157    5.9755   13.9061 C   0  0  0  0  0  0  0  0  0  0  0  0
    2.1238    5.6700   15.2500 C   0  0  0  0  0  0  0  0  0  0  0  0
    2.7667    6.9854    9.9718 C   0  0  0  0  0  0  0  0  0  0  0  0
    3.6527    7.9607    9.6220 C   0  0  0  0  0  0  0  0  0  0  0  0
    3.7779    8.3613    8.3159 C   0  0  0  0  0  0  0  0  0  0  0  0
    2.9975    7.7679    7.3539 C   0  0  0  0  0  0  0  0  0  0  0  0
    2.0980    6.7782    7.7073 C   0  0  0  0  0  0  0  0  0  0  0  0
    1.9866    6.3911    9.0165 C   0  0  0  0  0  0  0  0  0  0  0  0
    0.9970    5.3250    9.3194 C   0  0  0  0  0  0  0  0  0  0  0  0
    3.1253    8.1767    6.0212 O   0  0  0  0  0  0  0  0  0  0  0  0
    4.0499    7.5389    5.1470 C   0  0  0  0  0  0  0  0  0  0  0  0
    3.4653    6.3929    4.6675 F   0  0  0  0  0  0  0  0  0  0  0  0
    4.3558    8.3905    4.1017 F   0  0  0  0  0  0  0  0  0  0  0  0
    5.2394    7.2400    5.7944 F   0  0  0  0  0  0  0  0  0  0  0  0
    2.5586    4.3360   17.1954 O   0  0  0  0  0  0  0  0  0  0  0  0
    3.2637    5.5669   19.1232 C   0  0  0  0  0  0  0  0  0  0  0  0
    3.5741    4.4307   18.1755 C   0  0  0  0  0  0  0  0  0  0  0  0
    4.2170    4.7266   11.1225 O   0  0  0  0  0  0  0  0  0  0  0  0
    5.2077    4.9314   10.2343 C   0  0  0  0  0  0  0  0  0  0  0  0
    5.2556    4.4687    8.9459 C   0  0  0  0  0  0  0  0  0  0  0  0
    6.3162    4.7126    8.0739 C   0  0  0  0  0  0  0  0  0  0  0  0
    7.4085    5.4648    8.4953 C   0  0  0  0  0  0  0  0  0  0  0  0
    7.3849    5.9415    9.7848 C   0  0  0  0  0  0  0  0  0  0  0  0
    6.3277    5.6877   10.6263 C   0  0  0  0  0  0  0  0  0  0  0  0
    8.5019    5.7060    7.5701 C   0  0  0  0  0  0  0  0  0  0  0  0
    9.3084    4.7696    7.1136 C   0  0  0  0  0  0  0  0  0  0  0  0
   10.3838    5.1456    6.1754 C   0  0  0  0  0  0  0  0  0  0  0  0
   10.1344    5.6039    5.0392 O   0  0  0  0  0  0  0  0  0  0  0  0
   11.7074    4.9975    6.5371 O   0  0  0  0  0  0  0  0  0  0  0  0
   12.3353    5.7940    6.6961 H   0  0  0  0  0  0  0  0  0  0  0  0
 25 26  1  0  0  0
 26 24  1  0  0  0
 24  1  1  0  0  0
  1  2  2  0  0  0
  2  3  1  0  0  0
  3  4  2  0  0  0
  4  5  1  0  0  0
  5 27  1  0  0  0
 27 28  1  0  0  0
 28 29  2  0  0  0
 29 30  1  0  0  0
 30 31  2  0  0  0
 31 34  1  0  0  0
 34 35  2  0  0  0
 35 36  1  0  0  0
 36 37  2  0  0  0
 36 38  1  0  0  0
 31 32  1  0  0  0
 32 33  2  0  0  0
  5  6  2  0  0  0
  6 12  1  0  0  0
 12 13  2  0  0  0
 13 14  1  0  0  0
 14 15  2  0  0  0
 15 19  1  0  0  0
 19 20  1  0  0  0
 20 21  1  0  0  0
 20 22  1  0  0  0
 20 23  1  0  0  0
 15 16  1  0  0  0
 16 17  2  0  0  0
 17 18  1  0  0  0
  6  7  1  0  0  0
  7  8  2  0  0  0
  7  9  1  0  0  0
  9 10  1  0  0  0
 10 11  2  0  0  0
 11  1  1  0  0  0
 10  4  1  0  0  0
 33 28  1  0  0  0
 17 12  1  0  0  0
 38 39  1  0  0  0
M  END
> <minimizedAffinity>
-5.14647

> <CNNscore>
0.2128956467

> <CNNaffinity>
5.8972921371

> <CNN_VS>
1.2555078268

> <CNNaffinity_variance>
0.6697241068

$$$$
[H]OC(=O)/C([H])=C(\[H])c1c([H])c([H])c(Oc2c(-c3c([H])c([H])c(OC(F)(F)F)c([H])c3C([H])([H])[H])c(=O)oc3c([H])c(OC([H])([H])C([H])([H])[H])c([H])c([H])c23)c([H])c1[H]


 39 42  0  0  0  0  0  0  0  0999 V2000
    3.6023    0.9683   18.9663 C   0  0  0  0  0  0  0  0  0  0  0  0
    4.0074    1.9119   18.0543 C   0  0  0  0  0  0  0  0  0  0  0  0
    4.7533    2.9809   18.5001 C   0  0  0  0  0  0  0  0  0  0  0  0
    5.1030    3.1312   19.8273 C   0  0  0  0  0  0  0  0  0  0  0  0
    5.8665    4.2167   20.2899 C   0  0  0  0  0  0  0  0  0  0  0  0
    6.1364    4.2198   21.6431 C   0  0  0  0  0  0  0  0  0  0  0  0
    5.6977    3.2305   22.5208 C   0  0  0  0  0  0  0  0  0  0  0  0
    5.9742    3.2807   23.7587 O   0  0  0  0  0  0  0  0  0  0  0  0
    4.9954    2.2531   22.0325 O   0  0  0  0  0  0  0  0  0  0  0  0
    4.7026    2.1915   20.7446 C   0  0  0  0  0  0  0  0  0  0  0  0
    3.9493    1.1148   20.2871 C   0  0  0  0  0  0  0  0  0  0  0  0
    6.8949    5.3008   22.2374 C   0  0  0  0  0  0  0  0  0  0  0  0
    8.2198    5.1203   22.5031 C   0  0  0  0  0  0  0  0  0  0  0  0
    8.9678    6.1249   23.0628 C   0  0  0  0  0  0  0  0  0  0  0  0
    8.3676    7.3250   23.3565 C   0  0  0  0  0  0  0  0  0  0  0  0
    7.0234    7.5096   23.0875 C   0  0  0  0  0  0  0  0  0  0  0  0
    6.2922    6.4951   22.5285 C   0  0  0  0  0  0  0  0  0  0  0  0
    4.8541    6.7667   22.2719 C   0  0  0  0  0  0  0  0  0  0  0  0
    9.1310    8.3501   23.9275 O   0  0  0  0  0  0  0  0  0  0  0  0
    9.0468    8.6350   25.3194 C   0  0  0  0  0  0  0  0  0  0  0  0
    9.1310    7.4486   26.0052 F   0  0  0  0  0  0  0  0  0  0  0  0
   10.0884    9.4690   25.6813 F   0  0  0  0  0  0  0  0  0  0  0  0
    7.8667    9.2922   25.6340 F   0  0  0  0  0  0  0  0  0  0  0  0
    2.8560   -0.1050   18.5348 O   0  0  0  0  0  0  0  0  0  0  0  0
    2.2147    0.4794   16.3042 C   0  0  0  0  0  0  0  0  0  0  0  0
    2.8525   -0.5614   17.1960 C   0  0  0  0  0  0  0  0  0  0  0  0
    6.2576    5.1370   19.3919 O   0  0  0  0  0  0  0  0  0  0  0  0
    5.6479    5.9845   18.5422 C   0  0  0  0  0  0  0  0  0  0  0  0
    4.3459    6.4055   18.6054 C   0  0  0  0  0  0  0  0  0  0  0  0
    3.7703    7.2846   17.6886 C   0  0  0  0  0  0  0  0  0  0  0  0
    4.5257    7.7876   16.6338 C   0  0  0  0  0  0  0  0  0  0  0  0
    5.8364    7.3806   16.5477 C   0  0  0  0  0  0  0  0  0  0  0  0
    6.3816    6.5127   17.4640 C   0  0  0  0  0  0  0  0  0  0  0  0
    3.9054    8.7017   15.6908 C   0  0  0  0  0  0  0  0  0  0  0  0
    3.2234    8.3231   14.6291 C   0  0  0  0  0  0  0  0  0  0  0  0
    2.6411    9.3533   13.7471 C   0  0  0  0  0  0  0  0  0  0  0  0
    2.4968   10.5365   14.1245 O   0  0  0  0  0  0  0  0  0  0  0  0
    2.2375    9.0284   12.4680 O   0  0  0  0  0  0  0  0  0  0  0  0
    2.7115    9.3778   11.6272 H   0  0  0  0  0  0  0  0  0  0  0  0
 25 26  1  0  0  0
 26 24  1  0  0  0
 24  1  1  0  0  0
  1  2  2  0  0  0
  2  3  1  0  0  0
  3  4  2  0  0  0
  4  5  1  0  0  0
  5 27  1  0  0  0
 27 28  1  0  0  0
 28 29  2  0  0  0
 29 30  1  0  0  0
 30 31  2  0  0  0
 31 34  1  0  0  0
 34 35  2  0  0  0
 35 36  1  0  0  0
 36 37  2  0  0  0
 36 38  1  0  0  0
 31 32  1  0  0  0
 32 33  2  0  0  0
  5  6  2  0  0  0
  6 12  1  0  0  0
 12 13  2  0  0  0
 13 14  1  0  0  0
 14 15  2  0  0  0
 15 19  1  0  0  0
 19 20  1  0  0  0
 20 21  1  0  0  0
 20 22  1  0  0  0
 20 23  1  0  0  0
 15 16  1  0  0  0
 16 17  2  0  0  0
 17 18  1  0  0  0
  6  7  1  0  0  0
  7  8  2  0  0  0
  7  9  1  0  0  0
  9 10  1  0  0  0
 10 11  2  0  0  0
 11  1  1  0  0  0
 10  4  1  0  0  0
 33 28  1  0  0  0
 17 12  1  0  0  0
 38 39  1  0  0  0
M  END
> <minimizedAffinity>
-7.25528

> <CNNscore>
0.1781253666

> <CNNaffinity>
6.2655310631

> <CNN_VS>
1.1160500050

> <CNNaffinity_variance>
0.5912483931

$$$$
[H]OC(=O)/C([H])=C(\[H])c1c([H])c([H])c(Oc2c(-c3c([H])c([H])c(OC(F)(F)F)c([H])c3C([H])([H])[H])c(=O)oc3c([H])c(OC([H])([H])C([H])([H])[H])c([H])c([H])c23)c([H])c1[H]


 39 42  0  0  0  0  0  0  0  0999 V2000
    5.0251    1.4579   23.9336 C   0  0  0  0  0  0  0  0  0  0  0  0
    3.9356    1.4507   23.0974 C   0  0  0  0  0  0  0  0  0  0  0  0
    3.8612    2.4031   22.1047 C   0  0  0  0  0  0  0  0  0  0  0  0
    4.8423    3.3583   21.9269 C   0  0  0  0  0  0  0  0  0  0  0  0
    4.7760    4.3311   20.9147 C   0  0  0  0  0  0  0  0  0  0  0  0
    5.8379    5.2109   20.8655 C   0  0  0  0  0  0  0  0  0  0  0  0
    6.9190    5.1672   21.7434 C   0  0  0  0  0  0  0  0  0  0  0  0
    7.8717    6.0013   21.6545 O   0  0  0  0  0  0  0  0  0  0  0  0
    6.9221    4.2448   22.6577 O   0  0  0  0  0  0  0  0  0  0  0  0
    5.9348    3.3710   22.7582 C   0  0  0  0  0  0  0  0  0  0  0  0
    6.0029    2.4063   23.7586 C   0  0  0  0  0  0  0  0  0  0  0  0
    5.8672    6.2708   19.8791 C   0  0  0  0  0  0  0  0  0  0  0  0
    6.3165    6.0004   18.6207 C   0  0  0  0  0  0  0  0  0  0  0  0
    6.3543    6.9808   17.6619 C   0  0  0  0  0  0  0  0  0  0  0  0
    5.9325    8.2485   17.9809 C   0  0  0  0  0  0  0  0  0  0  0  0
    5.4764    8.5244   19.2574 C   0  0  0  0  0  0  0  0  0  0  0  0
    5.4459    7.5327   20.2019 C   0  0  0  0  0  0  0  0  0  0  0  0
    4.9466    7.9057   21.5507 C   0  0  0  0  0  0  0  0  0  0  0  0
    5.9710    9.2488   17.0025 O   0  0  0  0  0  0  0  0  0  0  0  0
    4.7856    9.6586   16.3297 C   0  0  0  0  0  0  0  0  0  0  0  0
    4.1426   10.5805   17.1180 F   0  0  0  0  0  0  0  0  0  0  0  0
    5.1201   10.2235   15.1129 F   0  0  0  0  0  0  0  0  0  0  0  0
    3.9516    8.5821   16.0668 F   0  0  0  0  0  0  0  0  0  0  0  0
    5.1121    0.5123   24.9302 O   0  0  0  0  0  0  0  0  0  0  0  0
    5.3870   -0.1508   27.2134 C   0  0  0  0  0  0  0  0  0  0  0  0
    4.6208    0.7164   26.2408 C   0  0  0  0  0  0  0  0  0  0  0  0
    3.7060    4.3190   20.1016 O   0  0  0  0  0  0  0  0  0  0  0  0
    3.4968    4.2484   18.7737 C   0  0  0  0  0  0  0  0  0  0  0  0
    3.9437    3.2667   17.9293 C   0  0  0  0  0  0  0  0  0  0  0  0
    3.6961    3.2530   16.5570 C   0  0  0  0  0  0  0  0  0  0  0  0
    2.9568    4.2754   15.9701 C   0  0  0  0  0  0  0  0  0  0  0  0
    2.4961    5.2735   16.7962 C   0  0  0  0  0  0  0  0  0  0  0  0
    2.7532    5.2653   18.1467 C   0  0  0  0  0  0  0  0  0  0  0  0
    2.7114    4.2407   14.5389 C   0  0  0  0  0  0  0  0  0  0  0  0
    3.6506    4.3525   13.6218 C   0  0  0  0  0  0  0  0  0  0  0  0
    3.2698    4.3012   12.1968 C   0  0  0  0  0  0  0  0  0  0  0  0
    2.3722    5.0354   11.7295 O   0  0  0  0  0  0  0  0  0  0  0  0
    3.9056    3.4291   11.3366 O   0  0  0  0  0  0  0  0  0  0  0  0
    4.5250    3.7428   10.5806 H   0  0  0  0  0  0  0  0  0  0  0  0
 25 26  1  0  0  0
 26 24  1  0  0  0
 24  1  1  0  0  0
  1  2  2  0  0  0
  2  3  1  0  0  0
  3  4  2  0  0  0
  4  5  1  0  0  0
  5 27  1  0  0  0
 27 28  1  0  0  0
 28 29  2  0  0  0
 29 30  1  0  0  0
 30 31  2  0  0  0
 31 34  1  0  0  0
 34 35  2  0  0  0
 35 36  1  0  0  0
 36 37  2  0  0  0
 36 38  1  0  0  0
 31 32  1  0  0  0
 32 33  2  0  0  0
  5  6  2  0  0  0
  6 12  1  0  0  0
 12 13  2  0  0  0
 13 14  1  0  0  0
 14 15  2  0  0  0
 15 19  1  0  0  0
 19 20  1  0  0  0
 20 21  1  0  0  0
 20 22  1  0  0  0
 20 23  1  0  0  0
 15 16  1  0  0  0
 16 17  2  0  0  0
 17 18  1  0  0  0
  6  7  1  0  0  0
  7  8  2  0  0  0
  7  9  1  0  0  0
  9 10  1  0  0  0
 10 11  2  0  0  0
 11  1  1  0  0  0
 10  4  1  0  0  0
 33 28  1  0  0  0
 17 12  1  0  0  0
 38 39  1  0  0  0
M  END
> <minimizedAffinity>
-5.77436

> <CNNscore>
0.1583824754

> <CNNaffinity>
6.1811680794

> <CNN_VS>
0.9789887071

> <CNNaffinity_variance>
0.4467983842

$$$$
[H]OC(=O)/C([H])=C(\[H])c1c([H])c([H])c(Oc2c(-c3c([H])c([H])c(OC(F)(F)F)c([H])c3C([H])([H])[H])c(=O)oc3c([H])c(OC([H])([H])C([H])([H])[H])c([H])c([H])c23)c([H])c1[H]


 39 42  0  0  0  0  0  0  0  0999 V2000
    8.2387    4.7312    7.9293 C   0  0  0  0  0  0  0  0  0  0  0  0
    7.2190    5.2239    8.7062 C   0  0  0  0  0  0  0  0  0  0  0  0
    6.0944    4.4487    8.8858 C   0  0  0  0  0  0  0  0  0  0  0  0
    5.9626    3.1999    8.3117 C   0  0  0  0  0  0  0  0  0  0  0  0
    4.8205    2.4011    8.4926 C   0  0  0  0  0  0  0  0  0  0  0  0
    4.8449    1.1766    7.8570 C   0  0  0  0  0  0  0  0  0  0  0  0
    5.9123    0.7299    7.0807 C   0  0  0  0  0  0  0  0  0  0  0  0
    5.8842   -0.4071    6.5170 O   0  0  0  0  0  0  0  0  0  0  0  0
    6.9392    1.5144    6.9511 O   0  0  0  0  0  0  0  0  0  0  0  0
    6.9783    2.7002    7.5348 C   0  0  0  0  0  0  0  0  0  0  0  0
    8.1108    3.4889    7.3576 C   0  0  0  0  0  0  0  0  0  0  0  0
    3.7132    0.2779    7.9524 C   0  0  0  0  0  0  0  0  0  0  0  0
    2.6787    0.4107    7.0746 C   0  0  0  0  0  0  0  0  0  0  0  0
    1.5932   -0.4261    7.1356 C   0  0  0  0  0  0  0  0  0  0  0  0
    1.5552   -1.4076    8.0958 C   0  0  0  0  0  0  0  0  0  0  0  0
    2.6041   -1.5434    8.9872 C   0  0  0  0  0  0  0  0  0  0  0  0
    3.6798   -0.6986    8.9113 C   0  0  0  0  0  0  0  0  0  0  0  0
    4.7657   -0.9038    9.9045 C   0  0  0  0  0  0  0  0  0  0  0  0
    0.4476   -2.2613    8.1579 O   0  0  0  0  0  0  0  0  0  0  0  0
   -0.4875   -2.1682    9.2269 C   0  0  0  0  0  0  0  0  0  0  0  0
   -0.3599   -0.9275    9.8006 F   0  0  0  0  0  0  0  0  0  0  0  0
   -1.7680   -2.3347    8.7326 F   0  0  0  0  0  0  0  0  0  0  0  0
   -0.2802   -3.1614   10.1724 F   0  0  0  0  0  0  0  0  0  0  0  0
    9.3682    5.4954    7.7410 O   0  0  0  0  0  0  0  0  0  0  0  0
   11.2357    6.8350    8.4089 C   0  0  0  0  0  0  0  0  0  0  0  0
   10.3973    5.6122    8.7043 C   0  0  0  0  0  0  0  0  0  0  0  0
    3.8261    2.8908    9.2525 O   0  0  0  0  0  0  0  0  0  0  0  0
    3.5329    2.9210   10.5660 C   0  0  0  0  0  0  0  0  0  0  0  0
    2.7749    2.0100   11.2530 C   0  0  0  0  0  0  0  0  0  0  0  0
    2.5032    2.1001   12.6178 C   0  0  0  0  0  0  0  0  0  0  0  0
    3.0115    3.1597   13.3631 C   0  0  0  0  0  0  0  0  0  0  0  0
    3.7762    4.0883   12.6970 C   0  0  0  0  0  0  0  0  0  0  0  0
    4.0304    3.9781   11.3504 C   0  0  0  0  0  0  0  0  0  0  0  0
    2.7155    3.2334   14.7831 C   0  0  0  0  0  0  0  0  0  0  0  0
    3.5446    3.7072   15.6907 C   0  0  0  0  0  0  0  0  0  0  0  0
    3.1230    3.7274   17.1050 C   0  0  0  0  0  0  0  0  0  0  0  0
    3.6434    2.9746   17.9568 O   0  0  0  0  0  0  0  0  0  0  0  0
    2.1308    4.5904   17.5239 O   0  0  0  0  0  0  0  0  0  0  0  0
    2.3090    5.3846   18.1494 H   0  0  0  0  0  0  0  0  0  0  0  0
 25 26  1  0  0  0
 26 24  1  0  0  0
 24  1  1  0  0  0
  1  2  2  0  0  0
  2  3  1  0  0  0
  3  4  2  0  0  0
  4  5  1  0  0  0
  5 27  1  0  0  0
 27 28  1  0  0  0
 28 29  2  0  0  0
 29 30  1  0  0  0
 30 31  2  0  0  0
 31 34  1  0  0  0
 34 35  2  0  0  0
 35 36  1  0  0  0
 36 37  2  0  0  0
 36 38  1  0  0  0
 31 32  1  0  0  0
 32 33  2  0  0  0
  5  6  2  0  0  0
  6 12  1  0  0  0
 12 13  2  0  0  0
 13 14  1  0  0  0
 14 15  2  0  0  0
 15 19  1  0  0  0
 19 20  1  0  0  0
 20 21  1  0  0  0
 20 22  1  0  0  0
 20 23  1  0  0  0
 15 16  1  0  0  0
 16 17  2  0  0  0
 17 18  1  0  0  0
  6  7  1  0  0  0
  7  8  2  0  0  0
  7  9  1  0  0  0
  9 10  1  0  0  0
 10 11  2  0  0  0
 11  1  1  0  0  0
 10  4  1  0  0  0
 33 28  1  0  0  0
 17 12  1  0  0  0
 38 39  1  0  0  0
M  END
> <minimizedAffinity>
-5.69585

> <CNNscore>
0.1430958360

> <CNNaffinity>
5.7900371552

> <CNN_VS>
0.8285301924

> <CNNaffinity_variance>
0.1193178520

$$$$
[H]OC(=O)/C([H])=C(\[H])c1c([H])c([H])c(Oc2c(-c3c([H])c([H])c(OC(F)(F)F)c([H])c3C([H])([H])[H])c(=O)oc3c([H])c(OC([H])([H])C([H])([H])[H])c([H])c([H])c23)c([H])c1[H]


 39 42  0  0  0  0  0  0  0  0999 V2000
    0.7818    6.8533    7.5384 C   0  0  0  0  0  0  0  0  0  0  0  0
    1.9507    6.1842    7.2693 C   0  0  0  0  0  0  0  0  0  0  0  0
    2.5288    5.4388    8.2734 C   0  0  0  0  0  0  0  0  0  0  0  0
    1.9724    5.3453    9.5335 C   0  0  0  0  0  0  0  0  0  0  0  0
    2.5536    4.5844   10.5623 C   0  0  0  0  0  0  0  0  0  0  0  0
    1.8723    4.5885   11.7622 C   0  0  0  0  0  0  0  0  0  0  0  0
    0.6861    5.2880   11.9750 C   0  0  0  0  0  0  0  0  0  0  0  0
    0.0985    5.2581   13.0998 O   0  0  0  0  0  0  0  0  0  0  0  0
    0.1992    5.9733   10.9851 O   0  0  0  0  0  0  0  0  0  0  0  0
    0.8035    6.0103    9.8096 C   0  0  0  0  0  0  0  0  0  0  0  0
    0.2255    6.7614    8.7908 C   0  0  0  0  0  0  0  0  0  0  0  0
    2.3889    3.8589   12.9016 C   0  0  0  0  0  0  0  0  0  0  0  0
    1.9595    2.5853   13.1301 C   0  0  0  0  0  0  0  0  0  0  0  0
    2.4312    1.8655   14.1984 C   0  0  0  0  0  0  0  0  0  0  0  0
    3.3474    2.4416   15.0443 C   0  0  0  0  0  0  0  0  0  0  0  0
    3.7839    3.7338   14.8137 C   0  0  0  0  0  0  0  0  0  0  0  0
    3.3018    4.4375   13.7418 C   0  0  0  0  0  0  0  0  0  0  0  0
    3.8146    5.8202   13.5612 C   0  0  0  0  0  0  0  0  0  0  0  0
    3.8287    1.7070   16.1343 O   0  0  0  0  0  0  0  0  0  0  0  0
    3.9850    2.3138   17.4123 C   0  0  0  0  0  0  0  0  0  0  0  0
    3.8222    1.3435   18.3699 F   0  0  0  0  0  0  0  0  0  0  0  0
    5.2483    2.8679   17.5061 F   0  0  0  0  0  0  0  0  0  0  0  0
    3.0717    3.3397   17.6038 F   0  0  0  0  0  0  0  0  0  0  0  0
    0.1934    7.6022    6.5445 O   0  0  0  0  0  0  0  0  0  0  0  0
    0.8580    9.9014    6.5179 C   0  0  0  0  0  0  0  0  0  0  0  0
    0.8883    8.5765    5.7905 C   0  0  0  0  0  0  0  0  0  0  0  0
    3.6983    3.9341   10.2921 O   0  0  0  0  0  0  0  0  0  0  0  0
    4.0365    2.7181    9.8238 C   0  0  0  0  0  0  0  0  0  0  0  0
    3.3281    1.5568    9.9849 C   0  0  0  0  0  0  0  0  0  0  0  0
    3.7358    0.3237    9.4772 C   0  0  0  0  0  0  0  0  0  0  0  0
    4.9235    0.2216    8.7593 C   0  0  0  0  0  0  0  0  0  0  0  0
    5.6536    1.3734    8.5831 C   0  0  0  0  0  0  0  0  0  0  0  0
    5.2311    2.5780    9.0934 C   0  0  0  0  0  0  0  0  0  0  0  0
    5.3285   -1.0730    8.2400 C   0  0  0  0  0  0  0  0  0  0  0  0
    4.9089   -1.5791    7.0983 C   0  0  0  0  0  0  0  0  0  0  0  0
    5.3967   -2.9083    6.6819 C   0  0  0  0  0  0  0  0  0  0  0  0
    4.6476   -3.7372    6.1207 O   0  0  0  0  0  0  0  0  0  0  0  0
    6.7094   -3.2705    6.9061 O   0  0  0  0  0  0  0  0  0  0  0  0
    7.3888   -3.4048    6.1484 H   0  0  0  0  0  0  0  0  0  0  0  0
 25 26  1  0  0  0
 26 24  1  0  0  0
 24  1  1  0  0  0
  1  2  2  0  0  0
  2  3  1  0  0  0
  3  4  2  0  0  0
  4  5  1  0  0  0
  5 27  1  0  0  0
 27 28  1  0  0  0
 28 29  2  0  0  0
 29 30  1  0  0  0
 30 31  2  0  0  0
 31 34  1  0  0  0
 34 35  2  0  0  0
 35 36  1  0  0  0
 36 37  2  0  0  0
 36 38  1  0  0  0
 31 32  1  0  0  0
 32 33  2  0  0  0
  5  6  2  0  0  0
  6 12  1  0  0  0
 12 13  2  0  0  0
 13 14  1  0  0  0
 14 15  2  0  0  0
 15 19  1  0  0  0
 19 20  1  0  0  0
 20 21  1  0  0  0
 20 22  1  0  0  0
 20 23  1  0  0  0
 15 16  1  0  0  0
 16 17  2  0  0  0
 17 18  1  0  0  0
  6  7  1  0  0  0
  7  8  2  0  0  0
  7  9  1  0  0  0
  9 10  1  0  0  0
 10 11  2  0  0  0
 11  1  1  0  0  0
 10  4  1  0  0  0
 33 28  1  0  0  0
 17 12  1  0  0  0
 38 39  1  0  0  0
M  END
> <minimizedAffinity>
-6.21982

> <CNNscore>
0.1406639665

> <CNNaffinity>
5.9136824608

> <CNN_VS>
0.8318420053

> <CNNaffinity_variance>
0.1055476516

$$$$
[H]OC(=O)/C([H])=C(\[H])c1c([H])c([H])c(Oc2c(-c3c([H])c([H])c(OC(F)(F)F)c([H])c3C([H])([H])[H])c(=O)oc3c([H])c(OC([H])([H])C([H])([H])[H])c([H])c([H])c23)c([H])c1[H]


 39 42  0  0  0  0  0  0  0  0999 V2000
    5.6352    8.8954   14.1735 C   0  0  0  0  0  0  0  0  0  0  0  0
    4.4890    8.1804   13.9261 C   0  0  0  0  0  0  0  0  0  0  0  0
    4.0481    7.2917   14.8821 C   0  0  0  0  0  0  0  0  0  0  0  0
    4.7197    7.0995   16.0730 C   0  0  0  0  0  0  0  0  0  0  0  0
    4.2750    6.1978   17.0550 C   0  0  0  0  0  0  0  0  0  0  0  0
    5.0540    6.1248   18.1915 C   0  0  0  0  0  0  0  0  0  0  0  0
    6.2094    6.8790   18.3862 C   0  0  0  0  0  0  0  0  0  0  0  0
    6.8908    6.7739   19.4520 O   0  0  0  0  0  0  0  0  0  0  0  0
    6.5688    7.6945   17.4415 O   0  0  0  0  0  0  0  0  0  0  0  0
    5.8655    7.8115   16.3279 C   0  0  0  0  0  0  0  0  0  0  0  0
    6.3050    8.7069   15.3576 C   0  0  0  0  0  0  0  0  0  0  0  0
    4.7070    5.2127   19.2615 C   0  0  0  0  0  0  0  0  0  0  0  0
    4.1401    5.7031   20.4002 C   0  0  0  0  0  0  0  0  0  0  0  0
    3.7965    4.8661   21.4313 C   0  0  0  0  0  0  0  0  0  0  0  0
    4.0295    3.5180   21.3080 C   0  0  0  0  0  0  0  0  0  0  0  0
    4.6048    3.0190   20.1532 C   0  0  0  0  0  0  0  0  0  0  0  0
    4.9414    3.8700   19.1339 C   0  0  0  0  0  0  0  0  0  0  0  0
    5.5580    3.2608   17.9271 C   0  0  0  0  0  0  0  0  0  0  0  0
    3.6788    2.6640   22.3601 O   0  0  0  0  0  0  0  0  0  0  0  0
    4.4050    2.6765   23.5842 C   0  0  0  0  0  0  0  0  0  0  0  0
    3.8901    3.6718   24.3774 F   0  0  0  0  0  0  0  0  0  0  0  0
    4.2706    1.4512   24.2104 F   0  0  0  0  0  0  0  0  0  0  0  0
    5.7599    2.8815   23.3702 F   0  0  0  0  0  0  0  0  0  0  0  0
    6.0875    9.7866   13.2268 O   0  0  0  0  0  0  0  0  0  0  0  0
    7.8374    8.5075   12.2120 C   0  0  0  0  0  0  0  0  0  0  0  0
    6.6317    9.3900   11.9829 C   0  0  0  0  0  0  0  0  0  0  0  0
    3.1537    5.5003   16.8050 O   0  0  0  0  0  0  0  0  0  0  0  0
    2.7124    4.6911   15.8239 C   0  0  0  0  0  0  0  0  0  0  0  0
    1.8114    5.0147   14.8442 C   0  0  0  0  0  0  0  0  0  0  0  0
    1.3900    4.1268   13.8549 C   0  0  0  0  0  0  0  0  0  0  0  0
    1.8880    2.8278   13.8237 C   0  0  0  0  0  0  0  0  0  0  0  0
    2.7947    2.4775   14.7963 C   0  0  0  0  0  0  0  0  0  0  0  0
    3.1950    3.3708   15.7617 C   0  0  0  0  0  0  0  0  0  0  0  0
    1.4348    1.9200   12.7843 C   0  0  0  0  0  0  0  0  0  0  0  0
    1.4476    2.1999   11.4970 C   0  0  0  0  0  0  0  0  0  0  0  0
    0.9585    1.1887   10.5395 C   0  0  0  0  0  0  0  0  0  0  0  0
    1.7345    0.3831    9.9808 O   0  0  0  0  0  0  0  0  0  0  0  0
   -0.3854    1.1093   10.2356 O   0  0  0  0  0  0  0  0  0  0  0  0
   -0.9744    0.3156   10.5125 H   0  0  0  0  0  0  0  0  0  0  0  0
 25 26  1  0  0  0
 26 24  1  0  0  0
 24  1  1  0  0  0
  1  2  2  0  0  0
  2  3  1  0  0  0
  3  4  2  0  0  0
  4  5  1  0  0  0
  5 27  1  0  0  0
 27 28  1  0  0  0
 28 29  2  0  0  0
 29 30  1  0  0  0
 30 31  2  0  0  0
 31 34  1  0  0  0
 34 35  2  0  0  0
 35 36  1  0  0  0
 36 37  2  0  0  0
 36 38  1  0  0  0
 31 32  1  0  0  0
 32 33  2  0  0  0
  5  6  2  0  0  0
  6 12  1  0  0  0
 12 13  2  0  0  0
 13 14  1  0  0  0
 14 15  2  0  0  0
 15 19  1  0  0  0
 19 20  1  0  0  0
 20 21  1  0  0  0
 20 22  1  0  0  0
 20 23  1  0  0  0
 15 16  1  0  0  0
 16 17  2  0  0  0
 17 18  1  0  0  0
  6  7  1  0  0  0
  7  8  2  0  0  0
  7  9  1  0  0  0
  9 10  1  0  0  0
 10 11  2  0  0  0
 11  1  1  0  0  0
 10  4  1  0  0  0
 33 28  1  0  0  0
 17 12  1  0  0  0
 38 39  1  0  0  0
M  END
> <minimizedAffinity>
-7.86420

> <CNNscore>
0.1362197846

> <CNNaffinity>
6.0816278458

> <CNN_VS>
0.8284380436

> <CNNaffinity_variance>
0.4340886176

$$$$
[H]OC(=O)/C([H])=C(\[H])c1c([H])c([H])c(Oc2c(-c3c([H])c([H])c(OC(F)(F)F)c([H])c3C([H])([H])[H])c(=O)oc3c([H])c(OC([H])([H])C([H])([H])[H])c([H])c([H])c23)c([H])c1[H]


 39 42  0  0  0  0  0  0  0  0999 V2000
    6.1451    8.2501    4.5844 C   0  0  0  0  0  0  0  0  0  0  0  0
    6.7919    7.1765    5.1459 C   0  0  0  0  0  0  0  0  0  0  0  0
    6.3728    6.7265    6.3787 C   0  0  0  0  0  0  0  0  0  0  0  0
    5.3295    7.3188    7.0621 C   0  0  0  0  0  0  0  0  0  0  0  0
    4.8933    6.8639    8.3183 C   0  0  0  0  0  0  0  0  0  0  0  0
    3.8356    7.5592    8.8678 C   0  0  0  0  0  0  0  0  0  0  0  0
    3.2178    8.6432    8.2476 C   0  0  0  0  0  0  0  0  0  0  0  0
    2.2468    9.2487    8.7970 O   0  0  0  0  0  0  0  0  0  0  0  0
    3.6669    9.0162    7.0874 O   0  0  0  0  0  0  0  0  0  0  0  0
    4.6774    8.3917    6.5067 C   0  0  0  0  0  0  0  0  0  0  0  0
    5.1064    8.8408    5.2615 C   0  0  0  0  0  0  0  0  0  0  0  0
    3.3160    7.1956   10.1698 C   0  0  0  0  0  0  0  0  0  0  0  0
    3.9570    7.6326   11.2909 C   0  0  0  0  0  0  0  0  0  0  0  0
    3.4893    7.3089   12.5392 C   0  0  0  0  0  0  0  0  0  0  0  0
    2.3606    6.5344   12.6535 C   0  0  0  0  0  0  0  0  0  0  0  0
    1.7093    6.0903   11.5168 C   0  0  0  0  0  0  0  0  0  0  0  0
    2.1908    6.4234   10.2785 C   0  0  0  0  0  0  0  0  0  0  0  0
    1.4398    5.9069    9.1051 C   0  0  0  0  0  0  0  0  0  0  0  0
    1.8835    6.2043   13.9274 O   0  0  0  0  0  0  0  0  0  0  0  0
    2.1736    4.9388   14.5107 C   0  0  0  0  0  0  0  0  0  0  0  0
    3.5097    4.6800   14.3298 F   0  0  0  0  0  0  0  0  0  0  0  0
    1.8743    4.9758   15.8601 F   0  0  0  0  0  0  0  0  0  0  0  0
    1.4055    3.9306   13.9476 F   0  0  0  0  0  0  0  0  0  0  0  0
    6.5537    8.7106    3.3531 O   0  0  0  0  0  0  0  0  0  0  0  0
    8.6437    9.8599    3.5519 C   0  0  0  0  0  0  0  0  0  0  0  0
    7.9026    8.6997    2.9274 C   0  0  0  0  0  0  0  0  0  0  0  0
    5.5322    5.8141    8.8623 O   0  0  0  0  0  0  0  0  0  0  0  0
    5.3330    4.4844    8.9282 C   0  0  0  0  0  0  0  0  0  0  0  0
    4.1578    3.8507    9.2346 C   0  0  0  0  0  0  0  0  0  0  0  0
    4.0167    2.4645    9.2909 C   0  0  0  0  0  0  0  0  0  0  0  0
    5.1063    1.6399    9.0276 C   0  0  0  0  0  0  0  0  0  0  0  0
    6.2981    2.2513    8.7170 C   0  0  0  0  0  0  0  0  0  0  0  0
    6.4127    3.6205    8.6677 C   0  0  0  0  0  0  0  0  0  0  0  0
    4.9362    0.1989    9.0923 C   0  0  0  0  0  0  0  0  0  0  0  0
    3.7997   -0.4023    9.3797 C   0  0  0  0  0  0  0  0  0  0  0  0
    3.7583   -1.8772    9.4135 C   0  0  0  0  0  0  0  0  0  0  0  0
    2.9303   -2.5271    8.7389 O   0  0  0  0  0  0  0  0  0  0  0  0
    4.6456   -2.5813   10.2019 O   0  0  0  0  0  0  0  0  0  0  0  0
    5.3911   -3.1708    9.8139 H   0  0  0  0  0  0  0  0  0  0  0  0
 25 26  1  0  0  0
 26 24  1  0  0  0
 24  1  1  0  0  0
  1  2  2  0  0  0
  2  3  1  0  0  0
  3  4  2  0  0  0
  4  5  1  0  0  0
  5 27  1  0  0  0
 27 28  1  0  0  0
 28 29  2  0  0  0
 29 30  1  0  0  0
 30 31  2  0  0  0
 31 34  1  0  0  0
 34 35  2  0  0  0
 35 36  1  0  0  0
 36 37  2  0  0  0
 36 38  1  0  0  0
 31 32  1  0  0  0
 32 33  2  0  0  0
  5  6  2  0  0  0
  6 12  1  0  0  0
 12 13  2  0  0  0
 13 14  1  0  0  0
 14 15  2  0  0  0
 15 19  1  0  0  0
 19 20  1  0  0  0
 20 21  1  0  0  0
 20 22  1  0  0  0
 20 23  1  0  0  0
 15 16  1  0  0  0
 16 17  2  0  0  0
 17 18  1  0  0  0
  6  7  1  0  0  0
  7  8  2  0  0  0
  7  9  1  0  0  0
  9 10  1  0  0  0
 10 11  2  0  0  0
 11  1  1  0  0  0
 10  4  1  0  0  0
 33 28  1  0  0  0
 17 12  1  0  0  0
 38 39  1  0  0  0
M  END
> <minimizedAffinity>
-5.71135

> <CNNscore>
0.1284912825

> <CNNaffinity>
5.7191610336

> <CNN_VS>
0.7348623276

> <CNNaffinity_variance>
0.3387670815

$$$$
[H]N=C(c1c([H])c([H])c([H])c(Oc2c([H])c([H])c(N([H])[H])c([H])c2C(=O)N([H])c2c([H])c([H])c(-c3c([H])c([H])c([H])c([H])c3S(=O)(=O)N([H])[H])c([H])c2[H])c1[H])N([H])[H]


 44 47  0  0  0  0  0  0  0  0999 V2000
    4.3869    1.5925   18.9148 C   0  0  0  0  0  0  0  0  0  0  0  0
    4.9655    1.3931   20.1941 C   0  0  0  0  0  0  0  0  0  0  0  0
    4.4519    0.4511   21.0443 C   0  0  0  0  0  0  0  0  0  0  0  0
    3.3716   -0.2826   20.6222 C   0  0  0  0  0  0  0  0  0  0  0  0
    2.8492   -1.2416   21.5244 N   0  0  0  0  0  0  0  0  0  0  0  0
    2.8169   -0.0929   19.3820 C   0  0  0  0  0  0  0  0  0  0  0  0
    3.3416    0.8829   18.4702 C   0  0  0  0  0  0  0  0  0  0  0  0
    2.6228   -2.1945   21.2242 H   0  0  0  0  0  0  0  0  0  0  0  0
    2.7003   -0.9297   22.4976 H   0  0  0  0  0  0  0  0  0  0  0  0
    2.9014    0.6977   17.0606 C   0  0  0  0  0  0  0  0  0  0  0  0
    2.5483   -0.5404   16.8702 O   0  0  0  0  0  0  0  0  0  0  0  0
    2.8284    1.5628   16.0705 N   0  0  0  0  0  0  0  0  0  0  0  0
    1.9916    0.6779   15.3975 H   0  0  0  0  0  0  0  0  0  0  0  0
    2.7519    2.4691   15.0334 C   0  0  0  0  0  0  0  0  0  0  0  0
    1.4949    2.7524   14.4496 C   0  0  0  0  0  0  0  0  0  0  0  0
    1.3706    3.5826   13.3590 C   0  0  0  0  0  0  0  0  0  0  0  0
    2.4675    4.1755   12.7876 C   0  0  0  0  0  0  0  0  0  0  0  0
    3.6982    3.9228   13.3356 C   0  0  0  0  0  0  0  0  0  0  0  0
    3.8354    3.0891   14.4324 C   0  0  0  0  0  0  0  0  0  0  0  0
    2.3811    5.0114   11.6118 C   0  0  0  0  0  0  0  0  0  0  0  0
    2.4876    6.3870   11.6949 C   0  0  0  0  0  0  0  0  0  0  0  0
    2.3708    7.1921   10.5907 C   0  0  0  0  0  0  0  0  0  0  0  0
    2.1401    6.6139    9.3614 C   0  0  0  0  0  0  0  0  0  0  0  0
    2.0329    5.2539    9.2588 C   0  0  0  0  0  0  0  0  0  0  0  0
    2.1538    4.4431   10.3824 C   0  0  0  0  0  0  0  0  0  0  0  0
    2.0379    2.7455   10.1662 S   0  0  0  0  0  0  0  0  0  0  0  0
    0.5087    2.1999   10.8283 N   0  0  0  0  0  0  0  0  0  0  0  0
    3.0663    2.0444   11.0379 O   0  0  0  0  0  0  0  0  0  0  0  0
    2.1222    2.2875    8.7389 O   0  0  0  0  0  0  0  0  0  0  0  0
    0.5187    2.2375   11.8693 H   0  0  0  0  0  0  0  0  0  0  0  0
   -0.2485    2.8134   10.4843 H   0  0  0  0  0  0  0  0  0  0  0  0
    4.9830    2.6138   18.1377 O   0  0  0  0  0  0  0  0  0  0  0  0
    4.1385    5.5208   20.1957 C   0  0  0  0  0  0  0  0  0  0  0  0
    3.4458    6.3213   19.3114 C   0  0  0  0  0  0  0  0  0  0  0  0
    3.2281    5.9483   18.0088 C   0  0  0  0  0  0  0  0  0  0  0  0
    3.7459    4.7042   17.6110 C   0  0  0  0  0  0  0  0  0  0  0  0
    4.4254    3.8828   18.4259 C   0  0  0  0  0  0  0  0  0  0  0  0
    4.6270    4.3138   19.7674 C   0  0  0  0  0  0  0  0  0  0  0  0
    4.3757    5.1385   22.5752 N   0  0  0  0  0  0  0  0  0  0  0  0
    4.3496    5.9329   21.5891 C   0  0  0  0  0  0  0  0  0  0  0  0
    4.5203    7.3175   21.8537 N   0  0  0  0  0  0  0  0  0  0  0  0
    4.2752    4.1257   22.6069 H   0  0  0  0  0  0  0  0  0  0  0  0
    3.7569    7.7668   22.4223 H   0  0  0  0  0  0  0  0  0  0  0  0
    5.2968    7.9126   21.5520 H   0  0  0  0  0  0  0  0  0  0  0  0
 39 40  2  0  0  0
 40 41  1  0  0  0
 40 33  1  0  0  0
 33 34  2  0  0  0
 34 35  1  0  0  0
 35 36  2  0  0  0
 36 37  1  0  0  0
 37 32  1  0  0  0
 32  1  1  0  0  0
  1  2  2  0  0  0
  2  3  1  0  0  0
  3  4  2  0  0  0
  4  5  1  0  0  0
  4  6  1  0  0  0
  6  7  2  0  0  0
  7 10  1  0  0  0
 10 11  2  0  0  0
 10 12  1  0  0  0
 12 14  1  0  0  0
 14 15  2  0  0  0
 15 16  1  0  0  0
 16 17  2  0  0  0
 17 20  1  0  0  0
 20 21  2  0  0  0
 21 22  1  0  0  0
 22 23  2  0  0  0
 23 24  1  0  0  0
 24 25  2  0  0  0
 25 26  1  0  0  0
 26 27  1  0  0  0
 26 28  2  0  0  0
 26 29  2  0  0  0
 17 18  1  0  0  0
 18 19  2  0  0  0
 37 38  2  0  0  0
 38 33  1  0  0  0
  7  1  1  0  0  0
 19 14  1  0  0  0
 25 20  1  0  0  0
 39 42  1  0  0  0
 41 43  1  0  0  0
 41 44  1  0  0  0
  5  8  1  0  0  0
  5  9  1  0  0  0
 12 13  1  0  0  0
 27 30  1  0  0  0
 27 31  1  0  0  0
M  END
> <minimizedAffinity>
-8.76024

> <CNNscore>
0.6790785193

> <CNNaffinity>
6.9668436050

> <CNN_VS>
4.7310338020

> <CNNaffinity_variance>
0.2250967324

$$$$
[H]N=C(c1c([H])c([H])c([H])c(Oc2c([H])c([H])c(N([H])[H])c([H])c2C(=O)N([H])c2c([H])c([H])c(-c3c([H])c([H])c([H])c([H])c3S(=O)(=O)N([H])[H])c([H])c2[H])c1[H])N([H])[H]


 44 47  0  0  0  0  0  0  0  0999 V2000
    4.5262    2.0828   18.4633 C   0  0  0  0  0  0  0  0  0  0  0  0
    5.3176    2.0898   19.6400 C   0  0  0  0  0  0  0  0  0  0  0  0
    4.9969    1.2747   20.6920 C   0  0  0  0  0  0  0  0  0  0  0  0
    3.8972    0.4626   20.5708 C   0  0  0  0  0  0  0  0  0  0  0  0
    3.5773   -0.3618   21.6773 N   0  0  0  0  0  0  0  0  0  0  0  0
    3.1362    0.4522   19.4295 C   0  0  0  0  0  0  0  0  0  0  0  0
    3.4560    1.2919   18.3106 C   0  0  0  0  0  0  0  0  0  0  0  0
    3.3492   -1.3537   21.5604 H   0  0  0  0  0  0  0  0  0  0  0  0
    3.5773    0.0888   22.6065 H   0  0  0  0  0  0  0  0  0  0  0  0
    2.7975    0.8882   17.0386 C   0  0  0  0  0  0  0  0  0  0  0  0
    2.2029   -0.2587   17.1968 O   0  0  0  0  0  0  0  0  0  0  0  0
    2.7449    1.5019   15.8746 N   0  0  0  0  0  0  0  0  0  0  0  0
    1.6762    0.6828   15.5238 H   0  0  0  0  0  0  0  0  0  0  0  0
    2.6898    2.1447   14.6554 C   0  0  0  0  0  0  0  0  0  0  0  0
    1.7272    1.7418   13.7004 C   0  0  0  0  0  0  0  0  0  0  0  0
    1.6816    2.2896   12.4386 C   0  0  0  0  0  0  0  0  0  0  0  0
    2.5733    3.2567   12.0504 C   0  0  0  0  0  0  0  0  0  0  0  0
    3.5144    3.6702   12.9571 C   0  0  0  0  0  0  0  0  0  0  0  0
    3.5701    3.1260   14.2289 C   0  0  0  0  0  0  0  0  0  0  0  0
    2.5880    3.8176   10.7185 C   0  0  0  0  0  0  0  0  0  0  0  0
    3.2717    3.2051    9.6851 C   0  0  0  0  0  0  0  0  0  0  0  0
    3.3226    3.7475    8.4264 C   0  0  0  0  0  0  0  0  0  0  0  0
    2.6737    4.9385    8.1835 C   0  0  0  0  0  0  0  0  0  0  0  0
    1.9907    5.5593    9.1933 C   0  0  0  0  0  0  0  0  0  0  0  0
    1.9418    5.0031   10.4672 C   0  0  0  0  0  0  0  0  0  0  0  0
    1.0392    5.8266   11.6708 S   0  0  0  0  0  0  0  0  0  0  0  0
    0.3221    7.2565   10.9525 N   0  0  0  0  0  0  0  0  0  0  0  0
    1.9797    6.3964   12.7196 O   0  0  0  0  0  0  0  0  0  0  0  0
   -0.0575    5.0153   12.2977 O   0  0  0  0  0  0  0  0  0  0  0  0
    1.0466    7.9799   10.7597 H   0  0  0  0  0  0  0  0  0  0  0  0
   -0.1299    6.9979   10.0599 H   0  0  0  0  0  0  0  0  0  0  0  0
    4.9365    2.9891   17.4571 O   0  0  0  0  0  0  0  0  0  0  0  0
    4.9683    5.7669   19.8409 C   0  0  0  0  0  0  0  0  0  0  0  0
    5.9431    6.5937   19.3226 C   0  0  0  0  0  0  0  0  0  0  0  0
    6.6313    6.2790   18.1776 C   0  0  0  0  0  0  0  0  0  0  0  0
    6.2969    5.0671   17.5503 C   0  0  0  0  0  0  0  0  0  0  0  0
    5.3578    4.2241   18.0062 C   0  0  0  0  0  0  0  0  0  0  0  0
    4.6720    4.5931   19.1977 C   0  0  0  0  0  0  0  0  0  0  0  0
    3.2891    5.4469   21.5561 N   0  0  0  0  0  0  0  0  0  0  0  0
    4.2347    6.1281   21.0603 C   0  0  0  0  0  0  0  0  0  0  0  0
    4.5972    7.3312   21.7219 N   0  0  0  0  0  0  0  0  0  0  0  0
    2.8776    4.5688   21.2453 H   0  0  0  0  0  0  0  0  0  0  0  0
    3.8621    8.0845   21.7257 H   0  0  0  0  0  0  0  0  0  0  0  0
    5.4862    7.5365   22.1866 H   0  0  0  0  0  0  0  0  0  0  0  0
 39 40  2  0  0  0
 40 41  1  0  0  0
 40 33  1  0  0  0
 33 34  2  0  0  0
 34 35  1  0  0  0
 35 36  2  0  0  0
 36 37  1  0  0  0
 37 32  1  0  0  0
 32  1  1  0  0  0
  1  2  2  0  0  0
  2  3  1  0  0  0
  3  4  2  0  0  0
  4  5  1  0  0  0
  4  6  1  0  0  0
  6  7  2  0  0  0
  7 10  1  0  0  0
 10 11  2  0  0  0
 10 12  1  0  0  0
 12 14  1  0  0  0
 14 15  2  0  0  0
 15 16  1  0  0  0
 16 17  2  0  0  0
 17 20  1  0  0  0
 20 21  2  0  0  0
 21 22  1  0  0  0
 22 23  2  0  0  0
 23 24  1  0  0  0
 24 25  2  0  0  0
 25 26  1  0  0  0
 26 27  1  0  0  0
 26 28  2  0  0  0
 26 29  2  0  0  0
 17 18  1  0  0  0
 18 19  2  0  0  0
 37 38  2  0  0  0
 38 33  1  0  0  0
  7  1  1  0  0  0
 19 14  1  0  0  0
 25 20  1  0  0  0
 39 42  1  0  0  0
 41 43  1  0  0  0
 41 44  1  0  0  0
  5  8  1  0  0  0
  5  9  1  0  0  0
 12 13  1  0  0  0
 27 30  1  0  0  0
 27 31  1  0  0  0
M  END
> <minimizedAffinity>
-9.22755

> <CNNscore>
0.5945420265

> <CNNaffinity>
6.8678488731

> <CNN_VS>
4.0832247734

> <CNNaffinity_variance>
0.1861340404

$$$$
[H]N=C(c1c([H])c([H])c([H])c(Oc2c([H])c([H])c(N([H])[H])c([H])c2C(=O)N([H])c2c([H])c([H])c(-c3c([H])c([H])c([H])c([H])c3S(=O)(=O)N([H])[H])c([H])c2[H])c1[H])N([H])[H]


 44 47  0  0  0  0  0  0  0  0999 V2000
    4.3551    1.5876   18.8884 C   0  0  0  0  0  0  0  0  0  0  0  0
    4.9317    1.4234   20.1735 C   0  0  0  0  0  0  0  0  0  0  0  0
    4.4393    0.4805   21.0352 C   0  0  0  0  0  0  0  0  0  0  0  0
    3.3820   -0.2888   20.6187 C   0  0  0  0  0  0  0  0  0  0  0  0
    2.8810   -1.2482   21.5325 N   0  0  0  0  0  0  0  0  0  0  0  0
    2.8292   -0.1332   19.3729 C   0  0  0  0  0  0  0  0  0  0  0  0
    3.3321    0.8430   18.4491 C   0  0  0  0  0  0  0  0  0  0  0  0
    2.6826   -2.2115   21.2455 H   0  0  0  0  0  0  0  0  0  0  0  0
    2.7181   -0.9261   22.5000 H   0  0  0  0  0  0  0  0  0  0  0  0
    2.9052    0.6246   17.0402 C   0  0  0  0  0  0  0  0  0  0  0  0
    2.5814   -0.6242   16.8683 O   0  0  0  0  0  0  0  0  0  0  0  0
    2.8188    1.4714   16.0354 N   0  0  0  0  0  0  0  0  0  0  0  0
    2.0065    0.5568   15.3723 H   0  0  0  0  0  0  0  0  0  0  0  0
    2.7283    2.3585   14.9830 C   0  0  0  0  0  0  0  0  0  0  0  0
    3.8394    3.1739   14.6640 C   0  0  0  0  0  0  0  0  0  0  0  0
    3.7775    4.1343   13.6802 C   0  0  0  0  0  0  0  0  0  0  0  0
    2.6282    4.3433   12.9614 C   0  0  0  0  0  0  0  0  0  0  0  0
    1.5369    3.5642   13.2457 C   0  0  0  0  0  0  0  0  0  0  0  0
    1.5874    2.5953   14.2333 C   0  0  0  0  0  0  0  0  0  0  0  0
    2.5107    5.3760   11.9572 C   0  0  0  0  0  0  0  0  0  0  0  0
    2.5912    5.0838   10.6087 C   0  0  0  0  0  0  0  0  0  0  0  0
    2.5174    6.0606    9.6487 C   0  0  0  0  0  0  0  0  0  0  0  0
    2.3588    7.3725   10.0386 C   0  0  0  0  0  0  0  0  0  0  0  0
    2.2760    7.6815   11.3687 C   0  0  0  0  0  0  0  0  0  0  0  0
    2.3501    6.6859   12.3372 C   0  0  0  0  0  0  0  0  0  0  0  0
    2.2070    7.1509   13.9820 S   0  0  0  0  0  0  0  0  0  0  0  0
    0.7814    6.3856   14.6580 N   0  0  0  0  0  0  0  0  0  0  0  0
    1.8837    8.6330   14.0714 O   0  0  0  0  0  0  0  0  0  0  0  0
    3.3850    6.7916   14.8405 O   0  0  0  0  0  0  0  0  0  0  0  0
   -0.0880    6.8200   14.2831 H   0  0  0  0  0  0  0  0  0  0  0  0
    0.7828    5.3831   14.4069 H   0  0  0  0  0  0  0  0  0  0  0  0
    4.9273    2.6132   18.0990 O   0  0  0  0  0  0  0  0  0  0  0  0
    4.5139    5.7509   19.9384 C   0  0  0  0  0  0  0  0  0  0  0  0
    3.4865    6.3653   19.2532 C   0  0  0  0  0  0  0  0  0  0  0  0
    2.8887    5.7842   18.1630 C   0  0  0  0  0  0  0  0  0  0  0  0
    3.3727    4.5247   17.7714 C   0  0  0  0  0  0  0  0  0  0  0  0
    4.3669    3.8782   18.3992 C   0  0  0  0  0  0  0  0  0  0  0  0
    4.9564    4.5215   19.5238 C   0  0  0  0  0  0  0  0  0  0  0  0
    4.5431    7.2048   21.8748 N   0  0  0  0  0  0  0  0  0  0  0  0
    5.1315    6.3841   21.1103 C   0  0  0  0  0  0  0  0  0  0  0  0
    6.4856    6.0691   21.3992 N   0  0  0  0  0  0  0  0  0  0  0  0
    3.5900    7.5622   21.8475 H   0  0  0  0  0  0  0  0  0  0  0  0
    7.1654    6.8672   21.3061 H   0  0  0  0  0  0  0  0  0  0  0  0
    6.8609    5.1598   21.6830 H   0  0  0  0  0  0  0  0  0  0  0  0
 39 40  2  0  0  0
 40 41  1  0  0  0
 40 33  1  0  0  0
 33 34  2  0  0  0
 34 35  1  0  0  0
 35 36  2  0  0  0
 36 37  1  0  0  0
 37 32  1  0  0  0
 32  1  1  0  0  0
  1  2  2  0  0  0
  2  3  1  0  0  0
  3  4  2  0  0  0
  4  5  1  0  0  0
  4  6  1  0  0  0
  6  7  2  0  0  0
  7 10  1  0  0  0
 10 11  2  0  0  0
 10 12  1  0  0  0
 12 14  1  0  0  0
 14 15  2  0  0  0
 15 16  1  0  0  0
 16 17  2  0  0  0
 17 20  1  0  0  0
 20 21  2  0  0  0
 21 22  1  0  0  0
 22 23  2  0  0  0
 23 24  1  0  0  0
 24 25  2  0  0  0
 25 26  1  0  0  0
 26 27  1  0  0  0
 26 28  2  0  0  0
 26 29  2  0  0  0
 17 18  1  0  0  0
 18 19  2  0  0  0
 37 38  2  0  0  0
 38 33  1  0  0  0
  7  1  1  0  0  0
 19 14  1  0  0  0
 25 20  1  0  0  0
 39 42  1  0  0  0
 41 43  1  0  0  0
 41 44  1  0  0  0
  5  8  1  0  0  0
  5  9  1  0  0  0
 12 13  1  0  0  0
 27 30  1  0  0  0
 27 31  1  0  0  0
M  END
> <minimizedAffinity>
-9.52136

> <CNNscore>
0.5858898759

> <CNNaffinity>
6.8802385330

> <CNN_VS>
4.0310621262

> <CNNaffinity_variance>
0.1885918230

$$$$
[H]N=C(c1c([H])c([H])c([H])c(Oc2c([H])c([H])c(N([H])[H])c([H])c2C(=O)N([H])c2c([H])c([H])c(-c3c([H])c([H])c([H])c([H])c3S(=O)(=O)N([H])[H])c([H])c2[H])c1[H])N([H])[H]


 44 47  0  0  0  0  0  0  0  0999 V2000
    4.3790    1.7078   18.7141 C   0  0  0  0  0  0  0  0  0  0  0  0
    4.9970    1.6148   19.9871 C   0  0  0  0  0  0  0  0  0  0  0  0
    4.5403    0.7143   20.9115 C   0  0  0  0  0  0  0  0  0  0  0  0
    3.4773   -0.0834   20.5689 C   0  0  0  0  0  0  0  0  0  0  0  0
    3.0137   -0.9977   21.5465 N   0  0  0  0  0  0  0  0  0  0  0  0
    2.8845    0.0034   19.3349 C   0  0  0  0  0  0  0  0  0  0  0  0
    3.3495    0.9340   18.3465 C   0  0  0  0  0  0  0  0  0  0  0  0
    2.8150   -1.9759   21.3161 H   0  0  0  0  0  0  0  0  0  0  0  0
    2.8783   -0.6270   22.5008 H   0  0  0  0  0  0  0  0  0  0  0  0
    2.8807    0.6397   16.9650 C   0  0  0  0  0  0  0  0  0  0  0  0
    2.5779   -0.6220   16.8637 O   0  0  0  0  0  0  0  0  0  0  0  0
    2.7429    1.4354   15.9248 N   0  0  0  0  0  0  0  0  0  0  0  0
    1.9287    0.4741   15.3340 H   0  0  0  0  0  0  0  0  0  0  0  0
    2.5986    2.2689   14.8351 C   0  0  0  0  0  0  0  0  0  0  0  0
    3.4025    3.4286   14.7362 C   0  0  0  0  0  0  0  0  0  0  0  0
    3.2431    4.3386   13.7161 C   0  0  0  0  0  0  0  0  0  0  0  0
    2.2918    4.1587   12.7445 C   0  0  0  0  0  0  0  0  0  0  0  0
    1.5014    3.0408   12.8124 C   0  0  0  0  0  0  0  0  0  0  0  0
    1.6525    2.1189   13.8341 C   0  0  0  0  0  0  0  0  0  0  0  0
    2.0616    5.1178   11.6882 C   0  0  0  0  0  0  0  0  0  0  0  0
    1.0422    6.0479   11.7676 C   0  0  0  0  0  0  0  0  0  0  0  0
    0.7919    6.9386   10.7551 C   0  0  0  0  0  0  0  0  0  0  0  0
    1.5789    6.9063    9.6246 C   0  0  0  0  0  0  0  0  0  0  0  0
    2.5935    5.9936    9.5280 C   0  0  0  0  0  0  0  0  0  0  0  0
    2.8429    5.0940   10.5590 C   0  0  0  0  0  0  0  0  0  0  0  0
    4.1525    4.0018   10.3750 S   0  0  0  0  0  0  0  0  0  0  0  0
    4.7736    4.1428    8.7412 N   0  0  0  0  0  0  0  0  0  0  0  0
    3.6419    2.5718   10.4326 O   0  0  0  0  0  0  0  0  0  0  0  0
    5.2899    4.2191   11.3305 O   0  0  0  0  0  0  0  0  0  0  0  0
    4.1100    3.7287    8.0532 H   0  0  0  0  0  0  0  0  0  0  0  0
    4.9034    5.1422    8.5123 H   0  0  0  0  0  0  0  0  0  0  0  0
    4.9171    2.6953   17.8551 O   0  0  0  0  0  0  0  0  0  0  0  0
    5.4682    6.1079   19.0590 C   0  0  0  0  0  0  0  0  0  0  0  0
    4.1853    6.6090   19.1330 C   0  0  0  0  0  0  0  0  0  0  0  0
    3.0892    5.8571   18.7914 C   0  0  0  0  0  0  0  0  0  0  0  0
    3.3325    4.5426   18.3591 C   0  0  0  0  0  0  0  0  0  0  0  0
    4.5565    4.0004   18.2684 C   0  0  0  0  0  0  0  0  0  0  0  0
    5.6622    4.8197   18.6324 C   0  0  0  0  0  0  0  0  0  0  0  0
    7.2644    6.7998   20.5285 N   0  0  0  0  0  0  0  0  0  0  0  0
    6.6266    6.9250   19.4414 C   0  0  0  0  0  0  0  0  0  0  0  0
    7.0531    7.9359   18.5400 N   0  0  0  0  0  0  0  0  0  0  0  0
    7.1269    6.1506   21.3008 H   0  0  0  0  0  0  0  0  0  0  0  0
    6.9464    8.9244   18.8856 H   0  0  0  0  0  0  0  0  0  0  0  0
    7.4462    7.8027   17.6041 H   0  0  0  0  0  0  0  0  0  0  0  0
 39 40  2  0  0  0
 40 41  1  0  0  0
 40 33  1  0  0  0
 33 34  2  0  0  0
 34 35  1  0  0  0
 35 36  2  0  0  0
 36 37  1  0  0  0
 37 32  1  0  0  0
 32  1  1  0  0  0
  1  2  2  0  0  0
  2  3  1  0  0  0
  3  4  2  0  0  0
  4  5  1  0  0  0
  4  6  1  0  0  0
  6  7  2  0  0  0
  7 10  1  0  0  0
 10 11  2  0  0  0
 10 12  1  0  0  0
 12 14  1  0  0  0
 14 15  2  0  0  0
 15 16  1  0  0  0
 16 17  2  0  0  0
 17 20  1  0  0  0
 20 21  2  0  0  0
 21 22  1  0  0  0
 22 23  2  0  0  0
 23 24  1  0  0  0
 24 25  2  0  0  0
 25 26  1  0  0  0
 26 27  1  0  0  0
 26 28  2  0  0  0
 26 29  2  0  0  0
 17 18  1  0  0  0
 18 19  2  0  0  0
 37 38  2  0  0  0
 38 33  1  0  0  0
  7  1  1  0  0  0
 19 14  1  0  0  0
 25 20  1  0  0  0
 39 42  1  0  0  0
 41 43  1  0  0  0
 41 44  1  0  0  0
  5  8  1  0  0  0
  5  9  1  0  0  0
 12 13  1  0  0  0
 27 30  1  0  0  0
 27 31  1  0  0  0
M  END
> <minimizedAffinity>
-8.20138

> <CNNscore>
0.5613606572

> <CNNaffinity>
6.7159471512

> <CNN_VS>
3.7700684071

> <CNNaffinity_variance>
0.2477751970

$$$$
[H]N=C(c1c([H])c([H])c([H])c(Oc2c([H])c([H])c(N([H])[H])c([H])c2C(=O)N([H])c2c([H])c([H])c(-c3c([H])c([H])c([H])c([H])c3S(=O)(=O)N([H])[H])c([H])c2[H])c1[H])N([H])[H]


 44 47  0  0  0  0  0  0  0  0999 V2000
    4.3779    1.6735   19.1807 C   0  0  0  0  0  0  0  0  0  0  0  0
    4.9311    1.3923   20.4558 C   0  0  0  0  0  0  0  0  0  0  0  0
    4.4409    0.3588   21.2078 C   0  0  0  0  0  0  0  0  0  0  0  0
    3.4087   -0.3848   20.6927 C   0  0  0  0  0  0  0  0  0  0  0  0
    2.9092   -1.4401   21.4947 N   0  0  0  0  0  0  0  0  0  0  0  0
    2.8788   -0.1156   19.4564 C   0  0  0  0  0  0  0  0  0  0  0  0
    3.3800    0.9575   18.6462 C   0  0  0  0  0  0  0  0  0  0  0  0
    2.7370   -2.3733   21.1087 H   0  0  0  0  0  0  0  0  0  0  0  0
    2.7196   -1.2195   22.4856 H   0  0  0  0  0  0  0  0  0  0  0  0
    2.9871    0.8732   17.2133 C   0  0  0  0  0  0  0  0  0  0  0  0
    2.4341   -0.2809   16.9769 O   0  0  0  0  0  0  0  0  0  0  0  0
    3.1164    1.7526   16.2415 N   0  0  0  0  0  0  0  0  0  0  0  0
    2.1739    1.0380   15.5086 H   0  0  0  0  0  0  0  0  0  0  0  0
    3.2518    2.6737   15.2237 C   0  0  0  0  0  0  0  0  0  0  0  0
    2.9115    2.3033   13.9016 C   0  0  0  0  0  0  0  0  0  0  0  0
    3.1057    3.1524   12.8360 C   0  0  0  0  0  0  0  0  0  0  0  0
    3.6408    4.4031   13.0114 C   0  0  0  0  0  0  0  0  0  0  0  0
    3.9756    4.7908   14.2828 C   0  0  0  0  0  0  0  0  0  0  0  0
    3.7850    3.9450   15.3622 C   0  0  0  0  0  0  0  0  0  0  0  0
    3.9064    5.3015   11.9109 C   0  0  0  0  0  0  0  0  0  0  0  0
    5.0661    5.2058   11.1650 C   0  0  0  0  0  0  0  0  0  0  0  0
    5.3450    6.0759   10.1421 C   0  0  0  0  0  0  0  0  0  0  0  0
    4.4436    7.0757    9.8485 C   0  0  0  0  0  0  0  0  0  0  0  0
    3.2895    7.1858   10.5748 C   0  0  0  0  0  0  0  0  0  0  0  0
    3.0120    6.2993   11.6100 C   0  0  0  0  0  0  0  0  0  0  0  0
    1.5298    6.4847   12.4529 S   0  0  0  0  0  0  0  0  0  0  0  0
    0.5595    7.6856   11.6215 N   0  0  0  0  0  0  0  0  0  0  0  0
    1.7853    7.1199   13.8095 O   0  0  0  0  0  0  0  0  0  0  0  0
    0.7173    5.2284   12.5776 O   0  0  0  0  0  0  0  0  0  0  0  0
    0.9520    8.6410   11.7573 H   0  0  0  0  0  0  0  0  0  0  0  0
    0.5511    7.4743   10.6099 H   0  0  0  0  0  0  0  0  0  0  0  0
    4.9447    2.7836   18.5106 O   0  0  0  0  0  0  0  0  0  0  0  0
    4.2571    6.2834   19.3339 C   0  0  0  0  0  0  0  0  0  0  0  0
    4.7370    6.3865   20.6230 C   0  0  0  0  0  0  0  0  0  0  0  0
    5.3012    5.3201   21.2772 C   0  0  0  0  0  0  0  0  0  0  0  0
    5.3698    4.1076   20.5707 C   0  0  0  0  0  0  0  0  0  0  0  0
    4.9218    3.9476   19.3160 C   0  0  0  0  0  0  0  0  0  0  0  0
    4.3436    5.0820   18.6795 C   0  0  0  0  0  0  0  0  0  0  0  0
    3.2494    8.4830   19.2308 N   0  0  0  0  0  0  0  0  0  0  0  0
    3.6685    7.4400   18.6472 C   0  0  0  0  0  0  0  0  0  0  0  0
    3.5447    7.3810   17.2339 N   0  0  0  0  0  0  0  0  0  0  0  0
    3.2427    8.7258   20.2197 H   0  0  0  0  0  0  0  0  0  0  0  0
    2.5584    7.3666   16.8664 H   0  0  0  0  0  0  0  0  0  0  0  0
    4.3045    7.3508   16.5482 H   0  0  0  0  0  0  0  0  0  0  0  0
 39 40  2  0  0  0
 40 41  1  0  0  0
 40 33  1  0  0  0
 33 34  2  0  0  0
 34 35  1  0  0  0
 35 36  2  0  0  0
 36 37  1  0  0  0
 37 32  1  0  0  0
 32  1  1  0  0  0
  1  2  2  0  0  0
  2  3  1  0  0  0
  3  4  2  0  0  0
  4  5  1  0  0  0
  4  6  1  0  0  0
  6  7  2  0  0  0
  7 10  1  0  0  0
 10 11  2  0  0  0
 10 12  1  0  0  0
 12 14  1  0  0  0
 14 15  2  0  0  0
 15 16  1  0  0  0
 16 17  2  0  0  0
 17 20  1  0  0  0
 20 21  2  0  0  0
 21 22  1  0  0  0
 22 23  2  0  0  0
 23 24  1  0  0  0
 24 25  2  0  0  0
 25 26  1  0  0  0
 26 27  1  0  0  0
 26 28  2  0  0  0
 26 29  2  0  0  0
 17 18  1  0  0  0
 18 19  2  0  0  0
 37 38  2  0  0  0
 38 33  1  0  0  0
  7  1  1  0  0  0
 19 14  1  0  0  0
 25 20  1  0  0  0
 39 42  1  0  0  0
 41 43  1  0  0  0
 41 44  1  0  0  0
  5  8  1  0  0  0
  5  9  1  0  0  0
 12 13  1  0  0  0
 27 30  1  0  0  0
 27 31  1  0  0  0
M  END
> <minimizedAffinity>
-9.52914

> <CNNscore>
0.4556367695

> <CNNaffinity>
6.7865562439

> <CNN_VS>
3.0922045708

> <CNNaffinity_variance>
0.3054842949

$$$$
[H]N=C(c1c([H])c([H])c([H])c(Oc2c([H])c([H])c(N([H])[H])c([H])c2C(=O)N([H])c2c([H])c([H])c(-c3c([H])c([H])c([H])c([H])c3S(=O)(=O)N([H])[H])c([H])c2[H])c1[H])N([H])[H]


 44 47  0  0  0  0  0  0  0  0999 V2000
    4.8431    2.4843   20.7412 C   0  0  0  0  0  0  0  0  0  0  0  0
    6.0223    2.7122   21.4952 C   0  0  0  0  0  0  0  0  0  0  0  0
    6.8846    1.6814   21.7557 C   0  0  0  0  0  0  0  0  0  0  0  0
    6.5720    0.4366   21.2697 C   0  0  0  0  0  0  0  0  0  0  0  0
    7.4723   -0.6169   21.5636 N   0  0  0  0  0  0  0  0  0  0  0  0
    5.4342    0.2189   20.5351 C   0  0  0  0  0  0  0  0  0  0  0  0
    4.5185    1.2843   20.2426 C   0  0  0  0  0  0  0  0  0  0  0  0
    7.7849   -1.2737   20.8422 H   0  0  0  0  0  0  0  0  0  0  0  0
    7.7911   -0.6947   22.5428 H   0  0  0  0  0  0  0  0  0  0  0  0
    3.5710    0.9857   19.1345 C   0  0  0  0  0  0  0  0  0  0  0  0
    2.7641    0.0295   19.4926 O   0  0  0  0  0  0  0  0  0  0  0  0
    3.4583    1.5297   17.9405 N   0  0  0  0  0  0  0  0  0  0  0  0
    2.1842    0.9792   17.8419 H   0  0  0  0  0  0  0  0  0  0  0  0
    3.3402    2.0995   16.6898 C   0  0  0  0  0  0  0  0  0  0  0  0
    4.3242    3.0144   16.2475 C   0  0  0  0  0  0  0  0  0  0  0  0
    4.2136    3.6762   15.0458 C   0  0  0  0  0  0  0  0  0  0  0  0
    3.1373    3.4754   14.2196 C   0  0  0  0  0  0  0  0  0  0  0  0
    2.1705    2.5903   14.6206 C   0  0  0  0  0  0  0  0  0  0  0  0
    2.2710    1.9192   15.8273 C   0  0  0  0  0  0  0  0  0  0  0  0
    2.9622    4.1900   12.9757 C   0  0  0  0  0  0  0  0  0  0  0  0
    3.2121    3.5885   11.7565 C   0  0  0  0  0  0  0  0  0  0  0  0
    3.0842    4.2682   10.5721 C   0  0  0  0  0  0  0  0  0  0  0  0
    2.6956    5.5899   10.5967 C   0  0  0  0  0  0  0  0  0  0  0  0
    2.4426    6.2023   11.7936 C   0  0  0  0  0  0  0  0  0  0  0  0
    2.5728    5.5069   12.9911 C   0  0  0  0  0  0  0  0  0  0  0  0
    2.2075    6.3363   14.4473 S   0  0  0  0  0  0  0  0  0  0  0  0
    1.4635    7.8724   14.0451 N   0  0  0  0  0  0  0  0  0  0  0  0
    3.4950    6.7434   15.1444 O   0  0  0  0  0  0  0  0  0  0  0  0
    1.2882    5.5979   15.3765 O   0  0  0  0  0  0  0  0  0  0  0  0
    2.1637    8.5323   13.6455 H   0  0  0  0  0  0  0  0  0  0  0  0
    0.7208    7.7166   13.3436 H   0  0  0  0  0  0  0  0  0  0  0  0
    4.0146    3.6176   20.5632 O   0  0  0  0  0  0  0  0  0  0  0  0
    5.3038    7.0273   20.2300 C   0  0  0  0  0  0  0  0  0  0  0  0
    5.9821    6.9739   19.0302 C   0  0  0  0  0  0  0  0  0  0  0  0
    6.0495    5.8250   18.2826 C   0  0  0  0  0  0  0  0  0  0  0  0
    5.3915    4.6950   18.7967 C   0  0  0  0  0  0  0  0  0  0  0  0
    4.7152    4.6872   19.9556 C   0  0  0  0  0  0  0  0  0  0  0  0
    4.6746    5.9021   20.6961 C   0  0  0  0  0  0  0  0  0  0  0  0
    4.5333    8.4225   22.0532 N   0  0  0  0  0  0  0  0  0  0  0  0
    5.2330    8.2702   21.0085 C   0  0  0  0  0  0  0  0  0  0  0  0
    5.9867    9.3837   20.5521 N   0  0  0  0  0  0  0  0  0  0  0  0
    3.9288    7.7647   22.5418 H   0  0  0  0  0  0  0  0  0  0  0  0
    5.4214   10.2107   20.2289 H   0  0  0  0  0  0  0  0  0  0  0  0
    7.0065    9.4617   20.5058 H   0  0  0  0  0  0  0  0  0  0  0  0
 39 40  2  0  0  0
 40 41  1  0  0  0
 40 33  1  0  0  0
 33 34  2  0  0  0
 34 35  1  0  0  0
 35 36  2  0  0  0
 36 37  1  0  0  0
 37 32  1  0  0  0
 32  1  1  0  0  0
  1  2  2  0  0  0
  2  3  1  0  0  0
  3  4  2  0  0  0
  4  5  1  0  0  0
  4  6  1  0  0  0
  6  7  2  0  0  0
  7 10  1  0  0  0
 10 11  2  0  0  0
 10 12  1  0  0  0
 12 14  1  0  0  0
 14 15  2  0  0  0
 15 16  1  0  0  0
 16 17  2  0  0  0
 17 20  1  0  0  0
 20 21  2  0  0  0
 21 22  1  0  0  0
 22 23  2  0  0  0
 23 24  1  0  0  0
 24 25  2  0  0  0
 25 26  1  0  0  0
 26 27  1  0  0  0
 26 28  2  0  0  0
 26 29  2  0  0  0
 17 18  1  0  0  0
 18 19  2  0  0  0
 37 38  2  0  0  0
 38 33  1  0  0  0
  7  1  1  0  0  0
 19 14  1  0  0  0
 25 20  1  0  0  0
 39 42  1  0  0  0
 41 43  1  0  0  0
 41 44  1  0  0  0
  5  8  1  0  0  0
  5  9  1  0  0  0
 12 13  1  0  0  0
 27 30  1  0  0  0
 27 31  1  0  0  0
M  END
> <minimizedAffinity>
-9.36265

> <CNNscore>
0.3637246490

> <CNNaffinity>
6.6046042442

> <CNN_VS>
2.4022574425

> <CNNaffinity_variance>
0.3846294582

$$$$
[H]N=C(c1c([H])c([H])c([H])c(Oc2c([H])c([H])c(N([H])[H])c([H])c2C(=O)N([H])c2c([H])c([H])c(-c3c([H])c([H])c([H])c([H])c3S(=O)(=O)N([H])[H])c([H])c2[H])c1[H])N([H])[H]


 44 47  0  0  0  0  0  0  0  0999 V2000
    4.0238    4.0205   21.0871 C   0  0  0  0  0  0  0  0  0  0  0  0
    4.2578    4.7908   22.2546 C   0  0  0  0  0  0  0  0  0  0  0  0
    4.8337    4.2167   23.3559 C   0  0  0  0  0  0  0  0  0  0  0  0
    5.1709    2.8879   23.2923 C   0  0  0  0  0  0  0  0  0  0  0  0
    5.7529    2.3127   24.4486 N   0  0  0  0  0  0  0  0  0  0  0  0
    4.9498    2.1456   22.1601 C   0  0  0  0  0  0  0  0  0  0  0  0
    4.3543    2.7261   20.9907 C   0  0  0  0  0  0  0  0  0  0  0  0
    6.5878    1.7217   24.3928 H   0  0  0  0  0  0  0  0  0  0  0  0
    5.2887    2.5121   25.3494 H   0  0  0  0  0  0  0  0  0  0  0  0
    4.5421    1.9252   19.7505 C   0  0  0  0  0  0  0  0  0  0  0  0
    5.1291    0.8001   20.0392 O   0  0  0  0  0  0  0  0  0  0  0  0
    4.2097    2.1936   18.5048 N   0  0  0  0  0  0  0  0  0  0  0  0
    4.3557    0.8426   18.2054 H   0  0  0  0  0  0  0  0  0  0  0  0
    3.8616    2.4748   17.2000 C   0  0  0  0  0  0  0  0  0  0  0  0
    4.5990    3.4415   16.4770 C   0  0  0  0  0  0  0  0  0  0  0  0
    4.2447    3.8223   15.2028 C   0  0  0  0  0  0  0  0  0  0  0  0
    3.1543    3.2768   14.5746 C   0  0  0  0  0  0  0  0  0  0  0  0
    2.4237    2.3337   15.2497 C   0  0  0  0  0  0  0  0  0  0  0  0
    2.7704    1.9431   16.5318 C   0  0  0  0  0  0  0  0  0  0  0  0
    2.7226    3.6890   13.2584 C   0  0  0  0  0  0  0  0  0  0  0  0
    2.8670    2.8626   12.1599 C   0  0  0  0  0  0  0  0  0  0  0  0
    2.4943    3.2576   10.9005 C   0  0  0  0  0  0  0  0  0  0  0  0
    1.9603    4.5154   10.7234 C   0  0  0  0  0  0  0  0  0  0  0  0
    1.8084    5.3474   11.7987 C   0  0  0  0  0  0  0  0  0  0  0  0
    2.1871    4.9401   13.0736 C   0  0  0  0  0  0  0  0  0  0  0  0
    1.9360    6.0295   14.3743 S   0  0  0  0  0  0  0  0  0  0  0  0
    0.8376    7.2897   13.8449 N   0  0  0  0  0  0  0  0  0  0  0  0
    3.2209    6.7861   14.6672 O   0  0  0  0  0  0  0  0  0  0  0  0
    1.3702    5.4042   15.6163 O   0  0  0  0  0  0  0  0  0  0  0  0
    1.3054    7.9336   13.1728 H   0  0  0  0  0  0  0  0  0  0  0  0
    0.0255    6.8568   13.3747 H   0  0  0  0  0  0  0  0  0  0  0  0
    3.3954    4.7135   20.0253 O   0  0  0  0  0  0  0  0  0  0  0  0
    4.3892    7.7797   18.2903 C   0  0  0  0  0  0  0  0  0  0  0  0
    5.7434    7.5928   18.1062 C   0  0  0  0  0  0  0  0  0  0  0  0
    6.3881    6.4623   18.5419 C   0  0  0  0  0  0  0  0  0  0  0  0
    5.6020    5.4945   19.1895 C   0  0  0  0  0  0  0  0  0  0  0  0
    4.2820    5.6198   19.3954 C   0  0  0  0  0  0  0  0  0  0  0  0
    3.6582    6.8103   18.9268 C   0  0  0  0  0  0  0  0  0  0  0  0
    3.1365    9.8358   18.5498 N   0  0  0  0  0  0  0  0  0  0  0  0
    3.7161    8.9910   17.8051 C   0  0  0  0  0  0  0  0  0  0  0  0
    3.6984    9.2254   16.4048 N   0  0  0  0  0  0  0  0  0  0  0  0
    3.0325    9.8580   19.5625 H   0  0  0  0  0  0  0  0  0  0  0  0
    2.7487    9.1903   15.9523 H   0  0  0  0  0  0  0  0  0  0  0  0
    4.5020    9.4209   15.8013 H   0  0  0  0  0  0  0  0  0  0  0  0
 39 40  2  0  0  0
 40 41  1  0  0  0
 40 33  1  0  0  0
 33 34  2  0  0  0
 34 35  1  0  0  0
 35 36  2  0  0  0
 36 37  1  0  0  0
 37 32  1  0  0  0
 32  1  1  0  0  0
  1  2  2  0  0  0
  2  3  1  0  0  0
  3  4  2  0  0  0
  4  5  1  0  0  0
  4  6  1  0  0  0
  6  7  2  0  0  0
  7 10  1  0  0  0
 10 11  2  0  0  0
 10 12  1  0  0  0
 12 14  1  0  0  0
 14 15  2  0  0  0
 15 16  1  0  0  0
 16 17  2  0  0  0
 17 20  1  0  0  0
 20 21  2  0  0  0
 21 22  1  0  0  0
 22 23  2  0  0  0
 23 24  1  0  0  0
 24 25  2  0  0  0
 25 26  1  0  0  0
 26 27  1  0  0  0
 26 28  2  0  0  0
 26 29  2  0  0  0
 17 18  1  0  0  0
 18 19  2  0  0  0
 37 38  2  0  0  0
 38 33  1  0  0  0
  7  1  1  0  0  0
 19 14  1  0  0  0
 25 20  1  0  0  0
 39 42  1  0  0  0
 41 43  1  0  0  0
 41 44  1  0  0  0
  5  8  1  0  0  0
  5  9  1  0  0  0
 12 13  1  0  0  0
 27 30  1  0  0  0
 27 31  1  0  0  0
M  END
> <minimizedAffinity>
-9.14708

> <CNNscore>
0.2259891480

> <CNNaffinity>
6.4113059044

> <CNN_VS>
1.4488855600

> <CNNaffinity_variance>
0.3028992712

$$$$
[H]N=C(c1c([H])c([H])c([H])c(Oc2c([H])c([H])c(N([H])[H])c([H])c2C(=O)N([H])c2c([H])c([H])c(-c3c([H])c([H])c([H])c([H])c3S(=O)(=O)N([H])[H])c([H])c2[H])c1[H])N([H])[H]


 44 47  0  0  0  0  0  0  0  0999 V2000
    5.2158    3.5405   20.1770 C   0  0  0  0  0  0  0  0  0  0  0  0
    5.5740    3.5693   21.5487 C   0  0  0  0  0  0  0  0  0  0  0  0
    5.0114    2.6830   22.4274 C   0  0  0  0  0  0  0  0  0  0  0  0
    4.1002    1.7790   21.9417 C   0  0  0  0  0  0  0  0  0  0  0  0
    3.5214    0.8812   22.8721 N   0  0  0  0  0  0  0  0  0  0  0  0
    3.7593    1.7482   20.6134 C   0  0  0  0  0  0  0  0  0  0  0  0
    4.3404    2.6617   19.6716 C   0  0  0  0  0  0  0  0  0  0  0  0
    3.4459   -0.1215   22.6759 H   0  0  0  0  0  0  0  0  0  0  0  0
    3.1720    1.2891   23.7541 H   0  0  0  0  0  0  0  0  0  0  0  0
    4.1784    2.2547   18.2493 C   0  0  0  0  0  0  0  0  0  0  0  0
    4.2042    0.9567   18.1584 O   0  0  0  0  0  0  0  0  0  0  0  0
    4.0208    2.9874   17.1664 N   0  0  0  0  0  0  0  0  0  0  0  0
    3.5619    1.8543   16.5018 H   0  0  0  0  0  0  0  0  0  0  0  0
    3.8557    3.7548   16.0321 C   0  0  0  0  0  0  0  0  0  0  0  0
    3.6663    5.1509   16.1593 C   0  0  0  0  0  0  0  0  0  0  0  0
    3.4129    5.9523   15.0695 C   0  0  0  0  0  0  0  0  0  0  0  0
    3.3331    5.4283   13.8044 C   0  0  0  0  0  0  0  0  0  0  0  0
    3.5173    4.0788   13.6506 C   0  0  0  0  0  0  0  0  0  0  0  0
    3.7724    3.2629   14.7395 C   0  0  0  0  0  0  0  0  0  0  0  0
    3.0183    6.2304   12.6441 C   0  0  0  0  0  0  0  0  0  0  0  0
    4.0088    6.8454   11.9017 C   0  0  0  0  0  0  0  0  0  0  0  0
    3.7191    7.6382   10.8207 C   0  0  0  0  0  0  0  0  0  0  0  0
    2.4021    7.8285   10.4632 C   0  0  0  0  0  0  0  0  0  0  0  0
    1.4077    7.2272   11.1851 C   0  0  0  0  0  0  0  0  0  0  0  0
    1.7084    6.4232   12.2795 C   0  0  0  0  0  0  0  0  0  0  0  0
    0.4071    5.6799   13.1138 S   0  0  0  0  0  0  0  0  0  0  0  0
   -1.0991    6.2192   12.3959 N   0  0  0  0  0  0  0  0  0  0  0  0
    0.3308    6.2188   14.5326 O   0  0  0  0  0  0  0  0  0  0  0  0
    0.4255    4.1788   13.0954 O   0  0  0  0  0  0  0  0  0  0  0  0
   -1.2908    7.2146   12.6358 H   0  0  0  0  0  0  0  0  0  0  0  0
   -1.0345    6.1353   11.3679 H   0  0  0  0  0  0  0  0  0  0  0  0
    5.8383    4.5238   19.3720 O   0  0  0  0  0  0  0  0  0  0  0  0
    4.4937    7.9282   19.4031 C   0  0  0  0  0  0  0  0  0  0  0  0
    5.0041    8.4399   20.5780 C   0  0  0  0  0  0  0  0  0  0  0  0
    5.8044    7.6963   21.4088 C   0  0  0  0  0  0  0  0  0  0  0  0
    6.0840    6.3793   21.0073 C   0  0  0  0  0  0  0  0  0  0  0  0
    5.6180    5.8282   19.8761 C   0  0  0  0  0  0  0  0  0  0  0  0
    4.7911    6.6382   19.0476 C   0  0  0  0  0  0  0  0  0  0  0  0
    3.7900    8.8222   17.2654 N   0  0  0  0  0  0  0  0  0  0  0  0
    3.6497    8.7447   18.5218 C   0  0  0  0  0  0  0  0  0  0  0  0
    2.6152    9.5134   19.1179 N   0  0  0  0  0  0  0  0  0  0  0  0
    4.4572    8.3628   16.6484 H   0  0  0  0  0  0  0  0  0  0  0  0
    2.7302   10.5573   19.0488 H   0  0  0  0  0  0  0  0  0  0  0  0
    1.7838    9.1608   19.6003 H   0  0  0  0  0  0  0  0  0  0  0  0
 39 40  2  0  0  0
 40 41  1  0  0  0
 40 33  1  0  0  0
 33 34  2  0  0  0
 34 35  1  0  0  0
 35 36  2  0  0  0
 36 37  1  0  0  0
 37 32  1  0  0  0
 32  1  1  0  0  0
  1  2  2  0  0  0
  2  3  1  0  0  0
  3  4  2  0  0  0
  4  5  1  0  0  0
  4  6  1  0  0  0
  6  7  2  0  0  0
  7 10  1  0  0  0
 10 11  2  0  0  0
 10 12  1  0  0  0
 12 14  1  0  0  0
 14 15  2  0  0  0
 15 16  1  0  0  0
 16 17  2  0  0  0
 17 20  1  0  0  0
 20 21  2  0  0  0
 21 22  1  0  0  0
 22 23  2  0  0  0
 23 24  1  0  0  0
 24 25  2  0  0  0
 25 26  1  0  0  0
 26 27  1  0  0  0
 26 28  2  0  0  0
 26 29  2  0  0  0
 17 18  1  0  0  0
 18 19  2  0  0  0
 37 38  2  0  0  0
 38 33  1  0  0  0
  7  1  1  0  0  0
 19 14  1  0  0  0
 25 20  1  0  0  0
 39 42  1  0  0  0
 41 43  1  0  0  0
 41 44  1  0  0  0
  5  8  1  0  0  0
  5  9  1  0  0  0
 12 13  1  0  0  0
 27 30  1  0  0  0
 27 31  1  0  0  0
M  END
> <minimizedAffinity>
-8.81127

> <CNNscore>
0.1354994625

> <CNNaffinity>
6.0648012161

> <CNN_VS>
0.8217772841

> <CNNaffinity_variance>
0.3956756592

$$$$
[H]N=C(c1c([H])c([H])c([H])c(Oc2c([H])c([H])c(N([H])[H])c([H])c2C(=O)N([H])c2c([H])c([H])c(-c3c([H])c([H])c([H])c([H])c3S(=O)(=O)N([H])[H])c([H])c2[H])c1[H])N([H])[H]


 44 47  0  0  0  0  0  0  0  0999 V2000
    4.0608    4.4823   21.4899 C   0  0  0  0  0  0  0  0  0  0  0  0
    4.1918    4.6943   22.8859 C   0  0  0  0  0  0  0  0  0  0  0  0
    4.2902    3.6285   23.7394 C   0  0  0  0  0  0  0  0  0  0  0  0
    4.2568    2.3650   23.2046 C   0  0  0  0  0  0  0  0  0  0  0  0
    4.3466    1.2780   24.1084 N   0  0  0  0  0  0  0  0  0  0  0  0
    4.1364    2.1615   21.8534 C   0  0  0  0  0  0  0  0  0  0  0  0
    4.0389    3.2622   20.9379 C   0  0  0  0  0  0  0  0  0  0  0  0
    4.9744    0.4867   23.9368 H   0  0  0  0  0  0  0  0  0  0  0  0
    3.7417    1.3190   24.9444 H   0  0  0  0  0  0  0  0  0  0  0  0
    4.3093    2.9004   19.5199 C   0  0  0  0  0  0  0  0  0  0  0  0
    4.9211    1.7528   19.4687 O   0  0  0  0  0  0  0  0  0  0  0  0
    4.0240    3.5445   18.4072 N   0  0  0  0  0  0  0  0  0  0  0  0
    4.2295    2.3615   17.7040 H   0  0  0  0  0  0  0  0  0  0  0  0
    3.7250    4.2191   17.2418 C   0  0  0  0  0  0  0  0  0  0  0  0
    2.6052    5.0828   17.2067 C   0  0  0  0  0  0  0  0  0  0  0  0
    2.2111    5.7152   16.0495 C   0  0  0  0  0  0  0  0  0  0  0  0
    2.8920    5.5343   14.8727 C   0  0  0  0  0  0  0  0  0  0  0  0
    3.9844    4.7064   14.8782 C   0  0  0  0  0  0  0  0  0  0  0  0
    4.3899    4.0648   16.0361 C   0  0  0  0  0  0  0  0  0  0  0  0
    2.4775    6.1408   13.6281 C   0  0  0  0  0  0  0  0  0  0  0  0
    1.6787    5.4634   12.7262 C   0  0  0  0  0  0  0  0  0  0  0  0
    1.3095    6.0155   11.5262 C   0  0  0  0  0  0  0  0  0  0  0  0
    1.7474    7.2828   11.2088 C   0  0  0  0  0  0  0  0  0  0  0  0
    2.5378    7.9697   12.0892 C   0  0  0  0  0  0  0  0  0  0  0  0
    2.9075    7.4045   13.3051 C   0  0  0  0  0  0  0  0  0  0  0  0
    3.8745    8.3416   14.3674 S   0  0  0  0  0  0  0  0  0  0  0  0
    4.3063    9.8367   13.5591 N   0  0  0  0  0  0  0  0  0  0  0  0
    5.2155    7.6591   14.5795 O   0  0  0  0  0  0  0  0  0  0  0  0
    3.2193    8.6858   15.6735 O   0  0  0  0  0  0  0  0  0  0  0  0
    5.0029    9.6643   12.8039 H   0  0  0  0  0  0  0  0  0  0  0  0
    3.4592   10.2513   13.1368 H   0  0  0  0  0  0  0  0  0  0  0  0
    3.9361    5.6579   20.7121 O   0  0  0  0  0  0  0  0  0  0  0  0
    6.5432    8.0671   21.6055 C   0  0  0  0  0  0  0  0  0  0  0  0
    7.4935    7.8543   20.6287 C   0  0  0  0  0  0  0  0  0  0  0  0
    7.3251    6.9161   19.6414 C   0  0  0  0  0  0  0  0  0  0  0  0
    6.1319    6.1747   19.6687 C   0  0  0  0  0  0  0  0  0  0  0  0
    5.1716    6.3384   20.5915 C   0  0  0  0  0  0  0  0  0  0  0  0
    5.3922    7.3225   21.5959 C   0  0  0  0  0  0  0  0  0  0  0  0
    5.8099    9.5574   23.3678 N   0  0  0  0  0  0  0  0  0  0  0  0
    6.7370    9.0850   22.6458 C   0  0  0  0  0  0  0  0  0  0  0  0
    8.0498    9.5875   22.8470 N   0  0  0  0  0  0  0  0  0  0  0  0
    4.8151    9.3406   23.3862 H   0  0  0  0  0  0  0  0  0  0  0  0
    8.1860   10.6042   22.6113 H   0  0  0  0  0  0  0  0  0  0  0  0
    8.8631    9.0695   23.1914 H   0  0  0  0  0  0  0  0  0  0  0  0
 39 40  2  0  0  0
 40 41  1  0  0  0
 40 33  1  0  0  0
 33 34  2  0  0  0
 34 35  1  0  0  0
 35 36  2  0  0  0
 36 37  1  0  0  0
 37 32  1  0  0  0
 32  1  1  0  0  0
  1  2  2  0  0  0
  2  3  1  0  0  0
  3  4  2  0  0  0
  4  5  1  0  0  0
  4  6  1  0  0  0
  6  7  2  0  0  0
  7 10  1  0  0  0
 10 11  2  0  0  0
 10 12  1  0  0  0
 12 14  1  0  0  0
 14 15  2  0  0  0
 15 16  1  0  0  0
 16 17  2  0  0  0
 17 20  1  0  0  0
 20 21  2  0  0  0
 21 22  1  0  0  0
 22 23  2  0  0  0
 23 24  1  0  0  0
 24 25  2  0  0  0
 25 26  1  0  0  0
 26 27  1  0  0  0
 26 28  2  0  0  0
 26 29  2  0  0  0
 17 18  1  0  0  0
 18 19  2  0  0  0
 37 38  2  0  0  0
 38 33  1  0  0  0
  7  1  1  0  0  0
 19 14  1  0  0  0
 25 20  1  0  0  0
 39 42  1  0  0  0
 41 43  1  0  0  0
 41 44  1  0  0  0
  5  8  1  0  0  0
  5  9  1  0  0  0
 12 13  1  0  0  0
 27 30  1  0  0  0
 27 31  1  0  0  0
M  END
> <minimizedAffinity>
-8.24280

> <CNNscore>
0.1352441162

> <CNNaffinity>
5.8928170204

> <CNN_VS>
0.7969688177

> <CNNaffinity_variance>
0.3570223451

$$$$
[H]N1C(=NC2([H])C([H])([H])C([H])([H])C([H])([H])C([H])([H])C([H])([H])C([H])([H])C2([H])[H])O[C@@]2([H])C([H])([H])C([H])([H])C([H])([H])C([H])([H])[C@@]2([H])S1(=O)=O


 22 24  0  0  0  0  0  0  0  0999 V2000
    1.9188   -0.2593   17.2533 O   0  0  0  0  0  0  0  0  0  0  0  0
    2.9897    0.7819   17.1543 S   0  0  0  0  0  0  0  0  0  0  0  0
    4.2568    0.2308   16.5621 O   0  0  0  0  0  0  0  0  0  0  0  0
    3.3380    1.4721   18.7203 N   0  0  0  0  0  0  0  0  0  0  0  0
    3.7448    2.8224   18.7756 C   0  0  0  0  0  0  0  0  0  0  0  0
    4.4686    3.2201   19.7466 N   0  0  0  0  0  0  0  0  0  0  0  0
    3.3758    3.7097   17.8058 O   0  0  0  0  0  0  0  0  0  0  0  0
    3.0728    3.4270   16.4861 C   0  0  0  0  0  0  0  0  0  0  0  0
    4.3532    3.6571   15.6691 C   0  0  0  0  0  0  0  0  0  0  0  0
    3.9215    3.9333   14.2569 C   0  0  0  0  0  0  0  0  0  0  0  0
    2.7686    3.0683   13.8676 C   0  0  0  0  0  0  0  0  0  0  0  0
    2.7683    1.7899   14.7082 C   0  0  0  0  0  0  0  0  0  0  0  0
    2.4612    2.1324   16.1514 C   0  0  0  0  0  0  0  0  0  0  0  0
    3.2232    0.8522   19.5141 H   0  0  0  0  0  0  0  0  0  0  0  0
    4.9140    2.3754   20.8177 C   0  0  0  0  0  0  0  0  0  0  0  0
    6.3691    2.5904   21.1581 C   0  0  0  0  0  0  0  0  0  0  0  0
    6.6080    3.5599   22.2656 C   0  0  0  0  0  0  0  0  0  0  0  0
    6.1960    4.9645   21.9824 C   0  0  0  0  0  0  0  0  0  0  0  0
    5.2440    5.5136   23.0386 C   0  0  0  0  0  0  0  0  0  0  0  0
    4.1729    4.5414   23.4127 C   0  0  0  0  0  0  0  0  0  0  0  0
    3.5450    3.9716   22.1823 C   0  0  0  0  0  0  0  0  0  0  0  0
    4.0175    2.5453   22.0207 C   0  0  0  0  0  0  0  0  0  0  0  0
  1  2  2  0  0  0
  2  3  2  0  0  0
  2  4  1  0  0  0
  4  5  1  0  0  0
  5  6  2  0  0  0
  6 15  1  0  0  0
 15 16  1  0  0  0
 16 17  1  0  0  0
 17 18  1  0  0  0
 18 19  1  0  0  0
 19 20  1  0  0  0
 20 21  1  0  0  0
 21 22  1  0  0  0
  5  7  1  0  0  0
  7  8  1  0  0  0
  8  9  1  0  0  0
  9 10  1  0  0  0
 10 11  1  0  0  0
 11 12  1  0  0  0
 12 13  1  0  0  0
 13  2  1  0  0  0
 22 15  1  0  0  0
 13  8  1  0  0  0
  4 14  1  0  0  0
M  END
> <minimizedAffinity>
-6.64408

> <CNNscore>
0.4504863620

> <CNNaffinity>
5.9571933746

> <CNN_VS>
2.6836342812

> <CNNaffinity_variance>
0.7387517095

$$$$
[H]N1C(=NC2([H])C([H])([H])C([H])([H])C([H])([H])C([H])([H])C([H])([H])C([H])([H])C2([H])[H])O[C@@]2([H])C([H])([H])C([H])([H])C([H])([H])C([H])([H])[C@@]2([H])S1(=O)=O


 22 24  0  0  0  0  0  0  0  0999 V2000
    2.1242    5.7855    5.4123 O   0  0  0  0  0  0  0  0  0  0  0  0
    2.8516    6.2967    6.6166 S   0  0  0  0  0  0  0  0  0  0  0  0
    4.1973    5.6464    6.7787 O   0  0  0  0  0  0  0  0  0  0  0  0
    1.9124    6.0472    8.0676 N   0  0  0  0  0  0  0  0  0  0  0  0
    2.0449    6.9847    9.1142 C   0  0  0  0  0  0  0  0  0  0  0  0
    1.8161    6.6214   10.3143 N   0  0  0  0  0  0  0  0  0  0  0  0
    2.4146    8.2746    8.8620 O   0  0  0  0  0  0  0  0  0  0  0  0
    3.1755    8.7338    7.8021 C   0  0  0  0  0  0  0  0  0  0  0  0
    4.6287    8.8195    8.2925 C   0  0  0  0  0  0  0  0  0  0  0  0
    5.3220    9.8251    7.4178 C   0  0  0  0  0  0  0  0  0  0  0  0
    4.8742    9.7035    5.9988 C   0  0  0  0  0  0  0  0  0  0  0  0
    4.3736    8.2831    5.7295 C   0  0  0  0  0  0  0  0  0  0  0  0
    3.0974    8.0393    6.5083 C   0  0  0  0  0  0  0  0  0  0  0  0
    1.3130    5.2297    8.0733 H   0  0  0  0  0  0  0  0  0  0  0  0
    1.4231    5.2942   10.6929 C   0  0  0  0  0  0  0  0  0  0  0  0
    2.2184    4.7661   11.8625 C   0  0  0  0  0  0  0  0  0  0  0  0
    1.5773    4.9782   13.1920 C   0  0  0  0  0  0  0  0  0  0  0  0
    1.4218    6.4026   13.6041 C   0  0  0  0  0  0  0  0  0  0  0  0
   -0.0186    6.7482   13.9636 C   0  0  0  0  0  0  0  0  0  0  0  0
   -1.0059    6.2002   12.9852 C   0  0  0  0  0  0  0  0  0  0  0  0
   -0.5740    6.5155   11.5898 C   0  0  0  0  0  0  0  0  0  0  0  0
   -0.0643    5.2456   10.9484 C   0  0  0  0  0  0  0  0  0  0  0  0
  1  2  2  0  0  0
  2  3  2  0  0  0
  2  4  1  0  0  0
  4  5  1  0  0  0
  5  6  2  0  0  0
  6 15  1  0  0  0
 15 16  1  0  0  0
 16 17  1  0  0  0
 17 18  1  0  0  0
 18 19  1  0  0  0
 19 20  1  0  0  0
 20 21  1  0  0  0
 21 22  1  0  0  0
  5  7  1  0  0  0
  7  8  1  0  0  0
  8  9  1  0  0  0
  9 10  1  0  0  0
 10 11  1  0  0  0
 11 12  1  0  0  0
 12 13  1  0  0  0
 13  2  1  0  0  0
 22 15  1  0  0  0
 13  8  1  0  0  0
  4 14  1  0  0  0
M  END
> <minimizedAffinity>
-4.68378

> <CNNscore>
0.3946997821

> <CNNaffinity>
4.3833708763

> <CNN_VS>
1.7301155329

> <CNNaffinity_variance>
0.1426101029

$$$$
[H]N1C(=NC2([H])C([H])([H])C([H])([H])C([H])([H])C([H])([H])C([H])([H])C([H])([H])C2([H])[H])O[C@@]2([H])C([H])([H])C([H])([H])C([H])([H])C([H])([H])[C@@]2([H])S1(=O)=O


 22 24  0  0  0  0  0  0  0  0999 V2000
   -0.6715    6.8047    9.9573 O   0  0  0  0  0  0  0  0  0  0  0  0
    0.8188    6.8126   10.0980 S   0  0  0  0  0  0  0  0  0  0  0  0
    1.2736    7.7135   11.2122 O   0  0  0  0  0  0  0  0  0  0  0  0
    1.5853    7.3062    8.6084 N   0  0  0  0  0  0  0  0  0  0  0  0
    2.8495    6.7602    8.2991 C   0  0  0  0  0  0  0  0  0  0  0  0
    3.6499    7.4145    7.5536 N   0  0  0  0  0  0  0  0  0  0  0  0
    3.2291    5.5423    8.7858 O   0  0  0  0  0  0  0  0  0  0  0  0
    2.7948    4.9355    9.9504 C   0  0  0  0  0  0  0  0  0  0  0  0
    3.8250    5.2625   11.0419 C   0  0  0  0  0  0  0  0  0  0  0  0
    3.7090    4.1857   12.0830 C   0  0  0  0  0  0  0  0  0  0  0  0
    2.2834    3.7993   12.3010 C   0  0  0  0  0  0  0  0  0  0  0  0
    1.3639    4.9617   11.9217 C   0  0  0  0  0  0  0  0  0  0  0  0
    1.4267    5.1903   10.4256 C   0  0  0  0  0  0  0  0  0  0  0  0
    1.0671    7.9665    8.0401 H   0  0  0  0  0  0  0  0  0  0  0  0
    3.3551    8.7005    6.9892 C   0  0  0  0  0  0  0  0  0  0  0  0
    4.4429    9.7131    7.2557 C   0  0  0  0  0  0  0  0  0  0  0  0
    5.4540    9.8351    6.1665 C   0  0  0  0  0  0  0  0  0  0  0  0
    6.2826    8.6188    5.9275 C   0  0  0  0  0  0  0  0  0  0  0  0
    6.2320    8.1592    4.4751 C   0  0  0  0  0  0  0  0  0  0  0  0
    4.8481    8.1741    3.9120 C   0  0  0  0  0  0  0  0  0  0  0  0
    3.9033    7.5037    4.8558 C   0  0  0  0  0  0  0  0  0  0  0  0
    3.0534    8.5646    5.5159 C   0  0  0  0  0  0  0  0  0  0  0  0
  1  2  2  0  0  0
  2  3  2  0  0  0
  2  4  1  0  0  0
  4  5  1  0  0  0
  5  6  2  0  0  0
  6 15  1  0  0  0
 15 16  1  0  0  0
 16 17  1  0  0  0
 17 18  1  0  0  0
 18 19  1  0  0  0
 19 20  1  0  0  0
 20 21  1  0  0  0
 21 22  1  0  0  0
  5  7  1  0  0  0
  7  8  1  0  0  0
  8  9  1  0  0  0
  9 10  1  0  0  0
 10 11  1  0  0  0
 11 12  1  0  0  0
 12 13  1  0  0  0
 13  2  1  0  0  0
 22 15  1  0  0  0
 13  8  1  0  0  0
  4 14  1  0  0  0
M  END
> <minimizedAffinity>
-4.66759

> <CNNscore>
0.3818964660

> <CNNaffinity>
4.3833360672

> <CNN_VS>
1.6739805937

> <CNNaffinity_variance>
0.2128977031

$$$$
[H]N1C(=NC2([H])C([H])([H])C([H])([H])C([H])([H])C([H])([H])C([H])([H])C([H])([H])C2([H])[H])O[C@@]2([H])C([H])([H])C([H])([H])C([H])([H])C([H])([H])[C@@]2([H])S1(=O)=O


 22 24  0  0  0  0  0  0  0  0999 V2000
    5.5891    1.0796   20.5451 O   0  0  0  0  0  0  0  0  0  0  0  0
    4.8597    2.3355   20.1827 S   0  0  0  0  0  0  0  0  0  0  0  0
    3.4656    2.3582   20.7448 O   0  0  0  0  0  0  0  0  0  0  0  0
    4.7857    2.5383   18.4497 N   0  0  0  0  0  0  0  0  0  0  0  0
    4.7867    3.8520   17.9338 C   0  0  0  0  0  0  0  0  0  0  0  0
    4.2462    4.0821   16.8027 N   0  0  0  0  0  0  0  0  0  0  0  0
    5.3572    4.8806   18.6270 O   0  0  0  0  0  0  0  0  0  0  0  0
    5.5146    4.9788   19.9977 C   0  0  0  0  0  0  0  0  0  0  0  0
    4.3236    5.7883   20.5326 C   0  0  0  0  0  0  0  0  0  0  0  0
    4.7611    6.3909   21.8373 C   0  0  0  0  0  0  0  0  0  0  0  0
    5.6007    5.4341   22.6175 C   0  0  0  0  0  0  0  0  0  0  0  0
    5.2662    3.9969   22.2132 C   0  0  0  0  0  0  0  0  0  0  0  0
    5.7147    3.7543   20.7869 C   0  0  0  0  0  0  0  0  0  0  0  0
    4.7483    1.6848   17.9040 H   0  0  0  0  0  0  0  0  0  0  0  0
    3.6188    3.0786   15.9910 C   0  0  0  0  0  0  0  0  0  0  0  0
    2.1133    3.1021   16.1019 C   0  0  0  0  0  0  0  0  0  0  0  0
    1.4287    3.9083   15.0508 C   0  0  0  0  0  0  0  0  0  0  0  0
    1.7154    5.3711   15.0824 C   0  0  0  0  0  0  0  0  0  0  0  0
    2.2278    5.8905   13.7441 C   0  0  0  0  0  0  0  0  0  0  0  0
    3.2584    4.9974   13.1338 C   0  0  0  0  0  0  0  0  0  0  0  0
    4.2942    4.6403   14.1500 C   0  0  0  0  0  0  0  0  0  0  0  0
    4.0856    3.2009   14.5602 C   0  0  0  0  0  0  0  0  0  0  0  0
  1  2  2  0  0  0
  2  3  2  0  0  0
  2  4  1  0  0  0
  4  5  1  0  0  0
  5  6  2  0  0  0
  6 15  1  0  0  0
 15 16  1  0  0  0
 16 17  1  0  0  0
 17 18  1  0  0  0
 18 19  1  0  0  0
 19 20  1  0  0  0
 20 21  1  0  0  0
 21 22  1  0  0  0
  5  7  1  0  0  0
  7  8  1  0  0  0
  8  9  1  0  0  0
  9 10  1  0  0  0
 10 11  1  0  0  0
 11 12  1  0  0  0
 12 13  1  0  0  0
 13  2  1  0  0  0
 22 15  1  0  0  0
 13  8  1  0  0  0
  4 14  1  0  0  0
M  END
> <minimizedAffinity>
-4.94237

> <CNNscore>
0.3697576821

> <CNNaffinity>
5.5538072586

> <CNN_VS>
2.0535628796

> <CNNaffinity_variance>
0.5925633311

$$$$
[H]N1C(=NC2([H])C([H])([H])C([H])([H])C([H])([H])C([H])([H])C([H])([H])C([H])([H])C2([H])[H])O[C@@]2([H])C([H])([H])C([H])([H])C([H])([H])C([H])([H])[C@@]2([H])S1(=O)=O


 22 24  0  0  0  0  0  0  0  0999 V2000
    3.7631    5.7051   22.2587 O   0  0  0  0  0  0  0  0  0  0  0  0
    4.5217    4.8022   21.3368 S   0  0  0  0  0  0  0  0  0  0  0  0
    5.9361    5.2681   21.1313 O   0  0  0  0  0  0  0  0  0  0  0  0
    3.7252    4.6775   19.7875 N   0  0  0  0  0  0  0  0  0  0  0  0
    3.8377    3.4623   19.0786 C   0  0  0  0  0  0  0  0  0  0  0  0
    3.7388    3.4661   17.8078 N   0  0  0  0  0  0  0  0  0  0  0  0
    4.0509    2.2826   19.7319 O   0  0  0  0  0  0  0  0  0  0  0  0
    4.6780    2.1045   20.9519 C   0  0  0  0  0  0  0  0  0  0  0  0
    6.1471    1.7639   20.6595 C   0  0  0  0  0  0  0  0  0  0  0  0
    6.6641    1.0159   21.8554 C   0  0  0  0  0  0  0  0  0  0  0  0
    6.1261    1.5910   23.1238 C   0  0  0  0  0  0  0  0  0  0  0  0
    5.7574    3.0611   22.9150 C   0  0  0  0  0  0  0  0  0  0  0  0
    4.5757    3.1583   21.9723 C   0  0  0  0  0  0  0  0  0  0  0  0
    3.2165    5.4995   19.4825 H   0  0  0  0  0  0  0  0  0  0  0  0
    3.5158    4.6453   17.0210 C   0  0  0  0  0  0  0  0  0  0  0  0
    4.5485    4.8199   15.9336 C   0  0  0  0  0  0  0  0  0  0  0  0
    4.1513    4.2625   14.6088 C   0  0  0  0  0  0  0  0  0  0  0  0
    3.9761    2.7825   14.5671 C   0  0  0  0  0  0  0  0  0  0  0  0
    2.6066    2.3755   14.0358 C   0  0  0  0  0  0  0  0  0  0  0  0
    1.4958    3.1866   14.6195 C   0  0  0  0  0  0  0  0  0  0  0  0
    1.6392    3.2583   16.1052 C   0  0  0  0  0  0  0  0  0  0  0  0
    2.1083    4.6467   16.4741 C   0  0  0  0  0  0  0  0  0  0  0  0
  1  2  2  0  0  0
  2  3  2  0  0  0
  2  4  1  0  0  0
  4  5  1  0  0  0
  5  6  2  0  0  0
  6 15  1  0  0  0
 15 16  1  0  0  0
 16 17  1  0  0  0
 17 18  1  0  0  0
 18 19  1  0  0  0
 19 20  1  0  0  0
 20 21  1  0  0  0
 21 22  1  0  0  0
  5  7  1  0  0  0
  7  8  1  0  0  0
  8  9  1  0  0  0
  9 10  1  0  0  0
 10 11  1  0  0  0
 11 12  1  0  0  0
 12 13  1  0  0  0
 13  2  1  0  0  0
 22 15  1  0  0  0
 13  8  1  0  0  0
  4 14  1  0  0  0
M  END
> <minimizedAffinity>
-5.33307

> <CNNscore>
0.3688536584

> <CNNaffinity>
5.6051826477

> <CNN_VS>
2.0674920082

> <CNNaffinity_variance>
0.4807495475

$$$$
[H]N1C(=NC2([H])C([H])([H])C([H])([H])C([H])([H])C([H])([H])C([H])([H])C([H])([H])C2([H])[H])O[C@@]2([H])C([H])([H])C([H])([H])C([H])([H])C([H])([H])[C@@]2([H])S1(=O)=O


 22 24  0  0  0  0  0  0  0  0999 V2000
   -0.0135    1.4556    7.7907 O   0  0  0  0  0  0  0  0  0  0  0  0
    0.9530    0.9152    8.7979 S   0  0  0  0  0  0  0  0  0  0  0  0
    0.4283   -0.3207    9.4740 O   0  0  0  0  0  0  0  0  0  0  0  0
    1.3334    2.1164   10.0073 N   0  0  0  0  0  0  0  0  0  0  0  0
    2.6222    2.0953   10.5822 C   0  0  0  0  0  0  0  0  0  0  0  0
    2.7935    2.5646   11.7549 N   0  0  0  0  0  0  0  0  0  0  0  0
    3.6884    1.5802    9.9027 O   0  0  0  0  0  0  0  0  0  0  0  0
    3.6622    0.6064    8.9208 C   0  0  0  0  0  0  0  0  0  0  0  0
    3.9431   -0.7377    9.6094 C   0  0  0  0  0  0  0  0  0  0  0  0
    4.4908   -1.6577    8.5556 C   0  0  0  0  0  0  0  0  0  0  0  0
    3.7882   -1.4623    7.2528 C   0  0  0  0  0  0  0  0  0  0  0  0
    2.3857   -0.9012    7.4953 C   0  0  0  0  0  0  0  0  0  0  0  0
    2.4910    0.5095    8.0370 C   0  0  0  0  0  0  0  0  0  0  0  0
    0.5937    2.7732   10.2286 H   0  0  0  0  0  0  0  0  0  0  0  0
    1.7461    3.1284   12.5576 C   0  0  0  0  0  0  0  0  0  0  0  0
    1.1935    2.1458   13.5620 C   0  0  0  0  0  0  0  0  0  0  0  0
    1.8195    2.2253   14.9130 C   0  0  0  0  0  0  0  0  0  0  0  0
    3.2660    1.8677   14.9669 C   0  0  0  0  0  0  0  0  0  0  0  0
    4.1112    2.9656   15.6022 C   0  0  0  0  0  0  0  0  0  0  0  0
    3.7545    4.3293   15.1069 C   0  0  0  0  0  0  0  0  0  0  0  0
    3.6764    4.3287   13.6147 C   0  0  0  0  0  0  0  0  0  0  0  0
    2.2217    4.4034   13.2118 C   0  0  0  0  0  0  0  0  0  0  0  0
  1  2  2  0  0  0
  2  3  2  0  0  0
  2  4  1  0  0  0
  4  5  1  0  0  0
  5  6  2  0  0  0
  6 15  1  0  0  0
 15 16  1  0  0  0
 16 17  1  0  0  0
 17 18  1  0  0  0
 18 19  1  0  0  0
 19 20  1  0  0  0
 20 21  1  0  0  0
 21 22  1  0  0  0
  5  7  1  0  0  0
  7  8  1  0  0  0
  8  9  1  0  0  0
  9 10  1  0  0  0
 10 11  1  0  0  0
 11 12  1  0  0  0
 12 13  1  0  0  0
 13  2  1  0  0  0
 22 15  1  0  0  0
 13  8  1  0  0  0
  4 14  1  0  0  0
M  END
> <minimizedAffinity>
-4.75284

> <CNNscore>
0.3648085594

> <CNNaffinity>
4.8668756485

> <CNN_VS>
1.7754778862

> <CNNaffinity_variance>
0.1899206489

$$$$
[H]N1C(=NC2([H])C([H])([H])C([H])([H])C([H])([H])C([H])([H])C([H])([H])C([H])([H])C2([H])[H])O[C@@]2([H])C([H])([H])C([H])([H])C([H])([H])C([H])([H])[C@@]2([H])S1(=O)=O


 22 24  0  0  0  0  0  0  0  0999 V2000
    3.7732    6.4293   16.3038 O   0  0  0  0  0  0  0  0  0  0  0  0
    3.5300    5.1572   17.0543 S   0  0  0  0  0  0  0  0  0  0  0  0
    2.0981    5.0283   17.4935 O   0  0  0  0  0  0  0  0  0  0  0  0
    4.5733    5.0450   18.4503 N   0  0  0  0  0  0  0  0  0  0  0  0
    4.9974    3.7633   18.8616 C   0  0  0  0  0  0  0  0  0  0  0  0
    5.3039    3.5660   20.0829 N   0  0  0  0  0  0  0  0  0  0  0  0
    5.0845    2.7310   17.9722 O   0  0  0  0  0  0  0  0  0  0  0  0
    4.3557    2.5672   16.8081 C   0  0  0  0  0  0  0  0  0  0  0  0
    3.1585    1.6665   17.1472 C   0  0  0  0  0  0  0  0  0  0  0  0
    2.7270    1.0185   15.8623 C   0  0  0  0  0  0  0  0  0  0  0  0
    2.8168    1.9757   14.7201 C   0  0  0  0  0  0  0  0  0  0  0  0
    2.7007    3.4124   15.2330 C   0  0  0  0  0  0  0  0  0  0  0  0
    3.9233    3.7561   16.0585 C   0  0  0  0  0  0  0  0  0  0  0  0
    4.8208    5.9236   18.8912 H   0  0  0  0  0  0  0  0  0  0  0  0
    5.2488    4.5765   21.1003 C   0  0  0  0  0  0  0  0  0  0  0  0
    3.8582    4.7607   21.6589 C   0  0  0  0  0  0  0  0  0  0  0  0
    3.5784    3.9717   22.8929 C   0  0  0  0  0  0  0  0  0  0  0  0
    3.5960    2.4909   22.7198 C   0  0  0  0  0  0  0  0  0  0  0  0
    4.5484    1.8049   23.6922 C   0  0  0  0  0  0  0  0  0  0  0  0
    5.8646    2.5034   23.8019 C   0  0  0  0  0  0  0  0  0  0  0  0
    6.4031    2.7995   22.4398 C   0  0  0  0  0  0  0  0  0  0  0  0
    6.2612    4.2816   22.1811 C   0  0  0  0  0  0  0  0  0  0  0  0
  1  2  2  0  0  0
  2  3  2  0  0  0
  2  4  1  0  0  0
  4  5  1  0  0  0
  5  6  2  0  0  0
  6 15  1  0  0  0
 15 16  1  0  0  0
 16 17  1  0  0  0
 17 18  1  0  0  0
 18 19  1  0  0  0
 19 20  1  0  0  0
 20 21  1  0  0  0
 21 22  1  0  0  0
  5  7  1  0  0  0
  7  8  1  0  0  0
  8  9  1  0  0  0
  9 10  1  0  0  0
 10 11  1  0  0  0
 11 12  1  0  0  0
 12 13  1  0  0  0
 13  2  1  0  0  0
 22 15  1  0  0  0
 13  8  1  0  0  0
  4 14  1  0  0  0
M  END
> <minimizedAffinity>
-8.41537

> <CNNscore>
0.3578904569

> <CNNaffinity>
5.8528051376

> <CNN_VS>
2.0946631432

> <CNNaffinity_variance>
0.1265082061

$$$$
[H]N1C(=NC2([H])C([H])([H])C([H])([H])C([H])([H])C([H])([H])C([H])([H])C([H])([H])C2([H])[H])O[C@@]2([H])C([H])([H])C([H])([H])C([H])([H])C([H])([H])[C@@]2([H])S1(=O)=O


 22 24  0  0  0  0  0  0  0  0999 V2000
    5.0687    1.9974   24.2055 O   0  0  0  0  0  0  0  0  0  0  0  0
    5.4739    2.4494   22.8372 S   0  0  0  0  0  0  0  0  0  0  0  0
    6.6819    1.7088   22.3352 O   0  0  0  0  0  0  0  0  0  0  0  0
    5.7996    4.1650   22.8158 N   0  0  0  0  0  0  0  0  0  0  0  0
    5.5271    4.8783   21.6288 C   0  0  0  0  0  0  0  0  0  0  0  0
    6.1770    5.9448   21.3747 N   0  0  0  0  0  0  0  0  0  0  0  0
    4.5785    4.4441   20.7481 O   0  0  0  0  0  0  0  0  0  0  0  0
    4.1558    3.1421   20.5497 C   0  0  0  0  0  0  0  0  0  0  0  0
    4.9588    2.5816   19.3661 C   0  0  0  0  0  0  0  0  0  0  0  0
    4.1437    1.4635   18.7810 C   0  0  0  0  0  0  0  0  0  0  0  0
    3.4764    0.6662   19.8524 C   0  0  0  0  0  0  0  0  0  0  0  0
    4.2636    0.7860   21.1589 C   0  0  0  0  0  0  0  0  0  0  0  0
    4.1646    2.2040   21.6820 C   0  0  0  0  0  0  0  0  0  0  0  0
    6.1700    4.5573   23.6740 H   0  0  0  0  0  0  0  0  0  0  0  0
    7.1937    6.4908   22.2277 C   0  0  0  0  0  0  0  0  0  0  0  0
    8.5795    6.3377   21.6483 C   0  0  0  0  0  0  0  0  0  0  0  0
    9.0600    7.5187   20.8751 C   0  0  0  0  0  0  0  0  0  0  0  0
    8.2909    7.8237   19.6348 C   0  0  0  0  0  0  0  0  0  0  0  0
    7.7827    9.2605   19.6064 C   0  0  0  0  0  0  0  0  0  0  0  0
    7.1913    9.6904   20.9094 C   0  0  0  0  0  0  0  0  0  0  0  0
    6.2339    8.6552   21.4043 C   0  0  0  0  0  0  0  0  0  0  0  0
    6.8735    7.9275   22.5641 C   0  0  0  0  0  0  0  0  0  0  0  0
  1  2  2  0  0  0
  2  3  2  0  0  0
  2  4  1  0  0  0
  4  5  1  0  0  0
  5  6  2  0  0  0
  6 15  1  0  0  0
 15 16  1  0  0  0
 16 17  1  0  0  0
 17 18  1  0  0  0
 18 19  1  0  0  0
 19 20  1  0  0  0
 20 21  1  0  0  0
 21 22  1  0  0  0
  5  7  1  0  0  0
  7  8  1  0  0  0
  8  9  1  0  0  0
  9 10  1  0  0  0
 10 11  1  0  0  0
 11 12  1  0  0  0
 12 13  1  0  0  0
 13  2  1  0  0  0
 22 15  1  0  0  0
 13  8  1  0  0  0
  4 14  1  0  0  0
M  END
> <minimizedAffinity>
-7.66874

> <CNNscore>
0.3475348055

> <CNNaffinity>
5.7694830894

> <CNN_VS>
2.0050961971

> <CNNaffinity_variance>
0.1902962625

$$$$
[H]N1C(=NC2([H])C([H])([H])C([H])([H])C([H])([H])C([H])([H])C([H])([H])C([H])([H])C2([H])[H])O[C@@]2([H])C([H])([H])C([H])([H])C([H])([H])C([H])([H])[C@@]2([H])S1(=O)=O


 22 24  0  0  0  0  0  0  0  0999 V2000
    4.0004    4.7254   23.8068 O   0  0  0  0  0  0  0  0  0  0  0  0
    4.5980    4.6458   22.4367 S   0  0  0  0  0  0  0  0  0  0  0  0
    6.0901    4.4686   22.4835 O   0  0  0  0  0  0  0  0  0  0  0  0
    4.2160    6.0717   21.5035 N   0  0  0  0  0  0  0  0  0  0  0  0
    4.0680    5.9318   20.1070 C   0  0  0  0  0  0  0  0  0  0  0  0
    4.2929    6.9317   19.3491 N   0  0  0  0  0  0  0  0  0  0  0  0
    3.6879    4.7426   19.5544 O   0  0  0  0  0  0  0  0  0  0  0  0
    3.8922    3.4768   20.0733 C   0  0  0  0  0  0  0  0  0  0  0  0
    5.1736    2.9257   19.4297 C   0  0  0  0  0  0  0  0  0  0  0  0
    5.0853    1.4279   19.5038 C   0  0  0  0  0  0  0  0  0  0  0  0
    4.4872    0.9874   20.7989 C   0  0  0  0  0  0  0  0  0  0  0  0
    4.7187    2.0547   21.8703 C   0  0  0  0  0  0  0  0  0  0  0  0
    3.9164    3.2943   21.5322 C   0  0  0  0  0  0  0  0  0  0  0  0
    4.1182    6.9330   22.0290 H   0  0  0  0  0  0  0  0  0  0  0  0
    4.6967    8.2252   19.8213 C   0  0  0  0  0  0  0  0  0  0  0  0
    6.1957    8.4051   19.8064 C   0  0  0  0  0  0  0  0  0  0  0  0
    6.7279    9.0549   18.5744 C   0  0  0  0  0  0  0  0  0  0  0  0
    6.5459    8.2778   17.3150 C   0  0  0  0  0  0  0  0  0  0  0  0
    5.8331    9.0830   16.2348 C   0  0  0  0  0  0  0  0  0  0  0  0
    4.6536    9.8358   16.7588 C   0  0  0  0  0  0  0  0  0  0  0  0
    3.7993    8.9357   17.5911 C   0  0  0  0  0  0  0  0  0  0  0  0
    3.9864    9.3073   19.0439 C   0  0  0  0  0  0  0  0  0  0  0  0
  1  2  2  0  0  0
  2  3  2  0  0  0
  2  4  1  0  0  0
  4  5  1  0  0  0
  5  6  2  0  0  0
  6 15  1  0  0  0
 15 16  1  0  0  0
 16 17  1  0  0  0
 17 18  1  0  0  0
 18 19  1  0  0  0
 19 20  1  0  0  0
 20 21  1  0  0  0
 21 22  1  0  0  0
  5  7  1  0  0  0
  7  8  1  0  0  0
  8  9  1  0  0  0
  9 10  1  0  0  0
 10 11  1  0  0  0
 11 12  1  0  0  0
 12 13  1  0  0  0
 13  2  1  0  0  0
 22 15  1  0  0  0
 13  8  1  0  0  0
  4 14  1  0  0  0
M  END
> <minimizedAffinity>
-6.90303

> <CNNscore>
0.3391462564

> <CNNaffinity>
5.3469619751

> <CNN_VS>
1.8134021759

> <CNNaffinity_variance>
0.1979142427

$$$$
[H]C(=NN([H])C(=S)N([H])C([H])([H])c1c([H])c([H])c(OC([H])(C([H])([H])[H])C([H])([H])[H])c([H])c1[H])c1c([H])c([H])c([N+](=O)[O-])c([H])c1[H]


 28 29  0  0  0  0  0  0  0  0999 V2000
    4.6829    5.4539   22.2277 C   0  0  0  0  0  0  0  0  0  0  0  0
    6.2907    5.6991   22.2033 S   0  0  0  0  0  0  0  0  0  0  0  0
    3.8750    6.0577   21.2455 N   0  0  0  0  0  0  0  0  0  0  0  0
    2.8439    6.0860   21.3529 H   0  0  0  0  0  0  0  0  0  0  0  0
    4.4741    6.6475   20.0717 C   0  0  0  0  0  0  0  0  0  0  0  0
    4.2717    4.0000   16.7001 C   0  0  0  0  0  0  0  0  0  0  0  0
    3.1446    4.6721   17.1747 C   0  0  0  0  0  0  0  0  0  0  0  0
    3.2283    5.5170   18.2567 C   0  0  0  0  0  0  0  0  0  0  0  0
    4.4225    5.7301   18.9093 C   0  0  0  0  0  0  0  0  0  0  0  0
    5.5103    5.0535   18.4163 C   0  0  0  0  0  0  0  0  0  0  0  0
    5.4612    4.1919   17.3246 C   0  0  0  0  0  0  0  0  0  0  0  0
    4.1369    3.1685   15.6181 O   0  0  0  0  0  0  0  0  0  0  0  0
    2.7672    1.9197   14.0605 C   0  0  0  0  0  0  0  0  0  0  0  0
    3.2190    3.2798   14.5908 C   0  0  0  0  0  0  0  0  0  0  0  0
    3.8605    4.0173   13.4144 C   0  0  0  0  0  0  0  0  0  0  0  0
    4.0884    4.6356   23.2320 N   0  0  0  0  0  0  0  0  0  0  0  0
    3.1560    4.8961   23.6676 H   0  0  0  0  0  0  0  0  0  0  0  0
    4.6816    3.4994   23.6745 N   0  0  0  0  0  0  0  0  0  0  0  0
    4.7978    2.3407   23.2890 C   0  0  0  0  0  0  0  0  0  0  0  0
    4.2695    1.7460   22.0851 C   0  0  0  0  0  0  0  0  0  0  0  0
    3.2719    0.7999   22.0386 C   0  0  0  0  0  0  0  0  0  0  0  0
    2.7991    0.2586   20.8449 C   0  0  0  0  0  0  0  0  0  0  0  0
    3.3162    0.6505   19.6322 C   0  0  0  0  0  0  0  0  0  0  0  0
    4.3153    1.5952   19.6466 C   0  0  0  0  0  0  0  0  0  0  0  0
    4.7715    2.1200   20.8259 C   0  0  0  0  0  0  0  0  0  0  0  0
    2.8250    0.0896   18.4128 N   0  0  0  0  0  0  0  0  0  0  0  0
    1.8221   -0.6481   18.4457 O   0  0  0  0  0  0  0  0  0  0  0  0
    3.4968    0.4008   17.2586 O   0  0  0  0  0  0  0  0  0  0  0  0
 13 14  1  0  0  0
 14 15  1  0  0  0
 14 12  1  0  0  0
 12  6  1  0  0  0
  6  7  2  0  0  0
  7  8  1  0  0  0
  8  9  2  0  0  0
  9  5  1  0  0  0
  5  3  1  0  0  0
  3  1  1  0  0  0
  1  2  2  0  0  0
  1 16  1  0  0  0
 16 18  1  0  0  0
 18 19  2  0  0  0
 19 20  1  0  0  0
 20 21  2  0  0  0
 21 22  1  0  0  0
 22 23  2  0  0  0
 23 26  1  0  0  0
 26 27  2  0  0  0
 26 28  1  0  0  0
 23 24  1  0  0  0
 24 25  2  0  0  0
  9 10  1  0  0  0
 10 11  2  0  0  0
 11  6  1  0  0  0
 25 20  1  0  0  0
  3  4  1  0  0  0
 16 17  1  0  0  0
M  CHG 1  26   1
M  CHG 1  28  -1
M  END
> <minimizedAffinity>
-7.82504

> <CNNscore>
0.8215433359

> <CNNaffinity>
6.5649590492

> <CNN_VS>
5.3933982849

> <CNNaffinity_variance>
0.0997485965

$$$$
[H]C(=NN([H])C(=S)N([H])C([H])([H])c1c([H])c([H])c(OC([H])(C([H])([H])[H])C([H])([H])[H])c([H])c1[H])c1c([H])c([H])c([N+](=O)[O-])c([H])c1[H]


 28 29  0  0  0  0  0  0  0  0999 V2000
    2.5410    1.9893   15.5451 C   0  0  0  0  0  0  0  0  0  0  0  0
    1.8883    2.1645   14.0656 S   0  0  0  0  0  0  0  0  0  0  0  0
    3.7996    2.5575   15.8188 N   0  0  0  0  0  0  0  0  0  0  0  0
    4.5980    1.9612   16.1061 H   0  0  0  0  0  0  0  0  0  0  0  0
    3.9957    3.9832   15.7024 C   0  0  0  0  0  0  0  0  0  0  0  0
    4.6128    5.8260   19.5289 C   0  0  0  0  0  0  0  0  0  0  0  0
    3.3560    5.7945   18.9230 C   0  0  0  0  0  0  0  0  0  0  0  0
    3.1770    5.1994   17.6961 C   0  0  0  0  0  0  0  0  0  0  0  0
    4.2269    4.6149   17.0226 C   0  0  0  0  0  0  0  0  0  0  0  0
    5.4483    4.6639   17.6471 C   0  0  0  0  0  0  0  0  0  0  0  0
    5.6647    5.2574   18.8871 C   0  0  0  0  0  0  0  0  0  0  0  0
    4.7400    6.4311   20.7528 O   0  0  0  0  0  0  0  0  0  0  0  0
    6.4161    7.0156   22.3992 C   0  0  0  0  0  0  0  0  0  0  0  0
    5.6705    7.3858   21.1177 C   0  0  0  0  0  0  0  0  0  0  0  0
    4.9574    8.7105   21.3931 C   0  0  0  0  0  0  0  0  0  0  0  0
    1.8509    1.2676   16.5622 N   0  0  0  0  0  0  0  0  0  0  0  0
    0.9783    1.6651   17.0177 H   0  0  0  0  0  0  0  0  0  0  0  0
    2.2743    0.0533   16.9921 N   0  0  0  0  0  0  0  0  0  0  0  0
    2.8030   -0.4064   17.9990 C   0  0  0  0  0  0  0  0  0  0  0  0
    3.1909    0.2941   19.1994 C   0  0  0  0  0  0  0  0  0  0  0  0
    2.7333    0.0129   20.4658 C   0  0  0  0  0  0  0  0  0  0  0  0
    3.1427    0.7235   21.5923 C   0  0  0  0  0  0  0  0  0  0  0  0
    4.0409    1.7602   21.4916 C   0  0  0  0  0  0  0  0  0  0  0  0
    4.5163    2.0651   20.2378 C   0  0  0  0  0  0  0  0  0  0  0  0
    4.1067    1.3596   19.1384 C   0  0  0  0  0  0  0  0  0  0  0  0
    4.4551    2.4835   22.6526 N   0  0  0  0  0  0  0  0  0  0  0  0
    4.8067    3.6723   22.5327 O   0  0  0  0  0  0  0  0  0  0  0  0
    4.4416    1.8165   23.8506 O   0  0  0  0  0  0  0  0  0  0  0  0
 13 14  1  0  0  0
 14 15  1  0  0  0
 14 12  1  0  0  0
 12  6  1  0  0  0
  6  7  2  0  0  0
  7  8  1  0  0  0
  8  9  2  0  0  0
  9  5  1  0  0  0
  5  3  1  0  0  0
  3  1  1  0  0  0
  1  2  2  0  0  0
  1 16  1  0  0  0
 16 18  1  0  0  0
 18 19  2  0  0  0
 19 20  1  0  0  0
 20 21  2  0  0  0
 21 22  1  0  0  0
 22 23  2  0  0  0
 23 26  1  0  0  0
 26 27  2  0  0  0
 26 28  1  0  0  0
 23 24  1  0  0  0
 24 25  2  0  0  0
  9 10  1  0  0  0
 10 11  2  0  0  0
 11  6  1  0  0  0
 25 20  1  0  0  0
  3  4  1  0  0  0
 16 17  1  0  0  0
M  CHG 1  26   1
M  CHG 1  28  -1
M  END
> <minimizedAffinity>
-7.33338

> <CNNscore>
0.7251113653

> <CNNaffinity>
6.3850145340

> <CNN_VS>
4.6298465729

> <CNNaffinity_variance>
0.0965482146

$$$$
[H]C(=NN([H])C(=S)N([H])C([H])([H])c1c([H])c([H])c(OC([H])(C([H])([H])[H])C([H])([H])[H])c([H])c1[H])c1c([H])c([H])c([N+](=O)[O-])c([H])c1[H]


 28 29  0  0  0  0  0  0  0  0999 V2000
    5.0097    4.5954   22.8395 C   0  0  0  0  0  0  0  0  0  0  0  0
    3.6440    4.0285   23.5173 S   0  0  0  0  0  0  0  0  0  0  0  0
    5.2090    5.9855   22.7412 N   0  0  0  0  0  0  0  0  0  0  0  0
    4.6942    6.6388   23.3607 H   0  0  0  0  0  0  0  0  0  0  0  0
    6.1364    6.5215   21.7730 C   0  0  0  0  0  0  0  0  0  0  0  0
    4.4927    6.6193   17.8099 C   0  0  0  0  0  0  0  0  0  0  0  0
    5.8591    6.7814   18.0424 C   0  0  0  0  0  0  0  0  0  0  0  0
    6.3682    6.7472   19.3196 C   0  0  0  0  0  0  0  0  0  0  0  0
    5.5518    6.5525   20.4119 C   0  0  0  0  0  0  0  0  0  0  0  0
    4.2140    6.3967   20.1470 C   0  0  0  0  0  0  0  0  0  0  0  0
    3.6656    6.4258   18.8683 C   0  0  0  0  0  0  0  0  0  0  0  0
    4.0338    6.6613   16.5183 O   0  0  0  0  0  0  0  0  0  0  0  0
    2.2413    5.2198   15.7630 C   0  0  0  0  0  0  0  0  0  0  0  0
    3.7242    5.5848   15.7086 C   0  0  0  0  0  0  0  0  0  0  0  0
    4.4961    4.3531   16.1843 C   0  0  0  0  0  0  0  0  0  0  0  0
    6.0019    3.6988   22.3464 N   0  0  0  0  0  0  0  0  0  0  0  0
    6.7543    4.0319   21.6756 H   0  0  0  0  0  0  0  0  0  0  0  0
    6.0288    2.3917   22.7060 N   0  0  0  0  0  0  0  0  0  0  0  0
    5.5959    1.3320   22.2650 C   0  0  0  0  0  0  0  0  0  0  0  0
    4.8201    1.1169   21.0675 C   0  0  0  0  0  0  0  0  0  0  0  0
    3.7573    0.2509   20.9549 C   0  0  0  0  0  0  0  0  0  0  0  0
    3.0419    0.0825   19.7711 C   0  0  0  0  0  0  0  0  0  0  0  0
    3.3694    0.7868   18.6360 C   0  0  0  0  0  0  0  0  0  0  0  0
    4.4280    1.6607   18.7177 C   0  0  0  0  0  0  0  0  0  0  0  0
    5.1232    1.8176   19.8865 C   0  0  0  0  0  0  0  0  0  0  0  0
    2.6299    0.6076   17.4261 N   0  0  0  0  0  0  0  0  0  0  0  0
    2.3227   -0.5452   17.0686 O   0  0  0  0  0  0  0  0  0  0  0  0
    2.2961    1.7329   16.7172 O   0  0  0  0  0  0  0  0  0  0  0  0
 13 14  1  0  0  0
 14 15  1  0  0  0
 14 12  1  0  0  0
 12  6  1  0  0  0
  6  7  2  0  0  0
  7  8  1  0  0  0
  8  9  2  0  0  0
  9  5  1  0  0  0
  5  3  1  0  0  0
  3  1  1  0  0  0
  1  2  2  0  0  0
  1 16  1  0  0  0
 16 18  1  0  0  0
 18 19  2  0  0  0
 19 20  1  0  0  0
 20 21  2  0  0  0
 21 22  1  0  0  0
 22 23  2  0  0  0
 23 26  1  0  0  0
 26 27  2  0  0  0
 26 28  1  0  0  0
 23 24  1  0  0  0
 24 25  2  0  0  0
  9 10  1  0  0  0
 10 11  2  0  0  0
 11  6  1  0  0  0
 25 20  1  0  0  0
  3  4  1  0  0  0
 16 17  1  0  0  0
M  CHG 1  26   1
M  CHG 1  28  -1
M  END
> <minimizedAffinity>
-6.92262

> <CNNscore>
0.6520528793

> <CNNaffinity>
6.4384598732

> <CNN_VS>
4.1982164383

> <CNNaffinity_variance>
0.0431460217

$$$$
[H]C(=NN([H])C(=S)N([H])C([H])([H])c1c([H])c([H])c(OC([H])(C([H])([H])[H])C([H])([H])[H])c([H])c1[H])c1c([H])c([H])c([N+](=O)[O-])c([H])c1[H]


 28 29  0  0  0  0  0  0  0  0999 V2000
    2.2355    2.3576   15.4688 C   0  0  0  0  0  0  0  0  0  0  0  0
    2.2120    2.1571   13.8548 S   0  0  0  0  0  0  0  0  0  0  0  0
    2.7823    3.5353   16.0127 N   0  0  0  0  0  0  0  0  0  0  0  0
    2.2613    4.0806   16.7246 H   0  0  0  0  0  0  0  0  0  0  0  0
    4.0804    4.0006   15.5849 C   0  0  0  0  0  0  0  0  0  0  0  0
    5.6736    6.9663   18.2465 C   0  0  0  0  0  0  0  0  0  0  0  0
    6.0992    5.6379   18.2878 C   0  0  0  0  0  0  0  0  0  0  0  0
    5.5774    4.7009   17.4268 C   0  0  0  0  0  0  0  0  0  0  0  0
    4.6194    5.0374   16.4959 C   0  0  0  0  0  0  0  0  0  0  0  0
    4.2240    6.3518   16.4829 C   0  0  0  0  0  0  0  0  0  0  0  0
    4.7307    7.3251   17.3388 C   0  0  0  0  0  0  0  0  0  0  0  0
    6.2242    7.8630   19.1258 O   0  0  0  0  0  0  0  0  0  0  0  0
    4.7272    8.8439   20.7562 C   0  0  0  0  0  0  0  0  0  0  0  0
    5.9550    7.9782   20.4766 C   0  0  0  0  0  0  0  0  0  0  0  0
    7.1360    8.6552   21.1738 C   0  0  0  0  0  0  0  0  0  0  0  0
    1.7087    1.3538   16.3328 N   0  0  0  0  0  0  0  0  0  0  0  0
    0.7553    1.4681   16.7854 H   0  0  0  0  0  0  0  0  0  0  0  0
    2.3952    0.2191   16.6153 N   0  0  0  0  0  0  0  0  0  0  0  0
    3.0410   -0.2260   17.5584 C   0  0  0  0  0  0  0  0  0  0  0  0
    3.3071    0.4018   18.8302 C   0  0  0  0  0  0  0  0  0  0  0  0
    2.8593   -0.0525   20.0490 C   0  0  0  0  0  0  0  0  0  0  0  0
    3.1471    0.5949   21.2488 C   0  0  0  0  0  0  0  0  0  0  0  0
    3.9069    1.7411   21.2740 C   0  0  0  0  0  0  0  0  0  0  0  0
    4.3690    2.2197   20.0705 C   0  0  0  0  0  0  0  0  0  0  0  0
    4.0796    1.5748   18.8981 C   0  0  0  0  0  0  0  0  0  0  0  0
    4.1971    2.3984   22.5095 N   0  0  0  0  0  0  0  0  0  0  0  0
    4.4285    1.7110   23.5220 O   0  0  0  0  0  0  0  0  0  0  0  0
    4.2040    3.7696   22.5091 O   0  0  0  0  0  0  0  0  0  0  0  0
 13 14  1  0  0  0
 14 15  1  0  0  0
 14 12  1  0  0  0
 12  6  1  0  0  0
  6  7  2  0  0  0
  7  8  1  0  0  0
  8  9  2  0  0  0
  9  5  1  0  0  0
  5  3  1  0  0  0
  3  1  1  0  0  0
  1  2  2  0  0  0
  1 16  1  0  0  0
 16 18  1  0  0  0
 18 19  2  0  0  0
 19 20  1  0  0  0
 20 21  2  0  0  0
 21 22  1  0  0  0
 22 23  2  0  0  0
 23 26  1  0  0  0
 26 27  2  0  0  0
 26 28  1  0  0  0
 23 24  1  0  0  0
 24 25  2  0  0  0
  9 10  1  0  0  0
 10 11  2  0  0  0
 11  6  1  0  0  0
 25 20  1  0  0  0
  3  4  1  0  0  0
 16 17  1  0  0  0
M  CHG 1  26   1
M  CHG 1  28  -1
M  END
> <minimizedAffinity>
-6.64040

> <CNNscore>
0.6484430432

> <CNNaffinity>
6.2625088692

> <CNN_VS>
4.0608801842

> <CNNaffinity_variance>
0.0476194769

$$$$
[H]C(=NN([H])C(=S)N([H])C([H])([H])c1c([H])c([H])c(OC([H])(C([H])([H])[H])C([H])([H])[H])c([H])c1[H])c1c([H])c([H])c([N+](=O)[O-])c([H])c1[H]


 28 29  0  0  0  0  0  0  0  0999 V2000
    5.1474    7.4077   21.2891 C   0  0  0  0  0  0  0  0  0  0  0  0
    5.0116    9.0098   21.5352 S   0  0  0  0  0  0  0  0  0  0  0  0
    6.1080    6.9254   20.3801 N   0  0  0  0  0  0  0  0  0  0  0  0
    6.9019    6.3443   20.7082 H   0  0  0  0  0  0  0  0  0  0  0  0
    5.9996    7.2345   18.9738 C   0  0  0  0  0  0  0  0  0  0  0  0
    4.1107    4.0600   16.7892 C   0  0  0  0  0  0  0  0  0  0  0  0
    5.4938    4.1062   16.9689 C   0  0  0  0  0  0  0  0  0  0  0  0
    6.0819    5.1315   17.6721 C   0  0  0  0  0  0  0  0  0  0  0  0
    5.3308    6.1464   18.2227 C   0  0  0  0  0  0  0  0  0  0  0  0
    3.9743    6.0696   18.0270 C   0  0  0  0  0  0  0  0  0  0  0  0
    3.3468    5.0474   17.3214 C   0  0  0  0  0  0  0  0  0  0  0  0
    3.5720    3.0170   16.0804 O   0  0  0  0  0  0  0  0  0  0  0  0
    2.2856    1.7319   14.4819 C   0  0  0  0  0  0  0  0  0  0  0  0
    2.7985    3.0973   14.9378 C   0  0  0  0  0  0  0  0  0  0  0  0
    3.6436    3.6529   13.7905 C   0  0  0  0  0  0  0  0  0  0  0  0
    4.3044    6.4925   21.9842 N   0  0  0  0  0  0  0  0  0  0  0  0
    3.2617    6.4535   21.7885 H   0  0  0  0  0  0  0  0  0  0  0  0
    4.7901    5.6396   22.9198 N   0  0  0  0  0  0  0  0  0  0  0  0
    4.8972    4.4252   23.0556 C   0  0  0  0  0  0  0  0  0  0  0  0
    4.4851    3.3875   22.1415 C   0  0  0  0  0  0  0  0  0  0  0  0
    4.7300    3.3787   20.7878 C   0  0  0  0  0  0  0  0  0  0  0  0
    4.3079    2.3482   19.9503 C   0  0  0  0  0  0  0  0  0  0  0  0
    3.6127    1.2694   20.4449 C   0  0  0  0  0  0  0  0  0  0  0  0
    3.3526    1.2501   21.7951 C   0  0  0  0  0  0  0  0  0  0  0  0
    3.7727    2.2685   22.6079 C   0  0  0  0  0  0  0  0  0  0  0  0
    3.1837    0.2169   19.5782 N   0  0  0  0  0  0  0  0  0  0  0  0
    2.8654   -0.8818   20.0706 O   0  0  0  0  0  0  0  0  0  0  0  0
    3.1468    0.4816   18.2333 O   0  0  0  0  0  0  0  0  0  0  0  0
 13 14  1  0  0  0
 14 15  1  0  0  0
 14 12  1  0  0  0
 12  6  1  0  0  0
  6  7  2  0  0  0
  7  8  1  0  0  0
  8  9  2  0  0  0
  9  5  1  0  0  0
  5  3  1  0  0  0
  3  1  1  0  0  0
  1  2  2  0  0  0
  1 16  1  0  0  0
 16 18  1  0  0  0
 18 19  2  0  0  0
 19 20  1  0  0  0
 20 21  2  0  0  0
 21 22  1  0  0  0
 22 23  2  0  0  0
 23 26  1  0  0  0
 26 27  2  0  0  0
 26 28  1  0  0  0
 23 24  1  0  0  0
 24 25  2  0  0  0
  9 10  1  0  0  0
 10 11  2  0  0  0
 11  6  1  0  0  0
 25 20  1  0  0  0
  3  4  1  0  0  0
 16 17  1  0  0  0
M  CHG 1  26   1
M  CHG 1  28  -1
M  END
> <minimizedAffinity>
-6.95771

> <CNNscore>
0.5048444271

> <CNNaffinity>
5.9004068375

> <CNN_VS>
2.9787874222

> <CNNaffinity_variance>
0.1089783683

$$$$
[H]C(=NN([H])C(=S)N([H])C([H])([H])c1c([H])c([H])c(OC([H])(C([H])([H])[H])C([H])([H])[H])c([H])c1[H])c1c([H])c([H])c([N+](=O)[O-])c([H])c1[H]


 28 29  0  0  0  0  0  0  0  0999 V2000
    2.3751    1.9545   15.0032 C   0  0  0  0  0  0  0  0  0  0  0  0
    1.4793    2.0193   13.6471 S   0  0  0  0  0  0  0  0  0  0  0  0
    1.8774    1.2739   16.1306 N   0  0  0  0  0  0  0  0  0  0  0  0
    0.9689    1.5430   16.5524 H   0  0  0  0  0  0  0  0  0  0  0  0
    2.6281    0.1884   16.7160 C   0  0  0  0  0  0  0  0  0  0  0  0
    3.9380    1.0993   20.7001 C   0  0  0  0  0  0  0  0  0  0  0  0
    3.0408    0.0623   20.4411 C   0  0  0  0  0  0  0  0  0  0  0  0
    2.6320   -0.2153   19.1576 C   0  0  0  0  0  0  0  0  0  0  0  0
    3.0909    0.5168   18.0847 C   0  0  0  0  0  0  0  0  0  0  0  0
    3.9717    1.5286   18.3754 C   0  0  0  0  0  0  0  0  0  0  0  0
    4.4060    1.8365   19.6612 C   0  0  0  0  0  0  0  0  0  0  0  0
    4.3153    1.3366   21.9968 O   0  0  0  0  0  0  0  0  0  0  0  0
    6.7330    1.3911   22.1121 C   0  0  0  0  0  0  0  0  0  0  0  0
    5.4025    2.0738   22.4268 C   0  0  0  0  0  0  0  0  0  0  0  0
    5.3400    2.2314   23.9468 C   0  0  0  0  0  0  0  0  0  0  0  0
    3.6551    2.5792   15.0583 N   0  0  0  0  0  0  0  0  0  0  0  0
    4.5182    2.0318   15.3452 H   0  0  0  0  0  0  0  0  0  0  0  0
    3.8271    3.8888   14.7520 N   0  0  0  0  0  0  0  0  0  0  0  0
    4.0124    4.9354   15.3645 C   0  0  0  0  0  0  0  0  0  0  0  0
    4.1193    5.1249   16.7910 C   0  0  0  0  0  0  0  0  0  0  0  0
    5.2920    5.1003   17.5096 C   0  0  0  0  0  0  0  0  0  0  0  0
    5.3370    5.2899   18.8892 C   0  0  0  0  0  0  0  0  0  0  0  0
    4.1898    5.5150   19.6139 C   0  0  0  0  0  0  0  0  0  0  0  0
    3.0013    5.5450   18.9228 C   0  0  0  0  0  0  0  0  0  0  0  0
    2.9699    5.3574   17.5671 C   0  0  0  0  0  0  0  0  0  0  0  0
    4.2455    5.7085   21.0289 N   0  0  0  0  0  0  0  0  0  0  0  0
    3.6620    4.8995   21.7746 O   0  0  0  0  0  0  0  0  0  0  0  0
    4.9492    6.7907   21.4913 O   0  0  0  0  0  0  0  0  0  0  0  0
 13 14  1  0  0  0
 14 15  1  0  0  0
 14 12  1  0  0  0
 12  6  1  0  0  0
  6  7  2  0  0  0
  7  8  1  0  0  0
  8  9  2  0  0  0
  9  5  1  0  0  0
  5  3  1  0  0  0
  3  1  1  0  0  0
  1  2  2  0  0  0
  1 16  1  0  0  0
 16 18  1  0  0  0
 18 19  2  0  0  0
 19 20  1  0  0  0
 20 21  2  0  0  0
 21 22  1  0  0  0
 22 23  2  0  0  0
 23 26  1  0  0  0
 26 27  2  0  0  0
 26 28  1  0  0  0
 23 24  1  0  0  0
 24 25  2  0  0  0
  9 10  1  0  0  0
 10 11  2  0  0  0
 11  6  1  0  0  0
 25 20  1  0  0  0
  3  4  1  0  0  0
 16 17  1  0  0  0
M  CHG 1  26   1
M  CHG 1  28  -1
M  END
> <minimizedAffinity>
-7.34015

> <CNNscore>
0.4858036339

> <CNNaffinity>
6.0186071396

> <CNN_VS>
2.9238612652

> <CNNaffinity_variance>
0.3387250006

$$$$
[H]C(=NN([H])C(=S)N([H])C([H])([H])c1c([H])c([H])c(OC([H])(C([H])([H])[H])C([H])([H])[H])c([H])c1[H])c1c([H])c([H])c([N+](=O)[O-])c([H])c1[H]


 28 29  0  0  0  0  0  0  0  0999 V2000
    5.6093    5.2340   22.5152 C   0  0  0  0  0  0  0  0  0  0  0  0
    3.9946    5.1908   22.3238 S   0  0  0  0  0  0  0  0  0  0  0  0
    6.2609    6.4771   22.6247 N   0  0  0  0  0  0  0  0  0  0  0  0
    5.8999    7.2090   23.2646 H   0  0  0  0  0  0  0  0  0  0  0  0
    7.4449    6.7498   21.8446 C   0  0  0  0  0  0  0  0  0  0  0  0
    6.5360    8.6107   18.0857 C   0  0  0  0  0  0  0  0  0  0  0  0
    7.8173    8.6561   18.6368 C   0  0  0  0  0  0  0  0  0  0  0  0
    8.0902    8.0539   19.8428 C   0  0  0  0  0  0  0  0  0  0  0  0
    7.1134    7.3865   20.5484 C   0  0  0  0  0  0  0  0  0  0  0  0
    5.8654    7.3613   19.9774 C   0  0  0  0  0  0  0  0  0  0  0  0
    5.5547    7.9595   18.7600 C   0  0  0  0  0  0  0  0  0  0  0  0
    6.3141    9.2264   16.8807 O   0  0  0  0  0  0  0  0  0  0  0  0
    6.6249    8.8051   14.5169 C   0  0  0  0  0  0  0  0  0  0  0  0
    5.7382    8.6700   15.7542 C   0  0  0  0  0  0  0  0  0  0  0  0
    4.4319    9.4002   15.4384 C   0  0  0  0  0  0  0  0  0  0  0  0
    6.3661    4.0276   22.5725 N   0  0  0  0  0  0  0  0  0  0  0  0
    7.2946    3.9406   22.0653 H   0  0  0  0  0  0  0  0  0  0  0  0
    5.9381    2.9455   23.2685 N   0  0  0  0  0  0  0  0  0  0  0  0
    5.2889    1.9308   23.0372 C   0  0  0  0  0  0  0  0  0  0  0  0
    4.6998    1.5168   21.7867 C   0  0  0  0  0  0  0  0  0  0  0  0
    5.0867    1.9576   20.5424 C   0  0  0  0  0  0  0  0  0  0  0  0
    4.4813    1.5233   19.3650 C   0  0  0  0  0  0  0  0  0  0  0  0
    3.4480    0.6159   19.3894 C   0  0  0  0  0  0  0  0  0  0  0  0
    3.0387    0.1569   20.6193 C   0  0  0  0  0  0  0  0  0  0  0  0
    3.6415    0.5910   21.7693 C   0  0  0  0  0  0  0  0  0  0  0  0
    2.8329    0.1760   18.1765 N   0  0  0  0  0  0  0  0  0  0  0  0
    3.4370    0.3335   17.0988 O   0  0  0  0  0  0  0  0  0  0  0  0
    1.5935   -0.4030   18.2706 O   0  0  0  0  0  0  0  0  0  0  0  0
 13 14  1  0  0  0
 14 15  1  0  0  0
 14 12  1  0  0  0
 12  6  1  0  0  0
  6  7  2  0  0  0
  7  8  1  0  0  0
  8  9  2  0  0  0
  9  5  1  0  0  0
  5  3  1  0  0  0
  3  1  1  0  0  0
  1  2  2  0  0  0
  1 16  1  0  0  0
 16 18  1  0  0  0
 18 19  2  0  0  0
 19 20  1  0  0  0
 20 21  2  0  0  0
 21 22  1  0  0  0
 22 23  2  0  0  0
 23 26  1  0  0  0
 26 27  2  0  0  0
 26 28  1  0  0  0
 23 24  1  0  0  0
 24 25  2  0  0  0
  9 10  1  0  0  0
 10 11  2  0  0  0
 11  6  1  0  0  0
 25 20  1  0  0  0
  3  4  1  0  0  0
 16 17  1  0  0  0
M  CHG 1  26   1
M  CHG 1  28  -1
M  END
> <minimizedAffinity>
-6.63719

> <CNNscore>
0.4826322198

> <CNNaffinity>
5.9200539589

> <CNN_VS>
2.8572087288

> <CNNaffinity_variance>
0.0589702725

$$$$
[H]C(=NN([H])C(=S)N([H])C([H])([H])c1c([H])c([H])c(OC([H])(C([H])([H])[H])C([H])([H])[H])c([H])c1[H])c1c([H])c([H])c([N+](=O)[O-])c([H])c1[H]


 28 29  0  0  0  0  0  0  0  0999 V2000
    2.6254    4.0351   16.2631 C   0  0  0  0  0  0  0  0  0  0  0  0
    2.7497    5.2696   17.3149 S   0  0  0  0  0  0  0  0  0  0  0  0
    2.5181    4.3064   14.8859 N   0  0  0  0  0  0  0  0  0  0  0  0
    2.6703    3.5567   14.1856 H   0  0  0  0  0  0  0  0  0  0  0  0
    2.1934    5.6371   14.4290 C   0  0  0  0  0  0  0  0  0  0  0  0
   -1.7079    5.7563   12.6447 C   0  0  0  0  0  0  0  0  0  0  0  0
   -0.8245    4.7020   12.4092 C   0  0  0  0  0  0  0  0  0  0  0  0
    0.4221    4.6805   12.9897 C   0  0  0  0  0  0  0  0  0  0  0  0
    0.8432    5.6945   13.8216 C   0  0  0  0  0  0  0  0  0  0  0  0
   -0.0504    6.7152   14.0313 C   0  0  0  0  0  0  0  0  0  0  0  0
   -1.3184    6.7686   13.4605 C   0  0  0  0  0  0  0  0  0  0  0  0
   -2.9397    5.7319   12.0427 O   0  0  0  0  0  0  0  0  0  0  0  0
   -3.7932    5.8271    9.7791 C   0  0  0  0  0  0  0  0  0  0  0  0
   -3.3198    4.9711   10.9532 C   0  0  0  0  0  0  0  0  0  0  0  0
   -4.4964    4.0758   11.3447 C   0  0  0  0  0  0  0  0  0  0  0  0
    2.6242    2.6863   16.7237 N   0  0  0  0  0  0  0  0  0  0  0  0
    1.7157    2.1907   16.9606 H   0  0  0  0  0  0  0  0  0  0  0  0
    3.7720    1.9818   16.8812 N   0  0  0  0  0  0  0  0  0  0  0  0
    4.5078    1.6635   17.8096 C   0  0  0  0  0  0  0  0  0  0  0  0
    4.3626    1.9817   19.2096 C   0  0  0  0  0  0  0  0  0  0  0  0
    3.8579    1.1340   20.1682 C   0  0  0  0  0  0  0  0  0  0  0  0
    3.7401    1.4943   21.5090 C   0  0  0  0  0  0  0  0  0  0  0  0
    4.1298    2.7381   21.9481 C   0  0  0  0  0  0  0  0  0  0  0  0
    4.6385    3.6080   21.0124 C   0  0  0  0  0  0  0  0  0  0  0  0
    4.7494    3.2424   19.6978 C   0  0  0  0  0  0  0  0  0  0  0  0
    4.0052    3.0990   23.3255 N   0  0  0  0  0  0  0  0  0  0  0  0
    3.3278    4.0982   23.6313 O   0  0  0  0  0  0  0  0  0  0  0  0
    4.6491    2.3119   24.2454 O   0  0  0  0  0  0  0  0  0  0  0  0
 13 14  1  0  0  0
 14 15  1  0  0  0
 14 12  1  0  0  0
 12  6  1  0  0  0
  6  7  2  0  0  0
  7  8  1  0  0  0
  8  9  2  0  0  0
  9  5  1  0  0  0
  5  3  1  0  0  0
  3  1  1  0  0  0
  1  2  2  0  0  0
  1 16  1  0  0  0
 16 18  1  0  0  0
 18 19  2  0  0  0
 19 20  1  0  0  0
 20 21  2  0  0  0
 21 22  1  0  0  0
 22 23  2  0  0  0
 23 26  1  0  0  0
 26 27  2  0  0  0
 26 28  1  0  0  0
 23 24  1  0  0  0
 24 25  2  0  0  0
  9 10  1  0  0  0
 10 11  2  0  0  0
 11  6  1  0  0  0
 25 20  1  0  0  0
  3  4  1  0  0  0
 16 17  1  0  0  0
M  CHG 1  26   1
M  CHG 1  28  -1
M  END
> <minimizedAffinity>
-6.91672

> <CNNscore>
0.4097042084

> <CNNaffinity>
5.3101720810

> <CNN_VS>
2.1755998135

> <CNNaffinity_variance>
0.4253048897

$$$$
[H]C(=NN([H])C(=S)N([H])C([H])([H])c1c([H])c([H])c(OC([H])(C([H])([H])[H])C([H])([H])[H])c([H])c1[H])c1c([H])c([H])c([N+](=O)[O-])c([H])c1[H]


 28 29  0  0  0  0  0  0  0  0999 V2000
    2.9477    3.5168   15.8313 C   0  0  0  0  0  0  0  0  0  0  0  0
    2.3597    5.0050   16.1229 S   0  0  0  0  0  0  0  0  0  0  0  0
    3.7014    3.2859   14.6650 N   0  0  0  0  0  0  0  0  0  0  0  0
    4.3901    2.5115   14.6248 H   0  0  0  0  0  0  0  0  0  0  0  0
    3.5244    4.1275   13.5051 C   0  0  0  0  0  0  0  0  0  0  0  0
    0.8199    2.4126   10.6482 C   0  0  0  0  0  0  0  0  0  0  0  0
    0.7836    3.7697   10.9710 C   0  0  0  0  0  0  0  0  0  0  0  0
    1.6583    4.3020   11.8892 C   0  0  0  0  0  0  0  0  0  0  0  0
    2.5986    3.5187   12.5215 C   0  0  0  0  0  0  0  0  0  0  0  0
    2.6064    2.1891   12.1804 C   0  0  0  0  0  0  0  0  0  0  0  0
    1.7366    1.6179   11.2564 C   0  0  0  0  0  0  0  0  0  0  0  0
   -0.0732    1.9297    9.7265 O   0  0  0  0  0  0  0  0  0  0  0  0
    0.5183    0.2789    8.0572 C   0  0  0  0  0  0  0  0  0  0  0  0
   -0.2421    0.6135    9.3398 C   0  0  0  0  0  0  0  0  0  0  0  0
   -1.7217    0.3547    9.0518 C   0  0  0  0  0  0  0  0  0  0  0  0
    2.7065    2.4491   16.7443 N   0  0  0  0  0  0  0  0  0  0  0  0
    1.7763    2.3611   17.2484 H   0  0  0  0  0  0  0  0  0  0  0  0
    3.6452    1.5075   17.0100 N   0  0  0  0  0  0  0  0  0  0  0  0
    4.2975    1.1420   17.9824 C   0  0  0  0  0  0  0  0  0  0  0  0
    4.2655    1.6698   19.3250 C   0  0  0  0  0  0  0  0  0  0  0  0
    4.7515    2.8987   19.7069 C   0  0  0  0  0  0  0  0  0  0  0  0
    4.6942    3.3590   21.0207 C   0  0  0  0  0  0  0  0  0  0  0  0
    4.1387    2.5930   22.0190 C   0  0  0  0  0  0  0  0  0  0  0  0
    3.6442    1.3589   21.6678 C   0  0  0  0  0  0  0  0  0  0  0  0
    3.7061    0.9177   20.3733 C   0  0  0  0  0  0  0  0  0  0  0  0
    4.0843    3.0734   23.3640 N   0  0  0  0  0  0  0  0  0  0  0  0
    3.4685    4.1284   23.6064 O   0  0  0  0  0  0  0  0  0  0  0  0
    4.7234    2.3334   24.3254 O   0  0  0  0  0  0  0  0  0  0  0  0
 13 14  1  0  0  0
 14 15  1  0  0  0
 14 12  1  0  0  0
 12  6  1  0  0  0
  6  7  2  0  0  0
  7  8  1  0  0  0
  8  9  2  0  0  0
  9  5  1  0  0  0
  5  3  1  0  0  0
  3  1  1  0  0  0
  1  2  2  0  0  0
  1 16  1  0  0  0
 16 18  1  0  0  0
 18 19  2  0  0  0
 19 20  1  0  0  0
 20 21  2  0  0  0
 21 22  1  0  0  0
 22 23  2  0  0  0
 23 26  1  0  0  0
 26 27  2  0  0  0
 26 28  1  0  0  0
 23 24  1  0  0  0
 24 25  2  0  0  0
  9 10  1  0  0  0
 10 11  2  0  0  0
 11  6  1  0  0  0
 25 20  1  0  0  0
  3  4  1  0  0  0
 16 17  1  0  0  0
M  CHG 1  26   1
M  CHG 1  28  -1
M  END
> <minimizedAffinity>
-6.02921

> <CNNscore>
0.3805180192

> <CNNaffinity>
5.5108189583

> <CNN_VS>
2.0969660282

> <CNNaffinity_variance>
0.4042924941

$$$$
[H]c1nc(N([H])[H])c(C(=O)N([H])c2c([H])nc([H])c([H])c2N2C([H])([H])C([H])([H])C([H])(N([H])[H])C([H])([H])C2([H])[H])nc1-c1c([H])c([H])c(OC([H])([H])[H])c([H])c1[H]


 36 39  0  0  0  0  0  0  0  0999 V2000
    4.7855    1.8497   19.6340 C   0  0  0  0  0  0  0  0  0  0  0  0
    5.5205    0.9968   20.1689 O   0  0  0  0  0  0  0  0  0  0  0  0
    4.7694    3.2324   19.8638 N   0  0  0  0  0  0  0  0  0  0  0  0
    4.0635    3.7750   19.2734 H   0  0  0  0  0  0  0  0  0  0  0  0
    2.9182    1.3887   16.4539 C   0  0  0  0  0  0  0  0  0  0  0  0
    2.1131    0.3315   16.7811 C   0  0  0  0  0  0  0  0  0  0  0  0
    2.1597   -0.2444   18.0214 N   0  0  0  0  0  0  0  0  0  0  0  0
    3.0206    0.2389   18.9500 C   0  0  0  0  0  0  0  0  0  0  0  0
    3.0965   -0.3396   20.2565 N   0  0  0  0  0  0  0  0  0  0  0  0
    3.8288    1.2898   18.6419 C   0  0  0  0  0  0  0  0  0  0  0  0
    3.7579    1.8408   17.3982 N   0  0  0  0  0  0  0  0  0  0  0  0
    2.6220    0.0992   21.0711 H   0  0  0  0  0  0  0  0  0  0  0  0
    3.6302   -1.2029   20.3868 H   0  0  0  0  0  0  0  0  0  0  0  0
    2.7830    3.2117   12.5958 C   0  0  0  0  0  0  0  0  0  0  0  0
    3.7311    3.6099   13.5055 C   0  0  0  0  0  0  0  0  0  0  0  0
    3.7582    3.0120   14.7414 C   0  0  0  0  0  0  0  0  0  0  0  0
    2.8979    2.0272   15.1538 C   0  0  0  0  0  0  0  0  0  0  0  0
    1.9418    1.6425   14.2026 C   0  0  0  0  0  0  0  0  0  0  0  0
    1.8822    2.2197   12.9499 C   0  0  0  0  0  0  0  0  0  0  0  0
    2.5663    5.1985   11.2467 C   0  0  0  0  0  0  0  0  0  0  0  0
    2.7528    3.8098   11.3535 O   0  0  0  0  0  0  0  0  0  0  0  0
    5.5694    3.9903   20.7434 C   0  0  0  0  0  0  0  0  0  0  0  0
    6.0319    3.5052   21.9294 C   0  0  0  0  0  0  0  0  0  0  0  0
    6.8311    4.2312   22.7309 N   0  0  0  0  0  0  0  0  0  0  0  0
    7.2154    5.4708   22.4054 C   0  0  0  0  0  0  0  0  0  0  0  0
    6.7812    6.0142   21.2232 C   0  0  0  0  0  0  0  0  0  0  0  0
    5.9513    5.2768   20.3797 C   0  0  0  0  0  0  0  0  0  0  0  0
    5.4794    5.8643   19.1834 N   0  0  0  0  0  0  0  0  0  0  0  0
    5.8328    5.4305   17.8618 C   0  0  0  0  0  0  0  0  0  0  0  0
    4.5845    5.2663   17.0259 C   0  0  0  0  0  0  0  0  0  0  0  0
    3.3628    5.3151   17.8870 C   0  0  0  0  0  0  0  0  0  0  0  0
    2.1561    5.2857   17.0491 N   0  0  0  0  0  0  0  0  0  0  0  0
    3.2390    6.5563   18.7283 C   0  0  0  0  0  0  0  0  0  0  0  0
    4.5624    6.9913   19.2856 C   0  0  0  0  0  0  0  0  0  0  0  0
    1.3399    5.5570   17.6059 H   0  0  0  0  0  0  0  0  0  0  0  0
    2.0683    4.3790   16.5483 H   0  0  0  0  0  0  0  0  0  0  0  0
 20 21  1  0  0  0
 21 14  1  0  0  0
 14 15  2  0  0  0
 15 16  1  0  0  0
 16 17  2  0  0  0
 17  5  1  0  0  0
  5  6  2  0  0  0
  6  7  1  0  0  0
  7  8  2  0  0  0
  8  9  1  0  0  0
  8 10  1  0  0  0
 10  1  1  0  0  0
  1  2  2  0  0  0
  1  3  1  0  0  0
  3 22  1  0  0  0
 22 23  2  0  0  0
 23 24  1  0  0  0
 24 25  2  0  0  0
 25 26  1  0  0  0
 26 27  2  0  0  0
 27 28  1  0  0  0
 28 29  1  0  0  0
 29 30  1  0  0  0
 30 31  1  0  0  0
 31 32  1  0  0  0
 31 33  1  0  0  0
 33 34  1  0  0  0
 10 11  2  0  0  0
 17 18  1  0  0  0
 18 19  2  0  0  0
 19 14  1  0  0  0
 11  5  1  0  0  0
 27 22  1  0  0  0
 34 28  1  0  0  0
  9 12  1  0  0  0
  9 13  1  0  0  0
  3  4  1  0  0  0
 32 35  1  0  0  0
 32 36  1  0  0  0
M  END
> <minimizedAffinity>
-8.65722

> <CNNscore>
0.8213865161

> <CNNaffinity>
7.4417371750

> <CNN_VS>
6.1125426292

> <CNNaffinity_variance>
0.1271990091

$$$$
[H]c1nc(N([H])[H])c(C(=O)N([H])c2c([H])nc([H])c([H])c2N2C([H])([H])C([H])([H])C([H])(N([H])[H])C([H])([H])C2([H])[H])nc1-c1c([H])c([H])c(OC([H])([H])[H])c([H])c1[H]


 36 39  0  0  0  0  0  0  0  0999 V2000
    3.5491    2.8004   16.6616 C   0  0  0  0  0  0  0  0  0  0  0  0
    4.4904    2.5626   15.8799 O   0  0  0  0  0  0  0  0  0  0  0  0
    2.7051    3.9196   16.6712 N   0  0  0  0  0  0  0  0  0  0  0  0
    1.9489    3.9023   17.4256 H   0  0  0  0  0  0  0  0  0  0  0  0
    3.6491    1.0275   19.9264 C   0  0  0  0  0  0  0  0  0  0  0  0
    2.9800   -0.1243   19.6124 C   0  0  0  0  0  0  0  0  0  0  0  0
    2.4902   -0.3452   18.3541 N   0  0  0  0  0  0  0  0  0  0  0  0
    2.6686    0.5945   17.3937 C   0  0  0  0  0  0  0  0  0  0  0  0
    2.1690    0.3971   16.0676 N   0  0  0  0  0  0  0  0  0  0  0  0
    3.3317    1.7461   17.6883 C   0  0  0  0  0  0  0  0  0  0  0  0
    3.8071    1.9353   18.9506 N   0  0  0  0  0  0  0  0  0  0  0  0
    2.7917    0.0856   15.2953 H   0  0  0  0  0  0  0  0  0  0  0  0
    1.1775    0.5677   15.8803 H   0  0  0  0  0  0  0  0  0  0  0  0
    5.3176    1.8305   23.7731 C   0  0  0  0  0  0  0  0  0  0  0  0
    3.9672    1.6183   23.6463 C   0  0  0  0  0  0  0  0  0  0  0  0
    3.4493    1.3619   22.4006 C   0  0  0  0  0  0  0  0  0  0  0  0
    4.1843    1.2984   21.2449 C   0  0  0  0  0  0  0  0  0  0  0  0
    5.5597    1.5193   21.4075 C   0  0  0  0  0  0  0  0  0  0  0  0
    6.1182    1.7800   22.6429 C   0  0  0  0  0  0  0  0  0  0  0  0
    6.5058    1.0712   25.7293 C   0  0  0  0  0  0  0  0  0  0  0  0
    5.8414    2.0880   25.0227 O   0  0  0  0  0  0  0  0  0  0  0  0
    2.7110    5.0370   15.8112 C   0  0  0  0  0  0  0  0  0  0  0  0
    1.9613    5.1026   14.6757 C   0  0  0  0  0  0  0  0  0  0  0  0
    1.9487    6.1973   13.8948 N   0  0  0  0  0  0  0  0  0  0  0  0
    2.6729    7.2822   14.1923 C   0  0  0  0  0  0  0  0  0  0  0  0
    3.4488    7.2758   15.3234 C   0  0  0  0  0  0  0  0  0  0  0  0
    3.4754    6.1494   16.1447 C   0  0  0  0  0  0  0  0  0  0  0  0
    4.3102    6.1422   17.2858 N   0  0  0  0  0  0  0  0  0  0  0  0
    5.6980    5.7765   17.2842 C   0  0  0  0  0  0  0  0  0  0  0  0
    6.5057    6.8289   18.0080 C   0  0  0  0  0  0  0  0  0  0  0  0
    5.6826    8.0547   18.2455 C   0  0  0  0  0  0  0  0  0  0  0  0
    6.4367    9.0156   19.0623 N   0  0  0  0  0  0  0  0  0  0  0  0
    4.3987    7.8120   18.9915 C   0  0  0  0  0  0  0  0  0  0  0  0
    3.7327    6.5376   18.5632 C   0  0  0  0  0  0  0  0  0  0  0  0
    5.8042    9.7364   19.4231 H   0  0  0  0  0  0  0  0  0  0  0  0
    7.2682    9.3727   18.5507 H   0  0  0  0  0  0  0  0  0  0  0  0
 20 21  1  0  0  0
 21 14  1  0  0  0
 14 15  2  0  0  0
 15 16  1  0  0  0
 16 17  2  0  0  0
 17  5  1  0  0  0
  5  6  2  0  0  0
  6  7  1  0  0  0
  7  8  2  0  0  0
  8  9  1  0  0  0
  8 10  1  0  0  0
 10  1  1  0  0  0
  1  2  2  0  0  0
  1  3  1  0  0  0
  3 22  1  0  0  0
 22 23  2  0  0  0
 23 24  1  0  0  0
 24 25  2  0  0  0
 25 26  1  0  0  0
 26 27  2  0  0  0
 27 28  1  0  0  0
 28 29  1  0  0  0
 29 30  1  0  0  0
 30 31  1  0  0  0
 31 32  1  0  0  0
 31 33  1  0  0  0
 33 34  1  0  0  0
 10 11  2  0  0  0
 17 18  1  0  0  0
 18 19  2  0  0  0
 19 14  1  0  0  0
 11  5  1  0  0  0
 27 22  1  0  0  0
 34 28  1  0  0  0
  9 12  1  0  0  0
  9 13  1  0  0  0
  3  4  1  0  0  0
 32 35  1  0  0  0
 32 36  1  0  0  0
M  END
> <minimizedAffinity>
-8.07041

> <CNNscore>
0.6876600981

> <CNNaffinity>
7.1953010559

> <CNN_VS>
4.9479212761

> <CNNaffinity_variance>
0.1110493094

$$$$
[H]c1nc(N([H])[H])c(C(=O)N([H])c2c([H])nc([H])c([H])c2N2C([H])([H])C([H])([H])C([H])(N([H])[H])C([H])([H])C2([H])[H])nc1-c1c([H])c([H])c(OC([H])([H])[H])c([H])c1[H]


 36 39  0  0  0  0  0  0  0  0999 V2000
    4.7742    2.1318   19.6127 C   0  0  0  0  0  0  0  0  0  0  0  0
    5.4650    1.3173   20.2553 O   0  0  0  0  0  0  0  0  0  0  0  0
    4.7556    3.5276   19.7396 N   0  0  0  0  0  0  0  0  0  0  0  0
    4.0946    4.0286   19.0663 H   0  0  0  0  0  0  0  0  0  0  0  0
    3.0230    1.5245   16.3913 C   0  0  0  0  0  0  0  0  0  0  0  0
    2.2734    0.4251   16.7112 C   0  0  0  0  0  0  0  0  0  0  0  0
    2.3207   -0.1328   17.9596 N   0  0  0  0  0  0  0  0  0  0  0  0
    3.1264    0.4113   18.9039 C   0  0  0  0  0  0  0  0  0  0  0  0
    3.2014   -0.1467   20.2193 N   0  0  0  0  0  0  0  0  0  0  0  0
    3.8790    1.5048   18.6033 C   0  0  0  0  0  0  0  0  0  0  0  0
    3.8090    2.0364   17.3512 N   0  0  0  0  0  0  0  0  0  0  0  0
    2.6802    0.2724   21.0156 H   0  0  0  0  0  0  0  0  0  0  0  0
    3.7816   -0.9753   20.3746 H   0  0  0  0  0  0  0  0  0  0  0  0
    2.8873    3.2888   12.5061 C   0  0  0  0  0  0  0  0  0  0  0  0
    3.7406    3.7945   13.4554 C   0  0  0  0  0  0  0  0  0  0  0  0
    3.7694    3.2137   14.6993 C   0  0  0  0  0  0  0  0  0  0  0  0
    2.9998    2.1459   15.0830 C   0  0  0  0  0  0  0  0  0  0  0  0
    2.1391    1.6524   14.0916 C   0  0  0  0  0  0  0  0  0  0  0  0
    2.0811    2.2089   12.8295 C   0  0  0  0  0  0  0  0  0  0  0  0
    3.3759    5.1613   11.0673 C   0  0  0  0  0  0  0  0  0  0  0  0
    2.8556    3.8695   11.2556 O   0  0  0  0  0  0  0  0  0  0  0  0
    5.5035    4.3446   20.6122 C   0  0  0  0  0  0  0  0  0  0  0  0
    6.0630    3.8812   21.7646 C   0  0  0  0  0  0  0  0  0  0  0  0
    6.8104    4.6684   22.5582 N   0  0  0  0  0  0  0  0  0  0  0  0
    7.0448    5.9509   22.2576 C   0  0  0  0  0  0  0  0  0  0  0  0
    6.5073    6.4752   21.1097 C   0  0  0  0  0  0  0  0  0  0  0  0
    5.7289    5.6745   20.2750 C   0  0  0  0  0  0  0  0  0  0  0  0
    5.1484    6.2389   19.1158 N   0  0  0  0  0  0  0  0  0  0  0  0
    3.8621    6.8735   19.0688 C   0  0  0  0  0  0  0  0  0  0  0  0
    3.9762    8.2115   18.3754 C   0  0  0  0  0  0  0  0  0  0  0  0
    5.4110    8.6007   18.2130 C   0  0  0  0  0  0  0  0  0  0  0  0
    5.5101    9.8362   17.4238 N   0  0  0  0  0  0  0  0  0  0  0  0
    6.2557    7.5896   17.4865 C   0  0  0  0  0  0  0  0  0  0  0  0
    5.9033    6.1829   17.8715 C   0  0  0  0  0  0  0  0  0  0  0  0
    6.4763    9.9719   17.1109 H   0  0  0  0  0  0  0  0  0  0  0  0
    5.0926   10.6412   17.9319 H   0  0  0  0  0  0  0  0  0  0  0  0
 20 21  1  0  0  0
 21 14  1  0  0  0
 14 15  2  0  0  0
 15 16  1  0  0  0
 16 17  2  0  0  0
 17  5  1  0  0  0
  5  6  2  0  0  0
  6  7  1  0  0  0
  7  8  2  0  0  0
  8  9  1  0  0  0
  8 10  1  0  0  0
 10  1  1  0  0  0
  1  2  2  0  0  0
  1  3  1  0  0  0
  3 22  1  0  0  0
 22 23  2  0  0  0
 23 24  1  0  0  0
 24 25  2  0  0  0
 25 26  1  0  0  0
 26 27  2  0  0  0
 27 28  1  0  0  0
 28 29  1  0  0  0
 29 30  1  0  0  0
 30 31  1  0  0  0
 31 32  1  0  0  0
 31 33  1  0  0  0
 33 34  1  0  0  0
 10 11  2  0  0  0
 17 18  1  0  0  0
 18 19  2  0  0  0
 19 14  1  0  0  0
 11  5  1  0  0  0
 27 22  1  0  0  0
 34 28  1  0  0  0
  9 12  1  0  0  0
  9 13  1  0  0  0
  3  4  1  0  0  0
 32 35  1  0  0  0
 32 36  1  0  0  0
M  END
> <minimizedAffinity>
-8.50759

> <CNNscore>
0.6701011062

> <CNNaffinity>
7.2531585693

> <CNN_VS>
4.8603496552

> <CNNaffinity_variance>
0.2799185514

$$$$
[H]c1nc(N([H])[H])c(C(=O)N([H])c2c([H])nc([H])c([H])c2N2C([H])([H])C([H])([H])C([H])(N([H])[H])C([H])([H])C2([H])[H])nc1-c1c([H])c([H])c(OC([H])([H])[H])c([H])c1[H]


 36 39  0  0  0  0  0  0  0  0999 V2000
    3.8866    3.4055   16.2607 C   0  0  0  0  0  0  0  0  0  0  0  0
    5.0344    3.3348   15.7799 O   0  0  0  0  0  0  0  0  0  0  0  0
    2.9200    4.3941   16.0296 N   0  0  0  0  0  0  0  0  0  0  0  0
    1.9928    4.2393   16.5370 H   0  0  0  0  0  0  0  0  0  0  0  0
    3.6199    1.4086   19.3837 C   0  0  0  0  0  0  0  0  0  0  0  0
    2.9624    0.3002   18.9231 C   0  0  0  0  0  0  0  0  0  0  0  0
    2.5978    0.1807   17.6098 N   0  0  0  0  0  0  0  0  0  0  0  0
    2.8916    1.1793   16.7417 C   0  0  0  0  0  0  0  0  0  0  0  0
    2.5245    1.0883   15.3618 N   0  0  0  0  0  0  0  0  0  0  0  0
    3.5450    2.2890   17.1825 C   0  0  0  0  0  0  0  0  0  0  0  0
    3.8943    2.3770   18.4961 N   0  0  0  0  0  0  0  0  0  0  0  0
    3.2155    0.8139   14.6349 H   0  0  0  0  0  0  0  0  0  0  0  0
    1.5607    1.2987   15.0897 H   0  0  0  0  0  0  0  0  0  0  0  0
    4.8936    1.9410   23.4236 C   0  0  0  0  0  0  0  0  0  0  0  0
    3.7435    1.2399   23.1578 C   0  0  0  0  0  0  0  0  0  0  0  0
    3.3500    1.0798   21.8520 C   0  0  0  0  0  0  0  0  0  0  0  0
    4.0247    1.5726   20.7649 C   0  0  0  0  0  0  0  0  0  0  0  0
    5.1948    2.2835   21.0692 C   0  0  0  0  0  0  0  0  0  0  0  0
    5.6233    2.4660   22.3688 C   0  0  0  0  0  0  0  0  0  0  0  0
    6.2986    1.2824   25.2694 C   0  0  0  0  0  0  0  0  0  0  0  0
    5.2919    2.1038   24.7339 O   0  0  0  0  0  0  0  0  0  0  0  0
    3.0049    5.5364   15.2073 C   0  0  0  0  0  0  0  0  0  0  0  0
    3.3792    6.7601   15.6744 C   0  0  0  0  0  0  0  0  0  0  0  0
    3.4968    7.8252   14.8621 N   0  0  0  0  0  0  0  0  0  0  0  0
    3.2521    7.7395   13.5496 C   0  0  0  0  0  0  0  0  0  0  0  0
    2.8705    6.5330   13.0202 C   0  0  0  0  0  0  0  0  0  0  0  0
    2.7424    5.4177   13.8471 C   0  0  0  0  0  0  0  0  0  0  0  0
    2.3099    4.1903   13.2946 N   0  0  0  0  0  0  0  0  0  0  0  0
    0.9640    3.6951   13.3498 C   0  0  0  0  0  0  0  0  0  0  0  0
    0.5238    3.2539   11.9730 C   0  0  0  0  0  0  0  0  0  0  0  0
    1.4888    3.7280   10.9336 C   0  0  0  0  0  0  0  0  0  0  0  0
    1.1200    3.1828    9.6198 N   0  0  0  0  0  0  0  0  0  0  0  0
    2.9137    3.3018   11.1612 C   0  0  0  0  0  0  0  0  0  0  0  0
    3.2921    3.3592   12.6119 C   0  0  0  0  0  0  0  0  0  0  0  0
    1.8971    3.3037    8.9631 H   0  0  0  0  0  0  0  0  0  0  0  0
    0.2067    3.5613    9.2988 H   0  0  0  0  0  0  0  0  0  0  0  0
 20 21  1  0  0  0
 21 14  1  0  0  0
 14 15  2  0  0  0
 15 16  1  0  0  0
 16 17  2  0  0  0
 17  5  1  0  0  0
  5  6  2  0  0  0
  6  7  1  0  0  0
  7  8  2  0  0  0
  8  9  1  0  0  0
  8 10  1  0  0  0
 10  1  1  0  0  0
  1  2  2  0  0  0
  1  3  1  0  0  0
  3 22  1  0  0  0
 22 23  2  0  0  0
 23 24  1  0  0  0
 24 25  2  0  0  0
 25 26  1  0  0  0
 26 27  2  0  0  0
 27 28  1  0  0  0
 28 29  1  0  0  0
 29 30  1  0  0  0
 30 31  1  0  0  0
 31 32  1  0  0  0
 31 33  1  0  0  0
 33 34  1  0  0  0
 10 11  2  0  0  0
 17 18  1  0  0  0
 18 19  2  0  0  0
 19 14  1  0  0  0
 11  5  1  0  0  0
 27 22  1  0  0  0
 34 28  1  0  0  0
  9 12  1  0  0  0
  9 13  1  0  0  0
  3  4  1  0  0  0
 32 35  1  0  0  0
 32 36  1  0  0  0
M  END
> <minimizedAffinity>
-6.80980

> <CNNscore>
0.5811440945

> <CNNaffinity>
6.9630622864

> <CNN_VS>
4.0465426445

> <CNNaffinity_variance>
0.3637655377

$$$$
[H]c1nc(N([H])[H])c(C(=O)N([H])c2c([H])nc([H])c([H])c2N2C([H])([H])C([H])([H])C([H])(N([H])[H])C([H])([H])C2([H])[H])nc1-c1c([H])c([H])c(OC([H])([H])[H])c([H])c1[H]


 36 39  0  0  0  0  0  0  0  0999 V2000
    3.4277    1.2840   17.4199 C   0  0  0  0  0  0  0  0  0  0  0  0
    3.6176    0.1612   16.9132 O   0  0  0  0  0  0  0  0  0  0  0  0
    3.1154    2.4805   16.7596 N   0  0  0  0  0  0  0  0  0  0  0  0
    2.9765    3.3223   17.4025 H   0  0  0  0  0  0  0  0  0  0  0  0
    4.3079    2.4702   20.8303 C   0  0  0  0  0  0  0  0  0  0  0  0
    3.8353    1.4352   21.5908 C   0  0  0  0  0  0  0  0  0  0  0  0
    3.2305    0.3483   21.0208 N   0  0  0  0  0  0  0  0  0  0  0  0
    3.0936    0.2906   19.6736 C   0  0  0  0  0  0  0  0  0  0  0  0
    2.4654   -0.8302   19.0439 N   0  0  0  0  0  0  0  0  0  0  0  0
    3.5577    1.3110   18.9016 C   0  0  0  0  0  0  0  0  0  0  0  0
    4.1551    2.3788   19.5001 N   0  0  0  0  0  0  0  0  0  0  0  0
    3.0255   -1.5878   18.6037 H   0  0  0  0  0  0  0  0  0  0  0  0
    1.4435   -0.8827   19.0288 H   0  0  0  0  0  0  0  0  0  0  0  0
    6.1311    5.9579   22.4849 C   0  0  0  0  0  0  0  0  0  0  0  0
    6.8784    4.8216   22.2968 C   0  0  0  0  0  0  0  0  0  0  0  0
    6.2739    3.7099   21.7638 C   0  0  0  0  0  0  0  0  0  0  0  0
    4.9555    3.6366   21.3946 C   0  0  0  0  0  0  0  0  0  0  0  0
    4.2193    4.8128   21.5989 C   0  0  0  0  0  0  0  0  0  0  0  0
    4.7909    5.9507   22.1322 C   0  0  0  0  0  0  0  0  0  0  0  0
    8.1367    7.1677   23.0585 C   0  0  0  0  0  0  0  0  0  0  0  0
    6.7349    7.0765   23.0198 O   0  0  0  0  0  0  0  0  0  0  0  0
    2.9403    2.7069   15.3790 C   0  0  0  0  0  0  0  0  0  0  0  0
    2.8776    1.6992   14.4644 C   0  0  0  0  0  0  0  0  0  0  0  0
    2.6646    1.9374   13.1582 N   0  0  0  0  0  0  0  0  0  0  0  0
    2.5024    3.1789   12.6866 C   0  0  0  0  0  0  0  0  0  0  0  0
    2.5559    4.2355   13.5596 C   0  0  0  0  0  0  0  0  0  0  0  0
    2.7768    4.0082   14.9173 C   0  0  0  0  0  0  0  0  0  0  0  0
    2.8691    5.1094   15.7993 N   0  0  0  0  0  0  0  0  0  0  0  0
    2.2417    5.1826   17.0880 C   0  0  0  0  0  0  0  0  0  0  0  0
    3.2497    5.6239   18.1239 C   0  0  0  0  0  0  0  0  0  0  0  0
    4.6368    5.5672   17.5678 C   0  0  0  0  0  0  0  0  0  0  0  0
    5.5903    6.1213   18.5389 N   0  0  0  0  0  0  0  0  0  0  0  0
    4.8387    6.3619   16.3063 C   0  0  0  0  0  0  0  0  0  0  0  0
    3.6602    6.2594   15.3834 C   0  0  0  0  0  0  0  0  0  0  0  0
    6.4876    6.3040   18.0791 H   0  0  0  0  0  0  0  0  0  0  0  0
    5.6430    5.5308   19.3928 H   0  0  0  0  0  0  0  0  0  0  0  0
 20 21  1  0  0  0
 21 14  1  0  0  0
 14 15  2  0  0  0
 15 16  1  0  0  0
 16 17  2  0  0  0
 17  5  1  0  0  0
  5  6  2  0  0  0
  6  7  1  0  0  0
  7  8  2  0  0  0
  8  9  1  0  0  0
  8 10  1  0  0  0
 10  1  1  0  0  0
  1  2  2  0  0  0
  1  3  1  0  0  0
  3 22  1  0  0  0
 22 23  2  0  0  0
 23 24  1  0  0  0
 24 25  2  0  0  0
 25 26  1  0  0  0
 26 27  2  0  0  0
 27 28  1  0  0  0
 28 29  1  0  0  0
 29 30  1  0  0  0
 30 31  1  0  0  0
 31 32  1  0  0  0
 31 33  1  0  0  0
 33 34  1  0  0  0
 10 11  2  0  0  0
 17 18  1  0  0  0
 18 19  2  0  0  0
 19 14  1  0  0  0
 11  5  1  0  0  0
 27 22  1  0  0  0
 34 28  1  0  0  0
  9 12  1  0  0  0
  9 13  1  0  0  0
  3  4  1  0  0  0
 32 35  1  0  0  0
 32 36  1  0  0  0
M  END
> <minimizedAffinity>
-8.29924

> <CNNscore>
0.5722479224

> <CNNaffinity>
7.3001427650

> <CNN_VS>
4.1774916649

> <CNNaffinity_variance>
0.3341277242

$$$$
[H]c1nc(N([H])[H])c(C(=O)N([H])c2c([H])nc([H])c([H])c2N2C([H])([H])C([H])([H])C([H])(N([H])[H])C([H])([H])C2([H])[H])nc1-c1c([H])c([H])c(OC([H])([H])[H])c([H])c1[H]


 36 39  0  0  0  0  0  0  0  0999 V2000
    3.5367    1.4973   18.9648 C   0  0  0  0  0  0  0  0  0  0  0  0
    3.1057    0.3616   19.2440 O   0  0  0  0  0  0  0  0  0  0  0  0
    4.0947    2.4409   19.8384 N   0  0  0  0  0  0  0  0  0  0  0  0
    4.4163    3.3464   19.3716 H   0  0  0  0  0  0  0  0  0  0  0  0
    3.5448    3.5320   15.8547 C   0  0  0  0  0  0  0  0  0  0  0  0
    3.2408    2.5765   14.9233 C   0  0  0  0  0  0  0  0  0  0  0  0
    3.0305    1.2725   15.2805 N   0  0  0  0  0  0  0  0  0  0  0  0
    3.1245    0.9139   16.5842 C   0  0  0  0  0  0  0  0  0  0  0  0
    2.9118   -0.4406   16.9932 N   0  0  0  0  0  0  0  0  0  0  0  0
    3.4261    1.8511   17.5240 C   0  0  0  0  0  0  0  0  0  0  0  0
    3.6295    3.1407   17.1356 N   0  0  0  0  0  0  0  0  0  0  0  0
    2.0067   -0.7462   17.4039 H   0  0  0  0  0  0  0  0  0  0  0  0
    3.6693   -1.1188   16.8772 H   0  0  0  0  0  0  0  0  0  0  0  0
    4.2489    7.6454   14.9547 C   0  0  0  0  0  0  0  0  0  0  0  0
    3.7118    6.8202   13.9979 C   0  0  0  0  0  0  0  0  0  0  0  0
    3.4932    5.5001   14.3063 C   0  0  0  0  0  0  0  0  0  0  0  0
    3.7725    4.9224   15.5180 C   0  0  0  0  0  0  0  0  0  0  0  0
    4.3198    5.7909   16.4736 C   0  0  0  0  0  0  0  0  0  0  0  0
    4.5545    7.1240   16.2019 C   0  0  0  0  0  0  0  0  0  0  0  0
    3.3812    9.8331   14.4291 C   0  0  0  0  0  0  0  0  0  0  0  0
    4.4698    8.9719   14.6486 O   0  0  0  0  0  0  0  0  0  0  0  0
    4.3047    2.3403   21.2291 C   0  0  0  0  0  0  0  0  0  0  0  0
    3.8917    1.2715   21.9659 C   0  0  0  0  0  0  0  0  0  0  0  0
    4.1433    1.1770   23.2835 N   0  0  0  0  0  0  0  0  0  0  0  0
    4.8140    2.1292   23.9418 C   0  0  0  0  0  0  0  0  0  0  0  0
    5.2552    3.2306   23.2536 C   0  0  0  0  0  0  0  0  0  0  0  0
    5.0029    3.3465   21.8872 C   0  0  0  0  0  0  0  0  0  0  0  0
    5.4288    4.5057   21.1988 N   0  0  0  0  0  0  0  0  0  0  0  0
    4.8053    5.0345   20.0193 C   0  0  0  0  0  0  0  0  0  0  0  0
    4.5573    6.5153   20.1912 C   0  0  0  0  0  0  0  0  0  0  0  0
    4.7574    6.9217   21.6165 C   0  0  0  0  0  0  0  0  0  0  0  0
    4.6416    8.3810   21.7438 N   0  0  0  0  0  0  0  0  0  0  0  0
    6.1070    6.5736   22.1833 C   0  0  0  0  0  0  0  0  0  0  0  0
    6.5820    5.2289   21.7172 C   0  0  0  0  0  0  0  0  0  0  0  0
    5.0088    8.6806   22.6522 H   0  0  0  0  0  0  0  0  0  0  0  0
    3.6762    8.7015   21.5296 H   0  0  0  0  0  0  0  0  0  0  0  0
 20 21  1  0  0  0
 21 14  1  0  0  0
 14 15  2  0  0  0
 15 16  1  0  0  0
 16 17  2  0  0  0
 17  5  1  0  0  0
  5  6  2  0  0  0
  6  7  1  0  0  0
  7  8  2  0  0  0
  8  9  1  0  0  0
  8 10  1  0  0  0
 10  1  1  0  0  0
  1  2  2  0  0  0
  1  3  1  0  0  0
  3 22  1  0  0  0
 22 23  2  0  0  0
 23 24  1  0  0  0
 24 25  2  0  0  0
 25 26  1  0  0  0
 26 27  2  0  0  0
 27 28  1  0  0  0
 28 29  1  0  0  0
 29 30  1  0  0  0
 30 31  1  0  0  0
 31 32  1  0  0  0
 31 33  1  0  0  0
 33 34  1  0  0  0
 10 11  2  0  0  0
 17 18  1  0  0  0
 18 19  2  0  0  0
 19 14  1  0  0  0
 11  5  1  0  0  0
 27 22  1  0  0  0
 34 28  1  0  0  0
  9 12  1  0  0  0
  9 13  1  0  0  0
  3  4  1  0  0  0
 32 35  1  0  0  0
 32 36  1  0  0  0
M  END
> <minimizedAffinity>
-8.58970

> <CNNscore>
0.4570646286

> <CNNaffinity>
7.2480344772

> <CNN_VS>
3.3128201962

> <CNNaffinity_variance>
0.4053317904

$$$$
[H]c1nc(N([H])[H])c(C(=O)N([H])c2c([H])nc([H])c([H])c2N2C([H])([H])C([H])([H])C([H])(N([H])[H])C([H])([H])C2([H])[H])nc1-c1c([H])c([H])c(OC([H])([H])[H])c([H])c1[H]


 36 39  0  0  0  0  0  0  0  0999 V2000
    4.6746    4.5106   18.9695 C   0  0  0  0  0  0  0  0  0  0  0  0
    3.5539    4.9567   18.6555 O   0  0  0  0  0  0  0  0  0  0  0  0
    5.0274    3.1767   19.2173 N   0  0  0  0  0  0  0  0  0  0  0  0
    6.0580    3.0238   19.4533 H   0  0  0  0  0  0  0  0  0  0  0  0
    7.2842    6.6929   20.4662 C   0  0  0  0  0  0  0  0  0  0  0  0
    7.6608    7.4268   19.3742 C   0  0  0  0  0  0  0  0  0  0  0  0
    7.0844    7.2309   18.1488 N   0  0  0  0  0  0  0  0  0  0  0  0
    6.1188    6.2902   18.0079 C   0  0  0  0  0  0  0  0  0  0  0  0
    5.4953    6.0580   16.7413 N   0  0  0  0  0  0  0  0  0  0  0  0
    5.7318    5.5510   19.0833 C   0  0  0  0  0  0  0  0  0  0  0  0
    6.3253    5.7707   20.2895 N   0  0  0  0  0  0  0  0  0  0  0  0
    4.5609    6.4555   16.5170 H   0  0  0  0  0  0  0  0  0  0  0  0
    5.9829    5.4882   16.0450 H   0  0  0  0  0  0  0  0  0  0  0  0
    9.0560    7.1336   24.3253 C   0  0  0  0  0  0  0  0  0  0  0  0
    8.1362    8.0542   23.8880 C   0  0  0  0  0  0  0  0  0  0  0  0
    7.5777    7.8955   22.6435 C   0  0  0  0  0  0  0  0  0  0  0  0
    7.8679    6.8709   21.7800 C   0  0  0  0  0  0  0  0  0  0  0  0
    8.8103    5.9475   22.2555 C   0  0  0  0  0  0  0  0  0  0  0  0
    9.3940    6.0725   23.5003 C   0  0  0  0  0  0  0  0  0  0  0  0
    9.4020    8.4733   26.3002 C   0  0  0  0  0  0  0  0  0  0  0  0
    9.6188    7.2896   25.5746 O   0  0  0  0  0  0  0  0  0  0  0  0
    4.2142    2.0257   19.1726 C   0  0  0  0  0  0  0  0  0  0  0  0
    3.6213    1.5807   18.0296 C   0  0  0  0  0  0  0  0  0  0  0  0
    2.8869    0.4547   18.0021 N   0  0  0  0  0  0  0  0  0  0  0  0
    2.6991   -0.2899   19.0977 C   0  0  0  0  0  0  0  0  0  0  0  0
    3.2709    0.1075   20.2795 C   0  0  0  0  0  0  0  0  0  0  0  0
    4.0350    1.2728   20.3276 C   0  0  0  0  0  0  0  0  0  0  0  0
    4.5852    1.6914   21.5609 N   0  0  0  0  0  0  0  0  0  0  0  0
    5.9766    1.9587   21.7895 C   0  0  0  0  0  0  0  0  0  0  0  0
    6.1352    3.2961   22.4750 C   0  0  0  0  0  0  0  0  0  0  0  0
    4.8500    4.0602   22.4444 C   0  0  0  0  0  0  0  0  0  0  0  0
    4.9826    5.2976   23.2258 N   0  0  0  0  0  0  0  0  0  0  0  0
    3.6746    3.3326   23.0383 C   0  0  0  0  0  0  0  0  0  0  0  0
    3.6833    1.8732   22.6901 C   0  0  0  0  0  0  0  0  0  0  0  0
    4.0558    5.6958   23.4055 H   0  0  0  0  0  0  0  0  0  0  0  0
    5.6657    5.9472   22.7879 H   0  0  0  0  0  0  0  0  0  0  0  0
 20 21  1  0  0  0
 21 14  1  0  0  0
 14 15  2  0  0  0
 15 16  1  0  0  0
 16 17  2  0  0  0
 17  5  1  0  0  0
  5  6  2  0  0  0
  6  7  1  0  0  0
  7  8  2  0  0  0
  8  9  1  0  0  0
  8 10  1  0  0  0
 10  1  1  0  0  0
  1  2  2  0  0  0
  1  3  1  0  0  0
  3 22  1  0  0  0
 22 23  2  0  0  0
 23 24  1  0  0  0
 24 25  2  0  0  0
 25 26  1  0  0  0
 26 27  2  0  0  0
 27 28  1  0  0  0
 28 29  1  0  0  0
 29 30  1  0  0  0
 30 31  1  0  0  0
 31 32  1  0  0  0
 31 33  1  0  0  0
 33 34  1  0  0  0
 10 11  2  0  0  0
 17 18  1  0  0  0
 18 19  2  0  0  0
 19 14  1  0  0  0
 11  5  1  0  0  0
 27 22  1  0  0  0
 34 28  1  0  0  0
  9 12  1  0  0  0
  9 13  1  0  0  0
  3  4  1  0  0  0
 32 35  1  0  0  0
 32 36  1  0  0  0
M  END
> <minimizedAffinity>
-9.10045

> <CNNscore>
0.3596683741

> <CNNaffinity>
6.6616730690

> <CNN_VS>
2.3959932327

> <CNNaffinity_variance>
0.2290966064

$$$$
[H]c1nc(N([H])[H])c(C(=O)N([H])c2c([H])nc([H])c([H])c2N2C([H])([H])C([H])([H])C([H])(N([H])[H])C([H])([H])C2([H])[H])nc1-c1c([H])c([H])c(OC([H])([H])[H])c([H])c1[H]


 36 39  0  0  0  0  0  0  0  0999 V2000
    4.6046    3.6597   17.9388 C   0  0  0  0  0  0  0  0  0  0  0  0
    5.8197    3.7526   17.6770 O   0  0  0  0  0  0  0  0  0  0  0  0
    3.8731    4.3925   18.8837 N   0  0  0  0  0  0  0  0  0  0  0  0
    2.8319    4.1566   18.9232 H   0  0  0  0  0  0  0  0  0  0  0  0
    2.8815    2.0607   15.0602 C   0  0  0  0  0  0  0  0  0  0  0  0
    2.5743    0.8382   15.5932 C   0  0  0  0  0  0  0  0  0  0  0  0
    2.9153    0.5131   16.8777 N   0  0  0  0  0  0  0  0  0  0  0  0
    3.5722    1.4182   17.6435 C   0  0  0  0  0  0  0  0  0  0  0  0
    3.9451    1.1117   18.9904 N   0  0  0  0  0  0  0  0  0  0  0  0
    3.8858    2.6390   17.1298 C   0  0  0  0  0  0  0  0  0  0  0  0
    3.5320    2.9315   15.8474 N   0  0  0  0  0  0  0  0  0  0  0  0
    3.3858    1.4532   19.7979 H   0  0  0  0  0  0  0  0  0  0  0  0
    4.7804    0.5446   19.1574 H   0  0  0  0  0  0  0  0  0  0  0  0
    1.9400    3.2558   11.0713 C   0  0  0  0  0  0  0  0  0  0  0  0
    1.1702    2.3080   11.6990 C   0  0  0  0  0  0  0  0  0  0  0  0
    1.4892    1.9364   12.9819 C   0  0  0  0  0  0  0  0  0  0  0  0
    2.5367    2.4441   13.7065 C   0  0  0  0  0  0  0  0  0  0  0  0
    3.3035    3.4096   13.0382 C   0  0  0  0  0  0  0  0  0  0  0  0
    3.0148    3.8096   11.7488 C   0  0  0  0  0  0  0  0  0  0  0  0
    0.6037    2.9600    9.0859 C   0  0  0  0  0  0  0  0  0  0  0  0
    1.6225    3.6316    9.7829 O   0  0  0  0  0  0  0  0  0  0  0  0
    4.3235    5.4023   19.7588 C   0  0  0  0  0  0  0  0  0  0  0  0
    4.3374    6.7224   19.4230 C   0  0  0  0  0  0  0  0  0  0  0  0
    4.7289    7.6722   20.2907 N   0  0  0  0  0  0  0  0  0  0  0  0
    5.1262    7.3705   21.5321 C   0  0  0  0  0  0  0  0  0  0  0  0
    5.1345    6.0574   21.9285 C   0  0  0  0  0  0  0  0  0  0  0  0
    4.7329    5.0587   21.0423 C   0  0  0  0  0  0  0  0  0  0  0  0
    4.7845    3.7063   21.4514 N   0  0  0  0  0  0  0  0  0  0  0  0
    5.8843    2.8172   21.2073 C   0  0  0  0  0  0  0  0  0  0  0  0
    6.2700    2.1159   22.4892 C   0  0  0  0  0  0  0  0  0  0  0  0
    5.6046    2.7599   23.6635 C   0  0  0  0  0  0  0  0  0  0  0  0
    5.8838    1.9900   24.8836 N   0  0  0  0  0  0  0  0  0  0  0  0
    4.1050    2.8361   23.5694 C   0  0  0  0  0  0  0  0  0  0  0  0
    3.6454    3.1639   22.1793 C   0  0  0  0  0  0  0  0  0  0  0  0
    5.2474    2.2819   25.6317 H   0  0  0  0  0  0  0  0  0  0  0  0
    6.8944    2.0220   25.1251 H   0  0  0  0  0  0  0  0  0  0  0  0
 20 21  1  0  0  0
 21 14  1  0  0  0
 14 15  2  0  0  0
 15 16  1  0  0  0
 16 17  2  0  0  0
 17  5  1  0  0  0
  5  6  2  0  0  0
  6  7  1  0  0  0
  7  8  2  0  0  0
  8  9  1  0  0  0
  8 10  1  0  0  0
 10  1  1  0  0  0
  1  2  2  0  0  0
  1  3  1  0  0  0
  3 22  1  0  0  0
 22 23  2  0  0  0
 23 24  1  0  0  0
 24 25  2  0  0  0
 25 26  1  0  0  0
 26 27  2  0  0  0
 27 28  1  0  0  0
 28 29  1  0  0  0
 29 30  1  0  0  0
 30 31  1  0  0  0
 31 32  1  0  0  0
 31 33  1  0  0  0
 33 34  1  0  0  0
 10 11  2  0  0  0
 17 18  1  0  0  0
 18 19  2  0  0  0
 19 14  1  0  0  0
 11  5  1  0  0  0
 27 22  1  0  0  0
 34 28  1  0  0  0
  9 12  1  0  0  0
  9 13  1  0  0  0
  3  4  1  0  0  0
 32 35  1  0  0  0
 32 36  1  0  0  0
M  END
> <minimizedAffinity>
-8.12600

> <CNNscore>
0.3345092237

> <CNNaffinity>
6.8515968323

> <CNN_VS>
2.2919223309

> <CNNaffinity_variance>
0.4041297436

$$$$
[H]c1nc(N([H])[H])c(C(=O)N([H])c2c([H])nc([H])c([H])c2N2C([H])([H])C([H])([H])C([H])(N([H])[H])C([H])([H])C2([H])[H])nc1-c1c([H])c([H])c(OC([H])([H])[H])c([H])c1[H]


 36 39  0  0  0  0  0  0  0  0999 V2000
    3.5148    4.1652   14.9077 C   0  0  0  0  0  0  0  0  0  0  0  0
    4.2632    4.0326   13.9198 O   0  0  0  0  0  0  0  0  0  0  0  0
    2.8548    5.3263   15.3332 N   0  0  0  0  0  0  0  0  0  0  0  0
    2.2455    5.2009   16.2017 H   0  0  0  0  0  0  0  0  0  0  0  0
    3.6681    1.7730   17.7478 C   0  0  0  0  0  0  0  0  0  0  0  0
    3.0321    0.6899   17.2044 C   0  0  0  0  0  0  0  0  0  0  0  0
    2.5478    0.7140   15.9249 N   0  0  0  0  0  0  0  0  0  0  0  0
    2.6985    1.8328   15.1750 C   0  0  0  0  0  0  0  0  0  0  0  0
    2.2037    1.8934   13.8338 N   0  0  0  0  0  0  0  0  0  0  0  0
    3.3285    2.9195   15.6993 C   0  0  0  0  0  0  0  0  0  0  0  0
    3.7993    2.8632   16.9762 N   0  0  0  0  0  0  0  0  0  0  0  0
    2.8345    1.7619   13.0177 H   0  0  0  0  0  0  0  0  0  0  0  0
    1.2076    2.0702   13.6798 H   0  0  0  0  0  0  0  0  0  0  0  0
    5.2697    1.9009   21.7031 C   0  0  0  0  0  0  0  0  0  0  0  0
    4.5103    0.8271   21.3092 C   0  0  0  0  0  0  0  0  0  0  0  0
    4.0036    0.8045   20.0332 C   0  0  0  0  0  0  0  0  0  0  0  0
    4.1964    1.7870   19.0966 C   0  0  0  0  0  0  0  0  0  0  0  0
    4.9759    2.8697   19.5291 C   0  0  0  0  0  0  0  0  0  0  0  0
    5.5029    2.9292   20.8037 C   0  0  0  0  0  0  0  0  0  0  0  0
    4.9650    2.3232   24.0577 C   0  0  0  0  0  0  0  0  0  0  0  0
    5.7805    1.9270   22.9840 O   0  0  0  0  0  0  0  0  0  0  0  0
    2.8729    6.6132   14.7572 C   0  0  0  0  0  0  0  0  0  0  0  0
    3.7939    7.5608   15.0881 C   0  0  0  0  0  0  0  0  0  0  0  0
    3.8190    8.7660   14.4922 N   0  0  0  0  0  0  0  0  0  0  0  0
    2.9392    9.0989   13.5407 C   0  0  0  0  0  0  0  0  0  0  0  0
    1.9868    8.1862   13.1650 C   0  0  0  0  0  0  0  0  0  0  0  0
    1.9446    6.9319   13.7723 C   0  0  0  0  0  0  0  0  0  0  0  0
    0.9329    6.0158   13.4032 N   0  0  0  0  0  0  0  0  0  0  0  0
   -0.4019    6.0119   13.9305 C   0  0  0  0  0  0  0  0  0  0  0  0
   -1.3997    5.9411   12.7978 C   0  0  0  0  0  0  0  0  0  0  0  0
   -0.7269    6.1904   11.4857 C   0  0  0  0  0  0  0  0  0  0  0  0
   -1.6805    5.9898   10.3860 N   0  0  0  0  0  0  0  0  0  0  0  0
    0.4282    5.2728   11.1899 C   0  0  0  0  0  0  0  0  0  0  0  0
    1.2545    4.9984   12.4119 C   0  0  0  0  0  0  0  0  0  0  0  0
   -1.1761    5.9238    9.4966 H   0  0  0  0  0  0  0  0  0  0  0  0
   -2.4394    6.6997   10.4123 H   0  0  0  0  0  0  0  0  0  0  0  0
 20 21  1  0  0  0
 21 14  1  0  0  0
 14 15  2  0  0  0
 15 16  1  0  0  0
 16 17  2  0  0  0
 17  5  1  0  0  0
  5  6  2  0  0  0
  6  7  1  0  0  0
  7  8  2  0  0  0
  8  9  1  0  0  0
  8 10  1  0  0  0
 10  1  1  0  0  0
  1  2  2  0  0  0
  1  3  1  0  0  0
  3 22  1  0  0  0
 22 23  2  0  0  0
 23 24  1  0  0  0
 24 25  2  0  0  0
 25 26  1  0  0  0
 26 27  2  0  0  0
 27 28  1  0  0  0
 28 29  1  0  0  0
 29 30  1  0  0  0
 30 31  1  0  0  0
 31 32  1  0  0  0
 31 33  1  0  0  0
 33 34  1  0  0  0
 10 11  2  0  0  0
 17 18  1  0  0  0
 18 19  2  0  0  0
 19 14  1  0  0  0
 11  5  1  0  0  0
 27 22  1  0  0  0
 34 28  1  0  0  0
  9 12  1  0  0  0
  9 13  1  0  0  0
  3  4  1  0  0  0
 32 35  1  0  0  0
 32 36  1  0  0  0
M  END
> <minimizedAffinity>
-8.06483

> <CNNscore>
0.2754036188

> <CNNaffinity>
6.3718729019

> <CNN_VS>
1.7548367977

> <CNNaffinity_variance>
0.2492638826

$$$$
[H]c1c([H])c(N([H])C(=O)N([H])[C@]([H])(C(=O)N([H])[C@]([H])(C(=O)N([H])[H])C([H])([H])C([H])([H])C([H])([H])[H])C([H])([H])C([H])(C([H])([H])[H])C([H])([H])[H])c([H])c([H])c1Br


 31 31  0  0  0  0  0  0  0  0999 V2000
    3.3134    6.1882   15.5394 C   0  0  0  0  0  0  0  0  0  0  0  0
    2.1549    6.8978   15.0101 N   0  0  0  0  0  0  0  0  0  0  0  0
    1.4178    6.3301   13.9450 C   0  0  0  0  0  0  0  0  0  0  0  0
    1.7626    5.2073   13.4506 O   0  0  0  0  0  0  0  0  0  0  0  0
    0.3035    6.9899   13.4204 N   0  0  0  0  0  0  0  0  0  0  0  0
    1.8896    7.7921   15.4117 H   0  0  0  0  0  0  0  0  0  0  0  0
    0.0851    7.9309   13.8871 H   0  0  0  0  0  0  0  0  0  0  0  0
   -0.5545    6.5758   12.3774 C   0  0  0  0  0  0  0  0  0  0  0  0
   -1.8261    6.0941   12.5260 C   0  0  0  0  0  0  0  0  0  0  0  0
   -2.6037    5.6836   11.4277 C   0  0  0  0  0  0  0  0  0  0  0  0
   -2.1180    5.7491   10.1466 C   0  0  0  0  0  0  0  0  0  0  0  0
   -3.1762    5.1906    8.6550 Br  0  0  0  0  0  0  0  0  0  0  0  0
   -0.8446    6.2303    9.9820 C   0  0  0  0  0  0  0  0  0  0  0  0
   -0.0847    6.6310   11.0538 C   0  0  0  0  0  0  0  0  0  0  0  0
    3.3555    3.6900   15.7486 N   0  0  0  0  0  0  0  0  0  0  0  0
    2.8105    4.9563   16.1473 C   0  0  0  0  0  0  0  0  0  0  0  0
    1.8836    4.9965   17.0227 O   0  0  0  0  0  0  0  0  0  0  0  0
    4.1159    3.6959   15.0416 H   0  0  0  0  0  0  0  0  0  0  0  0
    2.8630    2.4523   16.3109 C   0  0  0  0  0  0  0  0  0  0  0  0
    3.8430    1.9343   17.2960 C   0  0  0  0  0  0  0  0  0  0  0  0
    3.4509    0.8641   18.1710 N   0  0  0  0  0  0  0  0  0  0  0  0
    4.9976    2.3658   17.4218 O   0  0  0  0  0  0  0  0  0  0  0  0
    2.4458    0.7774   18.3956 H   0  0  0  0  0  0  0  0  0  0  0  0
    4.1454    0.1914   18.5722 H   0  0  0  0  0  0  0  0  0  0  0  0
    2.6690    1.4259   15.2358 C   0  0  0  0  0  0  0  0  0  0  0  0
    2.5334    1.9232   12.7497 C   0  0  0  0  0  0  0  0  0  0  0  0
    1.8602    1.7794   14.0607 C   0  0  0  0  0  0  0  0  0  0  0  0
    4.1780    7.0743   16.3356 C   0  0  0  0  0  0  0  0  0  0  0  0
    4.7396    6.6395   17.6152 C   0  0  0  0  0  0  0  0  0  0  0  0
    4.9412    7.9035   18.5073 C   0  0  0  0  0  0  0  0  0  0  0  0
    6.1141    6.0326   17.5718 C   0  0  0  0  0  0  0  0  0  0  0  0
 26 27  1  0  0  0
 27 25  1  0  0  0
 25 19  1  0  0  0
 19 15  1  0  0  0
 15 16  1  0  0  0
 16 17  2  0  0  0
 16  1  1  0  0  0
  1 28  1  0  0  0
 28 29  1  0  0  0
 29 30  1  0  0  0
 29 31  1  0  0  0
  1  2  1  0  0  0
  2  3  1  0  0  0
  3  4  2  0  0  0
  3  5  1  0  0  0
  5  8  1  0  0  0
  8  9  2  0  0  0
  9 10  1  0  0  0
 10 11  2  0  0  0
 11 12  1  0  0  0
 11 13  1  0  0  0
 13 14  2  0  0  0
 19 20  1  0  0  0
 20 21  1  0  0  0
 20 22  2  0  0  0
 14  8  1  0  0  0
 15 18  1  0  0  0
  2  6  1  0  0  0
  5  7  1  0  0  0
 21 23  1  0  0  0
 21 24  1  0  0  0
M  END
> <minimizedAffinity>
-5.88087

> <CNNscore>
0.4525370002

> <CNNaffinity>
5.5522317886

> <CNN_VS>
2.5125904083

> <CNNaffinity_variance>
0.1210133284

$$$$
[H]c1c([H])c(N([H])C(=O)N([H])[C@]([H])(C(=O)N([H])[C@]([H])(C(=O)N([H])[H])C([H])([H])C([H])([H])C([H])([H])[H])C([H])([H])C([H])(C([H])([H])[H])C([H])([H])[H])c([H])c([H])c1Br


 31 31  0  0  0  0  0  0  0  0999 V2000
    0.7339    5.9490   13.9975 C   0  0  0  0  0  0  0  0  0  0  0  0
    1.7117    6.5191   14.9166 N   0  0  0  0  0  0  0  0  0  0  0  0
    2.2326    5.7210   15.9616 C   0  0  0  0  0  0  0  0  0  0  0  0
    1.8508    4.5131   16.1000 O   0  0  0  0  0  0  0  0  0  0  0  0
    3.1710    6.2436   16.8551 N   0  0  0  0  0  0  0  0  0  0  0  0
    2.0084    7.4830   14.7968 H   0  0  0  0  0  0  0  0  0  0  0  0
    3.4334    7.2679   16.6738 H   0  0  0  0  0  0  0  0  0  0  0  0
    3.8062    5.6003   17.9407 C   0  0  0  0  0  0  0  0  0  0  0  0
    4.8538    4.7250   17.8550 C   0  0  0  0  0  0  0  0  0  0  0  0
    5.4123    4.1131   18.9922 C   0  0  0  0  0  0  0  0  0  0  0  0
    4.9278    4.3693   20.2496 C   0  0  0  0  0  0  0  0  0  0  0  0
    5.6879    3.5367   21.7940 Br  0  0  0  0  0  0  0  0  0  0  0  0
    3.8778    5.2453   20.3511 C   0  0  0  0  0  0  0  0  0  0  0  0
    3.3318    5.8430   19.2414 C   0  0  0  0  0  0  0  0  0  0  0  0
    1.9017    4.0935   12.7811 N   0  0  0  0  0  0  0  0  0  0  0  0
    1.4804    5.4643   12.8366 C   0  0  0  0  0  0  0  0  0  0  0  0
    1.7695    6.2523   11.8761 O   0  0  0  0  0  0  0  0  0  0  0  0
    1.6396    3.4782   13.5754 H   0  0  0  0  0  0  0  0  0  0  0  0
    2.6631    3.5889   11.6603 C   0  0  0  0  0  0  0  0  0  0  0  0
    2.2812    2.1799   11.3996 C   0  0  0  0  0  0  0  0  0  0  0  0
    1.0076    1.7062   11.8671 N   0  0  0  0  0  0  0  0  0  0  0  0
    2.9942    1.3658   10.7964 O   0  0  0  0  0  0  0  0  0  0  0  0
    0.6007    2.1736   12.6941 H   0  0  0  0  0  0  0  0  0  0  0  0
    0.5009    0.9196   11.3978 H   0  0  0  0  0  0  0  0  0  0  0  0
    4.1321    3.6458   11.9534 C   0  0  0  0  0  0  0  0  0  0  0  0
    6.1122    4.3458   10.5266 C   0  0  0  0  0  0  0  0  0  0  0  0
    4.9325    4.7157   11.3416 C   0  0  0  0  0  0  0  0  0  0  0  0
   -0.4059    6.8556   13.7839 C   0  0  0  0  0  0  0  0  0  0  0  0
   -1.7558    6.3388   13.5543 C   0  0  0  0  0  0  0  0  0  0  0  0
   -1.8893    5.9967   12.0379 C   0  0  0  0  0  0  0  0  0  0  0  0
   -2.8890    7.2988   13.7862 C   0  0  0  0  0  0  0  0  0  0  0  0
 26 27  1  0  0  0
 27 25  1  0  0  0
 25 19  1  0  0  0
 19 15  1  0  0  0
 15 16  1  0  0  0
 16 17  2  0  0  0
 16  1  1  0  0  0
  1 28  1  0  0  0
 28 29  1  0  0  0
 29 30  1  0  0  0
 29 31  1  0  0  0
  1  2  1  0  0  0
  2  3  1  0  0  0
  3  4  2  0  0  0
  3  5  1  0  0  0
  5  8  1  0  0  0
  8  9  2  0  0  0
  9 10  1  0  0  0
 10 11  2  0  0  0
 11 12  1  0  0  0
 11 13  1  0  0  0
 13 14  2  0  0  0
 19 20  1  0  0  0
 20 21  1  0  0  0
 20 22  2  0  0  0
 14  8  1  0  0  0
 15 18  1  0  0  0
  2  6  1  0  0  0
  5  7  1  0  0  0
 21 23  1  0  0  0
 21 24  1  0  0  0
M  END
> <minimizedAffinity>
-5.77177

> <CNNscore>
0.3650564253

> <CNNaffinity>
5.0855755806

> <CNN_VS>
1.8565220833

> <CNNaffinity_variance>
0.3461016715

$$$$
[H]c1c([H])c(N([H])C(=O)N([H])[C@]([H])(C(=O)N([H])[C@]([H])(C(=O)N([H])[H])C([H])([H])C([H])([H])C([H])([H])[H])C([H])([H])C([H])(C([H])([H])[H])C([H])([H])[H])c([H])c([H])c1Br


 31 31  0  0  0  0  0  0  0  0999 V2000
    2.1096    4.7986   13.3930 C   0  0  0  0  0  0  0  0  0  0  0  0
    2.8590    3.6384   13.8601 N   0  0  0  0  0  0  0  0  0  0  0  0
    2.7723    3.2545   15.2185 C   0  0  0  0  0  0  0  0  0  0  0  0
    2.0452    3.9167   16.0290 O   0  0  0  0  0  0  0  0  0  0  0  0
    3.4802    2.1464   15.6907 N   0  0  0  0  0  0  0  0  0  0  0  0
    3.4355    3.1185   13.2052 H   0  0  0  0  0  0  0  0  0  0  0  0
    4.0727    1.6490   14.9474 H   0  0  0  0  0  0  0  0  0  0  0  0
    3.5061    1.6098   16.9973 C   0  0  0  0  0  0  0  0  0  0  0  0
    4.2809    2.0539   18.0334 C   0  0  0  0  0  0  0  0  0  0  0  0
    4.2572    1.4430   19.3005 C   0  0  0  0  0  0  0  0  0  0  0  0
    3.4485    0.3652   19.5569 C   0  0  0  0  0  0  0  0  0  0  0  0
    3.4178   -0.4640   21.2797 Br  0  0  0  0  0  0  0  0  0  0  0  0
    2.6658   -0.0910   18.5277 C   0  0  0  0  0  0  0  0  0  0  0  0
    2.6884    0.5046   17.2902 C   0  0  0  0  0  0  0  0  0  0  0  0
   -0.1885    5.1826   12.4668 N   0  0  0  0  0  0  0  0  0  0  0  0
    0.8939    4.2871   12.7601 C   0  0  0  0  0  0  0  0  0  0  0  0
    0.7828    3.0487   12.4752 O   0  0  0  0  0  0  0  0  0  0  0  0
   -0.0591    6.1855   12.7026 H   0  0  0  0  0  0  0  0  0  0  0  0
   -1.4135    4.7050   11.8654 C   0  0  0  0  0  0  0  0  0  0  0  0
   -1.1791    4.4210   10.4288 C   0  0  0  0  0  0  0  0  0  0  0  0
   -1.1649    3.0551    9.9828 N   0  0  0  0  0  0  0  0  0  0  0  0
   -0.9909    5.2927    9.5689 O   0  0  0  0  0  0  0  0  0  0  0  0
   -0.8928    2.3330   10.6702 H   0  0  0  0  0  0  0  0  0  0  0  0
   -1.4180    2.7878    9.0028 H   0  0  0  0  0  0  0  0  0  0  0  0
   -2.4954    5.7356   11.9846 C   0  0  0  0  0  0  0  0  0  0  0  0
   -4.6130    6.0332   10.6157 C   0  0  0  0  0  0  0  0  0  0  0  0
   -3.8817    5.3392   11.7002 C   0  0  0  0  0  0  0  0  0  0  0  0
    2.9642    5.7332   12.6430 C   0  0  0  0  0  0  0  0  0  0  0  0
    3.6928    6.8072   13.3195 C   0  0  0  0  0  0  0  0  0  0  0  0
    2.6557    7.6829   14.0886 C   0  0  0  0  0  0  0  0  0  0  0  0
    4.3891    7.8042   12.4358 C   0  0  0  0  0  0  0  0  0  0  0  0
 26 27  1  0  0  0
 27 25  1  0  0  0
 25 19  1  0  0  0
 19 15  1  0  0  0
 15 16  1  0  0  0
 16 17  2  0  0  0
 16  1  1  0  0  0
  1 28  1  0  0  0
 28 29  1  0  0  0
 29 30  1  0  0  0
 29 31  1  0  0  0
  1  2  1  0  0  0
  2  3  1  0  0  0
  3  4  2  0  0  0
  3  5  1  0  0  0
  5  8  1  0  0  0
  8  9  2  0  0  0
  9 10  1  0  0  0
 10 11  2  0  0  0
 11 12  1  0  0  0
 11 13  1  0  0  0
 13 14  2  0  0  0
 19 20  1  0  0  0
 20 21  1  0  0  0
 20 22  2  0  0  0
 14  8  1  0  0  0
 15 18  1  0  0  0
  2  6  1  0  0  0
  5  7  1  0  0  0
 21 23  1  0  0  0
 21 24  1  0  0  0
M  END
> <minimizedAffinity>
-5.81657

> <CNNscore>
0.3359045386

> <CNNaffinity>
5.2506108284

> <CNN_VS>
1.7637040615

> <CNNaffinity_variance>
0.2596119046

$$$$
[H]c1c([H])c(N([H])C(=O)N([H])[C@]([H])(C(=O)N([H])[C@]([H])(C(=O)N([H])[H])C([H])([H])C([H])([H])C([H])([H])[H])C([H])([H])C([H])(C([H])([H])[H])C([H])([H])[H])c([H])c([H])c1Br


 31 31  0  0  0  0  0  0  0  0999 V2000
    4.7044    4.8040   21.4091 C   0  0  0  0  0  0  0  0  0  0  0  0
    5.1397    3.9171   20.3369 N   0  0  0  0  0  0  0  0  0  0  0  0
    4.4207    3.8920   19.1193 C   0  0  0  0  0  0  0  0  0  0  0  0
    3.4000    4.6380   18.9595 O   0  0  0  0  0  0  0  0  0  0  0  0
    4.8177    3.0513   18.0763 N   0  0  0  0  0  0  0  0  0  0  0  0
    5.9544    3.3268   20.4757 H   0  0  0  0  0  0  0  0  0  0  0  0
    5.6806    2.4520   18.2939 H   0  0  0  0  0  0  0  0  0  0  0  0
    4.2377    2.9015   16.7970 C   0  0  0  0  0  0  0  0  0  0  0  0
    4.3031    3.8069   15.7737 C   0  0  0  0  0  0  0  0  0  0  0  0
    3.6749    3.5825   14.5350 C   0  0  0  0  0  0  0  0  0  0  0  0
    2.9626    2.4352   14.2948 C   0  0  0  0  0  0  0  0  0  0  0  0
    2.1092    2.1319   12.6107 Br  0  0  0  0  0  0  0  0  0  0  0  0
    2.8887    1.5180   15.3113 C   0  0  0  0  0  0  0  0  0  0  0  0
    3.5014    1.7363   16.5211 C   0  0  0  0  0  0  0  0  0  0  0  0
    5.0957    7.2342   21.8860 N   0  0  0  0  0  0  0  0  0  0  0  0
    5.5628    5.9873   21.3508 C   0  0  0  0  0  0  0  0  0  0  0  0
    6.7204    5.9232   20.8190 O   0  0  0  0  0  0  0  0  0  0  0  0
    4.1529    7.2470   22.3209 H   0  0  0  0  0  0  0  0  0  0  0  0
    5.9085    8.4283   21.8212 C   0  0  0  0  0  0  0  0  0  0  0  0
    6.3647    8.7884   23.1855 C   0  0  0  0  0  0  0  0  0  0  0  0
    6.9341    7.7673   24.0210 N   0  0  0  0  0  0  0  0  0  0  0  0
    6.2890    9.9276   23.6666 O   0  0  0  0  0  0  0  0  0  0  0  0
    6.6355    6.7926   23.8513 H   0  0  0  0  0  0  0  0  0  0  0  0
    7.6252    7.9881   24.7757 H   0  0  0  0  0  0  0  0  0  0  0  0
    5.1205    9.5718   21.2569 C   0  0  0  0  0  0  0  0  0  0  0  0
    3.6252    9.2832   19.2253 C   0  0  0  0  0  0  0  0  0  0  0  0
    4.9386    9.6525   19.8008 C   0  0  0  0  0  0  0  0  0  0  0  0
    4.5657    4.0866   22.6869 C   0  0  0  0  0  0  0  0  0  0  0  0
    4.9126    2.6697   22.8048 C   0  0  0  0  0  0  0  0  0  0  0  0
    3.6002    1.8387   22.6594 C   0  0  0  0  0  0  0  0  0  0  0  0
    5.4525    2.2207   24.1339 C   0  0  0  0  0  0  0  0  0  0  0  0
 26 27  1  0  0  0
 27 25  1  0  0  0
 25 19  1  0  0  0
 19 15  1  0  0  0
 15 16  1  0  0  0
 16 17  2  0  0  0
 16  1  1  0  0  0
  1 28  1  0  0  0
 28 29  1  0  0  0
 29 30  1  0  0  0
 29 31  1  0  0  0
  1  2  1  0  0  0
  2  3  1  0  0  0
  3  4  2  0  0  0
  3  5  1  0  0  0
  5  8  1  0  0  0
  8  9  2  0  0  0
  9 10  1  0  0  0
 10 11  2  0  0  0
 11 12  1  0  0  0
 11 13  1  0  0  0
 13 14  2  0  0  0
 19 20  1  0  0  0
 20 21  1  0  0  0
 20 22  2  0  0  0
 14  8  1  0  0  0
 15 18  1  0  0  0
  2  6  1  0  0  0
  5  7  1  0  0  0
 21 23  1  0  0  0
 21 24  1  0  0  0
M  END
> <minimizedAffinity>
-7.81609

> <CNNscore>
0.3231561184

> <CNNaffinity>
5.9447655678

> <CNN_VS>
1.9210873842

> <CNNaffinity_variance>
0.0928928852

$$$$
[H]c1c([H])c(N([H])C(=O)N([H])[C@]([H])(C(=O)N([H])[C@]([H])(C(=O)N([H])[H])C([H])([H])C([H])([H])C([H])([H])[H])C([H])([H])C([H])(C([H])([H])[H])C([H])([H])[H])c([H])c([H])c1Br


 31 31  0  0  0  0  0  0  0  0999 V2000
    4.5085    6.1006   20.7964 C   0  0  0  0  0  0  0  0  0  0  0  0
    3.4060    6.1344   19.8429 N   0  0  0  0  0  0  0  0  0  0  0  0
    3.5241    5.4385   18.6173 C   0  0  0  0  0  0  0  0  0  0  0  0
    4.5855    4.7870   18.3473 O   0  0  0  0  0  0  0  0  0  0  0  0
    2.4818    5.4550   17.6871 N   0  0  0  0  0  0  0  0  0  0  0  0
    2.5651    6.6572   20.0687 H   0  0  0  0  0  0  0  0  0  0  0  0
    1.6282    6.0311   17.9877 H   0  0  0  0  0  0  0  0  0  0  0  0
    2.4142    4.8152   16.4294 C   0  0  0  0  0  0  0  0  0  0  0  0
    2.3057    5.4373   15.2160 C   0  0  0  0  0  0  0  0  0  0  0  0
    2.2230    4.7165   14.0106 C   0  0  0  0  0  0  0  0  0  0  0  0
    2.2483    3.3451   13.9972 C   0  0  0  0  0  0  0  0  0  0  0  0
    2.1356    2.3670   12.3580 Br  0  0  0  0  0  0  0  0  0  0  0  0
    2.3572    2.7076   15.2063 C   0  0  0  0  0  0  0  0  0  0  0  0
    2.4377    3.4105   16.3836 C   0  0  0  0  0  0  0  0  0  0  0  0
    4.6442    3.6133   21.0823 N   0  0  0  0  0  0  0  0  0  0  0  0
    4.3183    4.9046   21.6171 C   0  0  0  0  0  0  0  0  0  0  0  0
    3.8553    4.9980   22.8020 O   0  0  0  0  0  0  0  0  0  0  0  0
    5.0287    3.5760   20.1185 H   0  0  0  0  0  0  0  0  0  0  0  0
    4.4438    2.4094   21.8576 C   0  0  0  0  0  0  0  0  0  0  0  0
    5.6629    2.1276   22.6537 C   0  0  0  0  0  0  0  0  0  0  0  0
    5.7193    2.5693   24.0199 N   0  0  0  0  0  0  0  0  0  0  0  0
    6.6553    1.5274   22.2180 O   0  0  0  0  0  0  0  0  0  0  0  0
    5.1527    3.3945   24.2768 H   0  0  0  0  0  0  0  0  0  0  0  0
    6.3069    2.0835   24.7373 H   0  0  0  0  0  0  0  0  0  0  0  0
    4.1734    1.2420   20.9570 C   0  0  0  0  0  0  0  0  0  0  0  0
    3.2913    0.5253   18.6866 C   0  0  0  0  0  0  0  0  0  0  0  0
    4.0732    1.4761   19.5096 C   0  0  0  0  0  0  0  0  0  0  0  0
    4.6924    7.4001   21.4627 C   0  0  0  0  0  0  0  0  0  0  0  0
    5.3005    8.5334   20.7642 C   0  0  0  0  0  0  0  0  0  0  0  0
    5.8712    9.5110   21.8378 C   0  0  0  0  0  0  0  0  0  0  0  0
    4.3708    9.4076   19.9698 C   0  0  0  0  0  0  0  0  0  0  0  0
 26 27  1  0  0  0
 27 25  1  0  0  0
 25 19  1  0  0  0
 19 15  1  0  0  0
 15 16  1  0  0  0
 16 17  2  0  0  0
 16  1  1  0  0  0
  1 28  1  0  0  0
 28 29  1  0  0  0
 29 30  1  0  0  0
 29 31  1  0  0  0
  1  2  1  0  0  0
  2  3  1  0  0  0
  3  4  2  0  0  0
  3  5  1  0  0  0
  5  8  1  0  0  0
  8  9  2  0  0  0
  9 10  1  0  0  0
 10 11  2  0  0  0
 11 12  1  0  0  0
 11 13  1  0  0  0
 13 14  2  0  0  0
 19 20  1  0  0  0
 20 21  1  0  0  0
 20 22  2  0  0  0
 14  8  1  0  0  0
 15 18  1  0  0  0
  2  6  1  0  0  0
  5  7  1  0  0  0
 21 23  1  0  0  0
 21 24  1  0  0  0
M  END
> <minimizedAffinity>
-7.13627

> <CNNscore>
0.3166733682

> <CNNaffinity>
5.9138960838

> <CNN_VS>
1.8727734089

> <CNNaffinity_variance>
0.1818533838

$$$$
[H]c1c([H])c(N([H])C(=O)N([H])[C@]([H])(C(=O)N([H])[C@]([H])(C(=O)N([H])[H])C([H])([H])C([H])([H])C([H])([H])[H])C([H])([H])C([H])(C([H])([H])[H])C([H])([H])[H])c([H])c([H])c1Br


 31 31  0  0  0  0  0  0  0  0999 V2000
    4.7757    5.1218   21.8121 C   0  0  0  0  0  0  0  0  0  0  0  0
    3.7176    5.4794   20.8749 N   0  0  0  0  0  0  0  0  0  0  0  0
    3.8962    5.2284   19.4946 C   0  0  0  0  0  0  0  0  0  0  0  0
    4.9733    4.6943   19.0720 O   0  0  0  0  0  0  0  0  0  0  0  0
    2.8972    5.5613   18.5763 N   0  0  0  0  0  0  0  0  0  0  0  0
    2.8636    5.9049   21.2231 H   0  0  0  0  0  0  0  0  0  0  0  0
    2.0268    6.0124   19.0121 H   0  0  0  0  0  0  0  0  0  0  0  0
    2.8913    5.3756   17.1759 C   0  0  0  0  0  0  0  0  0  0  0  0
    2.2985    4.3416   16.5046 C   0  0  0  0  0  0  0  0  0  0  0  0
    2.3615    4.2252   15.1040 C   0  0  0  0  0  0  0  0  0  0  0  0
    3.0254    5.1518   14.3411 C   0  0  0  0  0  0  0  0  0  0  0  0
    3.1102    4.9920   12.4375 Br  0  0  0  0  0  0  0  0  0  0  0  0
    3.6243    6.1944   15.0003 C   0  0  0  0  0  0  0  0  0  0  0  0
    3.5636    6.3087   16.3677 C   0  0  0  0  0  0  0  0  0  0  0  0
    5.3915    7.5148   22.2375 N   0  0  0  0  0  0  0  0  0  0  0  0
    5.7563    6.2068   21.7733 C   0  0  0  0  0  0  0  0  0  0  0  0
    6.9313    6.0031   21.3206 O   0  0  0  0  0  0  0  0  0  0  0  0
    4.4302    7.6415   22.6091 H   0  0  0  0  0  0  0  0  0  0  0  0
    6.3285    8.6149   22.1889 C   0  0  0  0  0  0  0  0  0  0  0  0
    6.6719    9.0310   23.5703 C   0  0  0  0  0  0  0  0  0  0  0  0
    6.9126    8.0196   24.5622 N   0  0  0  0  0  0  0  0  0  0  0  0
    6.7681   10.2101   23.9383 O   0  0  0  0  0  0  0  0  0  0  0  0
    6.4469    7.1061   24.4328 H   0  0  0  0  0  0  0  0  0  0  0  0
    7.5331    8.1879   25.3883 H   0  0  0  0  0  0  0  0  0  0  0  0
    5.7308    9.7841   21.4658 C   0  0  0  0  0  0  0  0  0  0  0  0
    4.0745    9.3118   19.6003 C   0  0  0  0  0  0  0  0  0  0  0  0
    5.4494    9.6561   20.0291 C   0  0  0  0  0  0  0  0  0  0  0  0
    5.2359    3.7381   21.6120 C   0  0  0  0  0  0  0  0  0  0  0  0
    5.8747    2.9855   22.6925 C   0  0  0  0  0  0  0  0  0  0  0  0
    6.3880    1.6359   22.1016 C   0  0  0  0  0  0  0  0  0  0  0  0
    4.9833    2.5447   23.8198 C   0  0  0  0  0  0  0  0  0  0  0  0
 26 27  1  0  0  0
 27 25  1  0  0  0
 25 19  1  0  0  0
 19 15  1  0  0  0
 15 16  1  0  0  0
 16 17  2  0  0  0
 16  1  1  0  0  0
  1 28  1  0  0  0
 28 29  1  0  0  0
 29 30  1  0  0  0
 29 31  1  0  0  0
  1  2  1  0  0  0
  2  3  1  0  0  0
  3  4  2  0  0  0
  3  5  1  0  0  0
  5  8  1  0  0  0
  8  9  2  0  0  0
  9 10  1  0  0  0
 10 11  2  0  0  0
 11 12  1  0  0  0
 11 13  1  0  0  0
 13 14  2  0  0  0
 19 20  1  0  0  0
 20 21  1  0  0  0
 20 22  2  0  0  0
 14  8  1  0  0  0
 15 18  1  0  0  0
  2  6  1  0  0  0
  5  7  1  0  0  0
 21 23  1  0  0  0
 21 24  1  0  0  0
M  END
> <minimizedAffinity>
-7.18411

> <CNNscore>
0.3116602600

> <CNNaffinity>
5.6491231918

> <CNN_VS>
1.7606072426

> <CNNaffinity_variance>
0.0431878343

$$$$
[H]c1c([H])c(N([H])C(=O)N([H])[C@]([H])(C(=O)N([H])[C@]([H])(C(=O)N([H])[H])C([H])([H])C([H])([H])C([H])([H])[H])C([H])([H])C([H])(C([H])([H])[H])C([H])([H])[H])c([H])c([H])c1Br


 31 31  0  0  0  0  0  0  0  0999 V2000
    3.8180    4.1246   18.4198 C   0  0  0  0  0  0  0  0  0  0  0  0
    3.6479    4.9772   17.2493 N   0  0  0  0  0  0  0  0  0  0  0  0
    2.5605    4.7493   16.3743 C   0  0  0  0  0  0  0  0  0  0  0  0
    1.7352    3.8062   16.6058 O   0  0  0  0  0  0  0  0  0  0  0  0
    2.3752    5.5526   15.2462 N   0  0  0  0  0  0  0  0  0  0  0  0
    4.3121    5.7255   17.0747 H   0  0  0  0  0  0  0  0  0  0  0  0
    3.1165    6.3179   15.1203 H   0  0  0  0  0  0  0  0  0  0  0  0
    1.3507    5.4849   14.2759 C   0  0  0  0  0  0  0  0  0  0  0  0
    1.2292    4.5338   13.3003 C   0  0  0  0  0  0  0  0  0  0  0  0
    0.1836    4.5569   12.3592 C   0  0  0  0  0  0  0  0  0  0  0  0
   -0.7702    5.5424   12.3779 C   0  0  0  0  0  0  0  0  0  0  0  0
   -2.1905    5.5723   11.0980 Br  0  0  0  0  0  0  0  0  0  0  0  0
   -0.6616    6.5026   13.3507 C   0  0  0  0  0  0  0  0  0  0  0  0
    0.3590    6.4810   14.2697 C   0  0  0  0  0  0  0  0  0  0  0  0
    4.4072    4.5669   20.8164 N   0  0  0  0  0  0  0  0  0  0  0  0
    3.8112    5.0064   19.5871 C   0  0  0  0  0  0  0  0  0  0  0  0
    3.2708    6.1601   19.5252 O   0  0  0  0  0  0  0  0  0  0  0  0
    4.8472    3.6264   20.8273 H   0  0  0  0  0  0  0  0  0  0  0  0
    4.3946    5.4033   21.9957 C   0  0  0  0  0  0  0  0  0  0  0  0
    5.7361    6.0062   22.1864 C   0  0  0  0  0  0  0  0  0  0  0  0
    6.8431    5.1508   22.5145 N   0  0  0  0  0  0  0  0  0  0  0  0
    5.9761    7.2171   22.0815 O   0  0  0  0  0  0  0  0  0  0  0  0
    6.6324    4.2699   23.0122 H   0  0  0  0  0  0  0  0  0  0  0  0
    7.8293    5.3979   22.2652 H   0  0  0  0  0  0  0  0  0  0  0  0
    4.0498    4.5957   23.2105 C   0  0  0  0  0  0  0  0  0  0  0  0
    4.8938    2.2834   23.8330 C   0  0  0  0  0  0  0  0  0  0  0  0
    3.9451    3.1356   23.0804 C   0  0  0  0  0  0  0  0  0  0  0  0
    4.9329    3.1791   18.2475 C   0  0  0  0  0  0  0  0  0  0  0  0
    4.7348    1.7360   18.3897 C   0  0  0  0  0  0  0  0  0  0  0  0
    3.8033    1.2611   17.2317 C   0  0  0  0  0  0  0  0  0  0  0  0
    4.0047    1.2783   19.6214 C   0  0  0  0  0  0  0  0  0  0  0  0
 26 27  1  0  0  0
 27 25  1  0  0  0
 25 19  1  0  0  0
 19 15  1  0  0  0
 15 16  1  0  0  0
 16 17  2  0  0  0
 16  1  1  0  0  0
  1 28  1  0  0  0
 28 29  1  0  0  0
 29 30  1  0  0  0
 29 31  1  0  0  0
  1  2  1  0  0  0
  2  3  1  0  0  0
  3  4  2  0  0  0
  3  5  1  0  0  0
  5  8  1  0  0  0
  8  9  2  0  0  0
  9 10  1  0  0  0
 10 11  2  0  0  0
 11 12  1  0  0  0
 11 13  1  0  0  0
 13 14  2  0  0  0
 19 20  1  0  0  0
 20 21  1  0  0  0
 20 22  2  0  0  0
 14  8  1  0  0  0
 15 18  1  0  0  0
  2  6  1  0  0  0
  5  7  1  0  0  0
 21 23  1  0  0  0
 21 24  1  0  0  0
M  END
> <minimizedAffinity>
-6.80611

> <CNNscore>
0.3039497137

> <CNNaffinity>
5.6828904152

> <CNN_VS>
1.7273129225

> <CNNaffinity_variance>
0.0876238197

$$$$
[H]c1c([H])c(N([H])C(=O)N([H])[C@]([H])(C(=O)N([H])[C@]([H])(C(=O)N([H])[H])C([H])([H])C([H])([H])C([H])([H])[H])C([H])([H])C([H])(C([H])([H])[H])C([H])([H])[H])c([H])c([H])c1Br


 31 31  0  0  0  0  0  0  0  0999 V2000
    4.7948    6.7596   20.5703 C   0  0  0  0  0  0  0  0  0  0  0  0
    3.7758    6.8880   19.5355 N   0  0  0  0  0  0  0  0  0  0  0  0
    4.0659    6.4672   18.2168 C   0  0  0  0  0  0  0  0  0  0  0  0
    5.2089    5.9796   17.9340 O   0  0  0  0  0  0  0  0  0  0  0  0
    3.1064    6.5792   17.2074 N   0  0  0  0  0  0  0  0  0  0  0  0
    2.8686    7.2784   19.7724 H   0  0  0  0  0  0  0  0  0  0  0  0
    2.1749    7.0054   17.5264 H   0  0  0  0  0  0  0  0  0  0  0  0
    3.2091    6.2033   15.8495 C   0  0  0  0  0  0  0  0  0  0  0  0
    3.6543    6.9959   14.8275 C   0  0  0  0  0  0  0  0  0  0  0  0
    3.7030    6.5430   13.4964 C   0  0  0  0  0  0  0  0  0  0  0  0
    3.3035    5.2746   13.1601 C   0  0  0  0  0  0  0  0  0  0  0  0
    3.3702    4.6608   11.3504 Br  0  0  0  0  0  0  0  0  0  0  0  0
    2.8551    4.4683   14.1745 C   0  0  0  0  0  0  0  0  0  0  0  0
    2.8069    4.9097   15.4743 C   0  0  0  0  0  0  0  0  0  0  0  0
    5.1840    4.2870   20.7161 N   0  0  0  0  0  0  0  0  0  0  0  0
    4.5642    5.4747   21.2306 C   0  0  0  0  0  0  0  0  0  0  0  0
    3.8082    5.3984   22.2551 O   0  0  0  0  0  0  0  0  0  0  0  0
    5.8014    4.3882   19.8873 H   0  0  0  0  0  0  0  0  0  0  0  0
    4.9563    2.9977   21.3294 C   0  0  0  0  0  0  0  0  0  0  0  0
    6.0213    2.7313   22.3264 C   0  0  0  0  0  0  0  0  0  0  0  0
    6.5536    3.8288   23.0861 N   0  0  0  0  0  0  0  0  0  0  0  0
    6.4947    1.6097   22.5562 O   0  0  0  0  0  0  0  0  0  0  0  0
    6.5165    4.7676   22.6556 H   0  0  0  0  0  0  0  0  0  0  0  0
    6.9656    3.6968   24.0393 H   0  0  0  0  0  0  0  0  0  0  0  0
    4.9780    1.9118   20.2963 C   0  0  0  0  0  0  0  0  0  0  0  0
    3.1762    0.5245   21.4257 C   0  0  0  0  0  0  0  0  0  0  0  0
    3.8148    1.0205   20.1852 C   0  0  0  0  0  0  0  0  0  0  0  0
    4.8919    7.9762   21.3931 C   0  0  0  0  0  0  0  0  0  0  0  0
    5.7135    9.1131   20.9752 C   0  0  0  0  0  0  0  0  0  0  0  0
    6.2139    9.8438   22.2597 C   0  0  0  0  0  0  0  0  0  0  0  0
    5.0109   10.2042   20.2166 C   0  0  0  0  0  0  0  0  0  0  0  0
 26 27  1  0  0  0
 27 25  1  0  0  0
 25 19  1  0  0  0
 19 15  1  0  0  0
 15 16  1  0  0  0
 16 17  2  0  0  0
 16  1  1  0  0  0
  1 28  1  0  0  0
 28 29  1  0  0  0
 29 30  1  0  0  0
 29 31  1  0  0  0
  1  2  1  0  0  0
  2  3  1  0  0  0
  3  4  2  0  0  0
  3  5  1  0  0  0
  5  8  1  0  0  0
  8  9  2  0  0  0
  9 10  1  0  0  0
 10 11  2  0  0  0
 11 12  1  0  0  0
 11 13  1  0  0  0
 13 14  2  0  0  0
 19 20  1  0  0  0
 20 21  1  0  0  0
 20 22  2  0  0  0
 14  8  1  0  0  0
 15 18  1  0  0  0
  2  6  1  0  0  0
  5  7  1  0  0  0
 21 23  1  0  0  0
 21 24  1  0  0  0
M  END
> <minimizedAffinity>
-6.65290

> <CNNscore>
0.2868294120

> <CNNaffinity>
5.7027945518

> <CNN_VS>
1.6357291937

> <CNNaffinity_variance>
0.1961735189

$$$$
[H]c1c([H])c(N([H])C(=O)N([H])[C@]([H])(C(=O)N([H])[C@]([H])(C(=O)N([H])[H])C([H])([H])C([H])([H])C([H])([H])[H])C([H])([H])C([H])(C([H])([H])[H])C([H])([H])[H])c([H])c([H])c1Br


 31 31  0  0  0  0  0  0  0  0999 V2000
    3.9780    4.5832   20.0824 C   0  0  0  0  0  0  0  0  0  0  0  0
    4.4313    3.7619   18.9662 N   0  0  0  0  0  0  0  0  0  0  0  0
    3.7421    3.8223   17.7327 C   0  0  0  0  0  0  0  0  0  0  0  0
    2.7324    4.5879   17.5968 O   0  0  0  0  0  0  0  0  0  0  0  0
    4.1568    3.0457   16.6478 N   0  0  0  0  0  0  0  0  0  0  0  0
    5.2369    3.1552   19.0863 H   0  0  0  0  0  0  0  0  0  0  0  0
    5.0086    2.4245   16.8470 H   0  0  0  0  0  0  0  0  0  0  0  0
    3.6070    2.9841   15.3480 C   0  0  0  0  0  0  0  0  0  0  0  0
    3.9000    3.8261   14.3105 C   0  0  0  0  0  0  0  0  0  0  0  0
    3.2858    3.7029   13.0508 C   0  0  0  0  0  0  0  0  0  0  0  0
    2.3576    2.7238   12.8033 C   0  0  0  0  0  0  0  0  0  0  0  0
    1.5236    2.5579   11.0906 Br  0  0  0  0  0  0  0  0  0  0  0  0
    2.0540    1.8719   13.8340 C   0  0  0  0  0  0  0  0  0  0  0  0
    2.6529    1.9916   15.0642 C   0  0  0  0  0  0  0  0  0  0  0  0
    3.4755    6.9672   19.4907 N   0  0  0  0  0  0  0  0  0  0  0  0
    4.4324    5.9473   19.8127 C   0  0  0  0  0  0  0  0  0  0  0  0
    5.6740    6.2369   19.8514 O   0  0  0  0  0  0  0  0  0  0  0  0
    2.4727    6.6982   19.4787 H   0  0  0  0  0  0  0  0  0  0  0  0
    3.8935    8.3191   19.1936 C   0  0  0  0  0  0  0  0  0  0  0  0
    4.1127    8.4574   17.7335 C   0  0  0  0  0  0  0  0  0  0  0  0
    3.7021    7.3897   16.8639 N   0  0  0  0  0  0  0  0  0  0  0  0
    4.6343    9.4458   17.1986 O   0  0  0  0  0  0  0  0  0  0  0  0
    3.6744    6.4362   17.2617 H   0  0  0  0  0  0  0  0  0  0  0  0
    3.4385    7.5569   15.8647 H   0  0  0  0  0  0  0  0  0  0  0  0
    5.1708    8.6444   19.9076 C   0  0  0  0  0  0  0  0  0  0  0  0
    6.3891   10.2125   21.4897 C   0  0  0  0  0  0  0  0  0  0  0  0
    5.1276    9.5818   21.0386 C   0  0  0  0  0  0  0  0  0  0  0  0
    4.3030    3.9671   21.3791 C   0  0  0  0  0  0  0  0  0  0  0  0
    5.2730    2.8759   21.4807 C   0  0  0  0  0  0  0  0  0  0  0  0
    4.5546    1.6514   22.1277 C   0  0  0  0  0  0  0  0  0  0  0  0
    6.4442    3.1037   22.3949 C   0  0  0  0  0  0  0  0  0  0  0  0
 26 27  1  0  0  0
 27 25  1  0  0  0
 25 19  1  0  0  0
 19 15  1  0  0  0
 15 16  1  0  0  0
 16 17  2  0  0  0
 16  1  1  0  0  0
  1 28  1  0  0  0
 28 29  1  0  0  0
 29 30  1  0  0  0
 29 31  1  0  0  0
  1  2  1  0  0  0
  2  3  1  0  0  0
  3  4  2  0  0  0
  3  5  1  0  0  0
  5  8  1  0  0  0
  8  9  2  0  0  0
  9 10  1  0  0  0
 10 11  2  0  0  0
 11 12  1  0  0  0
 11 13  1  0  0  0
 13 14  2  0  0  0
 19 20  1  0  0  0
 20 21  1  0  0  0
 20 22  2  0  0  0
 14  8  1  0  0  0
 15 18  1  0  0  0
  2  6  1  0  0  0
  5  7  1  0  0  0
 21 23  1  0  0  0
 21 24  1  0  0  0
M  END
> <minimizedAffinity>
-6.82621

> <CNNscore>
0.2750912905

> <CNNaffinity>
5.9690999985

> <CNN_VS>
1.6420474052

> <CNNaffinity_variance>
0.2638679147

$$$$
[H]OC(C([H])([H])[H])(C([H])([H])[H])C([H])([H])C(=O)N([H])C([H])([H])C([H])([H])c1c([H])c([H])c2nc([H])nc(N([H])c3c([H])c([H])c(Oc4c([H])c([H])c([H])c(C(F)(F)F)c4[H])c(Cl)c3[H])c2c1[H]


 42 45  0  0  0  0  0  0  0  0999 V2000
    5.2563    2.8228   21.1487 C   0  0  0  0  0  0  0  0  0  0  0  0
    4.6213    2.0623   22.0893 C   0  0  0  0  0  0  0  0  0  0  0  0
    3.7629    1.0727   21.7219 C   0  0  0  0  0  0  0  0  0  0  0  0
    3.4997    0.8050   20.3854 C   0  0  0  0  0  0  0  0  0  0  0  0
    2.6261   -0.1817   20.1007 N   0  0  0  0  0  0  0  0  0  0  0  0
    2.3454   -0.4403   18.8155 C   0  0  0  0  0  0  0  0  0  0  0  0
    2.9549    0.3054   17.9020 N   0  0  0  0  0  0  0  0  0  0  0  0
    3.8212    1.2868   18.0979 C   0  0  0  0  0  0  0  0  0  0  0  0
    4.1343    1.5724   19.4326 C   0  0  0  0  0  0  0  0  0  0  0  0
    4.9960    2.5594   19.7846 C   0  0  0  0  0  0  0  0  0  0  0  0
    4.3577    2.0631   17.0549 N   0  0  0  0  0  0  0  0  0  0  0  0
    5.3927    2.1507   16.8876 H   0  0  0  0  0  0  0  0  0  0  0  0
    3.5487    2.7985   16.1490 C   0  0  0  0  0  0  0  0  0  0  0  0
    3.0260    4.0309   16.3900 C   0  0  0  0  0  0  0  0  0  0  0  0
    2.3294    4.7503   15.4146 C   0  0  0  0  0  0  0  0  0  0  0  0
    2.1479    4.2006   14.1331 C   0  0  0  0  0  0  0  0  0  0  0  0
    2.6652    2.9528   13.8718 C   0  0  0  0  0  0  0  0  0  0  0  0
    2.4563    2.1832   12.2868 Cl  0  0  0  0  0  0  0  0  0  0  0  0
    3.3442    2.2900   14.8691 C   0  0  0  0  0  0  0  0  0  0  0  0
    1.4770    4.9466   13.2404 O   0  0  0  0  0  0  0  0  0  0  0  0
    0.2121    5.3507   13.0363 C   0  0  0  0  0  0  0  0  0  0  0  0
   -0.2774    6.4230   13.8005 C   0  0  0  0  0  0  0  0  0  0  0  0
   -1.5598    6.8529   13.6084 C   0  0  0  0  0  0  0  0  0  0  0  0
   -2.3559    6.2313   12.6714 C   0  0  0  0  0  0  0  0  0  0  0  0
   -1.9079    5.1772   11.9082 C   0  0  0  0  0  0  0  0  0  0  0  0
   -0.6238    4.7409   12.0926 C   0  0  0  0  0  0  0  0  0  0  0  0
   -2.8403    4.5477   10.9356 C   0  0  0  0  0  0  0  0  0  0  0  0
   -3.8671    3.8802   11.6313 F   0  0  0  0  0  0  0  0  0  0  0  0
   -3.4545    5.5607   10.2285 F   0  0  0  0  0  0  0  0  0  0  0  0
   -2.1971    3.7139   10.0659 F   0  0  0  0  0  0  0  0  0  0  0  0
    6.1357    3.9146   21.4973 C   0  0  0  0  0  0  0  0  0  0  0  0
    5.5791    4.9799   22.4199 C   0  0  0  0  0  0  0  0  0  0  0  0
    5.1492    7.3981   21.1820 C   0  0  0  0  0  0  0  0  0  0  0  0
    4.8451    8.4783   21.7250 O   0  0  0  0  0  0  0  0  0  0  0  0
    5.3643    6.1891   21.7991 N   0  0  0  0  0  0  0  0  0  0  0  0
    5.2606    6.8000   23.0179 H   0  0  0  0  0  0  0  0  0  0  0  0
    5.2830    7.4787   19.6790 C   0  0  0  0  0  0  0  0  0  0  0  0
    3.3433    6.0290   19.2446 C   0  0  0  0  0  0  0  0  0  0  0  0
    4.0399    7.3116   18.9129 C   0  0  0  0  0  0  0  0  0  0  0  0
    4.2029    7.5271   17.4174 C   0  0  0  0  0  0  0  0  0  0  0  0
    3.1661    8.3642   19.3640 O   0  0  0  0  0  0  0  0  0  0  0  0
    3.7518    9.1604   19.4783 H   0  0  0  0  0  0  0  0  0  0  0  0
 38 39  1  0  0  0
 39 40  1  0  0  0
 39 41  1  0  0  0
 39 37  1  0  0  0
 37 33  1  0  0  0
 33 34  2  0  0  0
 33 35  1  0  0  0
 35 32  1  0  0  0
 32 31  1  0  0  0
 31  1  1  0  0  0
  1  2  2  0  0  0
  2  3  1  0  0  0
  3  4  2  0  0  0
  4  5  1  0  0  0
  5  6  2  0  0  0
  6  7  1  0  0  0
  7  8  2  0  0  0
  8 11  1  0  0  0
 11 13  1  0  0  0
 13 14  2  0  0  0
 14 15  1  0  0  0
 15 16  2  0  0  0
 16 20  1  0  0  0
 20 21  1  0  0  0
 21 22  2  0  0  0
 22 23  1  0  0  0
 23 24  2  0  0  0
 24 25  1  0  0  0
 25 27  1  0  0  0
 27 28  1  0  0  0
 27 29  1  0  0  0
 27 30  1  0  0  0
 25 26  2  0  0  0
 16 17  1  0  0  0
 17 18  1  0  0  0
 17 19  2  0  0  0
  8  9  1  0  0  0
  9 10  2  0  0  0
 10  1  1  0  0  0
  9  4  1  0  0  0
 19 13  1  0  0  0
 26 21  1  0  0  0
 41 42  1  0  0  0
 35 36  1  0  0  0
 11 12  1  0  0  0
M  END
> <minimizedAffinity>
-9.80050

> <CNNscore>
0.4536558092

> <CNNaffinity>
7.4770750999

> <CNN_VS>
3.3920185566

> <CNNaffinity_variance>
0.2534404397

$$$$
[H]OC(C([H])([H])[H])(C([H])([H])[H])C([H])([H])C(=O)N([H])C([H])([H])C([H])([H])c1c([H])c([H])c2nc([H])nc(N([H])c3c([H])c([H])c(Oc4c([H])c([H])c([H])c(C(F)(F)F)c4[H])c(Cl)c3[H])c2c1[H]


 42 45  0  0  0  0  0  0  0  0999 V2000
    4.3916    1.2541   21.5032 C   0  0  0  0  0  0  0  0  0  0  0  0
    3.4514    0.2892   21.7296 C   0  0  0  0  0  0  0  0  0  0  0  0
    2.7619   -0.2679   20.6975 C   0  0  0  0  0  0  0  0  0  0  0  0
    2.9848    0.1257   19.3850 C   0  0  0  0  0  0  0  0  0  0  0  0
    2.2518   -0.4621   18.4179 N   0  0  0  0  0  0  0  0  0  0  0  0
    2.4401   -0.0796   17.1469 C   0  0  0  0  0  0  0  0  0  0  0  0
    3.3467    0.8651   16.9281 N   0  0  0  0  0  0  0  0  0  0  0  0
    4.1042    1.4881   17.8169 C   0  0  0  0  0  0  0  0  0  0  0  0
    3.9290    1.1021   19.1515 C   0  0  0  0  0  0  0  0  0  0  0  0
    4.6270    1.6629   20.1708 C   0  0  0  0  0  0  0  0  0  0  0  0
    4.9888    2.5294   17.4832 N   0  0  0  0  0  0  0  0  0  0  0  0
    5.9284    2.3562   17.0425 H   0  0  0  0  0  0  0  0  0  0  0  0
    4.6915    3.8972   17.7213 C   0  0  0  0  0  0  0  0  0  0  0  0
    3.4639    4.3865   18.0433 C   0  0  0  0  0  0  0  0  0  0  0  0
    3.2584    5.7290   18.3743 C   0  0  0  0  0  0  0  0  0  0  0  0
    4.3426    6.6245   18.3789 C   0  0  0  0  0  0  0  0  0  0  0  0
    5.5914    6.1492   18.0509 C   0  0  0  0  0  0  0  0  0  0  0  0
    7.0036    7.2227   18.0113 Cl  0  0  0  0  0  0  0  0  0  0  0  0
    5.7365    4.8172   17.7352 C   0  0  0  0  0  0  0  0  0  0  0  0
    4.0786    7.8979   18.7135 O   0  0  0  0  0  0  0  0  0  0  0  0
    3.7634    9.0436   18.0865 C   0  0  0  0  0  0  0  0  0  0  0  0
    3.2334   10.0976   18.8489 C   0  0  0  0  0  0  0  0  0  0  0  0
    2.9078   11.2728   18.2331 C   0  0  0  0  0  0  0  0  0  0  0  0
    3.1017   11.4100   16.8760 C   0  0  0  0  0  0  0  0  0  0  0  0
    3.6167   10.3965   16.1002 C   0  0  0  0  0  0  0  0  0  0  0  0
    3.9472    9.2160   16.7089 C   0  0  0  0  0  0  0  0  0  0  0  0
    3.7717   10.6195   14.6381 C   0  0  0  0  0  0  0  0  0  0  0  0
    2.6834   10.0427   13.9552 F   0  0  0  0  0  0  0  0  0  0  0  0
    3.6884   11.9777   14.4106 F   0  0  0  0  0  0  0  0  0  0  0  0
    4.9659   10.1538   14.1664 F   0  0  0  0  0  0  0  0  0  0  0  0
    5.1092    1.9056   22.5744 C   0  0  0  0  0  0  0  0  0  0  0  0
    6.3362    2.7088   22.1930 C   0  0  0  0  0  0  0  0  0  0  0  0
    5.8144    5.3756   21.7678 C   0  0  0  0  0  0  0  0  0  0  0  0
    4.7101    5.9487   21.8473 O   0  0  0  0  0  0  0  0  0  0  0  0
    6.0768    4.0434   21.9800 N   0  0  0  0  0  0  0  0  0  0  0  0
    4.7877    3.8628   22.3985 H   0  0  0  0  0  0  0  0  0  0  0  0
    6.9585    6.2890   21.3932 C   0  0  0  0  0  0  0  0  0  0  0  0
    7.7687    8.4869   22.1451 C   0  0  0  0  0  0  0  0  0  0  0  0
    7.5644    7.0466   22.4973 C   0  0  0  0  0  0  0  0  0  0  0  0
    8.8085    6.3979   23.0813 C   0  0  0  0  0  0  0  0  0  0  0  0
    6.5864    7.0330   23.5548 O   0  0  0  0  0  0  0  0  0  0  0  0
    6.1947    6.1184   23.5380 H   0  0  0  0  0  0  0  0  0  0  0  0
 38 39  1  0  0  0
 39 40  1  0  0  0
 39 41  1  0  0  0
 39 37  1  0  0  0
 37 33  1  0  0  0
 33 34  2  0  0  0
 33 35  1  0  0  0
 35 32  1  0  0  0
 32 31  1  0  0  0
 31  1  1  0  0  0
  1  2  2  0  0  0
  2  3  1  0  0  0
  3  4  2  0  0  0
  4  5  1  0  0  0
  5  6  2  0  0  0
  6  7  1  0  0  0
  7  8  2  0  0  0
  8 11  1  0  0  0
 11 13  1  0  0  0
 13 14  2  0  0  0
 14 15  1  0  0  0
 15 16  2  0  0  0
 16 20  1  0  0  0
 20 21  1  0  0  0
 21 22  2  0  0  0
 22 23  1  0  0  0
 23 24  2  0  0  0
 24 25  1  0  0  0
 25 27  1  0  0  0
 27 28  1  0  0  0
 27 29  1  0  0  0
 27 30  1  0  0  0
 25 26  2  0  0  0
 16 17  1  0  0  0
 17 18  1  0  0  0
 17 19  2  0  0  0
  8  9  1  0  0  0
  9 10  2  0  0  0
 10  1  1  0  0  0
  9  4  1  0  0  0
 19 13  1  0  0  0
 26 21  1  0  0  0
 41 42  1  0  0  0
 35 36  1  0  0  0
 11 12  1  0  0  0
M  END
> <minimizedAffinity>
-9.93100

> <CNNscore>
0.4246561527

> <CNNaffinity>
7.2215890884

> <CNN_VS>
3.0666923523

> <CNNaffinity_variance>
0.3001373708

$$$$
[H]OC(C([H])([H])[H])(C([H])([H])[H])C([H])([H])C(=O)N([H])C([H])([H])C([H])([H])c1c([H])c([H])c2nc([H])nc(N([H])c3c([H])c([H])c(Oc4c([H])c([H])c([H])c(C(F)(F)F)c4[H])c(Cl)c3[H])c2c1[H]


 42 45  0  0  0  0  0  0  0  0999 V2000
    3.4485    2.8723   15.1717 C   0  0  0  0  0  0  0  0  0  0  0  0
    2.3825    2.0940   14.8191 C   0  0  0  0  0  0  0  0  0  0  0  0
    1.9026    1.1439   15.6665 C   0  0  0  0  0  0  0  0  0  0  0  0
    2.4790    0.9294   16.9110 C   0  0  0  0  0  0  0  0  0  0  0  0
    1.9566   -0.0403   17.6886 N   0  0  0  0  0  0  0  0  0  0  0  0
    2.5136   -0.2741   18.8854 C   0  0  0  0  0  0  0  0  0  0  0  0
    3.5556    0.4754   19.2237 N   0  0  0  0  0  0  0  0  0  0  0  0
    4.1251    1.4425   18.5220 C   0  0  0  0  0  0  0  0  0  0  0  0
    3.5576    1.7087   17.2698 C   0  0  0  0  0  0  0  0  0  0  0  0
    4.0436    2.6628   16.4366 C   0  0  0  0  0  0  0  0  0  0  0  0
    5.2753    2.1311   18.9476 N   0  0  0  0  0  0  0  0  0  0  0  0
    6.2466    1.7487   18.8158 H   0  0  0  0  0  0  0  0  0  0  0  0
    5.2204    3.3925   19.5971 C   0  0  0  0  0  0  0  0  0  0  0  0
    5.5307    4.5841   19.0194 C   0  0  0  0  0  0  0  0  0  0  0  0
    5.3501    5.8033   19.6791 C   0  0  0  0  0  0  0  0  0  0  0  0
    4.8335    5.8238   20.9868 C   0  0  0  0  0  0  0  0  0  0  0  0
    4.5184    4.6279   21.5898 C   0  0  0  0  0  0  0  0  0  0  0  0
    3.8847    4.5711   23.2462 Cl  0  0  0  0  0  0  0  0  0  0  0  0
    4.7146    3.4572   20.8928 C   0  0  0  0  0  0  0  0  0  0  0  0
    4.6771    7.0278   21.5605 O   0  0  0  0  0  0  0  0  0  0  0  0
    5.1031    8.2859   21.3585 C   0  0  0  0  0  0  0  0  0  0  0  0
    6.1765    8.7591   22.1312 C   0  0  0  0  0  0  0  0  0  0  0  0
    6.6284   10.0343   21.9415 C   0  0  0  0  0  0  0  0  0  0  0  0
    6.0276   10.8390   20.9983 C   0  0  0  0  0  0  0  0  0  0  0  0
    4.9730   10.4070   20.2267 C   0  0  0  0  0  0  0  0  0  0  0  0
    4.5147    9.1303   20.4087 C   0  0  0  0  0  0  0  0  0  0  0  0
    4.3668   11.3481   19.2477 C   0  0  0  0  0  0  0  0  0  0  0  0
    3.1543   10.8146   18.7695 F   0  0  0  0  0  0  0  0  0  0  0  0
    4.0344   12.5021   19.9269 F   0  0  0  0  0  0  0  0  0  0  0  0
    5.2200   11.6539   18.2259 F   0  0  0  0  0  0  0  0  0  0  0  0
    4.0192    3.8569   14.2820 C   0  0  0  0  0  0  0  0  0  0  0  0
    3.0528    4.6816   13.4562 C   0  0  0  0  0  0  0  0  0  0  0  0
    3.4271    7.3953   13.7020 C   0  0  0  0  0  0  0  0  0  0  0  0
    2.7350    8.2998   13.1949 O   0  0  0  0  0  0  0  0  0  0  0  0
    3.2414    6.0391   13.5802 N   0  0  0  0  0  0  0  0  0  0  0  0
    2.0644    6.2658   12.9225 H   0  0  0  0  0  0  0  0  0  0  0  0
    4.5861    7.8965   14.5319 C   0  0  0  0  0  0  0  0  0  0  0  0
    5.4733    8.7302   16.6699 C   0  0  0  0  0  0  0  0  0  0  0  0
    4.3074    8.1186   15.9578 C   0  0  0  0  0  0  0  0  0  0  0  0
    3.7488    6.9005   16.6745 C   0  0  0  0  0  0  0  0  0  0  0  0
    3.2591    9.1059   15.9951 O   0  0  0  0  0  0  0  0  0  0  0  0
    2.6475    8.8675   15.2474 H   0  0  0  0  0  0  0  0  0  0  0  0
 38 39  1  0  0  0
 39 40  1  0  0  0
 39 41  1  0  0  0
 39 37  1  0  0  0
 37 33  1  0  0  0
 33 34  2  0  0  0
 33 35  1  0  0  0
 35 32  1  0  0  0
 32 31  1  0  0  0
 31  1  1  0  0  0
  1  2  2  0  0  0
  2  3  1  0  0  0
  3  4  2  0  0  0
  4  5  1  0  0  0
  5  6  2  0  0  0
  6  7  1  0  0  0
  7  8  2  0  0  0
  8 11  1  0  0  0
 11 13  1  0  0  0
 13 14  2  0  0  0
 14 15  1  0  0  0
 15 16  2  0  0  0
 16 20  1  0  0  0
 20 21  1  0  0  0
 21 22  2  0  0  0
 22 23  1  0  0  0
 23 24  2  0  0  0
 24 25  1  0  0  0
 25 27  1  0  0  0
 27 28  1  0  0  0
 27 29  1  0  0  0
 27 30  1  0  0  0
 25 26  2  0  0  0
 16 17  1  0  0  0
 17 18  1  0  0  0
 17 19  2  0  0  0
  8  9  1  0  0  0
  9 10  2  0  0  0
 10  1  1  0  0  0
  9  4  1  0  0  0
 19 13  1  0  0  0
 26 21  1  0  0  0
 41 42  1  0  0  0
 35 36  1  0  0  0
 11 12  1  0  0  0
M  END
> <minimizedAffinity>
-9.27776

> <CNNscore>
0.3556562662

> <CNNaffinity>
6.9585585594

> <CNN_VS>
2.4748549461

> <CNNaffinity_variance>
0.5447217822

$$$$
[H]OC(C([H])([H])[H])(C([H])([H])[H])C([H])([H])C(=O)N([H])C([H])([H])C([H])([H])c1c([H])c([H])c2nc([H])nc(N([H])c3c([H])c([H])c(Oc4c([H])c([H])c([H])c(C(F)(F)F)c4[H])c(Cl)c3[H])c2c1[H]


 42 45  0  0  0  0  0  0  0  0999 V2000
    5.7231    4.1883   22.0293 C   0  0  0  0  0  0  0  0  0  0  0  0
    4.9360    4.0475   23.1371 C   0  0  0  0  0  0  0  0  0  0  0  0
    4.0212    3.0439   23.2190 C   0  0  0  0  0  0  0  0  0  0  0  0
    3.8526    2.1347   22.1836 C   0  0  0  0  0  0  0  0  0  0  0  0
    2.9156    1.1767   22.3325 N   0  0  0  0  0  0  0  0  0  0  0  0
    2.7260    0.3026   21.3340 C   0  0  0  0  0  0  0  0  0  0  0  0
    3.4839    0.4455   20.2536 N   0  0  0  0  0  0  0  0  0  0  0  0
    4.4211    1.3534   20.0308 C   0  0  0  0  0  0  0  0  0  0  0  0
    4.6410    2.2750   21.0618 C   0  0  0  0  0  0  0  0  0  0  0  0
    5.5603    3.2684   20.9686 C   0  0  0  0  0  0  0  0  0  0  0  0
    5.1211    1.4585   18.8154 N   0  0  0  0  0  0  0  0  0  0  0  0
    6.0210    0.9449   18.6328 H   0  0  0  0  0  0  0  0  0  0  0  0
    4.6768    2.2719   17.7398 C   0  0  0  0  0  0  0  0  0  0  0  0
    5.1302    3.5250   17.4673 C   0  0  0  0  0  0  0  0  0  0  0  0
    4.7333    4.2315   16.3282 C   0  0  0  0  0  0  0  0  0  0  0  0
    3.8329    3.6482   15.4190 C   0  0  0  0  0  0  0  0  0  0  0  0
    3.3593    2.3831   15.6801 C   0  0  0  0  0  0  0  0  0  0  0  0
    2.2026    1.5906   14.5928 Cl  0  0  0  0  0  0  0  0  0  0  0  0
    3.7854    1.7326   16.8160 C   0  0  0  0  0  0  0  0  0  0  0  0
    3.4988    4.3766   14.3415 O   0  0  0  0  0  0  0  0  0  0  0  0
    2.7646    5.4688   14.0711 C   0  0  0  0  0  0  0  0  0  0  0  0
    3.4321    6.6878   13.8664 C   0  0  0  0  0  0  0  0  0  0  0  0
    2.7064    7.8111   13.5877 C   0  0  0  0  0  0  0  0  0  0  0  0
    1.3328    7.7360   13.5117 C   0  0  0  0  0  0  0  0  0  0  0  0
    0.6483    6.5584   13.7091 C   0  0  0  0  0  0  0  0  0  0  0  0
    1.3672    5.4275   13.9872 C   0  0  0  0  0  0  0  0  0  0  0  0
   -0.8368    6.5698   13.6323 C   0  0  0  0  0  0  0  0  0  0  0  0
   -1.2478    7.4034   12.5740 F   0  0  0  0  0  0  0  0  0  0  0  0
   -1.2486    5.2965   13.2970 F   0  0  0  0  0  0  0  0  0  0  0  0
   -1.4143    6.9359   14.8147 F   0  0  0  0  0  0  0  0  0  0  0  0
    6.6705    5.2688   21.8820 C   0  0  0  0  0  0  0  0  0  0  0  0
    6.3392    6.5747   22.5755 C   0  0  0  0  0  0  0  0  0  0  0  0
    5.3837    8.5156   20.8770 C   0  0  0  0  0  0  0  0  0  0  0  0
    4.9299    9.6336   21.1907 O   0  0  0  0  0  0  0  0  0  0  0  0
    5.8615    7.5448   21.7244 N   0  0  0  0  0  0  0  0  0  0  0  0
    5.7408    8.4116   22.7749 H   0  0  0  0  0  0  0  0  0  0  0  0
    5.3865    8.2453   19.3903 C   0  0  0  0  0  0  0  0  0  0  0  0
    3.7985    6.3661   19.3811 C   0  0  0  0  0  0  0  0  0  0  0  0
    4.1345    7.7168   18.8305 C   0  0  0  0  0  0  0  0  0  0  0  0
    4.0652    7.7715   17.3133 C   0  0  0  0  0  0  0  0  0  0  0  0
    3.0999    8.6032   19.2987 O   0  0  0  0  0  0  0  0  0  0  0  0
    3.4943    9.5154   19.2502 H   0  0  0  0  0  0  0  0  0  0  0  0
 38 39  1  0  0  0
 39 40  1  0  0  0
 39 41  1  0  0  0
 39 37  1  0  0  0
 37 33  1  0  0  0
 33 34  2  0  0  0
 33 35  1  0  0  0
 35 32  1  0  0  0
 32 31  1  0  0  0
 31  1  1  0  0  0
  1  2  2  0  0  0
  2  3  1  0  0  0
  3  4  2  0  0  0
  4  5  1  0  0  0
  5  6  2  0  0  0
  6  7  1  0  0  0
  7  8  2  0  0  0
  8 11  1  0  0  0
 11 13  1  0  0  0
 13 14  2  0  0  0
 14 15  1  0  0  0
 15 16  2  0  0  0
 16 20  1  0  0  0
 20 21  1  0  0  0
 21 22  2  0  0  0
 22 23  1  0  0  0
 23 24  2  0  0  0
 24 25  1  0  0  0
 25 27  1  0  0  0
 27 28  1  0  0  0
 27 29  1  0  0  0
 27 30  1  0  0  0
 25 26  2  0  0  0
 16 17  1  0  0  0
 17 18  1  0  0  0
 17 19  2  0  0  0
  8  9  1  0  0  0
  9 10  2  0  0  0
 10  1  1  0  0  0
  9  4  1  0  0  0
 19 13  1  0  0  0
 26 21  1  0  0  0
 41 42  1  0  0  0
 35 36  1  0  0  0
 11 12  1  0  0  0
M  END
> <minimizedAffinity>
-9.71112

> <CNNscore>
0.2955888808

> <CNNaffinity>
7.2191267014

> <CNN_VS>
2.1338934898

> <CNNaffinity_variance>
0.4221201539

$$$$
[H]OC(C([H])([H])[H])(C([H])([H])[H])C([H])([H])C(=O)N([H])C([H])([H])C([H])([H])c1c([H])c([H])c2nc([H])nc(N([H])c3c([H])c([H])c(Oc4c([H])c([H])c([H])c(C(F)(F)F)c4[H])c(Cl)c3[H])c2c1[H]


 42 45  0  0  0  0  0  0  0  0999 V2000
    2.9794    1.4202   10.0191 C   0  0  0  0  0  0  0  0  0  0  0  0
    2.6370    2.3722    9.1009 C   0  0  0  0  0  0  0  0  0  0  0  0
    1.8447    3.4223    9.4480 C   0  0  0  0  0  0  0  0  0  0  0  0
    1.3547    3.5606   10.7395 C   0  0  0  0  0  0  0  0  0  0  0  0
    0.5635    4.6201   11.0031 N   0  0  0  0  0  0  0  0  0  0  0  0
    0.0656    4.7582   12.2401 C   0  0  0  0  0  0  0  0  0  0  0  0
    0.3903    3.8279   13.1295 N   0  0  0  0  0  0  0  0  0  0  0  0
    1.1573    2.7639   12.9518 C   0  0  0  0  0  0  0  0  0  0  0  0
    1.6933    2.6006   11.6685 C   0  0  0  0  0  0  0  0  0  0  0  0
    2.4862    1.5507   11.3373 C   0  0  0  0  0  0  0  0  0  0  0  0
    1.3816    1.7981   13.9494 N   0  0  0  0  0  0  0  0  0  0  0  0
    0.8481    0.8923   13.9922 H   0  0  0  0  0  0  0  0  0  0  0  0
    2.3382    1.9694   14.9846 C   0  0  0  0  0  0  0  0  0  0  0  0
    3.2693    2.9597   15.0335 C   0  0  0  0  0  0  0  0  0  0  0  0
    4.1110    3.1396   16.1350 C   0  0  0  0  0  0  0  0  0  0  0  0
    4.0120    2.2780   17.2419 C   0  0  0  0  0  0  0  0  0  0  0  0
    3.0795    1.2669   17.2088 C   0  0  0  0  0  0  0  0  0  0  0  0
    2.9113    0.1253   18.5567 Cl  0  0  0  0  0  0  0  0  0  0  0  0
    2.2752    1.1373   16.0992 C   0  0  0  0  0  0  0  0  0  0  0  0
    4.8439    2.5103   18.2702 O   0  0  0  0  0  0  0  0  0  0  0  0
    4.8581    3.2601   19.3849 C   0  0  0  0  0  0  0  0  0  0  0  0
    5.3831    4.5608   19.3076 C   0  0  0  0  0  0  0  0  0  0  0  0
    5.4055    5.3425   20.4277 C   0  0  0  0  0  0  0  0  0  0  0  0
    4.9155    4.8476   21.6164 C   0  0  0  0  0  0  0  0  0  0  0  0
    4.3966    3.5776   21.7265 C   0  0  0  0  0  0  0  0  0  0  0  0
    4.3685    2.7879   20.6090 C   0  0  0  0  0  0  0  0  0  0  0  0
    3.9101    3.1134   23.0529 C   0  0  0  0  0  0  0  0  0  0  0  0
    3.1522    1.9372   22.8919 F   0  0  0  0  0  0  0  0  0  0  0  0
    5.0125    2.7573   23.8021 F   0  0  0  0  0  0  0  0  0  0  0  0
    3.2061    4.0792   23.7140 F   0  0  0  0  0  0  0  0  0  0  0  0
    3.7765    0.2645    9.6791 C   0  0  0  0  0  0  0  0  0  0  0  0
    3.1283   -0.7847    8.7987 C   0  0  0  0  0  0  0  0  0  0  0  0
    0.4783   -1.2281    9.3870 C   0  0  0  0  0  0  0  0  0  0  0  0
   -0.3941   -0.3696    9.6243 O   0  0  0  0  0  0  0  0  0  0  0  0
    1.8027   -1.0082    9.0929 N   0  0  0  0  0  0  0  0  0  0  0  0
    1.5622    0.3369    9.0458 H   0  0  0  0  0  0  0  0  0  0  0  0
   -0.0253   -2.6517    9.4417 C   0  0  0  0  0  0  0  0  0  0  0  0
   -1.4941   -4.4306    8.5867 C   0  0  0  0  0  0  0  0  0  0  0  0
   -0.9986   -3.0297    8.4073 C   0  0  0  0  0  0  0  0  0  0  0  0
   -0.5343   -2.7431    6.9889 C   0  0  0  0  0  0  0  0  0  0  0  0
   -2.1389   -2.1763    8.6225 O   0  0  0  0  0  0  0  0  0  0  0  0
   -1.7602   -1.2869    8.8584 H   0  0  0  0  0  0  0  0  0  0  0  0
 38 39  1  0  0  0
 39 40  1  0  0  0
 39 41  1  0  0  0
 39 37  1  0  0  0
 37 33  1  0  0  0
 33 34  2  0  0  0
 33 35  1  0  0  0
 35 32  1  0  0  0
 32 31  1  0  0  0
 31  1  1  0  0  0
  1  2  2  0  0  0
  2  3  1  0  0  0
  3  4  2  0  0  0
  4  5  1  0  0  0
  5  6  2  0  0  0
  6  7  1  0  0  0
  7  8  2  0  0  0
  8 11  1  0  0  0
 11 13  1  0  0  0
 13 14  2  0  0  0
 14 15  1  0  0  0
 15 16  2  0  0  0
 16 20  1  0  0  0
 20 21  1  0  0  0
 21 22  2  0  0  0
 22 23  1  0  0  0
 23 24  2  0  0  0
 24 25  1  0  0  0
 25 27  1  0  0  0
 27 28  1  0  0  0
 27 29  1  0  0  0
 27 30  1  0  0  0
 25 26  2  0  0  0
 16 17  1  0  0  0
 17 18  1  0  0  0
 17 19  2  0  0  0
  8  9  1  0  0  0
  9 10  2  0  0  0
 10  1  1  0  0  0
  9  4  1  0  0  0
 19 13  1  0  0  0
 26 21  1  0  0  0
 41 42  1  0  0  0
 35 36  1  0  0  0
 11 12  1  0  0  0
M  END
> <minimizedAffinity>
-7.90623

> <CNNscore>
0.2436744869

> <CNNaffinity>
6.8813219070

> <CNN_VS>
1.6768026352

> <CNNaffinity_variance>
0.1187579259

$$$$
[H]OC(C([H])([H])[H])(C([H])([H])[H])C([H])([H])C(=O)N([H])C([H])([H])C([H])([H])c1c([H])c([H])c2nc([H])nc(N([H])c3c([H])c([H])c(Oc4c([H])c([H])c([H])c(C(F)(F)F)c4[H])c(Cl)c3[H])c2c1[H]


 42 45  0  0  0  0  0  0  0  0999 V2000
    5.8894    3.1837   22.0682 C   0  0  0  0  0  0  0  0  0  0  0  0
    5.3134    2.5507   23.1331 C   0  0  0  0  0  0  0  0  0  0  0  0
    4.3886    1.5708   22.9447 C   0  0  0  0  0  0  0  0  0  0  0  0
    3.9960    1.1845   21.6704 C   0  0  0  0  0  0  0  0  0  0  0  0
    3.0635    0.2164   21.5648 N   0  0  0  0  0  0  0  0  0  0  0  0
    2.6584   -0.1549   20.3420 C   0  0  0  0  0  0  0  0  0  0  0  0
    3.2108    0.4671   19.3076 N   0  0  0  0  0  0  0  0  0  0  0  0
    4.1278    1.4215   19.3263 C   0  0  0  0  0  0  0  0  0  0  0  0
    4.5705    1.8231   20.5926 C   0  0  0  0  0  0  0  0  0  0  0  0
    5.4973    2.7987   20.7659 C   0  0  0  0  0  0  0  0  0  0  0  0
    4.5970    2.0646   18.1668 N   0  0  0  0  0  0  0  0  0  0  0  0
    5.5832    1.9548   17.8168 H   0  0  0  0  0  0  0  0  0  0  0  0
    3.7830    2.9208   17.3792 C   0  0  0  0  0  0  0  0  0  0  0  0
    3.2847    4.1191   17.7864 C   0  0  0  0  0  0  0  0  0  0  0  0
    2.5814    4.9668   16.9255 C   0  0  0  0  0  0  0  0  0  0  0  0
    2.3668    4.5880   15.5884 C   0  0  0  0  0  0  0  0  0  0  0  0
    2.8589    3.3770   15.1593 C   0  0  0  0  0  0  0  0  0  0  0  0
    2.6076    2.8193   13.4937 Cl  0  0  0  0  0  0  0  0  0  0  0  0
    3.5460    2.5829   16.0494 C   0  0  0  0  0  0  0  0  0  0  0  0
    1.6911    5.4510   14.8125 O   0  0  0  0  0  0  0  0  0  0  0  0
    1.9504    6.2665   13.7767 C   0  0  0  0  0  0  0  0  0  0  0  0
    0.8859    6.9903   13.2145 C   0  0  0  0  0  0  0  0  0  0  0  0
    1.1262    7.8276   12.1621 C   0  0  0  0  0  0  0  0  0  0  0  0
    2.4054    7.9514   11.6655 C   0  0  0  0  0  0  0  0  0  0  0  0
    3.4695    7.2551   12.1918 C   0  0  0  0  0  0  0  0  0  0  0  0
    3.2384    6.4152   13.2474 C   0  0  0  0  0  0  0  0  0  0  0  0
    4.8141    7.4291   11.5806 C   0  0  0  0  0  0  0  0  0  0  0  0
    5.6067    8.2462   12.4099 F   0  0  0  0  0  0  0  0  0  0  0  0
    5.4286    6.1940   11.5620 F   0  0  0  0  0  0  0  0  0  0  0  0
    4.7454    7.9200   10.3079 F   0  0  0  0  0  0  0  0  0  0  0  0
    6.8373    4.2622   22.2258 C   0  0  0  0  0  0  0  0  0  0  0  0
    6.3155    5.6717   22.0326 C   0  0  0  0  0  0  0  0  0  0  0  0
    6.0963    6.4093   19.3920 C   0  0  0  0  0  0  0  0  0  0  0  0
    6.0910    5.6568   18.3980 O   0  0  0  0  0  0  0  0  0  0  0  0
    6.2057    6.0423   20.7119 N   0  0  0  0  0  0  0  0  0  0  0  0
    6.1243    4.7273   20.3463 H   0  0  0  0  0  0  0  0  0  0  0  0
    5.9666    7.8768   19.0560 C   0  0  0  0  0  0  0  0  0  0  0  0
    4.1018    8.8096   17.7500 C   0  0  0  0  0  0  0  0  0  0  0  0
    4.6060    8.4303   19.1074 C   0  0  0  0  0  0  0  0  0  0  0  0
    4.4277    9.5356   20.1351 C   0  0  0  0  0  0  0  0  0  0  0  0
    3.7671    7.3472   19.5524 O   0  0  0  0  0  0  0  0  0  0  0  0
    4.2977    6.8731   20.2479 H   0  0  0  0  0  0  0  0  0  0  0  0
 38 39  1  0  0  0
 39 40  1  0  0  0
 39 41  1  0  0  0
 39 37  1  0  0  0
 37 33  1  0  0  0
 33 34  2  0  0  0
 33 35  1  0  0  0
 35 32  1  0  0  0
 32 31  1  0  0  0
 31  1  1  0  0  0
  1  2  2  0  0  0
  2  3  1  0  0  0
  3  4  2  0  0  0
  4  5  1  0  0  0
  5  6  2  0  0  0
  6  7  1  0  0  0
  7  8  2  0  0  0
  8 11  1  0  0  0
 11 13  1  0  0  0
 13 14  2  0  0  0
 14 15  1  0  0  0
 15 16  2  0  0  0
 16 20  1  0  0  0
 20 21  1  0  0  0
 21 22  2  0  0  0
 22 23  1  0  0  0
 23 24  2  0  0  0
 24 25  1  0  0  0
 25 27  1  0  0  0
 27 28  1  0  0  0
 27 29  1  0  0  0
 27 30  1  0  0  0
 25 26  2  0  0  0
 16 17  1  0  0  0
 17 18  1  0  0  0
 17 19  2  0  0  0
  8  9  1  0  0  0
  9 10  2  0  0  0
 10  1  1  0  0  0
  9  4  1  0  0  0
 19 13  1  0  0  0
 26 21  1  0  0  0
 41 42  1  0  0  0
 35 36  1  0  0  0
 11 12  1  0  0  0
M  END
> <minimizedAffinity>
-9.02273

> <CNNscore>
0.2205391526

> <CNNaffinity>
6.9983167648

> <CNN_VS>
1.5434027910

> <CNNaffinity_variance>
0.3018506467

$$$$
[H]OC(C([H])([H])[H])(C([H])([H])[H])C([H])([H])C(=O)N([H])C([H])([H])C([H])([H])c1c([H])c([H])c2nc([H])nc(N([H])c3c([H])c([H])c(Oc4c([H])c([H])c([H])c(C(F)(F)F)c4[H])c(Cl)c3[H])c2c1[H]


 42 45  0  0  0  0  0  0  0  0999 V2000
    5.7026    3.9091   21.9079 C   0  0  0  0  0  0  0  0  0  0  0  0
    5.0502    3.5962   23.0668 C   0  0  0  0  0  0  0  0  0  0  0  0
    4.1555    2.5721   23.1082 C   0  0  0  0  0  0  0  0  0  0  0  0
    3.8717    1.8156   21.9793 C   0  0  0  0  0  0  0  0  0  0  0  0
    2.9626    0.8268   22.0957 N   0  0  0  0  0  0  0  0  0  0  0  0
    2.6620    0.0993   21.0105 C   0  0  0  0  0  0  0  0  0  0  0  0
    3.2886    0.4098   19.8823 N   0  0  0  0  0  0  0  0  0  0  0  0
    4.1896    1.3595   19.6861 C   0  0  0  0  0  0  0  0  0  0  0  0
    4.5237    2.1301   20.8065 C   0  0  0  0  0  0  0  0  0  0  0  0
    5.4216    3.1457   20.7520 C   0  0  0  0  0  0  0  0  0  0  0  0
    4.7431    1.6506   18.4263 N   0  0  0  0  0  0  0  0  0  0  0  0
    5.7807    1.7131   18.2633 H   0  0  0  0  0  0  0  0  0  0  0  0
    3.9489    1.8925   17.2745 C   0  0  0  0  0  0  0  0  0  0  0  0
    3.4800    0.9333   16.4318 C   0  0  0  0  0  0  0  0  0  0  0  0
    2.6104    1.2261   15.3771 C   0  0  0  0  0  0  0  0  0  0  0  0
    2.1937    2.5512   15.1584 C   0  0  0  0  0  0  0  0  0  0  0  0
    2.6614    3.5362   15.9974 C   0  0  0  0  0  0  0  0  0  0  0  0
    2.1998    5.2343   15.7705 Cl  0  0  0  0  0  0  0  0  0  0  0  0
    3.5143    3.1909   17.0213 C   0  0  0  0  0  0  0  0  0  0  0  0
    1.3519    2.7631   14.1338 O   0  0  0  0  0  0  0  0  0  0  0  0
    1.3414    3.4627   12.9868 C   0  0  0  0  0  0  0  0  0  0  0  0
    2.3741    3.2412   12.0606 C   0  0  0  0  0  0  0  0  0  0  0  0
    2.3828    3.9393   10.8864 C   0  0  0  0  0  0  0  0  0  0  0  0
    1.3824    4.8500   10.6253 C   0  0  0  0  0  0  0  0  0  0  0  0
    0.3580    5.0920   11.5120 C   0  0  0  0  0  0  0  0  0  0  0  0
    0.3403    4.3960   12.6903 C   0  0  0  0  0  0  0  0  0  0  0  0
   -0.6689    6.1092   11.1622 C   0  0  0  0  0  0  0  0  0  0  0  0
   -1.9181    5.4801   10.9963 F   0  0  0  0  0  0  0  0  0  0  0  0
   -0.8077    6.9536   12.2444 F   0  0  0  0  0  0  0  0  0  0  0  0
   -0.3223    6.8382   10.0604 F   0  0  0  0  0  0  0  0  0  0  0  0
    6.6217    5.0192   21.8096 C   0  0  0  0  0  0  0  0  0  0  0  0
    6.2579    6.2834   22.5616 C   0  0  0  0  0  0  0  0  0  0  0  0
    5.2548    8.2756   20.9522 C   0  0  0  0  0  0  0  0  0  0  0  0
    4.7230    9.3423   21.3174 O   0  0  0  0  0  0  0  0  0  0  0  0
    5.7565    7.2793   21.7550 N   0  0  0  0  0  0  0  0  0  0  0  0
    5.5431    8.0655   22.8530 H   0  0  0  0  0  0  0  0  0  0  0  0
    5.3320    8.1060   19.4526 C   0  0  0  0  0  0  0  0  0  0  0  0
    3.6369    6.3431   19.1842 C   0  0  0  0  0  0  0  0  0  0  0  0
    4.0825    7.7150   18.7846 C   0  0  0  0  0  0  0  0  0  0  0  0
    4.0986    7.9170   17.2785 C   0  0  0  0  0  0  0  0  0  0  0  0
    3.0794    8.6186   19.2870 O   0  0  0  0  0  0  0  0  0  0  0  0
    3.5298    9.5038   19.3466 H   0  0  0  0  0  0  0  0  0  0  0  0
 38 39  1  0  0  0
 39 40  1  0  0  0
 39 41  1  0  0  0
 39 37  1  0  0  0
 37 33  1  0  0  0
 33 34  2  0  0  0
 33 35  1  0  0  0
 35 32  1  0  0  0
 32 31  1  0  0  0
 31  1  1  0  0  0
  1  2  2  0  0  0
  2  3  1  0  0  0
  3  4  2  0  0  0
  4  5  1  0  0  0
  5  6  2  0  0  0
  6  7  1  0  0  0
  7  8  2  0  0  0
  8 11  1  0  0  0
 11 13  1  0  0  0
 13 14  2  0  0  0
 14 15  1  0  0  0
 15 16  2  0  0  0
 16 20  1  0  0  0
 20 21  1  0  0  0
 21 22  2  0  0  0
 22 23  1  0  0  0
 23 24  2  0  0  0
 24 25  1  0  0  0
 25 27  1  0  0  0
 27 28  1  0  0  0
 27 29  1  0  0  0
 27 30  1  0  0  0
 25 26  2  0  0  0
 16 17  1  0  0  0
 17 18  1  0  0  0
 17 19  2  0  0  0
  8  9  1  0  0  0
  9 10  2  0  0  0
 10  1  1  0  0  0
  9  4  1  0  0  0
 19 13  1  0  0  0
 26 21  1  0  0  0
 41 42  1  0  0  0
 35 36  1  0  0  0
 11 12  1  0  0  0
M  END
> <minimizedAffinity>
-9.39920

> <CNNscore>
0.2123255283

> <CNNaffinity>
7.0212464333

> <CNN_VS>
1.4907898903

> <CNNaffinity_variance>
0.3540119231

$$$$
[H]OC(C([H])([H])[H])(C([H])([H])[H])C([H])([H])C(=O)N([H])C([H])([H])C([H])([H])c1c([H])c([H])c2nc([H])nc(N([H])c3c([H])c([H])c(Oc4c([H])c([H])c([H])c(C(F)(F)F)c4[H])c(Cl)c3[H])c2c1[H]


 42 45  0  0  0  0  0  0  0  0999 V2000
    3.3533    1.4397   10.0467 C   0  0  0  0  0  0  0  0  0  0  0  0
    3.9121    2.2363    9.0877 C   0  0  0  0  0  0  0  0  0  0  0  0
    4.1819    3.5458    9.3397 C   0  0  0  0  0  0  0  0  0  0  0  0
    3.8960    4.1173   10.5721 C   0  0  0  0  0  0  0  0  0  0  0  0
    4.1786    5.4248   10.7411 N   0  0  0  0  0  0  0  0  0  0  0  0
    3.8906    5.9975   11.9185 C   0  0  0  0  0  0  0  0  0  0  0  0
    3.3385    5.2259   12.8468 N   0  0  0  0  0  0  0  0  0  0  0  0
    3.0320    3.9410   12.7609 C   0  0  0  0  0  0  0  0  0  0  0  0
    3.3280    3.3192   11.5416 C   0  0  0  0  0  0  0  0  0  0  0  0
    3.0579    2.0108   11.3055 C   0  0  0  0  0  0  0  0  0  0  0  0
    2.3819    3.2318   13.7868 N   0  0  0  0  0  0  0  0  0  0  0  0
    1.3660    2.9630   13.7349 H   0  0  0  0  0  0  0  0  0  0  0  0
    3.0391    2.8288   14.9791 C   0  0  0  0  0  0  0  0  0  0  0  0
    3.9231    3.5883   15.6803 C   0  0  0  0  0  0  0  0  0  0  0  0
    4.4521    3.1772   16.9072 C   0  0  0  0  0  0  0  0  0  0  0  0
    4.0740    1.9383   17.4547 C   0  0  0  0  0  0  0  0  0  0  0  0
    3.1845    1.1536   16.7576 C   0  0  0  0  0  0  0  0  0  0  0  0
    2.6784   -0.4322   17.3718 Cl  0  0  0  0  0  0  0  0  0  0  0  0
    2.6936    1.6090   15.5548 C   0  0  0  0  0  0  0  0  0  0  0  0
    4.6122    1.6069   18.6395 O   0  0  0  0  0  0  0  0  0  0  0  0
    4.2850    1.7017   19.9391 C   0  0  0  0  0  0  0  0  0  0  0  0
    3.9081    0.5319   20.6194 C   0  0  0  0  0  0  0  0  0  0  0  0
    3.5735    0.6037   21.9420 C   0  0  0  0  0  0  0  0  0  0  0  0
    3.6087    1.8186   22.5909 C   0  0  0  0  0  0  0  0  0  0  0  0
    3.9711    2.9831   21.9532 C   0  0  0  0  0  0  0  0  0  0  0  0
    4.3095    2.9205   20.6285 C   0  0  0  0  0  0  0  0  0  0  0  0
    3.9597    4.2561   22.7220 C   0  0  0  0  0  0  0  0  0  0  0  0
    5.2832    4.6723   22.9644 F   0  0  0  0  0  0  0  0  0  0  0  0
    3.3959    5.2255   21.9184 F   0  0  0  0  0  0  0  0  0  0  0  0
    3.2435    4.1555   23.8806 F   0  0  0  0  0  0  0  0  0  0  0  0
    3.0058    0.0589    9.8035 C   0  0  0  0  0  0  0  0  0  0  0  0
    4.1485   -0.9081    9.5686 C   0  0  0  0  0  0  0  0  0  0  0  0
    3.5078   -2.9740    7.8697 C   0  0  0  0  0  0  0  0  0  0  0  0
    2.6842   -2.9515    6.9340 O   0  0  0  0  0  0  0  0  0  0  0  0
    3.8291   -1.9427    8.7194 N   0  0  0  0  0  0  0  0  0  0  0  0
    3.0550   -1.0967    7.9748 H   0  0  0  0  0  0  0  0  0  0  0  0
    4.2019   -4.3042    8.0494 C   0  0  0  0  0  0  0  0  0  0  0  0
    5.9415   -3.4521    6.5326 C   0  0  0  0  0  0  0  0  0  0  0  0
    5.1973   -4.6534    7.0259 C   0  0  0  0  0  0  0  0  0  0  0  0
    4.6487   -5.5136    5.8996 C   0  0  0  0  0  0  0  0  0  0  0  0
    6.1713   -5.4723    7.7010 O   0  0  0  0  0  0  0  0  0  0  0  0
    5.6457   -6.0528    8.3148 H   0  0  0  0  0  0  0  0  0  0  0  0
 38 39  1  0  0  0
 39 40  1  0  0  0
 39 41  1  0  0  0
 39 37  1  0  0  0
 37 33  1  0  0  0
 33 34  2  0  0  0
 33 35  1  0  0  0
 35 32  1  0  0  0
 32 31  1  0  0  0
 31  1  1  0  0  0
  1  2  2  0  0  0
  2  3  1  0  0  0
  3  4  2  0  0  0
  4  5  1  0  0  0
  5  6  2  0  0  0
  6  7  1  0  0  0
  7  8  2  0  0  0
  8 11  1  0  0  0
 11 13  1  0  0  0
 13 14  2  0  0  0
 14 15  1  0  0  0
 15 16  2  0  0  0
 16 20  1  0  0  0
 20 21  1  0  0  0
 21 22  2  0  0  0
 22 23  1  0  0  0
 23 24  2  0  0  0
 24 25  1  0  0  0
 25 27  1  0  0  0
 27 28  1  0  0  0
 27 29  1  0  0  0
 27 30  1  0  0  0
 25 26  2  0  0  0
 16 17  1  0  0  0
 17 18  1  0  0  0
 17 19  2  0  0  0
  8  9  1  0  0  0
  9 10  2  0  0  0
 10  1  1  0  0  0
  9  4  1  0  0  0
 19 13  1  0  0  0
 26 21  1  0  0  0
 41 42  1  0  0  0
 35 36  1  0  0  0
 11 12  1  0  0  0
M  END
> <minimizedAffinity>
-8.48633

> <CNNscore>
0.1797992438

> <CNNaffinity>
6.7860589027

> <CNN_VS>
1.2201282978

> <CNNaffinity_variance>
0.0650848299

$$$$
[H]OC(C([H])([H])[H])(C([H])([H])[H])C([H])([H])C(=O)N([H])C([H])([H])C([H])([H])c1c([H])c([H])c2nc([H])nc(N([H])c3c([H])c([H])c(Oc4c([H])c([H])c([H])c(C(F)(F)F)c4[H])c(Cl)c3[H])c2c1[H]


 42 45  0  0  0  0  0  0  0  0999 V2000
    5.1820    3.9620   18.6530 C   0  0  0  0  0  0  0  0  0  0  0  0
    4.8377    3.0974   19.6533 C   0  0  0  0  0  0  0  0  0  0  0  0
    4.1445    1.9586   19.3823 C   0  0  0  0  0  0  0  0  0  0  0  0
    3.7603    1.6385   18.0872 C   0  0  0  0  0  0  0  0  0  0  0  0
    3.0628    0.4999   17.9001 N   0  0  0  0  0  0  0  0  0  0  0  0
    2.6667    0.1857   16.6586 C   0  0  0  0  0  0  0  0  0  0  0  0
    2.9926    1.0308   15.6882 N   0  0  0  0  0  0  0  0  0  0  0  0
    3.6721    2.1624   15.7881 C   0  0  0  0  0  0  0  0  0  0  0  0
    4.1011    2.5097   17.0751 C   0  0  0  0  0  0  0  0  0  0  0  0
    4.7960    3.6465   17.3304 C   0  0  0  0  0  0  0  0  0  0  0  0
    3.9037    3.0228   14.6999 N   0  0  0  0  0  0  0  0  0  0  0  0
    4.8710    3.2703   14.3683 H   0  0  0  0  0  0  0  0  0  0  0  0
    2.8534    3.6346   13.9660 C   0  0  0  0  0  0  0  0  0  0  0  0
    1.8136    2.9739   13.3895 C   0  0  0  0  0  0  0  0  0  0  0  0
    0.7519    3.6439   12.7747 C   0  0  0  0  0  0  0  0  0  0  0  0
    0.7373    5.0495   12.7362 C   0  0  0  0  0  0  0  0  0  0  0  0
    1.7830    5.7355   13.3097 C   0  0  0  0  0  0  0  0  0  0  0  0
    1.8474    7.5084   13.2800 Cl  0  0  0  0  0  0  0  0  0  0  0  0
    2.8015    5.0246   13.9034 C   0  0  0  0  0  0  0  0  0  0  0  0
   -0.3150    5.6310   12.1380 O   0  0  0  0  0  0  0  0  0  0  0  0
   -1.5637    6.0015   12.4677 C   0  0  0  0  0  0  0  0  0  0  0  0
   -1.7410    6.8206   13.5950 C   0  0  0  0  0  0  0  0  0  0  0  0
   -3.0014    7.2119   13.9479 C   0  0  0  0  0  0  0  0  0  0  0  0
   -4.0805    6.7995   13.1970 C   0  0  0  0  0  0  0  0  0  0  0  0
   -3.9414    5.9954   12.0887 C   0  0  0  0  0  0  0  0  0  0  0  0
   -2.6821    5.5998   11.7268 C   0  0  0  0  0  0  0  0  0  0  0  0
   -5.1610    5.5765   11.3481 C   0  0  0  0  0  0  0  0  0  0  0  0
   -4.8113    4.6416   10.3544 F   0  0  0  0  0  0  0  0  0  0  0  0
   -5.9785    4.9047   12.2333 F   0  0  0  0  0  0  0  0  0  0  0  0
   -5.8391    6.6394   10.8227 F   0  0  0  0  0  0  0  0  0  0  0  0
    5.8735    5.2050   18.9048 C   0  0  0  0  0  0  0  0  0  0  0  0
    6.4918    5.9035   17.7108 C   0  0  0  0  0  0  0  0  0  0  0  0
    5.4922    8.4278   17.2704 C   0  0  0  0  0  0  0  0  0  0  0  0
    4.9094    8.8390   16.2479 O   0  0  0  0  0  0  0  0  0  0  0  0
    5.9922    7.1670   17.4920 N   0  0  0  0  0  0  0  0  0  0  0  0
    5.4303    6.7451   16.3191 H   0  0  0  0  0  0  0  0  0  0  0  0
    5.6416    9.4679   18.3564 C   0  0  0  0  0  0  0  0  0  0  0  0
    3.9290   11.0511   19.1396 C   0  0  0  0  0  0  0  0  0  0  0  0
    4.4738    9.6598   19.2279 C   0  0  0  0  0  0  0  0  0  0  0  0
    4.6898    9.1986   20.6597 C   0  0  0  0  0  0  0  0  0  0  0  0
    3.4497    8.7995   18.6930 O   0  0  0  0  0  0  0  0  0  0  0  0
    3.9222    7.9672   18.4208 H   0  0  0  0  0  0  0  0  0  0  0  0
 38 39  1  0  0  0
 39 40  1  0  0  0
 39 41  1  0  0  0
 39 37  1  0  0  0
 37 33  1  0  0  0
 33 34  2  0  0  0
 33 35  1  0  0  0
 35 32  1  0  0  0
 32 31  1  0  0  0
 31  1  1  0  0  0
  1  2  2  0  0  0
  2  3  1  0  0  0
  3  4  2  0  0  0
  4  5  1  0  0  0
  5  6  2  0  0  0
  6  7  1  0  0  0
  7  8  2  0  0  0
  8 11  1  0  0  0
 11 13  1  0  0  0
 13 14  2  0  0  0
 14 15  1  0  0  0
 15 16  2  0  0  0
 16 20  1  0  0  0
 20 21  1  0  0  0
 21 22  2  0  0  0
 22 23  1  0  0  0
 23 24  2  0  0  0
 24 25  1  0  0  0
 25 27  1  0  0  0
 27 28  1  0  0  0
 27 29  1  0  0  0
 27 30  1  0  0  0
 25 26  2  0  0  0
 16 17  1  0  0  0
 17 18  1  0  0  0
 17 19  2  0  0  0
  8  9  1  0  0  0
  9 10  2  0  0  0
 10  1  1  0  0  0
  9  4  1  0  0  0
 19 13  1  0  0  0
 26 21  1  0  0  0
 41 42  1  0  0  0
 35 36  1  0  0  0
 11 12  1  0  0  0
M  END
> <minimizedAffinity>
-9.36330

> <CNNscore>
0.1608142406

> <CNNaffinity>
6.7450189590

> <CNN_VS>
1.0846951008

> <CNNaffinity_variance>
0.1810309589

$$$$
[H]OC(=O)c1c([H])c([H])c(C([H])([H])N([H])C(=O)c2c([H])c([H])c(C(C([H])([H])[H])(C([H])([H])[H])C([H])([H])[H])c([H])c2[H])c([H])c1F


 26 27  0  0  0  0  0  0  0  0999 V2000
    2.9791    0.5649   18.1168 C   0  0  0  0  0  0  0  0  0  0  0  0
    2.5628   -0.6280   18.0336 O   0  0  0  0  0  0  0  0  0  0  0  0
    3.0143    1.3556   16.9618 N   0  0  0  0  0  0  0  0  0  0  0  0
    3.3578    2.3595   17.0675 H   0  0  0  0  0  0  0  0  0  0  0  0
    4.3206    2.1709   21.8372 C   0  0  0  0  0  0  0  0  0  0  0  0
    3.5479    1.0264   21.7812 C   0  0  0  0  0  0  0  0  0  0  0  0
    3.1019    0.5037   20.5859 C   0  0  0  0  0  0  0  0  0  0  0  0
    3.4152    1.1153   19.3912 C   0  0  0  0  0  0  0  0  0  0  0  0
    4.1765    2.2507   19.4035 C   0  0  0  0  0  0  0  0  0  0  0  0
    4.6136    2.7541   20.6304 C   0  0  0  0  0  0  0  0  0  0  0  0
    6.2504    3.1671   22.9258 C   0  0  0  0  0  0  0  0  0  0  0  0
    4.8098    2.7437   23.1312 C   0  0  0  0  0  0  0  0  0  0  0  0
    4.8060    1.6680   24.1918 C   0  0  0  0  0  0  0  0  0  0  0  0
    3.9485    3.9021   23.5916 C   0  0  0  0  0  0  0  0  0  0  0  0
    2.6197    0.9800   15.6369 C   0  0  0  0  0  0  0  0  0  0  0  0
    2.9232    2.0229   14.6277 C   0  0  0  0  0  0  0  0  0  0  0  0
    3.6395    3.1591   15.0574 C   0  0  0  0  0  0  0  0  0  0  0  0
    3.9835    4.1504   14.1758 C   0  0  0  0  0  0  0  0  0  0  0  0
    3.6545    4.1026   12.8225 C   0  0  0  0  0  0  0  0  0  0  0  0
    2.9519    2.9950   12.3935 C   0  0  0  0  0  0  0  0  0  0  0  0
    2.6112    2.8954   11.0834 F   0  0  0  0  0  0  0  0  0  0  0  0
    2.6037    1.9861   13.2994 C   0  0  0  0  0  0  0  0  0  0  0  0
    4.0622    5.1770   11.9388 C   0  0  0  0  0  0  0  0  0  0  0  0
    3.1916    6.0312   11.6123 O   0  0  0  0  0  0  0  0  0  0  0  0
    5.3450    5.2689   11.4731 O   0  0  0  0  0  0  0  0  0  0  0  0
    6.1161    5.7449   11.9537 H   0  0  0  0  0  0  0  0  0  0  0  0
 11 12  1  0  0  0
 12 13  1  0  0  0
 12 14  1  0  0  0
 12  5  1  0  0  0
  5  6  2  0  0  0
  6  7  1  0  0  0
  7  8  2  0  0  0
  8  1  1  0  0  0
  1  2  2  0  0  0
  1  3  1  0  0  0
  3 15  1  0  0  0
 15 16  1  0  0  0
 16 17  2  0  0  0
 17 18  1  0  0  0
 18 19  2  0  0  0
 19 23  1  0  0  0
 23 24  2  0  0  0
 23 25  1  0  0  0
 19 20  1  0  0  0
 20 21  1  0  0  0
 20 22  2  0  0  0
  8  9  1  0  0  0
  9 10  2  0  0  0
 10  5  1  0  0  0
 22 16  1  0  0  0
  3  4  1  0  0  0
 25 26  1  0  0  0
M  END
> <minimizedAffinity>
-7.70906

> <CNNscore>
0.6900509000

> <CNNaffinity>
5.7038698196

> <CNN_VS>
3.9359605312

> <CNNaffinity_variance>
0.2049386799

$$$$
[H]OC(=O)c1c([H])c([H])c(C([H])([H])N([H])C(=O)c2c([H])c([H])c(C(C([H])([H])[H])(C([H])([H])[H])C([H])([H])[H])c([H])c2[H])c([H])c1F


 26 27  0  0  0  0  0  0  0  0999 V2000
    3.1517    0.7012   17.7956 C   0  0  0  0  0  0  0  0  0  0  0  0
    2.7051   -0.4829   17.7530 O   0  0  0  0  0  0  0  0  0  0  0  0
    3.1498    1.4719   16.6267 N   0  0  0  0  0  0  0  0  0  0  0  0
    3.5205    2.4690   16.6985 H   0  0  0  0  0  0  0  0  0  0  0  0
    4.7043    2.3388   21.4189 C   0  0  0  0  0  0  0  0  0  0  0  0
    3.9470    1.1828   21.4151 C   0  0  0  0  0  0  0  0  0  0  0  0
    3.4332    0.6497   20.2520 C   0  0  0  0  0  0  0  0  0  0  0  0
    3.6602    1.2621   19.0383 C   0  0  0  0  0  0  0  0  0  0  0  0
    4.4036    2.4087   18.9993 C   0  0  0  0  0  0  0  0  0  0  0  0
    4.9107    2.9224   20.1945 C   0  0  0  0  0  0  0  0  0  0  0  0
    4.2541    3.9168   23.2104 C   0  0  0  0  0  0  0  0  0  0  0  0
    5.2667    2.9229   22.6776 C   0  0  0  0  0  0  0  0  0  0  0  0
    6.5252    3.6943   22.3567 C   0  0  0  0  0  0  0  0  0  0  0  0
    5.5853    1.8500   23.6989 C   0  0  0  0  0  0  0  0  0  0  0  0
    2.6843    1.0839   15.3286 C   0  0  0  0  0  0  0  0  0  0  0  0
    2.8985    2.1324   14.3024 C   0  0  0  0  0  0  0  0  0  0  0  0
    2.5200    1.8363   12.9767 C   0  0  0  0  0  0  0  0  0  0  0  0
    2.6590    2.7661   11.9796 C   0  0  0  0  0  0  0  0  0  0  0  0
    3.1738    4.0413   12.2051 C   0  0  0  0  0  0  0  0  0  0  0  0
    3.5485    4.3392   13.4994 C   0  0  0  0  0  0  0  0  0  0  0  0
    4.0507    5.5697   13.7751 F   0  0  0  0  0  0  0  0  0  0  0  0
    3.4038    3.3847   14.5131 C   0  0  0  0  0  0  0  0  0  0  0  0
    3.2801    4.9845   11.1093 C   0  0  0  0  0  0  0  0  0  0  0  0
    2.2927    5.7389   10.8860 O   0  0  0  0  0  0  0  0  0  0  0  0
    4.4096    5.0607   10.3416 O   0  0  0  0  0  0  0  0  0  0  0  0
    5.2304    5.6386   10.5527 H   0  0  0  0  0  0  0  0  0  0  0  0
 11 12  1  0  0  0
 12 13  1  0  0  0
 12 14  1  0  0  0
 12  5  1  0  0  0
  5  6  2  0  0  0
  6  7  1  0  0  0
  7  8  2  0  0  0
  8  1  1  0  0  0
  1  2  2  0  0  0
  1  3  1  0  0  0
  3 15  1  0  0  0
 15 16  1  0  0  0
 16 17  2  0  0  0
 17 18  1  0  0  0
 18 19  2  0  0  0
 19 23  1  0  0  0
 23 24  2  0  0  0
 23 25  1  0  0  0
 19 20  1  0  0  0
 20 21  1  0  0  0
 20 22  2  0  0  0
  8  9  1  0  0  0
  9 10  2  0  0  0
 10  5  1  0  0  0
 22 16  1  0  0  0
  3  4  1  0  0  0
 25 26  1  0  0  0
M  END
> <minimizedAffinity>
-7.27307

> <CNNscore>
0.6073282957

> <CNNaffinity>
5.6729383469

> <CNN_VS>
3.4453358650

> <CNNaffinity_variance>
0.2942089140

$$$$
[H]OC(=O)c1c([H])c([H])c(C([H])([H])N([H])C(=O)c2c([H])c([H])c(C(C([H])([H])[H])(C([H])([H])[H])C([H])([H])[H])c([H])c2[H])c([H])c1F


 26 27  0  0  0  0  0  0  0  0999 V2000
    2.8416    0.9148   16.4585 C   0  0  0  0  0  0  0  0  0  0  0  0
    2.0661   -0.0723   16.2922 O   0  0  0  0  0  0  0  0  0  0  0  0
    3.4969    1.0664   17.6865 N   0  0  0  0  0  0  0  0  0  0  0  0
    4.1529    1.9005   17.7904 H   0  0  0  0  0  0  0  0  0  0  0  0
    3.4397    3.7978   13.3679 C   0  0  0  0  0  0  0  0  0  0  0  0
    2.7140    2.6425   13.1474 C   0  0  0  0  0  0  0  0  0  0  0  0
    2.5218    1.7005   14.1355 C   0  0  0  0  0  0  0  0  0  0  0  0
    3.0562    1.8822   15.3928 C   0  0  0  0  0  0  0  0  0  0  0  0
    3.7820    3.0115   15.6514 C   0  0  0  0  0  0  0  0  0  0  0  0
    3.9575    3.9468   14.6297 C   0  0  0  0  0  0  0  0  0  0  0  0
    2.5079    4.7000   11.3137 C   0  0  0  0  0  0  0  0  0  0  0  0
    3.6515    4.8259   12.3003 C   0  0  0  0  0  0  0  0  0  0  0  0
    4.9261    4.5181   11.5501 C   0  0  0  0  0  0  0  0  0  0  0  0
    3.7375    6.2237   12.8785 C   0  0  0  0  0  0  0  0  0  0  0  0
    3.4071    0.2118   18.8327 C   0  0  0  0  0  0  0  0  0  0  0  0
    3.7810    0.8972   20.0932 C   0  0  0  0  0  0  0  0  0  0  0  0
    3.0232    0.6044   21.2458 C   0  0  0  0  0  0  0  0  0  0  0  0
    3.3283    1.1754   22.4537 C   0  0  0  0  0  0  0  0  0  0  0  0
    4.3870    2.0662   22.6200 C   0  0  0  0  0  0  0  0  0  0  0  0
    5.1330    2.3599   21.4968 C   0  0  0  0  0  0  0  0  0  0  0  0
    6.1795    3.2175   21.6045 F   0  0  0  0  0  0  0  0  0  0  0  0
    4.8158    1.7731   20.2660 C   0  0  0  0  0  0  0  0  0  0  0  0
    4.6670    2.6234   23.9287 C   0  0  0  0  0  0  0  0  0  0  0  0
    5.3856    1.9448   24.7144 O   0  0  0  0  0  0  0  0  0  0  0  0
    4.1744    3.8428   24.3044 O   0  0  0  0  0  0  0  0  0  0  0  0
    4.6308    4.7447   24.1293 H   0  0  0  0  0  0  0  0  0  0  0  0
 11 12  1  0  0  0
 12 13  1  0  0  0
 12 14  1  0  0  0
 12  5  1  0  0  0
  5  6  2  0  0  0
  6  7  1  0  0  0
  7  8  2  0  0  0
  8  1  1  0  0  0
  1  2  2  0  0  0
  1  3  1  0  0  0
  3 15  1  0  0  0
 15 16  1  0  0  0
 16 17  2  0  0  0
 17 18  1  0  0  0
 18 19  2  0  0  0
 19 23  1  0  0  0
 23 24  2  0  0  0
 23 25  1  0  0  0
 19 20  1  0  0  0
 20 21  1  0  0  0
 20 22  2  0  0  0
  8  9  1  0  0  0
  9 10  2  0  0  0
 10  5  1  0  0  0
 22 16  1  0  0  0
  3  4  1  0  0  0
 25 26  1  0  0  0
M  END
> <minimizedAffinity>
-8.06549

> <CNNscore>
0.4959401786

> <CNNaffinity>
5.5168619156

> <CNN_VS>
2.7360334396

> <CNNaffinity_variance>
0.1942840517

$$$$
[H]OC(=O)c1c([H])c([H])c(C([H])([H])N([H])C(=O)c2c([H])c([H])c(C(C([H])([H])[H])(C([H])([H])[H])C([H])([H])[H])c([H])c2[H])c([H])c1F


 26 27  0  0  0  0  0  0  0  0999 V2000
    3.7728    1.6572   17.1702 C   0  0  0  0  0  0  0  0  0  0  0  0
    3.3990    0.4584   17.0072 O   0  0  0  0  0  0  0  0  0  0  0  0
    3.7774    2.5241   16.0708 N   0  0  0  0  0  0  0  0  0  0  0  0
    4.0852    3.5303   16.2435 H   0  0  0  0  0  0  0  0  0  0  0  0
    5.0591    3.0805   20.9833 C   0  0  0  0  0  0  0  0  0  0  0  0
    4.7368    1.7522   20.7794 C   0  0  0  0  0  0  0  0  0  0  0  0
    4.3121    1.2831   19.5545 C   0  0  0  0  0  0  0  0  0  0  0  0
    4.1918    2.1363   18.4788 C   0  0  0  0  0  0  0  0  0  0  0  0
    4.4996    3.4585   18.6394 C   0  0  0  0  0  0  0  0  0  0  0  0
    4.9280    3.9019   19.8922 C   0  0  0  0  0  0  0  0  0  0  0  0
    5.7950    2.3976   23.1956 C   0  0  0  0  0  0  0  0  0  0  0  0
    5.5224    3.5971   22.3101 C   0  0  0  0  0  0  0  0  0  0  0  0
    4.4114    4.3890   22.9584 C   0  0  0  0  0  0  0  0  0  0  0  0
    6.7478    4.4774   22.1711 C   0  0  0  0  0  0  0  0  0  0  0  0
    3.3935    2.2241   14.7236 C   0  0  0  0  0  0  0  0  0  0  0  0
    2.4169    3.1944   14.1731 C   0  0  0  0  0  0  0  0  0  0  0  0
    1.4882    2.7197   13.2241 C   0  0  0  0  0  0  0  0  0  0  0  0
    0.5356    3.5499   12.6936 C   0  0  0  0  0  0  0  0  0  0  0  0
    0.4236    4.8925   13.0498 C   0  0  0  0  0  0  0  0  0  0  0  0
    1.3297    5.3663   13.9767 C   0  0  0  0  0  0  0  0  0  0  0  0
    1.2612    6.6656   14.3632 F   0  0  0  0  0  0  0  0  0  0  0  0
    2.3002    4.5127   14.5145 C   0  0  0  0  0  0  0  0  0  0  0  0
   -0.6171    5.7139   12.4634 C   0  0  0  0  0  0  0  0  0  0  0  0
   -0.3026    6.4540   11.4901 O   0  0  0  0  0  0  0  0  0  0  0  0
   -1.8981    5.6906   12.9424 O   0  0  0  0  0  0  0  0  0  0  0  0
   -2.6300    5.0374   12.6424 H   0  0  0  0  0  0  0  0  0  0  0  0
 11 12  1  0  0  0
 12 13  1  0  0  0
 12 14  1  0  0  0
 12  5  1  0  0  0
  5  6  2  0  0  0
  6  7  1  0  0  0
  7  8  2  0  0  0
  8  1  1  0  0  0
  1  2  2  0  0  0
  1  3  1  0  0  0
  3 15  1  0  0  0
 15 16  1  0  0  0
 16 17  2  0  0  0
 17 18  1  0  0  0
 18 19  2  0  0  0
 19 23  1  0  0  0
 23 24  2  0  0  0
 23 25  1  0  0  0
 19 20  1  0  0  0
 20 21  1  0  0  0
 20 22  2  0  0  0
  8  9  1  0  0  0
  9 10  2  0  0  0
 10  5  1  0  0  0
 22 16  1  0  0  0
  3  4  1  0  0  0
 25 26  1  0  0  0
M  END
> <minimizedAffinity>
-7.38257

> <CNNscore>
0.4658680558

> <CNNaffinity>
5.2656154633

> <CNN_VS>
2.4530820847

> <CNNaffinity_variance>
0.5079057813

$$$$
[H]OC(=O)c1c([H])c([H])c(C([H])([H])N([H])C(=O)c2c([H])c([H])c(C(C([H])([H])[H])(C([H])([H])[H])C([H])([H])[H])c([H])c2[H])c([H])c1F


 26 27  0  0  0  0  0  0  0  0999 V2000
    3.6579    1.1238   16.9557 C   0  0  0  0  0  0  0  0  0  0  0  0
    4.8611    0.7736   17.1368 O   0  0  0  0  0  0  0  0  0  0  0  0
    2.6781    0.6830   17.8535 N   0  0  0  0  0  0  0  0  0  0  0  0
    1.6766    1.0058   17.6807 H   0  0  0  0  0  0  0  0  0  0  0  0
    2.5576    3.6635   13.7061 C   0  0  0  0  0  0  0  0  0  0  0  0
    1.9681    2.4269   13.8879 C   0  0  0  0  0  0  0  0  0  0  0  0
    2.3217    1.5948   14.9287 C   0  0  0  0  0  0  0  0  0  0  0  0
    3.2896    1.9740   15.8336 C   0  0  0  0  0  0  0  0  0  0  0  0
    3.8981    3.1895   15.6880 C   0  0  0  0  0  0  0  0  0  0  0  0
    3.5167    4.0094   14.6241 C   0  0  0  0  0  0  0  0  0  0  0  0
    2.4489    5.9945   13.0302 C   0  0  0  0  0  0  0  0  0  0  0  0
    2.1779    4.5732   12.5791 C   0  0  0  0  0  0  0  0  0  0  0  0
    0.6940    4.4611   12.3191 C   0  0  0  0  0  0  0  0  0  0  0  0
    2.9340    4.2375   11.3097 C   0  0  0  0  0  0  0  0  0  0  0  0
    2.8635   -0.1465   19.0066 C   0  0  0  0  0  0  0  0  0  0  0  0
    3.3033    0.6156   20.2000 C   0  0  0  0  0  0  0  0  0  0  0  0
    3.8676    1.8906   19.9895 C   0  0  0  0  0  0  0  0  0  0  0  0
    4.2691    2.6667   21.0453 C   0  0  0  0  0  0  0  0  0  0  0  0
    4.1488    2.2554   22.3713 C   0  0  0  0  0  0  0  0  0  0  0  0
    3.5991    1.0079   22.5866 C   0  0  0  0  0  0  0  0  0  0  0  0
    3.4538    0.5609   23.8599 F   0  0  0  0  0  0  0  0  0  0  0  0
    3.1913    0.2204   21.5035 C   0  0  0  0  0  0  0  0  0  0  0  0
    4.5781    3.1310   23.4440 C   0  0  0  0  0  0  0  0  0  0  0  0
    3.8176    4.0875   23.7612 O   0  0  0  0  0  0  0  0  0  0  0  0
    5.7643    2.9316   24.0951 O   0  0  0  0  0  0  0  0  0  0  0  0
    5.8962    2.3249   24.9116 H   0  0  0  0  0  0  0  0  0  0  0  0
 11 12  1  0  0  0
 12 13  1  0  0  0
 12 14  1  0  0  0
 12  5  1  0  0  0
  5  6  2  0  0  0
  6  7  1  0  0  0
  7  8  2  0  0  0
  8  1  1  0  0  0
  1  2  2  0  0  0
  1  3  1  0  0  0
  3 15  1  0  0  0
 15 16  1  0  0  0
 16 17  2  0  0  0
 17 18  1  0  0  0
 18 19  2  0  0  0
 19 23  1  0  0  0
 23 24  2  0  0  0
 23 25  1  0  0  0
 19 20  1  0  0  0
 20 21  1  0  0  0
 20 22  2  0  0  0
  8  9  1  0  0  0
  9 10  2  0  0  0
 10  5  1  0  0  0
 22 16  1  0  0  0
  3  4  1  0  0  0
 25 26  1  0  0  0
M  END
> <minimizedAffinity>
-7.11176

> <CNNscore>
0.3653330803

> <CNNaffinity>
5.2966427803

> <CNN_VS>
1.9350388050

> <CNNaffinity_variance>
0.1765444279

$$$$
[H]OC(=O)c1c([H])c([H])c(C([H])([H])N([H])C(=O)c2c([H])c([H])c(C(C([H])([H])[H])(C([H])([H])[H])C([H])([H])[H])c([H])c2[H])c([H])c1F


 26 27  0  0  0  0  0  0  0  0999 V2000
    3.8744    2.0208   16.9310 C   0  0  0  0  0  0  0  0  0  0  0  0
    3.4926    0.8449   16.6573 O   0  0  0  0  0  0  0  0  0  0  0  0
    3.8824    2.9871   15.9177 N   0  0  0  0  0  0  0  0  0  0  0  0
    4.1969    3.9707   16.1833 H   0  0  0  0  0  0  0  0  0  0  0  0
    5.0587    3.0435   20.9024 C   0  0  0  0  0  0  0  0  0  0  0  0
    5.1777    3.9421   19.8592 C   0  0  0  0  0  0  0  0  0  0  0  0
    4.8065    3.6198   18.5712 C   0  0  0  0  0  0  0  0  0  0  0  0
    4.2989    2.3725   18.2777 C   0  0  0  0  0  0  0  0  0  0  0  0
    4.1665    1.4540   19.2815 C   0  0  0  0  0  0  0  0  0  0  0  0
    4.5504    1.8118   20.5754 C   0  0  0  0  0  0  0  0  0  0  0  0
    6.6768    4.2845   22.2229 C   0  0  0  0  0  0  0  0  0  0  0  0
    5.4584    3.3868   22.3039 C   0  0  0  0  0  0  0  0  0  0  0  0
    5.8755    2.1301   23.0310 C   0  0  0  0  0  0  0  0  0  0  0  0
    4.3266    4.0501   23.0621 C   0  0  0  0  0  0  0  0  0  0  0  0
    3.4940    2.8171   14.5493 C   0  0  0  0  0  0  0  0  0  0  0  0
    3.0998    4.0904   13.8998 C   0  0  0  0  0  0  0  0  0  0  0  0
    2.7612    4.0485   12.5316 C   0  0  0  0  0  0  0  0  0  0  0  0
    2.3576    5.1791   11.8705 C   0  0  0  0  0  0  0  0  0  0  0  0
    2.2569    6.4211   12.4943 C   0  0  0  0  0  0  0  0  0  0  0  0
    2.5880    6.4718   13.8330 C   0  0  0  0  0  0  0  0  0  0  0  0
    2.5018    7.6561   14.4905 F   0  0  0  0  0  0  0  0  0  0  0  0
    2.9997    5.3132   14.5022 C   0  0  0  0  0  0  0  0  0  0  0  0
    1.8079    7.5762   11.7419 C   0  0  0  0  0  0  0  0  0  0  0  0
    0.5665    7.8016   11.6972 O   0  0  0  0  0  0  0  0  0  0  0  0
    2.6941    8.3984   11.1021 O   0  0  0  0  0  0  0  0  0  0  0  0
    3.1650    9.2051   11.5263 H   0  0  0  0  0  0  0  0  0  0  0  0
 11 12  1  0  0  0
 12 13  1  0  0  0
 12 14  1  0  0  0
 12  5  1  0  0  0
  5  6  2  0  0  0
  6  7  1  0  0  0
  7  8  2  0  0  0
  8  1  1  0  0  0
  1  2  2  0  0  0
  1  3  1  0  0  0
  3 15  1  0  0  0
 15 16  1  0  0  0
 16 17  2  0  0  0
 17 18  1  0  0  0
 18 19  2  0  0  0
 19 23  1  0  0  0
 23 24  2  0  0  0
 23 25  1  0  0  0
 19 20  1  0  0  0
 20 21  1  0  0  0
 20 22  2  0  0  0
  8  9  1  0  0  0
  9 10  2  0  0  0
 10  5  1  0  0  0
 22 16  1  0  0  0
  3  4  1  0  0  0
 25 26  1  0  0  0
M  END
> <minimizedAffinity>
-7.25877

> <CNNscore>
0.3642837107

> <CNNaffinity>
5.0566587448

> <CNN_VS>
1.8420584202

> <CNNaffinity_variance>
0.4636777937

$$$$
[H]OC(=O)c1c([H])c([H])c(C([H])([H])N([H])C(=O)c2c([H])c([H])c(C(C([H])([H])[H])(C([H])([H])[H])C([H])([H])[H])c([H])c2[H])c([H])c1F


 26 27  0  0  0  0  0  0  0  0999 V2000
    3.2415    2.4188   16.6160 C   0  0  0  0  0  0  0  0  0  0  0  0
    2.0142    2.1266   16.5069 O   0  0  0  0  0  0  0  0  0  0  0  0
    3.9497    2.8195   15.4766 N   0  0  0  0  0  0  0  0  0  0  0  0
    4.9779    3.0711   15.6040 H   0  0  0  0  0  0  0  0  0  0  0  0
    5.1573    2.1885   20.4235 C   0  0  0  0  0  0  0  0  0  0  0  0
    5.2145    3.3352   19.6544 C   0  0  0  0  0  0  0  0  0  0  0  0
    4.6069    3.4179   18.4196 C   0  0  0  0  0  0  0  0  0  0  0  0
    3.9142    2.3437   17.9041 C   0  0  0  0  0  0  0  0  0  0  0  0
    3.8352    1.1901   18.6332 C   0  0  0  0  0  0  0  0  0  0  0  0
    4.4604    1.1387   19.8807 C   0  0  0  0  0  0  0  0  0  0  0  0
    4.7332    1.7664   22.7781 C   0  0  0  0  0  0  0  0  0  0  0  0
    5.8133    2.0916   21.7659 C   0  0  0  0  0  0  0  0  0  0  0  0
    6.3904    3.4357   22.1429 C   0  0  0  0  0  0  0  0  0  0  0  0
    6.9172    1.0537   21.7758 C   0  0  0  0  0  0  0  0  0  0  0  0
    3.4474    2.9541   14.1417 C   0  0  0  0  0  0  0  0  0  0  0  0
    2.9709    4.3255   13.8408 C   0  0  0  0  0  0  0  0  0  0  0  0
    3.7734    5.1268   13.0028 C   0  0  0  0  0  0  0  0  0  0  0  0
    3.3836    6.3940   12.6552 C   0  0  0  0  0  0  0  0  0  0  0  0
    2.1916    6.9636   13.0984 C   0  0  0  0  0  0  0  0  0  0  0  0
    1.4007    6.1871   13.9206 C   0  0  0  0  0  0  0  0  0  0  0  0
    0.2259    6.6917   14.3760 F   0  0  0  0  0  0  0  0  0  0  0  0
    1.8049    4.8936   14.2717 C   0  0  0  0  0  0  0  0  0  0  0  0
    1.8293    8.3039   12.6811 C   0  0  0  0  0  0  0  0  0  0  0  0
    2.0438    9.2490   13.4903 O   0  0  0  0  0  0  0  0  0  0  0  0
    1.2759    8.5429   11.4534 O   0  0  0  0  0  0  0  0  0  0  0  0
    1.8029    8.7160   10.5905 H   0  0  0  0  0  0  0  0  0  0  0  0
 11 12  1  0  0  0
 12 13  1  0  0  0
 12 14  1  0  0  0
 12  5  1  0  0  0
  5  6  2  0  0  0
  6  7  1  0  0  0
  7  8  2  0  0  0
  8  1  1  0  0  0
  1  2  2  0  0  0
  1  3  1  0  0  0
  3 15  1  0  0  0
 15 16  1  0  0  0
 16 17  2  0  0  0
 17 18  1  0  0  0
 18 19  2  0  0  0
 19 23  1  0  0  0
 23 24  2  0  0  0
 23 25  1  0  0  0
 19 20  1  0  0  0
 20 21  1  0  0  0
 20 22  2  0  0  0
  8  9  1  0  0  0
  9 10  2  0  0  0
 10  5  1  0  0  0
 22 16  1  0  0  0
  3  4  1  0  0  0
 25 26  1  0  0  0
M  END
> <minimizedAffinity>
-7.49712

> <CNNscore>
0.2919548452

> <CNNaffinity>
4.9672074318

> <CNN_VS>
1.4502003193

> <CNNaffinity_variance>
0.3636840582

$$$$
[H]OC(=O)c1c([H])c([H])c(C([H])([H])N([H])C(=O)c2c([H])c([H])c(C(C([H])([H])[H])(C([H])([H])[H])C([H])([H])[H])c([H])c2[H])c([H])c1F


 26 27  0  0  0  0  0  0  0  0999 V2000
    2.3369    2.7906   12.0472 C   0  0  0  0  0  0  0  0  0  0  0  0
    1.6897    3.7180   11.4775 O   0  0  0  0  0  0  0  0  0  0  0  0
    2.5154    1.5742   11.3773 N   0  0  0  0  0  0  0  0  0  0  0  0
    3.0758    0.8182   11.8785 H   0  0  0  0  0  0  0  0  0  0  0  0
    3.9077    3.3305   15.9793 C   0  0  0  0  0  0  0  0  0  0  0  0
    3.9448    4.3447   15.0412 C   0  0  0  0  0  0  0  0  0  0  0  0
    3.4484    4.1787   13.7658 C   0  0  0  0  0  0  0  0  0  0  0  0
    2.8925    2.9784   13.3789 C   0  0  0  0  0  0  0  0  0  0  0  0
    2.8381    1.9492   14.2771 C   0  0  0  0  0  0  0  0  0  0  0  0
    3.3484    2.1496   15.5612 C   0  0  0  0  0  0  0  0  0  0  0  0
    3.5078    4.4417   18.1023 C   0  0  0  0  0  0  0  0  0  0  0  0
    4.4436    3.5037   17.3666 C   0  0  0  0  0  0  0  0  0  0  0  0
    5.7946    4.1766   17.3047 C   0  0  0  0  0  0  0  0  0  0  0  0
    4.5794    2.1760   18.0839 C   0  0  0  0  0  0  0  0  0  0  0  0
    2.0458    1.2228   10.0702 C   0  0  0  0  0  0  0  0  0  0  0  0
    2.9683    0.3104    9.3526 C   0  0  0  0  0  0  0  0  0  0  0  0
    2.4038   -0.6037    8.4392 C   0  0  0  0  0  0  0  0  0  0  0  0
    3.1953   -1.4575    7.7162 C   0  0  0  0  0  0  0  0  0  0  0  0
    4.5838   -1.4787    7.8335 C   0  0  0  0  0  0  0  0  0  0  0  0
    5.1448   -0.5885    8.7264 C   0  0  0  0  0  0  0  0  0  0  0  0
    6.4937   -0.5636    8.8750 F   0  0  0  0  0  0  0  0  0  0  0  0
    4.3303    0.2807    9.4617 C   0  0  0  0  0  0  0  0  0  0  0  0
    5.3655   -2.3959    7.0277 C   0  0  0  0  0  0  0  0  0  0  0  0
    5.8379   -1.9651    5.9390 O   0  0  0  0  0  0  0  0  0  0  0  0
    5.5890   -3.6843    7.4289 O   0  0  0  0  0  0  0  0  0  0  0  0
    6.3615   -3.9912    8.0299 H   0  0  0  0  0  0  0  0  0  0  0  0
 11 12  1  0  0  0
 12 13  1  0  0  0
 12 14  1  0  0  0
 12  5  1  0  0  0
  5  6  2  0  0  0
  6  7  1  0  0  0
  7  8  2  0  0  0
  8  1  1  0  0  0
  1  2  2  0  0  0
  1  3  1  0  0  0
  3 15  1  0  0  0
 15 16  1  0  0  0
 16 17  2  0  0  0
 17 18  1  0  0  0
 18 19  2  0  0  0
 19 23  1  0  0  0
 23 24  2  0  0  0
 23 25  1  0  0  0
 19 20  1  0  0  0
 20 21  1  0  0  0
 20 22  2  0  0  0
  8  9  1  0  0  0
  9 10  2  0  0  0
 10  5  1  0  0  0
 22 16  1  0  0  0
  3  4  1  0  0  0
 25 26  1  0  0  0
M  END
> <minimizedAffinity>
-6.15866

> <CNNscore>
0.2879312932

> <CNNaffinity>
4.7200546265

> <CNN_VS>
1.3590514660

> <CNNaffinity_variance>
0.1138214469

$$$$
[H]OC(=O)c1c([H])c([H])c(C([H])([H])N([H])C(=O)c2c([H])c([H])c(C(C([H])([H])[H])(C([H])([H])[H])C([H])([H])[H])c([H])c2[H])c([H])c1F


 26 27  0  0  0  0  0  0  0  0999 V2000
    3.6765    2.5133   15.7547 C   0  0  0  0  0  0  0  0  0  0  0  0
    2.9732    1.5776   15.2718 O   0  0  0  0  0  0  0  0  0  0  0  0
    4.0263    3.5940   14.9361 N   0  0  0  0  0  0  0  0  0  0  0  0
    4.6081    4.3717   15.3760 H   0  0  0  0  0  0  0  0  0  0  0  0
    4.9103    2.3927   19.8393 C   0  0  0  0  0  0  0  0  0  0  0  0
    5.1177    3.5115   19.0549 C   0  0  0  0  0  0  0  0  0  0  0  0
    4.7312    3.5584   17.7323 C   0  0  0  0  0  0  0  0  0  0  0  0
    4.1182    2.4751   17.1407 C   0  0  0  0  0  0  0  0  0  0  0  0
    3.8961    1.3483   17.8822 C   0  0  0  0  0  0  0  0  0  0  0  0
    4.2983    1.3329   19.2192 C   0  0  0  0  0  0  0  0  0  0  0  0
    6.4137    1.2860   21.3939 C   0  0  0  0  0  0  0  0  0  0  0  0
    5.3259    2.3348   21.2765 C   0  0  0  0  0  0  0  0  0  0  0  0
    4.1620    1.8691   22.1193 C   0  0  0  0  0  0  0  0  0  0  0  0
    5.7968    3.6848   21.7779 C   0  0  0  0  0  0  0  0  0  0  0  0
    3.6748    3.7950   13.5619 C   0  0  0  0  0  0  0  0  0  0  0  0
    2.3616    4.4628   13.3948 C   0  0  0  0  0  0  0  0  0  0  0  0
    1.3056    3.7013   12.8532 C   0  0  0  0  0  0  0  0  0  0  0  0
    0.0553    4.2407   12.6974 C   0  0  0  0  0  0  0  0  0  0  0  0
   -0.2495    5.5521   13.0568 C   0  0  0  0  0  0  0  0  0  0  0  0
    0.7786    6.3054   13.5861 C   0  0  0  0  0  0  0  0  0  0  0  0
    0.5343    7.5875   13.9583 F   0  0  0  0  0  0  0  0  0  0  0  0
    2.0532    5.7481   13.7424 C   0  0  0  0  0  0  0  0  0  0  0  0
   -1.5968    6.0576   12.8810 C   0  0  0  0  0  0  0  0  0  0  0  0
   -2.0804    6.0474   11.7148 O   0  0  0  0  0  0  0  0  0  0  0  0
   -2.3248    6.5287   13.9388 O   0  0  0  0  0  0  0  0  0  0  0  0
   -2.9170    5.9569   14.5509 H   0  0  0  0  0  0  0  0  0  0  0  0
 11 12  1  0  0  0
 12 13  1  0  0  0
 12 14  1  0  0  0
 12  5  1  0  0  0
  5  6  2  0  0  0
  6  7  1  0  0  0
  7  8  2  0  0  0
  8  1  1  0  0  0
  1  2  2  0  0  0
  1  3  1  0  0  0
  3 15  1  0  0  0
 15 16  1  0  0  0
 16 17  2  0  0  0
 17 18  1  0  0  0
 18 19  2  0  0  0
 19 23  1  0  0  0
 23 24  2  0  0  0
 23 25  1  0  0  0
 19 20  1  0  0  0
 20 21  1  0  0  0
 20 22  2  0  0  0
  8  9  1  0  0  0
  9 10  2  0  0  0
 10  5  1  0  0  0
 22 16  1  0  0  0
  3  4  1  0  0  0
 25 26  1  0  0  0
M  END
> <minimizedAffinity>
-7.64446

> <CNNscore>
0.2669330537

> <CNNaffinity>
4.9651594162

> <CNN_VS>
1.3253651857

> <CNNaffinity_variance>
0.3586376309

$$$$
[H]Oc1c([H])c(O[H])c([H])c([C@@]([H])(O[H])C([H])([H])N([H])[C@@]([H])(C([H])([H])[H])C([H])([H])c2c([H])c([H])c(OC([H])([H])[H])c([H])c2[H])c1[H]


 27 28  0  0  0  0  0  0  0  0999 V2000
    3.6022    4.8936   22.4581 C   0  0  0  0  0  0  0  0  0  0  0  0
    4.6128    5.6834   21.7031 C   0  0  0  0  0  0  0  0  0  0  0  0
    4.3110    7.0863   21.8652 O   0  0  0  0  0  0  0  0  0  0  0  0
    5.0548    7.4559   22.3677 H   0  0  0  0  0  0  0  0  0  0  0  0
    4.5668    5.5012   20.2175 C   0  0  0  0  0  0  0  0  0  0  0  0
    5.6752    5.3834   19.4324 C   0  0  0  0  0  0  0  0  0  0  0  0
    5.5876    5.2113   18.0465 C   0  0  0  0  0  0  0  0  0  0  0  0
    6.7031    5.0904   17.2357 O   0  0  0  0  0  0  0  0  0  0  0  0
    4.3414    5.1612   17.4755 C   0  0  0  0  0  0  0  0  0  0  0  0
    3.1905    5.2735   18.2138 C   0  0  0  0  0  0  0  0  0  0  0  0
    1.9465    5.2175   17.5996 O   0  0  0  0  0  0  0  0  0  0  0  0
    3.3254    5.4419   19.5754 C   0  0  0  0  0  0  0  0  0  0  0  0
    7.0390    4.1238   17.0993 H   0  0  0  0  0  0  0  0  0  0  0  0
    1.5493    4.2686   17.5250 H   0  0  0  0  0  0  0  0  0  0  0  0
    3.9578    3.6947   23.0659 N   0  0  0  0  0  0  0  0  0  0  0  0
    4.0816    3.7355   24.1088 H   0  0  0  0  0  0  0  0  0  0  0  0
    4.5774    2.6375   22.4172 C   0  0  0  0  0  0  0  0  0  0  0  0
    5.9559    2.3465   22.9373 C   0  0  0  0  0  0  0  0  0  0  0  0
    3.7702    1.3797   22.2453 C   0  0  0  0  0  0  0  0  0  0  0  0
    3.3230    0.5695   18.0301 C   0  0  0  0  0  0  0  0  0  0  0  0
    2.6690   -0.1830   18.9829 C   0  0  0  0  0  0  0  0  0  0  0  0
    2.8098    0.0786   20.3358 C   0  0  0  0  0  0  0  0  0  0  0  0
    3.6141    1.1079   20.7913 C   0  0  0  0  0  0  0  0  0  0  0  0
    4.2695    1.8622   19.8384 C   0  0  0  0  0  0  0  0  0  0  0  0
    4.1236    1.5944   18.4884 C   0  0  0  0  0  0  0  0  0  0  0  0
    2.5902    1.2496   15.7879 C   0  0  0  0  0  0  0  0  0  0  0  0
    3.1975    0.3265   16.6635 O   0  0  0  0  0  0  0  0  0  0  0  0
 26 27  1  0  0  0
 27 20  1  0  0  0
 20 21  2  0  0  0
 21 22  1  0  0  0
 22 23  2  0  0  0
 23 19  1  0  0  0
 19 17  1  0  0  0
 17 18  1  0  0  0
 17 15  1  0  0  0
 15  1  1  0  0  0
  1  2  1  0  0  0
  2  3  1  0  0  0
  2  5  1  0  0  0
  5  6  2  0  0  0
  6  7  1  0  0  0
  7  8  1  0  0  0
  7  9  2  0  0  0
  9 10  1  0  0  0
 10 11  1  0  0  0
 10 12  2  0  0  0
 23 24  1  0  0  0
 24 25  2  0  0  0
 25 20  1  0  0  0
 12  5  1  0  0  0
 15 16  1  0  0  0
  3  4  1  0  0  0
  8 13  1  0  0  0
 11 14  1  0  0  0
M  END
> <minimizedAffinity>
-7.94865

> <CNNscore>
0.7196685672

> <CNNaffinity>
5.9358530045

> <CNN_VS>
4.2718467712

> <CNNaffinity_variance>
0.0447132476

$$$$
[H]Oc1c([H])c(O[H])c([H])c([C@@]([H])(O[H])C([H])([H])N([H])[C@@]([H])(C([H])([H])[H])C([H])([H])c2c([H])c([H])c(OC([H])([H])[H])c([H])c2[H])c1[H]


 27 28  0  0  0  0  0  0  0  0999 V2000
    3.6327    5.5719   19.8379 C   0  0  0  0  0  0  0  0  0  0  0  0
    4.1107    5.4138   21.2385 C   0  0  0  0  0  0  0  0  0  0  0  0
    5.4374    5.9758   21.3351 O   0  0  0  0  0  0  0  0  0  0  0  0
    5.3528    6.7423   21.9247 H   0  0  0  0  0  0  0  0  0  0  0  0
    4.3160    3.9956   21.6733 C   0  0  0  0  0  0  0  0  0  0  0  0
    4.0695    2.9149   20.8794 C   0  0  0  0  0  0  0  0  0  0  0  0
    4.2778    1.6048   21.3244 C   0  0  0  0  0  0  0  0  0  0  0  0
    4.0323    0.4973   20.5310 O   0  0  0  0  0  0  0  0  0  0  0  0
    4.7449    1.4186   22.6007 C   0  0  0  0  0  0  0  0  0  0  0  0
    5.0111    2.4665   23.4451 C   0  0  0  0  0  0  0  0  0  0  0  0
    5.4836    2.2381   24.7307 O   0  0  0  0  0  0  0  0  0  0  0  0
    4.7910    3.7395   22.9639 C   0  0  0  0  0  0  0  0  0  0  0  0
    4.8347    0.1830   19.9625 H   0  0  0  0  0  0  0  0  0  0  0  0
    6.5113    2.1974   24.8071 H   0  0  0  0  0  0  0  0  0  0  0  0
    4.3922    6.2771   18.9111 N   0  0  0  0  0  0  0  0  0  0  0  0
    4.0461    7.2432   18.6840 H   0  0  0  0  0  0  0  0  0  0  0  0
    5.2334    5.6932   17.9763 C   0  0  0  0  0  0  0  0  0  0  0  0
    6.5423    6.4132   17.8226 C   0  0  0  0  0  0  0  0  0  0  0  0
    5.4250    4.2042   18.0721 C   0  0  0  0  0  0  0  0  0  0  0  0
    3.1663    2.2935   14.9301 C   0  0  0  0  0  0  0  0  0  0  0  0
    3.4692    1.6355   16.1036 C   0  0  0  0  0  0  0  0  0  0  0  0
    4.1916    2.2494   17.1137 C   0  0  0  0  0  0  0  0  0  0  0  0
    4.6415    3.5516   16.9893 C   0  0  0  0  0  0  0  0  0  0  0  0
    4.3389    4.2116   15.8148 C   0  0  0  0  0  0  0  0  0  0  0  0
    3.6167    3.5913   14.8103 C   0  0  0  0  0  0  0  0  0  0  0  0
    1.1897    2.1915   13.4777 C   0  0  0  0  0  0  0  0  0  0  0  0
    2.4412    1.6980   13.8997 O   0  0  0  0  0  0  0  0  0  0  0  0
 26 27  1  0  0  0
 27 20  1  0  0  0
 20 21  2  0  0  0
 21 22  1  0  0  0
 22 23  2  0  0  0
 23 19  1  0  0  0
 19 17  1  0  0  0
 17 18  1  0  0  0
 17 15  1  0  0  0
 15  1  1  0  0  0
  1  2  1  0  0  0
  2  3  1  0  0  0
  2  5  1  0  0  0
  5  6  2  0  0  0
  6  7  1  0  0  0
  7  8  1  0  0  0
  7  9  2  0  0  0
  9 10  1  0  0  0
 10 11  1  0  0  0
 10 12  2  0  0  0
 23 24  1  0  0  0
 24 25  2  0  0  0
 25 20  1  0  0  0
 12  5  1  0  0  0
 15 16  1  0  0  0
  3  4  1  0  0  0
  8 13  1  0  0  0
 11 14  1  0  0  0
M  END
> <minimizedAffinity>
-6.78097

> <CNNscore>
0.7142608166

> <CNNaffinity>
5.6551694870

> <CNN_VS>
4.0392661095

> <CNNaffinity_variance>
0.0800846666

$$$$
[H]Oc1c([H])c(O[H])c([H])c([C@@]([H])(O[H])C([H])([H])N([H])[C@@]([H])(C([H])([H])[H])C([H])([H])c2c([H])c([H])c(OC([H])([H])[H])c([H])c2[H])c1[H]


 27 28  0  0  0  0  0  0  0  0999 V2000
    3.4575    4.7986   22.3915 C   0  0  0  0  0  0  0  0  0  0  0  0
    4.4655    5.5749   21.6192 C   0  0  0  0  0  0  0  0  0  0  0  0
    4.2128    6.9820   21.8224 O   0  0  0  0  0  0  0  0  0  0  0  0
    4.9844    7.3175   22.3067 H   0  0  0  0  0  0  0  0  0  0  0  0
    4.3633    5.4282   20.1325 C   0  0  0  0  0  0  0  0  0  0  0  0
    3.1825    5.4065   19.4512 C   0  0  0  0  0  0  0  0  0  0  0  0
    3.1315    5.2703   18.0595 C   0  0  0  0  0  0  0  0  0  0  0  0
    1.9412    5.2464   17.3533 O   0  0  0  0  0  0  0  0  0  0  0  0
    4.3143    5.1565   17.3741 C   0  0  0  0  0  0  0  0  0  0  0  0
    5.5326    5.1720   18.0046 C   0  0  0  0  0  0  0  0  0  0  0  0
    6.7089    5.0547   17.2762 O   0  0  0  0  0  0  0  0  0  0  0  0
    5.5341    5.3080   19.3765 C   0  0  0  0  0  0  0  0  0  0  0  0
    1.6020    6.1702   17.0411 H   0  0  0  0  0  0  0  0  0  0  0  0
    7.1051    5.9519   16.9573 H   0  0  0  0  0  0  0  0  0  0  0  0
    3.8578    3.7618   23.2271 N   0  0  0  0  0  0  0  0  0  0  0  0
    4.0016    4.0229   24.2349 H   0  0  0  0  0  0  0  0  0  0  0  0
    4.4926    2.6063   22.7979 C   0  0  0  0  0  0  0  0  0  0  0  0
    5.7237    2.2745   23.5914 C   0  0  0  0  0  0  0  0  0  0  0  0
    3.6259    1.3957   22.5826 C   0  0  0  0  0  0  0  0  0  0  0  0
    3.4177    0.5588   18.3540 C   0  0  0  0  0  0  0  0  0  0  0  0
    2.6895   -0.1701   19.2706 C   0  0  0  0  0  0  0  0  0  0  0  0
    2.7536    0.1001   20.6277 C   0  0  0  0  0  0  0  0  0  0  0  0
    3.5524    1.1148   21.1239 C   0  0  0  0  0  0  0  0  0  0  0  0
    4.2821    1.8454   20.2073 C   0  0  0  0  0  0  0  0  0  0  0  0
    4.2126    1.5692   18.8529 C   0  0  0  0  0  0  0  0  0  0  0  0
    2.6279    1.1119   16.0964 C   0  0  0  0  0  0  0  0  0  0  0  0
    3.3702    0.3066   16.9842 O   0  0  0  0  0  0  0  0  0  0  0  0
 26 27  1  0  0  0
 27 20  1  0  0  0
 20 21  2  0  0  0
 21 22  1  0  0  0
 22 23  2  0  0  0
 23 19  1  0  0  0
 19 17  1  0  0  0
 17 18  1  0  0  0
 17 15  1  0  0  0
 15  1  1  0  0  0
  1  2  1  0  0  0
  2  3  1  0  0  0
  2  5  1  0  0  0
  5  6  2  0  0  0
  6  7  1  0  0  0
  7  8  1  0  0  0
  7  9  2  0  0  0
  9 10  1  0  0  0
 10 11  1  0  0  0
 10 12  2  0  0  0
 23 24  1  0  0  0
 24 25  2  0  0  0
 25 20  1  0  0  0
 12  5  1  0  0  0
 15 16  1  0  0  0
  3  4  1  0  0  0
  8 13  1  0  0  0
 11 14  1  0  0  0
M  END
> <minimizedAffinity>
-7.99312

> <CNNscore>
0.6669505835

> <CNNaffinity>
5.7943730354

> <CNN_VS>
3.8645603657

> <CNNaffinity_variance>
0.1781345457

$$$$
[H]Oc1c([H])c(O[H])c([H])c([C@@]([H])(O[H])C([H])([H])N([H])[C@@]([H])(C([H])([H])[H])C([H])([H])c2c([H])c([H])c(OC([H])([H])[H])c([H])c2[H])c1[H]


 27 28  0  0  0  0  0  0  0  0999 V2000
    3.4883    5.9728   19.7478 C   0  0  0  0  0  0  0  0  0  0  0  0
    4.1325    5.9604   18.4061 C   0  0  0  0  0  0  0  0  0  0  0  0
    3.3949    6.8464   17.5365 O   0  0  0  0  0  0  0  0  0  0  0  0
    4.0043    7.5724   17.3273 H   0  0  0  0  0  0  0  0  0  0  0  0
    4.0575    4.6484   17.6882 C   0  0  0  0  0  0  0  0  0  0  0  0
    4.0617    3.4382   18.3159 C   0  0  0  0  0  0  0  0  0  0  0  0
    3.9872    2.2344   17.6065 C   0  0  0  0  0  0  0  0  0  0  0  0
    3.9905    0.9979   18.2288 O   0  0  0  0  0  0  0  0  0  0  0  0
    3.9076    2.2905   16.2382 C   0  0  0  0  0  0  0  0  0  0  0  0
    3.8990    3.4780   15.5514 C   0  0  0  0  0  0  0  0  0  0  0  0
    3.8168    3.4944   14.1654 O   0  0  0  0  0  0  0  0  0  0  0  0
    3.9744    4.6385   16.2918 C   0  0  0  0  0  0  0  0  0  0  0  0
    3.0574    0.6358   18.4818 H   0  0  0  0  0  0  0  0  0  0  0  0
    2.8547    3.5219   13.7949 H   0  0  0  0  0  0  0  0  0  0  0  0
    4.1027    6.6151   20.8169 N   0  0  0  0  0  0  0  0  0  0  0  0
    3.8184    7.6157   20.9675 H   0  0  0  0  0  0  0  0  0  0  0  0
    5.3139    6.2330   21.3732 C   0  0  0  0  0  0  0  0  0  0  0  0
    6.2952    7.3633   21.4951 C   0  0  0  0  0  0  0  0  0  0  0  0
    5.2535    5.4100   22.6310 C   0  0  0  0  0  0  0  0  0  0  0  0
    4.7526    1.2680   21.5277 C   0  0  0  0  0  0  0  0  0  0  0  0
    5.9067    1.9604   21.2269 C   0  0  0  0  0  0  0  0  0  0  0  0
    6.0692    3.2890   21.5835 C   0  0  0  0  0  0  0  0  0  0  0  0
    5.0791    3.9808   22.2582 C   0  0  0  0  0  0  0  0  0  0  0  0
    3.9230    3.2887   22.5600 C   0  0  0  0  0  0  0  0  0  0  0  0
    3.7684    1.9612   22.2002 C   0  0  0  0  0  0  0  0  0  0  0  0
    3.2918   -0.6737   21.1776 C   0  0  0  0  0  0  0  0  0  0  0  0
    4.5652   -0.0685   21.1801 O   0  0  0  0  0  0  0  0  0  0  0  0
 26 27  1  0  0  0
 27 20  1  0  0  0
 20 21  2  0  0  0
 21 22  1  0  0  0
 22 23  2  0  0  0
 23 19  1  0  0  0
 19 17  1  0  0  0
 17 18  1  0  0  0
 17 15  1  0  0  0
 15  1  1  0  0  0
  1  2  1  0  0  0
  2  3  1  0  0  0
  2  5  1  0  0  0
  5  6  2  0  0  0
  6  7  1  0  0  0
  7  8  1  0  0  0
  7  9  2  0  0  0
  9 10  1  0  0  0
 10 11  1  0  0  0
 10 12  2  0  0  0
 23 24  1  0  0  0
 24 25  2  0  0  0
 25 20  1  0  0  0
 12  5  1  0  0  0
 15 16  1  0  0  0
  3  4  1  0  0  0
  8 13  1  0  0  0
 11 14  1  0  0  0
M  END
> <minimizedAffinity>
-6.78373

> <CNNscore>
0.5882163644

> <CNNaffinity>
5.5065674782

> <CNN_VS>
3.2390530109

> <CNNaffinity_variance>
0.0134541672

$$$$
[H]Oc1c([H])c(O[H])c([H])c([C@@]([H])(O[H])C([H])([H])N([H])[C@@]([H])(C([H])([H])[H])C([H])([H])c2c([H])c([H])c(OC([H])([H])[H])c([H])c2[H])c1[H]


 27 28  0  0  0  0  0  0  0  0999 V2000
    5.9468    6.2844   20.8217 C   0  0  0  0  0  0  0  0  0  0  0  0
    4.5639    5.7737   21.0263 C   0  0  0  0  0  0  0  0  0  0  0  0
    3.9667    6.4975   22.1239 O   0  0  0  0  0  0  0  0  0  0  0  0
    3.2398    7.0088   21.7334 H   0  0  0  0  0  0  0  0  0  0  0  0
    4.4839    4.3495   21.4822 C   0  0  0  0  0  0  0  0  0  0  0  0
    4.6505    3.9564   22.7770 C   0  0  0  0  0  0  0  0  0  0  0  0
    4.5648    2.6137   23.1613 C   0  0  0  0  0  0  0  0  0  0  0  0
    4.7316    2.1984   24.4713 O   0  0  0  0  0  0  0  0  0  0  0  0
    4.3043    1.6764   22.1942 C   0  0  0  0  0  0  0  0  0  0  0  0
    4.1272    2.0116   20.8757 C   0  0  0  0  0  0  0  0  0  0  0  0
    3.8644    1.0341   19.9253 O   0  0  0  0  0  0  0  0  0  0  0  0
    4.2206    3.3464   20.5435 C   0  0  0  0  0  0  0  0  0  0  0  0
    3.8656    2.1716   25.0327 H   0  0  0  0  0  0  0  0  0  0  0  0
    2.8627    0.8333   19.7847 H   0  0  0  0  0  0  0  0  0  0  0  0
    6.2382    7.1126   19.7435 N   0  0  0  0  0  0  0  0  0  0  0  0
    6.7699    7.9886   19.9768 H   0  0  0  0  0  0  0  0  0  0  0  0
    5.5367    7.1229   18.5476 C   0  0  0  0  0  0  0  0  0  0  0  0
    5.2438    8.5064   18.0420 C   0  0  0  0  0  0  0  0  0  0  0  0
    6.0482    6.2267   17.4530 C   0  0  0  0  0  0  0  0  0  0  0  0
    3.2815    2.9607   16.9024 C   0  0  0  0  0  0  0  0  0  0  0  0
    4.6441    2.7526   16.9459 C   0  0  0  0  0  0  0  0  0  0  0  0
    5.5324    3.8002   17.1257 C   0  0  0  0  0  0  0  0  0  0  0  0
    5.0908    5.1033   17.2696 C   0  0  0  0  0  0  0  0  0  0  0  0
    3.7267    5.3131   17.2262 C   0  0  0  0  0  0  0  0  0  0  0  0
    2.8457    4.2610   17.0463 C   0  0  0  0  0  0  0  0  0  0  0  0
    2.7726    0.5809   16.5794 C   0  0  0  0  0  0  0  0  0  0  0  0
    2.3678    1.9238   16.7229 O   0  0  0  0  0  0  0  0  0  0  0  0
 26 27  1  0  0  0
 27 20  1  0  0  0
 20 21  2  0  0  0
 21 22  1  0  0  0
 22 23  2  0  0  0
 23 19  1  0  0  0
 19 17  1  0  0  0
 17 18  1  0  0  0
 17 15  1  0  0  0
 15  1  1  0  0  0
  1  2  1  0  0  0
  2  3  1  0  0  0
  2  5  1  0  0  0
  5  6  2  0  0  0
  6  7  1  0  0  0
  7  8  1  0  0  0
  7  9  2  0  0  0
  9 10  1  0  0  0
 10 11  1  0  0  0
 10 12  2  0  0  0
 23 24  1  0  0  0
 24 25  2  0  0  0
 25 20  1  0  0  0
 12  5  1  0  0  0
 15 16  1  0  0  0
  3  4  1  0  0  0
  8 13  1  0  0  0
 11 14  1  0  0  0
M  END
> <minimizedAffinity>
-7.02864

> <CNNscore>
0.5102714300

> <CNNaffinity>
5.2378578186

> <CNN_VS>
2.6727292538

> <CNNaffinity_variance>
0.2831388116

$$$$
[H]Oc1c([H])c(O[H])c([H])c([C@@]([H])(O[H])C([H])([H])N([H])[C@@]([H])(C([H])([H])[H])C([H])([H])c2c([H])c([H])c(OC([H])([H])[H])c([H])c2[H])c1[H]


 27 28  0  0  0  0  0  0  0  0999 V2000
    3.4972    5.5440   19.3283 C   0  0  0  0  0  0  0  0  0  0  0  0
    4.1704    5.5640   20.6556 C   0  0  0  0  0  0  0  0  0  0  0  0
    5.5302    6.0140   20.4720 O   0  0  0  0  0  0  0  0  0  0  0  0
    5.5859    6.8674   20.9312 H   0  0  0  0  0  0  0  0  0  0  0  0
    4.3462    4.2183   21.2883 C   0  0  0  0  0  0  0  0  0  0  0  0
    4.6890    4.0326   22.5948 C   0  0  0  0  0  0  0  0  0  0  0  0
    4.8404    2.7561   23.1476 C   0  0  0  0  0  0  0  0  0  0  0  0
    5.1881    2.5508   24.4717 O   0  0  0  0  0  0  0  0  0  0  0  0
    4.6339    1.6685   22.3375 C   0  0  0  0  0  0  0  0  0  0  0  0
    4.2872    1.7927   21.0160 C   0  0  0  0  0  0  0  0  0  0  0  0
    4.0859    0.6676   20.2275 O   0  0  0  0  0  0  0  0  0  0  0  0
    4.1494    3.0695   20.5147 C   0  0  0  0  0  0  0  0  0  0  0  0
    4.3917    2.4840   25.1252 H   0  0  0  0  0  0  0  0  0  0  0  0
    3.1166    0.3155   20.2252 H   0  0  0  0  0  0  0  0  0  0  0  0
    4.2126    5.8370   18.1726 N   0  0  0  0  0  0  0  0  0  0  0  0
    4.1105    6.8198   17.8144 H   0  0  0  0  0  0  0  0  0  0  0  0
    4.6430    4.8924   17.2533 C   0  0  0  0  0  0  0  0  0  0  0  0
    6.1045    4.5686   17.3737 C   0  0  0  0  0  0  0  0  0  0  0  0
    3.8069    3.6496   17.1152 C   0  0  0  0  0  0  0  0  0  0  0  0
    2.9211    3.0275   12.9376 C   0  0  0  0  0  0  0  0  0  0  0  0
    2.8701    1.9928   13.8478 C   0  0  0  0  0  0  0  0  0  0  0  0
    3.1514    2.1926   15.1894 C   0  0  0  0  0  0  0  0  0  0  0  0
    3.4963    3.4409   15.6757 C   0  0  0  0  0  0  0  0  0  0  0  0
    3.5477    4.4778   14.7653 C   0  0  0  0  0  0  0  0  0  0  0  0
    3.2653    4.2700   13.4265 C   0  0  0  0  0  0  0  0  0  0  0  0
    1.6139    3.5607   10.9291 C   0  0  0  0  0  0  0  0  0  0  0  0
    2.6424    2.8522   11.5834 O   0  0  0  0  0  0  0  0  0  0  0  0
 26 27  1  0  0  0
 27 20  1  0  0  0
 20 21  2  0  0  0
 21 22  1  0  0  0
 22 23  2  0  0  0
 23 19  1  0  0  0
 19 17  1  0  0  0
 17 18  1  0  0  0
 17 15  1  0  0  0
 15  1  1  0  0  0
  1  2  1  0  0  0
  2  3  1  0  0  0
  2  5  1  0  0  0
  5  6  2  0  0  0
  6  7  1  0  0  0
  7  8  1  0  0  0
  7  9  2  0  0  0
  9 10  1  0  0  0
 10 11  1  0  0  0
 10 12  2  0  0  0
 23 24  1  0  0  0
 24 25  2  0  0  0
 25 20  1  0  0  0
 12  5  1  0  0  0
 15 16  1  0  0  0
  3  4  1  0  0  0
  8 13  1  0  0  0
 11 14  1  0  0  0
M  END
> <minimizedAffinity>
-6.32408

> <CNNscore>
0.5020436049

> <CNNaffinity>
5.4050669670

> <CNN_VS>
2.7135794163

> <CNNaffinity_variance>
0.0869918019

$$$$
[H]Oc1c([H])c(O[H])c([H])c([C@@]([H])(O[H])C([H])([H])N([H])[C@@]([H])(C([H])([H])[H])C([H])([H])c2c([H])c([H])c(OC([H])([H])[H])c([H])c2[H])c1[H]


 27 28  0  0  0  0  0  0  0  0999 V2000
    3.4222    6.1776   18.9148 C   0  0  0  0  0  0  0  0  0  0  0  0
    4.4325    6.3576   19.9927 C   0  0  0  0  0  0  0  0  0  0  0  0
    5.7478    6.3181   19.3980 O   0  0  0  0  0  0  0  0  0  0  0  0
    6.1156    7.2080   19.5208 H   0  0  0  0  0  0  0  0  0  0  0  0
    4.4846    5.2450   20.9935 C   0  0  0  0  0  0  0  0  0  0  0  0
    3.6832    5.1759   22.0944 C   0  0  0  0  0  0  0  0  0  0  0  0
    3.7626    4.1158   23.0042 C   0  0  0  0  0  0  0  0  0  0  0  0
    2.9564    4.0311   24.1264 O   0  0  0  0  0  0  0  0  0  0  0  0
    4.6794    3.1234   22.7671 C   0  0  0  0  0  0  0  0  0  0  0  0
    5.5121    3.1383   21.6770 C   0  0  0  0  0  0  0  0  0  0  0  0
    6.4275    2.1149   21.4705 O   0  0  0  0  0  0  0  0  0  0  0  0
    5.3986    4.2024   20.8078 C   0  0  0  0  0  0  0  0  0  0  0  0
    2.0629    3.5342   23.9835 H   0  0  0  0  0  0  0  0  0  0  0  0
    6.0671    1.3254   20.9133 H   0  0  0  0  0  0  0  0  0  0  0  0
    3.7034    6.5784   17.6134 N   0  0  0  0  0  0  0  0  0  0  0  0
    3.5816    7.6042   17.4197 H   0  0  0  0  0  0  0  0  0  0  0  0
    3.6775    5.7400   16.5093 C   0  0  0  0  0  0  0  0  0  0  0  0
    3.4802    6.4709   15.2123 C   0  0  0  0  0  0  0  0  0  0  0  0
    4.7741    4.7150   16.4096 C   0  0  0  0  0  0  0  0  0  0  0  0
    3.1145    0.8460   17.3587 C   0  0  0  0  0  0  0  0  0  0  0  0
    2.7133    1.5491   16.2422 C   0  0  0  0  0  0  0  0  0  0  0  0
    3.2479    2.7896   15.9355 C   0  0  0  0  0  0  0  0  0  0  0  0
    4.2093    3.3786   16.7371 C   0  0  0  0  0  0  0  0  0  0  0  0
    4.6119    2.6757   17.8553 C   0  0  0  0  0  0  0  0  0  0  0  0
    4.0729    1.4367   18.1549 C   0  0  0  0  0  0  0  0  0  0  0  0
    2.2713   -0.7580   19.0149 C   0  0  0  0  0  0  0  0  0  0  0  0
    2.5921   -0.4032   17.6886 O   0  0  0  0  0  0  0  0  0  0  0  0
 26 27  1  0  0  0
 27 20  1  0  0  0
 20 21  2  0  0  0
 21 22  1  0  0  0
 22 23  2  0  0  0
 23 19  1  0  0  0
 19 17  1  0  0  0
 17 18  1  0  0  0
 17 15  1  0  0  0
 15  1  1  0  0  0
  1  2  1  0  0  0
  2  3  1  0  0  0
  2  5  1  0  0  0
  5  6  2  0  0  0
  6  7  1  0  0  0
  7  8  1  0  0  0
  7  9  2  0  0  0
  9 10  1  0  0  0
 10 11  1  0  0  0
 10 12  2  0  0  0
 23 24  1  0  0  0
 24 25  2  0  0  0
 25 20  1  0  0  0
 12  5  1  0  0  0
 15 16  1  0  0  0
  3  4  1  0  0  0
  8 13  1  0  0  0
 11 14  1  0  0  0
M  END
> <minimizedAffinity>
-6.85209

> <CNNscore>
0.5008367896

> <CNNaffinity>
5.4047117233

> <CNN_VS>
2.7068784237

> <CNNaffinity_variance>
0.1642956585

$$$$
[H]Oc1c([H])c(O[H])c([H])c([C@@]([H])(O[H])C([H])([H])N([H])[C@@]([H])(C([H])([H])[H])C([H])([H])c2c([H])c([H])c(OC([H])([H])[H])c([H])c2[H])c1[H]


 27 28  0  0  0  0  0  0  0  0999 V2000
    6.2679    6.0848   22.2187 C   0  0  0  0  0  0  0  0  0  0  0  0
    5.0251    5.5432   21.6045 C   0  0  0  0  0  0  0  0  0  0  0  0
    3.8933    6.2315   22.1793 O   0  0  0  0  0  0  0  0  0  0  0  0
    3.4987    6.7370   21.4505 H   0  0  0  0  0  0  0  0  0  0  0  0
    4.7422    4.1083   21.9260 C   0  0  0  0  0  0  0  0  0  0  0  0
    4.8222    3.5814   23.1810 C   0  0  0  0  0  0  0  0  0  0  0  0
    4.5464    2.2340   23.4387 C   0  0  0  0  0  0  0  0  0  0  0  0
    4.6233    1.6840   24.7067 O   0  0  0  0  0  0  0  0  0  0  0  0
    4.1856    1.4318   22.3861 C   0  0  0  0  0  0  0  0  0  0  0  0
    4.0880    1.9051   21.1021 C   0  0  0  0  0  0  0  0  0  0  0  0
    3.7190    1.0620   20.0624 O   0  0  0  0  0  0  0  0  0  0  0  0
    4.3690    3.2389   20.8956 C   0  0  0  0  0  0  0  0  0  0  0  0
    3.7480    1.7257   25.2526 H   0  0  0  0  0  0  0  0  0  0  0  0
    2.7031    1.0136   19.8917 H   0  0  0  0  0  0  0  0  0  0  0  0
    6.3276    7.4109   22.6323 N   0  0  0  0  0  0  0  0  0  0  0  0
    6.0688    7.5838   23.6362 H   0  0  0  0  0  0  0  0  0  0  0  0
    6.2478    8.5040   21.7830 C   0  0  0  0  0  0  0  0  0  0  0  0
    6.3363    9.8211   22.4992 C   0  0  0  0  0  0  0  0  0  0  0  0
    7.1203    8.4767   20.5579 C   0  0  0  0  0  0  0  0  0  0  0  0
    4.6207    7.7390   17.1181 C   0  0  0  0  0  0  0  0  0  0  0  0
    4.1357    8.3807   18.2382 C   0  0  0  0  0  0  0  0  0  0  0  0
    4.9385    8.6205   19.3413 C   0  0  0  0  0  0  0  0  0  0  0  0
    6.2641    8.2259   19.3678 C   0  0  0  0  0  0  0  0  0  0  0  0
    6.7511    7.5833   18.2469 C   0  0  0  0  0  0  0  0  0  0  0  0
    5.9426    7.3475   17.1487 C   0  0  0  0  0  0  0  0  0  0  0  0
    3.6432    8.4446   14.9795 C   0  0  0  0  0  0  0  0  0  0  0  0
    3.8336    7.4864   15.9961 O   0  0  0  0  0  0  0  0  0  0  0  0
 26 27  1  0  0  0
 27 20  1  0  0  0
 20 21  2  0  0  0
 21 22  1  0  0  0
 22 23  2  0  0  0
 23 19  1  0  0  0
 19 17  1  0  0  0
 17 18  1  0  0  0
 17 15  1  0  0  0
 15  1  1  0  0  0
  1  2  1  0  0  0
  2  3  1  0  0  0
  2  5  1  0  0  0
  5  6  2  0  0  0
  6  7  1  0  0  0
  7  8  1  0  0  0
  7  9  2  0  0  0
  9 10  1  0  0  0
 10 11  1  0  0  0
 10 12  2  0  0  0
 23 24  1  0  0  0
 24 25  2  0  0  0
 25 20  1  0  0  0
 12  5  1  0  0  0
 15 16  1  0  0  0
  3  4  1  0  0  0
  8 13  1  0  0  0
 11 14  1  0  0  0
M  END
> <minimizedAffinity>
-6.70967

> <CNNscore>
0.4350143969

> <CNNaffinity>
5.0681295395

> <CNN_VS>
2.2047092915

> <CNNaffinity_variance>
0.1371280104

$$$$
[H]Oc1c([H])c(O[H])c([H])c([C@@]([H])(O[H])C([H])([H])N([H])[C@@]([H])(C([H])([H])[H])C([H])([H])c2c([H])c([H])c(OC([H])([H])[H])c([H])c2[H])c1[H]


 27 28  0  0  0  0  0  0  0  0999 V2000
    3.7888    5.2587   22.2196 C   0  0  0  0  0  0  0  0  0  0  0  0
    4.6204    4.2631   22.9491 C   0  0  0  0  0  0  0  0  0  0  0  0
    5.9862    4.7318   22.9647 O   0  0  0  0  0  0  0  0  0  0  0  0
    6.1875    4.9155   23.8965 H   0  0  0  0  0  0  0  0  0  0  0  0
    4.7324    2.9293   22.2777 C   0  0  0  0  0  0  0  0  0  0  0  0
    3.6624    2.2115   21.8320 C   0  0  0  0  0  0  0  0  0  0  0  0
    3.8115    0.9687   21.2065 C   0  0  0  0  0  0  0  0  0  0  0  0
    2.7356    0.2277   20.7488 O   0  0  0  0  0  0  0  0  0  0  0  0
    5.0795    0.4713   21.0438 C   0  0  0  0  0  0  0  0  0  0  0  0
    6.1939    1.1477   21.4710 C   0  0  0  0  0  0  0  0  0  0  0  0
    7.4617    0.6117   21.2879 O   0  0  0  0  0  0  0  0  0  0  0  0
    5.9987    2.3681   22.0819 C   0  0  0  0  0  0  0  0  0  0  0  0
    2.4564    0.4225   19.7742 H   0  0  0  0  0  0  0  0  0  0  0  0
    7.9107    0.8717   20.3966 H   0  0  0  0  0  0  0  0  0  0  0  0
    4.3415    6.4630   21.7984 N   0  0  0  0  0  0  0  0  0  0  0  0
    4.2290    7.2694   22.4631 H   0  0  0  0  0  0  0  0  0  0  0  0
    4.5964    6.7915   20.4757 C   0  0  0  0  0  0  0  0  0  0  0  0
    4.8792    8.2520   20.2696 C   0  0  0  0  0  0  0  0  0  0  0  0
    5.5802    5.9245   19.7386 C   0  0  0  0  0  0  0  0  0  0  0  0
    3.3750    3.1349   17.2931 C   0  0  0  0  0  0  0  0  0  0  0  0
    2.9479    4.4342   17.4696 C   0  0  0  0  0  0  0  0  0  0  0  0
    3.6570    5.3308   18.2519 C   0  0  0  0  0  0  0  0  0  0  0  0
    4.8267    4.9616   18.8917 C   0  0  0  0  0  0  0  0  0  0  0  0
    5.2555    3.6609   18.7158 C   0  0  0  0  0  0  0  0  0  0  0  0
    4.5413    2.7711   17.9325 C   0  0  0  0  0  0  0  0  0  0  0  0
    2.7339    0.8269   16.7558 C   0  0  0  0  0  0  0  0  0  0  0  0
    2.6797    2.2144   16.5112 O   0  0  0  0  0  0  0  0  0  0  0  0
 26 27  1  0  0  0
 27 20  1  0  0  0
 20 21  2  0  0  0
 21 22  1  0  0  0
 22 23  2  0  0  0
 23 19  1  0  0  0
 19 17  1  0  0  0
 17 18  1  0  0  0
 17 15  1  0  0  0
 15  1  1  0  0  0
  1  2  1  0  0  0
  2  3  1  0  0  0
  2  5  1  0  0  0
  5  6  2  0  0  0
  6  7  1  0  0  0
  7  8  1  0  0  0
  7  9  2  0  0  0
  9 10  1  0  0  0
 10 11  1  0  0  0
 10 12  2  0  0  0
 23 24  1  0  0  0
 24 25  2  0  0  0
 25 20  1  0  0  0
 12  5  1  0  0  0
 15 16  1  0  0  0
  3  4  1  0  0  0
  8 13  1  0  0  0
 11 14  1  0  0  0
M  END
> <minimizedAffinity>
-7.30431

> <CNNscore>
0.4049619436

> <CNNaffinity>
5.3804869652

> <CNN_VS>
2.1788923740

> <CNNaffinity_variance>
0.1652958095

$$$$
[H]c1nc(N2C([H])([H])C([H])([H])C(N3C([H])([H])C([H])([H])OC([H])([H])C3([H])[H])(C([H])(C([H])([H])[H])C([H])([H])[H])C([H])([H])C2([H])[H])c([H])c2c1C(=O)c1c(n([H])c3c([H])c(C#N)c([H])c([H])c13)C2(C([H])([H])[H])C([H])([H])[H]


 38 43  0  0  0  0  0  0  0  0999 V2000
    3.0508    2.9205   14.1161 C   0  0  0  0  0  0  0  0  0  0  0  0
    3.6819    3.6298   15.1042 C   0  0  0  0  0  0  0  0  0  0  0  0
    3.8347    3.1097   16.3969 C   0  0  0  0  0  0  0  0  0  0  0  0
    3.3277    1.8594   16.6392 C   0  0  0  0  0  0  0  0  0  0  0  0
    2.6943    1.1632   15.6239 C   0  0  0  0  0  0  0  0  0  0  0  0
    2.5693    1.6983   14.4000 N   0  0  0  0  0  0  0  0  0  0  0  0
    3.4596    1.2725   17.9624 C   0  0  0  0  0  0  0  0  0  0  0  0
    2.9937    0.1167   18.1961 O   0  0  0  0  0  0  0  0  0  0  0  0
    4.1290    2.0264   19.0049 C   0  0  0  0  0  0  0  0  0  0  0  0
    4.6201    3.2750   18.7129 C   0  0  0  0  0  0  0  0  0  0  0  0
    5.2003    3.7843   19.8361 N   0  0  0  0  0  0  0  0  0  0  0  0
    5.0916    2.8880   20.8438 C   0  0  0  0  0  0  0  0  0  0  0  0
    5.5060    2.9123   22.1636 C   0  0  0  0  0  0  0  0  0  0  0  0
    5.2523    1.8341   22.9734 C   0  0  0  0  0  0  0  0  0  0  0  0
    4.5856    0.7523   22.4366 C   0  0  0  0  0  0  0  0  0  0  0  0
    4.1720    0.7254   21.1237 C   0  0  0  0  0  0  0  0  0  0  0  0
    4.4253    1.7982   20.3210 C   0  0  0  0  0  0  0  0  0  0  0  0
    4.5200    3.9200   17.4030 C   0  0  0  0  0  0  0  0  0  0  0  0
    5.9523    4.2453   16.9566 C   0  0  0  0  0  0  0  0  0  0  0  0
    3.8519    5.2766   17.6210 C   0  0  0  0  0  0  0  0  0  0  0  0
    5.6625    4.7049   19.9471 H   0  0  0  0  0  0  0  0  0  0  0  0
    2.2775    4.7674   10.1812 C   0  0  0  0  0  0  0  0  0  0  0  0
    1.3561    3.8232   10.9830 C   0  0  0  0  0  0  0  0  0  0  0  0
    2.1001    2.7946   11.7719 C   0  0  0  0  0  0  0  0  0  0  0  0
    2.8948    3.4494   12.7927 N   0  0  0  0  0  0  0  0  0  0  0  0
    3.5292    4.6927   12.3721 C   0  0  0  0  0  0  0  0  0  0  0  0
    3.6193    4.6043   10.8631 C   0  0  0  0  0  0  0  0  0  0  0  0
    1.7203    6.0398   10.3227 N   0  0  0  0  0  0  0  0  0  0  0  0
    2.3476    7.2212   10.0247 C   0  0  0  0  0  0  0  0  0  0  0  0
    2.1751    8.2707   11.0958 C   0  0  0  0  0  0  0  0  0  0  0  0
    0.9131    8.3199   11.6247 O   0  0  0  0  0  0  0  0  0  0  0  0
    0.4754    7.0703   12.0739 C   0  0  0  0  0  0  0  0  0  0  0  0
    0.4224    6.1767   10.8517 C   0  0  0  0  0  0  0  0  0  0  0  0
    3.6027    3.4979    8.4375 C   0  0  0  0  0  0  0  0  0  0  0  0
    2.3608    4.3332    8.7560 C   0  0  0  0  0  0  0  0  0  0  0  0
    1.2236    3.5549    8.1948 C   0  0  0  0  0  0  0  0  0  0  0  0
    5.6751    1.8254   24.3701 C   0  0  0  0  0  0  0  0  0  0  0  0
    5.9954    1.8275   25.4807 N   0  0  0  0  0  0  0  0  0  0  0  0
 34 35  1  0  0  0
 35 36  1  0  0  0
 35 22  1  0  0  0
 22 28  1  0  0  0
 28 29  1  0  0  0
 29 30  1  0  0  0
 30 31  1  0  0  0
 31 32  1  0  0  0
 32 33  1  0  0  0
 22 23  1  0  0  0
 23 24  1  0  0  0
 24 25  1  0  0  0
 25  1  1  0  0  0
  1  2  2  0  0  0
  2  3  1  0  0  0
  3  4  2  0  0  0
  4  5  1  0  0  0
  5  6  2  0  0  0
  4  7  1  0  0  0
  7  8  2  0  0  0
  7  9  1  0  0  0
  9 10  2  0  0  0
 10 11  1  0  0  0
 11 12  1  0  0  0
 12 13  2  0  0  0
 13 14  1  0  0  0
 14 37  1  0  0  0
 37 38  3  0  0  0
 14 15  2  0  0  0
 15 16  1  0  0  0
 16 17  2  0  0  0
 10 18  1  0  0  0
 18 19  1  0  0  0
 18 20  1  0  0  0
 25 26  1  0  0  0
 26 27  1  0  0  0
 27 22  1  0  0  0
 33 28  1  0  0  0
  6  1  1  0  0  0
 17  9  1  0  0  0
 18  3  1  0  0  0
 17 12  1  0  0  0
 11 21  1  0  0  0
M  END
> <minimizedAffinity>
-9.03048

> <CNNscore>
0.7283360958

> <CNNaffinity>
7.2586021423

> <CNN_VS>
5.2867021561

> <CNNaffinity_variance>
0.2582404315

$$$$
[H]c1nc(N2C([H])([H])C([H])([H])C(N3C([H])([H])C([H])([H])OC([H])([H])C3([H])[H])(C([H])(C([H])([H])[H])C([H])([H])[H])C([H])([H])C2([H])[H])c([H])c2c1C(=O)c1c(n([H])c3c([H])c(C#N)c([H])c([H])c13)C2(C([H])([H])[H])C([H])([H])[H]


 38 43  0  0  0  0  0  0  0  0999 V2000
    3.2757    3.4732   13.8476 C   0  0  0  0  0  0  0  0  0  0  0  0
    3.7778    4.1600   14.9219 C   0  0  0  0  0  0  0  0  0  0  0  0
    3.9027    3.5598   16.1825 C   0  0  0  0  0  0  0  0  0  0  0  0
    3.5027    2.2543   16.3036 C   0  0  0  0  0  0  0  0  0  0  0  0
    2.9987    1.5824   15.2029 C   0  0  0  0  0  0  0  0  0  0  0  0
    2.8961    2.1948   14.0136 N   0  0  0  0  0  0  0  0  0  0  0  0
    3.6112    1.5836   17.5885 C   0  0  0  0  0  0  0  0  0  0  0  0
    3.2437    0.3764   17.7102 O   0  0  0  0  0  0  0  0  0  0  0  0
    4.1439    2.3140   18.7226 C   0  0  0  0  0  0  0  0  0  0  0  0
    4.5312    3.6202   18.5510 C   0  0  0  0  0  0  0  0  0  0  0  0
    4.9935    4.0936   19.7425 N   0  0  0  0  0  0  0  0  0  0  0  0
    4.9108    3.1178   20.6761 C   0  0  0  0  0  0  0  0  0  0  0  0
    5.2427    3.0798   22.0188 C   0  0  0  0  0  0  0  0  0  0  0  0
    5.0447    1.9252   22.7331 C   0  0  0  0  0  0  0  0  0  0  0  0
    4.5160    0.8314   22.0799 C   0  0  0  0  0  0  0  0  0  0  0  0
    4.1848    0.8664   20.7440 C   0  0  0  0  0  0  0  0  0  0  0  0
    4.3824    2.0150   20.0362 C   0  0  0  0  0  0  0  0  0  0  0  0
    4.4479    4.3504   17.2853 C   0  0  0  0  0  0  0  0  0  0  0  0
    5.8668    4.8359   16.9576 C   0  0  0  0  0  0  0  0  0  0  0  0
    3.6430    5.6211   17.5529 C   0  0  0  0  0  0  0  0  0  0  0  0
    5.3593    5.0411   19.9473 H   0  0  0  0  0  0  0  0  0  0  0  0
    3.1355    5.0855    9.7399 C   0  0  0  0  0  0  0  0  0  0  0  0
    4.3350    5.0691   10.7116 C   0  0  0  0  0  0  0  0  0  0  0  0
    3.9414    5.2261   12.1449 C   0  0  0  0  0  0  0  0  0  0  0  0
    3.1487    4.0841   12.5568 N   0  0  0  0  0  0  0  0  0  0  0  0
    2.2053    3.5997   11.5564 C   0  0  0  0  0  0  0  0  0  0  0  0
    1.9566    4.7782   10.6387 C   0  0  0  0  0  0  0  0  0  0  0  0
    3.4056    4.0901    8.7986 N   0  0  0  0  0  0  0  0  0  0  0  0
    2.4664    3.4037    8.0742 C   0  0  0  0  0  0  0  0  0  0  0  0
    2.7171    1.9156    8.0376 C   0  0  0  0  0  0  0  0  0  0  0  0
    4.0348    1.5798    7.8776 O   0  0  0  0  0  0  0  0  0  0  0  0
    4.8606    2.2032    8.8181 C   0  0  0  0  0  0  0  0  0  0  0  0
    4.7366    3.6922    8.5683 C   0  0  0  0  0  0  0  0  0  0  0  0
    4.2870    7.2266    9.0347 C   0  0  0  0  0  0  0  0  0  0  0  0
    2.9810    6.4340    9.1202 C   0  0  0  0  0  0  0  0  0  0  0  0
    2.3972    6.5126    7.7539 C   0  0  0  0  0  0  0  0  0  0  0  0
    5.3835    1.8495   24.1506 C   0  0  0  0  0  0  0  0  0  0  0  0
    5.6585    1.7734   25.2707 N   0  0  0  0  0  0  0  0  0  0  0  0
 34 35  1  0  0  0
 35 36  1  0  0  0
 35 22  1  0  0  0
 22 28  1  0  0  0
 28 29  1  0  0  0
 29 30  1  0  0  0
 30 31  1  0  0  0
 31 32  1  0  0  0
 32 33  1  0  0  0
 22 23  1  0  0  0
 23 24  1  0  0  0
 24 25  1  0  0  0
 25  1  1  0  0  0
  1  2  2  0  0  0
  2  3  1  0  0  0
  3  4  2  0  0  0
  4  5  1  0  0  0
  5  6  2  0  0  0
  4  7  1  0  0  0
  7  8  2  0  0  0
  7  9  1  0  0  0
  9 10  2  0  0  0
 10 11  1  0  0  0
 11 12  1  0  0  0
 12 13  2  0  0  0
 13 14  1  0  0  0
 14 37  1  0  0  0
 37 38  3  0  0  0
 14 15  2  0  0  0
 15 16  1  0  0  0
 16 17  2  0  0  0
 10 18  1  0  0  0
 18 19  1  0  0  0
 18 20  1  0  0  0
 25 26  1  0  0  0
 26 27  1  0  0  0
 27 22  1  0  0  0
 33 28  1  0  0  0
  6  1  1  0  0  0
 17  9  1  0  0  0
 18  3  1  0  0  0
 17 12  1  0  0  0
 11 21  1  0  0  0
M  END
> <minimizedAffinity>
-8.57955

> <CNNscore>
0.6495886445

> <CNNaffinity>
7.1296892166

> <CNN_VS>
4.6313652992

> <CNNaffinity_variance>
0.2999961972

$$$$
[H]c1nc(N2C([H])([H])C([H])([H])C(N3C([H])([H])C([H])([H])OC([H])([H])C3([H])[H])(C([H])(C([H])([H])[H])C([H])([H])[H])C([H])([H])C2([H])[H])c([H])c2c1C(=O)c1c(n([H])c3c([H])c(C#N)c([H])c([H])c13)C2(C([H])([H])[H])C([H])([H])[H]


 38 43  0  0  0  0  0  0  0  0999 V2000
    3.6273    3.9590   13.7283 C   0  0  0  0  0  0  0  0  0  0  0  0
    4.0357    4.5800   14.8795 C   0  0  0  0  0  0  0  0  0  0  0  0
    4.0729    3.9012   16.1053 C   0  0  0  0  0  0  0  0  0  0  0  0
    3.6842    2.5867   16.1121 C   0  0  0  0  0  0  0  0  0  0  0  0
    3.2757    1.9821   14.9354 C   0  0  0  0  0  0  0  0  0  0  0  0
    3.2551    2.6689   13.7830 N   0  0  0  0  0  0  0  0  0  0  0  0
    3.7043    1.8357   17.3564 C   0  0  0  0  0  0  0  0  0  0  0  0
    3.3465    0.6196   17.3725 O   0  0  0  0  0  0  0  0  0  0  0  0
    4.1380    2.4968   18.5722 C   0  0  0  0  0  0  0  0  0  0  0  0
    4.5179    3.8150   18.5142 C   0  0  0  0  0  0  0  0  0  0  0  0
    4.8809    4.2152   19.7655 N   0  0  0  0  0  0  0  0  0  0  0  0
    4.7416    3.1805   20.6261 C   0  0  0  0  0  0  0  0  0  0  0  0
    4.9706    3.0594   21.9852 C   0  0  0  0  0  0  0  0  0  0  0  0
    4.7358    1.8593   22.6075 C   0  0  0  0  0  0  0  0  0  0  0  0
    4.2748    0.8047   21.8473 C   0  0  0  0  0  0  0  0  0  0  0  0
    4.0459    0.9224   20.4948 C   0  0  0  0  0  0  0  0  0  0  0  0
    4.2800    2.1161   19.8786 C   0  0  0  0  0  0  0  0  0  0  0  0
    4.5207    4.6244   17.2949 C   0  0  0  0  0  0  0  0  0  0  0  0
    5.9531    5.1440   17.1089 C   0  0  0  0  0  0  0  0  0  0  0  0
    3.6789    5.8672   17.5797 C   0  0  0  0  0  0  0  0  0  0  0  0
    5.2160    5.1511   20.0576 H   0  0  0  0  0  0  0  0  0  0  0  0
    3.8571    6.2468    9.9592 C   0  0  0  0  0  0  0  0  0  0  0  0
    3.7138    6.7963   11.3948 C   0  0  0  0  0  0  0  0  0  0  0  0
    2.9048    5.9152   12.2909 C   0  0  0  0  0  0  0  0  0  0  0  0
    3.5901    4.6505   12.4729 N   0  0  0  0  0  0  0  0  0  0  0  0
    4.2419    4.1288   11.2778 C   0  0  0  0  0  0  0  0  0  0  0  0
    3.5221    4.7786   10.1147 C   0  0  0  0  0  0  0  0  0  0  0  0
    5.1836    6.4907    9.5981 N   0  0  0  0  0  0  0  0  0  0  0  0
    5.7982    6.0266    8.4645 C   0  0  0  0  0  0  0  0  0  0  0  0
    7.1689    5.4512    8.7265 C   0  0  0  0  0  0  0  0  0  0  0  0
    7.9124    6.1758    9.6192 O   0  0  0  0  0  0  0  0  0  0  0  0
    7.2292    6.4061   10.8172 C   0  0  0  0  0  0  0  0  0  0  0  0
    6.0136    7.2356   10.4578 C   0  0  0  0  0  0  0  0  0  0  0  0
    1.5834    6.1241    8.8531 C   0  0  0  0  0  0  0  0  0  0  0  0
    2.8825    6.9097    9.0442 C   0  0  0  0  0  0  0  0  0  0  0  0
    2.4463    8.2940    9.3720 C   0  0  0  0  0  0  0  0  0  0  0  0
    4.9665    1.6957   24.0392 C   0  0  0  0  0  0  0  0  0  0  0  0
    5.1653    1.5600   25.1697 N   0  0  0  0  0  0  0  0  0  0  0  0
 34 35  1  0  0  0
 35 36  1  0  0  0
 35 22  1  0  0  0
 22 28  1  0  0  0
 28 29  1  0  0  0
 29 30  1  0  0  0
 30 31  1  0  0  0
 31 32  1  0  0  0
 32 33  1  0  0  0
 22 23  1  0  0  0
 23 24  1  0  0  0
 24 25  1  0  0  0
 25  1  1  0  0  0
  1  2  2  0  0  0
  2  3  1  0  0  0
  3  4  2  0  0  0
  4  5  1  0  0  0
  5  6  2  0  0  0
  4  7  1  0  0  0
  7  8  2  0  0  0
  7  9  1  0  0  0
  9 10  2  0  0  0
 10 11  1  0  0  0
 11 12  1  0  0  0
 12 13  2  0  0  0
 13 14  1  0  0  0
 14 37  1  0  0  0
 37 38  3  0  0  0
 14 15  2  0  0  0
 15 16  1  0  0  0
 16 17  2  0  0  0
 10 18  1  0  0  0
 18 19  1  0  0  0
 18 20  1  0  0  0
 25 26  1  0  0  0
 26 27  1  0  0  0
 27 22  1  0  0  0
 33 28  1  0  0  0
  6  1  1  0  0  0
 17  9  1  0  0  0
 18  3  1  0  0  0
 17 12  1  0  0  0
 11 21  1  0  0  0
M  END
> <minimizedAffinity>
-8.97037

> <CNNscore>
0.5749298334

> <CNNaffinity>
6.9418687820

> <CNN_VS>
3.9910874367

> <CNNaffinity_variance>
0.1592280418

$$$$
[H]c1nc(N2C([H])([H])C([H])([H])C(N3C([H])([H])C([H])([H])OC([H])([H])C3([H])[H])(C([H])(C([H])([H])[H])C([H])([H])[H])C([H])([H])C2([H])[H])c([H])c2c1C(=O)c1c(n([H])c3c([H])c(C#N)c([H])c([H])c13)C2(C([H])([H])[H])C([H])([H])[H]


 38 43  0  0  0  0  0  0  0  0999 V2000
    3.4867    3.9427   14.0717 C   0  0  0  0  0  0  0  0  0  0  0  0
    3.9855    4.5836   15.1754 C   0  0  0  0  0  0  0  0  0  0  0  0
    4.1225    3.9259   16.4057 C   0  0  0  0  0  0  0  0  0  0  0  0
    3.7379    2.6117   16.4663 C   0  0  0  0  0  0  0  0  0  0  0  0
    3.2368    1.9868   15.3370 C   0  0  0  0  0  0  0  0  0  0  0  0
    3.1222    2.6536   14.1783 N   0  0  0  0  0  0  0  0  0  0  0  0
    3.8595    1.8822   17.7176 C   0  0  0  0  0  0  0  0  0  0  0  0
    3.5062    0.6664   17.7834 O   0  0  0  0  0  0  0  0  0  0  0  0
    4.3887    2.5643   18.8830 C   0  0  0  0  0  0  0  0  0  0  0  0
    4.7604    3.8814   18.7720 C   0  0  0  0  0  0  0  0  0  0  0  0
    5.2225    4.3033   19.9829 N   0  0  0  0  0  0  0  0  0  0  0  0
    5.1548    3.2835   20.8695 C   0  0  0  0  0  0  0  0  0  0  0  0
    5.4928    3.1858   22.2076 C   0  0  0  0  0  0  0  0  0  0  0  0
    5.3109    1.9966   22.8673 C   0  0  0  0  0  0  0  0  0  0  0  0
    4.7919    0.9289   22.1649 C   0  0  0  0  0  0  0  0  0  0  0  0
    4.4546    1.0232   20.8335 C   0  0  0  0  0  0  0  0  0  0  0  0
    4.6361    2.2062   20.1801 C   0  0  0  0  0  0  0  0  0  0  0  0
    4.6635    4.6697   17.5427 C   0  0  0  0  0  0  0  0  0  0  0  0
    6.0754    5.1864   17.2330 C   0  0  0  0  0  0  0  0  0  0  0  0
    3.8454    5.9170   17.8731 C   0  0  0  0  0  0  0  0  0  0  0  0
    5.5784    5.2441   20.2310 H   0  0  0  0  0  0  0  0  0  0  0  0
    2.7783    5.7452   10.1041 C   0  0  0  0  0  0  0  0  0  0  0  0
    3.3496    4.3466   10.4218 C   0  0  0  0  0  0  0  0  0  0  0  0
    4.1803    4.3116   11.6638 C   0  0  0  0  0  0  0  0  0  0  0  0
    3.3472    4.6124   12.8117 N   0  0  0  0  0  0  0  0  0  0  0  0
    2.3513    5.6538   12.5904 C   0  0  0  0  0  0  0  0  0  0  0  0
    2.8787    6.4702   11.4293 C   0  0  0  0  0  0  0  0  0  0  0  0
    1.4676    5.5234    9.6769 N   0  0  0  0  0  0  0  0  0  0  0  0
    0.5393    6.4976    9.4173 C   0  0  0  0  0  0  0  0  0  0  0  0
   -0.8140    6.2018   10.0169 C   0  0  0  0  0  0  0  0  0  0  0  0
   -1.1963    4.8921    9.9019 O   0  0  0  0  0  0  0  0  0  0  0  0
   -0.2284    4.0104   10.3925 C   0  0  0  0  0  0  0  0  0  0  0  0
    0.9984    4.2044    9.5252 C   0  0  0  0  0  0  0  0  0  0  0  0
    4.6549    7.3833    9.6537 C   0  0  0  0  0  0  0  0  0  0  0  0
    3.6101    6.4292    9.0713 C   0  0  0  0  0  0  0  0  0  0  0  0
    4.3628    5.5823    8.1068 C   0  0  0  0  0  0  0  0  0  0  0  0
    5.6566    1.8578   24.2783 C   0  0  0  0  0  0  0  0  0  0  0  0
    5.9441    1.7585   25.3934 N   0  0  0  0  0  0  0  0  0  0  0  0
 34 35  1  0  0  0
 35 36  1  0  0  0
 35 22  1  0  0  0
 22 28  1  0  0  0
 28 29  1  0  0  0
 29 30  1  0  0  0
 30 31  1  0  0  0
 31 32  1  0  0  0
 32 33  1  0  0  0
 22 23  1  0  0  0
 23 24  1  0  0  0
 24 25  1  0  0  0
 25  1  1  0  0  0
  1  2  2  0  0  0
  2  3  1  0  0  0
  3  4  2  0  0  0
  4  5  1  0  0  0
  5  6  2  0  0  0
  4  7  1  0  0  0
  7  8  2  0  0  0
  7  9  1  0  0  0
  9 10  2  0  0  0
 10 11  1  0  0  0
 11 12  1  0  0  0
 12 13  2  0  0  0
 13 14  1  0  0  0
 14 37  1  0  0  0
 37 38  3  0  0  0
 14 15  2  0  0  0
 15 16  1  0  0  0
 16 17  2  0  0  0
 10 18  1  0  0  0
 18 19  1  0  0  0
 18 20  1  0  0  0
 25 26  1  0  0  0
 26 27  1  0  0  0
 27 22  1  0  0  0
 33 28  1  0  0  0
  6  1  1  0  0  0
 17  9  1  0  0  0
 18  3  1  0  0  0
 17 12  1  0  0  0
 11 21  1  0  0  0
M  END
> <minimizedAffinity>
-8.83498

> <CNNscore>
0.5033510327

> <CNNaffinity>
6.9071645737

> <CNN_VS>
3.4767284393

> <CNNaffinity_variance>
0.2192660868

$$$$
[H]c1nc(N2C([H])([H])C([H])([H])C(N3C([H])([H])C([H])([H])OC([H])([H])C3([H])[H])(C([H])(C([H])([H])[H])C([H])([H])[H])C([H])([H])C2([H])[H])c([H])c2c1C(=O)c1c(n([H])c3c([H])c(C#N)c([H])c([H])c13)C2(C([H])([H])[H])C([H])([H])[H]


 38 43  0  0  0  0  0  0  0  0999 V2000
    1.1708    3.4498   12.4272 C   0  0  0  0  0  0  0  0  0  0  0  0
    1.7908    4.2310   13.3670 C   0  0  0  0  0  0  0  0  0  0  0  0
    2.2939    3.6866   14.5567 C   0  0  0  0  0  0  0  0  0  0  0  0
    2.1429    2.3377   14.7482 C   0  0  0  0  0  0  0  0  0  0  0  0
    1.5126    1.5703   13.7834 C   0  0  0  0  0  0  0  0  0  0  0  0
    1.0453    2.1319   12.6581 N   0  0  0  0  0  0  0  0  0  0  0  0
    2.6469    1.7217   15.9644 C   0  0  0  0  0  0  0  0  0  0  0  0
    2.5118    0.4749   16.1504 O   0  0  0  0  0  0  0  0  0  0  0  0
    3.3032    2.5520   16.9559 C   0  0  0  0  0  0  0  0  0  0  0  0
    3.4303    3.8985   16.7182 C   0  0  0  0  0  0  0  0  0  0  0  0
    4.0726    4.4654   17.7782 N   0  0  0  0  0  0  0  0  0  0  0  0
    4.3606    3.5101   18.6921 C   0  0  0  0  0  0  0  0  0  0  0  0
    4.9927    3.5551   19.9221 C   0  0  0  0  0  0  0  0  0  0  0  0
    5.1479    2.4004   20.6466 C   0  0  0  0  0  0  0  0  0  0  0  0
    4.6627    1.2227   20.1171 C   0  0  0  0  0  0  0  0  0  0  0  0
    4.0332    1.1750   18.8936 C   0  0  0  0  0  0  0  0  0  0  0  0
    3.8801    2.3240   18.1753 C   0  0  0  0  0  0  0  0  0  0  0  0
    2.9456    4.5777   15.5158 C   0  0  0  0  0  0  0  0  0  0  0  0
    4.1571    5.2715   14.8778 C   0  0  0  0  0  0  0  0  0  0  0  0
    2.0335    5.7125   15.9787 C   0  0  0  0  0  0  0  0  0  0  0  0
    4.3218    5.4628   17.9067 H   0  0  0  0  0  0  0  0  0  0  0  0
   -0.7662    5.1434    8.8393 C   0  0  0  0  0  0  0  0  0  0  0  0
   -0.9399    3.7285    9.4321 C   0  0  0  0  0  0  0  0  0  0  0  0
    0.3044    3.1904   10.0614 C   0  0  0  0  0  0  0  0  0  0  0  0
    0.6570    4.0038   11.2087 N   0  0  0  0  0  0  0  0  0  0  0  0
    0.4509    5.4361   11.0315 C   0  0  0  0  0  0  0  0  0  0  0  0
    0.4755    5.6605    9.5341 C   0  0  0  0  0  0  0  0  0  0  0  0
   -1.9328    5.8332    9.1749 N   0  0  0  0  0  0  0  0  0  0  0  0
   -2.6902    5.6178   10.2966 C   0  0  0  0  0  0  0  0  0  0  0  0
   -4.1703    5.5500   10.0084 C   0  0  0  0  0  0  0  0  0  0  0  0
   -4.6013    6.4810    9.1017 O   0  0  0  0  0  0  0  0  0  0  0  0
   -3.8593    6.4530    7.9170 C   0  0  0  0  0  0  0  0  0  0  0  0
   -2.4385    6.8134    8.2994 C   0  0  0  0  0  0  0  0  0  0  0  0
    0.9000    5.3361    6.9434 C   0  0  0  0  0  0  0  0  0  0  0  0
   -0.5468    5.0710    7.3652 C   0  0  0  0  0  0  0  0  0  0  0  0
   -0.9244    3.8147    6.6632 C   0  0  0  0  0  0  0  0  0  0  0  0
    5.8097    2.4108   21.9472 C   0  0  0  0  0  0  0  0  0  0  0  0
    6.3182    2.4185   22.9852 N   0  0  0  0  0  0  0  0  0  0  0  0
 34 35  1  0  0  0
 35 36  1  0  0  0
 35 22  1  0  0  0
 22 28  1  0  0  0
 28 29  1  0  0  0
 29 30  1  0  0  0
 30 31  1  0  0  0
 31 32  1  0  0  0
 32 33  1  0  0  0
 22 23  1  0  0  0
 23 24  1  0  0  0
 24 25  1  0  0  0
 25  1  1  0  0  0
  1  2  2  0  0  0
  2  3  1  0  0  0
  3  4  2  0  0  0
  4  5  1  0  0  0
  5  6  2  0  0  0
  4  7  1  0  0  0
  7  8  2  0  0  0
  7  9  1  0  0  0
  9 10  2  0  0  0
 10 11  1  0  0  0
 11 12  1  0  0  0
 12 13  2  0  0  0
 13 14  1  0  0  0
 14 37  1  0  0  0
 37 38  3  0  0  0
 14 15  2  0  0  0
 15 16  1  0  0  0
 16 17  2  0  0  0
 10 18  1  0  0  0
 18 19  1  0  0  0
 18 20  1  0  0  0
 25 26  1  0  0  0
 26 27  1  0  0  0
 27 22  1  0  0  0
 33 28  1  0  0  0
  6  1  1  0  0  0
 17  9  1  0  0  0
 18  3  1  0  0  0
 17 12  1  0  0  0
 11 21  1  0  0  0
M  END
> <minimizedAffinity>
-7.44438

> <CNNscore>
0.4056637585

> <CNNaffinity>
6.5875372887

> <CNN_VS>
2.6723251343

> <CNNaffinity_variance>
0.4286812842

$$$$
[H]c1nc(N2C([H])([H])C([H])([H])C(N3C([H])([H])C([H])([H])OC([H])([H])C3([H])[H])(C([H])(C([H])([H])[H])C([H])([H])[H])C([H])([H])C2([H])[H])c([H])c2c1C(=O)c1c(n([H])c3c([H])c(C#N)c([H])c([H])c13)C2(C([H])([H])[H])C([H])([H])[H]


 38 43  0  0  0  0  0  0  0  0999 V2000
    2.9540    2.6306   13.7690 C   0  0  0  0  0  0  0  0  0  0  0  0
    2.8206    1.7693   14.8265 C   0  0  0  0  0  0  0  0  0  0  0  0
    3.3516    2.0698   16.0885 C   0  0  0  0  0  0  0  0  0  0  0  0
    4.0126    3.2625   16.2285 C   0  0  0  0  0  0  0  0  0  0  0  0
    4.1339    4.1153   15.1446 C   0  0  0  0  0  0  0  0  0  0  0  0
    3.6105    3.7887   13.9532 N   0  0  0  0  0  0  0  0  0  0  0  0
    4.5820    3.6239   17.5160 C   0  0  0  0  0  0  0  0  0  0  0  0
    5.1953    4.7247   17.6551 O   0  0  0  0  0  0  0  0  0  0  0  0
    4.4377    2.7097   18.6326 C   0  0  0  0  0  0  0  0  0  0  0  0
    3.7667    1.5269   18.4424 C   0  0  0  0  0  0  0  0  0  0  0  0
    3.7591    0.8405   19.6199 N   0  0  0  0  0  0  0  0  0  0  0  0
    4.4119    1.5587   20.5626 C   0  0  0  0  0  0  0  0  0  0  0  0
    4.6831    1.3181   21.8979 C   0  0  0  0  0  0  0  0  0  0  0  0
    5.3821    2.2480   22.6254 C   0  0  0  0  0  0  0  0  0  0  0  0
    5.7940    3.4024   21.9926 C   0  0  0  0  0  0  0  0  0  0  0  0
    5.5256    3.6443   20.6641 C   0  0  0  0  0  0  0  0  0  0  0  0
    4.8309    2.7186   19.9431 C   0  0  0  0  0  0  0  0  0  0  0  0
    3.1713    1.1060   17.1734 C   0  0  0  0  0  0  0  0  0  0  0  0
    1.6799    0.8608   17.4414 C   0  0  0  0  0  0  0  0  0  0  0  0
    3.7487   -0.2689   16.8413 C   0  0  0  0  0  0  0  0  0  0  0  0
    3.3340   -0.0851   19.8094 H   0  0  0  0  0  0  0  0  0  0  0  0
    1.3021    2.0762    9.7124 C   0  0  0  0  0  0  0  0  0  0  0  0
    0.6634    2.8244   10.9021 C   0  0  0  0  0  0  0  0  0  0  0  0
    0.9861    2.2171   12.2291 C   0  0  0  0  0  0  0  0  0  0  0  0
    2.4104    2.3264   12.4777 N   0  0  0  0  0  0  0  0  0  0  0  0
    3.2554    2.1016   11.3112 C   0  0  0  0  0  0  0  0  0  0  0  0
    2.4127    1.2773   10.3608 C   0  0  0  0  0  0  0  0  0  0  0  0
    1.7526    3.0728    8.8445 N   0  0  0  0  0  0  0  0  0  0  0  0
    2.5061    2.8670    7.7185 C   0  0  0  0  0  0  0  0  0  0  0  0
    3.6655    3.8259    7.5974 C   0  0  0  0  0  0  0  0  0  0  0  0
    3.3582    5.1134    7.9477 O   0  0  0  0  0  0  0  0  0  0  0  0
    2.7722    5.1945    9.2146 C   0  0  0  0  0  0  0  0  0  0  0  0
    1.4713    4.4231    9.1288 C   0  0  0  0  0  0  0  0  0  0  0  0
    0.2459   -0.2244    9.7116 C   0  0  0  0  0  0  0  0  0  0  0  0
    0.3093    1.1644    9.0725 C   0  0  0  0  0  0  0  0  0  0  0  0
   -1.1069    1.6148    8.9981 C   0  0  0  0  0  0  0  0  0  0  0  0
    5.6857    2.0274   24.0357 C   0  0  0  0  0  0  0  0  0  0  0  0
    5.9162    1.8381   25.1524 N   0  0  0  0  0  0  0  0  0  0  0  0
 34 35  1  0  0  0
 35 36  1  0  0  0
 35 22  1  0  0  0
 22 28  1  0  0  0
 28 29  1  0  0  0
 29 30  1  0  0  0
 30 31  1  0  0  0
 31 32  1  0  0  0
 32 33  1  0  0  0
 22 23  1  0  0  0
 23 24  1  0  0  0
 24 25  1  0  0  0
 25  1  1  0  0  0
  1  2  2  0  0  0
  2  3  1  0  0  0
  3  4  2  0  0  0
  4  5  1  0  0  0
  5  6  2  0  0  0
  4  7  1  0  0  0
  7  8  2  0  0  0
  7  9  1  0  0  0
  9 10  2  0  0  0
 10 11  1  0  0  0
 11 12  1  0  0  0
 12 13  2  0  0  0
 13 14  1  0  0  0
 14 37  1  0  0  0
 37 38  3  0  0  0
 14 15  2  0  0  0
 15 16  1  0  0  0
 16 17  2  0  0  0
 10 18  1  0  0  0
 18 19  1  0  0  0
 18 20  1  0  0  0
 25 26  1  0  0  0
 26 27  1  0  0  0
 27 22  1  0  0  0
 33 28  1  0  0  0
  6  1  1  0  0  0
 17  9  1  0  0  0
 18  3  1  0  0  0
 17 12  1  0  0  0
 11 21  1  0  0  0
M  END
> <minimizedAffinity>
-8.29971

> <CNNscore>
0.4055620432

> <CNNaffinity>
6.8619089127

> <CNN_VS>
2.7829298973

> <CNNaffinity_variance>
0.1515290886

$$$$
[H]c1nc(N2C([H])([H])C([H])([H])C(N3C([H])([H])C([H])([H])OC([H])([H])C3([H])[H])(C([H])(C([H])([H])[H])C([H])([H])[H])C([H])([H])C2([H])[H])c([H])c2c1C(=O)c1c(n([H])c3c([H])c(C#N)c([H])c([H])c13)C2(C([H])([H])[H])C([H])([H])[H]


 38 43  0  0  0  0  0  0  0  0999 V2000
    3.1552    3.5402   13.8805 C   0  0  0  0  0  0  0  0  0  0  0  0
    3.1096    2.5421   14.8183 C   0  0  0  0  0  0  0  0  0  0  0  0
    3.5651    2.7454   16.1283 C   0  0  0  0  0  0  0  0  0  0  0  0
    4.0607    3.9849   16.4400 C   0  0  0  0  0  0  0  0  0  0  0  0
    4.0961    4.9765   15.4745 C   0  0  0  0  0  0  0  0  0  0  0  0
    3.6496    4.7395   14.2316 N   0  0  0  0  0  0  0  0  0  0  0  0
    4.5457    4.2497   17.7844 C   0  0  0  0  0  0  0  0  0  0  0  0
    5.0060    5.3929   18.0821 O   0  0  0  0  0  0  0  0  0  0  0  0
    4.4947    3.1907   18.7740 C   0  0  0  0  0  0  0  0  0  0  0  0
    3.9893    1.9660   18.4132 C   0  0  0  0  0  0  0  0  0  0  0  0
    4.0424    1.1408   19.4966 N   0  0  0  0  0  0  0  0  0  0  0  0
    4.5720    1.8108   20.5460 C   0  0  0  0  0  0  0  0  0  0  0  0
    4.8391    1.4395   21.8519 C   0  0  0  0  0  0  0  0  0  0  0  0
    5.3921    2.3510   22.7156 C   0  0  0  0  0  0  0  0  0  0  0  0
    5.6648    3.6189   22.2461 C   0  0  0  0  0  0  0  0  0  0  0  0
    5.4002    3.9911   20.9473 C   0  0  0  0  0  0  0  0  0  0  0  0
    4.8507    3.0835   20.0907 C   0  0  0  0  0  0  0  0  0  0  0  0
    3.4858    1.6370   17.0789 C   0  0  0  0  0  0  0  0  0  0  0  0
    2.0331    1.1727   17.2536 C   0  0  0  0  0  0  0  0  0  0  0  0
    4.2463    0.3996   16.6051 C   0  0  0  0  0  0  0  0  0  0  0  0
    3.7376    0.1522   19.5539 H   0  0  0  0  0  0  0  0  0  0  0  0
    1.4257    3.1571    9.8364 C   0  0  0  0  0  0  0  0  0  0  0  0
    0.8117    2.7009   11.1774 C   0  0  0  0  0  0  0  0  0  0  0  0
    1.8277    2.2298   12.1671 C   0  0  0  0  0  0  0  0  0  0  0  0
    2.6883    3.3354   12.5405 N   0  0  0  0  0  0  0  0  0  0  0  0
    3.0479    4.2291   11.4463 C   0  0  0  0  0  0  0  0  0  0  0  0
    2.8774    3.4065   10.1865 C   0  0  0  0  0  0  0  0  0  0  0  0
    0.7228    4.3090    9.4780 N   0  0  0  0  0  0  0  0  0  0  0  0
    1.0179    5.1235    8.4161 C   0  0  0  0  0  0  0  0  0  0  0  0
    0.9905    6.5909    8.7688 C   0  0  0  0  0  0  0  0  0  0  0  0
   -0.0464    6.9437    9.5905 O   0  0  0  0  0  0  0  0  0  0  0  0
   -0.1066    6.1515   10.7410 C   0  0  0  0  0  0  0  0  0  0  0  0
   -0.3630    4.7359   10.2665 C   0  0  0  0  0  0  0  0  0  0  0  0
    2.5259    1.1425    8.7692 C   0  0  0  0  0  0  0  0  0  0  0  0
    1.3144    2.0760    8.8140 C   0  0  0  0  0  0  0  0  0  0  0  0
    0.1366    1.1692    8.8810 C   0  0  0  0  0  0  0  0  0  0  0  0
    5.6869    1.9939   24.0996 C   0  0  0  0  0  0  0  0  0  0  0  0
    5.9148    1.6947   25.1926 N   0  0  0  0  0  0  0  0  0  0  0  0
 34 35  1  0  0  0
 35 36  1  0  0  0
 35 22  1  0  0  0
 22 28  1  0  0  0
 28 29  1  0  0  0
 29 30  1  0  0  0
 30 31  1  0  0  0
 31 32  1  0  0  0
 32 33  1  0  0  0
 22 23  1  0  0  0
 23 24  1  0  0  0
 24 25  1  0  0  0
 25  1  1  0  0  0
  1  2  2  0  0  0
  2  3  1  0  0  0
  3  4  2  0  0  0
  4  5  1  0  0  0
  5  6  2  0  0  0
  4  7  1  0  0  0
  7  8  2  0  0  0
  7  9  1  0  0  0
  9 10  2  0  0  0
 10 11  1  0  0  0
 11 12  1  0  0  0
 12 13  2  0  0  0
 13 14  1  0  0  0
 14 37  1  0  0  0
 37 38  3  0  0  0
 14 15  2  0  0  0
 15 16  1  0  0  0
 16 17  2  0  0  0
 10 18  1  0  0  0
 18 19  1  0  0  0
 18 20  1  0  0  0
 25 26  1  0  0  0
 26 27  1  0  0  0
 27 22  1  0  0  0
 33 28  1  0  0  0
  6  1  1  0  0  0
 17  9  1  0  0  0
 18  3  1  0  0  0
 17 12  1  0  0  0
 11 21  1  0  0  0
M  END
> <minimizedAffinity>
-8.22892

> <CNNscore>
0.3091012836

> <CNNaffinity>
6.7309174538

> <CNN_VS>
2.0805351734

> <CNNaffinity_variance>
0.2293905318

$$$$
[H]c1nc(N2C([H])([H])C([H])([H])C(N3C([H])([H])C([H])([H])OC([H])([H])C3([H])[H])(C([H])(C([H])([H])[H])C([H])([H])[H])C([H])([H])C2([H])[H])c([H])c2c1C(=O)c1c(n([H])c3c([H])c(C#N)c([H])c([H])c13)C2(C([H])([H])[H])C([H])([H])[H]


 38 43  0  0  0  0  0  0  0  0999 V2000
    3.0807    2.8923   13.7380 C   0  0  0  0  0  0  0  0  0  0  0  0
    2.9853    1.9780   14.7542 C   0  0  0  0  0  0  0  0  0  0  0  0
    3.4718    2.2564   16.0391 C   0  0  0  0  0  0  0  0  0  0  0  0
    4.0495    3.4824   16.2444 C   0  0  0  0  0  0  0  0  0  0  0  0
    4.1338    4.3886   15.2011 C   0  0  0  0  0  0  0  0  0  0  0  0
    3.6553    4.0816   13.9858 N   0  0  0  0  0  0  0  0  0  0  0  0
    4.5698    3.8228   17.5582 C   0  0  0  0  0  0  0  0  0  0  0  0
    5.1060    4.9542   17.7576 O   0  0  0  0  0  0  0  0  0  0  0  0
    4.4660    2.8525   18.6310 C   0  0  0  0  0  0  0  0  0  0  0  0
    3.8786    1.6378   18.3757 C   0  0  0  0  0  0  0  0  0  0  0  0
    3.8949    0.9008   19.5221 N   0  0  0  0  0  0  0  0  0  0  0  0
    4.4811    1.6177   20.5086 C   0  0  0  0  0  0  0  0  0  0  0  0
    4.7430    1.3364   21.8378 C   0  0  0  0  0  0  0  0  0  0  0  0
    5.3652    2.2768   22.6194 C   0  0  0  0  0  0  0  0  0  0  0  0
    5.7111    3.4827   22.0458 C   0  0  0  0  0  0  0  0  0  0  0  0
    5.4518    3.7652   20.7235 C   0  0  0  0  0  0  0  0  0  0  0  0
    4.8334    2.8289   19.9487 C   0  0  0  0  0  0  0  0  0  0  0  0
    3.3359    1.2356   17.0774 C   0  0  0  0  0  0  0  0  0  0  0  0
    1.8594    0.8815   17.3027 C   0  0  0  0  0  0  0  0  0  0  0  0
    4.0094   -0.0824   16.6987 C   0  0  0  0  0  0  0  0  0  0  0  0
    3.5288   -0.0582   19.6625 H   0  0  0  0  0  0  0  0  0  0  0  0
    1.7692    1.7040    9.6931 C   0  0  0  0  0  0  0  0  0  0  0  0
    3.1806    2.1388   10.1427 C   0  0  0  0  0  0  0  0  0  0  0  0
    3.1689    3.1724   11.2222 C   0  0  0  0  0  0  0  0  0  0  0  0
    2.5824    2.6108   12.4235 N   0  0  0  0  0  0  0  0  0  0  0  0
    1.4401    1.7339   12.1958 C   0  0  0  0  0  0  0  0  0  0  0  0
    0.8886    2.1394   10.8451 C   0  0  0  0  0  0  0  0  0  0  0  0
    1.8417    0.3196    9.5266 N   0  0  0  0  0  0  0  0  0  0  0  0
    2.9963   -0.4073    9.3977 C   0  0  0  0  0  0  0  0  0  0  0  0
    2.9381   -1.4194    8.2794 C   0  0  0  0  0  0  0  0  0  0  0  0
    1.7413   -2.0787    8.1909 O   0  0  0  0  0  0  0  0  0  0  0  0
    0.6541   -1.2017    8.1290 C   0  0  0  0  0  0  0  0  0  0  0  0
    0.6555   -0.4338    9.4348 C   0  0  0  0  0  0  0  0  0  0  0  0
    0.4853    3.6339    8.6757 C   0  0  0  0  0  0  0  0  0  0  0  0
    1.3765    2.4125    8.4401 C   0  0  0  0  0  0  0  0  0  0  0  0
    2.4597    2.8983    7.5430 C   0  0  0  0  0  0  0  0  0  0  0  0
    5.6567    2.0141   24.0250 C   0  0  0  0  0  0  0  0  0  0  0  0
    5.9044    1.8029   25.1341 N   0  0  0  0  0  0  0  0  0  0  0  0
 34 35  1  0  0  0
 35 36  1  0  0  0
 35 22  1  0  0  0
 22 28  1  0  0  0
 28 29  1  0  0  0
 29 30  1  0  0  0
 30 31  1  0  0  0
 31 32  1  0  0  0
 32 33  1  0  0  0
 22 23  1  0  0  0
 23 24  1  0  0  0
 24 25  1  0  0  0
 25  1  1  0  0  0
  1  2  2  0  0  0
  2  3  1  0  0  0
  3  4  2  0  0  0
  4  5  1  0  0  0
  5  6  2  0  0  0
  4  7  1  0  0  0
  7  8  2  0  0  0
  7  9  1  0  0  0
  9 10  2  0  0  0
 10 11  1  0  0  0
 11 12  1  0  0  0
 12 13  2  0  0  0
 13 14  1  0  0  0
 14 37  1  0  0  0
 37 38  3  0  0  0
 14 15  2  0  0  0
 15 16  1  0  0  0
 16 17  2  0  0  0
 10 18  1  0  0  0
 18 19  1  0  0  0
 18 20  1  0  0  0
 25 26  1  0  0  0
 26 27  1  0  0  0
 27 22  1  0  0  0
 33 28  1  0  0  0
  6  1  1  0  0  0
 17  9  1  0  0  0
 18  3  1  0  0  0
 17 12  1  0  0  0
 11 21  1  0  0  0
M  END
> <minimizedAffinity>
-8.36576

> <CNNscore>
0.2965465486

> <CNNaffinity>
6.8058195114

> <CNN_VS>
2.0182423592

> <CNNaffinity_variance>
0.1244018823

$$$$
[H]c1nc(N2C([H])([H])C([H])([H])C(N3C([H])([H])C([H])([H])OC([H])([H])C3([H])[H])(C([H])(C([H])([H])[H])C([H])([H])[H])C([H])([H])C2([H])[H])c([H])c2c1C(=O)c1c(n([H])c3c([H])c(C#N)c([H])c([H])c13)C2(C([H])([H])[H])C([H])([H])[H]


 38 43  0  0  0  0  0  0  0  0999 V2000
    1.8657    5.3073    8.9146 C   0  0  0  0  0  0  0  0  0  0  0  0
    2.6443    5.6284    9.9955 C   0  0  0  0  0  0  0  0  0  0  0  0
    2.6871    4.8145   11.1360 C   0  0  0  0  0  0  0  0  0  0  0  0
    1.9183    3.6796   11.1319 C   0  0  0  0  0  0  0  0  0  0  0  0
    1.1402    3.3775   10.0274 C   0  0  0  0  0  0  0  0  0  0  0  0
    1.1283    4.1845    8.9556 N   0  0  0  0  0  0  0  0  0  0  0  0
    1.9261    2.7999   12.2889 C   0  0  0  0  0  0  0  0  0  0  0  0
    1.2183    1.7481   12.2945 O   0  0  0  0  0  0  0  0  0  0  0  0
    2.7523    3.1431   13.4304 C   0  0  0  0  0  0  0  0  0  0  0  0
    3.5049    4.2908   13.3866 C   0  0  0  0  0  0  0  0  0  0  0  0
    4.1905    4.4026   14.5592 N   0  0  0  0  0  0  0  0  0  0  0  0
    3.8933    3.3498   15.3554 C   0  0  0  0  0  0  0  0  0  0  0  0
    4.3117    2.9920   16.6248 C   0  0  0  0  0  0  0  0  0  0  0  0
    3.8316    1.8410   17.1970 C   0  0  0  0  0  0  0  0  0  0  0  0
    2.9392    1.0732   16.4781 C   0  0  0  0  0  0  0  0  0  0  0  0
    2.5211    1.4268   15.2150 C   0  0  0  0  0  0  0  0  0  0  0  0
    2.9996    2.5712   14.6484 C   0  0  0  0  0  0  0  0  0  0  0  0
    3.5409    5.2161   12.2532 C   0  0  0  0  0  0  0  0  0  0  0  0
    5.0066    5.3183   11.8088 C   0  0  0  0  0  0  0  0  0  0  0  0
    3.1901    6.6013   12.7939 C   0  0  0  0  0  0  0  0  0  0  0  0
    4.8452    5.1551   14.8395 H   0  0  0  0  0  0  0  0  0  0  0  0
    2.0245    8.0671    5.4721 C   0  0  0  0  0  0  0  0  0  0  0  0
    1.6305    8.3906    6.9293 C   0  0  0  0  0  0  0  0  0  0  0  0
    0.9233    7.2680    7.6174 C   0  0  0  0  0  0  0  0  0  0  0  0
    1.8215    6.1370    7.7462 N   0  0  0  0  0  0  0  0  0  0  0  0
    2.6814    5.9025    6.5926 C   0  0  0  0  0  0  0  0  0  0  0  0
    1.9704    6.5549    5.4256 C   0  0  0  0  0  0  0  0  0  0  0  0
    3.3071    8.5940    5.3077 N   0  0  0  0  0  0  0  0  0  0  0  0
    4.1214    8.3837    4.2257 C   0  0  0  0  0  0  0  0  0  0  0  0
    5.5424    8.0492    4.6093 C   0  0  0  0  0  0  0  0  0  0  0  0
    6.0251    8.7950    5.6511 O   0  0  0  0  0  0  0  0  0  0  0  0
    5.1836    8.7571    6.7671 C   0  0  0  0  0  0  0  0  0  0  0  0
    3.8735    9.3796    6.3300 C   0  0  0  0  0  0  0  0  0  0  0  0
    0.0639    7.6295    3.9318 C   0  0  0  0  0  0  0  0  0  0  0  0
    1.0372    8.6537    4.5194 C   0  0  0  0  0  0  0  0  0  0  0  0
    0.1747    9.7655    5.0030 C   0  0  0  0  0  0  0  0  0  0  0  0
    4.2513    1.4330   18.5337 C   0  0  0  0  0  0  0  0  0  0  0  0
    4.5681    1.1021   19.5950 N   0  0  0  0  0  0  0  0  0  0  0  0
 34 35  1  0  0  0
 35 36  1  0  0  0
 35 22  1  0  0  0
 22 28  1  0  0  0
 28 29  1  0  0  0
 29 30  1  0  0  0
 30 31  1  0  0  0
 31 32  1  0  0  0
 32 33  1  0  0  0
 22 23  1  0  0  0
 23 24  1  0  0  0
 24 25  1  0  0  0
 25  1  1  0  0  0
  1  2  2  0  0  0
  2  3  1  0  0  0
  3  4  2  0  0  0
  4  5  1  0  0  0
  5  6  2  0  0  0
  4  7  1  0  0  0
  7  8  2  0  0  0
  7  9  1  0  0  0
  9 10  2  0  0  0
 10 11  1  0  0  0
 11 12  1  0  0  0
 12 13  2  0  0  0
 13 14  1  0  0  0
 14 37  1  0  0  0
 37 38  3  0  0  0
 14 15  2  0  0  0
 15 16  1  0  0  0
 16 17  2  0  0  0
 10 18  1  0  0  0
 18 19  1  0  0  0
 18 20  1  0  0  0
 25 26  1  0  0  0
 26 27  1  0  0  0
 27 22  1  0  0  0
 33 28  1  0  0  0
  6  1  1  0  0  0
 17  9  1  0  0  0
 18  3  1  0  0  0
 17 12  1  0  0  0
 11 21  1  0  0  0
M  END
> <minimizedAffinity>
-7.70810

> <CNNscore>
0.2169848830

> <CNNaffinity>
5.8934340477

> <CNN_VS>
1.2787860632

> <CNNaffinity_variance>
0.1384938210

$$$$
[H]OC(=O)c1c([H])c([H])nc([H])c1N([H])C([H])([H])C1([H])c2c([H])c([H])c(Sc3sc([H])c([H])c3[H])c([H])c2OC([H])([H])C1([H])[H]


 29 32  0  0  0  0  0  0  0  0999 V2000
    5.1087    3.7063   17.7272 C   0  0  0  0  0  0  0  0  0  0  0  0
    5.9558    4.9030   17.3241 C   0  0  0  0  0  0  0  0  0  0  0  0
    5.0845    6.1030   17.1160 C   0  0  0  0  0  0  0  0  0  0  0  0
    4.0126    5.8148   16.2696 O   0  0  0  0  0  0  0  0  0  0  0  0
    3.6513    4.5144   15.9173 C   0  0  0  0  0  0  0  0  0  0  0  0
    2.7614    4.2963   14.8577 C   0  0  0  0  0  0  0  0  0  0  0  0
    2.3862    3.0192   14.4875 C   0  0  0  0  0  0  0  0  0  0  0  0
    2.9220    1.9674   15.2017 C   0  0  0  0  0  0  0  0  0  0  0  0
    3.8115    2.1783   16.2612 C   0  0  0  0  0  0  0  0  0  0  0  0
    4.1626    3.4506   16.6028 C   0  0  0  0  0  0  0  0  0  0  0  0
    4.3725    4.0771   18.9855 C   0  0  0  0  0  0  0  0  0  0  0  0
    4.8875    3.3982   20.1721 N   0  0  0  0  0  0  0  0  0  0  0  0
    5.7629    3.7516   20.5975 H   0  0  0  0  0  0  0  0  0  0  0  0
    4.0397    2.1117   22.0919 C   0  0  0  0  0  0  0  0  0  0  0  0
    3.4490    0.9026   22.5246 C   0  0  0  0  0  0  0  0  0  0  0  0
    3.0938   -0.0852   21.6548 C   0  0  0  0  0  0  0  0  0  0  0  0
    3.3092    0.0912   20.3535 N   0  0  0  0  0  0  0  0  0  0  0  0
    3.8659    1.2152   19.8889 C   0  0  0  0  0  0  0  0  0  0  0  0
    4.2490    2.2606   20.7415 C   0  0  0  0  0  0  0  0  0  0  0  0
    4.1756    4.3319   22.9545 O   0  0  0  0  0  0  0  0  0  0  0  0
    4.3549    3.1227   23.0613 C   0  0  0  0  0  0  0  0  0  0  0  0
    4.9359    2.7125   24.2802 O   0  0  0  0  0  0  0  0  0  0  0  0
    5.8866    2.9388   24.5198 H   0  0  0  0  0  0  0  0  0  0  0  0
    1.2568    2.8280   13.1369 S   0  0  0  0  0  0  0  0  0  0  0  0
    0.6392    4.4289   12.5749 C   0  0  0  0  0  0  0  0  0  0  0  0
   -0.6054    4.9629   12.7991 C   0  0  0  0  0  0  0  0  0  0  0  0
   -0.8473    6.1819   12.2805 C   0  0  0  0  0  0  0  0  0  0  0  0
    0.1681    6.7775   11.5776 C   0  0  0  0  0  0  0  0  0  0  0  0
    1.4195    5.6290   11.6603 S   0  0  0  0  0  0  0  0  0  0  0  0
 20 21  2  0  0  0
 21 22  1  0  0  0
 21 14  1  0  0  0
 14 15  2  0  0  0
 15 16  1  0  0  0
 16 17  2  0  0  0
 17 18  1  0  0  0
 18 19  2  0  0  0
 19 12  1  0  0  0
 12 11  1  0  0  0
 11  1  1  0  0  0
  1  2  1  0  0  0
  2  3  1  0  0  0
  3  4  1  0  0  0
  4  5  1  0  0  0
  5  6  2  0  0  0
  6  7  1  0  0  0
  7 24  1  0  0  0
 24 25  1  0  0  0
 25 26  2  0  0  0
 26 27  1  0  0  0
 27 28  2  0  0  0
 28 29  1  0  0  0
  7  8  2  0  0  0
  8  9  1  0  0  0
  9 10  2  0  0  0
 19 14  1  0  0  0
 10  1  1  0  0  0
 10  5  1  0  0  0
 29 25  1  0  0  0
 22 23  1  0  0  0
 12 13  1  0  0  0
M  END
> <minimizedAffinity>
-7.74565

> <CNNscore>
0.3078760505

> <CNNaffinity>
6.2957496643

> <CNN_VS>
1.9383105040

> <CNNaffinity_variance>
0.5648268461

$$$$
[H]OC(=O)c1c([H])c([H])nc([H])c1N([H])C([H])([H])C1([H])c2c([H])c([H])c(Sc3sc([H])c([H])c3[H])c([H])c2OC([H])([H])C1([H])[H]


 29 32  0  0  0  0  0  0  0  0999 V2000
    5.4039    3.9086   17.8248 C   0  0  0  0  0  0  0  0  0  0  0  0
    6.1694    5.1328   17.3482 C   0  0  0  0  0  0  0  0  0  0  0  0
    5.2245    6.2700   17.1109 C   0  0  0  0  0  0  0  0  0  0  0  0
    4.1518    5.8827   16.3061 O   0  0  0  0  0  0  0  0  0  0  0  0
    3.8593    4.5491   16.0202 C   0  0  0  0  0  0  0  0  0  0  0  0
    2.9591    4.2327   14.9947 C   0  0  0  0  0  0  0  0  0  0  0  0
    2.6510    2.9207   14.6903 C   0  0  0  0  0  0  0  0  0  0  0  0
    3.2643    1.9348   15.4353 C   0  0  0  0  0  0  0  0  0  0  0  0
    4.1646    2.2439   16.4611 C   0  0  0  0  0  0  0  0  0  0  0  0
    4.4482    3.5485   16.7378 C   0  0  0  0  0  0  0  0  0  0  0  0
    4.6770    4.2924   19.0847 C   0  0  0  0  0  0  0  0  0  0  0  0
    5.1280    3.5462   20.2567 N   0  0  0  0  0  0  0  0  0  0  0  0
    6.0245    3.8198   20.6967 H   0  0  0  0  0  0  0  0  0  0  0  0
    4.0230    2.3650   22.1123 C   0  0  0  0  0  0  0  0  0  0  0  0
    3.3562    1.1878   22.5217 C   0  0  0  0  0  0  0  0  0  0  0  0
    3.0868    0.1672   21.6590 C   0  0  0  0  0  0  0  0  0  0  0  0
    3.4632    0.2794   20.3875 N   0  0  0  0  0  0  0  0  0  0  0  0
    4.0982    1.3707   19.9460 C   0  0  0  0  0  0  0  0  0  0  0  0
    4.3987    2.4476   20.7926 C   0  0  0  0  0  0  0  0  0  0  0  0
    3.3866    4.0421   23.6852 O   0  0  0  0  0  0  0  0  0  0  0  0
    4.2411    3.4141   23.0679 C   0  0  0  0  0  0  0  0  0  0  0  0
    5.5729    3.7866   23.3492 O   0  0  0  0  0  0  0  0  0  0  0  0
    5.9440    4.6817   23.0779 H   0  0  0  0  0  0  0  0  0  0  0  0
    1.5033    2.6043   13.3793 S   0  0  0  0  0  0  0  0  0  0  0  0
    2.3453    2.5222   11.7842 C   0  0  0  0  0  0  0  0  0  0  0  0
    2.2108    1.5501   10.8244 C   0  0  0  0  0  0  0  0  0  0  0  0
    2.9434    1.6953    9.7039 C   0  0  0  0  0  0  0  0  0  0  0  0
    3.7549    2.7976    9.6232 C   0  0  0  0  0  0  0  0  0  0  0  0
    3.4741    3.5918   11.1004 S   0  0  0  0  0  0  0  0  0  0  0  0
 20 21  2  0  0  0
 21 22  1  0  0  0
 21 14  1  0  0  0
 14 15  2  0  0  0
 15 16  1  0  0  0
 16 17  2  0  0  0
 17 18  1  0  0  0
 18 19  2  0  0  0
 19 12  1  0  0  0
 12 11  1  0  0  0
 11  1  1  0  0  0
  1  2  1  0  0  0
  2  3  1  0  0  0
  3  4  1  0  0  0
  4  5  1  0  0  0
  5  6  2  0  0  0
  6  7  1  0  0  0
  7 24  1  0  0  0
 24 25  1  0  0  0
 25 26  2  0  0  0
 26 27  1  0  0  0
 27 28  2  0  0  0
 28 29  1  0  0  0
  7  8  2  0  0  0
  8  9  1  0  0  0
  9 10  2  0  0  0
 19 14  1  0  0  0
 10  1  1  0  0  0
 10  5  1  0  0  0
 29 25  1  0  0  0
 22 23  1  0  0  0
 12 13  1  0  0  0
M  END
> <minimizedAffinity>
-7.61360

> <CNNscore>
0.2670869231

> <CNNaffinity>
6.1904325485

> <CNN_VS>
1.6533836126

> <CNNaffinity_variance>
0.5778053999

$$$$
[H]OC(=O)c1c([H])c([H])nc([H])c1N([H])C([H])([H])C1([H])c2c([H])c([H])c(Sc3sc([H])c([H])c3[H])c([H])c2OC([H])([H])C1([H])[H]


 29 32  0  0  0  0  0  0  0  0999 V2000
    4.3526    4.9425   22.2438 C   0  0  0  0  0  0  0  0  0  0  0  0
    3.7358    4.1512   23.3863 C   0  0  0  0  0  0  0  0  0  0  0  0
    4.5173    2.8959   23.6230 C   0  0  0  0  0  0  0  0  0  0  0  0
    4.7122    2.1849   22.4379 O   0  0  0  0  0  0  0  0  0  0  0  0
    4.4676    2.7287   21.1768 C   0  0  0  0  0  0  0  0  0  0  0  0
    4.4083    1.8948   20.0529 C   0  0  0  0  0  0  0  0  0  0  0  0
    4.1678    2.4064   18.7921 C   0  0  0  0  0  0  0  0  0  0  0  0
    3.9884    3.7700   18.6834 C   0  0  0  0  0  0  0  0  0  0  0  0
    4.0465    4.6086   19.8021 C   0  0  0  0  0  0  0  0  0  0  0  0
    4.2856    4.0737   21.0332 C   0  0  0  0  0  0  0  0  0  0  0  0
    5.7774    5.2438   22.6203 C   0  0  0  0  0  0  0  0  0  0  0  0
    5.9666    6.6102   23.1011 N   0  0  0  0  0  0  0  0  0  0  0  0
    5.5232    6.8802   23.9971 H   0  0  0  0  0  0  0  0  0  0  0  0
    7.3363    8.6512   22.9677 C   0  0  0  0  0  0  0  0  0  0  0  0
    7.9860    9.5741   22.1167 C   0  0  0  0  0  0  0  0  0  0  0  0
    8.0015    9.4272   20.7615 C   0  0  0  0  0  0  0  0  0  0  0  0
    7.3848    8.3808   20.2177 N   0  0  0  0  0  0  0  0  0  0  0  0
    6.7536    7.4772   20.9754 C   0  0  0  0  0  0  0  0  0  0  0  0
    6.7085    7.5826   22.3731 C   0  0  0  0  0  0  0  0  0  0  0  0
    7.0084    9.8344   25.0133 O   0  0  0  0  0  0  0  0  0  0  0  0
    7.3918    8.8504   24.3885 C   0  0  0  0  0  0  0  0  0  0  0  0
    7.9425    7.8200   25.1801 O   0  0  0  0  0  0  0  0  0  0  0  0
    8.8166    7.9311   25.6658 H   0  0  0  0  0  0  0  0  0  0  0  0
    4.1080    1.2855   17.4223 S   0  0  0  0  0  0  0  0  0  0  0  0
    3.3922    2.0770   15.9659 C   0  0  0  0  0  0  0  0  0  0  0  0
    2.3724    1.6007   15.1801 C   0  0  0  0  0  0  0  0  0  0  0  0
    1.9991    2.3662   14.1370 C   0  0  0  0  0  0  0  0  0  0  0  0
    2.6693    3.5484   13.9547 C   0  0  0  0  0  0  0  0  0  0  0  0
    3.7907    3.5568   15.2330 S   0  0  0  0  0  0  0  0  0  0  0  0
 20 21  2  0  0  0
 21 22  1  0  0  0
 21 14  1  0  0  0
 14 15  2  0  0  0
 15 16  1  0  0  0
 16 17  2  0  0  0
 17 18  1  0  0  0
 18 19  2  0  0  0
 19 12  1  0  0  0
 12 11  1  0  0  0
 11  1  1  0  0  0
  1  2  1  0  0  0
  2  3  1  0  0  0
  3  4  1  0  0  0
  4  5  1  0  0  0
  5  6  2  0  0  0
  6  7  1  0  0  0
  7 24  1  0  0  0
 24 25  1  0  0  0
 25 26  2  0  0  0
 26 27  1  0  0  0
 27 28  2  0  0  0
 28 29  1  0  0  0
  7  8  2  0  0  0
  8  9  1  0  0  0
  9 10  2  0  0  0
 19 14  1  0  0  0
 10  1  1  0  0  0
 10  5  1  0  0  0
 29 25  1  0  0  0
 22 23  1  0  0  0
 12 13  1  0  0  0
M  END
> <minimizedAffinity>
-8.25321

> <CNNscore>
0.2639247179

> <CNNaffinity>
6.0662760735

> <CNN_VS>
1.6010402441

> <CNNaffinity_variance>
0.1815448403

$$$$
[H]OC(=O)c1c([H])c([H])nc([H])c1N([H])C([H])([H])C1([H])c2c([H])c([H])c(Sc3sc([H])c([H])c3[H])c([H])c2OC([H])([H])C1([H])[H]


 29 32  0  0  0  0  0  0  0  0999 V2000
    4.3066    4.9765   22.3658 C   0  0  0  0  0  0  0  0  0  0  0  0
    3.5903    4.1501   23.4221 C   0  0  0  0  0  0  0  0  0  0  0  0
    4.3003    2.8473   23.6245 C   0  0  0  0  0  0  0  0  0  0  0  0
    4.5318    2.1983   22.4106 O   0  0  0  0  0  0  0  0  0  0  0  0
    4.3850    2.8260   21.1736 C   0  0  0  0  0  0  0  0  0  0  0  0
    4.3539    2.0631   19.9992 C   0  0  0  0  0  0  0  0  0  0  0  0
    4.2097    2.6583   18.7608 C   0  0  0  0  0  0  0  0  0  0  0  0
    4.0975    4.0329   18.7258 C   0  0  0  0  0  0  0  0  0  0  0  0
    4.1278    4.8010   19.8952 C   0  0  0  0  0  0  0  0  0  0  0  0
    4.2713    4.1842   21.1026 C   0  0  0  0  0  0  0  0  0  0  0  0
    5.7192    5.1871   22.8380 C   0  0  0  0  0  0  0  0  0  0  0  0
    6.1680    6.5708   22.7045 N   0  0  0  0  0  0  0  0  0  0  0  0
    5.9405    7.2353   23.4653 H   0  0  0  0  0  0  0  0  0  0  0  0
    6.3046    7.8321   20.5950 C   0  0  0  0  0  0  0  0  0  0  0  0
    7.1070    8.1734   19.4824 C   0  0  0  0  0  0  0  0  0  0  0  0
    8.3952    7.7457   19.3565 C   0  0  0  0  0  0  0  0  0  0  0  0
    8.9184    6.9805   20.3112 N   0  0  0  0  0  0  0  0  0  0  0  0
    8.2042    6.6263   21.3852 C   0  0  0  0  0  0  0  0  0  0  0  0
    6.8759    7.0397   21.5620 C   0  0  0  0  0  0  0  0  0  0  0  0
    4.1937    8.5524   19.7480 O   0  0  0  0  0  0  0  0  0  0  0  0
    4.9675    8.3485   20.6782 C   0  0  0  0  0  0  0  0  0  0  0  0
    4.4593    8.6662   21.9559 O   0  0  0  0  0  0  0  0  0  0  0  0
    4.2742    9.6152   22.2344 H   0  0  0  0  0  0  0  0  0  0  0  0
    4.1796    1.6236   17.3239 S   0  0  0  0  0  0  0  0  0  0  0  0
    3.5630    2.5256   15.8865 C   0  0  0  0  0  0  0  0  0  0  0  0
    4.0659    3.6888   15.3588 C   0  0  0  0  0  0  0  0  0  0  0  0
    3.4404    4.1861   14.2749 C   0  0  0  0  0  0  0  0  0  0  0  0
    2.3612    3.4878   13.7978 C   0  0  0  0  0  0  0  0  0  0  0  0
    2.2520    2.1695   14.8665 S   0  0  0  0  0  0  0  0  0  0  0  0
 20 21  2  0  0  0
 21 22  1  0  0  0
 21 14  1  0  0  0
 14 15  2  0  0  0
 15 16  1  0  0  0
 16 17  2  0  0  0
 17 18  1  0  0  0
 18 19  2  0  0  0
 19 12  1  0  0  0
 12 11  1  0  0  0
 11  1  1  0  0  0
  1  2  1  0  0  0
  2  3  1  0  0  0
  3  4  1  0  0  0
  4  5  1  0  0  0
  5  6  2  0  0  0
  6  7  1  0  0  0
  7 24  1  0  0  0
 24 25  1  0  0  0
 25 26  2  0  0  0
 26 27  1  0  0  0
 27 28  2  0  0  0
 28 29  1  0  0  0
  7  8  2  0  0  0
  8  9  1  0  0  0
  9 10  2  0  0  0
 19 14  1  0  0  0
 10  1  1  0  0  0
 10  5  1  0  0  0
 29 25  1  0  0  0
 22 23  1  0  0  0
 12 13  1  0  0  0
M  END
> <minimizedAffinity>
-8.27608

> <CNNscore>
0.2581577897

> <CNNaffinity>
5.8703937531

> <CNN_VS>
1.5154879093

> <CNNaffinity_variance>
0.2871549428

$$$$
[H]OC(=O)c1c([H])c([H])nc([H])c1N([H])C([H])([H])C1([H])c2c([H])c([H])c(Sc3sc([H])c([H])c3[H])c([H])c2OC([H])([H])C1([H])[H]


 29 32  0  0  0  0  0  0  0  0999 V2000
    3.7023    3.8038   14.6236 C   0  0  0  0  0  0  0  0  0  0  0  0
    3.0644    2.6838   13.8171 C   0  0  0  0  0  0  0  0  0  0  0  0
    1.7855    2.2488   14.4634 C   0  0  0  0  0  0  0  0  0  0  0  0
    1.9650    1.9824   15.8217 O   0  0  0  0  0  0  0  0  0  0  0  0
    3.1087    2.3602   16.5253 C   0  0  0  0  0  0  0  0  0  0  0  0
    3.3583    1.8274   17.7964 C   0  0  0  0  0  0  0  0  0  0  0  0
    4.4828    2.1841   18.5155 C   0  0  0  0  0  0  0  0  0  0  0  0
    5.3500    3.0852   17.9330 C   0  0  0  0  0  0  0  0  0  0  0  0
    5.1067    3.6213   16.6635 C   0  0  0  0  0  0  0  0  0  0  0  0
    3.9880    3.2496   15.9786 C   0  0  0  0  0  0  0  0  0  0  0  0
    2.7096    4.9319   14.6942 C   0  0  0  0  0  0  0  0  0  0  0  0
    3.3217    6.2462   14.5154 N   0  0  0  0  0  0  0  0  0  0  0  0
    3.3848    6.6309   13.5561 H   0  0  0  0  0  0  0  0  0  0  0  0
    4.7658    8.0136   15.4376 C   0  0  0  0  0  0  0  0  0  0  0  0
    5.2589    8.6332   16.6085 C   0  0  0  0  0  0  0  0  0  0  0  0
    4.8596    8.2535   17.8554 C   0  0  0  0  0  0  0  0  0  0  0  0
    3.9760    7.2661   17.9783 N   0  0  0  0  0  0  0  0  0  0  0  0
    3.4773    6.6441   16.9043 C   0  0  0  0  0  0  0  0  0  0  0  0
    3.8554    6.9967   15.6008 C   0  0  0  0  0  0  0  0  0  0  0  0
    5.3818    9.6571   13.8217 O   0  0  0  0  0  0  0  0  0  0  0  0
    5.2041    8.4900   14.1561 C   0  0  0  0  0  0  0  0  0  0  0  0
    5.4669    7.5359   13.1500 O   0  0  0  0  0  0  0  0  0  0  0  0
    4.8906    7.4550   12.3292 H   0  0  0  0  0  0  0  0  0  0  0  0
    4.7260    1.4657   20.1158 S   0  0  0  0  0  0  0  0  0  0  0  0
    4.3557    2.6535   21.4244 C   0  0  0  0  0  0  0  0  0  0  0  0
    4.2375    4.0153   21.2991 C   0  0  0  0  0  0  0  0  0  0  0  0
    3.9545    4.7075   22.4191 C   0  0  0  0  0  0  0  0  0  0  0  0
    3.8105    3.9916   23.5796 C   0  0  0  0  0  0  0  0  0  0  0  0
    4.0720    2.3878   23.0781 S   0  0  0  0  0  0  0  0  0  0  0  0
 20 21  2  0  0  0
 21 22  1  0  0  0
 21 14  1  0  0  0
 14 15  2  0  0  0
 15 16  1  0  0  0
 16 17  2  0  0  0
 17 18  1  0  0  0
 18 19  2  0  0  0
 19 12  1  0  0  0
 12 11  1  0  0  0
 11  1  1  0  0  0
  1  2  1  0  0  0
  2  3  1  0  0  0
  3  4  1  0  0  0
  4  5  1  0  0  0
  5  6  2  0  0  0
  6  7  1  0  0  0
  7 24  1  0  0  0
 24 25  1  0  0  0
 25 26  2  0  0  0
 26 27  1  0  0  0
 27 28  2  0  0  0
 28 29  1  0  0  0
  7  8  2  0  0  0
  8  9  1  0  0  0
  9 10  2  0  0  0
 19 14  1  0  0  0
 10  1  1  0  0  0
 10  5  1  0  0  0
 29 25  1  0  0  0
 22 23  1  0  0  0
 12 13  1  0  0  0
M  END
> <minimizedAffinity>
-7.05323

> <CNNscore>
0.2526488900

> <CNNaffinity>
5.9965100288

> <CNN_VS>
1.5150115490

> <CNNaffinity_variance>
0.4422734380

$$$$
[H]OC(=O)c1c([H])c([H])nc([H])c1N([H])C([H])([H])C1([H])c2c([H])c([H])c(Sc3sc([H])c([H])c3[H])c([H])c2OC([H])([H])C1([H])[H]


 29 32  0  0  0  0  0  0  0  0999 V2000
    5.3889    2.4820   20.8766 C   0  0  0  0  0  0  0  0  0  0  0  0
    5.0251    1.8343   22.2033 C   0  0  0  0  0  0  0  0  0  0  0  0
    3.6719    2.2970   22.6474 C   0  0  0  0  0  0  0  0  0  0  0  0
    3.5714    3.6887   22.6122 O   0  0  0  0  0  0  0  0  0  0  0  0
    4.5044    4.5016   21.9683 C   0  0  0  0  0  0  0  0  0  0  0  0
    4.5106    5.8828   22.2014 C   0  0  0  0  0  0  0  0  0  0  0  0
    5.4231    6.7114   21.5772 C   0  0  0  0  0  0  0  0  0  0  0  0
    6.3276    6.1257   20.7157 C   0  0  0  0  0  0  0  0  0  0  0  0
    6.3268    4.7466   20.4783 C   0  0  0  0  0  0  0  0  0  0  0  0
    5.4136    3.9551   21.1095 C   0  0  0  0  0  0  0  0  0  0  0  0
    4.3246    2.1050   19.8827 C   0  0  0  0  0  0  0  0  0  0  0  0
    4.8672    1.6906   18.5913 N   0  0  0  0  0  0  0  0  0  0  0  0
    5.8617    1.4056   18.5464 H   0  0  0  0  0  0  0  0  0  0  0  0
    4.0917    2.7336   16.5008 C   0  0  0  0  0  0  0  0  0  0  0  0
    3.2254    2.6285   15.3887 C   0  0  0  0  0  0  0  0  0  0  0  0
    2.4170    1.5478   15.1963 C   0  0  0  0  0  0  0  0  0  0  0  0
    2.4414    0.5564   16.0835 N   0  0  0  0  0  0  0  0  0  0  0  0
    3.2411    0.6038   17.1546 C   0  0  0  0  0  0  0  0  0  0  0  0
    4.0911    1.6923   17.3981 C   0  0  0  0  0  0  0  0  0  0  0  0
    5.9314    4.0031   17.3347 O   0  0  0  0  0  0  0  0  0  0  0  0
    4.9412    3.8849   16.6198 C   0  0  0  0  0  0  0  0  0  0  0  0
    4.6290    5.0207   15.8426 O   0  0  0  0  0  0  0  0  0  0  0  0
    4.3048    5.8777   16.2585 H   0  0  0  0  0  0  0  0  0  0  0  0
    5.3652    8.4468   21.9254 S   0  0  0  0  0  0  0  0  0  0  0  0
    6.9029    9.0083   22.6872 C   0  0  0  0  0  0  0  0  0  0  0  0
    8.1144    9.1954   22.0696 C   0  0  0  0  0  0  0  0  0  0  0  0
    9.1317    9.6229   22.8415 C   0  0  0  0  0  0  0  0  0  0  0  0
    8.8662    9.8319   24.1704 C   0  0  0  0  0  0  0  0  0  0  0  0
    7.2193    9.4292   24.3023 S   0  0  0  0  0  0  0  0  0  0  0  0
 20 21  2  0  0  0
 21 22  1  0  0  0
 21 14  1  0  0  0
 14 15  2  0  0  0
 15 16  1  0  0  0
 16 17  2  0  0  0
 17 18  1  0  0  0
 18 19  2  0  0  0
 19 12  1  0  0  0
 12 11  1  0  0  0
 11  1  1  0  0  0
  1  2  1  0  0  0
  2  3  1  0  0  0
  3  4  1  0  0  0
  4  5  1  0  0  0
  5  6  2  0  0  0
  6  7  1  0  0  0
  7 24  1  0  0  0
 24 25  1  0  0  0
 25 26  2  0  0  0
 26 27  1  0  0  0
 27 28  2  0  0  0
 28 29  1  0  0  0
  7  8  2  0  0  0
  8  9  1  0  0  0
  9 10  2  0  0  0
 19 14  1  0  0  0
 10  1  1  0  0  0
 10  5  1  0  0  0
 29 25  1  0  0  0
 22 23  1  0  0  0
 12 13  1  0  0  0
M  END
> <minimizedAffinity>
-7.00739

> <CNNscore>
0.2453508973

> <CNNaffinity>
5.7777638435

> <CNN_VS>
1.4175795317

> <CNNaffinity_variance>
0.4021695256

$$$$
[H]OC(=O)c1c([H])c([H])nc([H])c1N([H])C([H])([H])C1([H])c2c([H])c([H])c(Sc3sc([H])c([H])c3[H])c([H])c2OC([H])([H])C1([H])[H]


 29 32  0  0  0  0  0  0  0  0999 V2000
    5.6498    5.2558   19.1704 C   0  0  0  0  0  0  0  0  0  0  0  0
    5.7291    6.7732   19.2278 C   0  0  0  0  0  0  0  0  0  0  0  0
    4.3573    7.3544   19.3789 C   0  0  0  0  0  0  0  0  0  0  0  0
    3.4757    6.8356   18.4293 O   0  0  0  0  0  0  0  0  0  0  0  0
    3.7702    5.7159   17.6512 C   0  0  0  0  0  0  0  0  0  0  0  0
    2.9831    5.4120   16.5331 C   0  0  0  0  0  0  0  0  0  0  0  0
    3.2518    4.3095   15.7450 C   0  0  0  0  0  0  0  0  0  0  0  0
    4.3252    3.5198   16.1020 C   0  0  0  0  0  0  0  0  0  0  0  0
    5.1156    3.8177   17.2176 C   0  0  0  0  0  0  0  0  0  0  0  0
    4.8250    4.9129   17.9759 C   0  0  0  0  0  0  0  0  0  0  0  0
    4.9911    4.7894   20.4398 C   0  0  0  0  0  0  0  0  0  0  0  0
    5.4385    3.4653   20.8647 N   0  0  0  0  0  0  0  0  0  0  0  0
    6.4507    3.3188   21.0270 H   0  0  0  0  0  0  0  0  0  0  0  0
    4.0508    1.9841   22.2575 C   0  0  0  0  0  0  0  0  0  0  0  0
    3.2186    0.8419   22.2865 C   0  0  0  0  0  0  0  0  0  0  0  0
    2.9049    0.1420   21.1594 C   0  0  0  0  0  0  0  0  0  0  0  0
    3.3973    0.5447   19.9906 N   0  0  0  0  0  0  0  0  0  0  0  0
    4.1906    1.6182   19.9052 C   0  0  0  0  0  0  0  0  0  0  0  0
    4.5431    2.3719   21.0340 C   0  0  0  0  0  0  0  0  0  0  0  0
    4.9611    2.2971   24.4405 O   0  0  0  0  0  0  0  0  0  0  0  0
    4.3093    2.6928   23.4791 C   0  0  0  0  0  0  0  0  0  0  0  0
    3.7676    3.9883   23.6198 O   0  0  0  0  0  0  0  0  0  0  0  0
    3.0358    4.1906   24.2800 H   0  0  0  0  0  0  0  0  0  0  0  0
    2.2092    3.9943   14.3486 S   0  0  0  0  0  0  0  0  0  0  0  0
    1.6645    5.5362   13.5831 C   0  0  0  0  0  0  0  0  0  0  0  0
    0.3749    5.9892   13.4571 C   0  0  0  0  0  0  0  0  0  0  0  0
    0.2038    7.1768   12.8457 C   0  0  0  0  0  0  0  0  0  0  0  0
    1.3296    7.8240   12.4057 C   0  0  0  0  0  0  0  0  0  0  0  0
    2.5828    6.7655   12.8542 S   0  0  0  0  0  0  0  0  0  0  0  0
 20 21  2  0  0  0
 21 22  1  0  0  0
 21 14  1  0  0  0
 14 15  2  0  0  0
 15 16  1  0  0  0
 16 17  2  0  0  0
 17 18  1  0  0  0
 18 19  2  0  0  0
 19 12  1  0  0  0
 12 11  1  0  0  0
 11  1  1  0  0  0
  1  2  1  0  0  0
  2  3  1  0  0  0
  3  4  1  0  0  0
  4  5  1  0  0  0
  5  6  2  0  0  0
  6  7  1  0  0  0
  7 24  1  0  0  0
 24 25  1  0  0  0
 25 26  2  0  0  0
 26 27  1  0  0  0
 27 28  2  0  0  0
 28 29  1  0  0  0
  7  8  2  0  0  0
  8  9  1  0  0  0
  9 10  2  0  0  0
 19 14  1  0  0  0
 10  1  1  0  0  0
 10  5  1  0  0  0
 29 25  1  0  0  0
 22 23  1  0  0  0
 12 13  1  0  0  0
M  END
> <minimizedAffinity>
-7.78770

> <CNNscore>
0.2417992502

> <CNNaffinity>
6.0877981186

> <CNN_VS>
1.4720250368

> <CNNaffinity_variance>
0.3873843551

$$$$
[H]OC(=O)c1c([H])c([H])nc([H])c1N([H])C([H])([H])C1([H])c2c([H])c([H])c(Sc3sc([H])c([H])c3[H])c([H])c2OC([H])([H])C1([H])[H]


 29 32  0  0  0  0  0  0  0  0999 V2000
    3.6470    3.3478   18.2651 C   0  0  0  0  0  0  0  0  0  0  0  0
    3.4711    1.8376   18.2823 C   0  0  0  0  0  0  0  0  0  0  0  0
    4.2779    1.2135   17.1859 C   0  0  0  0  0  0  0  0  0  0  0  0
    4.0349    1.8315   15.9582 O   0  0  0  0  0  0  0  0  0  0  0  0
    3.3619    3.0476   15.8400 C   0  0  0  0  0  0  0  0  0  0  0  0
    2.9022    3.4761   14.5882 C   0  0  0  0  0  0  0  0  0  0  0  0
    2.2330    4.6760   14.4420 C   0  0  0  0  0  0  0  0  0  0  0  0
    2.0352    5.4354   15.5767 C   0  0  0  0  0  0  0  0  0  0  0  0
    2.4918    5.0132   16.8303 C   0  0  0  0  0  0  0  0  0  0  0  0
    3.1491    3.8240   16.9422 C   0  0  0  0  0  0  0  0  0  0  0  0
    5.1146    3.6337   18.4304 C   0  0  0  0  0  0  0  0  0  0  0  0
    5.6060    3.3494   19.7764 N   0  0  0  0  0  0  0  0  0  0  0  0
    6.5314    2.8954   19.8744 H   0  0  0  0  0  0  0  0  0  0  0  0
    4.5432    4.9269   21.3389 C   0  0  0  0  0  0  0  0  0  0  0  0
    3.8397    5.0779   22.5557 C   0  0  0  0  0  0  0  0  0  0  0  0
    3.4721    4.0109   23.3203 C   0  0  0  0  0  0  0  0  0  0  0  0
    3.7849    2.7840   22.9108 N   0  0  0  0  0  0  0  0  0  0  0  0
    4.4505    2.5829   21.7681 C   0  0  0  0  0  0  0  0  0  0  0  0
    4.8510    3.6461   20.9460 C   0  0  0  0  0  0  0  0  0  0  0  0
    5.9859    6.5025   20.2769 O   0  0  0  0  0  0  0  0  0  0  0  0
    4.8659    6.0941   20.5677 C   0  0  0  0  0  0  0  0  0  0  0  0
    3.8002    6.8782   20.0767 O   0  0  0  0  0  0  0  0  0  0  0  0
    3.6201    7.8067   20.4200 H   0  0  0  0  0  0  0  0  0  0  0  0
    1.6838    5.1461   12.8254 S   0  0  0  0  0  0  0  0  0  0  0  0
   -0.0453    5.6654   12.8521 C   0  0  0  0  0  0  0  0  0  0  0  0
   -0.6003    6.6618   13.6159 C   0  0  0  0  0  0  0  0  0  0  0  0
   -1.9218    6.8762   13.4703 C   0  0  0  0  0  0  0  0  0  0  0  0
   -2.5913    6.0823   12.5750 C   0  0  0  0  0  0  0  0  0  0  0  0
   -1.3678    5.0690   11.9683 S   0  0  0  0  0  0  0  0  0  0  0  0
 20 21  2  0  0  0
 21 22  1  0  0  0
 21 14  1  0  0  0
 14 15  2  0  0  0
 15 16  1  0  0  0
 16 17  2  0  0  0
 17 18  1  0  0  0
 18 19  2  0  0  0
 19 12  1  0  0  0
 12 11  1  0  0  0
 11  1  1  0  0  0
  1  2  1  0  0  0
  2  3  1  0  0  0
  3  4  1  0  0  0
  4  5  1  0  0  0
  5  6  2  0  0  0
  6  7  1  0  0  0
  7 24  1  0  0  0
 24 25  1  0  0  0
 25 26  2  0  0  0
 26 27  1  0  0  0
 27 28  2  0  0  0
 28 29  1  0  0  0
  7  8  2  0  0  0
  8  9  1  0  0  0
  9 10  2  0  0  0
 19 14  1  0  0  0
 10  1  1  0  0  0
 10  5  1  0  0  0
 29 25  1  0  0  0
 22 23  1  0  0  0
 12 13  1  0  0  0
M  END
> <minimizedAffinity>
-7.15306

> <CNNscore>
0.1834921539

> <CNNaffinity>
5.6318993568

> <CNN_VS>
1.0334093571

> <CNNaffinity_variance>
0.4339562356

$$$$
[H]OC(=O)c1c([H])c([H])nc([H])c1N([H])C([H])([H])C1([H])c2c([H])c([H])c(Sc3sc([H])c([H])c3[H])c([H])c2OC([H])([H])C1([H])[H]


 29 32  0  0  0  0  0  0  0  0999 V2000
    5.4731    5.4954   19.7633 C   0  0  0  0  0  0  0  0  0  0  0  0
    4.2041    5.7128   20.5721 C   0  0  0  0  0  0  0  0  0  0  0  0
    3.0003    5.4759   19.7136 C   0  0  0  0  0  0  0  0  0  0  0  0
    3.0783    6.1901   18.5169 O   0  0  0  0  0  0  0  0  0  0  0  0
    4.2522    6.7960   18.0691 C   0  0  0  0  0  0  0  0  0  0  0  0
    4.2067    7.7247   17.0215 C   0  0  0  0  0  0  0  0  0  0  0  0
    5.3538    8.3398   16.5579 C   0  0  0  0  0  0  0  0  0  0  0  0
    6.5452    8.0038   17.1668 C   0  0  0  0  0  0  0  0  0  0  0  0
    6.5978    7.0769   18.2138 C   0  0  0  0  0  0  0  0  0  0  0  0
    5.4484    6.4867   18.6491 C   0  0  0  0  0  0  0  0  0  0  0  0
    5.4393    4.0856   19.2396 C   0  0  0  0  0  0  0  0  0  0  0  0
    5.6624    3.0828   20.2781 N   0  0  0  0  0  0  0  0  0  0  0  0
    6.5779    3.0736   20.7618 H   0  0  0  0  0  0  0  0  0  0  0  0
    4.3303    1.8258   21.9228 C   0  0  0  0  0  0  0  0  0  0  0  0
    3.3891    0.7907   22.1248 C   0  0  0  0  0  0  0  0  0  0  0  0
    2.8433    0.0920   21.0893 C   0  0  0  0  0  0  0  0  0  0  0  0
    3.2068    0.3916   19.8447 N   0  0  0  0  0  0  0  0  0  0  0  0
    4.0941    1.3611   19.5958 C   0  0  0  0  0  0  0  0  0  0  0  0
    4.6843    2.1087   20.6250 C   0  0  0  0  0  0  0  0  0  0  0  0
    5.4634    3.5977   23.0490 O   0  0  0  0  0  0  0  0  0  0  0  0
    4.8362    2.5431   23.0590 C   0  0  0  0  0  0  0  0  0  0  0  0
    4.6029    2.0014   24.3411 O   0  0  0  0  0  0  0  0  0  0  0  0
    5.3492    1.6365   24.9088 H   0  0  0  0  0  0  0  0  0  0  0  0
    5.2117    9.5025   15.2297 S   0  0  0  0  0  0  0  0  0  0  0  0
    5.5094    8.7080   13.6359 C   0  0  0  0  0  0  0  0  0  0  0  0
    4.6589    7.8746   12.9529 C   0  0  0  0  0  0  0  0  0  0  0  0
    5.0945    7.3945   11.7726 C   0  0  0  0  0  0  0  0  0  0  0  0
    6.3442    7.7803   11.3610 C   0  0  0  0  0  0  0  0  0  0  0  0
    6.8700    8.7927   12.6222 S   0  0  0  0  0  0  0  0  0  0  0  0
 20 21  2  0  0  0
 21 22  1  0  0  0
 21 14  1  0  0  0
 14 15  2  0  0  0
 15 16  1  0  0  0
 16 17  2  0  0  0
 17 18  1  0  0  0
 18 19  2  0  0  0
 19 12  1  0  0  0
 12 11  1  0  0  0
 11  1  1  0  0  0
  1  2  1  0  0  0
  2  3  1  0  0  0
  3  4  1  0  0  0
  4  5  1  0  0  0
  5  6  2  0  0  0
  6  7  1  0  0  0
  7 24  1  0  0  0
 24 25  1  0  0  0
 25 26  2  0  0  0
 26 27  1  0  0  0
 27 28  2  0  0  0
 28 29  1  0  0  0
  7  8  2  0  0  0
  8  9  1  0  0  0
  9 10  2  0  0  0
 19 14  1  0  0  0
 10  1  1  0  0  0
 10  5  1  0  0  0
 29 25  1  0  0  0
 22 23  1  0  0  0
 12 13  1  0  0  0
M  END
> <minimizedAffinity>
-7.06952

> <CNNscore>
0.1807253212

> <CNNaffinity>
5.7685956955

> <CNN_VS>
1.0425312519

> <CNNaffinity_variance>
0.2417101860

$$$$
[H]N=c1c(C(=O)N([H])C([H])([H])c2oc([H])c([H])c2[H])c([H])c2c(=O)n3c([H])c([H])c([H])c([H])c3nc2n1C([H])([H])c1c([H])c([H])c(C([H])([H])[H])c([H])c1[H]


 35 39  0  0  0  0  0  0  0  0999 V2000
    4.6423    3.6371   16.6026 N   0  0  0  0  0  0  0  0  0  0  0  0
    3.9910    3.7738   15.4162 C   0  0  0  0  0  0  0  0  0  0  0  0
    4.3448    4.7363   14.6976 N   0  0  0  0  0  0  0  0  0  0  0  0
    2.9561    2.9708   15.0124 C   0  0  0  0  0  0  0  0  0  0  0  0
    2.5638    1.9606   15.8969 C   0  0  0  0  0  0  0  0  0  0  0  0
    3.1879    1.7952   17.0894 C   0  0  0  0  0  0  0  0  0  0  0  0
    2.7763    0.8076   17.9486 C   0  0  0  0  0  0  0  0  0  0  0  0
    1.8359    0.0305   17.6534 O   0  0  0  0  0  0  0  0  0  0  0  0
    3.3815    0.6537   19.1373 N   0  0  0  0  0  0  0  0  0  0  0  0
    2.9881   -0.3121   19.9920 C   0  0  0  0  0  0  0  0  0  0  0  0
    3.5692   -0.5088   21.2077 C   0  0  0  0  0  0  0  0  0  0  0  0
    4.6178    0.3195   21.5952 C   0  0  0  0  0  0  0  0  0  0  0  0
    4.9934    1.2931   20.7004 C   0  0  0  0  0  0  0  0  0  0  0  0
    4.3935    1.4774   19.4738 C   0  0  0  0  0  0  0  0  0  0  0  0
    4.7816    2.4360   18.6198 N   0  0  0  0  0  0  0  0  0  0  0  0
    4.2255    2.6514   17.4124 C   0  0  0  0  0  0  0  0  0  0  0  0
    4.0633    5.0810   13.8130 H   0  0  0  0  0  0  0  0  0  0  0  0
    2.2823    2.9814   13.7400 C   0  0  0  0  0  0  0  0  0  0  0  0
    2.4519    1.9085   13.0302 O   0  0  0  0  0  0  0  0  0  0  0  0
    1.4871    4.0043   13.1939 N   0  0  0  0  0  0  0  0  0  0  0  0
    1.3576    4.8876   13.7053 H   0  0  0  0  0  0  0  0  0  0  0  0
    0.8534    3.8736   11.8869 C   0  0  0  0  0  0  0  0  0  0  0  0
   -0.4594    4.5322   11.8381 C   0  0  0  0  0  0  0  0  0  0  0  0
   -0.9293    5.5074   12.6753 C   0  0  0  0  0  0  0  0  0  0  0  0
   -2.2266    5.8367   12.2558 C   0  0  0  0  0  0  0  0  0  0  0  0
   -2.4561    5.0236   11.1747 C   0  0  0  0  0  0  0  0  0  0  0  0
   -1.4081    4.2851   10.9679 O   0  0  0  0  0  0  0  0  0  0  0  0
    5.6953    4.5304   16.9903 C   0  0  0  0  0  0  0  0  0  0  0  0
    4.6310    8.8374   20.7308 C   0  0  0  0  0  0  0  0  0  0  0  0
    4.8365    7.7344   19.7511 C   0  0  0  0  0  0  0  0  0  0  0  0
    3.9061    7.3437   18.8461 C   0  0  0  0  0  0  0  0  0  0  0  0
    4.1654    6.2939   17.9450 C   0  0  0  0  0  0  0  0  0  0  0  0
    5.3522    5.6144   17.9273 C   0  0  0  0  0  0  0  0  0  0  0  0
    6.2910    6.0442   18.8748 C   0  0  0  0  0  0  0  0  0  0  0  0
    6.0405    7.0791   19.7665 C   0  0  0  0  0  0  0  0  0  0  0  0
 29 30  1  0  0  0
 30 31  2  0  0  0
 31 32  1  0  0  0
 32 33  2  0  0  0
 33 28  1  0  0  0
 28  1  1  0  0  0
  1  2  1  0  0  0
  2  3  2  0  0  0
  2  4  1  0  0  0
  4 18  1  0  0  0
 18 19  2  0  0  0
 18 20  1  0  0  0
 20 22  1  0  0  0
 22 23  1  0  0  0
 23 24  2  0  0  0
 24 25  1  0  0  0
 25 26  2  0  0  0
 26 27  1  0  0  0
  4  5  2  0  0  0
  5  6  1  0  0  0
  6  7  1  0  0  0
  7  8  2  0  0  0
  7  9  1  0  0  0
  9 10  1  0  0  0
 10 11  2  0  0  0
 11 12  1  0  0  0
 12 13  2  0  0  0
 13 14  1  0  0  0
 14 15  2  0  0  0
 15 16  1  0  0  0
 33 34  1  0  0  0
 34 35  2  0  0  0
 35 30  1  0  0  0
 16  1  1  0  0  0
 27 23  1  0  0  0
 16  6  2  0  0  0
 14  9  1  0  0  0
  3 17  1  0  0  0
 20 21  1  0  0  0
M  END
> <minimizedAffinity>
-9.44439

> <CNNscore>
0.7016512752

> <CNNaffinity>
6.8463582993

> <CNN_VS>
4.8037562370

> <CNNaffinity_variance>
0.7640179992

$$$$
[H]N=c1c(C(=O)N([H])C([H])([H])c2oc([H])c([H])c2[H])c([H])c2c(=O)n3c([H])c([H])c([H])c([H])c3nc2n1C([H])([H])c1c([H])c([H])c(C([H])([H])[H])c([H])c1[H]


 35 39  0  0  0  0  0  0  0  0999 V2000
    4.5427    3.4754   16.4933 N   0  0  0  0  0  0  0  0  0  0  0  0
    3.9864    3.4689   15.2519 C   0  0  0  0  0  0  0  0  0  0  0  0
    4.3237    4.4026   14.4888 N   0  0  0  0  0  0  0  0  0  0  0  0
    3.0562    2.5535   14.8331 C   0  0  0  0  0  0  0  0  0  0  0  0
    2.6704    1.5812   15.7619 C   0  0  0  0  0  0  0  0  0  0  0  0
    3.2013    1.5573   17.0094 C   0  0  0  0  0  0  0  0  0  0  0  0
    2.7966    0.6040   17.9097 C   0  0  0  0  0  0  0  0  0  0  0  0
    1.9490   -0.2697   17.6042 O   0  0  0  0  0  0  0  0  0  0  0  0
    3.3084    0.5896   19.1510 N   0  0  0  0  0  0  0  0  0  0  0  0
    2.9204   -0.3408   20.0466 C   0  0  0  0  0  0  0  0  0  0  0  0
    3.4092   -0.3977   21.3163 C   0  0  0  0  0  0  0  0  0  0  0  0
    4.3525    0.5429   21.7180 C   0  0  0  0  0  0  0  0  0  0  0  0
    4.7255    1.4766   20.7806 C   0  0  0  0  0  0  0  0  0  0  0  0
    4.2200    1.5188   19.4995 C   0  0  0  0  0  0  0  0  0  0  0  0
    4.6032    2.4417   18.6049 N   0  0  0  0  0  0  0  0  0  0  0  0
    4.1370    2.5199   17.3439 C   0  0  0  0  0  0  0  0  0  0  0  0
    4.0926    4.6564   13.5600 H   0  0  0  0  0  0  0  0  0  0  0  0
    2.4948    2.4134   13.5147 C   0  0  0  0  0  0  0  0  0  0  0  0
    1.4045    1.7115   13.4637 O   0  0  0  0  0  0  0  0  0  0  0  0
    2.9905    2.9347   12.3065 N   0  0  0  0  0  0  0  0  0  0  0  0
    3.8725    3.4643   12.2951 H   0  0  0  0  0  0  0  0  0  0  0  0
    2.3072    2.7197   11.0362 C   0  0  0  0  0  0  0  0  0  0  0  0
    3.0203    1.7644   10.1770 C   0  0  0  0  0  0  0  0  0  0  0  0
    2.6146    0.5070    9.8204 C   0  0  0  0  0  0  0  0  0  0  0  0
    3.6067   -0.0393    8.9929 C   0  0  0  0  0  0  0  0  0  0  0  0
    4.5609    0.9427    8.9043 C   0  0  0  0  0  0  0  0  0  0  0  0
    4.1817    1.9685    9.6044 O   0  0  0  0  0  0  0  0  0  0  0  0
    5.4853    4.4809   16.8903 C   0  0  0  0  0  0  0  0  0  0  0  0
    3.4090    9.4309   19.0951 C   0  0  0  0  0  0  0  0  0  0  0  0
    3.9392    8.1896   18.4651 C   0  0  0  0  0  0  0  0  0  0  0  0
    4.3097    8.1007   17.1643 C   0  0  0  0  0  0  0  0  0  0  0  0
    4.8064    6.8963   16.6314 C   0  0  0  0  0  0  0  0  0  0  0  0
    4.9435    5.7603   17.3806 C   0  0  0  0  0  0  0  0  0  0  0  0
    4.5522    5.8876   18.7202 C   0  0  0  0  0  0  0  0  0  0  0  0
    4.0611    7.0732   19.2512 C   0  0  0  0  0  0  0  0  0  0  0  0
 29 30  1  0  0  0
 30 31  2  0  0  0
 31 32  1  0  0  0
 32 33  2  0  0  0
 33 28  1  0  0  0
 28  1  1  0  0  0
  1  2  1  0  0  0
  2  3  2  0  0  0
  2  4  1  0  0  0
  4 18  1  0  0  0
 18 19  2  0  0  0
 18 20  1  0  0  0
 20 22  1  0  0  0
 22 23  1  0  0  0
 23 24  2  0  0  0
 24 25  1  0  0  0
 25 26  2  0  0  0
 26 27  1  0  0  0
  4  5  2  0  0  0
  5  6  1  0  0  0
  6  7  1  0  0  0
  7  8  2  0  0  0
  7  9  1  0  0  0
  9 10  1  0  0  0
 10 11  2  0  0  0
 11 12  1  0  0  0
 12 13  2  0  0  0
 13 14  1  0  0  0
 14 15  2  0  0  0
 15 16  1  0  0  0
 33 34  1  0  0  0
 34 35  2  0  0  0
 35 30  1  0  0  0
 16  1  1  0  0  0
 27 23  1  0  0  0
 16  6  2  0  0  0
 14  9  1  0  0  0
  3 17  1  0  0  0
 20 21  1  0  0  0
M  END
> <minimizedAffinity>
-9.54153

> <CNNscore>
0.6938483119

> <CNNaffinity>
6.8642554283

> <CNN_VS>
4.7627520561

> <CNNaffinity_variance>
0.5879130363

$$$$
[H]N=c1c(C(=O)N([H])C([H])([H])c2oc([H])c([H])c2[H])c([H])c2c(=O)n3c([H])c([H])c([H])c([H])c3nc2n1C([H])([H])c1c([H])c([H])c(C([H])([H])[H])c([H])c1[H]


 35 39  0  0  0  0  0  0  0  0999 V2000
    3.6362    1.8650   17.8224 N   0  0  0  0  0  0  0  0  0  0  0  0
    3.1266    1.6395   16.5814 C   0  0  0  0  0  0  0  0  0  0  0  0
    2.6918    0.4859   16.3623 N   0  0  0  0  0  0  0  0  0  0  0  0
    3.1247    2.5677   15.5729 C   0  0  0  0  0  0  0  0  0  0  0  0
    3.6927    3.8123   15.8645 C   0  0  0  0  0  0  0  0  0  0  0  0
    4.2127    4.0730   17.0894 C   0  0  0  0  0  0  0  0  0  0  0  0
    4.7793    5.2956   17.3489 C   0  0  0  0  0  0  0  0  0  0  0  0
    4.8172    6.1994   16.4789 O   0  0  0  0  0  0  0  0  0  0  0  0
    5.3104    5.5493   18.5557 N   0  0  0  0  0  0  0  0  0  0  0  0
    5.8706    6.7458   18.8254 C   0  0  0  0  0  0  0  0  0  0  0  0
    6.4219    7.0518   20.0323 C   0  0  0  0  0  0  0  0  0  0  0  0
    6.4120    6.0927   21.0402 C   0  0  0  0  0  0  0  0  0  0  0  0
    5.8333    4.8845   20.7318 C   0  0  0  0  0  0  0  0  0  0  0  0
    5.2799    4.5925   19.5042 C   0  0  0  0  0  0  0  0  0  0  0  0
    4.7209    3.4043   19.2313 N   0  0  0  0  0  0  0  0  0  0  0  0
    4.1683    3.0762   18.0478 C   0  0  0  0  0  0  0  0  0  0  0  0
    2.2784    0.0376   15.5820 H   0  0  0  0  0  0  0  0  0  0  0  0
    2.5203    2.4480   14.2715 C   0  0  0  0  0  0  0  0  0  0  0  0
    1.3821    1.8250   14.2599 O   0  0  0  0  0  0  0  0  0  0  0  0
    3.0199    2.9142   13.0426 N   0  0  0  0  0  0  0  0  0  0  0  0
    3.9366    3.3793   13.0000 H   0  0  0  0  0  0  0  0  0  0  0  0
    2.2900    2.7292   11.7936 C   0  0  0  0  0  0  0  0  0  0  0  0
    3.1474    2.2034   10.7223 C   0  0  0  0  0  0  0  0  0  0  0  0
    3.1583    0.9312   10.2182 C   0  0  0  0  0  0  0  0  0  0  0  0
    4.1344    0.8827    9.2120 C   0  0  0  0  0  0  0  0  0  0  0  0
    4.6557    2.1514    9.1761 C   0  0  0  0  0  0  0  0  0  0  0  0
    4.0564    2.8828   10.0661 O   0  0  0  0  0  0  0  0  0  0  0  0
    3.6452    0.8435   18.8292 C   0  0  0  0  0  0  0  0  0  0  0  0
    5.7119    2.1671   24.0876 C   0  0  0  0  0  0  0  0  0  0  0  0
    5.2479    1.8202   22.7153 C   0  0  0  0  0  0  0  0  0  0  0  0
    6.0663    1.3778   21.7296 C   0  0  0  0  0  0  0  0  0  0  0  0
    5.5623    1.0644   20.4533 C   0  0  0  0  0  0  0  0  0  0  0  0
    4.2379    1.1849   20.1341 C   0  0  0  0  0  0  0  0  0  0  0  0
    3.4206    1.6438   21.1759 C   0  0  0  0  0  0  0  0  0  0  0  0
    3.9124    1.9549   22.4369 C   0  0  0  0  0  0  0  0  0  0  0  0
 29 30  1  0  0  0
 30 31  2  0  0  0
 31 32  1  0  0  0
 32 33  2  0  0  0
 33 28  1  0  0  0
 28  1  1  0  0  0
  1  2  1  0  0  0
  2  3  2  0  0  0
  2  4  1  0  0  0
  4 18  1  0  0  0
 18 19  2  0  0  0
 18 20  1  0  0  0
 20 22  1  0  0  0
 22 23  1  0  0  0
 23 24  2  0  0  0
 24 25  1  0  0  0
 25 26  2  0  0  0
 26 27  1  0  0  0
  4  5  2  0  0  0
  5  6  1  0  0  0
  6  7  1  0  0  0
  7  8  2  0  0  0
  7  9  1  0  0  0
  9 10  1  0  0  0
 10 11  2  0  0  0
 11 12  1  0  0  0
 12 13  2  0  0  0
 13 14  1  0  0  0
 14 15  2  0  0  0
 15 16  1  0  0  0
 33 34  1  0  0  0
 34 35  2  0  0  0
 35 30  1  0  0  0
 16  1  1  0  0  0
 27 23  1  0  0  0
 16  6  2  0  0  0
 14  9  1  0  0  0
  3 17  1  0  0  0
 20 21  1  0  0  0
M  END
> <minimizedAffinity>
-8.79021

> <CNNscore>
0.4574016333

> <CNNaffinity>
6.6997289658

> <CNN_VS>
3.0644669533

> <CNNaffinity_variance>
0.5342075825

$$$$
[H]N=c1c(C(=O)N([H])C([H])([H])c2oc([H])c([H])c2[H])c([H])c2c(=O)n3c([H])c([H])c([H])c([H])c3nc2n1C([H])([H])c1c([H])c([H])c(C([H])([H])[H])c([H])c1[H]


 35 39  0  0  0  0  0  0  0  0999 V2000
    5.0876    3.5429   18.4456 N   0  0  0  0  0  0  0  0  0  0  0  0
    5.0036    2.9091   19.6463 C   0  0  0  0  0  0  0  0  0  0  0  0
    5.7186    3.3679   20.5662 N   0  0  0  0  0  0  0  0  0  0  0  0
    4.2452    1.7897   19.8712 C   0  0  0  0  0  0  0  0  0  0  0  0
    3.5285    1.2877   18.7798 C   0  0  0  0  0  0  0  0  0  0  0  0
    3.5894    1.8911   17.5670 C   0  0  0  0  0  0  0  0  0  0  0  0
    2.8906    1.3724   16.5061 C   0  0  0  0  0  0  0  0  0  0  0  0
    2.1731    0.3500   16.6295 O   0  0  0  0  0  0  0  0  0  0  0  0
    2.9637    1.9584   15.3002 N   0  0  0  0  0  0  0  0  0  0  0  0
    2.2828    1.4602   14.2484 C   0  0  0  0  0  0  0  0  0  0  0  0
    2.3239    2.0175   13.0067 C   0  0  0  0  0  0  0  0  0  0  0  0
    3.1012    3.1534   12.8033 C   0  0  0  0  0  0  0  0  0  0  0  0
    3.7819    3.6347   13.8963 C   0  0  0  0  0  0  0  0  0  0  0  0
    3.7284    3.0573   15.1462 C   0  0  0  0  0  0  0  0  0  0  0  0
    4.4030    3.5495   16.1956 N   0  0  0  0  0  0  0  0  0  0  0  0
    4.3793    3.0191   17.4332 C   0  0  0  0  0  0  0  0  0  0  0  0
    5.8676    3.1255   21.5147 H   0  0  0  0  0  0  0  0  0  0  0  0
    4.0212    1.1192   21.1255 C   0  0  0  0  0  0  0  0  0  0  0  0
    4.1249   -0.1732   21.0730 O   0  0  0  0  0  0  0  0  0  0  0  0
    3.7032    1.6969   22.3674 N   0  0  0  0  0  0  0  0  0  0  0  0
    3.5732    2.7144   22.4463 H   0  0  0  0  0  0  0  0  0  0  0  0
    3.5117    0.8896   23.5668 C   0  0  0  0  0  0  0  0  0  0  0  0
    4.6167    1.0452   24.5229 C   0  0  0  0  0  0  0  0  0  0  0  0
    5.7592    1.7799   24.3571 C   0  0  0  0  0  0  0  0  0  0  0  0
    6.5266    1.6385   25.5226 C   0  0  0  0  0  0  0  0  0  0  0  0
    5.7821    0.8134   26.3274 C   0  0  0  0  0  0  0  0  0  0  0  0
    4.6853    0.4938   25.7102 O   0  0  0  0  0  0  0  0  0  0  0  0
    5.9272    4.6905   18.2575 C   0  0  0  0  0  0  0  0  0  0  0  0
    3.3805    9.8360   19.1009 C   0  0  0  0  0  0  0  0  0  0  0  0
    4.0752    8.5282   18.9404 C   0  0  0  0  0  0  0  0  0  0  0  0
    4.9495    8.0205   19.8431 C   0  0  0  0  0  0  0  0  0  0  0  0
    5.5706    6.7752   19.6317 C   0  0  0  0  0  0  0  0  0  0  0  0
    5.3342    6.0132   18.5208 C   0  0  0  0  0  0  0  0  0  0  0  0
    4.4253    6.5671   17.6093 C   0  0  0  0  0  0  0  0  0  0  0  0
    3.8099    7.7954   17.8126 C   0  0  0  0  0  0  0  0  0  0  0  0
 29 30  1  0  0  0
 30 31  2  0  0  0
 31 32  1  0  0  0
 32 33  2  0  0  0
 33 28  1  0  0  0
 28  1  1  0  0  0
  1  2  1  0  0  0
  2  3  2  0  0  0
  2  4  1  0  0  0
  4 18  1  0  0  0
 18 19  2  0  0  0
 18 20  1  0  0  0
 20 22  1  0  0  0
 22 23  1  0  0  0
 23 24  2  0  0  0
 24 25  1  0  0  0
 25 26  2  0  0  0
 26 27  1  0  0  0
  4  5  2  0  0  0
  5  6  1  0  0  0
  6  7  1  0  0  0
  7  8  2  0  0  0
  7  9  1  0  0  0
  9 10  1  0  0  0
 10 11  2  0  0  0
 11 12  1  0  0  0
 12 13  2  0  0  0
 13 14  1  0  0  0
 14 15  2  0  0  0
 15 16  1  0  0  0
 33 34  1  0  0  0
 34 35  2  0  0  0
 35 30  1  0  0  0
 16  1  1  0  0  0
 27 23  1  0  0  0
 16  6  2  0  0  0
 14  9  1  0  0  0
  3 17  1  0  0  0
 20 21  1  0  0  0
M  END
> <minimizedAffinity>
-7.28874

> <CNNscore>
0.4166098833

> <CNNaffinity>
6.7472391129

> <CNN_VS>
2.8109664917

> <CNNaffinity_variance>
0.5276967287

$$$$
[H]N=c1c(C(=O)N([H])C([H])([H])c2oc([H])c([H])c2[H])c([H])c2c(=O)n3c([H])c([H])c([H])c([H])c3nc2n1C([H])([H])c1c([H])c([H])c(C([H])([H])[H])c([H])c1[H]


 35 39  0  0  0  0  0  0  0  0999 V2000
    3.3779    5.2974   17.2610 N   0  0  0  0  0  0  0  0  0  0  0  0
    2.8396    5.0782   16.0311 C   0  0  0  0  0  0  0  0  0  0  0  0
    2.3820    6.0825   15.4396 N   0  0  0  0  0  0  0  0  0  0  0  0
    2.7217    3.8399   15.4552 C   0  0  0  0  0  0  0  0  0  0  0  0
    3.1870    2.7532   16.2031 C   0  0  0  0  0  0  0  0  0  0  0  0
    3.7276    2.9325   17.4337 C   0  0  0  0  0  0  0  0  0  0  0  0
    4.1634    1.8506   18.1566 C   0  0  0  0  0  0  0  0  0  0  0  0
    4.0905    0.6837   17.7001 O   0  0  0  0  0  0  0  0  0  0  0  0
    4.6828    2.0246   19.3825 N   0  0  0  0  0  0  0  0  0  0  0  0
    5.1150    0.9711   20.1047 C   0  0  0  0  0  0  0  0  0  0  0  0
    5.6490    1.0950   21.3511 C   0  0  0  0  0  0  0  0  0  0  0  0
    5.7579    2.3626   21.9145 C   0  0  0  0  0  0  0  0  0  0  0  0
    5.3080    3.4138   21.1515 C   0  0  0  0  0  0  0  0  0  0  0  0
    4.7702    3.2694   19.8912 C   0  0  0  0  0  0  0  0  0  0  0  0
    4.3396    4.3140   19.1686 N   0  0  0  0  0  0  0  0  0  0  0  0
    3.8090    4.2196   17.9345 C   0  0  0  0  0  0  0  0  0  0  0  0
    1.9427    6.2311   14.5647 H   0  0  0  0  0  0  0  0  0  0  0  0
    2.2606    3.5305   14.1268 C   0  0  0  0  0  0  0  0  0  0  0  0
    3.0360    2.7334   13.4580 O   0  0  0  0  0  0  0  0  0  0  0  0
    1.0955    3.9919   13.4891 N   0  0  0  0  0  0  0  0  0  0  0  0
    0.4722    4.6557   13.9680 H   0  0  0  0  0  0  0  0  0  0  0  0
    0.7463    3.5851   12.1328 C   0  0  0  0  0  0  0  0  0  0  0  0
    0.6390    4.7315   11.2197 C   0  0  0  0  0  0  0  0  0  0  0  0
    1.3025    5.9252   11.3063 C   0  0  0  0  0  0  0  0  0  0  0  0
    0.8913    6.7177   10.2245 C   0  0  0  0  0  0  0  0  0  0  0  0
   -0.0084    5.9348    9.5460 C   0  0  0  0  0  0  0  0  0  0  0  0
   -0.1247    4.7944   10.1562 O   0  0  0  0  0  0  0  0  0  0  0  0
    3.4423    6.6121   17.8308 C   0  0  0  0  0  0  0  0  0  0  0  0
    8.1825    9.8129   16.8512 C   0  0  0  0  0  0  0  0  0  0  0  0
    7.0011    8.9574   17.1534 C   0  0  0  0  0  0  0  0  0  0  0  0
    6.9285    8.1154   18.2131 C   0  0  0  0  0  0  0  0  0  0  0  0
    5.7797    7.3354   18.4434 C   0  0  0  0  0  0  0  0  0  0  0  0
    4.6840    7.3782   17.6260 C   0  0  0  0  0  0  0  0  0  0  0  0
    4.7925    8.2591   16.5415 C   0  0  0  0  0  0  0  0  0  0  0  0
    5.9236    9.0307   16.3091 C   0  0  0  0  0  0  0  0  0  0  0  0
 29 30  1  0  0  0
 30 31  2  0  0  0
 31 32  1  0  0  0
 32 33  2  0  0  0
 33 28  1  0  0  0
 28  1  1  0  0  0
  1  2  1  0  0  0
  2  3  2  0  0  0
  2  4  1  0  0  0
  4 18  1  0  0  0
 18 19  2  0  0  0
 18 20  1  0  0  0
 20 22  1  0  0  0
 22 23  1  0  0  0
 23 24  2  0  0  0
 24 25  1  0  0  0
 25 26  2  0  0  0
 26 27  1  0  0  0
  4  5  2  0  0  0
  5  6  1  0  0  0
  6  7  1  0  0  0
  7  8  2  0  0  0
  7  9  1  0  0  0
  9 10  1  0  0  0
 10 11  2  0  0  0
 11 12  1  0  0  0
 12 13  2  0  0  0
 13 14  1  0  0  0
 14 15  2  0  0  0
 15 16  1  0  0  0
 33 34  1  0  0  0
 34 35  2  0  0  0
 35 30  1  0  0  0
 16  1  1  0  0  0
 27 23  1  0  0  0
 16  6  2  0  0  0
 14  9  1  0  0  0
  3 17  1  0  0  0
 20 21  1  0  0  0
M  END
> <minimizedAffinity>
-7.48177

> <CNNscore>
0.3112355173

> <CNNaffinity>
6.1634993553

> <CNN_VS>
1.9182999134

> <CNNaffinity_variance>
0.6640199423

$$$$
[H]N=c1c(C(=O)N([H])C([H])([H])c2oc([H])c([H])c2[H])c([H])c2c(=O)n3c([H])c([H])c([H])c([H])c3nc2n1C([H])([H])c1c([H])c([H])c(C([H])([H])[H])c([H])c1[H]


 35 39  0  0  0  0  0  0  0  0999 V2000
    4.4563    6.3311   18.7754 N   0  0  0  0  0  0  0  0  0  0  0  0
    3.9876    6.7502   17.5691 C   0  0  0  0  0  0  0  0  0  0  0  0
    3.9802    7.9875   17.3771 N   0  0  0  0  0  0  0  0  0  0  0  0
    3.4811    5.9122   16.6100 C   0  0  0  0  0  0  0  0  0  0  0  0
    3.4519    4.5485   16.9202 C   0  0  0  0  0  0  0  0  0  0  0  0
    3.9080    4.0937   18.1134 C   0  0  0  0  0  0  0  0  0  0  0  0
    3.8553    2.7534   18.4031 C   0  0  0  0  0  0  0  0  0  0  0  0
    3.4057    1.9208   17.5785 O   0  0  0  0  0  0  0  0  0  0  0  0
    4.2904    2.3034   19.5910 N   0  0  0  0  0  0  0  0  0  0  0  0
    4.2448    0.9893   19.8899 C   0  0  0  0  0  0  0  0  0  0  0  0
    4.6734    0.4837   21.0793 C   0  0  0  0  0  0  0  0  0  0  0  0
    5.1833    1.3546   22.0371 C   0  0  0  0  0  0  0  0  0  0  0  0
    5.2154    2.6868   21.7000 C   0  0  0  0  0  0  0  0  0  0  0  0
    4.7771    3.1807   20.4906 C   0  0  0  0  0  0  0  0  0  0  0  0
    4.8210    4.4867   20.1882 N   0  0  0  0  0  0  0  0  0  0  0  0
    4.4051    5.0126   19.0204 C   0  0  0  0  0  0  0  0  0  0  0  0
    3.7049    8.5706   16.6256 H   0  0  0  0  0  0  0  0  0  0  0  0
    3.0602    6.2572   15.2769 C   0  0  0  0  0  0  0  0  0  0  0  0
    3.4018    5.4006   14.3641 O   0  0  0  0  0  0  0  0  0  0  0  0
    2.3444    7.3956   14.8662 N   0  0  0  0  0  0  0  0  0  0  0  0
    2.0870    8.1194   15.5506 H   0  0  0  0  0  0  0  0  0  0  0  0
    1.9749    7.6125   13.4722 C   0  0  0  0  0  0  0  0  0  0  0  0
    0.6090    7.1545   13.1823 C   0  0  0  0  0  0  0  0  0  0  0  0
    0.0695    6.8804   11.9549 C   0  0  0  0  0  0  0  0  0  0  0  0
   -1.2583    6.4759   12.1566 C   0  0  0  0  0  0  0  0  0  0  0  0
   -1.4335    6.5342   13.5163 C   0  0  0  0  0  0  0  0  0  0  0  0
   -0.3286    6.9316   14.0708 O   0  0  0  0  0  0  0  0  0  0  0  0
    4.9415    7.2572   19.7573 C   0  0  0  0  0  0  0  0  0  0  0  0
   10.5503    7.0353   21.2291 C   0  0  0  0  0  0  0  0  0  0  0  0
    9.1303    7.1031   20.7845 C   0  0  0  0  0  0  0  0  0  0  0  0
    8.7459    7.1453   19.4854 C   0  0  0  0  0  0  0  0  0  0  0  0
    7.3846    7.2061   19.1325 C   0  0  0  0  0  0  0  0  0  0  0  0
    6.3824    7.2261   20.0629 C   0  0  0  0  0  0  0  0  0  0  0  0
    6.8149    7.1807   21.3951 C   0  0  0  0  0  0  0  0  0  0  0  0
    8.1565    7.1210   21.7491 C   0  0  0  0  0  0  0  0  0  0  0  0
 29 30  1  0  0  0
 30 31  2  0  0  0
 31 32  1  0  0  0
 32 33  2  0  0  0
 33 28  1  0  0  0
 28  1  1  0  0  0
  1  2  1  0  0  0
  2  3  2  0  0  0
  2  4  1  0  0  0
  4 18  1  0  0  0
 18 19  2  0  0  0
 18 20  1  0  0  0
 20 22  1  0  0  0
 22 23  1  0  0  0
 23 24  2  0  0  0
 24 25  1  0  0  0
 25 26  2  0  0  0
 26 27  1  0  0  0
  4  5  2  0  0  0
  5  6  1  0  0  0
  6  7  1  0  0  0
  7  8  2  0  0  0
  7  9  1  0  0  0
  9 10  1  0  0  0
 10 11  2  0  0  0
 11 12  1  0  0  0
 12 13  2  0  0  0
 13 14  1  0  0  0
 14 15  2  0  0  0
 15 16  1  0  0  0
 33 34  1  0  0  0
 34 35  2  0  0  0
 35 30  1  0  0  0
 16  1  1  0  0  0
 27 23  1  0  0  0
 16  6  2  0  0  0
 14  9  1  0  0  0
  3 17  1  0  0  0
 20 21  1  0  0  0
M  END
> <minimizedAffinity>
-8.90115

> <CNNscore>
0.3110798895

> <CNNaffinity>
6.2959160805

> <CNN_VS>
1.9585329294

> <CNNaffinity_variance>
0.1645227373

$$$$
[H]N=c1c(C(=O)N([H])C([H])([H])c2oc([H])c([H])c2[H])c([H])c2c(=O)n3c([H])c([H])c([H])c([H])c3nc2n1C([H])([H])c1c([H])c([H])c(C([H])([H])[H])c([H])c1[H]


 35 39  0  0  0  0  0  0  0  0999 V2000
    2.3658    3.8282   15.0296 N   0  0  0  0  0  0  0  0  0  0  0  0
    2.6192    2.8414   15.9311 C   0  0  0  0  0  0  0  0  0  0  0  0
    2.0646    1.7394   15.7168 N   0  0  0  0  0  0  0  0  0  0  0  0
    3.3779    3.0104   17.0601 C   0  0  0  0  0  0  0  0  0  0  0  0
    3.9068    4.2874   17.2753 C   0  0  0  0  0  0  0  0  0  0  0  0
    3.6737    5.2966   16.4001 C   0  0  0  0  0  0  0  0  0  0  0  0
    4.1893    6.5456   16.6391 C   0  0  0  0  0  0  0  0  0  0  0  0
    4.8941    6.7824   17.6502 O   0  0  0  0  0  0  0  0  0  0  0  0
    3.9449    7.5503   15.7825 N   0  0  0  0  0  0  0  0  0  0  0  0
    4.4446    8.7830   16.0040 C   0  0  0  0  0  0  0  0  0  0  0  0
    4.2257    9.8339   15.1664 C   0  0  0  0  0  0  0  0  0  0  0  0
    3.4520    9.6374   14.0268 C   0  0  0  0  0  0  0  0  0  0  0  0
    2.9584    8.3694   13.8315 C   0  0  0  0  0  0  0  0  0  0  0  0
    3.1905    7.3173   14.6905 C   0  0  0  0  0  0  0  0  0  0  0  0
    2.6964    6.0894   14.4742 N   0  0  0  0  0  0  0  0  0  0  0  0
    2.8982    5.0333   15.2850 C   0  0  0  0  0  0  0  0  0  0  0  0
    2.0578    0.8650   16.1814 H   0  0  0  0  0  0  0  0  0  0  0  0
    3.7770    2.0027   18.0080 C   0  0  0  0  0  0  0  0  0  0  0  0
    3.7643    0.7906   17.5449 O   0  0  0  0  0  0  0  0  0  0  0  0
    4.1618    2.1836   19.3482 N   0  0  0  0  0  0  0  0  0  0  0  0
    4.1491    3.1230   19.7676 H   0  0  0  0  0  0  0  0  0  0  0  0
    4.5533    1.0633   20.1958 C   0  0  0  0  0  0  0  0  0  0  0  0
    4.8214    1.4810   21.5790 C   0  0  0  0  0  0  0  0  0  0  0  0
    3.9239    1.5641   22.6087 C   0  0  0  0  0  0  0  0  0  0  0  0
    4.6205    2.0058   23.7431 C   0  0  0  0  0  0  0  0  0  0  0  0
    5.9144    2.1621   23.3139 C   0  0  0  0  0  0  0  0  0  0  0  0
    5.9860    1.8479   22.0559 O   0  0  0  0  0  0  0  0  0  0  0  0
    1.5333    3.6046   13.8833 C   0  0  0  0  0  0  0  0  0  0  0  0
    3.8985    1.6602    8.9539 C   0  0  0  0  0  0  0  0  0  0  0  0
    3.3421    2.2082   10.2223 C   0  0  0  0  0  0  0  0  0  0  0  0
    3.7755    3.3521   10.8063 C   0  0  0  0  0  0  0  0  0  0  0  0
    3.2040    3.8168   12.0057 C   0  0  0  0  0  0  0  0  0  0  0  0
    2.1930    3.1540   12.6454 C   0  0  0  0  0  0  0  0  0  0  0  0
    1.7691    1.9767   12.0145 C   0  0  0  0  0  0  0  0  0  0  0  0
    2.3295    1.5132   10.8314 C   0  0  0  0  0  0  0  0  0  0  0  0
 29 30  1  0  0  0
 30 31  2  0  0  0
 31 32  1  0  0  0
 32 33  2  0  0  0
 33 28  1  0  0  0
 28  1  1  0  0  0
  1  2  1  0  0  0
  2  3  2  0  0  0
  2  4  1  0  0  0
  4 18  1  0  0  0
 18 19  2  0  0  0
 18 20  1  0  0  0
 20 22  1  0  0  0
 22 23  1  0  0  0
 23 24  2  0  0  0
 24 25  1  0  0  0
 25 26  2  0  0  0
 26 27  1  0  0  0
  4  5  2  0  0  0
  5  6  1  0  0  0
  6  7  1  0  0  0
  7  8  2  0  0  0
  7  9  1  0  0  0
  9 10  1  0  0  0
 10 11  2  0  0  0
 11 12  1  0  0  0
 12 13  2  0  0  0
 13 14  1  0  0  0
 14 15  2  0  0  0
 15 16  1  0  0  0
 33 34  1  0  0  0
 34 35  2  0  0  0
 35 30  1  0  0  0
 16  1  1  0  0  0
 27 23  1  0  0  0
 16  6  2  0  0  0
 14  9  1  0  0  0
  3 17  1  0  0  0
 20 21  1  0  0  0
M  END
> <minimizedAffinity>
-7.99995

> <CNNscore>
0.2606066465

> <CNNaffinity>
6.3265447617

> <CNN_VS>
1.6487395763

> <CNNaffinity_variance>
0.4141087532

$$$$
[H]N=c1c(C(=O)N([H])C([H])([H])c2oc([H])c([H])c2[H])c([H])c2c(=O)n3c([H])c([H])c([H])c([H])c3nc2n1C([H])([H])c1c([H])c([H])c(C([H])([H])[H])c([H])c1[H]


 35 39  0  0  0  0  0  0  0  0999 V2000
    4.8356    4.5928   17.4893 N   0  0  0  0  0  0  0  0  0  0  0  0
    4.7050    5.1806   16.2695 C   0  0  0  0  0  0  0  0  0  0  0  0
    5.1862    6.3308   16.1544 N   0  0  0  0  0  0  0  0  0  0  0  0
    4.0376    4.6161   15.2137 C   0  0  0  0  0  0  0  0  0  0  0  0
    3.4612    3.3608   15.4346 C   0  0  0  0  0  0  0  0  0  0  0  0
    3.5684    2.7450   16.6379 C   0  0  0  0  0  0  0  0  0  0  0  0
    2.9817    1.5206   16.8374 C   0  0  0  0  0  0  0  0  0  0  0  0
    2.3527    0.9371   15.9213 O   0  0  0  0  0  0  0  0  0  0  0  0
    3.0720    0.9174   18.0335 N   0  0  0  0  0  0  0  0  0  0  0  0
    2.5006   -0.2856   18.2446 C   0  0  0  0  0  0  0  0  0  0  0  0
    2.5638   -0.9379   19.4382 C   0  0  0  0  0  0  0  0  0  0  0  0
    3.2469   -0.3443   20.4951 C   0  0  0  0  0  0  0  0  0  0  0  0
    3.8172    0.8814   20.2458 C   0  0  0  0  0  0  0  0  0  0  0  0
    3.7430    1.5268   19.0307 C   0  0  0  0  0  0  0  0  0  0  0  0
    4.3102    2.7230   18.8155 N   0  0  0  0  0  0  0  0  0  0  0  0
    4.2638    3.3888   17.6459 C   0  0  0  0  0  0  0  0  0  0  0  0
    5.2413    6.9884   15.4161 H   0  0  0  0  0  0  0  0  0  0  0  0
    3.9380    5.1196   13.8684 C   0  0  0  0  0  0  0  0  0  0  0  0
    3.3202    6.2557   13.7613 O   0  0  0  0  0  0  0  0  0  0  0  0
    4.4184    4.5260   12.6878 N   0  0  0  0  0  0  0  0  0  0  0  0
    4.8800    3.6071   12.7217 H   0  0  0  0  0  0  0  0  0  0  0  0
    4.2534    5.1589   11.3843 C   0  0  0  0  0  0  0  0  0  0  0  0
    4.4833    4.2194   10.2780 C   0  0  0  0  0  0  0  0  0  0  0  0
    5.0336    4.4962    9.0560 C   0  0  0  0  0  0  0  0  0  0  0  0
    5.0572    3.3014    8.3217 C   0  0  0  0  0  0  0  0  0  0  0  0
    4.5100    2.3676    9.1651 C   0  0  0  0  0  0  0  0  0  0  0  0
    4.1918    2.9414   10.2857 O   0  0  0  0  0  0  0  0  0  0  0  0
    5.5138    5.2464   18.5709 C   0  0  0  0  0  0  0  0  0  0  0  0
    3.8647    4.1217   24.0197 C   0  0  0  0  0  0  0  0  0  0  0  0
    4.2250    4.4402   22.6099 C   0  0  0  0  0  0  0  0  0  0  0  0
    3.4682    5.2116   21.7917 C   0  0  0  0  0  0  0  0  0  0  0  0
    3.8681    5.4764   20.4684 C   0  0  0  0  0  0  0  0  0  0  0  0
    5.0257    4.9801   19.9352 C   0  0  0  0  0  0  0  0  0  0  0  0
    5.7837    4.1879   20.8080 C   0  0  0  0  0  0  0  0  0  0  0  0
    5.3939    3.9230   22.1144 C   0  0  0  0  0  0  0  0  0  0  0  0
 29 30  1  0  0  0
 30 31  2  0  0  0
 31 32  1  0  0  0
 32 33  2  0  0  0
 33 28  1  0  0  0
 28  1  1  0  0  0
  1  2  1  0  0  0
  2  3  2  0  0  0
  2  4  1  0  0  0
  4 18  1  0  0  0
 18 19  2  0  0  0
 18 20  1  0  0  0
 20 22  1  0  0  0
 22 23  1  0  0  0
 23 24  2  0  0  0
 24 25  1  0  0  0
 25 26  2  0  0  0
 26 27  1  0  0  0
  4  5  2  0  0  0
  5  6  1  0  0  0
  6  7  1  0  0  0
  7  8  2  0  0  0
  7  9  1  0  0  0
  9 10  1  0  0  0
 10 11  2  0  0  0
 11 12  1  0  0  0
 12 13  2  0  0  0
 13 14  1  0  0  0
 14 15  2  0  0  0
 15 16  1  0  0  0
 33 34  1  0  0  0
 34 35  2  0  0  0
 35 30  1  0  0  0
 16  1  1  0  0  0
 27 23  1  0  0  0
 16  6  2  0  0  0
 14  9  1  0  0  0
  3 17  1  0  0  0
 20 21  1  0  0  0
M  END
> <minimizedAffinity>
-7.85681

> <CNNscore>
0.2437671125

> <CNNaffinity>
6.3991804123

> <CNN_VS>
1.5599097013

> <CNNaffinity_variance>
0.4902207851

$$$$
[H]N=c1c(C(=O)N([H])C([H])([H])c2oc([H])c([H])c2[H])c([H])c2c(=O)n3c([H])c([H])c([H])c([H])c3nc2n1C([H])([H])c1c([H])c([H])c(C([H])([H])[H])c([H])c1[H]


 35 39  0  0  0  0  0  0  0  0999 V2000
    1.8636    2.7268   14.2774 N   0  0  0  0  0  0  0  0  0  0  0  0
    2.4765    2.2270   15.3843 C   0  0  0  0  0  0  0  0  0  0  0  0
    2.2584    1.0212   15.6414 N   0  0  0  0  0  0  0  0  0  0  0  0
    3.2458    2.9740   16.2381 C   0  0  0  0  0  0  0  0  0  0  0  0
    3.3875    4.3312   15.9304 C   0  0  0  0  0  0  0  0  0  0  0  0
    2.7896    4.8656   14.8370 C   0  0  0  0  0  0  0  0  0  0  0  0
    2.9290    6.2029   14.5628 C   0  0  0  0  0  0  0  0  0  0  0  0
    3.6167    6.9550   15.2955 O   0  0  0  0  0  0  0  0  0  0  0  0
    2.3233    6.7373   13.4903 N   0  0  0  0  0  0  0  0  0  0  0  0
    2.4510    8.0497   13.2081 C   0  0  0  0  0  0  0  0  0  0  0  0
    1.8573    8.6388   12.1336 C   0  0  0  0  0  0  0  0  0  0  0  0
    1.0810    7.8595   11.2814 C   0  0  0  0  0  0  0  0  0  0  0  0
    0.9720    6.5264   11.5982 C   0  0  0  0  0  0  0  0  0  0  0  0
    1.5803    5.9472   12.6905 C   0  0  0  0  0  0  0  0  0  0  0  0
    1.4570    4.6423   12.9750 N   0  0  0  0  0  0  0  0  0  0  0  0
    2.0335    4.0348   14.0294 C   0  0  0  0  0  0  0  0  0  0  0  0
    2.5524    0.4004   16.3547 H   0  0  0  0  0  0  0  0  0  0  0  0
    4.0074    2.5082   17.3678 C   0  0  0  0  0  0  0  0  0  0  0  0
    4.5771    1.3549   17.1965 O   0  0  0  0  0  0  0  0  0  0  0  0
    4.1903    3.1470   18.6069 N   0  0  0  0  0  0  0  0  0  0  0  0
    3.7254    4.0443   18.7998 H   0  0  0  0  0  0  0  0  0  0  0  0
    5.0024    2.5580   19.6655 C   0  0  0  0  0  0  0  0  0  0  0  0
    4.1946    1.7880   20.6215 C   0  0  0  0  0  0  0  0  0  0  0  0
    4.0567    2.0170   21.9636 C   0  0  0  0  0  0  0  0  0  0  0  0
    3.1928    1.0367   22.4739 C   0  0  0  0  0  0  0  0  0  0  0  0
    2.8619    0.2689   21.3860 C   0  0  0  0  0  0  0  0  0  0  0  0
    3.4634    0.7384   20.3352 O   0  0  0  0  0  0  0  0  0  0  0  0
    1.0388    1.9062   13.4387 C   0  0  0  0  0  0  0  0  0  0  0  0
    3.1157    0.9338    8.1081 C   0  0  0  0  0  0  0  0  0  0  0  0
    2.5175    1.1826    9.4494 C   0  0  0  0  0  0  0  0  0  0  0  0
    1.1876    1.1295    9.7058 C   0  0  0  0  0  0  0  0  0  0  0  0
    0.6870    1.3729   10.9987 C   0  0  0  0  0  0  0  0  0  0  0  0
    1.4980    1.6730   12.0583 C   0  0  0  0  0  0  0  0  0  0  0  0
    2.8661    1.7188   11.7583 C   0  0  0  0  0  0  0  0  0  0  0  0
    3.3655    1.4800   10.4846 C   0  0  0  0  0  0  0  0  0  0  0  0
 29 30  1  0  0  0
 30 31  2  0  0  0
 31 32  1  0  0  0
 32 33  2  0  0  0
 33 28  1  0  0  0
 28  1  1  0  0  0
  1  2  1  0  0  0
  2  3  2  0  0  0
  2  4  1  0  0  0
  4 18  1  0  0  0
 18 19  2  0  0  0
 18 20  1  0  0  0
 20 22  1  0  0  0
 22 23  1  0  0  0
 23 24  2  0  0  0
 24 25  1  0  0  0
 25 26  2  0  0  0
 26 27  1  0  0  0
  4  5  2  0  0  0
  5  6  1  0  0  0
  6  7  1  0  0  0
  7  8  2  0  0  0
  7  9  1  0  0  0
  9 10  1  0  0  0
 10 11  2  0  0  0
 11 12  1  0  0  0
 12 13  2  0  0  0
 13 14  1  0  0  0
 14 15  2  0  0  0
 15 16  1  0  0  0
 33 34  1  0  0  0
 34 35  2  0  0  0
 35 30  1  0  0  0
 16  1  1  0  0  0
 27 23  1  0  0  0
 16  6  2  0  0  0
 14  9  1  0  0  0
  3 17  1  0  0  0
 20 21  1  0  0  0
M  END
> <minimizedAffinity>
-7.75386

> <CNNscore>
0.2289753556

> <CNNaffinity>
6.2421388626

> <CNN_VS>
1.4292960167

> <CNNaffinity_variance>
0.2716012001

$$$$
[H]/C(=C(\[H])C([H])([H])C([H])([H])N([H])C(=O)/C([H])=C([H])/C([H])=C([H])/C([H])=C(\[H])c1sc([H])c([H])c1[H])C([H])([H])OC(=O)C([H])([H])C([H])(C([H])([H])[H])C([H])([H])[H]


 27 27  0  0  0  0  0  0  0  0999 V2000
    2.3523    3.3281   11.5420 N   0  0  0  0  0  0  0  0  0  0  0  0
    1.7848    2.2861   12.2984 C   0  0  0  0  0  0  0  0  0  0  0  0
    1.1393    1.3886   11.7018 O   0  0  0  0  0  0  0  0  0  0  0  0
    2.8936    4.0790   12.0330 H   0  0  0  0  0  0  0  0  0  0  0  0
    1.9280    2.2276   13.7323 C   0  0  0  0  0  0  0  0  0  0  0  0
    2.9586    1.7365   14.3581 C   0  0  0  0  0  0  0  0  0  0  0  0
    3.0463    1.7051   15.8222 C   0  0  0  0  0  0  0  0  0  0  0  0
    3.0731    0.6035   16.5156 C   0  0  0  0  0  0  0  0  0  0  0  0
    3.1619    0.6007   17.9891 C   0  0  0  0  0  0  0  0  0  0  0  0
    3.9534    1.4387   18.6180 C   0  0  0  0  0  0  0  0  0  0  0  0
    4.0341    1.4265   20.0987 C   0  0  0  0  0  0  0  0  0  0  0  0
    3.3149    0.6534   20.9697 C   0  0  0  0  0  0  0  0  0  0  0  0
    3.5572    0.8131   22.2807 C   0  0  0  0  0  0  0  0  0  0  0  0
    4.5045    1.7368   22.6336 C   0  0  0  0  0  0  0  0  0  0  0  0
    5.0242    2.3501   21.1336 S   0  0  0  0  0  0  0  0  0  0  0  0
    2.2343    3.4303   10.1080 C   0  0  0  0  0  0  0  0  0  0  0  0
    2.1688    4.8617    9.6093 C   0  0  0  0  0  0  0  0  0  0  0  0
    0.6659    6.2039    8.1766 C   0  0  0  0  0  0  0  0  0  0  0  0
    1.0215    5.0627    8.7052 C   0  0  0  0  0  0  0  0  0  0  0  0
    1.3925    7.4490    8.4344 C   0  0  0  0  0  0  0  0  0  0  0  0
    0.9925    8.4366    7.5105 O   0  0  0  0  0  0  0  0  0  0  0  0
    1.7471    9.5699    7.3284 C   0  0  0  0  0  0  0  0  0  0  0  0
    1.7460   10.4643    8.1990 O   0  0  0  0  0  0  0  0  0  0  0  0
    2.5850    9.7821    6.1098 C   0  0  0  0  0  0  0  0  0  0  0  0
    4.2236    8.3129    4.9194 C   0  0  0  0  0  0  0  0  0  0  0  0
    3.8532    8.9632    6.2141 C   0  0  0  0  0  0  0  0  0  0  0  0
    5.0106    9.7732    6.7188 C   0  0  0  0  0  0  0  0  0  0  0  0
 25 26  1  0  0  0
 26 27  1  0  0  0
 26 24  1  0  0  0
 24 22  1  0  0  0
 22 23  2  0  0  0
 22 21  1  0  0  0
 21 20  1  0  0  0
 20 18  1  0  0  0
 18 19  2  0  0  0
 19 17  1  0  0  0
 17 16  1  0  0  0
 16  1  1  0  0  0
  1  2  1  0  0  0
  2  3  2  0  0  0
  2  5  1  0  0  0
  5  6  2  0  0  0
  6  7  1  0  0  0
  7  8  2  0  0  0
  8  9  1  0  0  0
  9 10  2  0  0  0
 10 11  1  0  0  0
 11 12  2  0  0  0
 12 13  1  0  0  0
 13 14  2  0  0  0
 14 15  1  0  0  0
 15 11  1  0  0  0
  1  4  1  0  0  0
M  END
> <minimizedAffinity>
-5.61326

> <CNNscore>
0.6155393124

> <CNNaffinity>
5.2421545982

> <CNN_VS>
3.2267522812

> <CNNaffinity_variance>
0.8519741893

$$$$
[H]/C(=C(\[H])C([H])([H])C([H])([H])N([H])C(=O)/C([H])=C([H])/C([H])=C([H])/C([H])=C(\[H])c1sc([H])c([H])c1[H])C([H])([H])OC(=O)C([H])([H])C([H])(C([H])([H])[H])C([H])([H])[H]


 27 27  0  0  0  0  0  0  0  0999 V2000
    2.3521    5.0518   12.7466 N   0  0  0  0  0  0  0  0  0  0  0  0
    2.6070    3.7655   13.2569 C   0  0  0  0  0  0  0  0  0  0  0  0
    2.8299    2.8287   12.4502 O   0  0  0  0  0  0  0  0  0  0  0  0
    2.1673    5.8383   13.4140 H   0  0  0  0  0  0  0  0  0  0  0  0
    2.6177    3.5028   14.6749 C   0  0  0  0  0  0  0  0  0  0  0  0
    3.5674    2.8773   15.3089 C   0  0  0  0  0  0  0  0  0  0  0  0
    3.5214    2.6400   16.7560 C   0  0  0  0  0  0  0  0  0  0  0  0
    4.4833    2.0662   17.4196 C   0  0  0  0  0  0  0  0  0  0  0  0
    4.4109    1.8397   18.8764 C   0  0  0  0  0  0  0  0  0  0  0  0
    4.8875    2.7255   19.7205 C   0  0  0  0  0  0  0  0  0  0  0  0
    4.8090    2.4869   21.1820 C   0  0  0  0  0  0  0  0  0  0  0  0
    4.0134    1.5898   21.8420 C   0  0  0  0  0  0  0  0  0  0  0  0
    4.1110    1.5471   23.1806 C   0  0  0  0  0  0  0  0  0  0  0  0
    4.9995    2.4058   23.7705 C   0  0  0  0  0  0  0  0  0  0  0  0
    5.6669    3.2413   22.4467 S   0  0  0  0  0  0  0  0  0  0  0  0
    2.3287    5.3624   11.3381 C   0  0  0  0  0  0  0  0  0  0  0  0
    0.9736    5.8378   10.8485 C   0  0  0  0  0  0  0  0  0  0  0  0
   -1.2598    5.4494   11.8352 C   0  0  0  0  0  0  0  0  0  0  0  0
   -0.0185    5.8450   11.9392 C   0  0  0  0  0  0  0  0  0  0  0  0
   -1.8191    4.9398   10.5813 C   0  0  0  0  0  0  0  0  0  0  0  0
   -2.5772    5.9481    9.9508 O   0  0  0  0  0  0  0  0  0  0  0  0
   -3.7736    5.6480    9.3461 C   0  0  0  0  0  0  0  0  0  0  0  0
   -3.7876    5.2211    8.1733 O   0  0  0  0  0  0  0  0  0  0  0  0
   -5.0835    5.8140   10.0450 C   0  0  0  0  0  0  0  0  0  0  0  0
   -5.7749    4.5913   12.1156 C   0  0  0  0  0  0  0  0  0  0  0  0
   -5.5112    4.4931   10.6469 C   0  0  0  0  0  0  0  0  0  0  0  0
   -6.7138    3.9195    9.9577 C   0  0  0  0  0  0  0  0  0  0  0  0
 25 26  1  0  0  0
 26 27  1  0  0  0
 26 24  1  0  0  0
 24 22  1  0  0  0
 22 23  2  0  0  0
 22 21  1  0  0  0
 21 20  1  0  0  0
 20 18  1  0  0  0
 18 19  2  0  0  0
 19 17  1  0  0  0
 17 16  1  0  0  0
 16  1  1  0  0  0
  1  2  1  0  0  0
  2  3  2  0  0  0
  2  5  1  0  0  0
  5  6  2  0  0  0
  6  7  1  0  0  0
  7  8  2  0  0  0
  8  9  1  0  0  0
  9 10  2  0  0  0
 10 11  1  0  0  0
 11 12  2  0  0  0
 12 13  1  0  0  0
 13 14  2  0  0  0
 14 15  1  0  0  0
 15 11  1  0  0  0
  1  4  1  0  0  0
M  END
> <minimizedAffinity>
-5.46992

> <CNNscore>
0.6140255928

> <CNNaffinity>
5.4173836708

> <CNN_VS>
3.3264122009

> <CNNaffinity_variance>
0.1136027724

$$$$
[H]/C(=C(\[H])C([H])([H])C([H])([H])N([H])C(=O)/C([H])=C([H])/C([H])=C([H])/C([H])=C(\[H])c1sc([H])c([H])c1[H])C([H])([H])OC(=O)C([H])([H])C([H])(C([H])([H])[H])C([H])([H])[H]


 27 27  0  0  0  0  0  0  0  0999 V2000
    2.4246    3.4999   10.8994 N   0  0  0  0  0  0  0  0  0  0  0  0
    2.1829    2.4705   11.8278 C   0  0  0  0  0  0  0  0  0  0  0  0
    1.3933    1.5457   11.5126 O   0  0  0  0  0  0  0  0  0  0  0  0
    3.0836    4.2734   11.1552 H   0  0  0  0  0  0  0  0  0  0  0  0
    2.8177    2.4553   13.1227 C   0  0  0  0  0  0  0  0  0  0  0  0
    2.2088    2.2122   14.2474 C   0  0  0  0  0  0  0  0  0  0  0  0
    2.9106    2.2107   15.5358 C   0  0  0  0  0  0  0  0  0  0  0  0
    3.2046    1.1249   16.1911 C   0  0  0  0  0  0  0  0  0  0  0  0
    3.9120    1.1522   17.4864 C   0  0  0  0  0  0  0  0  0  0  0  0
    3.9581    2.2497   18.2060 C   0  0  0  0  0  0  0  0  0  0  0  0
    4.6717    2.2649   19.5058 C   0  0  0  0  0  0  0  0  0  0  0  0
    5.0215    1.1925   20.2811 C   0  0  0  0  0  0  0  0  0  0  0  0
    5.6691    1.4469   21.4296 C   0  0  0  0  0  0  0  0  0  0  0  0
    5.9241    2.7591   21.7263 C   0  0  0  0  0  0  0  0  0  0  0  0
    5.2560    3.5921   20.4012 S   0  0  0  0  0  0  0  0  0  0  0  0
    1.8121    3.5593    9.5948 C   0  0  0  0  0  0  0  0  0  0  0  0
    2.0729    4.8640    8.8656 C   0  0  0  0  0  0  0  0  0  0  0  0
    4.2257    6.0130    8.4686 C   0  0  0  0  0  0  0  0  0  0  0  0
    3.3584    5.4591    9.2743 C   0  0  0  0  0  0  0  0  0  0  0  0
    4.0077    6.1048    7.0233 C   0  0  0  0  0  0  0  0  0  0  0  0
    4.7302    7.1965    6.4988 O   0  0  0  0  0  0  0  0  0  0  0  0
    4.1107    8.1240    5.6969 C   0  0  0  0  0  0  0  0  0  0  0  0
    4.7805    8.7795    4.8725 O   0  0  0  0  0  0  0  0  0  0  0  0
    2.6419    8.3870    5.7705 C   0  0  0  0  0  0  0  0  0  0  0  0
    1.0267   10.2436    6.2230 C   0  0  0  0  0  0  0  0  0  0  0  0
    2.3939    9.6974    6.4855 C   0  0  0  0  0  0  0  0  0  0  0  0
    2.6150    9.5861    7.9650 C   0  0  0  0  0  0  0  0  0  0  0  0
 25 26  1  0  0  0
 26 27  1  0  0  0
 26 24  1  0  0  0
 24 22  1  0  0  0
 22 23  2  0  0  0
 22 21  1  0  0  0
 21 20  1  0  0  0
 20 18  1  0  0  0
 18 19  2  0  0  0
 19 17  1  0  0  0
 17 16  1  0  0  0
 16  1  1  0  0  0
  1  2  1  0  0  0
  2  3  2  0  0  0
  2  5  1  0  0  0
  5  6  2  0  0  0
  6  7  1  0  0  0
  7  8  2  0  0  0
  8  9  1  0  0  0
  9 10  2  0  0  0
 10 11  1  0  0  0
 11 12  2  0  0  0
 12 13  1  0  0  0
 13 14  2  0  0  0
 14 15  1  0  0  0
 15 11  1  0  0  0
  1  4  1  0  0  0
M  END
> <minimizedAffinity>
-5.04418

> <CNNscore>
0.6054561138

> <CNNaffinity>
5.2585287094

> <CNN_VS>
3.1838083267

> <CNNaffinity_variance>
0.6603616476

$$$$
[H]/C(=C(\[H])C([H])([H])C([H])([H])N([H])C(=O)/C([H])=C([H])/C([H])=C([H])/C([H])=C(\[H])c1sc([H])c([H])c1[H])C([H])([H])OC(=O)C([H])([H])C([H])(C([H])([H])[H])C([H])([H])[H]


 27 27  0  0  0  0  0  0  0  0999 V2000
   -0.4569    3.0217   10.8774 N   0  0  0  0  0  0  0  0  0  0  0  0
    0.8331    3.4367   11.2562 C   0  0  0  0  0  0  0  0  0  0  0  0
    1.5463    4.0373   10.4142 O   0  0  0  0  0  0  0  0  0  0  0  0
   -1.0578    2.5219   11.5754 H   0  0  0  0  0  0  0  0  0  0  0  0
    1.3491    3.1892   12.5800 C   0  0  0  0  0  0  0  0  0  0  0  0
    1.9830    2.1113   12.9424 C   0  0  0  0  0  0  0  0  0  0  0  0
    2.4852    1.9172   14.3072 C   0  0  0  0  0  0  0  0  0  0  0  0
    3.5545    2.5000   14.7675 C   0  0  0  0  0  0  0  0  0  0  0  0
    4.0378    2.2869   16.1459 C   0  0  0  0  0  0  0  0  0  0  0  0
    3.7437    3.1375   17.1021 C   0  0  0  0  0  0  0  0  0  0  0  0
    4.2350    2.9128   18.4831 C   0  0  0  0  0  0  0  0  0  0  0  0
    4.3963    1.7173   19.1298 C   0  0  0  0  0  0  0  0  0  0  0  0
    4.8599    1.7552   20.3895 C   0  0  0  0  0  0  0  0  0  0  0  0
    5.1317    2.9884   20.9190 C   0  0  0  0  0  0  0  0  0  0  0  0
    4.7342    4.0502   19.6500 S   0  0  0  0  0  0  0  0  0  0  0  0
   -1.0149    3.2444    9.5660 C   0  0  0  0  0  0  0  0  0  0  0  0
   -2.3629    3.9401    9.5950 C   0  0  0  0  0  0  0  0  0  0  0  0
   -4.4755    3.2549    8.5087 C   0  0  0  0  0  0  0  0  0  0  0  0
   -3.4576    3.0012    9.2882 C   0  0  0  0  0  0  0  0  0  0  0  0
   -4.6454    4.5432    7.8332 C   0  0  0  0  0  0  0  0  0  0  0  0
   -5.7583    5.2224    8.3708 O   0  0  0  0  0  0  0  0  0  0  0  0
   -5.5906    6.3870    9.0798 C   0  0  0  0  0  0  0  0  0  0  0  0
   -5.0830    7.3841    8.5266 O   0  0  0  0  0  0  0  0  0  0  0  0
   -5.9973    6.5139   10.5117 C   0  0  0  0  0  0  0  0  0  0  0  0
   -4.5147    6.4971   12.5272 C   0  0  0  0  0  0  0  0  0  0  0  0
   -5.0596    5.7052   11.3816 C   0  0  0  0  0  0  0  0  0  0  0  0
   -5.7043    4.4531   11.8979 C   0  0  0  0  0  0  0  0  0  0  0  0
 25 26  1  0  0  0
 26 27  1  0  0  0
 26 24  1  0  0  0
 24 22  1  0  0  0
 22 23  2  0  0  0
 22 21  1  0  0  0
 21 20  1  0  0  0
 20 18  1  0  0  0
 18 19  2  0  0  0
 19 17  1  0  0  0
 17 16  1  0  0  0
 16  1  1  0  0  0
  1  2  1  0  0  0
  2  3  2  0  0  0
  2  5  1  0  0  0
  5  6  2  0  0  0
  6  7  1  0  0  0
  7  8  2  0  0  0
  8  9  1  0  0  0
  9 10  2  0  0  0
 10 11  1  0  0  0
 11 12  2  0  0  0
 12 13  1  0  0  0
 13 14  2  0  0  0
 14 15  1  0  0  0
 15 11  1  0  0  0
  1  4  1  0  0  0
M  END
> <minimizedAffinity>
-5.48971

> <CNNscore>
0.5755836368

> <CNNaffinity>
5.5620808601

> <CNN_VS>
3.2014427185

> <CNNaffinity_variance>
0.4475246370

$$$$
[H]/C(=C(\[H])C([H])([H])C([H])([H])N([H])C(=O)/C([H])=C([H])/C([H])=C([H])/C([H])=C(\[H])c1sc([H])c([H])c1[H])C([H])([H])OC(=O)C([H])([H])C([H])(C([H])([H])[H])C([H])([H])[H]


 27 27  0  0  0  0  0  0  0  0999 V2000
    3.4016    6.3070   11.6725 N   0  0  0  0  0  0  0  0  0  0  0  0
    2.4546    5.4548   12.2698 C   0  0  0  0  0  0  0  0  0  0  0  0
    1.4879    5.0471   11.5788 O   0  0  0  0  0  0  0  0  0  0  0  0
    4.2115    6.6492   12.2425 H   0  0  0  0  0  0  0  0  0  0  0  0
    2.5699    5.0431   13.6472 C   0  0  0  0  0  0  0  0  0  0  0  0
    3.0777    3.9126   14.0462 C   0  0  0  0  0  0  0  0  0  0  0  0
    3.1680    3.5497   15.4648 C   0  0  0  0  0  0  0  0  0  0  0  0
    4.1555    2.8676   15.9692 C   0  0  0  0  0  0  0  0  0  0  0  0
    4.2213    2.5160   17.4013 C   0  0  0  0  0  0  0  0  0  0  0  0
    3.8043    1.3462   17.8278 C   0  0  0  0  0  0  0  0  0  0  0  0
    3.8756    1.0043   19.2690 C   0  0  0  0  0  0  0  0  0  0  0  0
    4.7641    1.4748   20.1978 C   0  0  0  0  0  0  0  0  0  0  0  0
    4.6385    1.0225   21.4559 C   0  0  0  0  0  0  0  0  0  0  0  0
    3.6309    0.1284   21.7013 C   0  0  0  0  0  0  0  0  0  0  0  0
    2.8946   -0.0523   20.1778 S   0  0  0  0  0  0  0  0  0  0  0  0
    3.3274    6.7472   10.3008 C   0  0  0  0  0  0  0  0  0  0  0  0
    4.5577    6.3926    9.4869 C   0  0  0  0  0  0  0  0  0  0  0  0
    6.5884    5.9248   10.8174 C   0  0  0  0  0  0  0  0  0  0  0  0
    5.4774    5.5313   10.2525 C   0  0  0  0  0  0  0  0  0  0  0  0
    7.0565    7.3107   10.7479 C   0  0  0  0  0  0  0  0  0  0  0  0
    6.9500    7.9160   12.0172 O   0  0  0  0  0  0  0  0  0  0  0  0
    8.0377    8.5248   12.5947 C   0  0  0  0  0  0  0  0  0  0  0  0
    7.9639    8.9477   13.7667 O   0  0  0  0  0  0  0  0  0  0  0  0
    9.3294    8.7060   11.8664 C   0  0  0  0  0  0  0  0  0  0  0  0
   10.8052    6.8014   11.1917 C   0  0  0  0  0  0  0  0  0  0  0  0
   10.3214    7.6566   12.3190 C   0  0  0  0  0  0  0  0  0  0  0  0
   11.4955    8.2578   13.0333 C   0  0  0  0  0  0  0  0  0  0  0  0
 25 26  1  0  0  0
 26 27  1  0  0  0
 26 24  1  0  0  0
 24 22  1  0  0  0
 22 23  2  0  0  0
 22 21  1  0  0  0
 21 20  1  0  0  0
 20 18  1  0  0  0
 18 19  2  0  0  0
 19 17  1  0  0  0
 17 16  1  0  0  0
 16  1  1  0  0  0
  1  2  1  0  0  0
  2  3  2  0  0  0
  2  5  1  0  0  0
  5  6  2  0  0  0
  6  7  1  0  0  0
  7  8  2  0  0  0
  8  9  1  0  0  0
  9 10  2  0  0  0
 10 11  1  0  0  0
 11 12  2  0  0  0
 12 13  1  0  0  0
 13 14  2  0  0  0
 14 15  1  0  0  0
 15 11  1  0  0  0
  1  4  1  0  0  0
M  END
> <minimizedAffinity>
-5.40428

> <CNNscore>
0.5048542023

> <CNNaffinity>
5.5705733299

> <CNN_VS>
2.8123273849

> <CNNaffinity_variance>
0.1490036547

$$$$
[H]/C(=C(\[H])C([H])([H])C([H])([H])N([H])C(=O)/C([H])=C([H])/C([H])=C([H])/C([H])=C(\[H])c1sc([H])c([H])c1[H])C([H])([H])OC(=O)C([H])([H])C([H])(C([H])([H])[H])C([H])([H])[H]


 27 27  0  0  0  0  0  0  0  0999 V2000
    3.8376    5.0633   18.2935 N   0  0  0  0  0  0  0  0  0  0  0  0
    4.0512    3.9168   17.5064 C   0  0  0  0  0  0  0  0  0  0  0  0
    5.1232    3.2774   17.6485 O   0  0  0  0  0  0  0  0  0  0  0  0
    2.9447    5.6003   18.1814 H   0  0  0  0  0  0  0  0  0  0  0  0
    3.0731    3.4641   16.5481 C   0  0  0  0  0  0  0  0  0  0  0  0
    3.3231    3.1976   15.2985 C   0  0  0  0  0  0  0  0  0  0  0  0
    2.2835    2.7394   14.3702 C   0  0  0  0  0  0  0  0  0  0  0  0
    2.5320    2.3354   13.1579 C   0  0  0  0  0  0  0  0  0  0  0  0
    1.4661    1.8791   12.2442 C   0  0  0  0  0  0  0  0  0  0  0  0
    1.7435    1.5171   11.0128 C   0  0  0  0  0  0  0  0  0  0  0  0
    0.6642    1.0604   10.1041 C   0  0  0  0  0  0  0  0  0  0  0  0
    0.1808   -0.2110    9.9515 C   0  0  0  0  0  0  0  0  0  0  0  0
   -0.8087   -0.3919    9.0620 C   0  0  0  0  0  0  0  0  0  0  0  0
   -1.2494    0.7128    8.3835 C   0  0  0  0  0  0  0  0  0  0  0  0
   -0.2748    1.9621    9.0043 S   0  0  0  0  0  0  0  0  0  0  0  0
    4.7863    5.5555   19.2623 C   0  0  0  0  0  0  0  0  0  0  0  0
    4.2773    5.4917   20.6902 C   0  0  0  0  0  0  0  0  0  0  0  0
    6.1715    5.2681   22.2634 C   0  0  0  0  0  0  0  0  0  0  0  0
    5.2836    5.9982   21.6414 C   0  0  0  0  0  0  0  0  0  0  0  0
    6.2657    3.8185   22.0774 C   0  0  0  0  0  0  0  0  0  0  0  0
    6.0147    3.1619   23.3000 O   0  0  0  0  0  0  0  0  0  0  0  0
    4.8906    2.3886   23.4600 C   0  0  0  0  0  0  0  0  0  0  0  0
    4.6939    1.7934   24.5393 O   0  0  0  0  0  0  0  0  0  0  0  0
    3.8744    2.2260   22.3771 C   0  0  0  0  0  0  0  0  0  0  0  0
    2.7905    0.2253   21.3364 C   0  0  0  0  0  0  0  0  0  0  0  0
    4.0807    0.8991   21.6793 C   0  0  0  0  0  0  0  0  0  0  0  0
    4.9213    1.0335   20.4441 C   0  0  0  0  0  0  0  0  0  0  0  0
 25 26  1  0  0  0
 26 27  1  0  0  0
 26 24  1  0  0  0
 24 22  1  0  0  0
 22 23  2  0  0  0
 22 21  1  0  0  0
 21 20  1  0  0  0
 20 18  1  0  0  0
 18 19  2  0  0  0
 19 17  1  0  0  0
 17 16  1  0  0  0
 16  1  1  0  0  0
  1  2  1  0  0  0
  2  3  2  0  0  0
  2  5  1  0  0  0
  5  6  2  0  0  0
  6  7  1  0  0  0
  7  8  2  0  0  0
  8  9  1  0  0  0
  9 10  2  0  0  0
 10 11  1  0  0  0
 11 12  2  0  0  0
 12 13  1  0  0  0
 13 14  2  0  0  0
 14 15  1  0  0  0
 15 11  1  0  0  0
  1  4  1  0  0  0
M  END
> <minimizedAffinity>
-5.73746

> <CNNscore>
0.4959279597

> <CNNaffinity>
5.8586263657

> <CNN_VS>
2.9054565430

> <CNNaffinity_variance>
0.0415529422

$$$$
[H]/C(=C(\[H])C([H])([H])C([H])([H])N([H])C(=O)/C([H])=C([H])/C([H])=C([H])/C([H])=C(\[H])c1sc([H])c([H])c1[H])C([H])([H])OC(=O)C([H])([H])C([H])(C([H])([H])[H])C([H])([H])[H]


 27 27  0  0  0  0  0  0  0  0999 V2000
    1.4833    4.3600   12.4204 N   0  0  0  0  0  0  0  0  0  0  0  0
    1.6482    3.1246   13.0735 C   0  0  0  0  0  0  0  0  0  0  0  0
    1.2213    2.0838   12.5144 O   0  0  0  0  0  0  0  0  0  0  0  0
    1.8388    5.2319   12.8802 H   0  0  0  0  0  0  0  0  0  0  0  0
    2.2921    3.0294   14.3605 C   0  0  0  0  0  0  0  0  0  0  0  0
    2.9147    1.9761   14.8053 C   0  0  0  0  0  0  0  0  0  0  0  0
    3.5517    1.9400   16.1264 C   0  0  0  0  0  0  0  0  0  0  0  0
    4.2893    2.9057   16.5935 C   0  0  0  0  0  0  0  0  0  0  0  0
    4.9186    2.8434   17.9274 C   0  0  0  0  0  0  0  0  0  0  0  0
    4.2463    2.4134   18.9702 C   0  0  0  0  0  0  0  0  0  0  0  0
    4.8894    2.3553   20.3052 C   0  0  0  0  0  0  0  0  0  0  0  0
    5.7507    1.4026   20.7784 C   0  0  0  0  0  0  0  0  0  0  0  0
    6.2125    1.5559   22.0300 C   0  0  0  0  0  0  0  0  0  0  0  0
    5.7814    2.6537   22.7256 C   0  0  0  0  0  0  0  0  0  0  0  0
    4.7509    3.4331   21.6181 S   0  0  0  0  0  0  0  0  0  0  0  0
    0.8446    4.5053   11.1352 C   0  0  0  0  0  0  0  0  0  0  0  0
    1.8071    4.8763   10.0226 C   0  0  0  0  0  0  0  0  0  0  0  0
    3.1423    6.9424   10.2707 C   0  0  0  0  0  0  0  0  0  0  0  0
    2.9334    5.6792   10.5334 C   0  0  0  0  0  0  0  0  0  0  0  0
    2.2507    7.7234    9.4105 C   0  0  0  0  0  0  0  0  0  0  0  0
    3.0042    8.6355    8.6429 O   0  0  0  0  0  0  0  0  0  0  0  0
    2.3786    9.5423    7.8222 C   0  0  0  0  0  0  0  0  0  0  0  0
    1.6119   10.3974    8.3109 O   0  0  0  0  0  0  0  0  0  0  0  0
    2.5801    9.5489    6.3420 C   0  0  0  0  0  0  0  0  0  0  0  0
    1.0598    9.0043    4.4308 C   0  0  0  0  0  0  0  0  0  0  0  0
    1.6804    8.5150    5.7003 C   0  0  0  0  0  0  0  0  0  0  0  0
    2.3965    7.2221    5.4439 C   0  0  0  0  0  0  0  0  0  0  0  0
 25 26  1  0  0  0
 26 27  1  0  0  0
 26 24  1  0  0  0
 24 22  1  0  0  0
 22 23  2  0  0  0
 22 21  1  0  0  0
 21 20  1  0  0  0
 20 18  1  0  0  0
 18 19  2  0  0  0
 19 17  1  0  0  0
 17 16  1  0  0  0
 16  1  1  0  0  0
  1  2  1  0  0  0
  2  3  2  0  0  0
  2  5  1  0  0  0
  5  6  2  0  0  0
  6  7  1  0  0  0
  7  8  2  0  0  0
  8  9  1  0  0  0
  9 10  2  0  0  0
 10 11  1  0  0  0
 11 12  2  0  0  0
 12 13  1  0  0  0
 13 14  2  0  0  0
 14 15  1  0  0  0
 15 11  1  0  0  0
  1  4  1  0  0  0
M  END
> <minimizedAffinity>
-5.35803

> <CNNscore>
0.4956691861

> <CNNaffinity>
5.2449426651

> <CNN_VS>
2.5997564793

> <CNNaffinity_variance>
0.7860607505

$$$$
[H]/C(=C(\[H])C([H])([H])C([H])([H])N([H])C(=O)/C([H])=C([H])/C([H])=C([H])/C([H])=C(\[H])c1sc([H])c([H])c1[H])C([H])([H])OC(=O)C([H])([H])C([H])(C([H])([H])[H])C([H])([H])[H]


 27 27  0  0  0  0  0  0  0  0999 V2000
    1.3692    2.3693   11.9829 N   0  0  0  0  0  0  0  0  0  0  0  0
    1.8360    3.5153   12.6528 C   0  0  0  0  0  0  0  0  0  0  0  0
    1.7264    4.6320   12.0878 O   0  0  0  0  0  0  0  0  0  0  0  0
    1.4557    1.4349   12.4492 H   0  0  0  0  0  0  0  0  0  0  0  0
    2.4323    3.4351   13.9635 C   0  0  0  0  0  0  0  0  0  0  0  0
    2.9296    2.3533   14.4901 C   0  0  0  0  0  0  0  0  0  0  0  0
    3.5243    2.3347   15.8312 C   0  0  0  0  0  0  0  0  0  0  0  0
    3.4478    1.3140   16.6355 C   0  0  0  0  0  0  0  0  0  0  0  0
    4.0558    1.3220   17.9806 C   0  0  0  0  0  0  0  0  0  0  0  0
    4.4083    2.4496   18.5539 C   0  0  0  0  0  0  0  0  0  0  0  0
    5.0182    2.4451   19.9057 C   0  0  0  0  0  0  0  0  0  0  0  0
    5.4591    1.3648   20.6212 C   0  0  0  0  0  0  0  0  0  0  0  0
    5.9809    1.6009   21.8357 C   0  0  0  0  0  0  0  0  0  0  0  0
    6.0271    2.9040   22.2540 C   0  0  0  0  0  0  0  0  0  0  0  0
    5.3447    3.7540   20.9471 S   0  0  0  0  0  0  0  0  0  0  0  0
    0.7684    2.3993   10.6719 C   0  0  0  0  0  0  0  0  0  0  0  0
    1.7311    2.0291    9.5593 C   0  0  0  0  0  0  0  0  0  0  0  0
    3.2776    0.1096    9.7510 C   0  0  0  0  0  0  0  0  0  0  0  0
    2.9112    1.3187   10.0855 C   0  0  0  0  0  0  0  0  0  0  0  0
    2.5299   -0.6986    8.7852 C   0  0  0  0  0  0  0  0  0  0  0  0
    2.0038   -1.8411    9.4229 O   0  0  0  0  0  0  0  0  0  0  0  0
    2.2333   -3.0951    8.9112 C   0  0  0  0  0  0  0  0  0  0  0  0
    2.2306   -3.2725    7.6757 O   0  0  0  0  0  0  0  0  0  0  0  0
    2.4908   -4.2781    9.7864 C   0  0  0  0  0  0  0  0  0  0  0  0
   -0.0058   -4.1571    9.6726 C   0  0  0  0  0  0  0  0  0  0  0  0
    1.1764   -4.8445   10.2778 C   0  0  0  0  0  0  0  0  0  0  0  0
    1.0731   -6.3224   10.0424 C   0  0  0  0  0  0  0  0  0  0  0  0
 25 26  1  0  0  0
 26 27  1  0  0  0
 26 24  1  0  0  0
 24 22  1  0  0  0
 22 23  2  0  0  0
 22 21  1  0  0  0
 21 20  1  0  0  0
 20 18  1  0  0  0
 18 19  2  0  0  0
 19 17  1  0  0  0
 17 16  1  0  0  0
 16  1  1  0  0  0
  1  2  1  0  0  0
  2  3  2  0  0  0
  2  5  1  0  0  0
  5  6  2  0  0  0
  6  7  1  0  0  0
  7  8  2  0  0  0
  8  9  1  0  0  0
  9 10  2  0  0  0
 10 11  1  0  0  0
 11 12  2  0  0  0
 12 13  1  0  0  0
 13 14  2  0  0  0
 14 15  1  0  0  0
 15 11  1  0  0  0
  1  4  1  0  0  0
M  END
> <minimizedAffinity>
-5.42975

> <CNNscore>
0.4750183821

> <CNNaffinity>
5.6497130394

> <CNN_VS>
2.6837174892

> <CNNaffinity_variance>
0.3652827740

$$$$
[H]/C(=C(\[H])C([H])([H])C([H])([H])N([H])C(=O)/C([H])=C([H])/C([H])=C([H])/C([H])=C(\[H])c1sc([H])c([H])c1[H])C([H])([H])OC(=O)C([H])([H])C([H])(C([H])([H])[H])C([H])([H])[H]


 27 27  0  0  0  0  0  0  0  0999 V2000
    3.9783    5.2230   15.7971 N   0  0  0  0  0  0  0  0  0  0  0  0
    2.5741    5.1963   15.8827 C   0  0  0  0  0  0  0  0  0  0  0  0
    2.0381    5.1846   17.0188 O   0  0  0  0  0  0  0  0  0  0  0  0
    4.4319    5.2348   14.8525 H   0  0  0  0  0  0  0  0  0  0  0  0
    1.7445    5.1825   14.7030 C   0  0  0  0  0  0  0  0  0  0  0  0
    0.8759    6.1015   14.3930 C   0  0  0  0  0  0  0  0  0  0  0  0
    0.0595    6.0316   13.1761 C   0  0  0  0  0  0  0  0  0  0  0  0
    0.0197    4.9885   12.3981 C   0  0  0  0  0  0  0  0  0  0  0  0
   -0.8112    4.9449   11.1788 C   0  0  0  0  0  0  0  0  0  0  0  0
   -1.7947    5.7970   11.0028 C   0  0  0  0  0  0  0  0  0  0  0  0
   -2.6226    5.7434    9.7736 C   0  0  0  0  0  0  0  0  0  0  0  0
   -3.8730    5.2058    9.6295 C   0  0  0  0  0  0  0  0  0  0  0  0
   -4.4359    5.2713    8.4122 C   0  0  0  0  0  0  0  0  0  0  0  0
   -3.7093    5.8713    7.4187 C   0  0  0  0  0  0  0  0  0  0  0  0
   -2.2717    6.3225    8.2096 S   0  0  0  0  0  0  0  0  0  0  0  0
    4.8488    5.2354   16.9472 C   0  0  0  0  0  0  0  0  0  0  0  0
    5.4399    3.8759   17.2701 C   0  0  0  0  0  0  0  0  0  0  0  0
    4.2083    1.7489   17.5379 C   0  0  0  0  0  0  0  0  0  0  0  0
    4.5544    2.7858   16.8214 C   0  0  0  0  0  0  0  0  0  0  0  0
    4.6793    1.5502   18.9102 C   0  0  0  0  0  0  0  0  0  0  0  0
    3.5954    1.6481   19.8071 O   0  0  0  0  0  0  0  0  0  0  0  0
    3.7921    1.5061   21.1592 C   0  0  0  0  0  0  0  0  0  0  0  0
    3.0529    0.7468   21.8187 O   0  0  0  0  0  0  0  0  0  0  0  0
    4.8731    2.2355   21.8882 C   0  0  0  0  0  0  0  0  0  0  0  0
    5.5605    2.1516   24.2926 C   0  0  0  0  0  0  0  0  0  0  0  0
    4.4593    2.4547   23.3272 C   0  0  0  0  0  0  0  0  0  0  0  0
    3.9516    3.8461   23.5648 C   0  0  0  0  0  0  0  0  0  0  0  0
 25 26  1  0  0  0
 26 27  1  0  0  0
 26 24  1  0  0  0
 24 22  1  0  0  0
 22 23  2  0  0  0
 22 21  1  0  0  0
 21 20  1  0  0  0
 20 18  1  0  0  0
 18 19  2  0  0  0
 19 17  1  0  0  0
 17 16  1  0  0  0
 16  1  1  0  0  0
  1  2  1  0  0  0
  2  3  2  0  0  0
  2  5  1  0  0  0
  5  6  2  0  0  0
  6  7  1  0  0  0
  7  8  2  0  0  0
  8  9  1  0  0  0
  9 10  2  0  0  0
 10 11  1  0  0  0
 11 12  2  0  0  0
 12 13  1  0  0  0
 13 14  2  0  0  0
 14 15  1  0  0  0
 15 11  1  0  0  0
  1  4  1  0  0  0
M  END
> <minimizedAffinity>
-5.67783

> <CNNscore>
0.4728710949

> <CNNaffinity>
5.2514925003

> <CNN_VS>
2.4832789898

> <CNNaffinity_variance>
0.1595423669

$$$$
[H]Oc1nc(N([H])c2c([H])c(OC([H])([H])[H])c([H])c([H])c2OC([H])([H])[H])c([H])c2c([H])c([H])c([H])c([H])c12


 24 26  0  0  0  0  0  0  0  0999 V2000
    4.7837    2.3082   17.1557 N   0  0  0  0  0  0  0  0  0  0  0  0
    5.8309    2.1845   16.8882 H   0  0  0  0  0  0  0  0  0  0  0  0
    4.4699    1.9440   18.4623 C   0  0  0  0  0  0  0  0  0  0  0  0
    4.9703    2.7023   19.5205 C   0  0  0  0  0  0  0  0  0  0  0  0
    4.6862    2.3801   20.8358 C   0  0  0  0  0  0  0  0  0  0  0  0
    5.1769    3.1247   21.8898 C   0  0  0  0  0  0  0  0  0  0  0  0
    4.8659    2.7632   23.1799 C   0  0  0  0  0  0  0  0  0  0  0  0
    4.0806    1.6813   23.4324 C   0  0  0  0  0  0  0  0  0  0  0  0
    3.5907    0.9382   22.3879 C   0  0  0  0  0  0  0  0  0  0  0  0
    3.8951    1.2906   21.1003 C   0  0  0  0  0  0  0  0  0  0  0  0
    3.4081    0.5509   20.0435 C   0  0  0  0  0  0  0  0  0  0  0  0
    2.6089   -0.5500   20.3030 O   0  0  0  0  0  0  0  0  0  0  0  0
    3.7212    0.9175   18.7971 N   0  0  0  0  0  0  0  0  0  0  0  0
    1.6112   -0.4057   20.2633 H   0  0  0  0  0  0  0  0  0  0  0  0
    2.3772    2.5466   14.2895 C   0  0  0  0  0  0  0  0  0  0  0  0
    2.4291    3.9008   14.0865 C   0  0  0  0  0  0  0  0  0  0  0  0
    3.2239    4.7212   14.8578 C   0  0  0  0  0  0  0  0  0  0  0  0
    3.9992    4.1801   15.8718 C   0  0  0  0  0  0  0  0  0  0  0  0
    3.9844    2.8076   16.1219 C   0  0  0  0  0  0  0  0  0  0  0  0
    3.1711    2.0288   15.3206 C   0  0  0  0  0  0  0  0  0  0  0  0
    1.2422    1.9930   12.1796 C   0  0  0  0  0  0  0  0  0  0  0  0
    1.5718    1.7276   13.5054 O   0  0  0  0  0  0  0  0  0  0  0  0
    4.8065    4.9759   16.6626 O   0  0  0  0  0  0  0  0  0  0  0  0
    4.2077    5.8758   17.5890 C   0  0  0  0  0  0  0  0  0  0  0  0
 21 22  1  0  0  0
 22 15  1  0  0  0
 15 16  2  0  0  0
 16 17  1  0  0  0
 17 18  2  0  0  0
 18 23  1  0  0  0
 23 24  1  0  0  0
 18 19  1  0  0  0
 19  1  1  0  0  0
  1  3  1  0  0  0
  3  4  2  0  0  0
  4  5  1  0  0  0
  5  6  2  0  0  0
  6  7  1  0  0  0
  7  8  2  0  0  0
  8  9  1  0  0  0
  9 10  2  0  0  0
 10 11  1  0  0  0
 11 12  1  0  0  0
 11 13  2  0  0  0
 19 20  2  0  0  0
 20 15  1  0  0  0
 13  3  1  0  0  0
 10  5  1  0  0  0
  1  2  1  0  0  0
 12 14  1  0  0  0
M  END
> <minimizedAffinity>
-7.19864

> <CNNscore>
0.5572201014

> <CNNaffinity>
5.7492346764

> <CNN_VS>
3.2035892010

> <CNNaffinity_variance>
0.2637148499

$$$$
[H]Oc1nc(N([H])c2c([H])c(OC([H])([H])[H])c([H])c([H])c2OC([H])([H])[H])c([H])c2c([H])c([H])c([H])c([H])c12


 24 26  0  0  0  0  0  0  0  0999 V2000
    4.3769    2.7257   16.4397 N   0  0  0  0  0  0  0  0  0  0  0  0
    5.1919    2.2914   15.8645 H   0  0  0  0  0  0  0  0  0  0  0  0
    4.0503    2.0316   17.6016 C   0  0  0  0  0  0  0  0  0  0  0  0
    4.5393    2.4845   18.8267 C   0  0  0  0  0  0  0  0  0  0  0  0
    4.2423    1.8286   20.0083 C   0  0  0  0  0  0  0  0  0  0  0  0
    4.7216    2.2693   21.2257 C   0  0  0  0  0  0  0  0  0  0  0  0
    4.3979    1.5822   22.3724 C   0  0  0  0  0  0  0  0  0  0  0  0
    3.6111    0.4733   22.3240 C   0  0  0  0  0  0  0  0  0  0  0  0
    3.1324    0.0316   21.1162 C   0  0  0  0  0  0  0  0  0  0  0  0
    3.4495    0.7093   19.9694 C   0  0  0  0  0  0  0  0  0  0  0  0
    2.9739    0.2740   18.7506 C   0  0  0  0  0  0  0  0  0  0  0  0
    2.1732   -0.8550   18.7038 O   0  0  0  0  0  0  0  0  0  0  0  0
    3.2992    0.9546   17.6475 N   0  0  0  0  0  0  0  0  0  0  0  0
    1.1758   -0.7036   18.6935 H   0  0  0  0  0  0  0  0  0  0  0  0
    3.6376    6.3247   15.6890 C   0  0  0  0  0  0  0  0  0  0  0  0
    2.7053    6.1437   14.7011 C   0  0  0  0  0  0  0  0  0  0  0  0
    2.3223    4.8869   14.2848 C   0  0  0  0  0  0  0  0  0  0  0  0
    2.8844    3.7626   14.8696 C   0  0  0  0  0  0  0  0  0  0  0  0
    3.8382    3.8891   15.8800 C   0  0  0  0  0  0  0  0  0  0  0  0
    4.1878    5.1707   16.2611 C   0  0  0  0  0  0  0  0  0  0  0  0
    3.7825    8.7587   15.3714 C   0  0  0  0  0  0  0  0  0  0  0  0
    4.0171    7.5974   16.1017 O   0  0  0  0  0  0  0  0  0  0  0  0
    2.5216    2.4888   14.4746 O   0  0  0  0  0  0  0  0  0  0  0  0
    2.5150    2.1625   13.0889 C   0  0  0  0  0  0  0  0  0  0  0  0
 21 22  1  0  0  0
 22 15  1  0  0  0
 15 16  2  0  0  0
 16 17  1  0  0  0
 17 18  2  0  0  0
 18 23  1  0  0  0
 23 24  1  0  0  0
 18 19  1  0  0  0
 19  1  1  0  0  0
  1  3  1  0  0  0
  3  4  2  0  0  0
  4  5  1  0  0  0
  5  6  2  0  0  0
  6  7  1  0  0  0
  7  8  2  0  0  0
  8  9  1  0  0  0
  9 10  2  0  0  0
 10 11  1  0  0  0
 11 12  1  0  0  0
 11 13  2  0  0  0
 19 20  2  0  0  0
 20 15  1  0  0  0
 13  3  1  0  0  0
 10  5  1  0  0  0
  1  2  1  0  0  0
 12 14  1  0  0  0
M  END
> <minimizedAffinity>
-6.98684

> <CNNscore>
0.4954616725

> <CNNaffinity>
5.6744284630

> <CNN_VS>
2.8114619255

> <CNNaffinity_variance>
0.1058097258

$$$$
[H]Oc1nc(N([H])c2c([H])c(OC([H])([H])[H])c([H])c([H])c2OC([H])([H])[H])c([H])c2c([H])c([H])c([H])c([H])c12


 24 26  0  0  0  0  0  0  0  0999 V2000
    5.0166    2.2398   19.6087 N   0  0  0  0  0  0  0  0  0  0  0  0
    5.9386    1.6751   19.7296 H   0  0  0  0  0  0  0  0  0  0  0  0
    4.3629    2.0342   18.3969 C   0  0  0  0  0  0  0  0  0  0  0  0
    4.5541    2.9429   17.3561 C   0  0  0  0  0  0  0  0  0  0  0  0
    3.9264    2.7813   16.1337 C   0  0  0  0  0  0  0  0  0  0  0  0
    4.1094    3.6753   15.0977 C   0  0  0  0  0  0  0  0  0  0  0  0
    3.4627    3.4705   13.9012 C   0  0  0  0  0  0  0  0  0  0  0  0
    2.6443    2.3982   13.7239 C   0  0  0  0  0  0  0  0  0  0  0  0
    2.4593    1.5069   14.7508 C   0  0  0  0  0  0  0  0  0  0  0  0
    3.0991    1.7028   15.9454 C   0  0  0  0  0  0  0  0  0  0  0  0
    2.9203    0.8134   16.9838 C   0  0  0  0  0  0  0  0  0  0  0  0
    2.0868   -0.2774   16.8010 O   0  0  0  0  0  0  0  0  0  0  0  0
    3.5570    1.0292   18.1388 N   0  0  0  0  0  0  0  0  0  0  0  0
    2.5276   -1.1461   16.5383 H   0  0  0  0  0  0  0  0  0  0  0  0
    4.4794    5.2212   21.8192 C   0  0  0  0  0  0  0  0  0  0  0  0
    4.0245    4.5720   22.9370 C   0  0  0  0  0  0  0  0  0  0  0  0
    3.8934    3.2006   22.9779 C   0  0  0  0  0  0  0  0  0  0  0  0
    4.2258    2.4398   21.8676 C   0  0  0  0  0  0  0  0  0  0  0  0
    4.6940    3.0492   20.7032 C   0  0  0  0  0  0  0  0  0  0  0  0
    4.8073    4.4266   20.7135 C   0  0  0  0  0  0  0  0  0  0  0  0
    4.9968    7.3301   20.6654 C   0  0  0  0  0  0  0  0  0  0  0  0
    4.6080    6.6056   21.7883 O   0  0  0  0  0  0  0  0  0  0  0  0
    4.1055    1.0629   21.8770 O   0  0  0  0  0  0  0  0  0  0  0  0
    2.8385    0.4706   21.6113 C   0  0  0  0  0  0  0  0  0  0  0  0
 21 22  1  0  0  0
 22 15  1  0  0  0
 15 16  2  0  0  0
 16 17  1  0  0  0
 17 18  2  0  0  0
 18 23  1  0  0  0
 23 24  1  0  0  0
 18 19  1  0  0  0
 19  1  1  0  0  0
  1  3  1  0  0  0
  3  4  2  0  0  0
  4  5  1  0  0  0
  5  6  2  0  0  0
  6  7  1  0  0  0
  7  8  2  0  0  0
  8  9  1  0  0  0
  9 10  2  0  0  0
 10 11  1  0  0  0
 11 12  1  0  0  0
 11 13  2  0  0  0
 19 20  2  0  0  0
 20 15  1  0  0  0
 13  3  1  0  0  0
 10  5  1  0  0  0
  1  2  1  0  0  0
 12 14  1  0  0  0
M  END
> <minimizedAffinity>
-8.59232

> <CNNscore>
0.4697804749

> <CNNaffinity>
5.5732321739

> <CNN_VS>
2.6181957722

> <CNNaffinity_variance>
0.2756988704

$$$$
[H]Oc1nc(N([H])c2c([H])c(OC([H])([H])[H])c([H])c([H])c2OC([H])([H])[H])c([H])c2c([H])c([H])c([H])c([H])c12


 24 26  0  0  0  0  0  0  0  0999 V2000
    4.5438    2.2982   18.4729 N   0  0  0  0  0  0  0  0  0  0  0  0
    5.5954    2.1037   18.2733 H   0  0  0  0  0  0  0  0  0  0  0  0
    3.8341    2.8217   17.3956 C   0  0  0  0  0  0  0  0  0  0  0  0
    3.7739    2.1004   16.2034 C   0  0  0  0  0  0  0  0  0  0  0  0
    3.0812    2.5792   15.1055 C   0  0  0  0  0  0  0  0  0  0  0  0
    3.0160    1.8725   13.9213 C   0  0  0  0  0  0  0  0  0  0  0  0
    2.3145    2.3914   12.8581 C   0  0  0  0  0  0  0  0  0  0  0  0
    1.6831    3.5925   12.9569 C   0  0  0  0  0  0  0  0  0  0  0  0
    1.7452    4.2985   14.1320 C   0  0  0  0  0  0  0  0  0  0  0  0
    2.4413    3.7897   15.1957 C   0  0  0  0  0  0  0  0  0  0  0  0
    2.5101    4.4908   16.3810 C   0  0  0  0  0  0  0  0  0  0  0  0
    1.8667    5.7132   16.4793 O   0  0  0  0  0  0  0  0  0  0  0  0
    3.1965    3.9705   17.4028 N   0  0  0  0  0  0  0  0  0  0  0  0
    0.9453    5.7091   16.8904 H   0  0  0  0  0  0  0  0  0  0  0  0
    3.9513    2.4383   22.1732 C   0  0  0  0  0  0  0  0  0  0  0  0
    3.2929    1.2459   22.3237 C   0  0  0  0  0  0  0  0  0  0  0  0
    3.0447    0.4129   21.2540 C   0  0  0  0  0  0  0  0  0  0  0  0
    3.4648    0.7741   19.9832 C   0  0  0  0  0  0  0  0  0  0  0  0
    4.1395    1.9770   19.7731 C   0  0  0  0  0  0  0  0  0  0  0  0
    4.3635    2.7763   20.8781 C   0  0  0  0  0  0  0  0  0  0  0  0
    4.2838    4.6581   23.1772 C   0  0  0  0  0  0  0  0  0  0  0  0
    4.1966    3.2716   23.2593 O   0  0  0  0  0  0  0  0  0  0  0  0
    3.2313   -0.0392   18.8902 O   0  0  0  0  0  0  0  0  0  0  0  0
    1.8989   -0.4418   18.5912 C   0  0  0  0  0  0  0  0  0  0  0  0
 21 22  1  0  0  0
 22 15  1  0  0  0
 15 16  2  0  0  0
 16 17  1  0  0  0
 17 18  2  0  0  0
 18 23  1  0  0  0
 23 24  1  0  0  0
 18 19  1  0  0  0
 19  1  1  0  0  0
  1  3  1  0  0  0
  3  4  2  0  0  0
  4  5  1  0  0  0
  5  6  2  0  0  0
  6  7  1  0  0  0
  7  8  2  0  0  0
  8  9  1  0  0  0
  9 10  2  0  0  0
 10 11  1  0  0  0
 11 12  1  0  0  0
 11 13  2  0  0  0
 19 20  2  0  0  0
 20 15  1  0  0  0
 13  3  1  0  0  0
 10  5  1  0  0  0
  1  2  1  0  0  0
 12 14  1  0  0  0
M  END
> <minimizedAffinity>
-7.40058

> <CNNscore>
0.4290375710

> <CNNaffinity>
5.7064113617

> <CNN_VS>
2.4482648373

> <CNNaffinity_variance>
0.0967039242

$$$$
[H]Oc1nc(N([H])c2c([H])c(OC([H])([H])[H])c([H])c([H])c2OC([H])([H])[H])c([H])c2c([H])c([H])c([H])c([H])c12


 24 26  0  0  0  0  0  0  0  0999 V2000
    5.2810    3.0478   19.6813 N   0  0  0  0  0  0  0  0  0  0  0  0
    6.3442    3.2116   19.5187 H   0  0  0  0  0  0  0  0  0  0  0  0
    4.5900    2.5673   18.5724 C   0  0  0  0  0  0  0  0  0  0  0  0
    4.6094    3.3008   17.3863 C   0  0  0  0  0  0  0  0  0  0  0  0
    3.9381    2.8644   16.2578 C   0  0  0  0  0  0  0  0  0  0  0  0
    3.9516    3.5834   15.0793 C   0  0  0  0  0  0  0  0  0  0  0  0
    3.2682    3.1071   13.9849 C   0  0  0  0  0  0  0  0  0  0  0  0
    2.5785    1.9360   14.0471 C   0  0  0  0  0  0  0  0  0  0  0  0
    2.5622    1.2179   15.2164 C   0  0  0  0  0  0  0  0  0  0  0  0
    3.2397    1.6844   16.3110 C   0  0  0  0  0  0  0  0  0  0  0  0
    3.2300    0.9708   17.4908 C   0  0  0  0  0  0  0  0  0  0  0  0
    2.5272   -0.2210   17.5518 O   0  0  0  0  0  0  0  0  0  0  0  0
    3.8998    1.4497   18.5433 N   0  0  0  0  0  0  0  0  0  0  0  0
    3.0554   -1.0673   17.4011 H   0  0  0  0  0  0  0  0  0  0  0  0
    4.5534    2.8541   23.3551 C   0  0  0  0  0  0  0  0  0  0  0  0
    3.9425    4.0709   23.5104 C   0  0  0  0  0  0  0  0  0  0  0  0
    3.7683    4.9369   22.4524 C   0  0  0  0  0  0  0  0  0  0  0  0
    4.2168    4.5852   21.1887 C   0  0  0  0  0  0  0  0  0  0  0  0
    4.8456    3.3584   20.9740 C   0  0  0  0  0  0  0  0  0  0  0  0
    4.9958    2.5263   22.0673 C   0  0  0  0  0  0  0  0  0  0  0  0
    5.9595    1.6566   24.9784 C   0  0  0  0  0  0  0  0  0  0  0  0
    4.7242    1.9876   24.4294 O   0  0  0  0  0  0  0  0  0  0  0  0
    4.0572    5.4313   20.1075 O   0  0  0  0  0  0  0  0  0  0  0  0
    4.5884    6.7506   20.1686 C   0  0  0  0  0  0  0  0  0  0  0  0
 21 22  1  0  0  0
 22 15  1  0  0  0
 15 16  2  0  0  0
 16 17  1  0  0  0
 17 18  2  0  0  0
 18 23  1  0  0  0
 23 24  1  0  0  0
 18 19  1  0  0  0
 19  1  1  0  0  0
  1  3  1  0  0  0
  3  4  2  0  0  0
  4  5  1  0  0  0
  5  6  2  0  0  0
  6  7  1  0  0  0
  7  8  2  0  0  0
  8  9  1  0  0  0
  9 10  2  0  0  0
 10 11  1  0  0  0
 11 12  1  0  0  0
 11 13  2  0  0  0
 19 20  2  0  0  0
 20 15  1  0  0  0
 13  3  1  0  0  0
 10  5  1  0  0  0
  1  2  1  0  0  0
 12 14  1  0  0  0
M  END
> <minimizedAffinity>
-8.40010

> <CNNscore>
0.4177075922

> <CNNaffinity>
5.4873499870

> <CNN_VS>
2.2921078205

> <CNNaffinity_variance>
0.3257851303

$$$$
[H]Oc1nc(N([H])c2c([H])c(OC([H])([H])[H])c([H])c([H])c2OC([H])([H])[H])c([H])c2c([H])c([H])c([H])c([H])c12


 24 26  0  0  0  0  0  0  0  0999 V2000
    4.8571    2.8865   17.4237 N   0  0  0  0  0  0  0  0  0  0  0  0
    5.8613    2.4874   17.2969 H   0  0  0  0  0  0  0  0  0  0  0  0
    4.5960    3.4153   18.6848 C   0  0  0  0  0  0  0  0  0  0  0  0
    4.7431    2.6027   19.8088 C   0  0  0  0  0  0  0  0  0  0  0  0
    4.4953    3.0827   21.0827 C   0  0  0  0  0  0  0  0  0  0  0  0
    4.6382    2.2860   22.2012 C   0  0  0  0  0  0  0  0  0  0  0  0
    4.3796    2.8102   23.4462 C   0  0  0  0  0  0  0  0  0  0  0  0
    3.9848    4.1040   23.5914 C   0  0  0  0  0  0  0  0  0  0  0  0
    3.8414    4.8996   22.4825 C   0  0  0  0  0  0  0  0  0  0  0  0
    4.0966    4.3863   21.2390 C   0  0  0  0  0  0  0  0  0  0  0  0
    3.9557    5.1769   20.1182 C   0  0  0  0  0  0  0  0  0  0  0  0
    3.5536    6.4936   20.2685 O   0  0  0  0  0  0  0  0  0  0  0  0
    4.2113    4.6499   18.9171 N   0  0  0  0  0  0  0  0  0  0  0  0
    4.2827    7.1906   20.2928 H   0  0  0  0  0  0  0  0  0  0  0  0
    3.0427    3.6684   14.2362 C   0  0  0  0  0  0  0  0  0  0  0  0
    2.4226    2.4608   14.0484 C   0  0  0  0  0  0  0  0  0  0  0  0
    2.5858    1.4151   14.9313 C   0  0  0  0  0  0  0  0  0  0  0  0
    3.3956    1.5699   16.0459 C   0  0  0  0  0  0  0  0  0  0  0  0
    4.0507    2.7781   16.2857 C   0  0  0  0  0  0  0  0  0  0  0  0
    3.8542    3.7950   15.3707 C   0  0  0  0  0  0  0  0  0  0  0  0
    3.5524    5.9287   13.4131 C   0  0  0  0  0  0  0  0  0  0  0  0
    2.8714    4.7172   13.3392 O   0  0  0  0  0  0  0  0  0  0  0  0
    3.5795    0.5406   16.9498 O   0  0  0  0  0  0  0  0  0  0  0  0
    2.4798    0.0990   17.7387 C   0  0  0  0  0  0  0  0  0  0  0  0
 21 22  1  0  0  0
 22 15  1  0  0  0
 15 16  2  0  0  0
 16 17  1  0  0  0
 17 18  2  0  0  0
 18 23  1  0  0  0
 23 24  1  0  0  0
 18 19  1  0  0  0
 19  1  1  0  0  0
  1  3  1  0  0  0
  3  4  2  0  0  0
  4  5  1  0  0  0
  5  6  2  0  0  0
  6  7  1  0  0  0
  7  8  2  0  0  0
  8  9  1  0  0  0
  9 10  2  0  0  0
 10 11  1  0  0  0
 11 12  1  0  0  0
 11 13  2  0  0  0
 19 20  2  0  0  0
 20 15  1  0  0  0
 13  3  1  0  0  0
 10  5  1  0  0  0
  1  2  1  0  0  0
 12 14  1  0  0  0
M  END
> <minimizedAffinity>
-7.81755

> <CNNscore>
0.3877148628

> <CNNaffinity>
5.4194440842

> <CNN_VS>
2.1011989117

> <CNNaffinity_variance>
0.2293055356

$$$$
[H]Oc1nc(N([H])c2c([H])c(OC([H])([H])[H])c([H])c([H])c2OC([H])([H])[H])c([H])c2c([H])c([H])c([H])c([H])c12


 24 26  0  0  0  0  0  0  0  0999 V2000
    4.8268    2.5560   17.2868 N   0  0  0  0  0  0  0  0  0  0  0  0
    5.8573    2.3944   16.9774 H   0  0  0  0  0  0  0  0  0  0  0  0
    4.6247    2.5486   18.6642 C   0  0  0  0  0  0  0  0  0  0  0  0
    4.5091    3.7615   19.3430 C   0  0  0  0  0  0  0  0  0  0  0  0
    4.3078    3.8055   20.7113 C   0  0  0  0  0  0  0  0  0  0  0  0
    4.1921    5.0011   21.3918 C   0  0  0  0  0  0  0  0  0  0  0  0
    3.9926    4.9918   22.7526 C   0  0  0  0  0  0  0  0  0  0  0  0
    3.9073    3.8198   23.4383 C   0  0  0  0  0  0  0  0  0  0  0  0
    4.0218    2.6290   22.7661 C   0  0  0  0  0  0  0  0  0  0  0  0
    4.2205    2.6286   21.4113 C   0  0  0  0  0  0  0  0  0  0  0  0
    4.3368    1.4377   20.7261 C   0  0  0  0  0  0  0  0  0  0  0  0
    4.2498    0.2460   21.4262 O   0  0  0  0  0  0  0  0  0  0  0  0
    4.5305    1.4670   19.4042 N   0  0  0  0  0  0  0  0  0  0  0  0
    3.3476   -0.2053   21.4430 H   0  0  0  0  0  0  0  0  0  0  0  0
    2.8159    4.1024   14.5249 C   0  0  0  0  0  0  0  0  0  0  0  0
    2.1275    2.9887   14.1202 C   0  0  0  0  0  0  0  0  0  0  0  0
    2.3076    1.7635   14.7253 C   0  0  0  0  0  0  0  0  0  0  0  0
    3.2054    1.6342   15.7736 C   0  0  0  0  0  0  0  0  0  0  0  0
    3.9327    2.7356   16.2260 C   0  0  0  0  0  0  0  0  0  0  0  0
    3.7156    3.9412   15.5860 C   0  0  0  0  0  0  0  0  0  0  0  0
    1.4828    6.1136   14.0515 C   0  0  0  0  0  0  0  0  0  0  0  0
    2.6267    5.3342   13.9075 O   0  0  0  0  0  0  0  0  0  0  0  0
    3.4086    0.4195   16.4011 O   0  0  0  0  0  0  0  0  0  0  0  0
    2.3835   -0.1187   17.2294 C   0  0  0  0  0  0  0  0  0  0  0  0
 21 22  1  0  0  0
 22 15  1  0  0  0
 15 16  2  0  0  0
 16 17  1  0  0  0
 17 18  2  0  0  0
 18 23  1  0  0  0
 23 24  1  0  0  0
 18 19  1  0  0  0
 19  1  1  0  0  0
  1  3  1  0  0  0
  3  4  2  0  0  0
  4  5  1  0  0  0
  5  6  2  0  0  0
  6  7  1  0  0  0
  7  8  2  0  0  0
  8  9  1  0  0  0
  9 10  2  0  0  0
 10 11  1  0  0  0
 11 12  1  0  0  0
 11 13  2  0  0  0
 19 20  2  0  0  0
 20 15  1  0  0  0
 13  3  1  0  0  0
 10  5  1  0  0  0
  1  2  1  0  0  0
 12 14  1  0  0  0
M  END
> <minimizedAffinity>
-7.41376

> <CNNscore>
0.3591231704

> <CNNaffinity>
5.2293653488

> <CNN_VS>
1.8779863119

> <CNNaffinity_variance>
0.4265297949

$$$$
[H]Oc1nc(N([H])c2c([H])c(OC([H])([H])[H])c([H])c([H])c2OC([H])([H])[H])c([H])c2c([H])c([H])c([H])c([H])c12


 24 26  0  0  0  0  0  0  0  0999 V2000
    4.8830    1.9722   19.3979 N   0  0  0  0  0  0  0  0  0  0  0  0
    5.3663    0.9977   19.3773 H   0  0  0  0  0  0  0  0  0  0  0  0
    4.6088    2.5123   18.1443 C   0  0  0  0  0  0  0  0  0  0  0  0
    3.8989    1.7525   17.2149 C   0  0  0  0  0  0  0  0  0  0  0  0
    3.6023    2.2458   15.9565 C   0  0  0  0  0  0  0  0  0  0  0  0
    2.9001    1.5013   15.0299 C   0  0  0  0  0  0  0  0  0  0  0  0
    2.6303    2.0365   13.7920 C   0  0  0  0  0  0  0  0  0  0  0  0
    3.0459    3.2907   13.4674 C   0  0  0  0  0  0  0  0  0  0  0  0
    3.7442    4.0344   14.3852 C   0  0  0  0  0  0  0  0  0  0  0  0
    4.0174    3.5097   15.6201 C   0  0  0  0  0  0  0  0  0  0  0  0
    4.7182    4.2483   16.5498 C   0  0  0  0  0  0  0  0  0  0  0  0
    5.1403    5.5247   16.2170 O   0  0  0  0  0  0  0  0  0  0  0  0
    4.9709    3.7113   17.7471 N   0  0  0  0  0  0  0  0  0  0  0  0
    4.5491    6.2884   16.5089 H   0  0  0  0  0  0  0  0  0  0  0  0
    4.5561    4.2648   22.3475 C   0  0  0  0  0  0  0  0  0  0  0  0
    4.1438    3.3479   23.2788 C   0  0  0  0  0  0  0  0  0  0  0  0
    3.9744    2.0171   22.9627 C   0  0  0  0  0  0  0  0  0  0  0  0
    4.2229    1.5748   21.6726 C   0  0  0  0  0  0  0  0  0  0  0  0
    4.6448    2.4655   20.6851 C   0  0  0  0  0  0  0  0  0  0  0  0
    4.7995    3.7886   21.0531 C   0  0  0  0  0  0  0  0  0  0  0  0
    5.0043    6.6085   21.7536 C   0  0  0  0  0  0  0  0  0  0  0  0
    4.7240    5.6055   22.6769 O   0  0  0  0  0  0  0  0  0  0  0  0
    4.0624    0.2469   21.3240 O   0  0  0  0  0  0  0  0  0  0  0  0
    2.7826   -0.2158   20.9061 C   0  0  0  0  0  0  0  0  0  0  0  0
 21 22  1  0  0  0
 22 15  1  0  0  0
 15 16  2  0  0  0
 16 17  1  0  0  0
 17 18  2  0  0  0
 18 23  1  0  0  0
 23 24  1  0  0  0
 18 19  1  0  0  0
 19  1  1  0  0  0
  1  3  1  0  0  0
  3  4  2  0  0  0
  4  5  1  0  0  0
  5  6  2  0  0  0
  6  7  1  0  0  0
  7  8  2  0  0  0
  8  9  1  0  0  0
  9 10  2  0  0  0
 10 11  1  0  0  0
 11 12  1  0  0  0
 11 13  2  0  0  0
 19 20  2  0  0  0
 20 15  1  0  0  0
 13  3  1  0  0  0
 10  5  1  0  0  0
  1  2  1  0  0  0
 12 14  1  0  0  0
M  END
> <minimizedAffinity>
-7.82895

> <CNNscore>
0.2534974515

> <CNNaffinity>
5.3816747665

> <CNN_VS>
1.3642408848

> <CNNaffinity_variance>
0.2883277535

$$$$
[H]Oc1nc(N([H])c2c([H])c(OC([H])([H])[H])c([H])c([H])c2OC([H])([H])[H])c([H])c2c([H])c([H])c([H])c([H])c12


 24 26  0  0  0  0  0  0  0  0999 V2000
    5.1886    4.0464   16.6920 N   0  0  0  0  0  0  0  0  0  0  0  0
    6.2205    3.8633   16.4000 H   0  0  0  0  0  0  0  0  0  0  0  0
    4.9970    5.1862   17.4681 C   0  0  0  0  0  0  0  0  0  0  0  0
    5.4729    5.2066   18.7790 C   0  0  0  0  0  0  0  0  0  0  0  0
    5.3066    6.3160   19.5891 C   0  0  0  0  0  0  0  0  0  0  0  0
    5.7742    6.3455   20.8877 C   0  0  0  0  0  0  0  0  0  0  0  0
    5.5838    7.4724   21.6529 C   0  0  0  0  0  0  0  0  0  0  0  0
    4.9408    8.5597   21.1477 C   0  0  0  0  0  0  0  0  0  0  0  0
    4.4743    8.5349   19.8574 C   0  0  0  0  0  0  0  0  0  0  0  0
    4.6592    7.4173   19.0882 C   0  0  0  0  0  0  0  0  0  0  0  0
    4.1945    7.3818   17.7905 C   0  0  0  0  0  0  0  0  0  0  0  0
    3.5402    8.4897   17.2784 O   0  0  0  0  0  0  0  0  0  0  0  0
    4.3888    6.2780   17.0627 N   0  0  0  0  0  0  0  0  0  0  0  0
    4.0960    9.1348   16.7372 H   0  0  0  0  0  0  0  0  0  0  0  0
    3.0067    1.0080   16.4264 C   0  0  0  0  0  0  0  0  0  0  0  0
    2.4665    1.2474   15.1899 C   0  0  0  0  0  0  0  0  0  0  0  0
    2.7986    2.3658   14.4560 C   0  0  0  0  0  0  0  0  0  0  0  0
    3.7021    3.2854   14.9659 C   0  0  0  0  0  0  0  0  0  0  0  0
    4.2824    3.0910   16.2198 C   0  0  0  0  0  0  0  0  0  0  0  0
    3.9162    1.9542   16.9152 C   0  0  0  0  0  0  0  0  0  0  0  0
    2.4924   -0.1391   18.5397 C   0  0  0  0  0  0  0  0  0  0  0  0
    2.6648   -0.1238   17.1587 O   0  0  0  0  0  0  0  0  0  0  0  0
    4.0557    4.4166   14.2548 O   0  0  0  0  0  0  0  0  0  0  0  0
    3.3081    4.7765   13.0980 C   0  0  0  0  0  0  0  0  0  0  0  0
 21 22  1  0  0  0
 22 15  1  0  0  0
 15 16  2  0  0  0
 16 17  1  0  0  0
 17 18  2  0  0  0
 18 23  1  0  0  0
 23 24  1  0  0  0
 18 19  1  0  0  0
 19  1  1  0  0  0
  1  3  1  0  0  0
  3  4  2  0  0  0
  4  5  1  0  0  0
  5  6  2  0  0  0
  6  7  1  0  0  0
  7  8  2  0  0  0
  8  9  1  0  0  0
  9 10  2  0  0  0
 10 11  1  0  0  0
 11 12  1  0  0  0
 11 13  2  0  0  0
 19 20  2  0  0  0
 20 15  1  0  0  0
 13  3  1  0  0  0
 10  5  1  0  0  0
  1  2  1  0  0  0
 12 14  1  0  0  0
M  END
> <minimizedAffinity>
-7.02084

> <CNNscore>
0.2121558934

> <CNNaffinity>
5.0545158386

> <CNN_VS>
1.0723453760

> <CNNaffinity_variance>
0.5193240047

$$$$
[H]Oc1c([H])c2c(c([H])c1O[H])[C@]1([H])c3c(sc(Cl)c3[H])C([H])([H])N([H])[C@@]1([H])C([H])([H])C2([H])[H]


 23 26  0  0  0  0  0  0  0  0999 V2000
    1.6591    1.3096   14.6183 O   0  0  0  0  0  0  0  0  0  0  0  0
    2.3353    1.8713   15.6850 C   0  0  0  0  0  0  0  0  0  0  0  0
    2.6889    3.2071   15.5951 C   0  0  0  0  0  0  0  0  0  0  0  0
    3.3538    3.7723   16.6351 C   0  0  0  0  0  0  0  0  0  0  0  0
    3.6748    3.0151   17.7747 C   0  0  0  0  0  0  0  0  0  0  0  0
    3.3198    1.7006   17.8511 C   0  0  0  0  0  0  0  0  0  0  0  0
    2.6332    1.1048   16.7852 C   0  0  0  0  0  0  0  0  0  0  0  0
    2.2486   -0.2252   16.8076 O   0  0  0  0  0  0  0  0  0  0  0  0
    4.3989    3.8068   18.7893 C   0  0  0  0  0  0  0  0  0  0  0  0
    4.9180    3.0550   19.9547 C   0  0  0  0  0  0  0  0  0  0  0  0
    5.6227    1.8844   19.9078 C   0  0  0  0  0  0  0  0  0  0  0  0
    6.0171    1.3526   21.0932 C   0  0  0  0  0  0  0  0  0  0  0  0
    6.9275   -0.1286   21.3633 Cl  0  0  0  0  0  0  0  0  0  0  0  0
    5.4206    2.4579   22.2428 S   0  0  0  0  0  0  0  0  0  0  0  0
    4.6850    3.5697   21.1950 C   0  0  0  0  0  0  0  0  0  0  0  0
    3.9565    4.8518   21.4479 C   0  0  0  0  0  0  0  0  0  0  0  0
    4.0939    5.6762   20.2517 N   0  0  0  0  0  0  0  0  0  0  0  0
    3.5108    4.9336   19.1607 C   0  0  0  0  0  0  0  0  0  0  0  0
    3.2487    5.8214   17.9576 C   0  0  0  0  0  0  0  0  0  0  0  0
    3.7622    5.2089   16.6631 C   0  0  0  0  0  0  0  0  0  0  0  0
    1.4241    1.8441   13.7941 H   0  0  0  0  0  0  0  0  0  0  0  0
    2.4249   -0.8493   17.5647 H   0  0  0  0  0  0  0  0  0  0  0  0
    3.6380    6.5841   20.4372 H   0  0  0  0  0  0  0  0  0  0  0  0
  1  2  1  0  0  0
  2  3  2  0  0  0
  3  4  1  0  0  0
  4  5  2  0  0  0
  5  6  1  0  0  0
  6  7  2  0  0  0
  7  8  1  0  0  0
  5  9  1  0  0  0
  9 10  1  0  0  0
 10 11  1  0  0  0
 11 12  2  0  0  0
 12 13  1  0  0  0
 12 14  1  0  0  0
 14 15  1  0  0  0
 15 16  1  0  0  0
 16 17  1  0  0  0
 17 18  1  0  0  0
 18 19  1  0  0  0
 19 20  1  0  0  0
  7  2  1  0  0  0
 18  9  1  0  0  0
 20  4  1  0  0  0
 15 10  2  0  0  0
  1 21  1  0  0  0
  8 22  1  0  0  0
 17 23  1  0  0  0
M  END
> <minimizedAffinity>
-8.00600

> <CNNscore>
0.7067536712

> <CNNaffinity>
5.8094015121

> <CNN_VS>
4.1058158875

> <CNNaffinity_variance>
0.2787715793

$$$$
[H]Oc1c([H])c2c(c([H])c1O[H])[C@]1([H])c3c(sc(Cl)c3[H])C([H])([H])N([H])[C@@]1([H])C([H])([H])C2([H])[H]


 23 26  0  0  0  0  0  0  0  0999 V2000
    3.1409    7.2742    2.6746 O   0  0  0  0  0  0  0  0  0  0  0  0
    3.7979    7.2545    3.8906 C   0  0  0  0  0  0  0  0  0  0  0  0
    4.3953    8.4271    4.3216 C   0  0  0  0  0  0  0  0  0  0  0  0
    5.0445    8.4227    5.5140 C   0  0  0  0  0  0  0  0  0  0  0  0
    5.1072    7.2524    6.2896 C   0  0  0  0  0  0  0  0  0  0  0  0
    4.5135    6.1045    5.8541 C   0  0  0  0  0  0  0  0  0  0  0  0
    3.8402    6.0951    4.6257 C   0  0  0  0  0  0  0  0  0  0  0  0
    3.2202    4.9589    4.1336 O   0  0  0  0  0  0  0  0  0  0  0  0
    5.8578    7.4508    7.5456 C   0  0  0  0  0  0  0  0  0  0  0  0
    6.1128    6.2351    8.3520 C   0  0  0  0  0  0  0  0  0  0  0  0
    6.5943    5.0448    7.8825 C   0  0  0  0  0  0  0  0  0  0  0  0
    6.7651    4.0473    8.7876 C   0  0  0  0  0  0  0  0  0  0  0  0
    7.3598    2.4168    8.4991 Cl  0  0  0  0  0  0  0  0  0  0  0  0
    6.2674    4.7527   10.2553 S   0  0  0  0  0  0  0  0  0  0  0  0
    5.8543    6.2964    9.6888 C   0  0  0  0  0  0  0  0  0  0  0  0
    5.3492    7.5175   10.3903 C   0  0  0  0  0  0  0  0  0  0  0  0
    5.7527    8.6752    9.5990 N   0  0  0  0  0  0  0  0  0  0  0  0
    5.1565    8.5204    8.2942 C   0  0  0  0  0  0  0  0  0  0  0  0
    5.1814    9.8203    7.5107 C   0  0  0  0  0  0  0  0  0  0  0  0
    5.7020    9.6323    6.0935 C   0  0  0  0  0  0  0  0  0  0  0  0
    3.0904    8.1093    2.1085 H   0  0  0  0  0  0  0  0  0  0  0  0
    3.2037    4.0792    4.6023 H   0  0  0  0  0  0  0  0  0  0  0  0
    5.4530    9.5251   10.1032 H   0  0  0  0  0  0  0  0  0  0  0  0
  1  2  1  0  0  0
  2  3  2  0  0  0
  3  4  1  0  0  0
  4  5  2  0  0  0
  5  6  1  0  0  0
  6  7  2  0  0  0
  7  8  1  0  0  0
  5  9  1  0  0  0
  9 10  1  0  0  0
 10 11  1  0  0  0
 11 12  2  0  0  0
 12 13  1  0  0  0
 12 14  1  0  0  0
 14 15  1  0  0  0
 15 16  1  0  0  0
 16 17  1  0  0  0
 17 18  1  0  0  0
 18 19  1  0  0  0
 19 20  1  0  0  0
  7  2  1  0  0  0
 18  9  1  0  0  0
 20  4  1  0  0  0
 15 10  2  0  0  0
  1 21  1  0  0  0
  8 22  1  0  0  0
 17 23  1  0  0  0
M  END
> <minimizedAffinity>
-5.03480

> <CNNscore>
0.6675294042

> <CNNaffinity>
4.6977963448

> <CNN_VS>
3.1359171867

> <CNNaffinity_variance>
0.1077338234

$$$$
[H]Oc1c([H])c2c(c([H])c1O[H])[C@]1([H])c3c(sc(Cl)c3[H])C([H])([H])N([H])[C@@]1([H])C([H])([H])C2([H])[H]


 23 26  0  0  0  0  0  0  0  0999 V2000
    3.0111    3.4912   14.0370 O   0  0  0  0  0  0  0  0  0  0  0  0
    3.4693    3.4556   15.3407 C   0  0  0  0  0  0  0  0  0  0  0  0
    4.5626    4.2417   15.6633 C   0  0  0  0  0  0  0  0  0  0  0  0
    5.0240    4.2166   16.9399 C   0  0  0  0  0  0  0  0  0  0  0  0
    4.4037    3.4091   17.9085 C   0  0  0  0  0  0  0  0  0  0  0  0
    3.3269    2.6405   17.5780 C   0  0  0  0  0  0  0  0  0  0  0  0
    2.8404    2.6569   16.2644 C   0  0  0  0  0  0  0  0  0  0  0  0
    1.7516    1.8968   15.8720 O   0  0  0  0  0  0  0  0  0  0  0  0
    5.0534    3.5182   19.2301 C   0  0  0  0  0  0  0  0  0  0  0  0
    4.5697    2.5853   20.2736 C   0  0  0  0  0  0  0  0  0  0  0  0
    4.3830    1.2392   20.1251 C   0  0  0  0  0  0  0  0  0  0  0  0
    3.9361    0.5541   21.2089 C   0  0  0  0  0  0  0  0  0  0  0  0
    3.5999   -1.1683   21.3351 Cl  0  0  0  0  0  0  0  0  0  0  0  0
    3.7814    1.7574   22.4037 S   0  0  0  0  0  0  0  0  0  0  0  0
    4.2871    3.1018   21.5028 C   0  0  0  0  0  0  0  0  0  0  0  0
    4.4534    4.5438   21.8652 C   0  0  0  0  0  0  0  0  0  0  0  0
    5.4627    5.1054   20.9735 N   0  0  0  0  0  0  0  0  0  0  0  0
    4.9703    4.9436   19.6270 C   0  0  0  0  0  0  0  0  0  0  0  0
    5.7337    5.8133   18.6446 C   0  0  0  0  0  0  0  0  0  0  0  0
    6.1771    5.0412   17.4109 C   0  0  0  0  0  0  0  0  0  0  0  0
    3.4497    4.0671   13.3326 H   0  0  0  0  0  0  0  0  0  0  0  0
    1.2396    1.2925   16.4775 H   0  0  0  0  0  0  0  0  0  0  0  0
    5.6213    6.0874   21.2511 H   0  0  0  0  0  0  0  0  0  0  0  0
  1  2  1  0  0  0
  2  3  2  0  0  0
  3  4  1  0  0  0
  4  5  2  0  0  0
  5  6  1  0  0  0
  6  7  2  0  0  0
  7  8  1  0  0  0
  5  9  1  0  0  0
  9 10  1  0  0  0
 10 11  1  0  0  0
 11 12  2  0  0  0
 12 13  1  0  0  0
 12 14  1  0  0  0
 14 15  1  0  0  0
 15 16  1  0  0  0
 16 17  1  0  0  0
 17 18  1  0  0  0
 18 19  1  0  0  0
 19 20  1  0  0  0
  7  2  1  0  0  0
 18  9  1  0  0  0
 20  4  1  0  0  0
 15 10  2  0  0  0
  1 21  1  0  0  0
  8 22  1  0  0  0
 17 23  1  0  0  0
M  END
> <minimizedAffinity>
-7.77606

> <CNNscore>
0.6202504039

> <CNNaffinity>
5.7520713806

> <CNN_VS>
3.5677247047

> <CNNaffinity_variance>
0.3224920034

$$$$
[H]Oc1c([H])c2c(c([H])c1O[H])[C@]1([H])c3c(sc(Cl)c3[H])C([H])([H])N([H])[C@@]1([H])C([H])([H])C2([H])[H]


 23 26  0  0  0  0  0  0  0  0999 V2000
    3.7445    7.7559   16.8863 O   0  0  0  0  0  0  0  0  0  0  0  0
    4.0345    6.8143   17.8558 C   0  0  0  0  0  0  0  0  0  0  0  0
    5.1693    7.0075   18.6256 C   0  0  0  0  0  0  0  0  0  0  0  0
    5.4670    6.0906   19.5815 C   0  0  0  0  0  0  0  0  0  0  0  0
    4.6402    4.9719   19.7815 C   0  0  0  0  0  0  0  0  0  0  0  0
    3.5248    4.7941   19.0173 C   0  0  0  0  0  0  0  0  0  0  0  0
    3.2057    5.7326   18.0274 C   0  0  0  0  0  0  0  0  0  0  0  0
    2.0869    5.6028   17.2219 O   0  0  0  0  0  0  0  0  0  0  0  0
    5.1345    4.0942   20.8611 C   0  0  0  0  0  0  0  0  0  0  0  0
    4.4178    2.8103   21.0375 C   0  0  0  0  0  0  0  0  0  0  0  0
    4.0863    1.9311   20.0444 C   0  0  0  0  0  0  0  0  0  0  0  0
    3.4315    0.8004   20.4134 C   0  0  0  0  0  0  0  0  0  0  0  0
    2.8735   -0.5107   19.3812 Cl  0  0  0  0  0  0  0  0  0  0  0  0
    3.2830    0.9601   22.1021 S   0  0  0  0  0  0  0  0  0  0  0  0
    4.0549    2.4564   22.3027 C   0  0  0  0  0  0  0  0  0  0  0  0
    4.3522    3.2735   23.5202 C   0  0  0  0  0  0  0  0  0  0  0  0
    5.5228    4.0922   23.2224 N   0  0  0  0  0  0  0  0  0  0  0  0
    5.1799    4.9196   22.0911 C   0  0  0  0  0  0  0  0  0  0  0  0
    6.1571    6.0690   21.9230 C   0  0  0  0  0  0  0  0  0  0  0  0
    6.6475    6.2071   20.4894 C   0  0  0  0  0  0  0  0  0  0  0  0
    4.3321    8.5631   16.7334 H   0  0  0  0  0  0  0  0  0  0  0  0
    1.4355    4.8504   17.2805 H   0  0  0  0  0  0  0  0  0  0  0  0
    5.7662    4.6211   24.0754 H   0  0  0  0  0  0  0  0  0  0  0  0
  1  2  1  0  0  0
  2  3  2  0  0  0
  3  4  1  0  0  0
  4  5  2  0  0  0
  5  6  1  0  0  0
  6  7  2  0  0  0
  7  8  1  0  0  0
  5  9  1  0  0  0
  9 10  1  0  0  0
 10 11  1  0  0  0
 11 12  2  0  0  0
 12 13  1  0  0  0
 12 14  1  0  0  0
 14 15  1  0  0  0
 15 16  1  0  0  0
 16 17  1  0  0  0
 17 18  1  0  0  0
 18 19  1  0  0  0
 19 20  1  0  0  0
  7  2  1  0  0  0
 18  9  1  0  0  0
 20  4  1  0  0  0
 15 10  2  0  0  0
  1 21  1  0  0  0
  8 22  1  0  0  0
 17 23  1  0  0  0
M  END
> <minimizedAffinity>
-8.46833

> <CNNscore>
0.5639244914

> <CNNaffinity>
5.9373517036

> <CNN_VS>
3.3482179642

> <CNNaffinity_variance>
0.1289864182

$$$$
[H]Oc1c([H])c2c(c([H])c1O[H])[C@]1([H])c3c(sc(Cl)c3[H])C([H])([H])N([H])[C@@]1([H])C([H])([H])C2([H])[H]


 23 26  0  0  0  0  0  0  0  0999 V2000
    2.0942   -0.5268   16.2328 O   0  0  0  0  0  0  0  0  0  0  0  0
    2.7484    0.4857   16.9093 C   0  0  0  0  0  0  0  0  0  0  0  0
    3.3400    1.4876   16.1585 C   0  0  0  0  0  0  0  0  0  0  0  0
    3.9865    2.4884   16.8093 C   0  0  0  0  0  0  0  0  0  0  0  0
    4.0522    2.5030   18.2130 C   0  0  0  0  0  0  0  0  0  0  0  0
    3.4643    1.5108   18.9408 C   0  0  0  0  0  0  0  0  0  0  0  0
    2.7938    0.4721   18.2820 C   0  0  0  0  0  0  0  0  0  0  0  0
    2.1796   -0.5614   18.9692 O   0  0  0  0  0  0  0  0  0  0  0  0
    4.7992    3.6680   18.7281 C   0  0  0  0  0  0  0  0  0  0  0  0
    5.0572    3.6846   20.1862 C   0  0  0  0  0  0  0  0  0  0  0  0
    5.5447    2.6452   20.9287 C   0  0  0  0  0  0  0  0  0  0  0  0
    5.7176    2.8629   22.2577 C   0  0  0  0  0  0  0  0  0  0  0  0
    6.3196    1.7364   23.4677 Cl  0  0  0  0  0  0  0  0  0  0  0  0
    5.2136    4.4761   22.4651 S   0  0  0  0  0  0  0  0  0  0  0  0
    4.7955    4.8386   20.8624 C   0  0  0  0  0  0  0  0  0  0  0  0
    4.2837    6.0894   20.2205 C   0  0  0  0  0  0  0  0  0  0  0  0
    4.6843    6.0566   18.8177 N   0  0  0  0  0  0  0  0  0  0  0  0
    4.0917    4.8750   18.2392 C   0  0  0  0  0  0  0  0  0  0  0  0
    4.1131    4.9246   16.7222 C   0  0  0  0  0  0  0  0  0  0  0  0
    4.6377    3.6354   16.1080 C   0  0  0  0  0  0  0  0  0  0  0  0
    2.0415   -0.5478   15.2244 H   0  0  0  0  0  0  0  0  0  0  0  0
    2.1656   -0.6467   19.9623 H   0  0  0  0  0  0  0  0  0  0  0  0
    4.3800    6.9407   18.3794 H   0  0  0  0  0  0  0  0  0  0  0  0
  1  2  1  0  0  0
  2  3  2  0  0  0
  3  4  1  0  0  0
  4  5  2  0  0  0
  5  6  1  0  0  0
  6  7  2  0  0  0
  7  8  1  0  0  0
  5  9  1  0  0  0
  9 10  1  0  0  0
 10 11  1  0  0  0
 11 12  2  0  0  0
 12 13  1  0  0  0
 12 14  1  0  0  0
 14 15  1  0  0  0
 15 16  1  0  0  0
 16 17  1  0  0  0
 17 18  1  0  0  0
 18 19  1  0  0  0
 19 20  1  0  0  0
  7  2  1  0  0  0
 18  9  1  0  0  0
 20  4  1  0  0  0
 15 10  2  0  0  0
  1 21  1  0  0  0
  8 22  1  0  0  0
 17 23  1  0  0  0
M  END
> <minimizedAffinity>
-7.78067

> <CNNscore>
0.5304940939

> <CNNaffinity>
5.6226029396

> <CNN_VS>
2.9827575684

> <CNNaffinity_variance>
0.0802022368

$$$$
[H]Oc1c([H])c2c(c([H])c1O[H])[C@]1([H])c3c(sc(Cl)c3[H])C([H])([H])N([H])[C@@]1([H])C([H])([H])C2([H])[H]


 23 26  0  0  0  0  0  0  0  0999 V2000
    3.3582    7.7897   15.7415 O   0  0  0  0  0  0  0  0  0  0  0  0
    3.7665    6.8310   16.6498 C   0  0  0  0  0  0  0  0  0  0  0  0
    4.9860    7.0150   17.2795 C   0  0  0  0  0  0  0  0  0  0  0  0
    5.4002    6.0813   18.1739 C   0  0  0  0  0  0  0  0  0  0  0  0
    4.6068    4.9549   18.4508 C   0  0  0  0  0  0  0  0  0  0  0  0
    3.4071    4.7863   17.8246 C   0  0  0  0  0  0  0  0  0  0  0  0
    2.9675    5.7421   16.8996 C   0  0  0  0  0  0  0  0  0  0  0  0
    1.7594    5.6223   16.2337 O   0  0  0  0  0  0  0  0  0  0  0  0
    5.2310    4.0589   19.4447 C   0  0  0  0  0  0  0  0  0  0  0  0
    4.5444    2.7684   19.6816 C   0  0  0  0  0  0  0  0  0  0  0  0
    4.0969    1.9068   18.7190 C   0  0  0  0  0  0  0  0  0  0  0  0
    3.4947    0.7660   19.1425 C   0  0  0  0  0  0  0  0  0  0  0  0
    2.8186   -0.5277   18.1601 Cl  0  0  0  0  0  0  0  0  0  0  0  0
    3.5525    0.8924   20.8395 S   0  0  0  0  0  0  0  0  0  0  0  0
    4.3391    2.3883   20.9742 C   0  0  0  0  0  0  0  0  0  0  0  0
    4.7802    3.1833   22.1625 C   0  0  0  0  0  0  0  0  0  0  0  0
    5.9038    4.0134   21.7408 N   0  0  0  0  0  0  0  0  0  0  0  0
    5.4237    4.8607   20.6761 C   0  0  0  0  0  0  0  0  0  0  0  0
    6.3701    6.0180   20.4131 C   0  0  0  0  0  0  0  0  0  0  0  0
    6.6821    6.1861   18.9336 C   0  0  0  0  0  0  0  0  0  0  0  0
    3.9208    8.6026   15.5342 H   0  0  0  0  0  0  0  0  0  0  0  0
    1.1219    4.8658   16.3562 H   0  0  0  0  0  0  0  0  0  0  0  0
    6.2478    4.5269   22.5680 H   0  0  0  0  0  0  0  0  0  0  0  0
  1  2  1  0  0  0
  2  3  2  0  0  0
  3  4  1  0  0  0
  4  5  2  0  0  0
  5  6  1  0  0  0
  6  7  2  0  0  0
  7  8  1  0  0  0
  5  9  1  0  0  0
  9 10  1  0  0  0
 10 11  1  0  0  0
 11 12  2  0  0  0
 12 13  1  0  0  0
 12 14  1  0  0  0
 14 15  1  0  0  0
 15 16  1  0  0  0
 16 17  1  0  0  0
 17 18  1  0  0  0
 18 19  1  0  0  0
 19 20  1  0  0  0
  7  2  1  0  0  0
 18  9  1  0  0  0
 20  4  1  0  0  0
 15 10  2  0  0  0
  1 21  1  0  0  0
  8 22  1  0  0  0
 17 23  1  0  0  0
M  END
> <minimizedAffinity>
-7.77899

> <CNNscore>
0.5208055973

> <CNNaffinity>
5.6491813660

> <CNN_VS>
2.9421253204

> <CNNaffinity_variance>
0.1625163257

$$$$
[H]Oc1c([H])c2c(c([H])c1O[H])[C@]1([H])c3c(sc(Cl)c3[H])C([H])([H])N([H])[C@@]1([H])C([H])([H])C2([H])[H]


 23 26  0  0  0  0  0  0  0  0999 V2000
    2.5779   -0.9240   18.6463 O   0  0  0  0  0  0  0  0  0  0  0  0
    2.9289    0.2422   17.9924 C   0  0  0  0  0  0  0  0  0  0  0  0
    2.7551    0.2907   16.6194 C   0  0  0  0  0  0  0  0  0  0  0  0
    3.0958    1.4296   15.9636 C   0  0  0  0  0  0  0  0  0  0  0  0
    3.6135    2.5314   16.6658 C   0  0  0  0  0  0  0  0  0  0  0  0
    3.7787    2.4709   18.0181 C   0  0  0  0  0  0  0  0  0  0  0  0
    3.4310    1.3020   18.7074 C   0  0  0  0  0  0  0  0  0  0  0  0
    3.5778    1.1839   20.0792 O   0  0  0  0  0  0  0  0  0  0  0  0
    3.9246    3.6683   15.7763 C   0  0  0  0  0  0  0  0  0  0  0  0
    4.6219    4.8148   16.4027 C   0  0  0  0  0  0  0  0  0  0  0  0
    5.7186    4.7424   17.2157 C   0  0  0  0  0  0  0  0  0  0  0  0
    6.2163    5.9142   17.6877 C   0  0  0  0  0  0  0  0  0  0  0  0
    7.6024    6.1516   18.7450 Cl  0  0  0  0  0  0  0  0  0  0  0  0
    5.1808    7.0860   17.0137 S   0  0  0  0  0  0  0  0  0  0  0  0
    4.1407    6.0643   16.1483 C   0  0  0  0  0  0  0  0  0  0  0  0
    2.9679    6.3474   15.2635 C   0  0  0  0  0  0  0  0  0  0  0  0
    2.8514    5.2377   14.3231 N   0  0  0  0  0  0  0  0  0  0  0  0
    2.6564    4.0420   15.1067 C   0  0  0  0  0  0  0  0  0  0  0  0
    2.1472    2.8929   14.2555 C   0  0  0  0  0  0  0  0  0  0  0  0
    2.9277    1.6082   14.4901 C   0  0  0  0  0  0  0  0  0  0  0  0
    2.2058   -1.7222   18.1517 H   0  0  0  0  0  0  0  0  0  0  0  0
    3.9334    1.9030   20.6711 H   0  0  0  0  0  0  0  0  0  0  0  0
    2.0759    5.4503   13.6751 H   0  0  0  0  0  0  0  0  0  0  0  0
  1  2  1  0  0  0
  2  3  2  0  0  0
  3  4  1  0  0  0
  4  5  2  0  0  0
  5  6  1  0  0  0
  6  7  2  0  0  0
  7  8  1  0  0  0
  5  9  1  0  0  0
  9 10  1  0  0  0
 10 11  1  0  0  0
 11 12  2  0  0  0
 12 13  1  0  0  0
 12 14  1  0  0  0
 14 15  1  0  0  0
 15 16  1  0  0  0
 16 17  1  0  0  0
 17 18  1  0  0  0
 18 19  1  0  0  0
 19 20  1  0  0  0
  7  2  1  0  0  0
 18  9  1  0  0  0
 20  4  1  0  0  0
 15 10  2  0  0  0
  1 21  1  0  0  0
  8 22  1  0  0  0
 17 23  1  0  0  0
M  END
> <minimizedAffinity>
-7.64097

> <CNNscore>
0.5193150640

> <CNNaffinity>
5.4292516708

> <CNN_VS>
2.8194921017

> <CNNaffinity_variance>
0.3846982718

$$$$
[H]Oc1c([H])c2c(c([H])c1O[H])[C@]1([H])c3c(sc(Cl)c3[H])C([H])([H])N([H])[C@@]1([H])C([H])([H])C2([H])[H]


 23 26  0  0  0  0  0  0  0  0999 V2000
    6.7522    9.3849   16.0839 O   0  0  0  0  0  0  0  0  0  0  0  0
    6.5939    8.4967   17.1311 C   0  0  0  0  0  0  0  0  0  0  0  0
    7.3510    8.7015   18.2724 C   0  0  0  0  0  0  0  0  0  0  0  0
    7.2064    7.8368   19.3090 C   0  0  0  0  0  0  0  0  0  0  0  0
    6.3084    6.7593   19.2214 C   0  0  0  0  0  0  0  0  0  0  0  0
    5.5678    6.5696   18.0922 C   0  0  0  0  0  0  0  0  0  0  0  0
    5.7070    7.4544   17.0150 C   0  0  0  0  0  0  0  0  0  0  0  0
    4.9819    7.3101   15.8442 O   0  0  0  0  0  0  0  0  0  0  0  0
    6.2990    5.9352   20.4466 C   0  0  0  0  0  0  0  0  0  0  0  0
    5.5027    4.6880   20.3877 C   0  0  0  0  0  0  0  0  0  0  0  0
    5.5351    3.7597   19.3846 C   0  0  0  0  0  0  0  0  0  0  0  0
    4.7293    2.6753   19.5199 C   0  0  0  0  0  0  0  0  0  0  0  0
    4.5453    1.3209   18.4121 Cl  0  0  0  0  0  0  0  0  0  0  0  0
    3.9478    2.9442   21.0086 S   0  0  0  0  0  0  0  0  0  0  0  0
    4.6603    4.4250   21.4263 C   0  0  0  0  0  0  0  0  0  0  0  0
    4.5063    5.3064   22.6254 C   0  0  0  0  0  0  0  0  0  0  0  0
    5.7427    6.0677   22.7703 N   0  0  0  0  0  0  0  0  0  0  0  0
    5.9088    6.8336   21.5588 C   0  0  0  0  0  0  0  0  0  0  0  0
    6.9345    7.9390   21.7328 C   0  0  0  0  0  0  0  0  0  0  0  0
    7.9481    7.9722   20.5986 C   0  0  0  0  0  0  0  0  0  0  0  0
    7.3953   10.1621   16.1356 H   0  0  0  0  0  0  0  0  0  0  0  0
    4.3196    6.5838   15.6784 H   0  0  0  0  0  0  0  0  0  0  0  0
    5.6649    6.6407   23.6260 H   0  0  0  0  0  0  0  0  0  0  0  0
  1  2  1  0  0  0
  2  3  2  0  0  0
  3  4  1  0  0  0
  4  5  2  0  0  0
  5  6  1  0  0  0
  6  7  2  0  0  0
  7  8  1  0  0  0
  5  9  1  0  0  0
  9 10  1  0  0  0
 10 11  1  0  0  0
 11 12  2  0  0  0
 12 13  1  0  0  0
 12 14  1  0  0  0
 14 15  1  0  0  0
 15 16  1  0  0  0
 16 17  1  0  0  0
 17 18  1  0  0  0
 18 19  1  0  0  0
 19 20  1  0  0  0
  7  2  1  0  0  0
 18  9  1  0  0  0
 20  4  1  0  0  0
 15 10  2  0  0  0
  1 21  1  0  0  0
  8 22  1  0  0  0
 17 23  1  0  0  0
M  END
> <minimizedAffinity>
-7.08425

> <CNNscore>
0.5043120384

> <CNNaffinity>
5.5726327896

> <CNN_VS>
2.8103458881

> <CNNaffinity_variance>
0.3564899862

$$$$
[H]Oc1c([H])c2c(c([H])c1O[H])[C@]1([H])c3c(sc(Cl)c3[H])C([H])([H])N([H])[C@@]1([H])C([H])([H])C2([H])[H]


 23 26  0  0  0  0  0  0  0  0999 V2000
    7.3818    6.3418    9.1293 O   0  0  0  0  0  0  0  0  0  0  0  0
    6.1884    6.0515    9.7635 C   0  0  0  0  0  0  0  0  0  0  0  0
    5.2129    7.0341    9.7865 C   0  0  0  0  0  0  0  0  0  0  0  0
    4.0357    6.7633   10.4063 C   0  0  0  0  0  0  0  0  0  0  0  0
    3.8166    5.5134   11.0103 C   0  0  0  0  0  0  0  0  0  0  0  0
    4.7852    4.5540   10.9795 C   0  0  0  0  0  0  0  0  0  0  0  0
    6.0045    4.8199   10.3432 C   0  0  0  0  0  0  0  0  0  0  0  0
    7.0235    3.8843   10.2819 O   0  0  0  0  0  0  0  0  0  0  0  0
    2.4807    5.4167   11.6321 C   0  0  0  0  0  0  0  0  0  0  0  0
    2.2191    4.1964   12.4291 C   0  0  0  0  0  0  0  0  0  0  0  0
    3.0467    3.6621   13.3772 C   0  0  0  0  0  0  0  0  0  0  0  0
    2.6214    2.5357   14.0047 C   0  0  0  0  0  0  0  0  0  0  0  0
    3.4497    1.6180   15.2566 Cl  0  0  0  0  0  0  0  0  0  0  0  0
    1.1060    2.2308   13.2905 S   0  0  0  0  0  0  0  0  0  0  0  0
    1.0453    3.5384   12.2128 C   0  0  0  0  0  0  0  0  0  0  0  0
    0.0019    3.9831   11.2371 C   0  0  0  0  0  0  0  0  0  0  0  0
    0.1583    5.4225   11.0550 N   0  0  0  0  0  0  0  0  0  0  0  0
    1.4926    5.6393   10.5503 C   0  0  0  0  0  0  0  0  0  0  0  0
    1.6496    7.0317    9.9664 C   0  0  0  0  0  0  0  0  0  0  0  0
    2.9016    7.7334   10.4711 C   0  0  0  0  0  0  0  0  0  0  0  0
    7.5503    7.2369    8.6927 H   0  0  0  0  0  0  0  0  0  0  0  0
    6.9722    2.9698   10.6754 H   0  0  0  0  0  0  0  0  0  0  0  0
   -0.5912    5.7463   10.4228 H   0  0  0  0  0  0  0  0  0  0  0  0
  1  2  1  0  0  0
  2  3  2  0  0  0
  3  4  1  0  0  0
  4  5  2  0  0  0
  5  6  1  0  0  0
  6  7  2  0  0  0
  7  8  1  0  0  0
  5  9  1  0  0  0
  9 10  1  0  0  0
 10 11  1  0  0  0
 11 12  2  0  0  0
 12 13  1  0  0  0
 12 14  1  0  0  0
 14 15  1  0  0  0
 15 16  1  0  0  0
 16 17  1  0  0  0
 17 18  1  0  0  0
 18 19  1  0  0  0
 19 20  1  0  0  0
  7  2  1  0  0  0
 18  9  1  0  0  0
 20  4  1  0  0  0
 15 10  2  0  0  0
  1 21  1  0  0  0
  8 22  1  0  0  0
 17 23  1  0  0  0
M  END
> <minimizedAffinity>
-5.00737

> <CNNscore>
0.4125142992

> <CNNaffinity>
4.7439093590

> <CNN_VS>
1.9569303989

> <CNNaffinity_variance>
0.3250031471

$$$$
[H]c1c(-c2c([H])c([H])c([H])c(C([H])([H])n3nc(-c4c([H])c(F)c([H])c(F)c4[H])c([H])c([H])c3=O)c2[H])nnc(C([H])([H])[H])c1[H]


 29 32  0  0  0  0  0  0  0  0999 V2000
    3.6223    1.1533   17.6430 N   0  0  0  0  0  0  0  0  0  0  0  0
    4.1710    1.6017   18.7685 N   0  0  0  0  0  0  0  0  0  0  0  0
    3.8992    1.1115   19.9939 C   0  0  0  0  0  0  0  0  0  0  0  0
    2.9923    0.0757   20.0942 C   0  0  0  0  0  0  0  0  0  0  0  0
    2.3997   -0.4187   18.9466 C   0  0  0  0  0  0  0  0  0  0  0  0
    2.7380    0.1467   17.7195 C   0  0  0  0  0  0  0  0  0  0  0  0
    2.2401   -0.2521   16.6524 O   0  0  0  0  0  0  0  0  0  0  0  0
    4.5646    1.6833   21.1722 C   0  0  0  0  0  0  0  0  0  0  0  0
    5.5628    2.6146   21.1218 C   0  0  0  0  0  0  0  0  0  0  0  0
    6.1539    3.1180   22.2799 C   0  0  0  0  0  0  0  0  0  0  0  0
    7.1357    4.0353   22.2057 F   0  0  0  0  0  0  0  0  0  0  0  0
    5.7497    2.6913   23.5231 C   0  0  0  0  0  0  0  0  0  0  0  0
    4.7438    1.7522   23.5840 C   0  0  0  0  0  0  0  0  0  0  0  0
    4.3436    1.3301   24.8054 F   0  0  0  0  0  0  0  0  0  0  0  0
    4.1685    1.2634   22.4302 C   0  0  0  0  0  0  0  0  0  0  0  0
    4.0237    1.7790   16.4219 C   0  0  0  0  0  0  0  0  0  0  0  0
    1.9570    4.1478   14.3748 C   0  0  0  0  0  0  0  0  0  0  0  0
    1.9582    5.2220   15.2493 C   0  0  0  0  0  0  0  0  0  0  0  0
    2.5991    5.2021   16.4604 C   0  0  0  0  0  0  0  0  0  0  0  0
    3.2782    4.0739   16.8448 C   0  0  0  0  0  0  0  0  0  0  0  0
    3.3108    2.9832   16.0220 C   0  0  0  0  0  0  0  0  0  0  0  0
    2.6560    3.0410   14.8149 C   0  0  0  0  0  0  0  0  0  0  0  0
   -0.6598    4.1138    9.3118 C   0  0  0  0  0  0  0  0  0  0  0  0
    0.0118    4.1765   10.6588 C   0  0  0  0  0  0  0  0  0  0  0  0
   -0.0890    5.2974   11.4520 C   0  0  0  0  0  0  0  0  0  0  0  0
    0.5423    5.3336   12.6981 C   0  0  0  0  0  0  0  0  0  0  0  0
    1.2576    4.2341   13.1056 C   0  0  0  0  0  0  0  0  0  0  0  0
    1.3115    3.1807   12.2816 N   0  0  0  0  0  0  0  0  0  0  0  0
    0.7183    3.1411   11.1058 N   0  0  0  0  0  0  0  0  0  0  0  0
 23 24  1  0  0  0
 24 25  2  0  0  0
 25 26  1  0  0  0
 26 27  2  0  0  0
 27 17  1  0  0  0
 17 18  2  0  0  0
 18 19  1  0  0  0
 19 20  2  0  0  0
 20 21  1  0  0  0
 21 16  1  0  0  0
 16  1  1  0  0  0
  1  2  1  0  0  0
  2  3  2  0  0  0
  3  8  1  0  0  0
  8  9  2  0  0  0
  9 10  1  0  0  0
 10 11  1  0  0  0
 10 12  2  0  0  0
 12 13  1  0  0  0
 13 14  1  0  0  0
 13 15  2  0  0  0
  3  4  1  0  0  0
  4  5  2  0  0  0
  5  6  1  0  0  0
  6  7  2  0  0  0
 21 22  2  0  0  0
 27 28  1  0  0  0
 28 29  2  0  0  0
 29 24  1  0  0  0
 22 17  1  0  0  0
  6  1  1  0  0  0
 15  8  1  0  0  0
M  END
> <minimizedAffinity>
-8.66124

> <CNNscore>
0.8585174084

> <CNNaffinity>
6.6078367233

> <CNN_VS>
5.6729426384

> <CNNaffinity_variance>
0.2051650733

$$$$
[H]c1c(-c2c([H])c([H])c([H])c(C([H])([H])n3nc(-c4c([H])c(F)c([H])c(F)c4[H])c([H])c([H])c3=O)c2[H])nnc(C([H])([H])[H])c1[H]


 29 32  0  0  0  0  0  0  0  0999 V2000
    3.6283    1.0878   17.6260 N   0  0  0  0  0  0  0  0  0  0  0  0
    4.1827    1.5601   18.7388 N   0  0  0  0  0  0  0  0  0  0  0  0
    3.8880    1.1229   19.9789 C   0  0  0  0  0  0  0  0  0  0  0  0
    2.9496    0.1190   20.1093 C   0  0  0  0  0  0  0  0  0  0  0  0
    2.3500   -0.3987   18.9757 C   0  0  0  0  0  0  0  0  0  0  0  0
    2.7135    0.1116   17.7317 C   0  0  0  0  0  0  0  0  0  0  0  0
    2.2110   -0.3106   16.6758 O   0  0  0  0  0  0  0  0  0  0  0  0
    4.5624    1.7168   21.1410 C   0  0  0  0  0  0  0  0  0  0  0  0
    5.5407    2.6674   21.0661 C   0  0  0  0  0  0  0  0  0  0  0  0
    6.1418    3.1913   22.2099 C   0  0  0  0  0  0  0  0  0  0  0  0
    7.1037    4.1273   22.1117 F   0  0  0  0  0  0  0  0  0  0  0  0
    5.7682    2.7662   23.4632 C   0  0  0  0  0  0  0  0  0  0  0  0
    4.7825    1.8078   23.5488 C   0  0  0  0  0  0  0  0  0  0  0  0
    4.4124    1.3872   24.7801 F   0  0  0  0  0  0  0  0  0  0  0  0
    4.1969    1.2988   22.4089 C   0  0  0  0  0  0  0  0  0  0  0  0
    4.0567    1.6565   16.3863 C   0  0  0  0  0  0  0  0  0  0  0  0
    3.3694    4.7823   14.4292 C   0  0  0  0  0  0  0  0  0  0  0  0
    2.5883    5.4380   15.3666 C   0  0  0  0  0  0  0  0  0  0  0  0
    2.2848    4.9071   16.5930 C   0  0  0  0  0  0  0  0  0  0  0  0
    2.7676    3.6678   16.9287 C   0  0  0  0  0  0  0  0  0  0  0  0
    3.5436    2.9744   16.0428 C   0  0  0  0  0  0  0  0  0  0  0  0
    3.8265    3.5398   14.8224 C   0  0  0  0  0  0  0  0  0  0  0  0
    4.3151    7.5483    9.5366 C   0  0  0  0  0  0  0  0  0  0  0  0
    4.0902    6.7702   10.8068 C   0  0  0  0  0  0  0  0  0  0  0  0
    4.4984    5.4601   10.9198 C   0  0  0  0  0  0  0  0  0  0  0  0
    4.2795    4.7575   12.1076 C   0  0  0  0  0  0  0  0  0  0  0  0
    3.6537    5.4012   13.1472 C   0  0  0  0  0  0  0  0  0  0  0  0
    3.2850    6.6749   12.9648 N   0  0  0  0  0  0  0  0  0  0  0  0
    3.4888    7.3421   11.8472 N   0  0  0  0  0  0  0  0  0  0  0  0
 23 24  1  0  0  0
 24 25  2  0  0  0
 25 26  1  0  0  0
 26 27  2  0  0  0
 27 17  1  0  0  0
 17 18  2  0  0  0
 18 19  1  0  0  0
 19 20  2  0  0  0
 20 21  1  0  0  0
 21 16  1  0  0  0
 16  1  1  0  0  0
  1  2  1  0  0  0
  2  3  2  0  0  0
  3  8  1  0  0  0
  8  9  2  0  0  0
  9 10  1  0  0  0
 10 11  1  0  0  0
 10 12  2  0  0  0
 12 13  1  0  0  0
 13 14  1  0  0  0
 13 15  2  0  0  0
  3  4  1  0  0  0
  4  5  2  0  0  0
  5  6  1  0  0  0
  6  7  2  0  0  0
 21 22  2  0  0  0
 27 28  1  0  0  0
 28 29  2  0  0  0
 29 24  1  0  0  0
 22 17  1  0  0  0
  6  1  1  0  0  0
 15  8  1  0  0  0
M  END
> <minimizedAffinity>
-8.85376

> <CNNscore>
0.7871440649

> <CNNaffinity>
6.5769453049

> <CNN_VS>
5.1770033836

> <CNNaffinity_variance>
0.1214977354

$$$$
[H]c1c(-c2c([H])c([H])c([H])c(C([H])([H])n3nc(-c4c([H])c(F)c([H])c(F)c4[H])c([H])c([H])c3=O)c2[H])nnc(C([H])([H])[H])c1[H]


 29 32  0  0  0  0  0  0  0  0999 V2000
    3.6392    1.0900   17.6392 N   0  0  0  0  0  0  0  0  0  0  0  0
    4.1860    1.5591   18.7571 N   0  0  0  0  0  0  0  0  0  0  0  0
    3.8857    1.1157   19.9937 C   0  0  0  0  0  0  0  0  0  0  0  0
    2.9495    0.1086   20.1145 C   0  0  0  0  0  0  0  0  0  0  0  0
    2.3578   -0.4060   18.9753 C   0  0  0  0  0  0  0  0  0  0  0  0
    2.7267    0.1107   17.7356 C   0  0  0  0  0  0  0  0  0  0  0  0
    2.2313   -0.3083   16.6751 O   0  0  0  0  0  0  0  0  0  0  0  0
    4.5519    1.7066   21.1620 C   0  0  0  0  0  0  0  0  0  0  0  0
    5.5313    2.6567   21.0965 C   0  0  0  0  0  0  0  0  0  0  0  0
    6.1243    3.1776   22.2459 C   0  0  0  0  0  0  0  0  0  0  0  0
    7.0875    4.1132   22.1568 F   0  0  0  0  0  0  0  0  0  0  0  0
    5.7412    2.7499   23.4954 C   0  0  0  0  0  0  0  0  0  0  0  0
    4.7543    1.7920   23.5715 C   0  0  0  0  0  0  0  0  0  0  0  0
    4.3748    1.3688   24.7991 F   0  0  0  0  0  0  0  0  0  0  0  0
    4.1768    1.2859   22.4263 C   0  0  0  0  0  0  0  0  0  0  0  0
    4.0728    1.6653   16.4044 C   0  0  0  0  0  0  0  0  0  0  0  0
    4.1938    5.3072   17.2964 C   0  0  0  0  0  0  0  0  0  0  0  0
    3.8467    5.8278   16.0607 C   0  0  0  0  0  0  0  0  0  0  0  0
    3.5777    5.0473   14.9670 C   0  0  0  0  0  0  0  0  0  0  0  0
    3.6499    3.6820   15.0795 C   0  0  0  0  0  0  0  0  0  0  0  0
    3.9879    3.1125   16.2750 C   0  0  0  0  0  0  0  0  0  0  0  0
    4.2506    3.9283   17.3495 C   0  0  0  0  0  0  0  0  0  0  0  0
    5.0224    9.0456   21.5179 C   0  0  0  0  0  0  0  0  0  0  0  0
    4.8387    8.0205   20.4294 C   0  0  0  0  0  0  0  0  0  0  0  0
    5.4730    6.7998   20.4880 C   0  0  0  0  0  0  0  0  0  0  0  0
    5.2882    5.8639   19.4670 C   0  0  0  0  0  0  0  0  0  0  0  0
    4.4665    6.1904   18.4158 C   0  0  0  0  0  0  0  0  0  0  0  0
    3.8836    7.3952   18.4266 N   0  0  0  0  0  0  0  0  0  0  0  0
    4.0543    8.2814   19.3865 N   0  0  0  0  0  0  0  0  0  0  0  0
 23 24  1  0  0  0
 24 25  2  0  0  0
 25 26  1  0  0  0
 26 27  2  0  0  0
 27 17  1  0  0  0
 17 18  2  0  0  0
 18 19  1  0  0  0
 19 20  2  0  0  0
 20 21  1  0  0  0
 21 16  1  0  0  0
 16  1  1  0  0  0
  1  2  1  0  0  0
  2  3  2  0  0  0
  3  8  1  0  0  0
  8  9  2  0  0  0
  9 10  1  0  0  0
 10 11  1  0  0  0
 10 12  2  0  0  0
 12 13  1  0  0  0
 13 14  1  0  0  0
 13 15  2  0  0  0
  3  4  1  0  0  0
  4  5  2  0  0  0
  5  6  1  0  0  0
  6  7  2  0  0  0
 21 22  2  0  0  0
 27 28  1  0  0  0
 28 29  2  0  0  0
 29 24  1  0  0  0
 22 17  1  0  0  0
  6  1  1  0  0  0
 15  8  1  0  0  0
M  END
> <minimizedAffinity>
-9.74298

> <CNNscore>
0.6536515355

> <CNNaffinity>
6.9475870132

> <CNN_VS>
4.5413007736

> <CNNaffinity_variance>
0.2517503798

$$$$
[H]c1c(-c2c([H])c([H])c([H])c(C([H])([H])n3nc(-c4c([H])c(F)c([H])c(F)c4[H])c([H])c([H])c3=O)c2[H])nnc(C([H])([H])[H])c1[H]


 29 32  0  0  0  0  0  0  0  0999 V2000
    3.8222    0.8384   17.7819 N   0  0  0  0  0  0  0  0  0  0  0  0
    4.4044    1.5316   18.7562 N   0  0  0  0  0  0  0  0  0  0  0  0
    4.0976    1.4104   20.0627 C   0  0  0  0  0  0  0  0  0  0  0  0
    3.1149    0.5091   20.4196 C   0  0  0  0  0  0  0  0  0  0  0  0
    2.4853   -0.2310   19.4355 C   0  0  0  0  0  0  0  0  0  0  0  0
    2.8642   -0.0429   18.1085 C   0  0  0  0  0  0  0  0  0  0  0  0
    2.3364   -0.6765   17.1781 O   0  0  0  0  0  0  0  0  0  0  0  0
    4.8056    2.2277   21.0570 C   0  0  0  0  0  0  0  0  0  0  0  0
    5.0484    1.8420   22.3449 C   0  0  0  0  0  0  0  0  0  0  0  0
    5.7276    2.6669   23.2407 C   0  0  0  0  0  0  0  0  0  0  0  0
    5.9555    2.2656   24.5048 F   0  0  0  0  0  0  0  0  0  0  0  0
    6.1802    3.9072   22.8563 C   0  0  0  0  0  0  0  0  0  0  0  0
    5.9399    4.3049   21.5596 C   0  0  0  0  0  0  0  0  0  0  0  0
    6.3838    5.5245   21.1779 F   0  0  0  0  0  0  0  0  0  0  0  0
    5.2670    3.4785   20.6847 C   0  0  0  0  0  0  0  0  0  0  0  0
    4.2686    1.0814   16.4457 C   0  0  0  0  0  0  0  0  0  0  0  0
    3.2297    4.3456   14.9162 C   0  0  0  0  0  0  0  0  0  0  0  0
    2.1481    3.8876   14.1821 C   0  0  0  0  0  0  0  0  0  0  0  0
    1.7515    2.5760   14.1698 C   0  0  0  0  0  0  0  0  0  0  0  0
    2.4454    1.6554   14.9134 C   0  0  0  0  0  0  0  0  0  0  0  0
    3.5218    2.0504   15.6573 C   0  0  0  0  0  0  0  0  0  0  0  0
    3.8891    3.3748   15.6442 C   0  0  0  0  0  0  0  0  0  0  0  0
    4.6647    9.8365   14.3937 C   0  0  0  0  0  0  0  0  0  0  0  0
    4.2874    8.3913   14.5894 C   0  0  0  0  0  0  0  0  0  0  0  0
    4.1556    7.8555   15.8509 C   0  0  0  0  0  0  0  0  0  0  0  0
    3.8048    6.5122   16.0089 C   0  0  0  0  0  0  0  0  0  0  0  0
    3.5974    5.7496   14.8854 C   0  0  0  0  0  0  0  0  0  0  0  0
    3.7436    6.3385   13.6924 N   0  0  0  0  0  0  0  0  0  0  0  0
    4.0742    7.6044   13.5376 N   0  0  0  0  0  0  0  0  0  0  0  0
 23 24  1  0  0  0
 24 25  2  0  0  0
 25 26  1  0  0  0
 26 27  2  0  0  0
 27 17  1  0  0  0
 17 18  2  0  0  0
 18 19  1  0  0  0
 19 20  2  0  0  0
 20 21  1  0  0  0
 21 16  1  0  0  0
 16  1  1  0  0  0
  1  2  1  0  0  0
  2  3  2  0  0  0
  3  8  1  0  0  0
  8  9  2  0  0  0
  9 10  1  0  0  0
 10 11  1  0  0  0
 10 12  2  0  0  0
 12 13  1  0  0  0
 13 14  1  0  0  0
 13 15  2  0  0  0
  3  4  1  0  0  0
  4  5  2  0  0  0
  5  6  1  0  0  0
  6  7  2  0  0  0
 21 22  2  0  0  0
 27 28  1  0  0  0
 28 29  2  0  0  0
 29 24  1  0  0  0
 22 17  1  0  0  0
  6  1  1  0  0  0
 15  8  1  0  0  0
M  END
> <minimizedAffinity>
-8.47055

> <CNNscore>
0.5744262934

> <CNNaffinity>
6.7352685928

> <CNN_VS>
3.8689153194

> <CNNaffinity_variance>
0.2664408684

$$$$
[H]c1c(-c2c([H])c([H])c([H])c(C([H])([H])n3nc(-c4c([H])c(F)c([H])c(F)c4[H])c([H])c([H])c3=O)c2[H])nnc(C([H])([H])[H])c1[H]


 29 32  0  0  0  0  0  0  0  0999 V2000
    4.0229    1.5129   17.5871 N   0  0  0  0  0  0  0  0  0  0  0  0
    4.4322    1.8130   18.8164 N   0  0  0  0  0  0  0  0  0  0  0  0
    4.0129    1.1834   19.9316 C   0  0  0  0  0  0  0  0  0  0  0  0
    3.0982    0.1586   19.7955 C   0  0  0  0  0  0  0  0  0  0  0  0
    2.6477   -0.1837   18.5336 C   0  0  0  0  0  0  0  0  0  0  0  0
    3.1334    0.5196   17.4339 C   0  0  0  0  0  0  0  0  0  0  0  0
    2.7675    0.2608   16.2743 O   0  0  0  0  0  0  0  0  0  0  0  0
    4.5320    1.5976   21.2419 C   0  0  0  0  0  0  0  0  0  0  0  0
    4.0760    1.1251   22.4398 C   0  0  0  0  0  0  0  0  0  0  0  0
    4.6128    1.5601   23.6509 C   0  0  0  0  0  0  0  0  0  0  0  0
    4.1475    1.0804   24.8190 F   0  0  0  0  0  0  0  0  0  0  0  0
    5.6279    2.4872   23.6822 C   0  0  0  0  0  0  0  0  0  0  0  0
    6.0943    2.9696   22.4792 C   0  0  0  0  0  0  0  0  0  0  0  0
    7.0929    3.8818   22.5061 F   0  0  0  0  0  0  0  0  0  0  0  0
    5.5538    2.5301   21.2892 C   0  0  0  0  0  0  0  0  0  0  0  0
    4.5707    2.2742   16.5082 C   0  0  0  0  0  0  0  0  0  0  0  0
    2.7676    4.8672   14.4837 C   0  0  0  0  0  0  0  0  0  0  0  0
    2.6233    5.8277   15.4711 C   0  0  0  0  0  0  0  0  0  0  0  0
    3.0864    5.6635   16.7503 C   0  0  0  0  0  0  0  0  0  0  0  0
    3.7268    4.4990   17.0907 C   0  0  0  0  0  0  0  0  0  0  0  0
    3.8975    3.5158   16.1569 C   0  0  0  0  0  0  0  0  0  0  0  0
    3.4193    3.7173   14.8841 C   0  0  0  0  0  0  0  0  0  0  0  0
    0.8784    6.1777    9.2687 C   0  0  0  0  0  0  0  0  0  0  0  0
    1.3581    5.7772   10.6394 C   0  0  0  0  0  0  0  0  0  0  0  0
    1.1778    4.4957   11.1095 C   0  0  0  0  0  0  0  0  0  0  0  0
    1.6309    4.1464   12.3844 C   0  0  0  0  0  0  0  0  0  0  0  0
    2.2535    5.1042   13.1469 C   0  0  0  0  0  0  0  0  0  0  0  0
    2.3934    6.3284   12.6240 N   0  0  0  0  0  0  0  0  0  0  0  0
    1.9682    6.6633   11.4228 N   0  0  0  0  0  0  0  0  0  0  0  0
 23 24  1  0  0  0
 24 25  2  0  0  0
 25 26  1  0  0  0
 26 27  2  0  0  0
 27 17  1  0  0  0
 17 18  2  0  0  0
 18 19  1  0  0  0
 19 20  2  0  0  0
 20 21  1  0  0  0
 21 16  1  0  0  0
 16  1  1  0  0  0
  1  2  1  0  0  0
  2  3  2  0  0  0
  3  8  1  0  0  0
  8  9  2  0  0  0
  9 10  1  0  0  0
 10 11  1  0  0  0
 10 12  2  0  0  0
 12 13  1  0  0  0
 13 14  1  0  0  0
 13 15  2  0  0  0
  3  4  1  0  0  0
  4  5  2  0  0  0
  5  6  1  0  0  0
  6  7  2  0  0  0
 21 22  2  0  0  0
 27 28  1  0  0  0
 28 29  2  0  0  0
 29 24  1  0  0  0
 22 17  1  0  0  0
  6  1  1  0  0  0
 15  8  1  0  0  0
M  END
> <minimizedAffinity>
-7.91325

> <CNNscore>
0.5650627613

> <CNNaffinity>
6.3500108719

> <CNN_VS>
3.5881547928

> <CNNaffinity_variance>
0.2293910533

$$$$
[H]c1c(-c2c([H])c([H])c([H])c(C([H])([H])n3nc(-c4c([H])c(F)c([H])c(F)c4[H])c([H])c([H])c3=O)c2[H])nnc(C([H])([H])[H])c1[H]


 29 32  0  0  0  0  0  0  0  0999 V2000
    3.4048    0.8157   18.6692 N   0  0  0  0  0  0  0  0  0  0  0  0
    4.0217    1.8784   19.1780 N   0  0  0  0  0  0  0  0  0  0  0  0
    4.1117    2.1460   20.4956 C   0  0  0  0  0  0  0  0  0  0  0  0
    3.5268    1.2628   21.3806 C   0  0  0  0  0  0  0  0  0  0  0  0
    2.8754    0.1454   20.8909 C   0  0  0  0  0  0  0  0  0  0  0  0
    2.8296   -0.0548   19.5133 C   0  0  0  0  0  0  0  0  0  0  0  0
    2.2593   -1.0385   19.0106 O   0  0  0  0  0  0  0  0  0  0  0  0
    4.8185    3.3516   20.9484 C   0  0  0  0  0  0  0  0  0  0  0  0
    5.9897    3.3441   21.6517 C   0  0  0  0  0  0  0  0  0  0  0  0
    6.6108    4.5264   22.0524 C   0  0  0  0  0  0  0  0  0  0  0  0
    7.7645    4.4945   22.7445 F   0  0  0  0  0  0  0  0  0  0  0  0
    6.0619    5.7508   21.7515 C   0  0  0  0  0  0  0  0  0  0  0  0
    4.8810    5.7684   21.0427 C   0  0  0  0  0  0  0  0  0  0  0  0
    4.3382    6.9712   20.7449 F   0  0  0  0  0  0  0  0  0  0  0  0
    4.2781    4.5912   20.6529 C   0  0  0  0  0  0  0  0  0  0  0  0
    3.4051    0.6747   17.2466 C   0  0  0  0  0  0  0  0  0  0  0  0
    4.3731    4.1786   16.3198 C   0  0  0  0  0  0  0  0  0  0  0  0
    3.9691    4.1544   14.9951 C   0  0  0  0  0  0  0  0  0  0  0  0
    3.4007    3.0562   14.4045 C   0  0  0  0  0  0  0  0  0  0  0  0
    3.2138    1.9153   15.1429 C   0  0  0  0  0  0  0  0  0  0  0  0
    3.5937    1.8815   16.4552 C   0  0  0  0  0  0  0  0  0  0  0  0
    4.1603    3.0029   17.0125 C   0  0  0  0  0  0  0  0  0  0  0  0
    6.3884    9.0816   18.4132 C   0  0  0  0  0  0  0  0  0  0  0  0
    5.9036    7.7591   17.8790 C   0  0  0  0  0  0  0  0  0  0  0  0
    6.6558    6.6150   18.0237 C   0  0  0  0  0  0  0  0  0  0  0  0
    6.1865    5.3990   17.5203 C   0  0  0  0  0  0  0  0  0  0  0  0
    4.9691    5.3758   16.8847 C   0  0  0  0  0  0  0  0  0  0  0  0
    4.2939    6.5268   16.7814 N   0  0  0  0  0  0  0  0  0  0  0  0
    4.7315    7.6761   17.2541 N   0  0  0  0  0  0  0  0  0  0  0  0
 23 24  1  0  0  0
 24 25  2  0  0  0
 25 26  1  0  0  0
 26 27  2  0  0  0
 27 17  1  0  0  0
 17 18  2  0  0  0
 18 19  1  0  0  0
 19 20  2  0  0  0
 20 21  1  0  0  0
 21 16  1  0  0  0
 16  1  1  0  0  0
  1  2  1  0  0  0
  2  3  2  0  0  0
  3  8  1  0  0  0
  8  9  2  0  0  0
  9 10  1  0  0  0
 10 11  1  0  0  0
 10 12  2  0  0  0
 12 13  1  0  0  0
 13 14  1  0  0  0
 13 15  2  0  0  0
  3  4  1  0  0  0
  4  5  2  0  0  0
  5  6  1  0  0  0
  6  7  2  0  0  0
 21 22  2  0  0  0
 27 28  1  0  0  0
 28 29  2  0  0  0
 29 24  1  0  0  0
 22 17  1  0  0  0
  6  1  1  0  0  0
 15  8  1  0  0  0
M  END
> <minimizedAffinity>
-9.48701

> <CNNscore>
0.5163325667

> <CNNaffinity>
6.8407239914

> <CNN_VS>
3.5320885181

> <CNNaffinity_variance>
0.3182130158

$$$$
[H]c1c(-c2c([H])c([H])c([H])c(C([H])([H])n3nc(-c4c([H])c(F)c([H])c(F)c4[H])c([H])c([H])c3=O)c2[H])nnc(C([H])([H])[H])c1[H]


 29 32  0  0  0  0  0  0  0  0999 V2000
    3.5894    1.3334   18.1282 N   0  0  0  0  0  0  0  0  0  0  0  0
    3.9649    2.5925   17.9226 N   0  0  0  0  0  0  0  0  0  0  0  0
    3.8707    3.2298   16.7391 C   0  0  0  0  0  0  0  0  0  0  0  0
    3.3512    2.5350   15.6653 C   0  0  0  0  0  0  0  0  0  0  0  0
    2.9492    1.2231   15.8383 C   0  0  0  0  0  0  0  0  0  0  0  0
    3.0820    0.6409   17.0966 C   0  0  0  0  0  0  0  0  0  0  0  0
    2.7399   -0.5340   17.3167 O   0  0  0  0  0  0  0  0  0  0  0  0
    4.3164    4.6248   16.6243 C   0  0  0  0  0  0  0  0  0  0  0  0
    3.7183    5.5662   15.8354 C   0  0  0  0  0  0  0  0  0  0  0  0
    4.1918    6.8761   15.7713 C   0  0  0  0  0  0  0  0  0  0  0  0
    3.5862    7.7866   14.9869 F   0  0  0  0  0  0  0  0  0  0  0  0
    5.2861    7.2692   16.5054 C   0  0  0  0  0  0  0  0  0  0  0  0
    5.8960    6.3269   17.3038 C   0  0  0  0  0  0  0  0  0  0  0  0
    6.9727    6.7102   18.0275 F   0  0  0  0  0  0  0  0  0  0  0  0
    5.4165    5.0352   17.3573 C   0  0  0  0  0  0  0  0  0  0  0  0
    3.7502    0.8071   19.4476 C   0  0  0  0  0  0  0  0  0  0  0  0
    5.6011    3.5204   21.2602 C   0  0  0  0  0  0  0  0  0  0  0  0
    6.5044    2.7241   21.9445 C   0  0  0  0  0  0  0  0  0  0  0  0
    6.5319    1.3583   21.8365 C   0  0  0  0  0  0  0  0  0  0  0  0
    5.6301    0.7291   21.0164 C   0  0  0  0  0  0  0  0  0  0  0  0
    4.7151    1.4645   20.3165 C   0  0  0  0  0  0  0  0  0  0  0  0
    4.7186    2.8323   20.4508 C   0  0  0  0  0  0  0  0  0  0  0  0
    6.0205    9.1391   22.1191 C   0  0  0  0  0  0  0  0  0  0  0  0
    5.8632    7.6637   21.8588 C   0  0  0  0  0  0  0  0  0  0  0  0
    4.8465    7.1867   21.0621 C   0  0  0  0  0  0  0  0  0  0  0  0
    4.7195    5.8140   20.8343 C   0  0  0  0  0  0  0  0  0  0  0  0
    5.6254    4.9632   21.4193 C   0  0  0  0  0  0  0  0  0  0  0  0
    6.5869    5.4988   22.1809 N   0  0  0  0  0  0  0  0  0  0  0  0
    6.7113    6.7921   22.3992 N   0  0  0  0  0  0  0  0  0  0  0  0
 23 24  1  0  0  0
 24 25  2  0  0  0
 25 26  1  0  0  0
 26 27  2  0  0  0
 27 17  1  0  0  0
 17 18  2  0  0  0
 18 19  1  0  0  0
 19 20  2  0  0  0
 20 21  1  0  0  0
 21 16  1  0  0  0
 16  1  1  0  0  0
  1  2  1  0  0  0
  2  3  2  0  0  0
  3  8  1  0  0  0
  8  9  2  0  0  0
  9 10  1  0  0  0
 10 11  1  0  0  0
 10 12  2  0  0  0
 12 13  1  0  0  0
 13 14  1  0  0  0
 13 15  2  0  0  0
  3  4  1  0  0  0
  4  5  2  0  0  0
  5  6  1  0  0  0
  6  7  2  0  0  0
 21 22  2  0  0  0
 27 28  1  0  0  0
 28 29  2  0  0  0
 29 24  1  0  0  0
 22 17  1  0  0  0
  6  1  1  0  0  0
 15  8  1  0  0  0
M  END
> <minimizedAffinity>
-9.83118

> <CNNscore>
0.4971924722

> <CNNaffinity>
6.6598539352

> <CNN_VS>
3.3112292290

> <CNNaffinity_variance>
0.2839645147

$$$$
[H]c1c(-c2c([H])c([H])c([H])c(C([H])([H])n3nc(-c4c([H])c(F)c([H])c(F)c4[H])c([H])c([H])c3=O)c2[H])nnc(C([H])([H])[H])c1[H]


 29 32  0  0  0  0  0  0  0  0999 V2000
    3.5620    1.2813   18.0912 N   0  0  0  0  0  0  0  0  0  0  0  0
    3.9226    2.5444   17.8832 N   0  0  0  0  0  0  0  0  0  0  0  0
    3.8273    3.1761   16.6967 C   0  0  0  0  0  0  0  0  0  0  0  0
    3.3230    2.4709   15.6226 C   0  0  0  0  0  0  0  0  0  0  0  0
    2.9368    1.1546   15.7981 C   0  0  0  0  0  0  0  0  0  0  0  0
    3.0695    0.5787   17.0593 C   0  0  0  0  0  0  0  0  0  0  0  0
    2.7412   -0.5996   17.2817 O   0  0  0  0  0  0  0  0  0  0  0  0
    4.2558    4.5763   16.5794 C   0  0  0  0  0  0  0  0  0  0  0  0
    5.2428    5.1494   17.3302 C   0  0  0  0  0  0  0  0  0  0  0  0
    5.6024    6.4869   17.1691 C   0  0  0  0  0  0  0  0  0  0  0  0
    6.5781    7.0299   17.9202 F   0  0  0  0  0  0  0  0  0  0  0  0
    4.9711    7.2822   16.2419 C   0  0  0  0  0  0  0  0  0  0  0  0
    3.9743    6.7132   15.4802 C   0  0  0  0  0  0  0  0  0  0  0  0
    3.3511    7.4927   14.5669 F   0  0  0  0  0  0  0  0  0  0  0  0
    3.6295    5.3891   15.6504 C   0  0  0  0  0  0  0  0  0  0  0  0
    3.7217    0.7619   19.4135 C   0  0  0  0  0  0  0  0  0  0  0  0
    5.5800    3.4733   21.2214 C   0  0  0  0  0  0  0  0  0  0  0  0
    6.4912    2.6768   21.8951 C   0  0  0  0  0  0  0  0  0  0  0  0
    6.5217    1.3116   21.7814 C   0  0  0  0  0  0  0  0  0  0  0  0
    5.6148    0.6831   20.9662 C   0  0  0  0  0  0  0  0  0  0  0  0
    4.6920    1.4186   20.2770 C   0  0  0  0  0  0  0  0  0  0  0  0
    4.6927    2.7859   20.4166 C   0  0  0  0  0  0  0  0  0  0  0  0
    5.3419    9.1532   21.6279 C   0  0  0  0  0  0  0  0  0  0  0  0
    5.4513    7.6525   21.5553 C   0  0  0  0  0  0  0  0  0  0  0  0
    6.4443    6.9785   22.2301 C   0  0  0  0  0  0  0  0  0  0  0  0
    6.5267    5.5860   22.1484 C   0  0  0  0  0  0  0  0  0  0  0  0
    5.6016    4.9155   21.3860 C   0  0  0  0  0  0  0  0  0  0  0  0
    4.6651    5.6372   20.7585 N   0  0  0  0  0  0  0  0  0  0  0  0
    4.5827    6.9501   20.8319 N   0  0  0  0  0  0  0  0  0  0  0  0
 23 24  1  0  0  0
 24 25  2  0  0  0
 25 26  1  0  0  0
 26 27  2  0  0  0
 27 17  1  0  0  0
 17 18  2  0  0  0
 18 19  1  0  0  0
 19 20  2  0  0  0
 20 21  1  0  0  0
 21 16  1  0  0  0
 16  1  1  0  0  0
  1  2  1  0  0  0
  2  3  2  0  0  0
  3  8  1  0  0  0
  8  9  2  0  0  0
  9 10  1  0  0  0
 10 11  1  0  0  0
 10 12  2  0  0  0
 12 13  1  0  0  0
 13 14  1  0  0  0
 13 15  2  0  0  0
  3  4  1  0  0  0
  4  5  2  0  0  0
  5  6  1  0  0  0
  6  7  2  0  0  0
 21 22  2  0  0  0
 27 28  1  0  0  0
 28 29  2  0  0  0
 29 24  1  0  0  0
 22 17  1  0  0  0
  6  1  1  0  0  0
 15  8  1  0  0  0
M  END
> <minimizedAffinity>
-9.84552

> <CNNscore>
0.4913109839

> <CNNaffinity>
6.6309914589

> <CNN_VS>
3.2578790188

> <CNNaffinity_variance>
0.3773026466

$$$$
[H]c1c(-c2c([H])c([H])c([H])c(C([H])([H])n3nc(-c4c([H])c(F)c([H])c(F)c4[H])c([H])c([H])c3=O)c2[H])nnc(C([H])([H])[H])c1[H]


 29 32  0  0  0  0  0  0  0  0999 V2000
    3.6487    1.1162   17.6616 N   0  0  0  0  0  0  0  0  0  0  0  0
    4.2730    2.2349   18.0189 N   0  0  0  0  0  0  0  0  0  0  0  0
    4.4268    2.6452   19.2931 C   0  0  0  0  0  0  0  0  0  0  0  0
    3.9039    1.8568   20.2984 C   0  0  0  0  0  0  0  0  0  0  0  0
    3.2471    0.6855   19.9678 C   0  0  0  0  0  0  0  0  0  0  0  0
    3.1332    0.3361   18.6243 C   0  0  0  0  0  0  0  0  0  0  0  0
    2.5544   -0.7028   18.2621 O   0  0  0  0  0  0  0  0  0  0  0  0
    5.1354    3.9008   19.5746 C   0  0  0  0  0  0  0  0  0  0  0  0
    5.5129    4.8066   18.6241 C   0  0  0  0  0  0  0  0  0  0  0  0
    6.1845    5.9819   18.9583 C   0  0  0  0  0  0  0  0  0  0  0  0
    6.5464    6.8597   18.0047 F   0  0  0  0  0  0  0  0  0  0  0  0
    6.4929    6.2727   20.2664 C   0  0  0  0  0  0  0  0  0  0  0  0
    6.1164    5.3653   21.2319 C   0  0  0  0  0  0  0  0  0  0  0  0
    6.4182    5.6481   22.5199 F   0  0  0  0  0  0  0  0  0  0  0  0
    5.4527    4.2071   20.8866 C   0  0  0  0  0  0  0  0  0  0  0  0
    3.5774    0.8213   16.2646 C   0  0  0  0  0  0  0  0  0  0  0  0
    3.0076    4.1267   14.5844 C   0  0  0  0  0  0  0  0  0  0  0  0
    1.9486    3.7583   13.7713 C   0  0  0  0  0  0  0  0  0  0  0  0
    1.4220    2.4933   13.7531 C   0  0  0  0  0  0  0  0  0  0  0  0
    1.9545    1.5300   14.5719 C   0  0  0  0  0  0  0  0  0  0  0  0
    3.0011    1.8367   15.3956 C   0  0  0  0  0  0  0  0  0  0  0  0
    3.5021    3.1165   15.3858 C   0  0  0  0  0  0  0  0  0  0  0  0
    4.9937    9.4439   14.0686 C   0  0  0  0  0  0  0  0  0  0  0  0
    4.4727    8.0438   14.2625 C   0  0  0  0  0  0  0  0  0  0  0  0
    4.3155    7.5119   15.5227 C   0  0  0  0  0  0  0  0  0  0  0  0
    3.8306    6.2108   15.6791 C   0  0  0  0  0  0  0  0  0  0  0  0
    3.5186    5.4852   14.5553 C   0  0  0  0  0  0  0  0  0  0  0  0
    3.6973    6.0677   13.3635 N   0  0  0  0  0  0  0  0  0  0  0  0
    4.1541    7.2939   13.2102 N   0  0  0  0  0  0  0  0  0  0  0  0
 23 24  1  0  0  0
 24 25  2  0  0  0
 25 26  1  0  0  0
 26 27  2  0  0  0
 27 17  1  0  0  0
 17 18  2  0  0  0
 18 19  1  0  0  0
 19 20  2  0  0  0
 20 21  1  0  0  0
 21 16  1  0  0  0
 16  1  1  0  0  0
  1  2  1  0  0  0
  2  3  2  0  0  0
  3  8  1  0  0  0
  8  9  2  0  0  0
  9 10  1  0  0  0
 10 11  1  0  0  0
 10 12  2  0  0  0
 12 13  1  0  0  0
 13 14  1  0  0  0
 13 15  2  0  0  0
  3  4  1  0  0  0
  4  5  2  0  0  0
  5  6  1  0  0  0
  6  7  2  0  0  0
 21 22  2  0  0  0
 27 28  1  0  0  0
 28 29  2  0  0  0
 29 24  1  0  0  0
 22 17  1  0  0  0
  6  1  1  0  0  0
 15  8  1  0  0  0
M  END
> <minimizedAffinity>
-8.26030

> <CNNscore>
0.4545364976

> <CNNaffinity>
6.3580203056

> <CNN_VS>
2.8899521828

> <CNNaffinity_variance>
0.3203136623

$$$$
[H]c1c([H])c([H])c(-c2c([H])c([H])c(C([H])([H])Sc3nnc(-c4c([H])c([H])c5c(c4[H])O[C@@]([H])(C([H])([H])OC([H])([H])[H])C([H])([H])O5)o3)c([H])c2[H])c(C#N)c1[H]


 34 38  0  0  0  0  0  0  0  0999 V2000
    2.9050    0.9355   17.3050 C   0  0  0  0  0  0  0  0  0  0  0  0
    2.2917   -0.2457   17.3625 N   0  0  0  0  0  0  0  0  0  0  0  0
    2.3161   -0.6610   18.6102 N   0  0  0  0  0  0  0  0  0  0  0  0
    2.9456    0.2568   19.3484 C   0  0  0  0  0  0  0  0  0  0  0  0
    3.2909    1.2254   18.4959 O   0  0  0  0  0  0  0  0  0  0  0  0
    2.5609    2.3036   11.3499 C   0  0  0  0  0  0  0  0  0  0  0  0
    2.6021    3.8004   11.6217 C   0  0  0  0  0  0  0  0  0  0  0  0
    3.6048    3.9973   12.6375 O   0  0  0  0  0  0  0  0  0  0  0  0
    3.4503    3.2609   13.7986 C   0  0  0  0  0  0  0  0  0  0  0  0
    4.1091    3.6254   14.9769 C   0  0  0  0  0  0  0  0  0  0  0  0
    3.9064    2.8431   16.0951 C   0  0  0  0  0  0  0  0  0  0  0  0
    3.0899    1.7363   16.0820 C   0  0  0  0  0  0  0  0  0  0  0  0
    2.4604    1.4018   14.9249 C   0  0  0  0  0  0  0  0  0  0  0  0
    2.6279    2.1550   13.7656 C   0  0  0  0  0  0  0  0  0  0  0  0
    1.9739    1.7927   12.5974 O   0  0  0  0  0  0  0  0  0  0  0  0
    1.6559    1.9210   10.2311 C   0  0  0  0  0  0  0  0  0  0  0  0
    0.1722    0.1032    9.9070 C   0  0  0  0  0  0  0  0  0  0  0  0
    1.3929    0.6501    9.9551 O   0  0  0  0  0  0  0  0  0  0  0  0
    3.2683    0.2221   21.0908 S   0  0  0  0  0  0  0  0  0  0  0  0
    4.7727    1.0741   21.5764 C   0  0  0  0  0  0  0  0  0  0  0  0
    4.7045    2.5338   21.3630 C   0  0  0  0  0  0  0  0  0  0  0  0
    5.4135    3.0747   20.2906 C   0  0  0  0  0  0  0  0  0  0  0  0
    5.4022    4.4319   20.0586 C   0  0  0  0  0  0  0  0  0  0  0  0
    4.7079    5.3097   20.8514 C   0  0  0  0  0  0  0  0  0  0  0  0
    4.0084    4.7682   21.9117 C   0  0  0  0  0  0  0  0  0  0  0  0
    4.0169    3.4045   22.1496 C   0  0  0  0  0  0  0  0  0  0  0  0
    4.6551    6.7483   20.6432 C   0  0  0  0  0  0  0  0  0  0  0  0
    5.2050    7.6221   21.5906 C   0  0  0  0  0  0  0  0  0  0  0  0
    5.1760    8.9827   21.4038 C   0  0  0  0  0  0  0  0  0  0  0  0
    4.6097    9.5533   20.2850 C   0  0  0  0  0  0  0  0  0  0  0  0
    4.0654    8.7086   19.3459 C   0  0  0  0  0  0  0  0  0  0  0  0
    4.0926    7.3225   19.5323 C   0  0  0  0  0  0  0  0  0  0  0  0
    3.4972    6.4807   18.5287 C   0  0  0  0  0  0  0  0  0  0  0  0
    3.0359    5.8022   17.7025 N   0  0  0  0  0  0  0  0  0  0  0  0
 17 18  1  0  0  0
 18 16  1  0  0  0
 16  6  1  0  0  0
  6  7  1  0  0  0
  7  8  1  0  0  0
  8  9  1  0  0  0
  9 10  2  0  0  0
 10 11  1  0  0  0
 11 12  2  0  0  0
 12  1  1  0  0  0
  1  2  2  0  0  0
  2  3  1  0  0  0
  3  4  2  0  0  0
  4 19  1  0  0  0
 19 20  1  0  0  0
 20 21  1  0  0  0
 21 22  2  0  0  0
 22 23  1  0  0  0
 23 24  2  0  0  0
 24 27  1  0  0  0
 27 28  2  0  0  0
 28 29  1  0  0  0
 29 30  2  0  0  0
 30 31  1  0  0  0
 31 32  2  0  0  0
 32 33  1  0  0  0
 33 34  3  0  0  0
 24 25  1  0  0  0
 25 26  2  0  0  0
  4  5  1  0  0  0
 12 13  1  0  0  0
 13 14  2  0  0  0
 14 15  1  0  0  0
 15  6  1  0  0  0
 14  9  1  0  0  0
  5  1  1  0  0  0
 26 21  1  0  0  0
 32 27  1  0  0  0
M  END
> <minimizedAffinity>
-9.33038

> <CNNscore>
0.8781170249

> <CNNaffinity>
7.1045989990

> <CNN_VS>
6.2386693954

> <CNNaffinity_variance>
0.3591088951

$$$$
[H]c1c([H])c([H])c(-c2c([H])c([H])c(C([H])([H])Sc3nnc(-c4c([H])c([H])c5c(c4[H])O[C@@]([H])(C([H])([H])OC([H])([H])[H])C([H])([H])O5)o3)c([H])c2[H])c(C#N)c1[H]


 34 38  0  0  0  0  0  0  0  0999 V2000
    2.8781    1.0018   17.5540 C   0  0  0  0  0  0  0  0  0  0  0  0
    2.0964   -0.0752   17.4922 N   0  0  0  0  0  0  0  0  0  0  0  0
    2.1478   -0.6873   18.6552 N   0  0  0  0  0  0  0  0  0  0  0  0
    2.9632    0.0006   19.4587 C   0  0  0  0  0  0  0  0  0  0  0  0
    3.3900    1.0368   18.7321 O   0  0  0  0  0  0  0  0  0  0  0  0
    2.1492    3.4740   12.0033 C   0  0  0  0  0  0  0  0  0  0  0  0
    2.5631    4.8553   12.4893 C   0  0  0  0  0  0  0  0  0  0  0  0
    3.6979    4.6541   13.3542 O   0  0  0  0  0  0  0  0  0  0  0  0
    3.5187    3.7659   14.3997 C   0  0  0  0  0  0  0  0  0  0  0  0
    4.3787    3.7667   15.5022 C   0  0  0  0  0  0  0  0  0  0  0  0
    4.1373    2.8519   16.5064 C   0  0  0  0  0  0  0  0  0  0  0  0
    3.0941    1.9571   16.4530 C   0  0  0  0  0  0  0  0  0  0  0  0
    2.2717    1.9753   15.3712 C   0  0  0  0  0  0  0  0  0  0  0  0
    2.4676    2.8768   14.3280 C   0  0  0  0  0  0  0  0  0  0  0  0
    1.6138    2.8753   13.2348 O   0  0  0  0  0  0  0  0  0  0  0  0
    1.0542    3.4953   10.9944 C   0  0  0  0  0  0  0  0  0  0  0  0
   -0.2424    5.0295    9.7391 C   0  0  0  0  0  0  0  0  0  0  0  0
    0.2295    4.5293   10.8874 O   0  0  0  0  0  0  0  0  0  0  0  0
    3.4032   -0.3623   21.1368 S   0  0  0  0  0  0  0  0  0  0  0  0
    3.0997    0.9858   22.2838 C   0  0  0  0  0  0  0  0  0  0  0  0
    4.0873    2.0774   22.1665 C   0  0  0  0  0  0  0  0  0  0  0  0
    3.8671    3.2439   22.8987 C   0  0  0  0  0  0  0  0  0  0  0  0
    4.7447    4.3012   22.8098 C   0  0  0  0  0  0  0  0  0  0  0  0
    5.8611    4.2678   22.0137 C   0  0  0  0  0  0  0  0  0  0  0  0
    6.0734    3.1105   21.2909 C   0  0  0  0  0  0  0  0  0  0  0  0
    5.1938    2.0449   21.3764 C   0  0  0  0  0  0  0  0  0  0  0  0
    6.8235    5.3518   21.8928 C   0  0  0  0  0  0  0  0  0  0  0  0
    8.0361    5.3041   22.5932 C   0  0  0  0  0  0  0  0  0  0  0  0
    8.9623    6.3124   22.4802 C   0  0  0  0  0  0  0  0  0  0  0  0
    8.7483    7.4128   21.6795 C   0  0  0  0  0  0  0  0  0  0  0  0
    7.5622    7.4742   20.9858 C   0  0  0  0  0  0  0  0  0  0  0  0
    6.6163    6.4498   21.0980 C   0  0  0  0  0  0  0  0  0  0  0  0
    5.3843    6.5664   20.3641 C   0  0  0  0  0  0  0  0  0  0  0  0
    4.3793    6.6395   19.7806 N   0  0  0  0  0  0  0  0  0  0  0  0
 17 18  1  0  0  0
 18 16  1  0  0  0
 16  6  1  0  0  0
  6  7  1  0  0  0
  7  8  1  0  0  0
  8  9  1  0  0  0
  9 10  2  0  0  0
 10 11  1  0  0  0
 11 12  2  0  0  0
 12  1  1  0  0  0
  1  2  2  0  0  0
  2  3  1  0  0  0
  3  4  2  0  0  0
  4 19  1  0  0  0
 19 20  1  0  0  0
 20 21  1  0  0  0
 21 22  2  0  0  0
 22 23  1  0  0  0
 23 24  2  0  0  0
 24 27  1  0  0  0
 27 28  2  0  0  0
 28 29  1  0  0  0
 29 30  2  0  0  0
 30 31  1  0  0  0
 31 32  2  0  0  0
 32 33  1  0  0  0
 33 34  3  0  0  0
 24 25  1  0  0  0
 25 26  2  0  0  0
  4  5  1  0  0  0
 12 13  1  0  0  0
 13 14  2  0  0  0
 14 15  1  0  0  0
 15  6  1  0  0  0
 14  9  1  0  0  0
  5  1  1  0  0  0
 26 21  1  0  0  0
 32 27  1  0  0  0
M  END
> <minimizedAffinity>
-8.54314

> <CNNscore>
0.8464640379

> <CNNaffinity>
7.1377739906

> <CNN_VS>
6.0418691635

> <CNNaffinity_variance>
0.2384497225

$$$$
[H]c1c([H])c([H])c(-c2c([H])c([H])c(C([H])([H])Sc3nnc(-c4c([H])c([H])c5c(c4[H])O[C@@]([H])(C([H])([H])OC([H])([H])[H])C([H])([H])O5)o3)c([H])c2[H])c(C#N)c1[H]


 34 38  0  0  0  0  0  0  0  0999 V2000
    2.9718    1.0270   17.3488 C   0  0  0  0  0  0  0  0  0  0  0  0
    2.3278   -0.1363   17.4303 N   0  0  0  0  0  0  0  0  0  0  0  0
    2.3766   -0.5464   18.6790 N   0  0  0  0  0  0  0  0  0  0  0  0
    3.0526    0.3568   19.3939 C   0  0  0  0  0  0  0  0  0  0  0  0
    3.4000    1.3114   18.5266 O   0  0  0  0  0  0  0  0  0  0  0  0
    2.7001    2.2785   11.3644 C   0  0  0  0  0  0  0  0  0  0  0  0
    2.6551    3.7795   11.6110 C   0  0  0  0  0  0  0  0  0  0  0  0
    3.6210    4.0462   12.6464 O   0  0  0  0  0  0  0  0  0  0  0  0
    3.4777    3.3215   13.8162 C   0  0  0  0  0  0  0  0  0  0  0  0
    4.0874    3.7397   15.0030 C   0  0  0  0  0  0  0  0  0  0  0  0
    3.8995    2.9658   16.1296 C   0  0  0  0  0  0  0  0  0  0  0  0
    3.1435    1.8168   16.1167 C   0  0  0  0  0  0  0  0  0  0  0  0
    2.5609    1.4304   14.9513 C   0  0  0  0  0  0  0  0  0  0  0  0
    2.7163    2.1727   13.7832 C   0  0  0  0  0  0  0  0  0  0  0  0
    2.1110    1.7570   12.6065 O   0  0  0  0  0  0  0  0  0  0  0  0
    1.8442    1.8300   10.2315 C   0  0  0  0  0  0  0  0  0  0  0  0
    3.6514    1.5084    8.7344 C   0  0  0  0  0  0  0  0  0  0  0  0
    2.3709    1.3768    9.1011 O   0  0  0  0  0  0  0  0  0  0  0  0
    3.4245    0.3210   21.1264 S   0  0  0  0  0  0  0  0  0  0  0  0
    4.9167    1.2132   21.5760 C   0  0  0  0  0  0  0  0  0  0  0  0
    4.8593    2.6473   21.2280 C   0  0  0  0  0  0  0  0  0  0  0  0
    4.1230    3.4951   22.0553 C   0  0  0  0  0  0  0  0  0  0  0  0
    4.0184    4.8370   21.7654 C   0  0  0  0  0  0  0  0  0  0  0  0
    4.6194    5.4039   20.6707 C   0  0  0  0  0  0  0  0  0  0  0  0
    5.3466    4.5595   19.8552 C   0  0  0  0  0  0  0  0  0  0  0  0
    5.4545    3.2094   20.1420 C   0  0  0  0  0  0  0  0  0  0  0  0
    4.5485    6.8154   20.3264 C   0  0  0  0  0  0  0  0  0  0  0  0
    3.7447    7.2458   19.2625 C   0  0  0  0  0  0  0  0  0  0  0  0
    3.6553    8.5762   18.9321 C   0  0  0  0  0  0  0  0  0  0  0  0
    4.3455    9.5473   19.6237 C   0  0  0  0  0  0  0  0  0  0  0  0
    5.1393    9.1404   20.6708 C   0  0  0  0  0  0  0  0  0  0  0  0
    5.2332    7.7867   21.0105 C   0  0  0  0  0  0  0  0  0  0  0  0
    6.0881    7.4088   22.1044 C   0  0  0  0  0  0  0  0  0  0  0  0
    6.7696    7.1211   23.0035 N   0  0  0  0  0  0  0  0  0  0  0  0
 17 18  1  0  0  0
 18 16  1  0  0  0
 16  6  1  0  0  0
  6  7  1  0  0  0
  7  8  1  0  0  0
  8  9  1  0  0  0
  9 10  2  0  0  0
 10 11  1  0  0  0
 11 12  2  0  0  0
 12  1  1  0  0  0
  1  2  2  0  0  0
  2  3  1  0  0  0
  3  4  2  0  0  0
  4 19  1  0  0  0
 19 20  1  0  0  0
 20 21  1  0  0  0
 21 22  2  0  0  0
 22 23  1  0  0  0
 23 24  2  0  0  0
 24 27  1  0  0  0
 27 28  2  0  0  0
 28 29  1  0  0  0
 29 30  2  0  0  0
 30 31  1  0  0  0
 31 32  2  0  0  0
 32 33  1  0  0  0
 33 34  3  0  0  0
 24 25  1  0  0  0
 25 26  2  0  0  0
  4  5  1  0  0  0
 12 13  1  0  0  0
 13 14  2  0  0  0
 14 15  1  0  0  0
 15  6  1  0  0  0
 14  9  1  0  0  0
  5  1  1  0  0  0
 26 21  1  0  0  0
 32 27  1  0  0  0
M  END
> <minimizedAffinity>
-9.00285

> <CNNscore>
0.7242577076

> <CNNaffinity>
6.9252500534

> <CNN_VS>
5.0156655312

> <CNNaffinity_variance>
0.4721749425

$$$$
[H]c1c([H])c([H])c(-c2c([H])c([H])c(C([H])([H])Sc3nnc(-c4c([H])c([H])c5c(c4[H])O[C@@]([H])(C([H])([H])OC([H])([H])[H])C([H])([H])O5)o3)c([H])c2[H])c(C#N)c1[H]


 34 38  0  0  0  0  0  0  0  0999 V2000
    2.8513    0.9771   17.5730 C   0  0  0  0  0  0  0  0  0  0  0  0
    2.1153   -0.1299   17.6603 N   0  0  0  0  0  0  0  0  0  0  0  0
    2.3014   -0.6540   18.8522 N   0  0  0  0  0  0  0  0  0  0  0  0
    3.1569    0.1201   19.5249 C   0  0  0  0  0  0  0  0  0  0  0  0
    3.4684    1.1163   18.6915 O   0  0  0  0  0  0  0  0  0  0  0  0
    3.0520    6.2483   14.4701 C   0  0  0  0  0  0  0  0  0  0  0  0
    3.7729    5.6069   13.2934 C   0  0  0  0  0  0  0  0  0  0  0  0
    3.1281    4.3379   13.0698 O   0  0  0  0  0  0  0  0  0  0  0  0
    3.0545    3.4900   14.1607 C   0  0  0  0  0  0  0  0  0  0  0  0
    2.8093    2.1233   13.9966 C   0  0  0  0  0  0  0  0  0  0  0  0
    2.7498    1.3401   15.1309 C   0  0  0  0  0  0  0  0  0  0  0  0
    2.9218    1.8577   16.3937 C   0  0  0  0  0  0  0  0  0  0  0  0
    3.1588    3.1892   16.5279 C   0  0  0  0  0  0  0  0  0  0  0  0
    3.2295    4.0275   15.4181 C   0  0  0  0  0  0  0  0  0  0  0  0
    3.4729    5.3831   15.5819 O   0  0  0  0  0  0  0  0  0  0  0  0
    3.5093    7.6327   14.7725 C   0  0  0  0  0  0  0  0  0  0  0  0
    5.1678    8.6296   16.1387 C   0  0  0  0  0  0  0  0  0  0  0  0
    4.7700    7.8920   15.0950 O   0  0  0  0  0  0  0  0  0  0  0  0
    3.7665   -0.1038   21.1740 S   0  0  0  0  0  0  0  0  0  0  0  0
    3.2587    1.1775   22.3252 C   0  0  0  0  0  0  0  0  0  0  0  0
    4.0090    2.4379   22.1545 C   0  0  0  0  0  0  0  0  0  0  0  0
    3.6002    3.5505   22.8895 C   0  0  0  0  0  0  0  0  0  0  0  0
    4.2507    4.7563   22.7525 C   0  0  0  0  0  0  0  0  0  0  0  0
    5.3146    4.9279   21.9041 C   0  0  0  0  0  0  0  0  0  0  0  0
    5.7144    3.8229   21.1789 C   0  0  0  0  0  0  0  0  0  0  0  0
    5.0634    2.6085   21.3126 C   0  0  0  0  0  0  0  0  0  0  0  0
    6.0416    6.1758   21.7310 C   0  0  0  0  0  0  0  0  0  0  0  0
    7.1404    6.4750   22.5475 C   0  0  0  0  0  0  0  0  0  0  0  0
    7.8466    7.6425   22.3890 C   0  0  0  0  0  0  0  0  0  0  0  0
    7.5139    8.5714   21.4275 C   0  0  0  0  0  0  0  0  0  0  0  0
    6.4373    8.2921   20.6183 C   0  0  0  0  0  0  0  0  0  0  0  0
    5.7152    7.1045   20.7764 C   0  0  0  0  0  0  0  0  0  0  0  0
    4.5878    6.8640   19.9154 C   0  0  0  0  0  0  0  0  0  0  0  0
    3.6771    6.6930   19.2103 N   0  0  0  0  0  0  0  0  0  0  0  0
 17 18  1  0  0  0
 18 16  1  0  0  0
 16  6  1  0  0  0
  6  7  1  0  0  0
  7  8  1  0  0  0
  8  9  1  0  0  0
  9 10  2  0  0  0
 10 11  1  0  0  0
 11 12  2  0  0  0
 12  1  1  0  0  0
  1  2  2  0  0  0
  2  3  1  0  0  0
  3  4  2  0  0  0
  4 19  1  0  0  0
 19 20  1  0  0  0
 20 21  1  0  0  0
 21 22  2  0  0  0
 22 23  1  0  0  0
 23 24  2  0  0  0
 24 27  1  0  0  0
 27 28  2  0  0  0
 28 29  1  0  0  0
 29 30  2  0  0  0
 30 31  1  0  0  0
 31 32  2  0  0  0
 32 33  1  0  0  0
 33 34  3  0  0  0
 24 25  1  0  0  0
 25 26  2  0  0  0
  4  5  1  0  0  0
 12 13  1  0  0  0
 13 14  2  0  0  0
 14 15  1  0  0  0
 15  6  1  0  0  0
 14  9  1  0  0  0
  5  1  1  0  0  0
 26 21  1  0  0  0
 32 27  1  0  0  0
M  END
> <minimizedAffinity>
-8.78978

> <CNNscore>
0.6516751647

> <CNNaffinity>
6.9830574989

> <CNN_VS>
4.5506849289

> <CNNaffinity_variance>
0.2927428782

$$$$
[H]c1c([H])c([H])c(-c2c([H])c([H])c(C([H])([H])Sc3nnc(-c4c([H])c([H])c5c(c4[H])O[C@@]([H])(C([H])([H])OC([H])([H])[H])C([H])([H])O5)o3)c([H])c2[H])c(C#N)c1[H]


 34 38  0  0  0  0  0  0  0  0999 V2000
    3.5288    1.3019   18.8873 C   0  0  0  0  0  0  0  0  0  0  0  0
    3.0629    0.0630   19.0390 N   0  0  0  0  0  0  0  0  0  0  0  0
    3.0826   -0.2292   20.3212 N   0  0  0  0  0  0  0  0  0  0  0  0
    3.5616    0.8248   20.9871 C   0  0  0  0  0  0  0  0  0  0  0  0
    3.8232    1.7465   20.0564 O   0  0  0  0  0  0  0  0  0  0  0  0
    2.2556    2.7356   13.0755 C   0  0  0  0  0  0  0  0  0  0  0  0
    2.8362    4.1347   13.2221 C   0  0  0  0  0  0  0  0  0  0  0  0
    4.0576    3.9869   13.9719 O   0  0  0  0  0  0  0  0  0  0  0  0
    3.9522    3.3364   15.1885 C   0  0  0  0  0  0  0  0  0  0  0  0
    4.9496    3.4590   16.1607 C   0  0  0  0  0  0  0  0  0  0  0  0
    4.7751    2.7811   17.3496 C   0  0  0  0  0  0  0  0  0  0  0  0
    3.6683    2.0035   17.5991 C   0  0  0  0  0  0  0  0  0  0  0  0
    2.7123    1.8995   16.6388 C   0  0  0  0  0  0  0  0  0  0  0  0
    2.8356    2.5617   15.4198 C   0  0  0  0  0  0  0  0  0  0  0  0
    1.8455    2.4395   14.4561 O   0  0  0  0  0  0  0  0  0  0  0  0
    1.0404    2.6764   12.2172 C   0  0  0  0  0  0  0  0  0  0  0  0
   -0.6020    4.3811   12.3044 C   0  0  0  0  0  0  0  0  0  0  0  0
    0.4608    3.7782   11.7581 O   0  0  0  0  0  0  0  0  0  0  0  0
    3.8086    0.9917   22.7342 S   0  0  0  0  0  0  0  0  0  0  0  0
    5.2105    2.0203   23.1830 C   0  0  0  0  0  0  0  0  0  0  0  0
    5.1430    3.3754   22.5998 C   0  0  0  0  0  0  0  0  0  0  0  0
    4.0153    4.1508   22.8687 C   0  0  0  0  0  0  0  0  0  0  0  0
    3.8909    5.4130   22.3328 C   0  0  0  0  0  0  0  0  0  0  0  0
    4.8481    5.9674   21.5220 C   0  0  0  0  0  0  0  0  0  0  0  0
    5.9620    5.1947   21.2591 C   0  0  0  0  0  0  0  0  0  0  0  0
    6.0916    3.9249   21.7950 C   0  0  0  0  0  0  0  0  0  0  0  0
    4.7697    7.2983   20.9402 C   0  0  0  0  0  0  0  0  0  0  0  0
    5.3264    8.3974   21.6076 C   0  0  0  0  0  0  0  0  0  0  0  0
    5.2733    9.6589   21.0665 C   0  0  0  0  0  0  0  0  0  0  0  0
    4.6753    9.9063   19.8504 C   0  0  0  0  0  0  0  0  0  0  0  0
    4.1239    8.8374   19.1831 C   0  0  0  0  0  0  0  0  0  0  0  0
    4.1756    7.5512   19.7305 C   0  0  0  0  0  0  0  0  0  0  0  0
    3.5717    6.4676   19.0015 C   0  0  0  0  0  0  0  0  0  0  0  0
    3.0692    5.5853   18.4316 N   0  0  0  0  0  0  0  0  0  0  0  0
 17 18  1  0  0  0
 18 16  1  0  0  0
 16  6  1  0  0  0
  6  7  1  0  0  0
  7  8  1  0  0  0
  8  9  1  0  0  0
  9 10  2  0  0  0
 10 11  1  0  0  0
 11 12  2  0  0  0
 12  1  1  0  0  0
  1  2  2  0  0  0
  2  3  1  0  0  0
  3  4  2  0  0  0
  4 19  1  0  0  0
 19 20  1  0  0  0
 20 21  1  0  0  0
 21 22  2  0  0  0
 22 23  1  0  0  0
 23 24  2  0  0  0
 24 27  1  0  0  0
 27 28  2  0  0  0
 28 29  1  0  0  0
 29 30  2  0  0  0
 30 31  1  0  0  0
 31 32  2  0  0  0
 32 33  1  0  0  0
 33 34  3  0  0  0
 24 25  1  0  0  0
 25 26  2  0  0  0
  4  5  1  0  0  0
 12 13  1  0  0  0
 13 14  2  0  0  0
 14 15  1  0  0  0
 15  6  1  0  0  0
 14  9  1  0  0  0
  5  1  1  0  0  0
 26 21  1  0  0  0
 32 27  1  0  0  0
M  END
> <minimizedAffinity>
-8.96836

> <CNNscore>
0.6299128532

> <CNNaffinity>
6.8991861343

> <CNN_VS>
4.3458862305

> <CNNaffinity_variance>
0.3926661909

$$$$
[H]c1c([H])c([H])c(-c2c([H])c([H])c(C([H])([H])Sc3nnc(-c4c([H])c([H])c5c(c4[H])O[C@@]([H])(C([H])([H])OC([H])([H])[H])C([H])([H])O5)o3)c([H])c2[H])c(C#N)c1[H]


 34 38  0  0  0  0  0  0  0  0999 V2000
    3.0436    1.1253   17.4784 C   0  0  0  0  0  0  0  0  0  0  0  0
    2.2911    0.0547   17.7283 N   0  0  0  0  0  0  0  0  0  0  0  0
    2.5683   -0.3679   18.9425 N   0  0  0  0  0  0  0  0  0  0  0  0
    3.4985    0.4344   19.4667 C   0  0  0  0  0  0  0  0  0  0  0  0
    3.7600    1.3425   18.5228 O   0  0  0  0  0  0  0  0  0  0  0  0
    3.3513    6.0732   13.8899 C   0  0  0  0  0  0  0  0  0  0  0  0
    3.8118    5.2583   12.6901 C   0  0  0  0  0  0  0  0  0  0  0  0
    3.0055    4.0642   12.6814 O   0  0  0  0  0  0  0  0  0  0  0  0
    3.0046    3.3197   13.8475 C   0  0  0  0  0  0  0  0  0  0  0  0
    2.5890    1.9846   13.8506 C   0  0  0  0  0  0  0  0  0  0  0  0
    2.6156    1.3058   15.0514 C   0  0  0  0  0  0  0  0  0  0  0  0
    3.0317    1.8956   16.2223 C   0  0  0  0  0  0  0  0  0  0  0  0
    3.4308    3.1944   16.1944 C   0  0  0  0  0  0  0  0  0  0  0  0
    3.4249    3.9283   15.0109 C   0  0  0  0  0  0  0  0  0  0  0  0
    3.8375    5.2526   15.0089 O   0  0  0  0  0  0  0  0  0  0  0  0
    3.9980    7.4105   13.9917 C   0  0  0  0  0  0  0  0  0  0  0  0
    3.5459    9.7313   14.1346 C   0  0  0  0  0  0  0  0  0  0  0  0
    3.3729    8.5148   13.6038 O   0  0  0  0  0  0  0  0  0  0  0  0
    4.2451    0.3372   21.0712 S   0  0  0  0  0  0  0  0  0  0  0  0
    3.5339    1.4571   22.2815 C   0  0  0  0  0  0  0  0  0  0  0  0
    4.0462    2.8371   22.1627 C   0  0  0  0  0  0  0  0  0  0  0  0
    4.8645    3.1428   21.0754 C   0  0  0  0  0  0  0  0  0  0  0  0
    5.3870    4.4081   20.9277 C   0  0  0  0  0  0  0  0  0  0  0  0
    5.1377    5.4178   21.8219 C   0  0  0  0  0  0  0  0  0  0  0  0
    4.3273    5.1089   22.8964 C   0  0  0  0  0  0  0  0  0  0  0  0
    3.7999    3.8381   23.0498 C   0  0  0  0  0  0  0  0  0  0  0  0
    5.6559    6.7719   21.7059 C   0  0  0  0  0  0  0  0  0  0  0  0
    4.8111    7.8241   21.3284 C   0  0  0  0  0  0  0  0  0  0  0  0
    5.2804    9.1112   21.2271 C   0  0  0  0  0  0  0  0  0  0  0  0
    6.5945    9.4309   21.4891 C   0  0  0  0  0  0  0  0  0  0  0  0
    7.4365    8.4087   21.8607 C   0  0  0  0  0  0  0  0  0  0  0  0
    6.9627    7.0967   21.9649 C   0  0  0  0  0  0  0  0  0  0  0  0
    7.8853    6.0592   22.3428 C   0  0  0  0  0  0  0  0  0  0  0  0
    8.6500    5.2315   22.6360 N   0  0  0  0  0  0  0  0  0  0  0  0
 17 18  1  0  0  0
 18 16  1  0  0  0
 16  6  1  0  0  0
  6  7  1  0  0  0
  7  8  1  0  0  0
  8  9  1  0  0  0
  9 10  2  0  0  0
 10 11  1  0  0  0
 11 12  2  0  0  0
 12  1  1  0  0  0
  1  2  2  0  0  0
  2  3  1  0  0  0
  3  4  2  0  0  0
  4 19  1  0  0  0
 19 20  1  0  0  0
 20 21  1  0  0  0
 21 22  2  0  0  0
 22 23  1  0  0  0
 23 24  2  0  0  0
 24 27  1  0  0  0
 27 28  2  0  0  0
 28 29  1  0  0  0
 29 30  2  0  0  0
 30 31  1  0  0  0
 31 32  2  0  0  0
 32 33  1  0  0  0
 33 34  3  0  0  0
 24 25  1  0  0  0
 25 26  2  0  0  0
  4  5  1  0  0  0
 12 13  1  0  0  0
 13 14  2  0  0  0
 14 15  1  0  0  0
 15  6  1  0  0  0
 14  9  1  0  0  0
  5  1  1  0  0  0
 26 21  1  0  0  0
 32 27  1  0  0  0
M  END
> <minimizedAffinity>
-8.90716

> <CNNscore>
0.5771865845

> <CNNaffinity>
6.8167510033

> <CNN_VS>
3.9345371723

> <CNNaffinity_variance>
0.2139364779

$$$$
[H]c1c([H])c([H])c(-c2c([H])c([H])c(C([H])([H])Sc3nnc(-c4c([H])c([H])c5c(c4[H])O[C@@]([H])(C([H])([H])OC([H])([H])[H])C([H])([H])O5)o3)c([H])c2[H])c(C#N)c1[H]


 34 38  0  0  0  0  0  0  0  0999 V2000
    3.1357    0.8566   18.1399 C   0  0  0  0  0  0  0  0  0  0  0  0
    2.6144   -0.3189   17.7917 N   0  0  0  0  0  0  0  0  0  0  0  0
    2.1989   -0.2315   16.5469 N   0  0  0  0  0  0  0  0  0  0  0  0
    2.4558    1.0011   16.1015 C   0  0  0  0  0  0  0  0  0  0  0  0
    3.0357    1.6364   17.1234 O   0  0  0  0  0  0  0  0  0  0  0  0
    6.6815    3.7490   22.2037 C   0  0  0  0  0  0  0  0  0  0  0  0
    5.7377    3.4323   23.3547 C   0  0  0  0  0  0  0  0  0  0  0  0
    5.3324    2.0611   23.1770 O   0  0  0  0  0  0  0  0  0  0  0  0
    4.7818    1.7415   21.9487 C   0  0  0  0  0  0  0  0  0  0  0  0
    4.0190    0.5819   21.7800 C   0  0  0  0  0  0  0  0  0  0  0  0
    3.5019    0.3293   20.5260 C   0  0  0  0  0  0  0  0  0  0  0  0
    3.7127    1.1710   19.4587 C   0  0  0  0  0  0  0  0  0  0  0  0
    4.4577    2.2919   19.6471 C   0  0  0  0  0  0  0  0  0  0  0  0
    5.0042    2.5974   20.8911 C   0  0  0  0  0  0  0  0  0  0  0  0
    5.7607    3.7480   21.0574 O   0  0  0  0  0  0  0  0  0  0  0  0
    7.3006    5.1005   22.2889 C   0  0  0  0  0  0  0  0  0  0  0  0
    7.0914    7.3392   23.0340 C   0  0  0  0  0  0  0  0  0  0  0  0
    6.5885    6.1702   22.6192 O   0  0  0  0  0  0  0  0  0  0  0  0
    2.1109    1.6768   14.4998 S   0  0  0  0  0  0  0  0  0  0  0  0
    3.2380    2.9802   13.9940 C   0  0  0  0  0  0  0  0  0  0  0  0
    3.4946    3.9683   15.0611 C   0  0  0  0  0  0  0  0  0  0  0  0
    2.4942    4.8955   15.3522 C   0  0  0  0  0  0  0  0  0  0  0  0
    2.6892    5.8525   16.3227 C   0  0  0  0  0  0  0  0  0  0  0  0
    3.8527    5.9461   17.0428 C   0  0  0  0  0  0  0  0  0  0  0  0
    4.8395    5.0257   16.7498 C   0  0  0  0  0  0  0  0  0  0  0  0
    4.6487    4.0618   15.7745 C   0  0  0  0  0  0  0  0  0  0  0  0
    4.1042    6.9301   18.0841 C   0  0  0  0  0  0  0  0  0  0  0  0
    4.2608    6.5272   19.4170 C   0  0  0  0  0  0  0  0  0  0  0  0
    4.5122    7.4414   20.4110 C   0  0  0  0  0  0  0  0  0  0  0  0
    4.6222    8.7897   20.1509 C   0  0  0  0  0  0  0  0  0  0  0  0
    4.4706    9.2009   18.8472 C   0  0  0  0  0  0  0  0  0  0  0  0
    4.2144    8.2734   17.8319 C   0  0  0  0  0  0  0  0  0  0  0  0
    4.0488    8.7538   16.4858 C   0  0  0  0  0  0  0  0  0  0  0  0
    3.9389    9.1497   15.3963 N   0  0  0  0  0  0  0  0  0  0  0  0
 17 18  1  0  0  0
 18 16  1  0  0  0
 16  6  1  0  0  0
  6  7  1  0  0  0
  7  8  1  0  0  0
  8  9  1  0  0  0
  9 10  2  0  0  0
 10 11  1  0  0  0
 11 12  2  0  0  0
 12  1  1  0  0  0
  1  2  2  0  0  0
  2  3  1  0  0  0
  3  4  2  0  0  0
  4 19  1  0  0  0
 19 20  1  0  0  0
 20 21  1  0  0  0
 21 22  2  0  0  0
 22 23  1  0  0  0
 23 24  2  0  0  0
 24 27  1  0  0  0
 27 28  2  0  0  0
 28 29  1  0  0  0
 29 30  2  0  0  0
 30 31  1  0  0  0
 31 32  2  0  0  0
 32 33  1  0  0  0
 33 34  3  0  0  0
 24 25  1  0  0  0
 25 26  2  0  0  0
  4  5  1  0  0  0
 12 13  1  0  0  0
 13 14  2  0  0  0
 14 15  1  0  0  0
 15  6  1  0  0  0
 14  9  1  0  0  0
  5  1  1  0  0  0
 26 21  1  0  0  0
 32 27  1  0  0  0
M  END
> <minimizedAffinity>
-8.00426

> <CNNscore>
0.5511087775

> <CNNaffinity>
6.9227194786

> <CNN_VS>
3.8151714802

> <CNNaffinity_variance>
0.2230184525

$$$$
[H]c1c([H])c([H])c(-c2c([H])c([H])c(C([H])([H])Sc3nnc(-c4c([H])c([H])c5c(c4[H])O[C@@]([H])(C([H])([H])OC([H])([H])[H])C([H])([H])O5)o3)c([H])c2[H])c(C#N)c1[H]


 34 38  0  0  0  0  0  0  0  0999 V2000
    3.3510    1.7012   16.9714 C   0  0  0  0  0  0  0  0  0  0  0  0
    2.5512    0.6852   17.2919 N   0  0  0  0  0  0  0  0  0  0  0  0
    2.8522    0.2941   18.5110 N   0  0  0  0  0  0  0  0  0  0  0  0
    3.8449    1.0619   18.9677 C   0  0  0  0  0  0  0  0  0  0  0  0
    4.1187    1.9172   17.9790 O   0  0  0  0  0  0  0  0  0  0  0  0
    2.8847    2.4249   10.9123 C   0  0  0  0  0  0  0  0  0  0  0  0
    2.4353    3.8722   11.0513 C   0  0  0  0  0  0  0  0  0  0  0  0
    3.2722    4.4575   12.0677 O   0  0  0  0  0  0  0  0  0  0  0  0
    3.3024    3.8020   13.2857 C   0  0  0  0  0  0  0  0  0  0  0  0
    3.7524    4.4478   14.4414 C   0  0  0  0  0  0  0  0  0  0  0  0
    3.7536    3.7302   15.6197 C   0  0  0  0  0  0  0  0  0  0  0  0
    3.3323    2.4225   15.6866 C   0  0  0  0  0  0  0  0  0  0  0  0
    2.8994    1.8160   14.5501 C   0  0  0  0  0  0  0  0  0  0  0  0
    2.8762    2.4918   13.3326 C   0  0  0  0  0  0  0  0  0  0  0  0
    2.4295    1.8503   12.1869 O   0  0  0  0  0  0  0  0  0  0  0  0
    2.2044    1.6877    9.8120 C   0  0  0  0  0  0  0  0  0  0  0  0
    0.6854   -0.0971    9.4682 C   0  0  0  0  0  0  0  0  0  0  0  0
    1.8152    0.4276    9.9580 O   0  0  0  0  0  0  0  0  0  0  0  0
    4.6474    0.9839   20.5460 S   0  0  0  0  0  0  0  0  0  0  0  0
    3.9894    2.1297   21.7622 C   0  0  0  0  0  0  0  0  0  0  0  0
    4.7802    3.3720   21.8726 C   0  0  0  0  0  0  0  0  0  0  0  0
    4.1041    4.5898   21.7995 C   0  0  0  0  0  0  0  0  0  0  0  0
    4.7950    5.7784   21.8750 C   0  0  0  0  0  0  0  0  0  0  0  0
    6.1574    5.8313   22.0234 C   0  0  0  0  0  0  0  0  0  0  0  0
    6.8211    4.6225   22.0947 C   0  0  0  0  0  0  0  0  0  0  0  0
    6.1313    3.4246   22.0188 C   0  0  0  0  0  0  0  0  0  0  0  0
    6.9321    7.0587   22.1188 C   0  0  0  0  0  0  0  0  0  0  0  0
    7.1112    7.6892   23.3573 C   0  0  0  0  0  0  0  0  0  0  0  0
    7.8509    8.8415   23.4678 C   0  0  0  0  0  0  0  0  0  0  0  0
    8.4495    9.4313   22.3763 C   0  0  0  0  0  0  0  0  0  0  0  0
    8.2826    8.8243   21.1534 C   0  0  0  0  0  0  0  0  0  0  0  0
    7.5300    7.6510   21.0362 C   0  0  0  0  0  0  0  0  0  0  0  0
    7.3718    7.0614   19.7334 C   0  0  0  0  0  0  0  0  0  0  0  0
    7.2320    6.6049   18.6713 N   0  0  0  0  0  0  0  0  0  0  0  0
 17 18  1  0  0  0
 18 16  1  0  0  0
 16  6  1  0  0  0
  6  7  1  0  0  0
  7  8  1  0  0  0
  8  9  1  0  0  0
  9 10  2  0  0  0
 10 11  1  0  0  0
 11 12  2  0  0  0
 12  1  1  0  0  0
  1  2  2  0  0  0
  2  3  1  0  0  0
  3  4  2  0  0  0
  4 19  1  0  0  0
 19 20  1  0  0  0
 20 21  1  0  0  0
 21 22  2  0  0  0
 22 23  1  0  0  0
 23 24  2  0  0  0
 24 27  1  0  0  0
 27 28  2  0  0  0
 28 29  1  0  0  0
 29 30  2  0  0  0
 30 31  1  0  0  0
 31 32  2  0  0  0
 32 33  1  0  0  0
 33 34  3  0  0  0
 24 25  1  0  0  0
 25 26  2  0  0  0
  4  5  1  0  0  0
 12 13  1  0  0  0
 13 14  2  0  0  0
 14 15  1  0  0  0
 15  6  1  0  0  0
 14  9  1  0  0  0
  5  1  1  0  0  0
 26 21  1  0  0  0
 32 27  1  0  0  0
M  END
> <minimizedAffinity>
-7.78384

> <CNNscore>
0.4770306945

> <CNNaffinity>
6.5100188255

> <CNN_VS>
3.1054787636

> <CNNaffinity_variance>
0.4166802466

$$$$
[H]c1c([H])c([H])c(-c2c([H])c([H])c(C([H])([H])Sc3nnc(-c4c([H])c([H])c5c(c4[H])O[C@@]([H])(C([H])([H])OC([H])([H])[H])C([H])([H])O5)o3)c([H])c2[H])c(C#N)c1[H]


 34 38  0  0  0  0  0  0  0  0999 V2000
    3.6990    2.5725   16.0482 C   0  0  0  0  0  0  0  0  0  0  0  0
    3.0875    1.6718   15.2804 N   0  0  0  0  0  0  0  0  0  0  0  0
    3.0837    2.1206   14.0441 N   0  0  0  0  0  0  0  0  0  0  0  0
    3.6936    3.3086   14.0243 C   0  0  0  0  0  0  0  0  0  0  0  0
    4.0564    3.5449   15.2879 O   0  0  0  0  0  0  0  0  0  0  0  0
    5.4125    4.2720   21.6721 C   0  0  0  0  0  0  0  0  0  0  0  0
    4.4233    3.3238   22.3339 C   0  0  0  0  0  0  0  0  0  0  0  0
    4.4953    2.0882   21.5962 O   0  0  0  0  0  0  0  0  0  0  0  0
    4.2951    2.1801   20.2304 C   0  0  0  0  0  0  0  0  0  0  0  0
    3.9663    1.0522   19.4721 C   0  0  0  0  0  0  0  0  0  0  0  0
    3.7815    1.2213   18.1154 C   0  0  0  0  0  0  0  0  0  0  0  0
    3.9096    2.4453   17.5010 C   0  0  0  0  0  0  0  0  0  0  0  0
    4.2300    3.5270   18.2588 C   0  0  0  0  0  0  0  0  0  0  0  0
    4.4279    3.4153   19.6328 C   0  0  0  0  0  0  0  0  0  0  0  0
    4.7539    4.5347   20.3841 O   0  0  0  0  0  0  0  0  0  0  0  0
    5.5629    5.5733   22.3801 C   0  0  0  0  0  0  0  0  0  0  0  0
    6.9807    7.3590   23.0220 C   0  0  0  0  0  0  0  0  0  0  0  0
    6.6629    6.3055   22.2599 O   0  0  0  0  0  0  0  0  0  0  0  0
    3.9748    4.3680   12.6315 S   0  0  0  0  0  0  0  0  0  0  0  0
    2.9971    3.9530   11.1836 C   0  0  0  0  0  0  0  0  0  0  0  0
    1.5833    4.3619   11.3045 C   0  0  0  0  0  0  0  0  0  0  0  0
    1.2058    5.5898   10.7612 C   0  0  0  0  0  0  0  0  0  0  0  0
   -0.0948    6.0297   10.8647 C   0  0  0  0  0  0  0  0  0  0  0  0
   -1.0718    5.3012   11.4940 C   0  0  0  0  0  0  0  0  0  0  0  0
   -0.6918    4.0868   12.0302 C   0  0  0  0  0  0  0  0  0  0  0  0
    0.6146    3.6401   11.9293 C   0  0  0  0  0  0  0  0  0  0  0  0
   -2.4603    5.7156   11.6209 C   0  0  0  0  0  0  0  0  0  0  0  0
   -3.3783    5.4401   10.5988 C   0  0  0  0  0  0  0  0  0  0  0  0
   -4.6962    5.8122   10.7078 C   0  0  0  0  0  0  0  0  0  0  0  0
   -5.1789    6.4696   11.8180 C   0  0  0  0  0  0  0  0  0  0  0  0
   -4.2897    6.7474   12.8299 C   0  0  0  0  0  0  0  0  0  0  0  0
   -2.9469    6.3705   12.7230 C   0  0  0  0  0  0  0  0  0  0  0  0
   -2.0520    6.6964   13.8015 C   0  0  0  0  0  0  0  0  0  0  0  0
   -1.3089    6.9606   14.6580 N   0  0  0  0  0  0  0  0  0  0  0  0
 17 18  1  0  0  0
 18 16  1  0  0  0
 16  6  1  0  0  0
  6  7  1  0  0  0
  7  8  1  0  0  0
  8  9  1  0  0  0
  9 10  2  0  0  0
 10 11  1  0  0  0
 11 12  2  0  0  0
 12  1  1  0  0  0
  1  2  2  0  0  0
  2  3  1  0  0  0
  3  4  2  0  0  0
  4 19  1  0  0  0
 19 20  1  0  0  0
 20 21  1  0  0  0
 21 22  2  0  0  0
 22 23  1  0  0  0
 23 24  2  0  0  0
 24 27  1  0  0  0
 27 28  2  0  0  0
 28 29  1  0  0  0
 29 30  2  0  0  0
 30 31  1  0  0  0
 31 32  2  0  0  0
 32 33  1  0  0  0
 33 34  3  0  0  0
 24 25  1  0  0  0
 25 26  2  0  0  0
  4  5  1  0  0  0
 12 13  1  0  0  0
 13 14  2  0  0  0
 14 15  1  0  0  0
 15  6  1  0  0  0
 14  9  1  0  0  0
  5  1  1  0  0  0
 26 21  1  0  0  0
 32 27  1  0  0  0
M  END
> <minimizedAffinity>
-8.10707

> <CNNscore>
0.3821628392

> <CNNaffinity>
6.1382017136

> <CNN_VS>
2.3457925320

> <CNNaffinity_variance>
0.2697783411

$$$$
[H]c1c([H])c([H])c(C2([H])C([H])([H])[C@]2([H])N([H])C([H])([H])c2c([H])c([H])c(OC([H])([H])[H])c3c([H])c([H])c([H])c([H])c23)c([H])c1[H]


 24 27  0  0  0  0  0  0  0  0999 V2000
    3.2995    1.0080   17.2733 C   0  0  0  0  0  0  0  0  0  0  0  0
    4.1026    1.3909   18.3184 C   0  0  0  0  0  0  0  0  0  0  0  0
    4.8716    2.5455   18.2745 C   0  0  0  0  0  0  0  0  0  0  0  0
    4.8543    3.3579   17.1630 C   0  0  0  0  0  0  0  0  0  0  0  0
    4.0399    2.9756   16.0953 C   0  0  0  0  0  0  0  0  0  0  0  0
    4.0293    3.7965   14.9864 C   0  0  0  0  0  0  0  0  0  0  0  0
    3.2161    3.4033   13.9356 C   0  0  0  0  0  0  0  0  0  0  0  0
    2.4549    2.2621   13.9773 C   0  0  0  0  0  0  0  0  0  0  0  0
    2.4755    1.4518   15.0915 C   0  0  0  0  0  0  0  0  0  0  0  0
    3.2886    1.8289   16.1633 C   0  0  0  0  0  0  0  0  0  0  0  0
    1.9555   -0.5763   18.5528 C   0  0  0  0  0  0  0  0  0  0  0  0
    2.5271   -0.1575   17.3251 O   0  0  0  0  0  0  0  0  0  0  0  0
    5.6582    4.6069   17.0839 C   0  0  0  0  0  0  0  0  0  0  0  0
    5.0529    5.6054   17.9090 N   0  0  0  0  0  0  0  0  0  0  0  0
    4.0403    5.7691   17.6826 H   0  0  0  0  0  0  0  0  0  0  0  0
    5.2612    5.4084   19.3175 C   0  0  0  0  0  0  0  0  0  0  0  0
    4.9012    6.6415   20.1544 C   0  0  0  0  0  0  0  0  0  0  0  0
    4.1693    5.3605   20.3035 C   0  0  0  0  0  0  0  0  0  0  0  0
    4.3929    4.5383   21.5159 C   0  0  0  0  0  0  0  0  0  0  0  0
    3.6046    4.6036   22.6414 C   0  0  0  0  0  0  0  0  0  0  0  0
    3.8316    3.8338   23.7484 C   0  0  0  0  0  0  0  0  0  0  0  0
    4.8764    2.9534   23.7696 C   0  0  0  0  0  0  0  0  0  0  0  0
    5.6851    2.8645   22.6570 C   0  0  0  0  0  0  0  0  0  0  0  0
    5.4418    3.6503   21.5449 C   0  0  0  0  0  0  0  0  0  0  0  0
 11 12  1  0  0  0
 12  1  1  0  0  0
  1  2  2  0  0  0
  2  3  1  0  0  0
  3  4  2  0  0  0
  4 13  1  0  0  0
 13 14  1  0  0  0
 14 16  1  0  0  0
 16 17  1  0  0  0
 17 18  1  0  0  0
 18 19  1  0  0  0
 19 20  2  0  0  0
 20 21  1  0  0  0
 21 22  2  0  0  0
 22 23  1  0  0  0
 23 24  2  0  0  0
  4  5  1  0  0  0
  5  6  2  0  0  0
  6  7  1  0  0  0
  7  8  2  0  0  0
  8  9  1  0  0  0
  9 10  2  0  0  0
 10  1  1  0  0  0
 18 16  1  0  0  0
 24 19  1  0  0  0
 10  5  1  0  0  0
 14 15  1  0  0  0
M  END
> <minimizedAffinity>
-8.19147

> <CNNscore>
0.5496467948

> <CNNaffinity>
5.7323584557

> <CNN_VS>
3.1507723331

> <CNNaffinity_variance>
0.4370745122

$$$$
[H]c1c([H])c([H])c(C2([H])C([H])([H])[C@]2([H])N([H])C([H])([H])c2c([H])c([H])c(OC([H])([H])[H])c3c([H])c([H])c([H])c([H])c23)c([H])c1[H]


 24 27  0  0  0  0  0  0  0  0999 V2000
    3.6335    2.2949   17.6412 C   0  0  0  0  0  0  0  0  0  0  0  0
    3.1178    3.4499   17.1084 C   0  0  0  0  0  0  0  0  0  0  0  0
    3.1595    4.6595   17.7876 C   0  0  0  0  0  0  0  0  0  0  0  0
    3.7282    4.7422   19.0387 C   0  0  0  0  0  0  0  0  0  0  0  0
    4.2553    3.5718   19.5880 C   0  0  0  0  0  0  0  0  0  0  0  0
    4.8233    3.6652   20.8419 C   0  0  0  0  0  0  0  0  0  0  0  0
    5.3417    2.4951   21.3729 C   0  0  0  0  0  0  0  0  0  0  0  0
    5.3017    1.2981   20.7028 C   0  0  0  0  0  0  0  0  0  0  0  0
    4.7312    1.2198   19.4510 C   0  0  0  0  0  0  0  0  0  0  0  0
    4.2019    2.3877   18.8959 C   0  0  0  0  0  0  0  0  0  0  0  0
    2.7257    0.9283   15.8352 C   0  0  0  0  0  0  0  0  0  0  0  0
    3.5878    1.0791   16.9502 O   0  0  0  0  0  0  0  0  0  0  0  0
    3.7985    6.0227   19.7923 C   0  0  0  0  0  0  0  0  0  0  0  0
    4.5401    6.9756   19.0267 N   0  0  0  0  0  0  0  0  0  0  0  0
    4.1327    7.9429   19.0660 H   0  0  0  0  0  0  0  0  0  0  0  0
    5.9513    6.9778   19.2999 C   0  0  0  0  0  0  0  0  0  0  0  0
    6.8005    7.2900   18.0622 C   0  0  0  0  0  0  0  0  0  0  0  0
    6.7899    8.1862   19.2435 C   0  0  0  0  0  0  0  0  0  0  0  0
    7.9759    8.2243   20.1312 C   0  0  0  0  0  0  0  0  0  0  0  0
    8.8266    7.1596   20.3185 C   0  0  0  0  0  0  0  0  0  0  0  0
    9.9153    7.2197   21.1436 C   0  0  0  0  0  0  0  0  0  0  0  0
   10.1976    8.3703   21.8246 C   0  0  0  0  0  0  0  0  0  0  0  0
    9.3640    9.4553   21.6581 C   0  0  0  0  0  0  0  0  0  0  0  0
    8.2665    9.3782   20.8195 C   0  0  0  0  0  0  0  0  0  0  0  0
 11 12  1  0  0  0
 12  1  1  0  0  0
  1  2  2  0  0  0
  2  3  1  0  0  0
  3  4  2  0  0  0
  4 13  1  0  0  0
 13 14  1  0  0  0
 14 16  1  0  0  0
 16 17  1  0  0  0
 17 18  1  0  0  0
 18 19  1  0  0  0
 19 20  2  0  0  0
 20 21  1  0  0  0
 21 22  2  0  0  0
 22 23  1  0  0  0
 23 24  2  0  0  0
  4  5  1  0  0  0
  5  6  2  0  0  0
  6  7  1  0  0  0
  7  8  2  0  0  0
  8  9  1  0  0  0
  9 10  2  0  0  0
 10  1  1  0  0  0
 18 16  1  0  0  0
 24 19  1  0  0  0
 10  5  1  0  0  0
 14 15  1  0  0  0
M  END
> <minimizedAffinity>
-6.29039

> <CNNscore>
0.5454534292

> <CNNaffinity>
5.3353109360

> <CNN_VS>
2.9101636410

> <CNNaffinity_variance>
0.3026992977

$$$$
[H]c1c([H])c([H])c(C2([H])C([H])([H])[C@]2([H])N([H])C([H])([H])c2c([H])c([H])c(OC([H])([H])[H])c3c([H])c([H])c([H])c([H])c23)c([H])c1[H]


 24 27  0  0  0  0  0  0  0  0999 V2000
    4.0984    1.7907   20.8665 C   0  0  0  0  0  0  0  0  0  0  0  0
    4.8581    2.9336   20.8422 C   0  0  0  0  0  0  0  0  0  0  0  0
    5.2340    3.5455   19.6546 C   0  0  0  0  0  0  0  0  0  0  0  0
    4.8514    3.0176   18.4419 C   0  0  0  0  0  0  0  0  0  0  0  0
    4.0784    1.8551   18.4576 C   0  0  0  0  0  0  0  0  0  0  0  0
    3.6999    1.3342   17.2373 C   0  0  0  0  0  0  0  0  0  0  0  0
    2.9331    0.1806   17.2702 C   0  0  0  0  0  0  0  0  0  0  0  0
    2.5603   -0.4258   18.4435 C   0  0  0  0  0  0  0  0  0  0  0  0
    2.9456    0.1057   19.6549 C   0  0  0  0  0  0  0  0  0  0  0  0
    3.7195    1.2690   19.6458 C   0  0  0  0  0  0  0  0  0  0  0  0
    4.2017    1.6871   23.3021 C   0  0  0  0  0  0  0  0  0  0  0  0
    3.7233    1.1797   22.0680 O   0  0  0  0  0  0  0  0  0  0  0  0
    5.2282    3.6508   17.1497 C   0  0  0  0  0  0  0  0  0  0  0  0
    4.3280    4.7275   16.8767 N   0  0  0  0  0  0  0  0  0  0  0  0
    4.8099    5.6571   16.7948 H   0  0  0  0  0  0  0  0  0  0  0  0
    3.4410    4.4853   15.7718 C   0  0  0  0  0  0  0  0  0  0  0  0
    3.5365    5.5582   14.6808 C   0  0  0  0  0  0  0  0  0  0  0  0
    3.9028    4.1459   14.4160 C   0  0  0  0  0  0  0  0  0  0  0  0
    3.0021    3.3098   13.5879 C   0  0  0  0  0  0  0  0  0  0  0  0
    2.0325    2.4833   14.1067 C   0  0  0  0  0  0  0  0  0  0  0  0
    1.2132    1.7210   13.3210 C   0  0  0  0  0  0  0  0  0  0  0  0
    1.3369    1.7592   11.9607 C   0  0  0  0  0  0  0  0  0  0  0  0
    2.2993    2.5778   11.4098 C   0  0  0  0  0  0  0  0  0  0  0  0
    3.1203    3.3428   12.2187 C   0  0  0  0  0  0  0  0  0  0  0  0
 11 12  1  0  0  0
 12  1  1  0  0  0
  1  2  2  0  0  0
  2  3  1  0  0  0
  3  4  2  0  0  0
  4 13  1  0  0  0
 13 14  1  0  0  0
 14 16  1  0  0  0
 16 17  1  0  0  0
 17 18  1  0  0  0
 18 19  1  0  0  0
 19 20  2  0  0  0
 20 21  1  0  0  0
 21 22  2  0  0  0
 22 23  1  0  0  0
 23 24  2  0  0  0
  4  5  1  0  0  0
  5  6  2  0  0  0
  6  7  1  0  0  0
  7  8  2  0  0  0
  8  9  1  0  0  0
  9 10  2  0  0  0
 10  1  1  0  0  0
 18 16  1  0  0  0
 24 19  1  0  0  0
 10  5  1  0  0  0
 14 15  1  0  0  0
M  END
> <minimizedAffinity>
-7.38262

> <CNNscore>
0.5257236362

> <CNNaffinity>
5.6859507561

> <CNN_VS>
2.9892387390

> <CNNaffinity_variance>
0.1430794597

$$$$
[H]c1c([H])c([H])c(C2([H])C([H])([H])[C@]2([H])N([H])C([H])([H])c2c([H])c([H])c(OC([H])([H])[H])c3c([H])c([H])c([H])c([H])c23)c([H])c1[H]


 24 27  0  0  0  0  0  0  0  0999 V2000
    2.5153    2.6246   14.7178 C   0  0  0  0  0  0  0  0  0  0  0  0
    3.0955    3.8220   14.3808 C   0  0  0  0  0  0  0  0  0  0  0  0
    4.1016    4.3963   15.1451 C   0  0  0  0  0  0  0  0  0  0  0  0
    4.5582    3.7741   16.2853 C   0  0  0  0  0  0  0  0  0  0  0  0
    3.9734    2.5555   16.6353 C   0  0  0  0  0  0  0  0  0  0  0  0
    4.4380    1.9399   17.7793 C   0  0  0  0  0  0  0  0  0  0  0  0
    3.8476    0.7316   18.1128 C   0  0  0  0  0  0  0  0  0  0  0  0
    2.8527    0.1620   17.3582 C   0  0  0  0  0  0  0  0  0  0  0  0
    2.3986    0.7883   16.2180 C   0  0  0  0  0  0  0  0  0  0  0  0
    2.9798    2.0081   15.8625 C   0  0  0  0  0  0  0  0  0  0  0  0
    1.6222    2.0163   12.5302 C   0  0  0  0  0  0  0  0  0  0  0  0
    1.5015    2.0519   13.9421 O   0  0  0  0  0  0  0  0  0  0  0  0
    5.6405    4.3553   17.1240 C   0  0  0  0  0  0  0  0  0  0  0  0
    5.1393    5.5124   17.7978 N   0  0  0  0  0  0  0  0  0  0  0  0
    4.2163    5.8421   17.4201 H   0  0  0  0  0  0  0  0  0  0  0  0
    5.1202    5.3953   19.2303 C   0  0  0  0  0  0  0  0  0  0  0  0
    4.1927    6.4145   19.9022 C   0  0  0  0  0  0  0  0  0  0  0  0
    3.9422    4.9560   19.9959 C   0  0  0  0  0  0  0  0  0  0  0  0
    4.1951    4.2613   21.2802 C   0  0  0  0  0  0  0  0  0  0  0  0
    3.6664    4.6629   22.4850 C   0  0  0  0  0  0  0  0  0  0  0  0
    3.9148    4.0045   23.6574 C   0  0  0  0  0  0  0  0  0  0  0  0
    4.7171    2.8984   23.6666 C   0  0  0  0  0  0  0  0  0  0  0  0
    5.2622    2.4705   22.4752 C   0  0  0  0  0  0  0  0  0  0  0  0
    5.0011    3.1478   21.2976 C   0  0  0  0  0  0  0  0  0  0  0  0
 11 12  1  0  0  0
 12  1  1  0  0  0
  1  2  2  0  0  0
  2  3  1  0  0  0
  3  4  2  0  0  0
  4 13  1  0  0  0
 13 14  1  0  0  0
 14 16  1  0  0  0
 16 17  1  0  0  0
 17 18  1  0  0  0
 18 19  1  0  0  0
 19 20  2  0  0  0
 20 21  1  0  0  0
 21 22  2  0  0  0
 22 23  1  0  0  0
 23 24  2  0  0  0
  4  5  1  0  0  0
  5  6  2  0  0  0
  6  7  1  0  0  0
  7  8  2  0  0  0
  8  9  1  0  0  0
  9 10  2  0  0  0
 10  1  1  0  0  0
 18 16  1  0  0  0
 24 19  1  0  0  0
 10  5  1  0  0  0
 14 15  1  0  0  0
M  END
> <minimizedAffinity>
-7.84468

> <CNNscore>
0.4858832359

> <CNNaffinity>
5.6540842056

> <CNN_VS>
2.7472248077

> <CNNaffinity_variance>
0.3592935801

$$$$
[H]c1c([H])c([H])c(C2([H])C([H])([H])[C@]2([H])N([H])C([H])([H])c2c([H])c([H])c(OC([H])([H])[H])c3c([H])c([H])c([H])c([H])c23)c([H])c1[H]


 24 27  0  0  0  0  0  0  0  0999 V2000
    4.2353    1.4676   20.8338 C   0  0  0  0  0  0  0  0  0  0  0  0
    4.5665    1.5051   19.5023 C   0  0  0  0  0  0  0  0  0  0  0  0
    4.8932    2.6888   18.8555 C   0  0  0  0  0  0  0  0  0  0  0  0
    4.8956    3.8840   19.5389 C   0  0  0  0  0  0  0  0  0  0  0  0
    4.5599    3.8548   20.8939 C   0  0  0  0  0  0  0  0  0  0  0  0
    4.5656    5.0575   21.5699 C   0  0  0  0  0  0  0  0  0  0  0  0
    4.2303    5.0115   22.9135 C   0  0  0  0  0  0  0  0  0  0  0  0
    3.9072    3.8420   23.5549 C   0  0  0  0  0  0  0  0  0  0  0  0
    3.9057    2.6481   22.8670 C   0  0  0  0  0  0  0  0  0  0  0  0
    4.2407    2.6709   21.5107 C   0  0  0  0  0  0  0  0  0  0  0  0
    3.0164   -0.6458   20.8652 C   0  0  0  0  0  0  0  0  0  0  0  0
    3.9072    0.2702   21.4789 O   0  0  0  0  0  0  0  0  0  0  0  0
    5.2488    5.1704   18.8810 C   0  0  0  0  0  0  0  0  0  0  0  0
    4.0482    5.8365   18.4821 N   0  0  0  0  0  0  0  0  0  0  0  0
    4.1325    6.8833   18.4983 H   0  0  0  0  0  0  0  0  0  0  0  0
    3.4988    5.3630   17.2410 C   0  0  0  0  0  0  0  0  0  0  0  0
    3.7050    6.3448   16.0816 C   0  0  0  0  0  0  0  0  0  0  0  0
    4.3188    4.9950   16.0753 C   0  0  0  0  0  0  0  0  0  0  0  0
    3.7723    3.9579   15.1686 C   0  0  0  0  0  0  0  0  0  0  0  0
    3.4504    2.6822   15.5703 C   0  0  0  0  0  0  0  0  0  0  0  0
    2.9472    1.7426   14.7139 C   0  0  0  0  0  0  0  0  0  0  0  0
    2.7438    2.0518   13.3985 C   0  0  0  0  0  0  0  0  0  0  0  0
    3.0565    3.3221   12.9648 C   0  0  0  0  0  0  0  0  0  0  0  0
    3.5648    4.2613   13.8440 C   0  0  0  0  0  0  0  0  0  0  0  0
 11 12  1  0  0  0
 12  1  1  0  0  0
  1  2  2  0  0  0
  2  3  1  0  0  0
  3  4  2  0  0  0
  4 13  1  0  0  0
 13 14  1  0  0  0
 14 16  1  0  0  0
 16 17  1  0  0  0
 17 18  1  0  0  0
 18 19  1  0  0  0
 19 20  2  0  0  0
 20 21  1  0  0  0
 21 22  2  0  0  0
 22 23  1  0  0  0
 23 24  2  0  0  0
  4  5  1  0  0  0
  5  6  2  0  0  0
  6  7  1  0  0  0
  7  8  2  0  0  0
  8  9  1  0  0  0
  9 10  2  0  0  0
 10  1  1  0  0  0
 18 16  1  0  0  0
 24 19  1  0  0  0
 10  5  1  0  0  0
 14 15  1  0  0  0
M  END
> <minimizedAffinity>
-7.75132

> <CNNscore>
0.4591725171

> <CNNaffinity>
5.6174988747

> <CNN_VS>
2.5794010162

> <CNNaffinity_variance>
0.3510953486

$$$$
[H]c1c([H])c([H])c(C2([H])C([H])([H])[C@]2([H])N([H])C([H])([H])c2c([H])c([H])c(OC([H])([H])[H])c3c([H])c([H])c([H])c([H])c23)c([H])c1[H]


 24 27  0  0  0  0  0  0  0  0999 V2000
    4.8039    2.8389   18.8930 C   0  0  0  0  0  0  0  0  0  0  0  0
    4.9367    3.4144   17.6541 C   0  0  0  0  0  0  0  0  0  0  0  0
    4.3110    2.8969   16.5284 C   0  0  0  0  0  0  0  0  0  0  0  0
    3.5241    1.7708   16.6187 C   0  0  0  0  0  0  0  0  0  0  0  0
    3.3837    1.1791   17.8755 C   0  0  0  0  0  0  0  0  0  0  0  0
    2.5930    0.0513   17.9555 C   0  0  0  0  0  0  0  0  0  0  0  0
    2.4638   -0.5238   19.2095 C   0  0  0  0  0  0  0  0  0  0  0  0
    3.0815   -0.0135   20.3237 C   0  0  0  0  0  0  0  0  0  0  0  0
    3.8684    1.1136   20.2288 C   0  0  0  0  0  0  0  0  0  0  0  0
    4.0129    1.7103   18.9737 C   0  0  0  0  0  0  0  0  0  0  0  0
    5.3873    4.7596   20.2800 C   0  0  0  0  0  0  0  0  0  0  0  0
    5.4379    3.3665   20.0232 O   0  0  0  0  0  0  0  0  0  0  0  0
    2.8314    1.1933   15.4358 C   0  0  0  0  0  0  0  0  0  0  0  0
    2.0779    2.2209   14.7875 N   0  0  0  0  0  0  0  0  0  0  0  0
    2.0600    3.1219   15.3271 H   0  0  0  0  0  0  0  0  0  0  0  0
    2.4329    2.4290   13.4102 C   0  0  0  0  0  0  0  0  0  0  0  0
    1.3877    3.2434   12.6388 C   0  0  0  0  0  0  0  0  0  0  0  0
    2.7671    3.7466   12.8455 C   0  0  0  0  0  0  0  0  0  0  0  0
    3.7065    3.7690   11.6995 C   0  0  0  0  0  0  0  0  0  0  0  0
    3.5159    3.0550   10.5392 C   0  0  0  0  0  0  0  0  0  0  0  0
    4.3980    3.0924    9.4952 C   0  0  0  0  0  0  0  0  0  0  0  0
    5.5250    3.8608    9.5761 C   0  0  0  0  0  0  0  0  0  0  0  0
    5.7447    4.5883   10.7260 C   0  0  0  0  0  0  0  0  0  0  0  0
    4.8424    4.5396   11.7733 C   0  0  0  0  0  0  0  0  0  0  0  0
 11 12  1  0  0  0
 12  1  1  0  0  0
  1  2  2  0  0  0
  2  3  1  0  0  0
  3  4  2  0  0  0
  4 13  1  0  0  0
 13 14  1  0  0  0
 14 16  1  0  0  0
 16 17  1  0  0  0
 17 18  1  0  0  0
 18 19  1  0  0  0
 19 20  2  0  0  0
 20 21  1  0  0  0
 21 22  2  0  0  0
 22 23  1  0  0  0
 23 24  2  0  0  0
  4  5  1  0  0  0
  5  6  2  0  0  0
  6  7  1  0  0  0
  7  8  2  0  0  0
  8  9  1  0  0  0
  9 10  2  0  0  0
 10  1  1  0  0  0
 18 16  1  0  0  0
 24 19  1  0  0  0
 10  5  1  0  0  0
 14 15  1  0  0  0
M  END
> <minimizedAffinity>
-6.81557

> <CNNscore>
0.4574066997

> <CNNaffinity>
5.4748759270

> <CNN_VS>
2.5042450428

> <CNNaffinity_variance>
0.1570649594

$$$$
[H]c1c([H])c([H])c(C2([H])C([H])([H])[C@]2([H])N([H])C([H])([H])c2c([H])c([H])c(OC([H])([H])[H])c3c([H])c([H])c([H])c([H])c23)c([H])c1[H]


 24 27  0  0  0  0  0  0  0  0999 V2000
    4.1800    2.5158   18.6159 C   0  0  0  0  0  0  0  0  0  0  0  0
    3.6049    3.7047   18.2424 C   0  0  0  0  0  0  0  0  0  0  0  0
    3.5982    4.8155   19.0745 C   0  0  0  0  0  0  0  0  0  0  0  0
    4.1773    4.7606   20.3223 C   0  0  0  0  0  0  0  0  0  0  0  0
    4.7647    3.5548   20.7101 C   0  0  0  0  0  0  0  0  0  0  0  0
    5.3425    3.5100   21.9622 C   0  0  0  0  0  0  0  0  0  0  0  0
    5.9211    2.3065   22.3319 C   0  0  0  0  0  0  0  0  0  0  0  0
    5.9288    1.2071   21.5105 C   0  0  0  0  0  0  0  0  0  0  0  0
    5.3478    1.2664   20.2625 C   0  0  0  0  0  0  0  0  0  0  0  0
    4.7583    2.4704   19.8687 C   0  0  0  0  0  0  0  0  0  0  0  0
    3.4326    1.4185   16.5687 C   0  0  0  0  0  0  0  0  0  0  0  0
    4.1828    1.4003   17.7713 O   0  0  0  0  0  0  0  0  0  0  0  0
    4.1969    5.9332   21.2373 C   0  0  0  0  0  0  0  0  0  0  0  0
    4.1717    7.1330   20.4602 N   0  0  0  0  0  0  0  0  0  0  0  0
    3.2585    7.6478   20.5260 H   0  0  0  0  0  0  0  0  0  0  0  0
    5.2937    8.0026   20.6863 C   0  0  0  0  0  0  0  0  0  0  0  0
    4.9224    9.4886   20.6213 C   0  0  0  0  0  0  0  0  0  0  0  0
    5.4279    8.8680   21.8695 C   0  0  0  0  0  0  0  0  0  0  0  0
    6.8039    9.1781   22.3238 C   0  0  0  0  0  0  0  0  0  0  0  0
    7.1191    9.5564   23.6083 C   0  0  0  0  0  0  0  0  0  0  0  0
    8.3976    9.8375   24.0033 C   0  0  0  0  0  0  0  0  0  0  0  0
    9.4273    9.7484   23.1095 C   0  0  0  0  0  0  0  0  0  0  0  0
    9.1440    9.3718   21.8143 C   0  0  0  0  0  0  0  0  0  0  0  0
    7.8451    9.0907   21.4305 C   0  0  0  0  0  0  0  0  0  0  0  0
 11 12  1  0  0  0
 12  1  1  0  0  0
  1  2  2  0  0  0
  2  3  1  0  0  0
  3  4  2  0  0  0
  4 13  1  0  0  0
 13 14  1  0  0  0
 14 16  1  0  0  0
 16 17  1  0  0  0
 17 18  1  0  0  0
 18 19  1  0  0  0
 19 20  2  0  0  0
 20 21  1  0  0  0
 21 22  2  0  0  0
 22 23  1  0  0  0
 23 24  2  0  0  0
  4  5  1  0  0  0
  5  6  2  0  0  0
  6  7  1  0  0  0
  7  8  2  0  0  0
  8  9  1  0  0  0
  9 10  2  0  0  0
 10  1  1  0  0  0
 18 16  1  0  0  0
 24 19  1  0  0  0
 10  5  1  0  0  0
 14 15  1  0  0  0
M  END
> <minimizedAffinity>
-7.29546

> <CNNscore>
0.4355270565

> <CNNaffinity>
5.1428551674

> <CNN_VS>
2.2398526669

> <CNNaffinity_variance>
0.2167411745

$$$$
[H]c1c([H])c([H])c(C2([H])C([H])([H])[C@]2([H])N([H])C([H])([H])c2c([H])c([H])c(OC([H])([H])[H])c3c([H])c([H])c([H])c([H])c23)c([H])c1[H]


 24 27  0  0  0  0  0  0  0  0999 V2000
    4.1290    1.4631   19.6606 C   0  0  0  0  0  0  0  0  0  0  0  0
    4.8851    2.5460   20.0343 C   0  0  0  0  0  0  0  0  0  0  0  0
    5.2511    3.5372   19.1344 C   0  0  0  0  0  0  0  0  0  0  0  0
    4.8620    3.4657   17.8156 C   0  0  0  0  0  0  0  0  0  0  0  0
    4.0926    2.3673   17.4271 C   0  0  0  0  0  0  0  0  0  0  0  0
    3.7075    2.3050   16.1037 C   0  0  0  0  0  0  0  0  0  0  0  0
    2.9445    1.2090   15.7342 C   0  0  0  0  0  0  0  0  0  0  0  0
    2.5814    0.2280   16.6227 C   0  0  0  0  0  0  0  0  0  0  0  0
    2.9732    0.3034   17.9415 C   0  0  0  0  0  0  0  0  0  0  0  0
    3.7435    1.4002   18.3364 C   0  0  0  0  0  0  0  0  0  0  0  0
    3.1627    0.8225   21.8075 C   0  0  0  0  0  0  0  0  0  0  0  0
    3.7639    0.4679   20.5738 O   0  0  0  0  0  0  0  0  0  0  0  0
    5.2281    4.5134   16.8252 C   0  0  0  0  0  0  0  0  0  0  0  0
    4.5166    5.7151   17.1315 N   0  0  0  0  0  0  0  0  0  0  0  0
    5.1453    6.5486   17.2467 H   0  0  0  0  0  0  0  0  0  0  0  0
    3.4201    5.9906   16.2437 C   0  0  0  0  0  0  0  0  0  0  0  0
    3.6872    7.1793   15.3131 C   0  0  0  0  0  0  0  0  0  0  0  0
    3.4881    5.8083   14.7846 C   0  0  0  0  0  0  0  0  0  0  0  0
    2.2220    5.4801   14.0878 C   0  0  0  0  0  0  0  0  0  0  0  0
    1.9958    4.2938   13.4292 C   0  0  0  0  0  0  0  0  0  0  0  0
    0.8180    4.0144   12.7932 C   0  0  0  0  0  0  0  0  0  0  0  0
   -0.1960    4.9303   12.7934 C   0  0  0  0  0  0  0  0  0  0  0  0
   -0.0003    6.1291   13.4448 C   0  0  0  0  0  0  0  0  0  0  0  0
    1.1972    6.3964   14.0835 C   0  0  0  0  0  0  0  0  0  0  0  0
 11 12  1  0  0  0
 12  1  1  0  0  0
  1  2  2  0  0  0
  2  3  1  0  0  0
  3  4  2  0  0  0
  4 13  1  0  0  0
 13 14  1  0  0  0
 14 16  1  0  0  0
 16 17  1  0  0  0
 17 18  1  0  0  0
 18 19  1  0  0  0
 19 20  2  0  0  0
 20 21  1  0  0  0
 21 22  2  0  0  0
 22 23  1  0  0  0
 23 24  2  0  0  0
  4  5  1  0  0  0
  5  6  2  0  0  0
  6  7  1  0  0  0
  7  8  2  0  0  0
  8  9  1  0  0  0
  9 10  2  0  0  0
 10  1  1  0  0  0
 18 16  1  0  0  0
 24 19  1  0  0  0
 10  5  1  0  0  0
 14 15  1  0  0  0
M  END
> <minimizedAffinity>
-7.22740

> <CNNscore>
0.3958826065

> <CNNaffinity>
5.0710535049

> <CNN_VS>
2.0075418949

> <CNNaffinity_variance>
0.3987420201

$$$$
[H]c1c([H])c([H])c(C2([H])C([H])([H])[C@]2([H])N([H])C([H])([H])c2c([H])c([H])c(OC([H])([H])[H])c3c([H])c([H])c([H])c([H])c23)c([H])c1[H]


 24 27  0  0  0  0  0  0  0  0999 V2000
    4.1800    1.7635   18.0406 C   0  0  0  0  0  0  0  0  0  0  0  0
    4.6195    2.7819   17.2322 C   0  0  0  0  0  0  0  0  0  0  0  0
    5.0733    3.9889   17.7455 C   0  0  0  0  0  0  0  0  0  0  0  0
    5.0977    4.2084   19.1045 C   0  0  0  0  0  0  0  0  0  0  0  0
    4.6523    3.1774   19.9340 C   0  0  0  0  0  0  0  0  0  0  0  0
    4.6810    3.4070   21.2942 C   0  0  0  0  0  0  0  0  0  0  0  0
    4.2358    2.3742   22.1036 C   0  0  0  0  0  0  0  0  0  0  0  0
    3.7870    1.1799   21.5979 C   0  0  0  0  0  0  0  0  0  0  0  0
    3.7640    0.9647   20.2372 C   0  0  0  0  0  0  0  0  0  0  0  0
    4.2084    1.9927   19.4017 C   0  0  0  0  0  0  0  0  0  0  0  0
    2.6834    0.5383   16.5533 C   0  0  0  0  0  0  0  0  0  0  0  0
    3.7241    0.5494   17.5156 O   0  0  0  0  0  0  0  0  0  0  0  0
    5.5853    5.4856   19.6906 C   0  0  0  0  0  0  0  0  0  0  0  0
    4.4621    6.2948   20.0479 N   0  0  0  0  0  0  0  0  0  0  0  0
    4.6481    6.9170   20.8735 H   0  0  0  0  0  0  0  0  0  0  0  0
    3.8890    7.0219   18.9483 C   0  0  0  0  0  0  0  0  0  0  0  0
    3.9171    8.5408   19.1550 C   0  0  0  0  0  0  0  0  0  0  0  0
    4.6683    7.8925   18.0531 C   0  0  0  0  0  0  0  0  0  0  0  0
    4.1786    8.0384   16.6621 C   0  0  0  0  0  0  0  0  0  0  0  0
    3.9508    9.2511   16.0538 C   0  0  0  0  0  0  0  0  0  0  0  0
    3.4984    9.3596   14.7680 C   0  0  0  0  0  0  0  0  0  0  0  0
    3.2528    8.2362   14.0299 C   0  0  0  0  0  0  0  0  0  0  0  0
    3.4714    7.0057   14.6110 C   0  0  0  0  0  0  0  0  0  0  0  0
    3.9293    6.9130   15.9130 C   0  0  0  0  0  0  0  0  0  0  0  0
 11 12  1  0  0  0
 12  1  1  0  0  0
  1  2  2  0  0  0
  2  3  1  0  0  0
  3  4  2  0  0  0
  4 13  1  0  0  0
 13 14  1  0  0  0
 14 16  1  0  0  0
 16 17  1  0  0  0
 17 18  1  0  0  0
 18 19  1  0  0  0
 19 20  2  0  0  0
 20 21  1  0  0  0
 21 22  2  0  0  0
 22 23  1  0  0  0
 23 24  2  0  0  0
  4  5  1  0  0  0
  5  6  2  0  0  0
  6  7  1  0  0  0
  7  8  2  0  0  0
  8  9  1  0  0  0
  9 10  2  0  0  0
 10  1  1  0  0  0
 18 16  1  0  0  0
 24 19  1  0  0  0
 10  5  1  0  0  0
 14 15  1  0  0  0
M  END
> <minimizedAffinity>
-7.29864

> <CNNscore>
0.3744472861

> <CNNaffinity>
5.1903786659

> <CNN_VS>
1.9435231686

> <CNNaffinity_variance>
0.4755101204

$$$$
[H]c1nc([H])c([C@@]2([H])N(C([H])([H])[H])C([H])([H])C([H])([H])C2([H])[H])c([H])c1[H]


 12 13  0  0  0  0  0  0  0  0999 V2000
    4.0368    4.0472   20.1544 C   0  0  0  0  0  0  0  0  0  0  0  0
    5.2195    3.3978   20.5146 N   0  0  0  0  0  0  0  0  0  0  0  0
    5.9260    3.8323   21.6517 C   0  0  0  0  0  0  0  0  0  0  0  0
    5.9827    2.5955   22.5251 C   0  0  0  0  0  0  0  0  0  0  0  0
    5.1681    1.5212   21.7947 C   0  0  0  0  0  0  0  0  0  0  0  0
    5.3263    2.0054   20.3516 C   0  0  0  0  0  0  0  0  0  0  0  0
    4.4072    1.3485   19.4408 C   0  0  0  0  0  0  0  0  0  0  0  0
    4.4958    1.5700   18.0834 C   0  0  0  0  0  0  0  0  0  0  0  0
    3.6088    0.9405   17.1975 C   0  0  0  0  0  0  0  0  0  0  0  0
    2.6489    0.0977   17.7118 C   0  0  0  0  0  0  0  0  0  0  0  0
    2.5856   -0.0975   19.0187 N   0  0  0  0  0  0  0  0  0  0  0  0
    3.4257    0.4955   19.8868 C   0  0  0  0  0  0  0  0  0  0  0  0
  1  2  1  0  0  0
  2  3  1  0  0  0
  3  4  1  0  0  0
  4  5  1  0  0  0
  5  6  1  0  0  0
  6  7  1  0  0  0
  7  8  2  0  0  0
  8  9  1  0  0  0
  9 10  2  0  0  0
 10 11  1  0  0  0
 11 12  2  0  0  0
  6  2  1  0  0  0
 12  7  1  0  0  0
M  END
> <minimizedAffinity>
-5.27153

> <CNNscore>
0.7132468820

> <CNNaffinity>
4.5596241951

> <CNN_VS>
3.2521376610

> <CNNaffinity_variance>
0.1916585267

$$$$
[H]c1nc([H])c([C@@]2([H])N(C([H])([H])[H])C([H])([H])C([H])([H])C2([H])[H])c([H])c1[H]


 12 13  0  0  0  0  0  0  0  0999 V2000
    5.2999    7.7237    3.6285 C   0  0  0  0  0  0  0  0  0  0  0  0
    6.6600    7.8630    3.9135 N   0  0  0  0  0  0  0  0  0  0  0  0
    7.5464    8.2286    2.8832 C   0  0  0  0  0  0  0  0  0  0  0  0
    8.1788    9.5051    3.3992 C   0  0  0  0  0  0  0  0  0  0  0  0
    7.4796    9.8198    4.7271 C   0  0  0  0  0  0  0  0  0  0  0  0
    7.0605    8.4087    5.1457 C   0  0  0  0  0  0  0  0  0  0  0  0
    6.1044    8.4135    6.2374 C   0  0  0  0  0  0  0  0  0  0  0  0
    5.4983    9.5887    6.6260 C   0  0  0  0  0  0  0  0  0  0  0  0
    4.5753    9.6012    7.6823 C   0  0  0  0  0  0  0  0  0  0  0  0
    4.2880    8.4162    8.3221 C   0  0  0  0  0  0  0  0  0  0  0  0
    4.8838    7.3023    7.9293 N   0  0  0  0  0  0  0  0  0  0  0  0
    5.7720    7.2669    6.9189 C   0  0  0  0  0  0  0  0  0  0  0  0
  1  2  1  0  0  0
  2  3  1  0  0  0
  3  4  1  0  0  0
  4  5  1  0  0  0
  5  6  1  0  0  0
  6  7  1  0  0  0
  7  8  2  0  0  0
  8  9  1  0  0  0
  9 10  2  0  0  0
 10 11  1  0  0  0
 11 12  2  0  0  0
  6  2  1  0  0  0
 12  7  1  0  0  0
M  END
> <minimizedAffinity>
-3.53969

> <CNNscore>
0.5792117119

> <CNNaffinity>
3.0434622765

> <CNN_VS>
1.7628090382

> <CNNaffinity_variance>
0.2335866392

$$$$
[H]c1nc([H])c([C@@]2([H])N(C([H])([H])[H])C([H])([H])C([H])([H])C2([H])[H])c([H])c1[H]


 12 13  0  0  0  0  0  0  0  0999 V2000
    6.3918    0.9706   21.3772 C   0  0  0  0  0  0  0  0  0  0  0  0
    5.6461    2.0606   21.8312 N   0  0  0  0  0  0  0  0  0  0  0  0
    6.3007    3.1159   22.4938 C   0  0  0  0  0  0  0  0  0  0  0  0
    5.9648    4.3261   21.6463 C   0  0  0  0  0  0  0  0  0  0  0  0
    5.1707    3.7977   20.4457 C   0  0  0  0  0  0  0  0  0  0  0  0
    4.5676    2.5341   21.0636 C   0  0  0  0  0  0  0  0  0  0  0  0
    3.9926    1.6484   20.0681 C   0  0  0  0  0  0  0  0  0  0  0  0
    4.2083    1.8769   18.7262 C   0  0  0  0  0  0  0  0  0  0  0  0
    3.6532    1.0264   17.7585 C   0  0  0  0  0  0  0  0  0  0  0  0
    2.8891   -0.0400   18.1768 C   0  0  0  0  0  0  0  0  0  0  0  0
    2.6977   -0.2367   19.4709 N   0  0  0  0  0  0  0  0  0  0  0  0
    3.2202    0.5658   20.4163 C   0  0  0  0  0  0  0  0  0  0  0  0
  1  2  1  0  0  0
  2  3  1  0  0  0
  3  4  1  0  0  0
  4  5  1  0  0  0
  5  6  1  0  0  0
  6  7  1  0  0  0
  7  8  2  0  0  0
  8  9  1  0  0  0
  9 10  2  0  0  0
 10 11  1  0  0  0
 11 12  2  0  0  0
  6  2  1  0  0  0
 12  7  1  0  0  0
M  END
> <minimizedAffinity>
-5.00883

> <CNNscore>
0.5285259485

> <CNNaffinity>
4.4523720741

> <CNN_VS>
2.3531942368

> <CNNaffinity_variance>
0.2736812234

$$$$
[H]c1nc([H])c([C@@]2([H])N(C([H])([H])[H])C([H])([H])C([H])([H])C2([H])[H])c([H])c1[H]


 12 13  0  0  0  0  0  0  0  0999 V2000
    3.8464    4.9075   20.2888 C   0  0  0  0  0  0  0  0  0  0  0  0
    5.2111    4.6325   20.3998 N   0  0  0  0  0  0  0  0  0  0  0  0
    6.0946    5.6644   20.7683 C   0  0  0  0  0  0  0  0  0  0  0  0
    6.7534    5.1320   22.0246 C   0  0  0  0  0  0  0  0  0  0  0  0
    6.0714    3.7925   22.3278 C   0  0  0  0  0  0  0  0  0  0  0  0
    5.6318    3.3947   20.9169 C   0  0  0  0  0  0  0  0  0  0  0  0
    4.6856    2.2944   20.9189 C   0  0  0  0  0  0  0  0  0  0  0  0
    4.0612    1.9161   22.0878 C   0  0  0  0  0  0  0  0  0  0  0  0
    3.1476    0.8516   22.0976 C   0  0  0  0  0  0  0  0  0  0  0  0
    2.8881    0.1933   20.9163 C   0  0  0  0  0  0  0  0  0  0  0  0
    3.5011    0.5766   19.8084 N   0  0  0  0  0  0  0  0  0  0  0  0
    4.3807    1.5945   19.7757 C   0  0  0  0  0  0  0  0  0  0  0  0
  1  2  1  0  0  0
  2  3  1  0  0  0
  3  4  1  0  0  0
  4  5  1  0  0  0
  5  6  1  0  0  0
  6  7  1  0  0  0
  7  8  2  0  0  0
  8  9  1  0  0  0
  9 10  2  0  0  0
 10 11  1  0  0  0
 11 12  2  0  0  0
  6  2  1  0  0  0
 12  7  1  0  0  0
M  END
> <minimizedAffinity>
-5.19554

> <CNNscore>
0.5091829896

> <CNNaffinity>
4.2248411179

> <CNN_VS>
2.1512172222

> <CNNaffinity_variance>
0.2642591000

$$$$
[H]c1nc([H])c([C@@]2([H])N(C([H])([H])[H])C([H])([H])C([H])([H])C2([H])[H])c([H])c1[H]


 12 13  0  0  0  0  0  0  0  0999 V2000
    6.2148    6.2406   21.3234 C   0  0  0  0  0  0  0  0  0  0  0  0
    4.8677    6.4524   21.0225 N   0  0  0  0  0  0  0  0  0  0  0  0
    4.5252    7.2980   19.9507 C   0  0  0  0  0  0  0  0  0  0  0  0
    3.7076    6.4021   19.0426 C   0  0  0  0  0  0  0  0  0  0  0  0
    3.7385    5.0080   19.6802 C   0  0  0  0  0  0  0  0  0  0  0  0
    3.9520    5.3927   21.1460 C   0  0  0  0  0  0  0  0  0  0  0  0
    4.3232    4.2575   21.9704 C   0  0  0  0  0  0  0  0  0  0  0  0
    5.0185    3.1998   21.4253 C   0  0  0  0  0  0  0  0  0  0  0  0
    5.3780    2.0979   22.2156 C   0  0  0  0  0  0  0  0  0  0  0  0
    5.0221    2.0953   23.5458 C   0  0  0  0  0  0  0  0  0  0  0  0
    4.3549    3.1233   24.0440 N   0  0  0  0  0  0  0  0  0  0  0  0
    3.9997    4.1903   23.3048 C   0  0  0  0  0  0  0  0  0  0  0  0
  1  2  1  0  0  0
  2  3  1  0  0  0
  3  4  1  0  0  0
  4  5  1  0  0  0
  5  6  1  0  0  0
  6  7  1  0  0  0
  7  8  2  0  0  0
  8  9  1  0  0  0
  9 10  2  0  0  0
 10 11  1  0  0  0
 11 12  2  0  0  0
  6  2  1  0  0  0
 12  7  1  0  0  0
M  END
> <minimizedAffinity>
-4.95679

> <CNNscore>
0.4751388729

> <CNNaffinity>
4.0525493622

> <CNN_VS>
1.9255237579

> <CNNaffinity_variance>
0.1015215665

$$$$
[H]c1nc([H])c([C@@]2([H])N(C([H])([H])[H])C([H])([H])C([H])([H])C2([H])[H])c([H])c1[H]


 12 13  0  0  0  0  0  0  0  0999 V2000
    2.7372    5.1966   17.6285 C   0  0  0  0  0  0  0  0  0  0  0  0
    3.8957    5.3788   16.8703 N   0  0  0  0  0  0  0  0  0  0  0  0
    4.7263    6.4839   17.1350 C   0  0  0  0  0  0  0  0  0  0  0  0
    6.0629    5.8495   17.4621 C   0  0  0  0  0  0  0  0  0  0  0  0
    5.8311    4.3339   17.4411 C   0  0  0  0  0  0  0  0  0  0  0  0
    4.6493    4.2610   16.4714 C   0  0  0  0  0  0  0  0  0  0  0  0
    4.0046    2.9609   16.4776 C   0  0  0  0  0  0  0  0  0  0  0  0
    4.1967    2.0942   17.5318 C   0  0  0  0  0  0  0  0  0  0  0  0
    3.5788    0.8348   17.5429 C   0  0  0  0  0  0  0  0  0  0  0  0
    2.7774    0.4831   16.4798 C   0  0  0  0  0  0  0  0  0  0  0  0
    2.6098    1.3337   15.4806 N   0  0  0  0  0  0  0  0  0  0  0  0
    3.1923    2.5463   15.4489 C   0  0  0  0  0  0  0  0  0  0  0  0
  1  2  1  0  0  0
  2  3  1  0  0  0
  3  4  1  0  0  0
  4  5  1  0  0  0
  5  6  1  0  0  0
  6  7  1  0  0  0
  7  8  2  0  0  0
  8  9  1  0  0  0
  9 10  2  0  0  0
 10 11  1  0  0  0
 11 12  2  0  0  0
  6  2  1  0  0  0
 12  7  1  0  0  0
M  END
> <minimizedAffinity>
-4.76865

> <CNNscore>
0.4275876284

> <CNNaffinity>
3.7978661060

> <CNN_VS>
1.6239205599

> <CNNaffinity_variance>
0.3397395611

$$$$
[H]c1nc([H])c([C@@]2([H])N(C([H])([H])[H])C([H])([H])C([H])([H])C2([H])[H])c([H])c1[H]


 12 13  0  0  0  0  0  0  0  0999 V2000
    3.1086    5.7513   18.8041 C   0  0  0  0  0  0  0  0  0  0  0  0
    3.9362    5.7104   17.6800 N   0  0  0  0  0  0  0  0  0  0  0  0
    4.3980    6.9161   17.1195 C   0  0  0  0  0  0  0  0  0  0  0  0
    5.9057    6.7782   17.1805 C   0  0  0  0  0  0  0  0  0  0  0  0
    6.1829    5.4545   17.9031 C   0  0  0  0  0  0  0  0  0  0  0  0
    4.8998    4.6935   17.5618 C   0  0  0  0  0  0  0  0  0  0  0  0
    4.7345    3.4949   18.3630 C   0  0  0  0  0  0  0  0  0  0  0  0
    5.2722    3.4255   19.6301 C   0  0  0  0  0  0  0  0  0  0  0  0
    5.1186    2.2690   20.4090 C   0  0  0  0  0  0  0  0  0  0  0  0
    4.4204    1.2057   19.8818 C   0  0  0  0  0  0  0  0  0  0  0  0
    3.9144    1.2984   18.6630 N   0  0  0  0  0  0  0  0  0  0  0  0
    4.0493    2.3974   17.8983 C   0  0  0  0  0  0  0  0  0  0  0  0
  1  2  1  0  0  0
  2  3  1  0  0  0
  3  4  1  0  0  0
  4  5  1  0  0  0
  5  6  1  0  0  0
  6  7  1  0  0  0
  7  8  2  0  0  0
  8  9  1  0  0  0
  9 10  2  0  0  0
 10 11  1  0  0  0
 11 12  2  0  0  0
  6  2  1  0  0  0
 12  7  1  0  0  0
M  END
> <minimizedAffinity>
-4.42130

> <CNNscore>
0.3926478922

> <CNNaffinity>
3.9871604443

> <CNN_VS>
1.5655500889

> <CNNaffinity_variance>
0.1390440166

$$$$
[H]c1nc([H])c([C@@]2([H])N(C([H])([H])[H])C([H])([H])C([H])([H])C2([H])[H])c([H])c1[H]


 12 13  0  0  0  0  0  0  0  0999 V2000
    3.7426    5.4654   13.4013 C   0  0  0  0  0  0  0  0  0  0  0  0
    2.8423    6.3184   12.7593 N   0  0  0  0  0  0  0  0  0  0  0  0
    1.4644    6.1839   13.0129 C   0  0  0  0  0  0  0  0  0  0  0  0
    1.0679    7.5491   13.5371 C   0  0  0  0  0  0  0  0  0  0  0  0
    2.3640    8.3638   13.6256 C   0  0  0  0  0  0  0  0  0  0  0  0
    3.1904    7.6635   12.5445 C   0  0  0  0  0  0  0  0  0  0  0  0
    4.5947    8.0257   12.5963 C   0  0  0  0  0  0  0  0  0  0  0  0
    5.4413    7.6774   11.5661 C   0  0  0  0  0  0  0  0  0  0  0  0
    6.8005    8.0218   11.6108 C   0  0  0  0  0  0  0  0  0  0  0  0
    7.2705    8.7143   12.7043 C   0  0  0  0  0  0  0  0  0  0  0  0
    6.4365    9.0364   13.6795 N   0  0  0  0  0  0  0  0  0  0  0  0
    5.1296    8.7165   13.6576 C   0  0  0  0  0  0  0  0  0  0  0  0
  1  2  1  0  0  0
  2  3  1  0  0  0
  3  4  1  0  0  0
  4  5  1  0  0  0
  5  6  1  0  0  0
  6  7  1  0  0  0
  7  8  2  0  0  0
  8  9  1  0  0  0
  9 10  2  0  0  0
 10 11  1  0  0  0
 11 12  2  0  0  0
  6  2  1  0  0  0
 12  7  1  0  0  0
M  END
> <minimizedAffinity>
-3.36393

> <CNNscore>
0.3768969774

> <CNNaffinity>
3.0644028187

> <CNN_VS>
1.1549642086

> <CNNaffinity_variance>
0.5319268703

$$$$
[H]c1nc([H])c([C@@]2([H])N(C([H])([H])[H])C([H])([H])C([H])([H])C2([H])[H])c([H])c1[H]


 12 13  0  0  0  0  0  0  0  0999 V2000
    3.5968    5.3034   19.9224 C   0  0  0  0  0  0  0  0  0  0  0  0
    4.2118    6.0037   20.9624 N   0  0  0  0  0  0  0  0  0  0  0  0
    4.6602    5.3007   22.0964 C   0  0  0  0  0  0  0  0  0  0  0  0
    6.1407    5.6195   22.1456 C   0  0  0  0  0  0  0  0  0  0  0  0
    6.4370    6.4587   20.8970 C   0  0  0  0  0  0  0  0  0  0  0  0
    5.0599    7.0854   20.6671 C   0  0  0  0  0  0  0  0  0  0  0  0
    4.9447    7.7117   19.3631 C   0  0  0  0  0  0  0  0  0  0  0  0
    5.8140    7.3719   18.3490 C   0  0  0  0  0  0  0  0  0  0  0  0
    5.7102    7.9754   17.0869 C   0  0  0  0  0  0  0  0  0  0  0  0
    4.7229    8.9134   16.8827 C   0  0  0  0  0  0  0  0  0  0  0  0
    3.9016    9.2213   17.8730 N   0  0  0  0  0  0  0  0  0  0  0  0
    3.9827    8.6553   19.0912 C   0  0  0  0  0  0  0  0  0  0  0  0
  1  2  1  0  0  0
  2  3  1  0  0  0
  3  4  1  0  0  0
  4  5  1  0  0  0
  5  6  1  0  0  0
  6  7  1  0  0  0
  7  8  2  0  0  0
  8  9  1  0  0  0
  9 10  2  0  0  0
 10 11  1  0  0  0
 11 12  2  0  0  0
  6  2  1  0  0  0
 12  7  1  0  0  0
M  END
> <minimizedAffinity>
-3.96538

> <CNNscore>
0.3718376160

> <CNNaffinity>
3.6947643757

> <CNN_VS>
1.3738523722

> <CNNaffinity_variance>
0.1673612297

$$$$
[H]c1nc([H])c(N([H])C(=O)c2nc(-c3c(F)c([H])c([H])c([H])c3F)c([H])c([H])c2F)c([C@@]2([H])C([H])([H])[C@@]([H])(N([H])[H])C([H])([H])[C@@]([H])(C([H])([H])[H])C2([H])[H])c1[H]


 35 38  0  0  0  0  0  0  0  0999 V2000
    4.1338    2.4091   16.6284 N   0  0  0  0  0  0  0  0  0  0  0  0
    3.2160    3.1164   15.8454 C   0  0  0  0  0  0  0  0  0  0  0  0
    1.9506    2.8559   15.9736 O   0  0  0  0  0  0  0  0  0  0  0  0
    5.1484    2.6376   16.5217 H   0  0  0  0  0  0  0  0  0  0  0  0
    3.4799    4.1603   14.8688 C   0  0  0  0  0  0  0  0  0  0  0  0
    3.8236    3.8152   13.6146 N   0  0  0  0  0  0  0  0  0  0  0  0
    4.0968    4.6378   12.5998 C   0  0  0  0  0  0  0  0  0  0  0  0
    4.0207    6.0096   12.8828 C   0  0  0  0  0  0  0  0  0  0  0  0
    3.6769    6.4413   14.1471 C   0  0  0  0  0  0  0  0  0  0  0  0
    3.4096    5.4923   15.1291 C   0  0  0  0  0  0  0  0  0  0  0  0
    3.0713    5.9699   16.3862 F   0  0  0  0  0  0  0  0  0  0  0  0
    4.4097    4.2150   11.2517 C   0  0  0  0  0  0  0  0  0  0  0  0
    5.6143    4.5390   10.6445 C   0  0  0  0  0  0  0  0  0  0  0  0
    6.5332    5.3101   11.2990 F   0  0  0  0  0  0  0  0  0  0  0  0
    5.9509    4.1270    9.3765 C   0  0  0  0  0  0  0  0  0  0  0  0
    5.0884    3.3611    8.6481 C   0  0  0  0  0  0  0  0  0  0  0  0
    3.8656    3.0183    9.2278 C   0  0  0  0  0  0  0  0  0  0  0  0
    3.5568    3.4470   10.5006 C   0  0  0  0  0  0  0  0  0  0  0  0
    2.3537    3.1121   11.0780 F   0  0  0  0  0  0  0  0  0  0  0  0
    3.8204    1.7593   18.8842 C   0  0  0  0  0  0  0  0  0  0  0  0
    3.2892    0.8140   19.7687 C   0  0  0  0  0  0  0  0  0  0  0  0
    2.6996   -0.3602   19.3316 C   0  0  0  0  0  0  0  0  0  0  0  0
    2.6169   -0.6333   18.0362 N   0  0  0  0  0  0  0  0  0  0  0  0
    3.1200    0.2650   17.1590 C   0  0  0  0  0  0  0  0  0  0  0  0
    3.6988    1.4258   17.5373 C   0  0  0  0  0  0  0  0  0  0  0  0
    6.0740    2.8397   22.8962 C   0  0  0  0  0  0  0  0  0  0  0  0
    5.9654    3.4110   21.4404 C   0  0  0  0  0  0  0  0  0  0  0  0
    5.2429    4.7560   21.5636 C   0  0  0  0  0  0  0  0  0  0  0  0
    4.8393    5.1788   20.2035 C   0  0  0  0  0  0  0  0  0  0  0  0
    4.2921    6.4867   20.1714 N   0  0  0  0  0  0  0  0  0  0  0  0
    3.8243    4.1752   19.5920 C   0  0  0  0  0  0  0  0  0  0  0  0
    4.6055    2.8989   19.2956 C   0  0  0  0  0  0  0  0  0  0  0  0
    5.0963    2.4607   20.7344 C   0  0  0  0  0  0  0  0  0  0  0  0
    4.0273    6.8125   19.2041 H   0  0  0  0  0  0  0  0  0  0  0  0
    4.7652    7.2157   20.7192 H   0  0  0  0  0  0  0  0  0  0  0  0
 26 27  1  0  0  0
 27 28  1  0  0  0
 28 29  1  0  0  0
 29 30  1  0  0  0
 29 31  1  0  0  0
 31 32  1  0  0  0
 32 20  1  0  0  0
 20 21  2  0  0  0
 21 22  1  0  0  0
 22 23  2  0  0  0
 23 24  1  0  0  0
 24 25  2  0  0  0
 25  1  1  0  0  0
  1  2  1  0  0  0
  2  3  2  0  0  0
  2  5  1  0  0  0
  5  6  2  0  0  0
  6  7  1  0  0  0
  7 12  1  0  0  0
 12 13  2  0  0  0
 13 14  1  0  0  0
 13 15  1  0  0  0
 15 16  2  0  0  0
 16 17  1  0  0  0
 17 18  2  0  0  0
 18 19  1  0  0  0
  7  8  2  0  0  0
  8  9  1  0  0  0
  9 10  2  0  0  0
 10 11  1  0  0  0
 32 33  1  0  0  0
 33 27  1  0  0  0
 25 20  1  0  0  0
 10  5  1  0  0  0
 18 12  1  0  0  0
 30 34  1  0  0  0
 30 35  1  0  0  0
  1  4  1  0  0  0
M  END
> <minimizedAffinity>
-8.33972

> <CNNscore>
0.5789834857

> <CNNaffinity>
7.2493758202

> <CNN_VS>
4.1972689629

> <CNNaffinity_variance>
0.3891455829

$$$$
[H]c1nc([H])c(N([H])C(=O)c2nc(-c3c(F)c([H])c([H])c([H])c3F)c([H])c([H])c2F)c([C@@]2([H])C([H])([H])[C@@]([H])(N([H])[H])C([H])([H])[C@@]([H])(C([H])([H])[H])C2([H])[H])c1[H]


 35 38  0  0  0  0  0  0  0  0999 V2000
    3.8849    1.7840   16.9583 N   0  0  0  0  0  0  0  0  0  0  0  0
    2.9517    2.5103   16.2117 C   0  0  0  0  0  0  0  0  0  0  0  0
    1.6930    2.4112   16.5141 O   0  0  0  0  0  0  0  0  0  0  0  0
    4.8955    1.8824   16.7097 H   0  0  0  0  0  0  0  0  0  0  0  0
    3.1941    3.4140   15.0991 C   0  0  0  0  0  0  0  0  0  0  0  0
    3.2922    4.7349   15.3350 N   0  0  0  0  0  0  0  0  0  0  0  0
    3.5126    5.6984   14.4381 C   0  0  0  0  0  0  0  0  0  0  0  0
    3.6492    5.2791   13.1065 C   0  0  0  0  0  0  0  0  0  0  0  0
    3.5581    3.9405   12.7856 C   0  0  0  0  0  0  0  0  0  0  0  0
    3.3287    3.0216   13.8051 C   0  0  0  0  0  0  0  0  0  0  0  0
    3.2408    1.6874   13.4377 F   0  0  0  0  0  0  0  0  0  0  0  0
    3.6639    7.1030   14.7512 C   0  0  0  0  0  0  0  0  0  0  0  0
    4.6084    7.5517   15.6629 C   0  0  0  0  0  0  0  0  0  0  0  0
    5.4050    6.6622   16.3276 F   0  0  0  0  0  0  0  0  0  0  0  0
    4.7945    8.8817   15.9585 C   0  0  0  0  0  0  0  0  0  0  0  0
    4.0361    9.8370   15.3475 C   0  0  0  0  0  0  0  0  0  0  0  0
    3.0740    9.4204   14.4258 C   0  0  0  0  0  0  0  0  0  0  0  0
    2.9108    8.0799   14.1510 C   0  0  0  0  0  0  0  0  0  0  0  0
    1.9649    7.6627   13.2433 F   0  0  0  0  0  0  0  0  0  0  0  0
    3.8019    1.4005   19.2940 C   0  0  0  0  0  0  0  0  0  0  0  0
    3.2942    0.6162   20.3357 C   0  0  0  0  0  0  0  0  0  0  0  0
    2.5325   -0.5172   20.1062 C   0  0  0  0  0  0  0  0  0  0  0  0
    2.2532   -0.9044   18.8686 N   0  0  0  0  0  0  0  0  0  0  0  0
    2.7291   -0.1625   17.8427 C   0  0  0  0  0  0  0  0  0  0  0  0
    3.4712    0.9531   18.0170 C   0  0  0  0  0  0  0  0  0  0  0  0
    6.1574    3.0048   23.0649 C   0  0  0  0  0  0  0  0  0  0  0  0
    6.1517    3.2455   21.5159 C   0  0  0  0  0  0  0  0  0  0  0  0
    5.6442    4.6758   21.3092 C   0  0  0  0  0  0  0  0  0  0  0  0
    5.3234    4.8387   19.8732 C   0  0  0  0  0  0  0  0  0  0  0  0
    4.9847    6.1725   19.5308 N   0  0  0  0  0  0  0  0  0  0  0  0
    4.1716    3.8856   19.4534 C   0  0  0  0  0  0  0  0  0  0  0  0
    4.7494    2.4739   19.4788 C   0  0  0  0  0  0  0  0  0  0  0  0
    5.1532    2.3009   20.9987 C   0  0  0  0  0  0  0  0  0  0  0  0
    4.7824    6.3093   18.5050 H   0  0  0  0  0  0  0  0  0  0  0  0
    5.5594    6.9272   19.9252 H   0  0  0  0  0  0  0  0  0  0  0  0
 26 27  1  0  0  0
 27 28  1  0  0  0
 28 29  1  0  0  0
 29 30  1  0  0  0
 29 31  1  0  0  0
 31 32  1  0  0  0
 32 20  1  0  0  0
 20 21  2  0  0  0
 21 22  1  0  0  0
 22 23  2  0  0  0
 23 24  1  0  0  0
 24 25  2  0  0  0
 25  1  1  0  0  0
  1  2  1  0  0  0
  2  3  2  0  0  0
  2  5  1  0  0  0
  5  6  2  0  0  0
  6  7  1  0  0  0
  7 12  1  0  0  0
 12 13  2  0  0  0
 13 14  1  0  0  0
 13 15  1  0  0  0
 15 16  2  0  0  0
 16 17  1  0  0  0
 17 18  2  0  0  0
 18 19  1  0  0  0
  7  8  2  0  0  0
  8  9  1  0  0  0
  9 10  2  0  0  0
 10 11  1  0  0  0
 32 33  1  0  0  0
 33 27  1  0  0  0
 25 20  1  0  0  0
 10  5  1  0  0  0
 18 12  1  0  0  0
 30 34  1  0  0  0
 30 35  1  0  0  0
  1  4  1  0  0  0
M  END
> <minimizedAffinity>
-8.64478

> <CNNscore>
0.4900866449

> <CNNaffinity>
7.1728324890

> <CNN_VS>
3.5153093338

> <CNNaffinity_variance>
0.2696000636

$$$$
[H]c1nc([H])c(N([H])C(=O)c2nc(-c3c(F)c([H])c([H])c([H])c3F)c([H])c([H])c2F)c([C@@]2([H])C([H])([H])[C@@]([H])(N([H])[H])C([H])([H])[C@@]([H])(C([H])([H])[H])C2([H])[H])c1[H]


 35 38  0  0  0  0  0  0  0  0999 V2000
    3.9391    1.5663   16.6774 N   0  0  0  0  0  0  0  0  0  0  0  0
    2.9603    2.0565   15.8071 C   0  0  0  0  0  0  0  0  0  0  0  0
    1.7119    1.9641   16.1516 O   0  0  0  0  0  0  0  0  0  0  0  0
    4.9404    1.6577   16.3909 H   0  0  0  0  0  0  0  0  0  0  0  0
    3.1418    2.6969   14.5147 C   0  0  0  0  0  0  0  0  0  0  0  0
    2.5577    2.1606   13.4278 N   0  0  0  0  0  0  0  0  0  0  0  0
    2.6179    2.6157   12.1747 C   0  0  0  0  0  0  0  0  0  0  0  0
    3.3807    3.7764   11.9782 C   0  0  0  0  0  0  0  0  0  0  0  0
    4.0123    4.3828   13.0442 C   0  0  0  0  0  0  0  0  0  0  0  0
    3.8774    3.8211   14.3102 C   0  0  0  0  0  0  0  0  0  0  0  0
    4.5315    4.4607   15.3523 F   0  0  0  0  0  0  0  0  0  0  0  0
    1.9252    2.0312   11.0467 C   0  0  0  0  0  0  0  0  0  0  0  0
    0.6792    2.4845   10.6385 C   0  0  0  0  0  0  0  0  0  0  0  0
    0.0475    3.4828   11.3254 F   0  0  0  0  0  0  0  0  0  0  0  0
    0.0106    1.9683    9.5535 C   0  0  0  0  0  0  0  0  0  0  0  0
    0.5644    0.9630    8.8160 C   0  0  0  0  0  0  0  0  0  0  0  0
    1.8169    0.4810    9.2002 C   0  0  0  0  0  0  0  0  0  0  0  0
    2.4619    1.0185   10.2929 C   0  0  0  0  0  0  0  0  0  0  0  0
    3.6967    0.5485   10.6766 F   0  0  0  0  0  0  0  0  0  0  0  0
    3.8926    1.7203   19.0402 C   0  0  0  0  0  0  0  0  0  0  0  0
    3.4388    1.1659   20.2422 C   0  0  0  0  0  0  0  0  0  0  0  0
    2.7450   -0.0315   20.2904 C   0  0  0  0  0  0  0  0  0  0  0  0
    2.4824   -0.7055   19.1785 N   0  0  0  0  0  0  0  0  0  0  0  0
    2.9072   -0.1906   18.0022 C   0  0  0  0  0  0  0  0  0  0  0  0
    3.5820    0.9760   17.9046 C   0  0  0  0  0  0  0  0  0  0  0  0
    6.0818    4.3403   22.3090 C   0  0  0  0  0  0  0  0  0  0  0  0
    6.0927    4.1909   20.7485 C   0  0  0  0  0  0  0  0  0  0  0  0
    5.5104    5.4938   20.1921 C   0  0  0  0  0  0  0  0  0  0  0  0
    5.2088    5.2784   18.7589 C   0  0  0  0  0  0  0  0  0  0  0  0
    4.8030    6.4644   18.0957 N   0  0  0  0  0  0  0  0  0  0  0  0
    4.1202    4.1852   18.5821 C   0  0  0  0  0  0  0  0  0  0  0  0
    4.7751    2.8599   18.9586 C   0  0  0  0  0  0  0  0  0  0  0  0
    5.1585    3.0910   20.4761 C   0  0  0  0  0  0  0  0  0  0  0  0
    4.6132    6.3318   17.0669 H   0  0  0  0  0  0  0  0  0  0  0  0
    5.3270    7.3254   18.2940 H   0  0  0  0  0  0  0  0  0  0  0  0
 26 27  1  0  0  0
 27 28  1  0  0  0
 28 29  1  0  0  0
 29 30  1  0  0  0
 29 31  1  0  0  0
 31 32  1  0  0  0
 32 20  1  0  0  0
 20 21  2  0  0  0
 21 22  1  0  0  0
 22 23  2  0  0  0
 23 24  1  0  0  0
 24 25  2  0  0  0
 25  1  1  0  0  0
  1  2  1  0  0  0
  2  3  2  0  0  0
  2  5  1  0  0  0
  5  6  2  0  0  0
  6  7  1  0  0  0
  7 12  1  0  0  0
 12 13  2  0  0  0
 13 14  1  0  0  0
 13 15  1  0  0  0
 15 16  2  0  0  0
 16 17  1  0  0  0
 17 18  2  0  0  0
 18 19  1  0  0  0
  7  8  2  0  0  0
  8  9  1  0  0  0
  9 10  2  0  0  0
 10 11  1  0  0  0
 32 33  1  0  0  0
 33 27  1  0  0  0
 25 20  1  0  0  0
 10  5  1  0  0  0
 18 12  1  0  0  0
 30 34  1  0  0  0
 30 35  1  0  0  0
  1  4  1  0  0  0
M  END
> <minimizedAffinity>
-7.86011

> <CNNscore>
0.4877617359

> <CNNaffinity>
7.0785508156

> <CNN_VS>
3.4526462555

> <CNNaffinity_variance>
0.3386718631

$$$$
[H]c1nc([H])c(N([H])C(=O)c2nc(-c3c(F)c([H])c([H])c([H])c3F)c([H])c([H])c2F)c([C@@]2([H])C([H])([H])[C@@]([H])(N([H])[H])C([H])([H])[C@@]([H])(C([H])([H])[H])C2([H])[H])c1[H]


 35 38  0  0  0  0  0  0  0  0999 V2000
    4.6483    3.4948   17.3944 N   0  0  0  0  0  0  0  0  0  0  0  0
    3.7714    4.4749   16.9188 C   0  0  0  0  0  0  0  0  0  0  0  0
    2.4929    4.2625   16.9949 O   0  0  0  0  0  0  0  0  0  0  0  0
    5.6747    3.6848   17.3361 H   0  0  0  0  0  0  0  0  0  0  0  0
    4.0939    5.7658   16.3332 C   0  0  0  0  0  0  0  0  0  0  0  0
    3.6639    6.0494   15.0904 N   0  0  0  0  0  0  0  0  0  0  0  0
    3.8662    7.1775   14.4066 C   0  0  0  0  0  0  0  0  0  0  0  0
    4.6154    8.1669   15.0607 C   0  0  0  0  0  0  0  0  0  0  0  0
    5.0931    7.9484   16.3363 C   0  0  0  0  0  0  0  0  0  0  0  0
    4.8180    6.7329   16.9554 C   0  0  0  0  0  0  0  0  0  0  0  0
    5.3201    6.5542   18.2355 F   0  0  0  0  0  0  0  0  0  0  0  0
    3.3349    7.4548   13.0895 C   0  0  0  0  0  0  0  0  0  0  0  0
    4.0955    7.2810   11.9424 C   0  0  0  0  0  0  0  0  0  0  0  0
    5.3974    6.8752   12.0308 F   0  0  0  0  0  0  0  0  0  0  0  0
    3.6085    7.5084   10.6767 C   0  0  0  0  0  0  0  0  0  0  0  0
    2.3217    7.9242   10.4969 C   0  0  0  0  0  0  0  0  0  0  0  0
    1.5284    8.1117   11.6302 C   0  0  0  0  0  0  0  0  0  0  0  0
    2.0454    7.8758   12.8857 C   0  0  0  0  0  0  0  0  0  0  0  0
    1.2688    8.0580   14.0067 F   0  0  0  0  0  0  0  0  0  0  0  0
    4.1115    2.2445   19.3329 C   0  0  0  0  0  0  0  0  0  0  0  0
    3.5271    1.0854   19.8555 C   0  0  0  0  0  0  0  0  0  0  0  0
    3.0447    0.0698   19.0472 C   0  0  0  0  0  0  0  0  0  0  0  0
    3.1216    0.1634   17.7262 N   0  0  0  0  0  0  0  0  0  0  0  0
    3.6794    1.2748   17.1944 C   0  0  0  0  0  0  0  0  0  0  0  0
    4.1583    2.2936   17.9416 C   0  0  0  0  0  0  0  0  0  0  0  0
    5.6417    2.2849   23.8048 C   0  0  0  0  0  0  0  0  0  0  0  0
    5.7648    3.1913   22.5318 C   0  0  0  0  0  0  0  0  0  0  0  0
    5.0031    4.4810   22.8522 C   0  0  0  0  0  0  0  0  0  0  0  0
    4.8227    5.2261   21.5858 C   0  0  0  0  0  0  0  0  0  0  0  0
    4.2604    6.5137   21.7780 N   0  0  0  0  0  0  0  0  0  0  0  0
    3.9455    4.4189   20.5907 C   0  0  0  0  0  0  0  0  0  0  0  0
    4.7924    3.2363   20.1309 C   0  0  0  0  0  0  0  0  0  0  0  0
    5.0461    2.4556   21.4834 C   0  0  0  0  0  0  0  0  0  0  0  0
    4.1535    7.0676   20.8871 H   0  0  0  0  0  0  0  0  0  0  0  0
    4.6199    7.0803   22.5558 H   0  0  0  0  0  0  0  0  0  0  0  0
 26 27  1  0  0  0
 27 28  1  0  0  0
 28 29  1  0  0  0
 29 30  1  0  0  0
 29 31  1  0  0  0
 31 32  1  0  0  0
 32 20  1  0  0  0
 20 21  2  0  0  0
 21 22  1  0  0  0
 22 23  2  0  0  0
 23 24  1  0  0  0
 24 25  2  0  0  0
 25  1  1  0  0  0
  1  2  1  0  0  0
  2  3  2  0  0  0
  2  5  1  0  0  0
  5  6  2  0  0  0
  6  7  1  0  0  0
  7 12  1  0  0  0
 12 13  2  0  0  0
 13 14  1  0  0  0
 13 15  1  0  0  0
 15 16  2  0  0  0
 16 17  1  0  0  0
 17 18  2  0  0  0
 18 19  1  0  0  0
  7  8  2  0  0  0
  8  9  1  0  0  0
  9 10  2  0  0  0
 10 11  1  0  0  0
 32 33  1  0  0  0
 33 27  1  0  0  0
 25 20  1  0  0  0
 10  5  1  0  0  0
 18 12  1  0  0  0
 30 34  1  0  0  0
 30 35  1  0  0  0
  1  4  1  0  0  0
M  END
> <minimizedAffinity>
-8.95815

> <CNNscore>
0.4574470222

> <CNNaffinity>
7.1366539001

> <CNN_VS>
3.2646410465

> <CNNaffinity_variance>
0.4811963141

$$$$
[H]c1nc([H])c(N([H])C(=O)c2nc(-c3c(F)c([H])c([H])c([H])c3F)c([H])c([H])c2F)c([C@@]2([H])C([H])([H])[C@@]([H])(N([H])[H])C([H])([H])[C@@]([H])(C([H])([H])[H])C2([H])[H])c1[H]


 35 38  0  0  0  0  0  0  0  0999 V2000
    2.9842    3.4516   15.8234 N   0  0  0  0  0  0  0  0  0  0  0  0
    2.4974    3.4713   14.5125 C   0  0  0  0  0  0  0  0  0  0  0  0
    2.0915    2.3601   13.9777 O   0  0  0  0  0  0  0  0  0  0  0  0
    3.2972    4.3561   16.2440 H   0  0  0  0  0  0  0  0  0  0  0  0
    2.3603    4.6095   13.6186 C   0  0  0  0  0  0  0  0  0  0  0  0
    3.4102    5.4305   13.4343 N   0  0  0  0  0  0  0  0  0  0  0  0
    3.4587    6.5122   12.6542 C   0  0  0  0  0  0  0  0  0  0  0  0
    2.2801    6.8226   11.9596 C   0  0  0  0  0  0  0  0  0  0  0  0
    1.1605    6.0290   12.0994 C   0  0  0  0  0  0  0  0  0  0  0  0
    1.2253    4.9215   12.9396 C   0  0  0  0  0  0  0  0  0  0  0  0
    0.0764    4.1535   13.0535 F   0  0  0  0  0  0  0  0  0  0  0  0
    4.6324    7.3332   12.4481 C   0  0  0  0  0  0  0  0  0  0  0  0
    5.0011    8.3215   13.3491 C   0  0  0  0  0  0  0  0  0  0  0  0
    4.2325    8.5752   14.4501 F   0  0  0  0  0  0  0  0  0  0  0  0
    6.1261    9.0970   13.1945 C   0  0  0  0  0  0  0  0  0  0  0  0
    6.9458    8.9170   12.1189 C   0  0  0  0  0  0  0  0  0  0  0  0
    6.6033    7.9321   11.1907 C   0  0  0  0  0  0  0  0  0  0  0  0
    5.4689    7.1713   11.3731 C   0  0  0  0  0  0  0  0  0  0  0  0
    5.1259    6.1986   10.4624 F   0  0  0  0  0  0  0  0  0  0  0  0
    3.5210    2.3608   17.8559 C   0  0  0  0  0  0  0  0  0  0  0  0
    3.4738    1.1754   18.5979 C   0  0  0  0  0  0  0  0  0  0  0  0
    2.9952   -0.0113   18.0686 C   0  0  0  0  0  0  0  0  0  0  0  0
    2.5572   -0.0652   16.8176 N   0  0  0  0  0  0  0  0  0  0  0  0
    2.5888    1.0673   16.0788 C   0  0  0  0  0  0  0  0  0  0  0  0
    3.0412    2.2489   16.5530 C   0  0  0  0  0  0  0  0  0  0  0  0
    5.8628    3.4842   21.8050 C   0  0  0  0  0  0  0  0  0  0  0  0
    5.5935    4.1220   20.3985 C   0  0  0  0  0  0  0  0  0  0  0  0
    4.7161    5.3522   20.6499 C   0  0  0  0  0  0  0  0  0  0  0  0
    4.1795    5.7991   19.3446 C   0  0  0  0  0  0  0  0  0  0  0  0
    3.4707    7.0244   19.4293 N   0  0  0  0  0  0  0  0  0  0  0  0
    3.2635    4.7104   18.7224 C   0  0  0  0  0  0  0  0  0  0  0  0
    4.1798    3.5662   18.3000 C   0  0  0  0  0  0  0  0  0  0  0  0
    4.8096    3.1106   19.6780 C   0  0  0  0  0  0  0  0  0  0  0  0
    3.1079    7.3700   18.5014 H   0  0  0  0  0  0  0  0  0  0  0  0
    3.8808    7.7748   19.9985 H   0  0  0  0  0  0  0  0  0  0  0  0
 26 27  1  0  0  0
 27 28  1  0  0  0
 28 29  1  0  0  0
 29 30  1  0  0  0
 29 31  1  0  0  0
 31 32  1  0  0  0
 32 20  1  0  0  0
 20 21  2  0  0  0
 21 22  1  0  0  0
 22 23  2  0  0  0
 23 24  1  0  0  0
 24 25  2  0  0  0
 25  1  1  0  0  0
  1  2  1  0  0  0
  2  3  2  0  0  0
  2  5  1  0  0  0
  5  6  2  0  0  0
  6  7  1  0  0  0
  7 12  1  0  0  0
 12 13  2  0  0  0
 13 14  1  0  0  0
 13 15  1  0  0  0
 15 16  2  0  0  0
 16 17  1  0  0  0
 17 18  2  0  0  0
 18 19  1  0  0  0
  7  8  2  0  0  0
  8  9  1  0  0  0
  9 10  2  0  0  0
 10 11  1  0  0  0
 32 33  1  0  0  0
 33 27  1  0  0  0
 25 20  1  0  0  0
 10  5  1  0  0  0
 18 12  1  0  0  0
 30 34  1  0  0  0
 30 35  1  0  0  0
  1  4  1  0  0  0
M  END
> <minimizedAffinity>
-8.47718

> <CNNscore>
0.3513451219

> <CNNaffinity>
6.7110848427

> <CNN_VS>
2.3579068184

> <CNNaffinity_variance>
0.4328371882

$$$$
[H]c1nc([H])c(N([H])C(=O)c2nc(-c3c(F)c([H])c([H])c([H])c3F)c([H])c([H])c2F)c([C@@]2([H])C([H])([H])[C@@]([H])(N([H])[H])C([H])([H])[C@@]([H])(C([H])([H])[H])C2([H])[H])c1[H]


 35 38  0  0  0  0  0  0  0  0999 V2000
    4.1565    3.6006   16.1482 N   0  0  0  0  0  0  0  0  0  0  0  0
    3.0333    3.2985   15.3716 C   0  0  0  0  0  0  0  0  0  0  0  0
    2.0997    2.5546   15.8821 O   0  0  0  0  0  0  0  0  0  0  0  0
    4.8946    4.2095   15.7271 H   0  0  0  0  0  0  0  0  0  0  0  0
    2.7349    3.7242   14.0140 C   0  0  0  0  0  0  0  0  0  0  0  0
    2.8955    2.8527   13.0018 N   0  0  0  0  0  0  0  0  0  0  0  0
    2.6683    3.0741   11.7054 C   0  0  0  0  0  0  0  0  0  0  0  0
    2.2194    4.3603   11.3709 C   0  0  0  0  0  0  0  0  0  0  0  0
    2.0331    5.3099   12.3541 C   0  0  0  0  0  0  0  0  0  0  0  0
    2.2992    4.9663   13.6760 C   0  0  0  0  0  0  0  0  0  0  0  0
    2.1019    5.9518   14.6313 F   0  0  0  0  0  0  0  0  0  0  0  0
    2.8053    2.0838   10.6592 C   0  0  0  0  0  0  0  0  0  0  0  0
    1.8221    1.1358   10.4160 C   0  0  0  0  0  0  0  0  0  0  0  0
    0.7004    1.0874   11.1950 F   0  0  0  0  0  0  0  0  0  0  0  0
    1.9116    0.2017    9.4108 C   0  0  0  0  0  0  0  0  0  0  0  0
    3.0016    0.1727    8.5910 C   0  0  0  0  0  0  0  0  0  0  0  0
    4.0117    1.1112    8.8091 C   0  0  0  0  0  0  0  0  0  0  0  0
    3.8932    2.0346    9.8251 C   0  0  0  0  0  0  0  0  0  0  0  0
    4.8847    2.9628   10.0451 F   0  0  0  0  0  0  0  0  0  0  0  0
    4.2231    4.0604   18.4705 C   0  0  0  0  0  0  0  0  0  0  0  0
    4.2449    3.5383   19.7686 C   0  0  0  0  0  0  0  0  0  0  0  0
    4.3263    2.1788   20.0189 C   0  0  0  0  0  0  0  0  0  0  0  0
    4.3872    1.3099   19.0185 N   0  0  0  0  0  0  0  0  0  0  0  0
    4.3648    1.7876   17.7533 C   0  0  0  0  0  0  0  0  0  0  0  0
    4.2806    3.1038   17.4597 C   0  0  0  0  0  0  0  0  0  0  0  0
    7.7448    7.1888   18.8598 C   0  0  0  0  0  0  0  0  0  0  0  0
    6.3082    7.1359   18.2347 C   0  0  0  0  0  0  0  0  0  0  0  0
    5.4501    8.1017   19.0576 C   0  0  0  0  0  0  0  0  0  0  0  0
    4.0321    7.8519   18.7137 C   0  0  0  0  0  0  0  0  0  0  0  0
    3.1473    8.7909   19.3024 N   0  0  0  0  0  0  0  0  0  0  0  0
    3.6104    6.4139   19.1208 C   0  0  0  0  0  0  0  0  0  0  0  0
    4.3279    5.4671   18.1638 C   0  0  0  0  0  0  0  0  0  0  0  0
    5.8509    5.7612   18.4752 C   0  0  0  0  0  0  0  0  0  0  0  0
    2.1363    8.6427   19.0421 H   0  0  0  0  0  0  0  0  0  0  0  0
    3.4202    9.7810   19.2832 H   0  0  0  0  0  0  0  0  0  0  0  0
 26 27  1  0  0  0
 27 28  1  0  0  0
 28 29  1  0  0  0
 29 30  1  0  0  0
 29 31  1  0  0  0
 31 32  1  0  0  0
 32 20  1  0  0  0
 20 21  2  0  0  0
 21 22  1  0  0  0
 22 23  2  0  0  0
 23 24  1  0  0  0
 24 25  2  0  0  0
 25  1  1  0  0  0
  1  2  1  0  0  0
  2  3  2  0  0  0
  2  5  1  0  0  0
  5  6  2  0  0  0
  6  7  1  0  0  0
  7 12  1  0  0  0
 12 13  2  0  0  0
 13 14  1  0  0  0
 13 15  1  0  0  0
 15 16  2  0  0  0
 16 17  1  0  0  0
 17 18  2  0  0  0
 18 19  1  0  0  0
  7  8  2  0  0  0
  8  9  1  0  0  0
  9 10  2  0  0  0
 10 11  1  0  0  0
 32 33  1  0  0  0
 33 27  1  0  0  0
 25 20  1  0  0  0
 10  5  1  0  0  0
 18 12  1  0  0  0
 30 34  1  0  0  0
 30 35  1  0  0  0
  1  4  1  0  0  0
M  END
> <minimizedAffinity>
-8.22416

> <CNNscore>
0.3398865759

> <CNNaffinity>
6.6762390137

> <CNN_VS>
2.2691640854

> <CNNaffinity_variance>
0.3368383944

$$$$
[H]c1nc([H])c(N([H])C(=O)c2nc(-c3c(F)c([H])c([H])c([H])c3F)c([H])c([H])c2F)c([C@@]2([H])C([H])([H])[C@@]([H])(N([H])[H])C([H])([H])[C@@]([H])(C([H])([H])[H])C2([H])[H])c1[H]


 35 38  0  0  0  0  0  0  0  0999 V2000
    3.6902    3.4907   16.4434 N   0  0  0  0  0  0  0  0  0  0  0  0
    3.5025    2.6133   15.3706 C   0  0  0  0  0  0  0  0  0  0  0  0
    3.5348    1.3347   15.5934 O   0  0  0  0  0  0  0  0  0  0  0  0
    3.6507    4.5173   16.2501 H   0  0  0  0  0  0  0  0  0  0  0  0
    3.2522    2.9357   13.9754 C   0  0  0  0  0  0  0  0  0  0  0  0
    4.0065    3.8720   13.3718 N   0  0  0  0  0  0  0  0  0  0  0  0
    3.9148    4.2867   12.1066 C   0  0  0  0  0  0  0  0  0  0  0  0
    2.9161    3.6789   11.3313 C   0  0  0  0  0  0  0  0  0  0  0  0
    2.1007    2.7116   11.8811 C   0  0  0  0  0  0  0  0  0  0  0  0
    2.2889    2.3548   13.2129 C   0  0  0  0  0  0  0  0  0  0  0  0
    1.4453    1.3811   13.7258 F   0  0  0  0  0  0  0  0  0  0  0  0
    4.7881    5.2611   11.4886 C   0  0  0  0  0  0  0  0  0  0  0  0
    4.5554    6.6244   11.5964 C   0  0  0  0  0  0  0  0  0  0  0  0
    3.4576    7.0878   12.2654 F   0  0  0  0  0  0  0  0  0  0  0  0
    5.3834    7.5736   11.0448 C   0  0  0  0  0  0  0  0  0  0  0  0
    6.4974    7.1990   10.3522 C   0  0  0  0  0  0  0  0  0  0  0  0
    6.7609    5.8343   10.2222 C   0  0  0  0  0  0  0  0  0  0  0  0
    5.9118    4.9069   10.7860 C   0  0  0  0  0  0  0  0  0  0  0  0
    6.1660    3.5604   10.6621 F   0  0  0  0  0  0  0  0  0  0  0  0
    4.0602    3.9713   18.7327 C   0  0  0  0  0  0  0  0  0  0  0  0
    4.1822    3.4656   20.0318 C   0  0  0  0  0  0  0  0  0  0  0  0
    4.1695    2.1076   20.3022 C   0  0  0  0  0  0  0  0  0  0  0  0
    4.0387    1.2244   19.3211 N   0  0  0  0  0  0  0  0  0  0  0  0
    3.9160    1.6863   18.0559 C   0  0  0  0  0  0  0  0  0  0  0  0
    3.9172    3.0010   17.7437 C   0  0  0  0  0  0  0  0  0  0  0  0
    7.7106    6.9339   19.2221 C   0  0  0  0  0  0  0  0  0  0  0  0
    6.3115    6.9289   18.5151 C   0  0  0  0  0  0  0  0  0  0  0  0
    5.4585    7.9661   19.2519 C   0  0  0  0  0  0  0  0  0  0  0  0
    4.0516    7.7741   18.8333 C   0  0  0  0  0  0  0  0  0  0  0  0
    3.1841    8.7771   19.3358 N   0  0  0  0  0  0  0  0  0  0  0  0
    3.5335    6.3750   19.2640 C   0  0  0  0  0  0  0  0  0  0  0  0
    4.2550    5.3587   18.3844 C   0  0  0  0  0  0  0  0  0  0  0  0
    5.7708    5.5885   18.7753 C   0  0  0  0  0  0  0  0  0  0  0  0
    2.1834    8.6696   19.0212 H   0  0  0  0  0  0  0  0  0  0  0  0
    3.5084    9.7512   19.2987 H   0  0  0  0  0  0  0  0  0  0  0  0
 26 27  1  0  0  0
 27 28  1  0  0  0
 28 29  1  0  0  0
 29 30  1  0  0  0
 29 31  1  0  0  0
 31 32  1  0  0  0
 32 20  1  0  0  0
 20 21  2  0  0  0
 21 22  1  0  0  0
 22 23  2  0  0  0
 23 24  1  0  0  0
 24 25  2  0  0  0
 25  1  1  0  0  0
  1  2  1  0  0  0
  2  3  2  0  0  0
  2  5  1  0  0  0
  5  6  2  0  0  0
  6  7  1  0  0  0
  7 12  1  0  0  0
 12 13  2  0  0  0
 13 14  1  0  0  0
 13 15  1  0  0  0
 15 16  2  0  0  0
 16 17  1  0  0  0
 17 18  2  0  0  0
 18 19  1  0  0  0
  7  8  2  0  0  0
  8  9  1  0  0  0
  9 10  2  0  0  0
 10 11  1  0  0  0
 32 33  1  0  0  0
 33 27  1  0  0  0
 25 20  1  0  0  0
 10  5  1  0  0  0
 18 12  1  0  0  0
 30 34  1  0  0  0
 30 35  1  0  0  0
  1  4  1  0  0  0
M  END
> <minimizedAffinity>
-8.74522

> <CNNscore>
0.3322341740

> <CNNaffinity>
6.7877807617

> <CNN_VS>
2.2551326752

> <CNNaffinity_variance>
0.3565810025

$$$$
[H]c1nc([H])c(N([H])C(=O)c2nc(-c3c(F)c([H])c([H])c([H])c3F)c([H])c([H])c2F)c([C@@]2([H])C([H])([H])[C@@]([H])(N([H])[H])C([H])([H])[C@@]([H])(C([H])([H])[H])C2([H])[H])c1[H]


 35 38  0  0  0  0  0  0  0  0999 V2000
    3.0374    3.7436   15.9442 N   0  0  0  0  0  0  0  0  0  0  0  0
    2.2961    3.5463   14.7748 C   0  0  0  0  0  0  0  0  0  0  0  0
    1.8641    2.3531   14.5002 O   0  0  0  0  0  0  0  0  0  0  0  0
    3.3691    4.7119   16.1571 H   0  0  0  0  0  0  0  0  0  0  0  0
    1.9076    4.5293   13.7769 C   0  0  0  0  0  0  0  0  0  0  0  0
    0.6565    4.5049   13.2827 N   0  0  0  0  0  0  0  0  0  0  0  0
    0.1356    5.3272   12.3697 C   0  0  0  0  0  0  0  0  0  0  0  0
    0.9956    6.3176   11.8724 C   0  0  0  0  0  0  0  0  0  0  0  0
    2.2945    6.4045   12.3290 C   0  0  0  0  0  0  0  0  0  0  0  0
    2.7300    5.4938   13.2868 C   0  0  0  0  0  0  0  0  0  0  0  0
    4.0433    5.6151   13.7151 F   0  0  0  0  0  0  0  0  0  0  0  0
   -1.2361    5.2927   11.9099 C   0  0  0  0  0  0  0  0  0  0  0  0
   -2.2254    6.0648   12.5011 C   0  0  0  0  0  0  0  0  0  0  0  0
   -1.9337    6.8597   13.5737 F   0  0  0  0  0  0  0  0  0  0  0  0
   -3.5302    6.0745   12.0674 C   0  0  0  0  0  0  0  0  0  0  0  0
   -3.9110    5.3039   11.0080 C   0  0  0  0  0  0  0  0  0  0  0  0
   -2.9410    4.5122   10.3906 C   0  0  0  0  0  0  0  0  0  0  0  0
   -1.6414    4.5237   10.8488 C   0  0  0  0  0  0  0  0  0  0  0  0
   -0.6804    3.7464   10.2444 F   0  0  0  0  0  0  0  0  0  0  0  0
    3.8565    3.0199   18.0452 C   0  0  0  0  0  0  0  0  0  0  0  0
    4.0333    1.9493   18.9287 C   0  0  0  0  0  0  0  0  0  0  0  0
    3.7053    0.6473   18.5899 C   0  0  0  0  0  0  0  0  0  0  0  0
    3.2033    0.3661   17.3947 N   0  0  0  0  0  0  0  0  0  0  0  0
    3.0193    1.3830   16.5221 C   0  0  0  0  0  0  0  0  0  0  0  0
    3.3187    2.6690   16.8092 C   0  0  0  0  0  0  0  0  0  0  0  0
    6.3000    4.9620   21.5947 C   0  0  0  0  0  0  0  0  0  0  0  0
    5.8257    5.3700   20.1574 C   0  0  0  0  0  0  0  0  0  0  0  0
    4.7914    6.4832   20.3504 C   0  0  0  0  0  0  0  0  0  0  0  0
    4.0913    6.6784   19.0608 C   0  0  0  0  0  0  0  0  0  0  0  0
    3.2107    7.7899   19.0732 N   0  0  0  0  0  0  0  0  0  0  0  0
    3.3083    5.3991   18.6586 C   0  0  0  0  0  0  0  0  0  0  0  0
    4.3541    4.3540   18.2829 C   0  0  0  0  0  0  0  0  0  0  0  0
    5.1531    4.1730   19.6364 C   0  0  0  0  0  0  0  0  0  0  0  0
    2.7270    7.9588   18.1515 H   0  0  0  0  0  0  0  0  0  0  0  0
    3.5435    8.6578   19.5106 H   0  0  0  0  0  0  0  0  0  0  0  0
 26 27  1  0  0  0
 27 28  1  0  0  0
 28 29  1  0  0  0
 29 30  1  0  0  0
 29 31  1  0  0  0
 31 32  1  0  0  0
 32 20  1  0  0  0
 20 21  2  0  0  0
 21 22  1  0  0  0
 22 23  2  0  0  0
 23 24  1  0  0  0
 24 25  2  0  0  0
 25  1  1  0  0  0
  1  2  1  0  0  0
  2  3  2  0  0  0
  2  5  1  0  0  0
  5  6  2  0  0  0
  6  7  1  0  0  0
  7 12  1  0  0  0
 12 13  2  0  0  0
 13 14  1  0  0  0
 13 15  1  0  0  0
 15 16  2  0  0  0
 16 17  1  0  0  0
 17 18  2  0  0  0
 18 19  1  0  0  0
  7  8  2  0  0  0
  8  9  1  0  0  0
  9 10  2  0  0  0
 10 11  1  0  0  0
 32 33  1  0  0  0
 33 27  1  0  0  0
 25 20  1  0  0  0
 10  5  1  0  0  0
 18 12  1  0  0  0
 30 34  1  0  0  0
 30 35  1  0  0  0
  1  4  1  0  0  0
M  END
> <minimizedAffinity>
-8.58005

> <CNNscore>
0.3095583320

> <CNNaffinity>
6.6608138084

> <CNN_VS>
2.0619103909

> <CNNaffinity_variance>
0.4010118544

$$$$
[H]c1nc([H])c(N([H])C(=O)c2nc(-c3c(F)c([H])c([H])c([H])c3F)c([H])c([H])c2F)c([C@@]2([H])C([H])([H])[C@@]([H])(N([H])[H])C([H])([H])[C@@]([H])(C([H])([H])[H])C2([H])[H])c1[H]


 35 38  0  0  0  0  0  0  0  0999 V2000
    4.9203    3.6499   17.3616 N   0  0  0  0  0  0  0  0  0  0  0  0
    3.7413    3.8056   16.6257 C   0  0  0  0  0  0  0  0  0  0  0  0
    2.6189    3.4179   17.1506 O   0  0  0  0  0  0  0  0  0  0  0  0
    5.8146    3.9768   16.9299 H   0  0  0  0  0  0  0  0  0  0  0  0
    3.5751    4.3762   15.2991 C   0  0  0  0  0  0  0  0  0  0  0  0
    3.2657    3.5670   14.2698 N   0  0  0  0  0  0  0  0  0  0  0  0
    3.0765    3.9204   12.9968 C   0  0  0  0  0  0  0  0  0  0  0  0
    3.2247    5.2854   12.7093 C   0  0  0  0  0  0  0  0  0  0  0  0
    3.5439    6.1772   13.7122 C   0  0  0  0  0  0  0  0  0  0  0  0
    3.7153    5.6959   15.0067 C   0  0  0  0  0  0  0  0  0  0  0  0
    4.0388    6.6259   15.9830 F   0  0  0  0  0  0  0  0  0  0  0  0
    2.6911    3.0167   11.9344 C   0  0  0  0  0  0  0  0  0  0  0  0
    1.4822    2.3365   11.9552 C   0  0  0  0  0  0  0  0  0  0  0  0
    0.6294    2.4743   13.0141 F   0  0  0  0  0  0  0  0  0  0  0  0
    1.0767    1.4944   10.9466 C   0  0  0  0  0  0  0  0  0  0  0  0
    1.8707    1.2919    9.8558 C   0  0  0  0  0  0  0  0  0  0  0  0
    3.0958    1.9591    9.8032 C   0  0  0  0  0  0  0  0  0  0  0  0
    3.4745    2.7963   10.8302 C   0  0  0  0  0  0  0  0  0  0  0  0
    4.6803    3.4573   10.7843 F   0  0  0  0  0  0  0  0  0  0  0  0
    4.8142    3.9809   19.7043 C   0  0  0  0  0  0  0  0  0  0  0  0
    4.6887    3.3909   20.9669 C   0  0  0  0  0  0  0  0  0  0  0  0
    4.6589    2.0178   21.1432 C   0  0  0  0  0  0  0  0  0  0  0  0
    4.7498    1.2007   20.1022 N   0  0  0  0  0  0  0  0  0  0  0  0
    4.8690    1.7447   18.8697 C   0  0  0  0  0  0  0  0  0  0  0  0
    4.8970    3.0772   18.6475 C   0  0  0  0  0  0  0  0  0  0  0  0
    6.8083    7.3634   22.3357 C   0  0  0  0  0  0  0  0  0  0  0  0
    6.2696    7.2027   20.8723 C   0  0  0  0  0  0  0  0  0  0  0  0
    5.0347    8.1033   20.7720 C   0  0  0  0  0  0  0  0  0  0  0  0
    4.3159    7.7482   19.5275 C   0  0  0  0  0  0  0  0  0  0  0  0
    3.2329    8.6196   19.2474 N   0  0  0  0  0  0  0  0  0  0  0  0
    3.8034    6.2834   19.5849 C   0  0  0  0  0  0  0  0  0  0  0  0
    5.0370    5.3911   19.4901 C   0  0  0  0  0  0  0  0  0  0  0  0
    5.8495    5.7982   20.7852 C   0  0  0  0  0  0  0  0  0  0  0  0
    2.7298    8.3963   18.3479 H   0  0  0  0  0  0  0  0  0  0  0  0
    3.3854    9.6274   19.3761 H   0  0  0  0  0  0  0  0  0  0  0  0
 26 27  1  0  0  0
 27 28  1  0  0  0
 28 29  1  0  0  0
 29 30  1  0  0  0
 29 31  1  0  0  0
 31 32  1  0  0  0
 32 20  1  0  0  0
 20 21  2  0  0  0
 21 22  1  0  0  0
 22 23  2  0  0  0
 23 24  1  0  0  0
 24 25  2  0  0  0
 25  1  1  0  0  0
  1  2  1  0  0  0
  2  3  2  0  0  0
  2  5  1  0  0  0
  5  6  2  0  0  0
  6  7  1  0  0  0
  7 12  1  0  0  0
 12 13  2  0  0  0
 13 14  1  0  0  0
 13 15  1  0  0  0
 15 16  2  0  0  0
 16 17  1  0  0  0
 17 18  2  0  0  0
 18 19  1  0  0  0
  7  8  2  0  0  0
  8  9  1  0  0  0
  9 10  2  0  0  0
 10 11  1  0  0  0
 32 33  1  0  0  0
 33 27  1  0  0  0
 25 20  1  0  0  0
 10  5  1  0  0  0
 18 12  1  0  0  0
 30 34  1  0  0  0
 30 35  1  0  0  0
  1  4  1  0  0  0
M  END
> <minimizedAffinity>
-8.31340

> <CNNscore>
0.3075872362

> <CNNaffinity>
6.6057267189

> <CNN_VS>
2.0318372250

> <CNNaffinity_variance>
0.8161357045

$$$$
[H]OC(=O)C1(C([H])([H])c2c([H])nc(OC([H])([H])C([H])([H])c3nc(-c4c([H])c([H])c([H])c(Cl)c4[H])oc3C([H])([H])[H])c([H])c2[H])OC([H])([H])C([H])([H])C1([H])[H]


 32 35  0  0  0  0  0  0  0  0999 V2000
    3.0986    0.5484   17.4594 O   0  0  0  0  0  0  0  0  0  0  0  0
    3.7643    1.3267   18.3903 C   0  0  0  0  0  0  0  0  0  0  0  0
    4.4459    2.4762   17.9579 C   0  0  0  0  0  0  0  0  0  0  0  0
    5.1191    3.2718   18.8652 C   0  0  0  0  0  0  0  0  0  0  0  0
    5.1477    2.9727   20.2120 C   0  0  0  0  0  0  0  0  0  0  0  0
    4.4695    1.8429   20.5817 C   0  0  0  0  0  0  0  0  0  0  0  0
    3.8189    1.0765   19.6958 N   0  0  0  0  0  0  0  0  0  0  0  0
    5.8584    3.8189   21.1702 C   0  0  0  0  0  0  0  0  0  0  0  0
    5.0412    4.6553   22.0851 C   0  0  0  0  0  0  0  0  0  0  0  0
    5.8457    5.8451   22.5868 C   0  0  0  0  0  0  0  0  0  0  0  0
    5.8214    6.7250   21.3525 C   0  0  0  0  0  0  0  0  0  0  0  0
    4.5263    6.3472   20.7211 C   0  0  0  0  0  0  0  0  0  0  0  0
    4.0054    5.2327   21.3286 O   0  0  0  0  0  0  0  0  0  0  0  0
    4.3969    3.9406   23.2063 C   0  0  0  0  0  0  0  0  0  0  0  0
    3.1695    4.1476   23.5083 O   0  0  0  0  0  0  0  0  0  0  0  0
    5.0312    3.0119   24.0148 O   0  0  0  0  0  0  0  0  0  0  0  0
    4.5266    2.1642   24.2328 H   0  0  0  0  0  0  0  0  0  0  0  0
    2.9956    0.7850   16.0888 C   0  0  0  0  0  0  0  0  0  0  0  0
    2.0012    1.9121   15.8506 C   0  0  0  0  0  0  0  0  0  0  0  0
    3.8897    4.0522   14.5029 C   0  0  0  0  0  0  0  0  0  0  0  0
    2.8963    3.1839   13.8183 C   0  0  0  0  0  0  0  0  0  0  0  0
    2.6339    3.1609   12.5428 O   0  0  0  0  0  0  0  0  0  0  0  0
    1.7100    2.2860   12.2616 C   0  0  0  0  0  0  0  0  0  0  0  0
    1.3546    1.7100   13.4208 N   0  0  0  0  0  0  0  0  0  0  0  0
    2.0730    2.2424   14.4242 C   0  0  0  0  0  0  0  0  0  0  0  0
    1.1587    1.9802   10.9500 C   0  0  0  0  0  0  0  0  0  0  0  0
    1.0553    2.8996    9.9292 C   0  0  0  0  0  0  0  0  0  0  0  0
    0.5294    2.5769    8.6948 C   0  0  0  0  0  0  0  0  0  0  0  0
    0.0791    1.3006    8.4307 C   0  0  0  0  0  0  0  0  0  0  0  0
    0.1676    0.3489    9.4344 C   0  0  0  0  0  0  0  0  0  0  0  0
   -0.3936   -1.2965    9.1478 Cl  0  0  0  0  0  0  0  0  0  0  0  0
    0.6959    0.6928   10.6590 C   0  0  0  0  0  0  0  0  0  0  0  0
 20 21  1  0  0  0
 21 22  1  0  0  0
 22 23  1  0  0  0
 23 26  1  0  0  0
 26 27  2  0  0  0
 27 28  1  0  0  0
 28 29  2  0  0  0
 29 30  1  0  0  0
 30 31  1  0  0  0
 30 32  2  0  0  0
 23 24  2  0  0  0
 24 25  1  0  0  0
 25 19  1  0  0  0
 19 18  1  0  0  0
 18  1  1  0  0  0
  1  2  1  0  0  0
  2  3  2  0  0  0
  3  4  1  0  0  0
  4  5  2  0  0  0
  5  8  1  0  0  0
  8  9  1  0  0  0
  9 14  1  0  0  0
 14 15  2  0  0  0
 14 16  1  0  0  0
  9 10  1  0  0  0
 10 11  1  0  0  0
 11 12  1  0  0  0
 12 13  1  0  0  0
  5  6  1  0  0  0
  6  7  2  0  0  0
 25 21  2  0  0  0
  7  2  1  0  0  0
 32 26  1  0  0  0
 13  9  1  0  0  0
 16 17  1  0  0  0
M  END
> <minimizedAffinity>
-7.34563

> <CNNscore>
0.3519181609

> <CNNaffinity>
5.9456186295

> <CNN_VS>
2.0923712254

> <CNNaffinity_variance>
0.3198427558

$$$$
[H]OC(=O)C1(C([H])([H])c2c([H])nc(OC([H])([H])C([H])([H])c3nc(-c4c([H])c([H])c([H])c(Cl)c4[H])oc3C([H])([H])[H])c([H])c2[H])OC([H])([H])C([H])([H])C1([H])[H]


 32 35  0  0  0  0  0  0  0  0999 V2000
    2.6973    5.0416   15.5371 O   0  0  0  0  0  0  0  0  0  0  0  0
    3.2313    5.8483   16.5269 C   0  0  0  0  0  0  0  0  0  0  0  0
    3.0153    5.5117   17.8734 C   0  0  0  0  0  0  0  0  0  0  0  0
    3.5365    6.2988   18.8824 C   0  0  0  0  0  0  0  0  0  0  0  0
    4.2788    7.4300   18.6108 C   0  0  0  0  0  0  0  0  0  0  0  0
    4.4599    7.7145   17.2844 C   0  0  0  0  0  0  0  0  0  0  0  0
    3.9512    6.9461   16.3116 N   0  0  0  0  0  0  0  0  0  0  0  0
    4.8320    8.2590   19.6813 C   0  0  0  0  0  0  0  0  0  0  0  0
    5.9290    7.6822   20.4988 C   0  0  0  0  0  0  0  0  0  0  0  0
    6.8618    6.8484   19.6331 C   0  0  0  0  0  0  0  0  0  0  0  0
    7.6273    7.9495   18.9261 C   0  0  0  0  0  0  0  0  0  0  0  0
    7.6041    9.0467   19.9331 C   0  0  0  0  0  0  0  0  0  0  0  0
    6.7330    8.7447   20.9492 O   0  0  0  0  0  0  0  0  0  0  0  0
    5.5092    6.9319   21.7004 C   0  0  0  0  0  0  0  0  0  0  0  0
    6.3593    6.2967   22.4175 O   0  0  0  0  0  0  0  0  0  0  0  0
    4.2037    6.8409   22.1541 O   0  0  0  0  0  0  0  0  0  0  0  0
    4.0480    6.9505   23.1464 H   0  0  0  0  0  0  0  0  0  0  0  0
    3.1303    4.9382   14.2154 C   0  0  0  0  0  0  0  0  0  0  0  0
    3.9780    3.6834   14.0650 C   0  0  0  0  0  0  0  0  0  0  0  0
    1.5730    1.6645   13.7440 C   0  0  0  0  0  0  0  0  0  0  0  0
    2.4381    1.8364   14.9405 C   0  0  0  0  0  0  0  0  0  0  0  0
    2.3483    1.1831   16.0636 O   0  0  0  0  0  0  0  0  0  0  0  0
    3.2566    1.5699   16.9143 C   0  0  0  0  0  0  0  0  0  0  0  0
    3.9750    2.5275   16.3070 N   0  0  0  0  0  0  0  0  0  0  0  0
    3.4969    2.7277   15.0670 C   0  0  0  0  0  0  0  0  0  0  0  0
    3.4653    1.0706   18.2652 C   0  0  0  0  0  0  0  0  0  0  0  0
    2.6773    0.1074   18.8562 C   0  0  0  0  0  0  0  0  0  0  0  0
    2.9035   -0.3467   20.1396 C   0  0  0  0  0  0  0  0  0  0  0  0
    3.9440    0.1544   20.8931 C   0  0  0  0  0  0  0  0  0  0  0  0
    4.7579    1.1252   20.3308 C   0  0  0  0  0  0  0  0  0  0  0  0
    6.1011    1.7979   21.2515 Cl  0  0  0  0  0  0  0  0  0  0  0  0
    4.5140    1.5639   19.0483 C   0  0  0  0  0  0  0  0  0  0  0  0
 20 21  1  0  0  0
 21 22  1  0  0  0
 22 23  1  0  0  0
 23 26  1  0  0  0
 26 27  2  0  0  0
 27 28  1  0  0  0
 28 29  2  0  0  0
 29 30  1  0  0  0
 30 31  1  0  0  0
 30 32  2  0  0  0
 23 24  2  0  0  0
 24 25  1  0  0  0
 25 19  1  0  0  0
 19 18  1  0  0  0
 18  1  1  0  0  0
  1  2  1  0  0  0
  2  3  2  0  0  0
  3  4  1  0  0  0
  4  5  2  0  0  0
  5  8  1  0  0  0
  8  9  1  0  0  0
  9 14  1  0  0  0
 14 15  2  0  0  0
 14 16  1  0  0  0
  9 10  1  0  0  0
 10 11  1  0  0  0
 11 12  1  0  0  0
 12 13  1  0  0  0
  5  6  1  0  0  0
  6  7  2  0  0  0
 25 21  2  0  0  0
  7  2  1  0  0  0
 32 26  1  0  0  0
 13  9  1  0  0  0
 16 17  1  0  0  0
M  END
> <minimizedAffinity>
-8.42393

> <CNNscore>
0.3277863860

> <CNNaffinity>
6.3209872246

> <CNN_VS>
2.0719335079

> <CNNaffinity_variance>
0.1960134953

$$$$
[H]OC(=O)C1(C([H])([H])c2c([H])nc(OC([H])([H])C([H])([H])c3nc(-c4c([H])c([H])c([H])c(Cl)c4[H])oc3C([H])([H])[H])c([H])c2[H])OC([H])([H])C([H])([H])C1([H])[H]


 32 35  0  0  0  0  0  0  0  0999 V2000
    3.6200    2.0333   16.3186 O   0  0  0  0  0  0  0  0  0  0  0  0
    4.1465    2.2828   17.5741 C   0  0  0  0  0  0  0  0  0  0  0  0
    4.2481    1.2267   18.4947 C   0  0  0  0  0  0  0  0  0  0  0  0
    4.7696    1.4467   19.7552 C   0  0  0  0  0  0  0  0  0  0  0  0
    5.2048    2.6943   20.1533 C   0  0  0  0  0  0  0  0  0  0  0  0
    5.0837    3.6885   19.2207 C   0  0  0  0  0  0  0  0  0  0  0  0
    4.5769    3.4672   18.0002 N   0  0  0  0  0  0  0  0  0  0  0  0
    5.7595    2.9229   21.4872 C   0  0  0  0  0  0  0  0  0  0  0  0
    4.8430    3.4475   22.5309 C   0  0  0  0  0  0  0  0  0  0  0  0
    3.5482    2.6491   22.5585 C   0  0  0  0  0  0  0  0  0  0  0  0
    4.0252    1.3887   23.2530 C   0  0  0  0  0  0  0  0  0  0  0  0
    5.1239    1.9015   24.1180 C   0  0  0  0  0  0  0  0  0  0  0  0
    5.4307    3.1964   23.7838 O   0  0  0  0  0  0  0  0  0  0  0  0
    4.5697    4.8985   22.4762 C   0  0  0  0  0  0  0  0  0  0  0  0
    3.4888    5.3518   21.9600 O   0  0  0  0  0  0  0  0  0  0  0  0
    5.4231    5.8778   22.9571 O   0  0  0  0  0  0  0  0  0  0  0  0
    5.0122    6.6306   23.4912 H   0  0  0  0  0  0  0  0  0  0  0  0
    2.5652    2.7065   15.7029 C   0  0  0  0  0  0  0  0  0  0  0  0
    2.2161    2.0012   14.4004 C   0  0  0  0  0  0  0  0  0  0  0  0
    4.0012    4.2330   13.0605 C   0  0  0  0  0  0  0  0  0  0  0  0
    2.5409    4.0285   12.8729 C   0  0  0  0  0  0  0  0  0  0  0  0
    1.7475    4.7396   12.1237 O   0  0  0  0  0  0  0  0  0  0  0  0
    0.5216    4.3007   12.1763 C   0  0  0  0  0  0  0  0  0  0  0  0
    0.5218    3.2458   13.0063 N   0  0  0  0  0  0  0  0  0  0  0  0
    1.7673    3.0386   13.4670 C   0  0  0  0  0  0  0  0  0  0  0  0
   -0.6356    4.8389   11.4769 C   0  0  0  0  0  0  0  0  0  0  0  0
   -1.9175    4.8088   11.9808 C   0  0  0  0  0  0  0  0  0  0  0  0
   -2.9940    5.3305   11.2927 C   0  0  0  0  0  0  0  0  0  0  0  0
   -2.8259    5.9116   10.0535 C   0  0  0  0  0  0  0  0  0  0  0  0
   -1.5497    5.9597    9.5151 C   0  0  0  0  0  0  0  0  0  0  0  0
   -1.2812    6.6916    7.9351 Cl  0  0  0  0  0  0  0  0  0  0  0  0
   -0.4896    5.4329   10.2191 C   0  0  0  0  0  0  0  0  0  0  0  0
 20 21  1  0  0  0
 21 22  1  0  0  0
 22 23  1  0  0  0
 23 26  1  0  0  0
 26 27  2  0  0  0
 27 28  1  0  0  0
 28 29  2  0  0  0
 29 30  1  0  0  0
 30 31  1  0  0  0
 30 32  2  0  0  0
 23 24  2  0  0  0
 24 25  1  0  0  0
 25 19  1  0  0  0
 19 18  1  0  0  0
 18  1  1  0  0  0
  1  2  1  0  0  0
  2  3  2  0  0  0
  3  4  1  0  0  0
  4  5  2  0  0  0
  5  8  1  0  0  0
  8  9  1  0  0  0
  9 14  1  0  0  0
 14 15  2  0  0  0
 14 16  1  0  0  0
  9 10  1  0  0  0
 10 11  1  0  0  0
 11 12  1  0  0  0
 12 13  1  0  0  0
  5  6  1  0  0  0
  6  7  2  0  0  0
 25 21  2  0  0  0
  7  2  1  0  0  0
 32 26  1  0  0  0
 13  9  1  0  0  0
 16 17  1  0  0  0
M  END
> <minimizedAffinity>
-7.51054

> <CNNscore>
0.2632163167

> <CNNaffinity>
5.5921387672

> <CNN_VS>
1.4719421864

> <CNNaffinity_variance>
0.4222919941

$$$$
[H]OC(=O)C1(C([H])([H])c2c([H])nc(OC([H])([H])C([H])([H])c3nc(-c4c([H])c([H])c([H])c(Cl)c4[H])oc3C([H])([H])[H])c([H])c2[H])OC([H])([H])C([H])([H])C1([H])[H]


 32 35  0  0  0  0  0  0  0  0999 V2000
    3.0580    5.0273   15.5294 O   0  0  0  0  0  0  0  0  0  0  0  0
    3.5892    5.8686   16.4914 C   0  0  0  0  0  0  0  0  0  0  0  0
    3.1478    5.7524   17.8199 C   0  0  0  0  0  0  0  0  0  0  0  0
    3.6608    6.5791   18.8011 C   0  0  0  0  0  0  0  0  0  0  0  0
    4.6127    7.5373   18.5186 C   0  0  0  0  0  0  0  0  0  0  0  0
    5.0085    7.6105   17.2105 C   0  0  0  0  0  0  0  0  0  0  0  0
    4.5064    6.8051   16.2646 N   0  0  0  0  0  0  0  0  0  0  0  0
    5.1561    8.4085   19.5603 C   0  0  0  0  0  0  0  0  0  0  0  0
    6.1442    7.8208   20.4998 C   0  0  0  0  0  0  0  0  0  0  0  0
    7.2047    7.0363   19.7418 C   0  0  0  0  0  0  0  0  0  0  0  0
    8.0344    8.1762   19.1847 C   0  0  0  0  0  0  0  0  0  0  0  0
    7.8498    9.2345   20.2163 C   0  0  0  0  0  0  0  0  0  0  0  0
    6.8554    8.8797   21.0926 O   0  0  0  0  0  0  0  0  0  0  0  0
    5.5816    7.0191   21.6060 C   0  0  0  0  0  0  0  0  0  0  0  0
    6.2786    6.1222   22.1977 O   0  0  0  0  0  0  0  0  0  0  0  0
    4.2920    7.1495   22.0947 O   0  0  0  0  0  0  0  0  0  0  0  0
    4.1734    7.1510   23.0981 H   0  0  0  0  0  0  0  0  0  0  0  0
    2.6178    3.7166   15.7125 C   0  0  0  0  0  0  0  0  0  0  0  0
    3.8192    2.7825   15.7122 C   0  0  0  0  0  0  0  0  0  0  0  0
    2.5459    0.0458   16.6354 C   0  0  0  0  0  0  0  0  0  0  0  0
    3.3338    0.9889   17.4717 C   0  0  0  0  0  0  0  0  0  0  0  0
    3.6308    0.8466   18.7318 O   0  0  0  0  0  0  0  0  0  0  0  0
    4.3351    1.8508   19.1721 C   0  0  0  0  0  0  0  0  0  0  0  0
    4.5035    2.6902   18.1382 N   0  0  0  0  0  0  0  0  0  0  0  0
    3.8921    2.1899   17.0510 C   0  0  0  0  0  0  0  0  0  0  0  0
    4.8475    2.0410   20.5209 C   0  0  0  0  0  0  0  0  0  0  0  0
    5.9857    1.4311   21.0010 C   0  0  0  0  0  0  0  0  0  0  0  0
    6.4469    1.6345   22.2856 C   0  0  0  0  0  0  0  0  0  0  0  0
    5.7752    2.4696   23.1534 C   0  0  0  0  0  0  0  0  0  0  0  0
    4.6256    3.1006   22.7046 C   0  0  0  0  0  0  0  0  0  0  0  0
    3.7306    4.1777   23.7738 Cl  0  0  0  0  0  0  0  0  0  0  0  0
    4.1832    2.8832   21.4185 C   0  0  0  0  0  0  0  0  0  0  0  0
 20 21  1  0  0  0
 21 22  1  0  0  0
 22 23  1  0  0  0
 23 26  1  0  0  0
 26 27  2  0  0  0
 27 28  1  0  0  0
 28 29  2  0  0  0
 29 30  1  0  0  0
 30 31  1  0  0  0
 30 32  2  0  0  0
 23 24  2  0  0  0
 24 25  1  0  0  0
 25 19  1  0  0  0
 19 18  1  0  0  0
 18  1  1  0  0  0
  1  2  1  0  0  0
  2  3  2  0  0  0
  3  4  1  0  0  0
  4  5  2  0  0  0
  5  8  1  0  0  0
  8  9  1  0  0  0
  9 14  1  0  0  0
 14 15  2  0  0  0
 14 16  1  0  0  0
  9 10  1  0  0  0
 10 11  1  0  0  0
 11 12  1  0  0  0
 12 13  1  0  0  0
  5  6  1  0  0  0
  6  7  2  0  0  0
 25 21  2  0  0  0
  7  2  1  0  0  0
 32 26  1  0  0  0
 13  9  1  0  0  0
 16 17  1  0  0  0
M  END
> <minimizedAffinity>
-8.82095

> <CNNscore>
0.2625316679

> <CNNaffinity>
6.1028413773

> <CNN_VS>
1.6021891832

> <CNNaffinity_variance>
0.5316780210

$$$$
[H]OC(=O)C1(C([H])([H])c2c([H])nc(OC([H])([H])C([H])([H])c3nc(-c4c([H])c([H])c([H])c(Cl)c4[H])oc3C([H])([H])[H])c([H])c2[H])OC([H])([H])C([H])([H])C1([H])[H]


 32 35  0  0  0  0  0  0  0  0999 V2000
    4.6113    2.8556   23.3889 O   0  0  0  0  0  0  0  0  0  0  0  0
    4.9660    4.0451   22.7767 C   0  0  0  0  0  0  0  0  0  0  0  0
    3.9636    4.9780   22.4634 C   0  0  0  0  0  0  0  0  0  0  0  0
    4.2887    6.1737   21.8521 C   0  0  0  0  0  0  0  0  0  0  0  0
    5.5919    6.4937   21.5300 C   0  0  0  0  0  0  0  0  0  0  0  0
    6.5300    5.5518   21.8551 C   0  0  0  0  0  0  0  0  0  0  0  0
    6.2068    4.3945   22.4481 N   0  0  0  0  0  0  0  0  0  0  0  0
    5.9329    7.7619   20.8859 C   0  0  0  0  0  0  0  0  0  0  0  0
    5.5942    7.9144   19.4484 C   0  0  0  0  0  0  0  0  0  0  0  0
    6.3158    9.1132   18.8513 C   0  0  0  0  0  0  0  0  0  0  0  0
    7.7157    8.5460   18.7210 C   0  0  0  0  0  0  0  0  0  0  0  0
    7.4503    7.0949   18.5150 C   0  0  0  0  0  0  0  0  0  0  0  0
    6.1308    6.8105   18.7615 O   0  0  0  0  0  0  0  0  0  0  0  0
    4.1523    7.9503   19.1280 C   0  0  0  0  0  0  0  0  0  0  0  0
    3.6019    7.0225   18.4376 O   0  0  0  0  0  0  0  0  0  0  0  0
    3.2836    8.9538   19.5245 O   0  0  0  0  0  0  0  0  0  0  0  0
    2.3818    8.6728   19.8829 H   0  0  0  0  0  0  0  0  0  0  0  0
    3.4602    2.1035   23.1560 C   0  0  0  0  0  0  0  0  0  0  0  0
    3.8578    0.7383   22.6136 C   0  0  0  0  0  0  0  0  0  0  0  0
    6.8154    0.9586   21.5334 C   0  0  0  0  0  0  0  0  0  0  0  0
    5.5659    1.0442   20.7328 C   0  0  0  0  0  0  0  0  0  0  0  0
    5.4794    1.2279   19.4463 O   0  0  0  0  0  0  0  0  0  0  0  0
    4.2380    1.2549   19.0508 C   0  0  0  0  0  0  0  0  0  0  0  0
    3.4782    1.0784   20.1432 N   0  0  0  0  0  0  0  0  0  0  0  0
    4.2689    0.9419   21.2214 C   0  0  0  0  0  0  0  0  0  0  0  0
    3.7523    1.4400   17.6915 C   0  0  0  0  0  0  0  0  0  0  0  0
    2.9708    0.5214   17.0255 C   0  0  0  0  0  0  0  0  0  0  0  0
    2.5240    0.7283   15.7363 C   0  0  0  0  0  0  0  0  0  0  0  0
    2.8479    1.8814   15.0530 C   0  0  0  0  0  0  0  0  0  0  0  0
    3.6329    2.8284   15.6918 C   0  0  0  0  0  0  0  0  0  0  0  0
    4.0747    4.3189   14.8626 Cl  0  0  0  0  0  0  0  0  0  0  0  0
    4.0679    2.6013   16.9787 C   0  0  0  0  0  0  0  0  0  0  0  0
 20 21  1  0  0  0
 21 22  1  0  0  0
 22 23  1  0  0  0
 23 26  1  0  0  0
 26 27  2  0  0  0
 27 28  1  0  0  0
 28 29  2  0  0  0
 29 30  1  0  0  0
 30 31  1  0  0  0
 30 32  2  0  0  0
 23 24  2  0  0  0
 24 25  1  0  0  0
 25 19  1  0  0  0
 19 18  1  0  0  0
 18  1  1  0  0  0
  1  2  1  0  0  0
  2  3  2  0  0  0
  3  4  1  0  0  0
  4  5  2  0  0  0
  5  8  1  0  0  0
  8  9  1  0  0  0
  9 14  1  0  0  0
 14 15  2  0  0  0
 14 16  1  0  0  0
  9 10  1  0  0  0
 10 11  1  0  0  0
 11 12  1  0  0  0
 12 13  1  0  0  0
  5  6  1  0  0  0
  6  7  2  0  0  0
 25 21  2  0  0  0
  7  2  1  0  0  0
 32 26  1  0  0  0
 13  9  1  0  0  0
 16 17  1  0  0  0
M  END
> <minimizedAffinity>
-8.51000

> <CNNscore>
0.2588535547

> <CNNaffinity>
6.1638131142

> <CNN_VS>
1.5955249071

> <CNNaffinity_variance>
0.4540113807

$$$$
[H]OC(=O)C1(C([H])([H])c2c([H])nc(OC([H])([H])C([H])([H])c3nc(-c4c([H])c([H])c([H])c(Cl)c4[H])oc3C([H])([H])[H])c([H])c2[H])OC([H])([H])C([H])([H])C1([H])[H]


 32 35  0  0  0  0  0  0  0  0999 V2000
    3.5098    1.9890   16.3946 O   0  0  0  0  0  0  0  0  0  0  0  0
    4.0655    2.2580   17.6333 C   0  0  0  0  0  0  0  0  0  0  0  0
    4.1607    1.2236   18.5788 C   0  0  0  0  0  0  0  0  0  0  0  0
    4.7110    1.4634   19.8233 C   0  0  0  0  0  0  0  0  0  0  0  0
    5.1816    2.7103   20.1811 C   0  0  0  0  0  0  0  0  0  0  0  0
    5.0653    3.6831   19.2255 C   0  0  0  0  0  0  0  0  0  0  0  0
    4.5305    3.4427   18.0207 N   0  0  0  0  0  0  0  0  0  0  0  0
    5.7666    2.9598   21.4982 C   0  0  0  0  0  0  0  0  0  0  0  0
    4.8664    3.4687   22.5636 C   0  0  0  0  0  0  0  0  0  0  0  0
    3.5775    2.6616   22.6079 C   0  0  0  0  0  0  0  0  0  0  0  0
    4.0754    1.3979   23.2814 C   0  0  0  0  0  0  0  0  0  0  0  0
    5.1867    1.9099   24.1307 C   0  0  0  0  0  0  0  0  0  0  0  0
    5.4790    3.2098   23.8030 O   0  0  0  0  0  0  0  0  0  0  0  0
    4.5829    4.9183   22.5277 C   0  0  0  0  0  0  0  0  0  0  0  0
    3.5775    5.3827   21.8845 O   0  0  0  0  0  0  0  0  0  0  0  0
    5.3478    5.8848   23.1598 O   0  0  0  0  0  0  0  0  0  0  0  0
    4.8565    6.6120   23.6604 H   0  0  0  0  0  0  0  0  0  0  0  0
    2.6939    2.8322   15.6407 C   0  0  0  0  0  0  0  0  0  0  0  0
    2.2287    2.0928   14.3946 C   0  0  0  0  0  0  0  0  0  0  0  0
    1.5334    1.5978   11.3558 C   0  0  0  0  0  0  0  0  0  0  0  0
    2.4552    2.6278   11.9023 C   0  0  0  0  0  0  0  0  0  0  0  0
    3.1364    3.5015   11.2177 O   0  0  0  0  0  0  0  0  0  0  0  0
    3.8515    4.2644   11.9954 C   0  0  0  0  0  0  0  0  0  0  0  0
    3.6195    3.8617   13.2547 N   0  0  0  0  0  0  0  0  0  0  0  0
    2.7498    2.8372   13.2442 C   0  0  0  0  0  0  0  0  0  0  0  0
    4.7359    5.3478   11.5927 C   0  0  0  0  0  0  0  0  0  0  0  0
    4.6031    6.6476   12.0296 C   0  0  0  0  0  0  0  0  0  0  0  0
    5.4609    7.6522   11.6304 C   0  0  0  0  0  0  0  0  0  0  0  0
    6.5012    7.3902   10.7641 C   0  0  0  0  0  0  0  0  0  0  0  0
    6.6655    6.0932   10.3037 C   0  0  0  0  0  0  0  0  0  0  0  0
    7.9792    5.7057    9.1955 Cl  0  0  0  0  0  0  0  0  0  0  0  0
    5.7977    5.1059   10.7151 C   0  0  0  0  0  0  0  0  0  0  0  0
 20 21  1  0  0  0
 21 22  1  0  0  0
 22 23  1  0  0  0
 23 26  1  0  0  0
 26 27  2  0  0  0
 27 28  1  0  0  0
 28 29  2  0  0  0
 29 30  1  0  0  0
 30 31  1  0  0  0
 30 32  2  0  0  0
 23 24  2  0  0  0
 24 25  1  0  0  0
 25 19  1  0  0  0
 19 18  1  0  0  0
 18  1  1  0  0  0
  1  2  1  0  0  0
  2  3  2  0  0  0
  3  4  1  0  0  0
  4  5  2  0  0  0
  5  8  1  0  0  0
  8  9  1  0  0  0
  9 14  1  0  0  0
 14 15  2  0  0  0
 14 16  1  0  0  0
  9 10  1  0  0  0
 10 11  1  0  0  0
 11 12  1  0  0  0
 12 13  1  0  0  0
  5  6  1  0  0  0
  6  7  2  0  0  0
 25 21  2  0  0  0
  7  2  1  0  0  0
 32 26  1  0  0  0
 13  9  1  0  0  0
 16 17  1  0  0  0
M  END
> <minimizedAffinity>
-7.37872

> <CNNscore>
0.2552456856

> <CNNaffinity>
5.7035961151

> <CNN_VS>
1.4558182955

> <CNNaffinity_variance>
0.4926694334

$$$$
[H]OC(=O)C1(C([H])([H])c2c([H])nc(OC([H])([H])C([H])([H])c3nc(-c4c([H])c([H])c([H])c(Cl)c4[H])oc3C([H])([H])[H])c([H])c2[H])OC([H])([H])C([H])([H])C1([H])[H]


 32 35  0  0  0  0  0  0  0  0999 V2000
    1.8006    4.3900   14.5984 O   0  0  0  0  0  0  0  0  0  0  0  0
    1.9844    5.2786   13.5534 C   0  0  0  0  0  0  0  0  0  0  0  0
    0.9697    6.2034   13.2563 C   0  0  0  0  0  0  0  0  0  0  0  0
    1.1260    7.1023   12.2186 C   0  0  0  0  0  0  0  0  0  0  0  0
    2.2683    7.1265   11.4448 C   0  0  0  0  0  0  0  0  0  0  0  0
    3.2257    6.2057   11.7742 C   0  0  0  0  0  0  0  0  0  0  0  0
    3.0667    5.3372   12.7821 N   0  0  0  0  0  0  0  0  0  0  0  0
    2.4319    8.0817   10.3492 C   0  0  0  0  0  0  0  0  0  0  0  0
    2.1783    7.5940    8.9700 C   0  0  0  0  0  0  0  0  0  0  0  0
    2.1289    8.7569    7.9902 C   0  0  0  0  0  0  0  0  0  0  0  0
    3.6069    9.0750    7.8769 C   0  0  0  0  0  0  0  0  0  0  0  0
    4.2348    7.7450    8.1122 C   0  0  0  0  0  0  0  0  0  0  0  0
    3.3002    6.8485    8.5653 O   0  0  0  0  0  0  0  0  0  0  0  0
    1.0042    6.7123    8.8055 C   0  0  0  0  0  0  0  0  0  0  0  0
   -0.1870    7.1827    8.8211 O   0  0  0  0  0  0  0  0  0  0  0  0
    1.0702    5.3403    8.6271 O   0  0  0  0  0  0  0  0  0  0  0  0
    0.4728    4.9345    7.9206 H   0  0  0  0  0  0  0  0  0  0  0  0
    2.6591    4.1738   15.6760 C   0  0  0  0  0  0  0  0  0  0  0  0
    3.3733    2.8436   15.4857 C   0  0  0  0  0  0  0  0  0  0  0  0
    2.6637    0.0117   16.6854 C   0  0  0  0  0  0  0  0  0  0  0  0
    3.4000    1.1086   17.3666 C   0  0  0  0  0  0  0  0  0  0  0  0
    3.8762    1.0881   18.5787 O   0  0  0  0  0  0  0  0  0  0  0  0
    4.4699    2.2092   18.8769 C   0  0  0  0  0  0  0  0  0  0  0  0
    4.3726    2.9998   17.7964 N   0  0  0  0  0  0  0  0  0  0  0  0
    3.7090    2.3504   16.8247 C   0  0  0  0  0  0  0  0  0  0  0  0
    5.1179    2.5537   20.1336 C   0  0  0  0  0  0  0  0  0  0  0  0
    5.6986    1.6298   20.9745 C   0  0  0  0  0  0  0  0  0  0  0  0
    6.3079    1.9897   22.1593 C   0  0  0  0  0  0  0  0  0  0  0  0
    6.3598    3.3098   22.5544 C   0  0  0  0  0  0  0  0  0  0  0  0
    5.7856    4.2673   21.7330 C   0  0  0  0  0  0  0  0  0  0  0  0
    5.8252    5.9679   22.1920 Cl  0  0  0  0  0  0  0  0  0  0  0  0
    5.1828    3.8858   20.5549 C   0  0  0  0  0  0  0  0  0  0  0  0
 20 21  1  0  0  0
 21 22  1  0  0  0
 22 23  1  0  0  0
 23 26  1  0  0  0
 26 27  2  0  0  0
 27 28  1  0  0  0
 28 29  2  0  0  0
 29 30  1  0  0  0
 30 31  1  0  0  0
 30 32  2  0  0  0
 23 24  2  0  0  0
 24 25  1  0  0  0
 25 19  1  0  0  0
 19 18  1  0  0  0
 18  1  1  0  0  0
  1  2  1  0  0  0
  2  3  2  0  0  0
  3  4  1  0  0  0
  4  5  2  0  0  0
  5  8  1  0  0  0
  8  9  1  0  0  0
  9 14  1  0  0  0
 14 15  2  0  0  0
 14 16  1  0  0  0
  9 10  1  0  0  0
 10 11  1  0  0  0
 11 12  1  0  0  0
 12 13  1  0  0  0
  5  6  1  0  0  0
  6  7  2  0  0  0
 25 21  2  0  0  0
  7  2  1  0  0  0
 32 26  1  0  0  0
 13  9  1  0  0  0
 16 17  1  0  0  0
M  END
> <minimizedAffinity>
-7.00735

> <CNNscore>
0.2491718233

> <CNNaffinity>
5.5967016220

> <CNN_VS>
1.3945403099

> <CNNaffinity_variance>
0.4641844332

$$$$
[H]OC(=O)C1(C([H])([H])c2c([H])nc(OC([H])([H])C([H])([H])c3nc(-c4c([H])c([H])c([H])c(Cl)c4[H])oc3C([H])([H])[H])c([H])c2[H])OC([H])([H])C([H])([H])C1([H])[H]


 32 35  0  0  0  0  0  0  0  0999 V2000
    3.1052   -0.1193   19.0411 O   0  0  0  0  0  0  0  0  0  0  0  0
    3.2780    0.7125   17.9486 C   0  0  0  0  0  0  0  0  0  0  0  0
    2.4844    0.5146   16.8066 C   0  0  0  0  0  0  0  0  0  0  0  0
    2.6354    1.3299   15.7013 C   0  0  0  0  0  0  0  0  0  0  0  0
    3.5581    2.3556   15.6762 C   0  0  0  0  0  0  0  0  0  0  0  0
    4.3062    2.5062   16.8123 C   0  0  0  0  0  0  0  0  0  0  0  0
    4.1539    1.7115   17.8803 N   0  0  0  0  0  0  0  0  0  0  0  0
    3.7129    3.2190   14.5058 C   0  0  0  0  0  0  0  0  0  0  0  0
    2.9042    4.4633   14.4593 C   0  0  0  0  0  0  0  0  0  0  0  0
    3.2939    5.3120   13.2581 C   0  0  0  0  0  0  0  0  0  0  0  0
    2.6184    4.5313   12.1478 C   0  0  0  0  0  0  0  0  0  0  0  0
    1.4501    3.9308   12.8499 C   0  0  0  0  0  0  0  0  0  0  0  0
    1.5696    4.0987   14.2064 O   0  0  0  0  0  0  0  0  0  0  0  0
    2.8940    5.2701   15.6971 C   0  0  0  0  0  0  0  0  0  0  0  0
    3.9003    5.9892   16.0295 O   0  0  0  0  0  0  0  0  0  0  0  0
    1.8366    5.3262   16.5901 O   0  0  0  0  0  0  0  0  0  0  0  0
    1.5760    6.2356   16.9448 H   0  0  0  0  0  0  0  0  0  0  0  0
    2.6941    0.2521   20.3210 C   0  0  0  0  0  0  0  0  0  0  0  0
    3.8282   -0.0035   21.3029 C   0  0  0  0  0  0  0  0  0  0  0  0
    6.9831    0.0916   21.3350 C   0  0  0  0  0  0  0  0  0  0  0  0
    6.0569    1.2541   21.3151 C   0  0  0  0  0  0  0  0  0  0  0  0
    6.3913    2.5129   21.3104 O   0  0  0  0  0  0  0  0  0  0  0  0
    5.3417    3.2851   21.2915 C   0  0  0  0  0  0  0  0  0  0  0  0
    4.2674    2.4803   21.2832 N   0  0  0  0  0  0  0  0  0  0  0  0
    4.6685    1.1977   21.2976 C   0  0  0  0  0  0  0  0  0  0  0  0
    5.3209    4.7402   21.2813 C   0  0  0  0  0  0  0  0  0  0  0  0
    5.9749    5.5221   22.2080 C   0  0  0  0  0  0  0  0  0  0  0  0
    5.9373    6.9011   22.1690 C   0  0  0  0  0  0  0  0  0  0  0  0
    5.2318    7.5610   21.1850 C   0  0  0  0  0  0  0  0  0  0  0  0
    4.5612    6.8064   20.2353 C   0  0  0  0  0  0  0  0  0  0  0  0
    3.6454    7.6009   18.9570 Cl  0  0  0  0  0  0  0  0  0  0  0  0
    4.6122    5.4313   20.2932 C   0  0  0  0  0  0  0  0  0  0  0  0
 20 21  1  0  0  0
 21 22  1  0  0  0
 22 23  1  0  0  0
 23 26  1  0  0  0
 26 27  2  0  0  0
 27 28  1  0  0  0
 28 29  2  0  0  0
 29 30  1  0  0  0
 30 31  1  0  0  0
 30 32  2  0  0  0
 23 24  2  0  0  0
 24 25  1  0  0  0
 25 19  1  0  0  0
 19 18  1  0  0  0
 18  1  1  0  0  0
  1  2  1  0  0  0
  2  3  2  0  0  0
  3  4  1  0  0  0
  4  5  2  0  0  0
  5  8  1  0  0  0
  8  9  1  0  0  0
  9 14  1  0  0  0
 14 15  2  0  0  0
 14 16  1  0  0  0
  9 10  1  0  0  0
 10 11  1  0  0  0
 11 12  1  0  0  0
 12 13  1  0  0  0
  5  6  1  0  0  0
  6  7  2  0  0  0
 25 21  2  0  0  0
  7  2  1  0  0  0
 32 26  1  0  0  0
 13  9  1  0  0  0
 16 17  1  0  0  0
M  END
> <minimizedAffinity>
-8.53580

> <CNNscore>
0.2349132895

> <CNNaffinity>
6.1558914185

> <CNN_VS>
1.4461007118

> <CNNaffinity_variance>
0.2512978911

$$$$
[H]OC(=O)C1(C([H])([H])c2c([H])nc(OC([H])([H])C([H])([H])c3nc(-c4c([H])c([H])c([H])c(Cl)c4[H])oc3C([H])([H])[H])c([H])c2[H])OC([H])([H])C([H])([H])C1([H])[H]


 32 35  0  0  0  0  0  0  0  0999 V2000
    3.6206    0.5008   17.2634 O   0  0  0  0  0  0  0  0  0  0  0  0
    4.1547    1.5571   17.9807 C   0  0  0  0  0  0  0  0  0  0  0  0
    4.8590    2.5613   17.2961 C   0  0  0  0  0  0  0  0  0  0  0  0
    5.4029    3.6274   17.9866 C   0  0  0  0  0  0  0  0  0  0  0  0
    5.2774    3.7458   19.3557 C   0  0  0  0  0  0  0  0  0  0  0  0
    4.5834    2.7420   19.9751 C   0  0  0  0  0  0  0  0  0  0  0  0
    4.0588    1.7113   19.2985 N   0  0  0  0  0  0  0  0  0  0  0  0
    5.8515    4.8775   20.0830 C   0  0  0  0  0  0  0  0  0  0  0  0
    4.9271    5.9568   20.5131 C   0  0  0  0  0  0  0  0  0  0  0  0
    3.9121    5.4265   21.5148 C   0  0  0  0  0  0  0  0  0  0  0  0
    4.7817    5.3318   22.7530 C   0  0  0  0  0  0  0  0  0  0  0  0
    5.7713    6.4219   22.5278 C   0  0  0  0  0  0  0  0  0  0  0  0
    5.6754    6.8969   21.2442 O   0  0  0  0  0  0  0  0  0  0  0  0
    4.2592    6.7024   19.4263 C   0  0  0  0  0  0  0  0  0  0  0  0
    4.9353    7.2895   18.5106 O   0  0  0  0  0  0  0  0  0  0  0  0
    2.8871    6.8386   19.2942 O   0  0  0  0  0  0  0  0  0  0  0  0
    2.4951    6.7180   18.3709 H   0  0  0  0  0  0  0  0  0  0  0  0
    2.6523    0.5717   16.2621 C   0  0  0  0  0  0  0  0  0  0  0  0
    1.9382    1.9125   16.3531 C   0  0  0  0  0  0  0  0  0  0  0  0
    2.3723    5.0128   15.9495 C   0  0  0  0  0  0  0  0  0  0  0  0
    2.3693    3.9685   14.8917 C   0  0  0  0  0  0  0  0  0  0  0  0
    2.5430    4.1568   13.6147 O   0  0  0  0  0  0  0  0  0  0  0  0
    2.4837    3.0347   12.9547 C   0  0  0  0  0  0  0  0  0  0  0  0
    2.2593    2.0654   13.8558 N   0  0  0  0  0  0  0  0  0  0  0  0
    2.1802    2.6053   15.0840 C   0  0  0  0  0  0  0  0  0  0  0  0
    2.6302    2.8506   11.5186 C   0  0  0  0  0  0  0  0  0  0  0  0
    2.5332    3.8739   10.6013 C   0  0  0  0  0  0  0  0  0  0  0  0
    2.6797    3.6663    9.2449 C   0  0  0  0  0  0  0  0  0  0  0  0
    2.9329    2.4057    8.7464 C   0  0  0  0  0  0  0  0  0  0  0  0
    3.0371    1.3516    9.6403 C   0  0  0  0  0  0  0  0  0  0  0  0
    3.3599   -0.2786    9.0548 Cl  0  0  0  0  0  0  0  0  0  0  0  0
    2.8873    1.5814   10.9900 C   0  0  0  0  0  0  0  0  0  0  0  0
 20 21  1  0  0  0
 21 22  1  0  0  0
 22 23  1  0  0  0
 23 26  1  0  0  0
 26 27  2  0  0  0
 27 28  1  0  0  0
 28 29  2  0  0  0
 29 30  1  0  0  0
 30 31  1  0  0  0
 30 32  2  0  0  0
 23 24  2  0  0  0
 24 25  1  0  0  0
 25 19  1  0  0  0
 19 18  1  0  0  0
 18  1  1  0  0  0
  1  2  1  0  0  0
  2  3  2  0  0  0
  3  4  1  0  0  0
  4  5  2  0  0  0
  5  8  1  0  0  0
  8  9  1  0  0  0
  9 14  1  0  0  0
 14 15  2  0  0  0
 14 16  1  0  0  0
  9 10  1  0  0  0
 10 11  1  0  0  0
 11 12  1  0  0  0
 12 13  1  0  0  0
  5  6  1  0  0  0
  6  7  2  0  0  0
 25 21  2  0  0  0
  7  2  1  0  0  0
 32 26  1  0  0  0
 13  9  1  0  0  0
 16 17  1  0  0  0
M  END
> <minimizedAffinity>
-6.99035

> <CNNscore>
0.2277320176

> <CNNaffinity>
5.7280893326

> <CNN_VS>
1.3044693470

> <CNNaffinity_variance>
0.2940450013

$$$$
[H]OC(=O)C([H])([H])c1c([H])c([H])c(Oc2c([H])c([H])c(C(=O)N([H])C([H])(C([H])([H])[H])C([H])([H])[H])c([H])c2N([H])S(=O)(=O)c2c([H])c([H])c(Cl)c([H])c2Cl)c(OC([H])([H])[H])c1[H]


 40 42  0  0  0  0  0  0  0  0999 V2000
    2.3033    4.7440   16.0660 C   0  0  0  0  0  0  0  0  0  0  0  0
    2.1805    5.4604   14.9067 C   0  0  0  0  0  0  0  0  0  0  0  0
    2.3633    4.8752   13.6690 C   0  0  0  0  0  0  0  0  0  0  0  0
    2.6765    3.5423   13.5875 C   0  0  0  0  0  0  0  0  0  0  0  0
    2.7981    2.8305   14.7624 C   0  0  0  0  0  0  0  0  0  0  0  0
    2.6247    3.3734   16.0095 C   0  0  0  0  0  0  0  0  0  0  0  0
    2.8740    2.8812   12.2915 C   0  0  0  0  0  0  0  0  0  0  0  0
    2.6901    1.6253   12.2520 O   0  0  0  0  0  0  0  0  0  0  0  0
    3.2476    3.6002   11.1503 N   0  0  0  0  0  0  0  0  0  0  0  0
    3.3987    4.6146   11.1579 H   0  0  0  0  0  0  0  0  0  0  0  0
    3.4299    2.8925    9.8924 C   0  0  0  0  0  0  0  0  0  0  0  0
    2.4971    3.5538    8.8926 C   0  0  0  0  0  0  0  0  0  0  0  0
    4.8619    2.9623    9.4563 C   0  0  0  0  0  0  0  0  0  0  0  0
    2.7589    2.6593   17.2311 N   0  0  0  0  0  0  0  0  0  0  0  0
    1.9028    2.5180   17.8357 H   0  0  0  0  0  0  0  0  0  0  0  0
    4.2920    2.0498   17.6927 S   0  0  0  0  0  0  0  0  0  0  0  0
    4.5722    0.6847   17.0742 O   0  0  0  0  0  0  0  0  0  0  0  0
    5.3558    3.0267   17.1767 O   0  0  0  0  0  0  0  0  0  0  0  0
    4.4127    1.9767   19.4330 C   0  0  0  0  0  0  0  0  0  0  0  0
    5.2477    2.8231   20.1040 C   0  0  0  0  0  0  0  0  0  0  0  0
    5.3075    2.6866   21.4978 C   0  0  0  0  0  0  0  0  0  0  0  0
    4.5719    1.7538   22.1799 C   0  0  0  0  0  0  0  0  0  0  0  0
    4.6630    1.6037   23.9140 Cl  0  0  0  0  0  0  0  0  0  0  0  0
    3.7494    0.9285   21.4543 C   0  0  0  0  0  0  0  0  0  0  0  0
    3.6489    1.0139   20.0965 C   0  0  0  0  0  0  0  0  0  0  0  0
    2.5900   -0.0478   19.1585 Cl  0  0  0  0  0  0  0  0  0  0  0  0
    2.1182    5.3274   17.3038 O   0  0  0  0  0  0  0  0  0  0  0  0
    4.1916    6.4981   17.7605 C   0  0  0  0  0  0  0  0  0  0  0  0
    5.1323    6.8896   18.7001 C   0  0  0  0  0  0  0  0  0  0  0  0
    5.0347    6.5738   20.0455 C   0  0  0  0  0  0  0  0  0  0  0  0
    3.9413    5.8338   20.4459 C   0  0  0  0  0  0  0  0  0  0  0  0
    2.9940    5.4334   19.5283 C   0  0  0  0  0  0  0  0  0  0  0  0
    3.0998    5.7571   18.1662 C   0  0  0  0  0  0  0  0  0  0  0  0
    4.1479    8.2028   16.0322 C   0  0  0  0  0  0  0  0  0  0  0  0
    4.3411    6.8491   16.4165 O   0  0  0  0  0  0  0  0  0  0  0  0
    6.0527    7.0011   21.0439 C   0  0  0  0  0  0  0  0  0  0  0  0
    5.7899    8.4000   21.4650 C   0  0  0  0  0  0  0  0  0  0  0  0
    6.5979    9.3413   21.3399 O   0  0  0  0  0  0  0  0  0  0  0  0
    4.5370    8.6569   22.0422 O   0  0  0  0  0  0  0  0  0  0  0  0
    3.7072    8.4508   21.5081 H   0  0  0  0  0  0  0  0  0  0  0  0
 34 35  1  0  0  0
 35 28  1  0  0  0
 28 29  2  0  0  0
 29 30  1  0  0  0
 30 36  1  0  0  0
 36 37  1  0  0  0
 37 38  2  0  0  0
 37 39  1  0  0  0
 30 31  2  0  0  0
 31 32  1  0  0  0
 32 33  2  0  0  0
 33 27  1  0  0  0
 27  1  1  0  0  0
  1  2  2  0  0  0
  2  3  1  0  0  0
  3  4  2  0  0  0
  4  7  1  0  0  0
  7  8  2  0  0  0
  7  9  1  0  0  0
  9 11  1  0  0  0
 11 12  1  0  0  0
 11 13  1  0  0  0
  4  5  1  0  0  0
  5  6  2  0  0  0
  6 14  1  0  0  0
 14 16  1  0  0  0
 16 17  2  0  0  0
 16 18  2  0  0  0
 16 19  1  0  0  0
 19 20  2  0  0  0
 20 21  1  0  0  0
 21 22  2  0  0  0
 22 23  1  0  0  0
 22 24  1  0  0  0
 24 25  2  0  0  0
 25 26  1  0  0  0
 33 28  1  0  0  0
  6  1  1  0  0  0
 25 19  1  0  0  0
 39 40  1  0  0  0
  9 10  1  0  0  0
 14 15  1  0  0  0
M  END
> <minimizedAffinity>
-7.86974

> <CNNscore>
0.4229802787

> <CNNaffinity>
6.7634887695

> <CNN_VS>
2.8608224392

> <CNNaffinity_variance>
0.2670253217

$$$$
[H]OC(=O)C([H])([H])c1c([H])c([H])c(Oc2c([H])c([H])c(C(=O)N([H])C([H])(C([H])([H])[H])C([H])([H])[H])c([H])c2N([H])S(=O)(=O)c2c([H])c([H])c(Cl)c([H])c2Cl)c(OC([H])([H])[H])c1[H]


 40 42  0  0  0  0  0  0  0  0999 V2000
    3.4895    5.4718   17.8444 C   0  0  0  0  0  0  0  0  0  0  0  0
    3.7530    6.5591   17.0566 C   0  0  0  0  0  0  0  0  0  0  0  0
    3.7369    6.4774   15.6779 C   0  0  0  0  0  0  0  0  0  0  0  0
    3.4510    5.2808   15.0717 C   0  0  0  0  0  0  0  0  0  0  0  0
    3.1876    4.1917   15.8757 C   0  0  0  0  0  0  0  0  0  0  0  0
    3.1935    4.2310   17.2463 C   0  0  0  0  0  0  0  0  0  0  0  0
    3.4190    5.1528   13.6093 C   0  0  0  0  0  0  0  0  0  0  0  0
    2.3351    4.7413   13.0911 O   0  0  0  0  0  0  0  0  0  0  0  0
    4.5307    5.4698   12.8204 N   0  0  0  0  0  0  0  0  0  0  0  0
    5.4148    5.8065   13.2166 H   0  0  0  0  0  0  0  0  0  0  0  0
    4.4422    5.3232   11.3757 C   0  0  0  0  0  0  0  0  0  0  0  0
    4.4392    6.7306   10.8043 C   0  0  0  0  0  0  0  0  0  0  0  0
    5.5912    4.5103   10.8615 C   0  0  0  0  0  0  0  0  0  0  0  0
    2.9378    3.1169   18.0910 N   0  0  0  0  0  0  0  0  0  0  0  0
    1.9921    3.0375   18.5578 H   0  0  0  0  0  0  0  0  0  0  0  0
    4.1577    1.9385   18.3325 S   0  0  0  0  0  0  0  0  0  0  0  0
    3.7086    0.5529   17.8821 O   0  0  0  0  0  0  0  0  0  0  0  0
    5.3680    2.3403   17.4802 O   0  0  0  0  0  0  0  0  0  0  0  0
    4.6502    1.9149   20.0074 C   0  0  0  0  0  0  0  0  0  0  0  0
    5.7704    2.5846   20.4079 C   0  0  0  0  0  0  0  0  0  0  0  0
    6.1136    2.4979   21.7643 C   0  0  0  0  0  0  0  0  0  0  0  0
    5.3755    1.7798   22.6675 C   0  0  0  0  0  0  0  0  0  0  0  0
    5.8225    1.6874   24.3497 Cl  0  0  0  0  0  0  0  0  0  0  0  0
    4.2592    1.1256   22.2094 C   0  0  0  0  0  0  0  0  0  0  0  0
    3.8747    1.1731   20.9013 C   0  0  0  0  0  0  0  0  0  0  0  0
    2.4369    0.3314   20.3075 Cl  0  0  0  0  0  0  0  0  0  0  0  0
    3.5027    5.5530   19.2228 O   0  0  0  0  0  0  0  0  0  0  0  0
    4.5582    5.7459   21.3970 C   0  0  0  0  0  0  0  0  0  0  0  0
    5.6991    6.0542   22.1210 C   0  0  0  0  0  0  0  0  0  0  0  0
    6.8850    6.4573   21.5291 C   0  0  0  0  0  0  0  0  0  0  0  0
    6.9081    6.5492   20.1526 C   0  0  0  0  0  0  0  0  0  0  0  0
    5.7848    6.2478   19.4130 C   0  0  0  0  0  0  0  0  0  0  0  0
    4.5862    5.8402   20.0200 C   0  0  0  0  0  0  0  0  0  0  0  0
    3.4947    4.5129   23.1980 C   0  0  0  0  0  0  0  0  0  0  0  0
    3.3906    5.3413   22.0489 O   0  0  0  0  0  0  0  0  0  0  0  0
    8.1031    6.7853   22.3193 C   0  0  0  0  0  0  0  0  0  0  0  0
    8.3057    8.2554   22.3470 C   0  0  0  0  0  0  0  0  0  0  0  0
    7.5895    9.0577   22.9779 O   0  0  0  0  0  0  0  0  0  0  0  0
    9.3858    8.7543   21.6031 O   0  0  0  0  0  0  0  0  0  0  0  0
   10.3136    8.4217   21.8150 H   0  0  0  0  0  0  0  0  0  0  0  0
 34 35  1  0  0  0
 35 28  1  0  0  0
 28 29  2  0  0  0
 29 30  1  0  0  0
 30 36  1  0  0  0
 36 37  1  0  0  0
 37 38  2  0  0  0
 37 39  1  0  0  0
 30 31  2  0  0  0
 31 32  1  0  0  0
 32 33  2  0  0  0
 33 27  1  0  0  0
 27  1  1  0  0  0
  1  2  2  0  0  0
  2  3  1  0  0  0
  3  4  2  0  0  0
  4  7  1  0  0  0
  7  8  2  0  0  0
  7  9  1  0  0  0
  9 11  1  0  0  0
 11 12  1  0  0  0
 11 13  1  0  0  0
  4  5  1  0  0  0
  5  6  2  0  0  0
  6 14  1  0  0  0
 14 16  1  0  0  0
 16 17  2  0  0  0
 16 18  2  0  0  0
 16 19  1  0  0  0
 19 20  2  0  0  0
 20 21  1  0  0  0
 21 22  2  0  0  0
 22 23  1  0  0  0
 22 24  1  0  0  0
 24 25  2  0  0  0
 25 26  1  0  0  0
 33 28  1  0  0  0
  6  1  1  0  0  0
 25 19  1  0  0  0
 39 40  1  0  0  0
  9 10  1  0  0  0
 14 15  1  0  0  0
M  END
> <minimizedAffinity>
-7.28305

> <CNNscore>
0.3675359190

> <CNNaffinity>
6.6030678749

> <CNN_VS>
2.4268646240

> <CNNaffinity_variance>
0.2092535198

$$$$
[H]OC(=O)C([H])([H])c1c([H])c([H])c(Oc2c([H])c([H])c(C(=O)N([H])C([H])(C([H])([H])[H])C([H])([H])[H])c([H])c2N([H])S(=O)(=O)c2c([H])c([H])c(Cl)c([H])c2Cl)c(OC([H])([H])[H])c1[H]


 40 42  0  0  0  0  0  0  0  0999 V2000
    3.1469    5.5255   16.3269 C   0  0  0  0  0  0  0  0  0  0  0  0
    3.2332    6.3395   15.2304 C   0  0  0  0  0  0  0  0  0  0  0  0
    2.9895    5.8678   13.9553 C   0  0  0  0  0  0  0  0  0  0  0  0
    2.6517    4.5513   13.7711 C   0  0  0  0  0  0  0  0  0  0  0  0
    2.5682    3.7403   14.8833 C   0  0  0  0  0  0  0  0  0  0  0  0
    2.8021    4.1691   16.1646 C   0  0  0  0  0  0  0  0  0  0  0  0
    2.3800    4.0117   12.4329 C   0  0  0  0  0  0  0  0  0  0  0  0
    1.2220    4.2165   11.9538 O   0  0  0  0  0  0  0  0  0  0  0  0
    3.3516    3.3039   11.7159 N   0  0  0  0  0  0  0  0  0  0  0  0
    4.2938    3.1291   12.0814 H   0  0  0  0  0  0  0  0  0  0  0  0
    3.0264    2.7913   10.3938 C   0  0  0  0  0  0  0  0  0  0  0  0
    4.2502    3.0379    9.5286 C   0  0  0  0  0  0  0  0  0  0  0  0
    2.6754    1.3364   10.4693 C   0  0  0  0  0  0  0  0  0  0  0  0
    2.7338    3.3455   17.3210 N   0  0  0  0  0  0  0  0  0  0  0  0
    1.8811    3.4099   17.9431 H   0  0  0  0  0  0  0  0  0  0  0  0
    4.0246    2.2771   17.6781 S   0  0  0  0  0  0  0  0  0  0  0  0
    3.7527    0.8654   17.1706 O   0  0  0  0  0  0  0  0  0  0  0  0
    5.2748    2.8016   16.9609 O   0  0  0  0  0  0  0  0  0  0  0  0
    4.3412    2.2667   19.3951 C   0  0  0  0  0  0  0  0  0  0  0  0
    5.1378    3.2226   19.9568 C   0  0  0  0  0  0  0  0  0  0  0  0
    5.3642    3.1326   21.3373 C   0  0  0  0  0  0  0  0  0  0  0  0
    4.8228    2.1399   22.1104 C   0  0  0  0  0  0  0  0  0  0  0  0
    5.1186    2.0493   23.8257 Cl  0  0  0  0  0  0  0  0  0  0  0  0
    4.0301    1.2049   21.4928 C   0  0  0  0  0  0  0  0  0  0  0  0
    3.7734    1.2404   20.1534 C   0  0  0  0  0  0  0  0  0  0  0  0
    2.7524    0.0373   19.3543 Cl  0  0  0  0  0  0  0  0  0  0  0  0
    3.3877    5.9966   17.6024 O   0  0  0  0  0  0  0  0  0  0  0  0
    4.6372    7.6595   18.8479 C   0  0  0  0  0  0  0  0  0  0  0  0
    5.8728    8.1094   19.2861 C   0  0  0  0  0  0  0  0  0  0  0  0
    7.0618    7.4629   18.9905 C   0  0  0  0  0  0  0  0  0  0  0  0
    6.9884    6.3193   18.2222 C   0  0  0  0  0  0  0  0  0  0  0  0
    5.7703    5.8543   17.7754 C   0  0  0  0  0  0  0  0  0  0  0  0
    4.5692    6.5152   18.0788 C   0  0  0  0  0  0  0  0  0  0  0  0
    3.3885    9.7411   18.8967 C   0  0  0  0  0  0  0  0  0  0  0  0
    3.4701    8.3518   19.1804 O   0  0  0  0  0  0  0  0  0  0  0  0
    8.3821    7.9575   19.4681 C   0  0  0  0  0  0  0  0  0  0  0  0
    8.5130    7.7173   20.9270 C   0  0  0  0  0  0  0  0  0  0  0  0
    8.2569    6.6363   21.4930 O   0  0  0  0  0  0  0  0  0  0  0  0
    8.9580    8.7980   21.7036 O   0  0  0  0  0  0  0  0  0  0  0  0
    9.8519    9.2118   21.4891 H   0  0  0  0  0  0  0  0  0  0  0  0
 34 35  1  0  0  0
 35 28  1  0  0  0
 28 29  2  0  0  0
 29 30  1  0  0  0
 30 36  1  0  0  0
 36 37  1  0  0  0
 37 38  2  0  0  0
 37 39  1  0  0  0
 30 31  2  0  0  0
 31 32  1  0  0  0
 32 33  2  0  0  0
 33 27  1  0  0  0
 27  1  1  0  0  0
  1  2  2  0  0  0
  2  3  1  0  0  0
  3  4  2  0  0  0
  4  7  1  0  0  0
  7  8  2  0  0  0
  7  9  1  0  0  0
  9 11  1  0  0  0
 11 12  1  0  0  0
 11 13  1  0  0  0
  4  5  1  0  0  0
  5  6  2  0  0  0
  6 14  1  0  0  0
 14 16  1  0  0  0
 16 17  2  0  0  0
 16 18  2  0  0  0
 16 19  1  0  0  0
 19 20  2  0  0  0
 20 21  1  0  0  0
 21 22  2  0  0  0
 22 23  1  0  0  0
 22 24  1  0  0  0
 24 25  2  0  0  0
 25 26  1  0  0  0
 33 28  1  0  0  0
  6  1  1  0  0  0
 25 19  1  0  0  0
 39 40  1  0  0  0
  9 10  1  0  0  0
 14 15  1  0  0  0
M  END
> <minimizedAffinity>
-7.48959

> <CNNscore>
0.3538560271

> <CNNaffinity>
6.6972236633

> <CNN_VS>
2.3698530197

> <CNNaffinity_variance>
0.2404044420

$$$$
[H]OC(=O)C([H])([H])c1c([H])c([H])c(Oc2c([H])c([H])c(C(=O)N([H])C([H])(C([H])([H])[H])C([H])([H])[H])c([H])c2N([H])S(=O)(=O)c2c([H])c([H])c(Cl)c([H])c2Cl)c(OC([H])([H])[H])c1[H]


 40 42  0  0  0  0  0  0  0  0999 V2000
    6.8998    6.6009   18.8555 C   0  0  0  0  0  0  0  0  0  0  0  0
    8.1589    7.0157   19.1946 C   0  0  0  0  0  0  0  0  0  0  0  0
    8.5131    7.2622   20.5067 C   0  0  0  0  0  0  0  0  0  0  0  0
    7.5872    7.0904   21.5039 C   0  0  0  0  0  0  0  0  0  0  0  0
    6.3214    6.6725   21.1502 C   0  0  0  0  0  0  0  0  0  0  0  0
    5.9303    6.4173   19.8611 C   0  0  0  0  0  0  0  0  0  0  0  0
    7.9248    7.3369   22.9114 C   0  0  0  0  0  0  0  0  0  0  0  0
    6.9861    7.7379   23.6668 O   0  0  0  0  0  0  0  0  0  0  0  0
    9.2211    7.1392   23.4006 N   0  0  0  0  0  0  0  0  0  0  0  0
    9.9937    6.8132   22.8101 H   0  0  0  0  0  0  0  0  0  0  0  0
    9.4984    7.4001   24.8047 C   0  0  0  0  0  0  0  0  0  0  0  0
   10.5747    6.4108   25.2172 C   0  0  0  0  0  0  0  0  0  0  0  0
    9.9372    8.8201   24.9956 C   0  0  0  0  0  0  0  0  0  0  0  0
    4.6275    5.9991   19.4762 N   0  0  0  0  0  0  0  0  0  0  0  0
    3.8744    6.7304   19.3479 H   0  0  0  0  0  0  0  0  0  0  0  0
    4.3096    4.3335   19.2320 S   0  0  0  0  0  0  0  0  0  0  0  0
    2.9971    4.1067   18.4901 O   0  0  0  0  0  0  0  0  0  0  0  0
    5.4421    3.7654   18.3676 O   0  0  0  0  0  0  0  0  0  0  0  0
    4.3099    3.4892   20.7603 C   0  0  0  0  0  0  0  0  0  0  0  0
    4.2312    4.1832   21.9333 C   0  0  0  0  0  0  0  0  0  0  0  0
    4.2616    3.4358   23.1189 C   0  0  0  0  0  0  0  0  0  0  0  0
    4.3656    2.0700   23.1275 C   0  0  0  0  0  0  0  0  0  0  0  0
    4.4010    1.1626   24.6152 Cl  0  0  0  0  0  0  0  0  0  0  0  0
    4.4422    1.4241   21.9188 C   0  0  0  0  0  0  0  0  0  0  0  0
    4.4172    2.0969   20.7323 C   0  0  0  0  0  0  0  0  0  0  0  0
    4.5155    1.2677   19.1731 Cl  0  0  0  0  0  0  0  0  0  0  0  0
    6.5454    6.3517   17.5443 O   0  0  0  0  0  0  0  0  0  0  0  0
    6.2025    8.3463   16.2094 C   0  0  0  0  0  0  0  0  0  0  0  0
    5.3487    9.0829   15.4034 C   0  0  0  0  0  0  0  0  0  0  0  0
    4.0617    8.6749   15.0927 C   0  0  0  0  0  0  0  0  0  0  0  0
    3.6310    7.4756   15.6217 C   0  0  0  0  0  0  0  0  0  0  0  0
    4.4633    6.7273   16.4260 C   0  0  0  0  0  0  0  0  0  0  0  0
    5.7664    7.1474   16.7368 C   0  0  0  0  0  0  0  0  0  0  0  0
    7.6644    9.8373   17.4482 C   0  0  0  0  0  0  0  0  0  0  0  0
    7.4922    8.8068   16.4859 O   0  0  0  0  0  0  0  0  0  0  0  0
    3.1554    9.4763   14.2254 C   0  0  0  0  0  0  0  0  0  0  0  0
    2.6666    8.6417   13.0995 C   0  0  0  0  0  0  0  0  0  0  0  0
    1.5113    8.1819   13.0078 O   0  0  0  0  0  0  0  0  0  0  0  0
    3.5876    8.3640   12.0780 O   0  0  0  0  0  0  0  0  0  0  0  0
    4.0102    9.1352   11.5851 H   0  0  0  0  0  0  0  0  0  0  0  0
 34 35  1  0  0  0
 35 28  1  0  0  0
 28 29  2  0  0  0
 29 30  1  0  0  0
 30 36  1  0  0  0
 36 37  1  0  0  0
 37 38  2  0  0  0
 37 39  1  0  0  0
 30 31  2  0  0  0
 31 32  1  0  0  0
 32 33  2  0  0  0
 33 27  1  0  0  0
 27  1  1  0  0  0
  1  2  2  0  0  0
  2  3  1  0  0  0
  3  4  2  0  0  0
  4  7  1  0  0  0
  7  8  2  0  0  0
  7  9  1  0  0  0
  9 11  1  0  0  0
 11 12  1  0  0  0
 11 13  1  0  0  0
  4  5  1  0  0  0
  5  6  2  0  0  0
  6 14  1  0  0  0
 14 16  1  0  0  0
 16 17  2  0  0  0
 16 18  2  0  0  0
 16 19  1  0  0  0
 19 20  2  0  0  0
 20 21  1  0  0  0
 21 22  2  0  0  0
 22 23  1  0  0  0
 22 24  1  0  0  0
 24 25  2  0  0  0
 25 26  1  0  0  0
 33 28  1  0  0  0
  6  1  1  0  0  0
 25 19  1  0  0  0
 39 40  1  0  0  0
  9 10  1  0  0  0
 14 15  1  0  0  0
M  END
> <minimizedAffinity>
-7.22659

> <CNNscore>
0.3265695870

> <CNNaffinity>
6.3579897881

> <CNN_VS>
2.0763261318

> <CNNaffinity_variance>
0.1879493147

$$$$
[H]OC(=O)C([H])([H])c1c([H])c([H])c(Oc2c([H])c([H])c(C(=O)N([H])C([H])(C([H])([H])[H])C([H])([H])[H])c([H])c2N([H])S(=O)(=O)c2c([H])c([H])c(Cl)c([H])c2Cl)c(OC([H])([H])[H])c1[H]


 40 42  0  0  0  0  0  0  0  0999 V2000
    3.3675    6.0718   16.7057 C   0  0  0  0  0  0  0  0  0  0  0  0
    3.8253    7.3271   16.4109 C   0  0  0  0  0  0  0  0  0  0  0  0
    4.5309    8.0770   17.3315 C   0  0  0  0  0  0  0  0  0  0  0  0
    4.7851    7.5606   18.5765 C   0  0  0  0  0  0  0  0  0  0  0  0
    4.3184    6.2948   18.8624 C   0  0  0  0  0  0  0  0  0  0  0  0
    3.6150    5.5187   17.9776 C   0  0  0  0  0  0  0  0  0  0  0  0
    5.5356    8.3232   19.5820 C   0  0  0  0  0  0  0  0  0  0  0  0
    5.5086    9.5889   19.4828 O   0  0  0  0  0  0  0  0  0  0  0  0
    6.2487    7.6865   20.6042 N   0  0  0  0  0  0  0  0  0  0  0  0
    6.2823    6.6665   20.7056 H   0  0  0  0  0  0  0  0  0  0  0  0
    6.9752    8.4929   21.5728 C   0  0  0  0  0  0  0  0  0  0  0  0
    8.0793    9.1941   20.8005 C   0  0  0  0  0  0  0  0  0  0  0  0
    6.0515    9.4656   22.2407 C   0  0  0  0  0  0  0  0  0  0  0  0
    3.1149    4.2182   18.2586 N   0  0  0  0  0  0  0  0  0  0  0  0
    2.0705    4.0839   18.3569 H   0  0  0  0  0  0  0  0  0  0  0  0
    4.2066    2.9092   18.4310 S   0  0  0  0  0  0  0  0  0  0  0  0
    3.6429    1.6170   17.8507 O   0  0  0  0  0  0  0  0  0  0  0  0
    5.4796    3.2589   17.6501 O   0  0  0  0  0  0  0  0  0  0  0  0
    4.6342    2.6980   20.1106 C   0  0  0  0  0  0  0  0  0  0  0  0
    5.4543    3.5946   20.7330 C   0  0  0  0  0  0  0  0  0  0  0  0
    5.7709    3.3432   22.0752 C   0  0  0  0  0  0  0  0  0  0  0  0
    5.2926    2.2540   22.7545 C   0  0  0  0  0  0  0  0  0  0  0  0
    5.7003    1.9631   24.4239 Cl  0  0  0  0  0  0  0  0  0  0  0  0
    4.4726    1.3850   22.0789 C   0  0  0  0  0  0  0  0  0  0  0  0
    4.1290    1.5768   20.7727 C   0  0  0  0  0  0  0  0  0  0  0  0
    3.0725    0.4591   19.8992 Cl  0  0  0  0  0  0  0  0  0  0  0  0
    2.6643    5.3201   15.7852 O   0  0  0  0  0  0  0  0  0  0  0  0
    2.2431    6.0558   13.5138 C   0  0  0  0  0  0  0  0  0  0  0  0
    2.5372    5.9208   12.1661 C   0  0  0  0  0  0  0  0  0  0  0  0
    3.4626    5.0109   11.6811 C   0  0  0  0  0  0  0  0  0  0  0  0
    4.1095    4.2121   12.6014 C   0  0  0  0  0  0  0  0  0  0  0  0
    3.8320    4.3292   13.9463 C   0  0  0  0  0  0  0  0  0  0  0  0
    2.8925    5.2535   14.4304 C   0  0  0  0  0  0  0  0  0  0  0  0
   -0.0624    6.8132   13.5935 C   0  0  0  0  0  0  0  0  0  0  0  0
    1.3019    6.9940   13.9451 O   0  0  0  0  0  0  0  0  0  0  0  0
    3.7688    4.8767   10.2307 C   0  0  0  0  0  0  0  0  0  0  0  0
    4.5896    6.0283    9.7797 C   0  0  0  0  0  0  0  0  0  0  0  0
    5.6851    6.3555   10.2770 O   0  0  0  0  0  0  0  0  0  0  0  0
    4.0758    6.7876    8.7175 O   0  0  0  0  0  0  0  0  0  0  0  0
    3.8828    6.3261    7.8422 H   0  0  0  0  0  0  0  0  0  0  0  0
 34 35  1  0  0  0
 35 28  1  0  0  0
 28 29  2  0  0  0
 29 30  1  0  0  0
 30 36  1  0  0  0
 36 37  1  0  0  0
 37 38  2  0  0  0
 37 39  1  0  0  0
 30 31  2  0  0  0
 31 32  1  0  0  0
 32 33  2  0  0  0
 33 27  1  0  0  0
 27  1  1  0  0  0
  1  2  2  0  0  0
  2  3  1  0  0  0
  3  4  2  0  0  0
  4  7  1  0  0  0
  7  8  2  0  0  0
  7  9  1  0  0  0
  9 11  1  0  0  0
 11 12  1  0  0  0
 11 13  1  0  0  0
  4  5  1  0  0  0
  5  6  2  0  0  0
  6 14  1  0  0  0
 14 16  1  0  0  0
 16 17  2  0  0  0
 16 18  2  0  0  0
 16 19  1  0  0  0
 19 20  2  0  0  0
 20 21  1  0  0  0
 21 22  2  0  0  0
 22 23  1  0  0  0
 22 24  1  0  0  0
 24 25  2  0  0  0
 25 26  1  0  0  0
 33 28  1  0  0  0
  6  1  1  0  0  0
 25 19  1  0  0  0
 39 40  1  0  0  0
  9 10  1  0  0  0
 14 15  1  0  0  0
M  END
> <minimizedAffinity>
-7.15046

> <CNNscore>
0.1818432957

> <CNNaffinity>
6.3774523735

> <CNN_VS>
1.1596969366

> <CNNaffinity_variance>
0.2654332817

$$$$
[H]OC(=O)C([H])([H])c1c([H])c([H])c(Oc2c([H])c([H])c(C(=O)N([H])C([H])(C([H])([H])[H])C([H])([H])[H])c([H])c2N([H])S(=O)(=O)c2c([H])c([H])c(Cl)c([H])c2Cl)c(OC([H])([H])[H])c1[H]


 40 42  0  0  0  0  0  0  0  0999 V2000
    4.0419    6.8158   16.8930 C   0  0  0  0  0  0  0  0  0  0  0  0
    4.3037    7.9336   16.1484 C   0  0  0  0  0  0  0  0  0  0  0  0
    4.0216    7.9881   14.7974 C   0  0  0  0  0  0  0  0  0  0  0  0
    3.4649    6.8999   14.1752 C   0  0  0  0  0  0  0  0  0  0  0  0
    3.2060    5.7788   14.9356 C   0  0  0  0  0  0  0  0  0  0  0  0
    3.4707    5.6844   16.2776 C   0  0  0  0  0  0  0  0  0  0  0  0
    3.1454    6.9188   12.7423 C   0  0  0  0  0  0  0  0  0  0  0  0
    1.9898    6.5147   12.4048 O   0  0  0  0  0  0  0  0  0  0  0  0
    4.0703    7.3621   11.7900 N   0  0  0  0  0  0  0  0  0  0  0  0
    5.0076    7.6955   12.0395 H   0  0  0  0  0  0  0  0  0  0  0  0
    3.6994    7.3583   10.3833 C   0  0  0  0  0  0  0  0  0  0  0  0
    3.5912    5.8991    9.9754 C   0  0  0  0  0  0  0  0  0  0  0  0
    2.4106    8.0954   10.1807 C   0  0  0  0  0  0  0  0  0  0  0  0
    3.2233    4.5337   17.0744 N   0  0  0  0  0  0  0  0  0  0  0  0
    2.4623    4.5753   17.8075 H   0  0  0  0  0  0  0  0  0  0  0  0
    4.1567    3.1178   16.8316 S   0  0  0  0  0  0  0  0  0  0  0  0
    3.9125    2.5029   15.4581 O   0  0  0  0  0  0  0  0  0  0  0  0
    5.6358    3.5160   16.9118 O   0  0  0  0  0  0  0  0  0  0  0  0
    3.8320    1.9575   18.0952 C   0  0  0  0  0  0  0  0  0  0  0  0
    3.1498    0.8077   17.8191 C   0  0  0  0  0  0  0  0  0  0  0  0
    2.9072   -0.0623   18.8912 C   0  0  0  0  0  0  0  0  0  0  0  0
    3.3247    0.2061   20.1679 C   0  0  0  0  0  0  0  0  0  0  0  0
    3.0114   -0.8919   21.4848 Cl  0  0  0  0  0  0  0  0  0  0  0  0
    4.0059    1.3772   20.3881 C   0  0  0  0  0  0  0  0  0  0  0  0
    4.2719    2.2628   19.3852 C   0  0  0  0  0  0  0  0  0  0  0  0
    5.1494    3.7727   19.6654 Cl  0  0  0  0  0  0  0  0  0  0  0  0
    4.3211    6.7610   18.2442 O   0  0  0  0  0  0  0  0  0  0  0  0
    5.3725    8.3170   19.7777 C   0  0  0  0  0  0  0  0  0  0  0  0
    6.5422    8.7676   20.3691 C   0  0  0  0  0  0  0  0  0  0  0  0
    7.7855    8.2178   20.1022 C   0  0  0  0  0  0  0  0  0  0  0  0
    7.8376    7.1736   19.2019 C   0  0  0  0  0  0  0  0  0  0  0  0
    6.6868    6.7101   18.6016 C   0  0  0  0  0  0  0  0  0  0  0  0
    5.4302    7.2726   18.8769 C   0  0  0  0  0  0  0  0  0  0  0  0
    3.5720    9.8284   19.1702 C   0  0  0  0  0  0  0  0  0  0  0  0
    4.1456    8.9088   20.0883 O   0  0  0  0  0  0  0  0  0  0  0  0
    9.0339    8.7117   20.7451 C   0  0  0  0  0  0  0  0  0  0  0  0
    9.2551    8.0012   22.0294 C   0  0  0  0  0  0  0  0  0  0  0  0
    9.8729    6.9245   22.1462 O   0  0  0  0  0  0  0  0  0  0  0  0
    8.7221    8.6028   23.1795 O   0  0  0  0  0  0  0  0  0  0  0  0
    9.0156    9.5378   23.4164 H   0  0  0  0  0  0  0  0  0  0  0  0
 34 35  1  0  0  0
 35 28  1  0  0  0
 28 29  2  0  0  0
 29 30  1  0  0  0
 30 36  1  0  0  0
 36 37  1  0  0  0
 37 38  2  0  0  0
 37 39  1  0  0  0
 30 31  2  0  0  0
 31 32  1  0  0  0
 32 33  2  0  0  0
 33 27  1  0  0  0
 27  1  1  0  0  0
  1  2  2  0  0  0
  2  3  1  0  0  0
  3  4  2  0  0  0
  4  7  1  0  0  0
  7  8  2  0  0  0
  7  9  1  0  0  0
  9 11  1  0  0  0
 11 12  1  0  0  0
 11 13  1  0  0  0
  4  5  1  0  0  0
  5  6  2  0  0  0
  6 14  1  0  0  0
 14 16  1  0  0  0
 16 17  2  0  0  0
 16 18  2  0  0  0
 16 19  1  0  0  0
 19 20  2  0  0  0
 20 21  1  0  0  0
 21 22  2  0  0  0
 22 23  1  0  0  0
 22 24  1  0  0  0
 24 25  2  0  0  0
 25 26  1  0  0  0
 33 28  1  0  0  0
  6  1  1  0  0  0
 25 19  1  0  0  0
 39 40  1  0  0  0
  9 10  1  0  0  0
 14 15  1  0  0  0
M  END
> <minimizedAffinity>
-6.95260

> <CNNscore>
0.1608941704

> <CNNaffinity>
6.1939697266

> <CNN_VS>
0.9965736270

> <CNNaffinity_variance>
0.2198585272

$$$$
[H]OC(=O)C([H])([H])c1c([H])c([H])c(Oc2c([H])c([H])c(C(=O)N([H])C([H])(C([H])([H])[H])C([H])([H])[H])c([H])c2N([H])S(=O)(=O)c2c([H])c([H])c(Cl)c([H])c2Cl)c(OC([H])([H])[H])c1[H]


 40 42  0  0  0  0  0  0  0  0999 V2000
    4.0451    7.3943   18.1877 C   0  0  0  0  0  0  0  0  0  0  0  0
    4.3375    8.6623   17.7646 C   0  0  0  0  0  0  0  0  0  0  0  0
    4.3597    8.9930   16.4237 C   0  0  0  0  0  0  0  0  0  0  0  0
    4.0836    8.0339   15.4829 C   0  0  0  0  0  0  0  0  0  0  0  0
    3.7908    6.7594   15.9210 C   0  0  0  0  0  0  0  0  0  0  0  0
    3.7583    6.3908   17.2413 C   0  0  0  0  0  0  0  0  0  0  0  0
    4.0919    8.3455   14.0481 C   0  0  0  0  0  0  0  0  0  0  0  0
    4.1304    9.5732   13.7259 O   0  0  0  0  0  0  0  0  0  0  0  0
    4.0595    7.3372   13.0780 N   0  0  0  0  0  0  0  0  0  0  0  0
    4.0312    6.3397   13.3148 H   0  0  0  0  0  0  0  0  0  0  0  0
    4.0689    7.7046   11.6704 C   0  0  0  0  0  0  0  0  0  0  0  0
    5.4318    7.3016   11.1343 C   0  0  0  0  0  0  0  0  0  0  0  0
    2.9533    7.0172   10.9435 C   0  0  0  0  0  0  0  0  0  0  0  0
    3.4719    5.0802   17.7109 N   0  0  0  0  0  0  0  0  0  0  0  0
    2.5501    4.9033   18.1981 H   0  0  0  0  0  0  0  0  0  0  0  0
    4.6177    3.8277   17.4797 S   0  0  0  0  0  0  0  0  0  0  0  0
    4.5991    3.2948   16.0514 O   0  0  0  0  0  0  0  0  0  0  0  0
    6.0095    4.4157   17.7437 O   0  0  0  0  0  0  0  0  0  0  0  0
    4.3410    2.5385   18.6244 C   0  0  0  0  0  0  0  0  0  0  0  0
    4.9577    2.5515   19.8423 C   0  0  0  0  0  0  0  0  0  0  0  0
    4.7039    1.4693   20.6963 C   0  0  0  0  0  0  0  0  0  0  0  0
    3.8790    0.4326   20.3483 C   0  0  0  0  0  0  0  0  0  0  0  0
    3.5787   -0.9023   21.4281 Cl  0  0  0  0  0  0  0  0  0  0  0  0
    3.2859    0.4711   19.1111 C   0  0  0  0  0  0  0  0  0  0  0  0
    3.4943    1.4976   18.2370 C   0  0  0  0  0  0  0  0  0  0  0  0
    2.7316    1.5505   16.6420 Cl  0  0  0  0  0  0  0  0  0  0  0  0
    4.0201    7.0632   19.5280 O   0  0  0  0  0  0  0  0  0  0  0  0
    4.9682    5.8631   21.4092 C   0  0  0  0  0  0  0  0  0  0  0  0
    6.1029    5.5225   22.1286 C   0  0  0  0  0  0  0  0  0  0  0  0
    7.3731    5.9598   21.7899 C   0  0  0  0  0  0  0  0  0  0  0  0
    7.4899    6.7716   20.6805 C   0  0  0  0  0  0  0  0  0  0  0  0
    6.3747    7.1231   19.9508 C   0  0  0  0  0  0  0  0  0  0  0  0
    5.0904    6.6763   20.3004 C   0  0  0  0  0  0  0  0  0  0  0  0
    3.6282    4.4475   22.8569 C   0  0  0  0  0  0  0  0  0  0  0  0
    3.7124    5.3890   21.7967 O   0  0  0  0  0  0  0  0  0  0  0  0
    8.5833    5.5859   22.5718 C   0  0  0  0  0  0  0  0  0  0  0  0
    9.1014    6.7726   23.2974 C   0  0  0  0  0  0  0  0  0  0  0  0
   10.1538    7.3758   23.0089 O   0  0  0  0  0  0  0  0  0  0  0  0
    8.3359    7.2295   24.3810 O   0  0  0  0  0  0  0  0  0  0  0  0
    7.3784    7.4991   24.2170 H   0  0  0  0  0  0  0  0  0  0  0  0
 34 35  1  0  0  0
 35 28  1  0  0  0
 28 29  2  0  0  0
 29 30  1  0  0  0
 30 36  1  0  0  0
 36 37  1  0  0  0
 37 38  2  0  0  0
 37 39  1  0  0  0
 30 31  2  0  0  0
 31 32  1  0  0  0
 32 33  2  0  0  0
 33 27  1  0  0  0
 27  1  1  0  0  0
  1  2  2  0  0  0
  2  3  1  0  0  0
  3  4  2  0  0  0
  4  7  1  0  0  0
  7  8  2  0  0  0
  7  9  1  0  0  0
  9 11  1  0  0  0
 11 12  1  0  0  0
 11 13  1  0  0  0
  4  5  1  0  0  0
  5  6  2  0  0  0
  6 14  1  0  0  0
 14 16  1  0  0  0
 16 17  2  0  0  0
 16 18  2  0  0  0
 16 19  1  0  0  0
 19 20  2  0  0  0
 20 21  1  0  0  0
 21 22  2  0  0  0
 22 23  1  0  0  0
 22 24  1  0  0  0
 24 25  2  0  0  0
 25 26  1  0  0  0
 33 28  1  0  0  0
  6  1  1  0  0  0
 25 19  1  0  0  0
 39 40  1  0  0  0
  9 10  1  0  0  0
 14 15  1  0  0  0
M  END
> <minimizedAffinity>
-7.95186

> <CNNscore>
0.1366105974

> <CNNaffinity>
6.3427648544

> <CNN_VS>
0.8664888740

> <CNNaffinity_variance>
0.2402019054

$$$$
[H]OC(=O)C([H])([H])c1c([H])c([H])c(Oc2c([H])c([H])c(C(=O)N([H])C([H])(C([H])([H])[H])C([H])([H])[H])c([H])c2N([H])S(=O)(=O)c2c([H])c([H])c(Cl)c([H])c2Cl)c(OC([H])([H])[H])c1[H]


 40 42  0  0  0  0  0  0  0  0999 V2000
    3.2420    6.2177   15.4406 C   0  0  0  0  0  0  0  0  0  0  0  0
    3.7991    7.4670   15.4068 C   0  0  0  0  0  0  0  0  0  0  0  0
    4.3443    8.0493   16.5344 C   0  0  0  0  0  0  0  0  0  0  0  0
    4.3324    7.3674   17.7243 C   0  0  0  0  0  0  0  0  0  0  0  0
    3.7679    6.1093   17.7465 C   0  0  0  0  0  0  0  0  0  0  0  0
    3.2168    5.4965   16.6507 C   0  0  0  0  0  0  0  0  0  0  0  0
    4.9059    7.9488   18.9446 C   0  0  0  0  0  0  0  0  0  0  0  0
    6.0214    8.5445   18.8291 O   0  0  0  0  0  0  0  0  0  0  0  0
    4.2544    7.8525   20.1796 N   0  0  0  0  0  0  0  0  0  0  0  0
    3.3521    7.3790   20.2959 H   0  0  0  0  0  0  0  0  0  0  0  0
    4.8699    8.4470   21.3560 C   0  0  0  0  0  0  0  0  0  0  0  0
    6.0148    7.5288   21.7476 C   0  0  0  0  0  0  0  0  0  0  0  0
    5.3423    9.8364   21.0530 C   0  0  0  0  0  0  0  0  0  0  0  0
    2.6190    4.2070   16.6572 N   0  0  0  0  0  0  0  0  0  0  0  0
    1.5826    4.1265   16.8515 H   0  0  0  0  0  0  0  0  0  0  0  0
    3.5835    2.8240   16.3536 S   0  0  0  0  0  0  0  0  0  0  0  0
    3.2117    2.1475   15.0388 O   0  0  0  0  0  0  0  0  0  0  0  0
    5.0417    3.2878   16.2473 O   0  0  0  0  0  0  0  0  0  0  0  0
    3.4612    1.6998   17.6838 C   0  0  0  0  0  0  0  0  0  0  0  0
    2.6711    0.5912   17.5814 C   0  0  0  0  0  0  0  0  0  0  0  0
    2.6062   -0.2504   18.7006 C   0  0  0  0  0  0  0  0  0  0  0  0
    3.2942    0.0057   19.8570 C   0  0  0  0  0  0  0  0  0  0  0  0
    3.1977   -1.0565   21.2356 Cl  0  0  0  0  0  0  0  0  0  0  0  0
    4.0729    1.1350   19.9045 C   0  0  0  0  0  0  0  0  0  0  0  0
    4.1760    1.9916   18.8477 C   0  0  0  0  0  0  0  0  0  0  0  0
    5.1785    3.4476   18.9054 Cl  0  0  0  0  0  0  0  0  0  0  0  0
    2.6990    5.6335   14.3133 O   0  0  0  0  0  0  0  0  0  0  0  0
    2.8836    6.5231   12.0656 C   0  0  0  0  0  0  0  0  0  0  0  0
    3.4836    6.4389   10.8190 C   0  0  0  0  0  0  0  0  0  0  0  0
    4.4383    5.4865   10.5016 C   0  0  0  0  0  0  0  0  0  0  0  0
    4.7929    4.5899   11.4884 C   0  0  0  0  0  0  0  0  0  0  0  0
    4.2085    4.6551   12.7350 C   0  0  0  0  0  0  0  0  0  0  0  0
    3.2412    5.6231   13.0493 C   0  0  0  0  0  0  0  0  0  0  0  0
    0.5870    7.2960   11.9127 C   0  0  0  0  0  0  0  0  0  0  0  0
    1.9283    7.5079   12.3293 O   0  0  0  0  0  0  0  0  0  0  0  0
    5.0747    5.4079    9.1583 C   0  0  0  0  0  0  0  0  0  0  0  0
    5.8027    6.6690    8.8704 C   0  0  0  0  0  0  0  0  0  0  0  0
    5.5358    7.4422    7.9293 O   0  0  0  0  0  0  0  0  0  0  0  0
    6.8621    6.9929    9.7315 O   0  0  0  0  0  0  0  0  0  0  0  0
    6.6711    7.0939   10.7163 H   0  0  0  0  0  0  0  0  0  0  0  0
 34 35  1  0  0  0
 35 28  1  0  0  0
 28 29  2  0  0  0
 29 30  1  0  0  0
 30 36  1  0  0  0
 36 37  1  0  0  0
 37 38  2  0  0  0
 37 39  1  0  0  0
 30 31  2  0  0  0
 31 32  1  0  0  0
 32 33  2  0  0  0
 33 27  1  0  0  0
 27  1  1  0  0  0
  1  2  2  0  0  0
  2  3  1  0  0  0
  3  4  2  0  0  0
  4  7  1  0  0  0
  7  8  2  0  0  0
  7  9  1  0  0  0
  9 11  1  0  0  0
 11 12  1  0  0  0
 11 13  1  0  0  0
  4  5  1  0  0  0
  5  6  2  0  0  0
  6 14  1  0  0  0
 14 16  1  0  0  0
 16 17  2  0  0  0
 16 18  2  0  0  0
 16 19  1  0  0  0
 19 20  2  0  0  0
 20 21  1  0  0  0
 21 22  2  0  0  0
 22 23  1  0  0  0
 22 24  1  0  0  0
 24 25  2  0  0  0
 25 26  1  0  0  0
 33 28  1  0  0  0
  6  1  1  0  0  0
 25 19  1  0  0  0
 39 40  1  0  0  0
  9 10  1  0  0  0
 14 15  1  0  0  0
M  END
> <minimizedAffinity>
-7.50744

> <CNNscore>
0.1271813214

> <CNNaffinity>
6.2742333412

> <CNN_VS>
0.7979652882

> <CNNaffinity_variance>
0.1950035244

$$$$
[H]OC(=O)C([H])([H])c1c([H])c([H])c(Oc2c([H])c([H])c(C(=O)N([H])C([H])(C([H])([H])[H])C([H])([H])[H])c([H])c2N([H])S(=O)(=O)c2c([H])c([H])c(Cl)c([H])c2Cl)c(OC([H])([H])[H])c1[H]


 40 42  0  0  0  0  0  0  0  0999 V2000
    4.9191    7.5533   19.7093 C   0  0  0  0  0  0  0  0  0  0  0  0
    5.0048    8.6955   20.4578 C   0  0  0  0  0  0  0  0  0  0  0  0
    6.0155    8.8848   21.3800 C   0  0  0  0  0  0  0  0  0  0  0  0
    6.9631    7.9095   21.5590 C   0  0  0  0  0  0  0  0  0  0  0  0
    6.8663    6.7624   20.7995 C   0  0  0  0  0  0  0  0  0  0  0  0
    5.8798    6.5361   19.8745 C   0  0  0  0  0  0  0  0  0  0  0  0
    8.0562    8.0737   22.5255 C   0  0  0  0  0  0  0  0  0  0  0  0
    8.8768    9.0188   22.3112 O   0  0  0  0  0  0  0  0  0  0  0  0
    8.1895    7.2286   23.6331 N   0  0  0  0  0  0  0  0  0  0  0  0
    7.5375    6.4612   23.8277 H   0  0  0  0  0  0  0  0  0  0  0  0
    9.2930    7.4376   24.5579 C   0  0  0  0  0  0  0  0  0  0  0  0
    8.7343    8.2554   25.7095 C   0  0  0  0  0  0  0  0  0  0  0  0
    9.8452    6.1228   25.0182 C   0  0  0  0  0  0  0  0  0  0  0  0
    5.7562    5.3556   19.0926 N   0  0  0  0  0  0  0  0  0  0  0  0
    6.3726    5.2414   18.2409 H   0  0  0  0  0  0  0  0  0  0  0  0
    4.6201    4.1552   19.5435 S   0  0  0  0  0  0  0  0  0  0  0  0
    3.2049    4.7151   19.6332 O   0  0  0  0  0  0  0  0  0  0  0  0
    4.6294    3.0737   18.4560 O   0  0  0  0  0  0  0  0  0  0  0  0
    5.0902    3.4174   21.0546 C   0  0  0  0  0  0  0  0  0  0  0  0
    5.8705    2.2972   21.0635 C   0  0  0  0  0  0  0  0  0  0  0  0
    6.1852    1.7501   22.3151 C   0  0  0  0  0  0  0  0  0  0  0  0
    5.7420    2.2952   23.4910 C   0  0  0  0  0  0  0  0  0  0  0  0
    6.1472    1.5965   25.0356 Cl  0  0  0  0  0  0  0  0  0  0  0  0
    4.9600    3.4211   23.4226 C   0  0  0  0  0  0  0  0  0  0  0  0
    4.6207    3.9991   22.2344 C   0  0  0  0  0  0  0  0  0  0  0  0
    3.6133    5.4500   22.1425 Cl  0  0  0  0  0  0  0  0  0  0  0  0
    3.9107    7.3641   18.7851 O   0  0  0  0  0  0  0  0  0  0  0  0
    4.6299    8.4944   16.7645 C   0  0  0  0  0  0  0  0  0  0  0  0
    4.7001    8.4859   15.3803 C   0  0  0  0  0  0  0  0  0  0  0  0
    4.1881    7.4597   14.6030 C   0  0  0  0  0  0  0  0  0  0  0  0
    3.5842    6.4071   15.2594 C   0  0  0  0  0  0  0  0  0  0  0  0
    3.5029    6.3954   16.6352 C   0  0  0  0  0  0  0  0  0  0  0  0
    4.0239    7.4392   17.4164 C   0  0  0  0  0  0  0  0  0  0  0  0
    6.5551    9.8374   17.3851 C   0  0  0  0  0  0  0  0  0  0  0  0
    5.1673    9.5561   17.4966 O   0  0  0  0  0  0  0  0  0  0  0  0
    4.2707    7.4636   13.1168 C   0  0  0  0  0  0  0  0  0  0  0  0
    2.9059    7.5199   12.5359 C   0  0  0  0  0  0  0  0  0  0  0  0
    2.3967    6.6235   11.8347 O   0  0  0  0  0  0  0  0  0  0  0  0
    2.1547    8.6732   12.8088 O   0  0  0  0  0  0  0  0  0  0  0  0
    1.9718    8.9149   13.7703 H   0  0  0  0  0  0  0  0  0  0  0  0
 34 35  1  0  0  0
 35 28  1  0  0  0
 28 29  2  0  0  0
 29 30  1  0  0  0
 30 36  1  0  0  0
 36 37  1  0  0  0
 37 38  2  0  0  0
 37 39  1  0  0  0
 30 31  2  0  0  0
 31 32  1  0  0  0
 32 33  2  0  0  0
 33 27  1  0  0  0
 27  1  1  0  0  0
  1  2  2  0  0  0
  2  3  1  0  0  0
  3  4  2  0  0  0
  4  7  1  0  0  0
  7  8  2  0  0  0
  7  9  1  0  0  0
  9 11  1  0  0  0
 11 12  1  0  0  0
 11 13  1  0  0  0
  4  5  1  0  0  0
  5  6  2  0  0  0
  6 14  1  0  0  0
 14 16  1  0  0  0
 16 17  2  0  0  0
 16 18  2  0  0  0
 16 19  1  0  0  0
 19 20  2  0  0  0
 20 21  1  0  0  0
 21 22  2  0  0  0
 22 23  1  0  0  0
 22 24  1  0  0  0
 24 25  2  0  0  0
 25 26  1  0  0  0
 33 28  1  0  0  0
  6  1  1  0  0  0
 25 19  1  0  0  0
 39 40  1  0  0  0
  9 10  1  0  0  0
 14 15  1  0  0  0
M  END
> <minimizedAffinity>
-7.58884

> <CNNscore>
0.1205711886

> <CNNaffinity>
5.8922529221

> <CNN_VS>
0.7104359269

> <CNNaffinity_variance>
0.4011000693

$$$$
[H]c1c([H])c([H])c(N([H])c2nc3c([H])nc(N([H])c4c([H])c([H])c(OC([H])([H])[H])c([H])c4[H])nc3n2C([H])(C([H])([H])[H])C([H])([H])[H])c(F)c1[H]


 31 34  0  0  0  0  0  0  0  0999 V2000
    3.4792    0.8697   18.7645 C   0  0  0  0  0  0  0  0  0  0  0  0
    2.9012   -0.1256   18.0929 N   0  0  0  0  0  0  0  0  0  0  0  0
    2.4599   -0.0753   16.8375 C   0  0  0  0  0  0  0  0  0  0  0  0
    2.6027    1.1093   16.1430 C   0  0  0  0  0  0  0  0  0  0  0  0
    2.2888    1.5172   14.9088 N   0  0  0  0  0  0  0  0  0  0  0  0
    2.6645    2.7958   14.7666 C   0  0  0  0  0  0  0  0  0  0  0  0
    3.2327    3.2293   15.9265 N   0  0  0  0  0  0  0  0  0  0  0  0
    3.1907    2.1765   16.7763 C   0  0  0  0  0  0  0  0  0  0  0  0
    3.6046    2.0356   18.0397 N   0  0  0  0  0  0  0  0  0  0  0  0
    3.7800    4.5450   16.2204 C   0  0  0  0  0  0  0  0  0  0  0  0
    5.1815    4.4576   16.7929 C   0  0  0  0  0  0  0  0  0  0  0  0
    2.8637    5.3680   17.0743 C   0  0  0  0  0  0  0  0  0  0  0  0
    3.9416    0.8167   20.0798 N   0  0  0  0  0  0  0  0  0  0  0  0
    3.6168   -0.0036   20.6793 H   0  0  0  0  0  0  0  0  0  0  0  0
    6.3677    3.7758   21.8925 C   0  0  0  0  0  0  0  0  0  0  0  0
    6.6440    2.4413   22.0616 C   0  0  0  0  0  0  0  0  0  0  0  0
    5.8678    1.4477   21.4709 C   0  0  0  0  0  0  0  0  0  0  0  0
    4.7938    1.7432   20.6953 C   0  0  0  0  0  0  0  0  0  0  0  0
    4.5211    3.1289   20.5296 C   0  0  0  0  0  0  0  0  0  0  0  0
    5.2850    4.0813   21.1098 C   0  0  0  0  0  0  0  0  0  0  0  0
    6.9808    6.0990   22.1048 C   0  0  0  0  0  0  0  0  0  0  0  0
    7.1496    4.7543   22.4870 O   0  0  0  0  0  0  0  0  0  0  0  0
    2.5107    3.5951   13.6125 N   0  0  0  0  0  0  0  0  0  0  0  0
    1.8064    4.4016   13.7199 H   0  0  0  0  0  0  0  0  0  0  0  0
    3.1387    3.4853   12.3659 C   0  0  0  0  0  0  0  0  0  0  0  0
    2.8294    2.5609   11.3983 C   0  0  0  0  0  0  0  0  0  0  0  0
    3.5325    2.5495   10.1833 C   0  0  0  0  0  0  0  0  0  0  0  0
    4.5388    3.4522    9.9296 C   0  0  0  0  0  0  0  0  0  0  0  0
    4.8638    4.3873   10.8882 C   0  0  0  0  0  0  0  0  0  0  0  0
    4.1764    4.3834   12.0518 C   0  0  0  0  0  0  0  0  0  0  0  0
    4.5295    5.3285   12.9787 F   0  0  0  0  0  0  0  0  0  0  0  0
 21 22  1  0  0  0
 22 15  1  0  0  0
 15 16  2  0  0  0
 16 17  1  0  0  0
 17 18  2  0  0  0
 18 13  1  0  0  0
 13  1  1  0  0  0
  1  2  2  0  0  0
  2  3  1  0  0  0
  3  4  2  0  0  0
  4  5  1  0  0  0
  5  6  2  0  0  0
  6 23  1  0  0  0
 23 25  1  0  0  0
 25 26  2  0  0  0
 26 27  1  0  0  0
 27 28  2  0  0  0
 28 29  1  0  0  0
 29 30  2  0  0  0
 30 31  1  0  0  0
  6  7  1  0  0  0
  7 10  1  0  0  0
 10 11  1  0  0  0
 10 12  1  0  0  0
  7  8  1  0  0  0
  8  9  2  0  0  0
 18 19  1  0  0  0
 19 20  2  0  0  0
 20 15  1  0  0  0
  9  1  1  0  0  0
  8  4  1  0  0  0
 30 25  1  0  0  0
 13 14  1  0  0  0
 23 24  1  0  0  0
M  END
> <minimizedAffinity>
-7.06649

> <CNNscore>
0.5857065320

> <CNNaffinity>
6.9060716629

> <CNN_VS>
4.0449314117

> <CNNaffinity_variance>
0.3711786866

$$$$
[H]c1c([H])c([H])c(N([H])c2nc3c([H])nc(N([H])c4c([H])c([H])c(OC([H])([H])[H])c([H])c4[H])nc3n2C([H])(C([H])([H])[H])C([H])([H])[H])c(F)c1[H]


 31 34  0  0  0  0  0  0  0  0999 V2000
    3.2085    0.9264   17.8921 C   0  0  0  0  0  0  0  0  0  0  0  0
    2.7510    0.2940   16.8121 N   0  0  0  0  0  0  0  0  0  0  0  0
    2.7162    0.7793   15.5724 C   0  0  0  0  0  0  0  0  0  0  0  0
    3.1935    2.0569   15.3585 C   0  0  0  0  0  0  0  0  0  0  0  0
    3.3131    2.8467   14.2860 N   0  0  0  0  0  0  0  0  0  0  0  0
    3.8555    4.0121   14.6648 C   0  0  0  0  0  0  0  0  0  0  0  0
    4.0938    3.9827   16.0059 N   0  0  0  0  0  0  0  0  0  0  0  0
    3.6800    2.7654   16.4294 C   0  0  0  0  0  0  0  0  0  0  0  0
    3.6764    2.1984   17.6401 N   0  0  0  0  0  0  0  0  0  0  0  0
    4.6718    5.0273   16.8375 C   0  0  0  0  0  0  0  0  0  0  0  0
    5.9370    4.5604   17.5308 C   0  0  0  0  0  0  0  0  0  0  0  0
    3.6777    5.6121   17.7946 C   0  0  0  0  0  0  0  0  0  0  0  0
    3.2451    0.4177   19.1908 N   0  0  0  0  0  0  0  0  0  0  0  0
    2.6972   -0.4776   19.3806 H   0  0  0  0  0  0  0  0  0  0  0  0
    5.1644    2.0150   22.6104 C   0  0  0  0  0  0  0  0  0  0  0  0
    5.8082    1.9760   21.3980 C   0  0  0  0  0  0  0  0  0  0  0  0
    5.1982    1.4636   20.2561 C   0  0  0  0  0  0  0  0  0  0  0  0
    3.9328    0.9732   20.2780 C   0  0  0  0  0  0  0  0  0  0  0  0
    3.2796    1.0208   21.5402 C   0  0  0  0  0  0  0  0  0  0  0  0
    3.8860    1.5220   22.6394 C   0  0  0  0  0  0  0  0  0  0  0  0
    5.9642    1.7006   24.8642 C   0  0  0  0  0  0  0  0  0  0  0  0
    5.7846    2.5282   23.7392 O   0  0  0  0  0  0  0  0  0  0  0  0
    4.1468    5.1152   13.8324 N   0  0  0  0  0  0  0  0  0  0  0  0
    5.1445    5.1179   13.4293 H   0  0  0  0  0  0  0  0  0  0  0  0
    3.3288    6.1903   13.4641 C   0  0  0  0  0  0  0  0  0  0  0  0
    2.2340    6.1104   12.6386 C   0  0  0  0  0  0  0  0  0  0  0  0
    1.4893    7.2626   12.3412 C   0  0  0  0  0  0  0  0  0  0  0  0
    1.8299    8.4896   12.8612 C   0  0  0  0  0  0  0  0  0  0  0  0
    2.9250    8.5901   13.6915 C   0  0  0  0  0  0  0  0  0  0  0  0
    3.6302    7.4704   13.9668 C   0  0  0  0  0  0  0  0  0  0  0  0
    4.7116    7.6122   14.7959 F   0  0  0  0  0  0  0  0  0  0  0  0
 21 22  1  0  0  0
 22 15  1  0  0  0
 15 16  2  0  0  0
 16 17  1  0  0  0
 17 18  2  0  0  0
 18 13  1  0  0  0
 13  1  1  0  0  0
  1  2  2  0  0  0
  2  3  1  0  0  0
  3  4  2  0  0  0
  4  5  1  0  0  0
  5  6  2  0  0  0
  6 23  1  0  0  0
 23 25  1  0  0  0
 25 26  2  0  0  0
 26 27  1  0  0  0
 27 28  2  0  0  0
 28 29  1  0  0  0
 29 30  2  0  0  0
 30 31  1  0  0  0
  6  7  1  0  0  0
  7 10  1  0  0  0
 10 11  1  0  0  0
 10 12  1  0  0  0
  7  8  1  0  0  0
  8  9  2  0  0  0
 18 19  1  0  0  0
 19 20  2  0  0  0
 20 15  1  0  0  0
  9  1  1  0  0  0
  8  4  1  0  0  0
 30 25  1  0  0  0
 13 14  1  0  0  0
 23 24  1  0  0  0
M  END
> <minimizedAffinity>
-7.75053

> <CNNscore>
0.5642545819

> <CNNaffinity>
6.8557424545

> <CNN_VS>
3.8683841228

> <CNNaffinity_variance>
0.2390300333

$$$$
[H]c1c([H])c([H])c(N([H])c2nc3c([H])nc(N([H])c4c([H])c([H])c(OC([H])([H])[H])c([H])c4[H])nc3n2C([H])(C([H])([H])[H])C([H])([H])[H])c(F)c1[H]


 31 34  0  0  0  0  0  0  0  0999 V2000
    2.8383    1.8775   15.1286 C   0  0  0  0  0  0  0  0  0  0  0  0
    2.8203    0.7055   15.7625 N   0  0  0  0  0  0  0  0  0  0  0  0
    3.2746    0.4693   16.9919 C   0  0  0  0  0  0  0  0  0  0  0  0
    3.8211    1.5218   17.6987 C   0  0  0  0  0  0  0  0  0  0  0  0
    4.3591    1.6563   18.9155 N   0  0  0  0  0  0  0  0  0  0  0  0
    4.7354    2.9314   19.0841 C   0  0  0  0  0  0  0  0  0  0  0  0
    4.4384    3.6406   17.9594 N   0  0  0  0  0  0  0  0  0  0  0  0
    3.8709    2.7585   17.1037 C   0  0  0  0  0  0  0  0  0  0  0  0
    3.3907    2.9039   15.8645 N   0  0  0  0  0  0  0  0  0  0  0  0
    4.6709    5.0537   17.7022 C   0  0  0  0  0  0  0  0  0  0  0  0
    3.6936    5.6098   16.6848 C   0  0  0  0  0  0  0  0  0  0  0  0
    6.0968    5.3426   17.3428 C   0  0  0  0  0  0  0  0  0  0  0  0
    2.3622    2.1247   13.8405 N   0  0  0  0  0  0  0  0  0  0  0  0
    1.8934    1.3146   13.3290 H   0  0  0  0  0  0  0  0  0  0  0  0
    2.3983    5.8421   11.8139 C   0  0  0  0  0  0  0  0  0  0  0  0
    3.5569    5.1252   11.9861 C   0  0  0  0  0  0  0  0  0  0  0  0
    3.5725    3.8968   12.6414 C   0  0  0  0  0  0  0  0  0  0  0  0
    2.4430    3.3399   13.1476 C   0  0  0  0  0  0  0  0  0  0  0  0
    1.2519    4.0940   12.9609 C   0  0  0  0  0  0  0  0  0  0  0  0
    1.2538    5.2851   12.3218 C   0  0  0  0  0  0  0  0  0  0  0  0
    2.1072    8.2356   11.8844 C   0  0  0  0  0  0  0  0  0  0  0  0
    2.3980    7.0642   11.1590 O   0  0  0  0  0  0  0  0  0  0  0  0
    5.3452    3.4846   20.2316 N   0  0  0  0  0  0  0  0  0  0  0  0
    6.0524    4.2692   20.0258 H   0  0  0  0  0  0  0  0  0  0  0  0
    5.1597    3.1583   21.5805 C   0  0  0  0  0  0  0  0  0  0  0  0
    4.1986    3.6932   22.4032 C   0  0  0  0  0  0  0  0  0  0  0  0
    4.1110    3.2853   23.7436 C   0  0  0  0  0  0  0  0  0  0  0  0
    4.9740    2.3501   24.2655 C   0  0  0  0  0  0  0  0  0  0  0  0
    5.9450    1.8019   23.4558 C   0  0  0  0  0  0  0  0  0  0  0  0
    6.0145    2.2065   22.1681 C   0  0  0  0  0  0  0  0  0  0  0  0
    6.9933    1.6381   21.3962 F   0  0  0  0  0  0  0  0  0  0  0  0
 21 22  1  0  0  0
 22 15  1  0  0  0
 15 16  2  0  0  0
 16 17  1  0  0  0
 17 18  2  0  0  0
 18 13  1  0  0  0
 13  1  1  0  0  0
  1  2  2  0  0  0
  2  3  1  0  0  0
  3  4  2  0  0  0
  4  5  1  0  0  0
  5  6  2  0  0  0
  6 23  1  0  0  0
 23 25  1  0  0  0
 25 26  2  0  0  0
 26 27  1  0  0  0
 27 28  2  0  0  0
 28 29  1  0  0  0
 29 30  2  0  0  0
 30 31  1  0  0  0
  6  7  1  0  0  0
  7 10  1  0  0  0
 10 11  1  0  0  0
 10 12  1  0  0  0
  7  8  1  0  0  0
  8  9  2  0  0  0
 18 19  1  0  0  0
 19 20  2  0  0  0
 20 15  1  0  0  0
  9  1  1  0  0  0
  8  4  1  0  0  0
 30 25  1  0  0  0
 13 14  1  0  0  0
 23 24  1  0  0  0
M  END
> <minimizedAffinity>
-7.41223

> <CNNscore>
0.5632524490

> <CNNaffinity>
6.6582016945

> <CNN_VS>
3.7502484322

> <CNNaffinity_variance>
0.2303563356

$$$$
[H]c1c([H])c([H])c(N([H])c2nc3c([H])nc(N([H])c4c([H])c([H])c(OC([H])([H])[H])c([H])c4[H])nc3n2C([H])(C([H])([H])[H])C([H])([H])[H])c(F)c1[H]


 31 34  0  0  0  0  0  0  0  0999 V2000
    3.7635    1.5056   20.2189 C   0  0  0  0  0  0  0  0  0  0  0  0
    3.1800    0.3352   19.9631 N   0  0  0  0  0  0  0  0  0  0  0  0
    2.8286   -0.1228   18.7630 C   0  0  0  0  0  0  0  0  0  0  0  0
    3.0818    0.6710   17.6622 C   0  0  0  0  0  0  0  0  0  0  0  0
    2.8750    0.5453   16.3470 N   0  0  0  0  0  0  0  0  0  0  0  0
    3.3277    1.6456   15.7304 C   0  0  0  0  0  0  0  0  0  0  0  0
    3.8381    2.5033   16.6578 N   0  0  0  0  0  0  0  0  0  0  0  0
    3.6818    1.8911   17.8549 C   0  0  0  0  0  0  0  0  0  0  0  0
    4.0005    2.2703   19.0966 N   0  0  0  0  0  0  0  0  0  0  0  0
    4.4339    3.8122   16.4373 C   0  0  0  0  0  0  0  0  0  0  0  0
    5.6825    4.0115   17.2745 C   0  0  0  0  0  0  0  0  0  0  0  0
    3.4465    4.9265   16.6087 C   0  0  0  0  0  0  0  0  0  0  0  0
    4.1317    1.9852   21.4763 N   0  0  0  0  0  0  0  0  0  0  0  0
    4.0142    1.3241   22.3051 H   0  0  0  0  0  0  0  0  0  0  0  0
    5.8750    5.7580   22.2855 C   0  0  0  0  0  0  0  0  0  0  0  0
    4.5137    5.6257   22.1621 C   0  0  0  0  0  0  0  0  0  0  0  0
    3.9135    4.3961   21.9041 C   0  0  0  0  0  0  0  0  0  0  0  0
    4.6411    3.2595   21.7593 C   0  0  0  0  0  0  0  0  0  0  0  0
    6.0487    3.4129   21.8902 C   0  0  0  0  0  0  0  0  0  0  0  0
    6.6157    4.6140   22.1412 C   0  0  0  0  0  0  0  0  0  0  0  0
    7.8296    7.1714   22.2776 C   0  0  0  0  0  0  0  0  0  0  0  0
    6.4587    6.9891   22.5426 O   0  0  0  0  0  0  0  0  0  0  0  0
    3.2961    1.9063   14.3427 N   0  0  0  0  0  0  0  0  0  0  0  0
    3.9902    1.3223   13.7638 H   0  0  0  0  0  0  0  0  0  0  0  0
    2.4980    2.8064   13.6261 C   0  0  0  0  0  0  0  0  0  0  0  0
    1.1379    2.7074   13.4626 C   0  0  0  0  0  0  0  0  0  0  0  0
    0.4445    3.6757   12.7194 C   0  0  0  0  0  0  0  0  0  0  0  0
    1.0987    4.7382   12.1405 C   0  0  0  0  0  0  0  0  0  0  0  0
    2.4632    4.8548   12.2933 C   0  0  0  0  0  0  0  0  0  0  0  0
    3.1142    3.9133   13.0121 C   0  0  0  0  0  0  0  0  0  0  0  0
    4.4697    4.0650   13.1406 F   0  0  0  0  0  0  0  0  0  0  0  0
 21 22  1  0  0  0
 22 15  1  0  0  0
 15 16  2  0  0  0
 16 17  1  0  0  0
 17 18  2  0  0  0
 18 13  1  0  0  0
 13  1  1  0  0  0
  1  2  2  0  0  0
  2  3  1  0  0  0
  3  4  2  0  0  0
  4  5  1  0  0  0
  5  6  2  0  0  0
  6 23  1  0  0  0
 23 25  1  0  0  0
 25 26  2  0  0  0
 26 27  1  0  0  0
 27 28  2  0  0  0
 28 29  1  0  0  0
 29 30  2  0  0  0
 30 31  1  0  0  0
  6  7  1  0  0  0
  7 10  1  0  0  0
 10 11  1  0  0  0
 10 12  1  0  0  0
  7  8  1  0  0  0
  8  9  2  0  0  0
 18 19  1  0  0  0
 19 20  2  0  0  0
 20 15  1  0  0  0
  9  1  1  0  0  0
  8  4  1  0  0  0
 30 25  1  0  0  0
 13 14  1  0  0  0
 23 24  1  0  0  0
M  END
> <minimizedAffinity>
-7.73694

> <CNNscore>
0.4532544315

> <CNNaffinity>
6.6945457458

> <CNN_VS>
3.0343325138

> <CNNaffinity_variance>
0.3337948918

$$$$
[H]c1c([H])c([H])c(N([H])c2nc3c([H])nc(N([H])c4c([H])c([H])c(OC([H])([H])[H])c([H])c4[H])nc3n2C([H])(C([H])([H])[H])C([H])([H])[H])c(F)c1[H]


 31 34  0  0  0  0  0  0  0  0999 V2000
    4.1040    1.6109   19.5562 C   0  0  0  0  0  0  0  0  0  0  0  0
    4.2552    1.0112   20.7366 N   0  0  0  0  0  0  0  0  0  0  0  0
    4.5779    1.6043   21.8845 C   0  0  0  0  0  0  0  0  0  0  0  0
    4.7805    2.9698   21.8786 C   0  0  0  0  0  0  0  0  0  0  0  0
    5.1052    3.8744   22.8085 N   0  0  0  0  0  0  0  0  0  0  0  0
    5.1683    5.0832   22.2332 C   0  0  0  0  0  0  0  0  0  0  0  0
    4.8803    4.9659   20.9068 N   0  0  0  0  0  0  0  0  0  0  0  0
    4.6406    3.6507   20.6943 C   0  0  0  0  0  0  0  0  0  0  0  0
    4.3140    2.9730   19.5891 N   0  0  0  0  0  0  0  0  0  0  0  0
    4.8325    6.0177   19.9027 C   0  0  0  0  0  0  0  0  0  0  0  0
    3.4702    6.1052   19.2424 C   0  0  0  0  0  0  0  0  0  0  0  0
    5.9455    5.9072   18.9052 C   0  0  0  0  0  0  0  0  0  0  0  0
    3.7658    0.9893   18.3537 N   0  0  0  0  0  0  0  0  0  0  0  0
    3.5868   -0.0619   18.3804 H   0  0  0  0  0  0  0  0  0  0  0  0
    3.2107    2.7474   14.5420 C   0  0  0  0  0  0  0  0  0  0  0  0
    4.0671    3.3098   15.4564 C   0  0  0  0  0  0  0  0  0  0  0  0
    4.2745    2.7485   16.7137 C   0  0  0  0  0  0  0  0  0  0  0  0
    3.6406    1.6142   17.1058 C   0  0  0  0  0  0  0  0  0  0  0  0
    2.7576    1.0440   16.1480 C   0  0  0  0  0  0  0  0  0  0  0  0
    2.5678    1.6013   14.9312 C   0  0  0  0  0  0  0  0  0  0  0  0
    4.0014    4.1687   12.7608 C   0  0  0  0  0  0  0  0  0  0  0  0
    3.0142    3.3176   13.2935 O   0  0  0  0  0  0  0  0  0  0  0  0
    5.4806    6.3039   22.8713 N   0  0  0  0  0  0  0  0  0  0  0  0
    4.8817    6.5190   23.7390 H   0  0  0  0  0  0  0  0  0  0  0  0
    6.4479    7.2592   22.5360 C   0  0  0  0  0  0  0  0  0  0  0  0
    7.8068    7.0784   22.6201 C   0  0  0  0  0  0  0  0  0  0  0  0
    8.6802    8.1147   22.2540 C   0  0  0  0  0  0  0  0  0  0  0  0
    8.2065    9.3259   21.8063 C   0  0  0  0  0  0  0  0  0  0  0  0
    6.8462    9.5265   21.7150 C   0  0  0  0  0  0  0  0  0  0  0  0
    6.0205    8.5177   22.0717 C   0  0  0  0  0  0  0  0  0  0  0  0
    4.6756    8.7566   21.9667 F   0  0  0  0  0  0  0  0  0  0  0  0
 21 22  1  0  0  0
 22 15  1  0  0  0
 15 16  2  0  0  0
 16 17  1  0  0  0
 17 18  2  0  0  0
 18 13  1  0  0  0
 13  1  1  0  0  0
  1  2  2  0  0  0
  2  3  1  0  0  0
  3  4  2  0  0  0
  4  5  1  0  0  0
  5  6  2  0  0  0
  6 23  1  0  0  0
 23 25  1  0  0  0
 25 26  2  0  0  0
 26 27  1  0  0  0
 27 28  2  0  0  0
 28 29  1  0  0  0
 29 30  2  0  0  0
 30 31  1  0  0  0
  6  7  1  0  0  0
  7 10  1  0  0  0
 10 11  1  0  0  0
 10 12  1  0  0  0
  7  8  1  0  0  0
  8  9  2  0  0  0
 18 19  1  0  0  0
 19 20  2  0  0  0
 20 15  1  0  0  0
  9  1  1  0  0  0
  8  4  1  0  0  0
 30 25  1  0  0  0
 13 14  1  0  0  0
 23 24  1  0  0  0
M  END
> <minimizedAffinity>
-8.62157

> <CNNscore>
0.2201599032

> <CNNaffinity>
6.4103116989

> <CNN_VS>
1.4112936258

> <CNNaffinity_variance>
0.4000113606

$$$$
[H]c1c([H])c([H])c(N([H])c2nc3c([H])nc(N([H])c4c([H])c([H])c(OC([H])([H])[H])c([H])c4[H])nc3n2C([H])(C([H])([H])[H])C([H])([H])[H])c(F)c1[H]


 31 34  0  0  0  0  0  0  0  0999 V2000
    2.2843    4.1907   14.0045 C   0  0  0  0  0  0  0  0  0  0  0  0
    2.3735    2.8771   13.7988 N   0  0  0  0  0  0  0  0  0  0  0  0
    2.9017    1.9844   14.6340 C   0  0  0  0  0  0  0  0  0  0  0  0
    3.4126    2.4366   15.8342 C   0  0  0  0  0  0  0  0  0  0  0  0
    3.9996    1.8521   16.8839 N   0  0  0  0  0  0  0  0  0  0  0  0
    4.3002    2.7920   17.7907 C   0  0  0  0  0  0  0  0  0  0  0  0
    3.9031    4.0093   17.3255 N   0  0  0  0  0  0  0  0  0  0  0  0
    3.3529    3.7805   16.1101 C   0  0  0  0  0  0  0  0  0  0  0  0
    2.8043    4.6051   15.2121 N   0  0  0  0  0  0  0  0  0  0  0  0
    4.0306    5.3040   17.9771 C   0  0  0  0  0  0  0  0  0  0  0  0
    5.4747    5.6304   18.3048 C   0  0  0  0  0  0  0  0  0  0  0  0
    3.1300    5.4363   19.1677 C   0  0  0  0  0  0  0  0  0  0  0  0
    1.7307    5.1259   13.1294 N   0  0  0  0  0  0  0  0  0  0  0  0
    2.4053    5.6851   12.5211 H   0  0  0  0  0  0  0  0  0  0  0  0
   -2.3570    6.1671   12.7624 C   0  0  0  0  0  0  0  0  0  0  0  0
   -1.8359    5.1098   12.0578 C   0  0  0  0  0  0  0  0  0  0  0  0
   -0.4977    4.7408   12.1655 C   0  0  0  0  0  0  0  0  0  0  0  0
    0.3668    5.4064   12.9727 C   0  0  0  0  0  0  0  0  0  0  0  0
   -0.1878    6.4982   13.6957 C   0  0  0  0  0  0  0  0  0  0  0  0
   -1.4896    6.8433   13.5801 C   0  0  0  0  0  0  0  0  0  0  0  0
   -4.5275    5.7913   11.7797 C   0  0  0  0  0  0  0  0  0  0  0  0
   -3.6919    6.5231   12.6451 O   0  0  0  0  0  0  0  0  0  0  0  0
    4.9282    2.5872   19.0391 N   0  0  0  0  0  0  0  0  0  0  0  0
    5.9568    2.9010   19.0770 H   0  0  0  0  0  0  0  0  0  0  0  0
    4.4053    2.0403   20.2172 C   0  0  0  0  0  0  0  0  0  0  0  0
    3.7255    0.8504   20.3083 C   0  0  0  0  0  0  0  0  0  0  0  0
    3.2470    0.4047   21.5505 C   0  0  0  0  0  0  0  0  0  0  0  0
    3.4425    1.1374   22.6980 C   0  0  0  0  0  0  0  0  0  0  0  0
    4.1223    2.3339   22.6270 C   0  0  0  0  0  0  0  0  0  0  0  0
    4.5756    2.7473   21.4227 C   0  0  0  0  0  0  0  0  0  0  0  0
    5.2463    3.9416   21.3942 F   0  0  0  0  0  0  0  0  0  0  0  0
 21 22  1  0  0  0
 22 15  1  0  0  0
 15 16  2  0  0  0
 16 17  1  0  0  0
 17 18  2  0  0  0
 18 13  1  0  0  0
 13  1  1  0  0  0
  1  2  2  0  0  0
  2  3  1  0  0  0
  3  4  2  0  0  0
  4  5  1  0  0  0
  5  6  2  0  0  0
  6 23  1  0  0  0
 23 25  1  0  0  0
 25 26  2  0  0  0
 26 27  1  0  0  0
 27 28  2  0  0  0
 28 29  1  0  0  0
 29 30  2  0  0  0
 30 31  1  0  0  0
  6  7  1  0  0  0
  7 10  1  0  0  0
 10 11  1  0  0  0
 10 12  1  0  0  0
  7  8  1  0  0  0
  8  9  2  0  0  0
 18 19  1  0  0  0
 19 20  2  0  0  0
 20 15  1  0  0  0
  9  1  1  0  0  0
  8  4  1  0  0  0
 30 25  1  0  0  0
 13 14  1  0  0  0
 23 24  1  0  0  0
M  END
> <minimizedAffinity>
-7.96219

> <CNNscore>
0.1906874776

> <CNNaffinity>
6.2455658913

> <CNN_VS>
1.1909512281

> <CNNaffinity_variance>
0.2549690604

$$$$
[H]c1c([H])c([H])c(N([H])c2nc3c([H])nc(N([H])c4c([H])c([H])c(OC([H])([H])[H])c([H])c4[H])nc3n2C([H])(C([H])([H])[H])C([H])([H])[H])c(F)c1[H]


 31 34  0  0  0  0  0  0  0  0999 V2000
    2.8129    5.4277   15.0651 C   0  0  0  0  0  0  0  0  0  0  0  0
    3.1882    6.3200   15.9810 N   0  0  0  0  0  0  0  0  0  0  0  0
    3.6626    6.0485   17.1954 C   0  0  0  0  0  0  0  0  0  0  0  0
    3.7875    4.7245   17.5658 C   0  0  0  0  0  0  0  0  0  0  0  0
    4.2112    4.0939   18.6663 N   0  0  0  0  0  0  0  0  0  0  0  0
    4.1136    2.7715   18.4723 C   0  0  0  0  0  0  0  0  0  0  0  0
    3.6182    2.5351   17.2254 N   0  0  0  0  0  0  0  0  0  0  0  0
    3.4182    3.7526   16.6687 C   0  0  0  0  0  0  0  0  0  0  0  0
    2.9516    4.1173   15.4701 N   0  0  0  0  0  0  0  0  0  0  0  0
    3.3493    1.2514   16.5953 C   0  0  0  0  0  0  0  0  0  0  0  0
    2.9417    1.4105   15.1434 C   0  0  0  0  0  0  0  0  0  0  0  0
    2.3734    0.4243   17.3760 C   0  0  0  0  0  0  0  0  0  0  0  0
    2.3161    5.7124   13.7928 N   0  0  0  0  0  0  0  0  0  0  0  0
    3.0255    5.9559   13.0344 H   0  0  0  0  0  0  0  0  0  0  0  0
   -1.7770    5.9190   12.7289 C   0  0  0  0  0  0  0  0  0  0  0  0
   -0.9732    4.9207   12.2359 C   0  0  0  0  0  0  0  0  0  0  0  0
    0.3738    4.8244   12.5753 C   0  0  0  0  0  0  0  0  0  0  0  0
    0.9675    5.7129   13.4121 C   0  0  0  0  0  0  0  0  0  0  0  0
    0.1220    6.7401   13.9143 C   0  0  0  0  0  0  0  0  0  0  0  0
   -1.1840    6.8192   13.5752 C   0  0  0  0  0  0  0  0  0  0  0  0
   -3.6077    5.2066   11.3291 C   0  0  0  0  0  0  0  0  0  0  0  0
   -3.1169    6.0023   12.3821 O   0  0  0  0  0  0  0  0  0  0  0  0
    4.4601    1.7577   19.3925 N   0  0  0  0  0  0  0  0  0  0  0  0
    4.6180    0.7895   18.9501 H   0  0  0  0  0  0  0  0  0  0  0  0
    4.6245    1.8368   20.7807 C   0  0  0  0  0  0  0  0  0  0  0  0
    5.6847    2.4276   21.4237 C   0  0  0  0  0  0  0  0  0  0  0  0
    5.7386    2.4442   22.8263 C   0  0  0  0  0  0  0  0  0  0  0  0
    4.7439    1.8765   23.5880 C   0  0  0  0  0  0  0  0  0  0  0  0
    3.6720    1.2790   22.9613 C   0  0  0  0  0  0  0  0  0  0  0  0
    3.6369    1.2724   21.6102 C   0  0  0  0  0  0  0  0  0  0  0  0
    2.5549    0.6687   21.0254 F   0  0  0  0  0  0  0  0  0  0  0  0
 21 22  1  0  0  0
 22 15  1  0  0  0
 15 16  2  0  0  0
 16 17  1  0  0  0
 17 18  2  0  0  0
 18 13  1  0  0  0
 13  1  1  0  0  0
  1  2  2  0  0  0
  2  3  1  0  0  0
  3  4  2  0  0  0
  4  5  1  0  0  0
  5  6  2  0  0  0
  6 23  1  0  0  0
 23 25  1  0  0  0
 25 26  2  0  0  0
 26 27  1  0  0  0
 27 28  2  0  0  0
 28 29  1  0  0  0
 29 30  2  0  0  0
 30 31  1  0  0  0
  6  7  1  0  0  0
  7 10  1  0  0  0
 10 11  1  0  0  0
 10 12  1  0  0  0
  7  8  1  0  0  0
  8  9  2  0  0  0
 18 19  1  0  0  0
 19 20  2  0  0  0
 20 15  1  0  0  0
  9  1  1  0  0  0
  8  4  1  0  0  0
 30 25  1  0  0  0
 13 14  1  0  0  0
 23 24  1  0  0  0
M  END
> <minimizedAffinity>
-8.25307

> <CNNscore>
0.1692842543

> <CNNaffinity>
6.1926727295

> <CNN_VS>
1.0483219624

> <CNNaffinity_variance>
0.1637033224

$$$$
[H]c1c([H])c([H])c(N([H])c2nc3c([H])nc(N([H])c4c([H])c([H])c(OC([H])([H])[H])c([H])c4[H])nc3n2C([H])(C([H])([H])[H])C([H])([H])[H])c(F)c1[H]


 31 34  0  0  0  0  0  0  0  0999 V2000
    4.0102    1.8125   20.2498 C   0  0  0  0  0  0  0  0  0  0  0  0
    3.9690    1.6142   21.5668 N   0  0  0  0  0  0  0  0  0  0  0  0
    4.0714    2.5519   22.5069 C   0  0  0  0  0  0  0  0  0  0  0  0
    4.2365    3.8624   22.1056 C   0  0  0  0  0  0  0  0  0  0  0  0
    4.3708    5.0296   22.7443 N   0  0  0  0  0  0  0  0  0  0  0  0
    4.5018    6.0071   21.8369 C   0  0  0  0  0  0  0  0  0  0  0  0
    4.4523    5.4695   20.5861 N   0  0  0  0  0  0  0  0  0  0  0  0
    4.2874    4.1374   20.7612 C   0  0  0  0  0  0  0  0  0  0  0  0
    4.1759    3.1321   19.8870 N   0  0  0  0  0  0  0  0  0  0  0  0
    4.5528    6.1588   19.3087 C   0  0  0  0  0  0  0  0  0  0  0  0
    3.2991    5.9843   18.4738 C   0  0  0  0  0  0  0  0  0  0  0  0
    5.7963    5.7917   18.5570 C   0  0  0  0  0  0  0  0  0  0  0  0
    3.9027    0.8299   19.2650 N   0  0  0  0  0  0  0  0  0  0  0  0
    4.1182   -0.1747   19.5515 H   0  0  0  0  0  0  0  0  0  0  0  0
    2.9691    1.6044   15.2083 C   0  0  0  0  0  0  0  0  0  0  0  0
    2.4382    0.5156   15.8553 C   0  0  0  0  0  0  0  0  0  0  0  0
    2.7220    0.2416   17.1906 C   0  0  0  0  0  0  0  0  0  0  0  0
    3.5403    1.0354   17.9271 C   0  0  0  0  0  0  0  0  0  0  0  0
    4.0816    2.1585   17.2433 C   0  0  0  0  0  0  0  0  0  0  0  0
    3.7957    2.4107   15.9464 C   0  0  0  0  0  0  0  0  0  0  0  0
    1.3348    1.8676   13.4540 C   0  0  0  0  0  0  0  0  0  0  0  0
    2.6775    1.8647   13.8780 O   0  0  0  0  0  0  0  0  0  0  0  0
    4.6665    7.3847   22.1013 N   0  0  0  0  0  0  0  0  0  0  0  0
    3.8189    7.8527   22.5709 H   0  0  0  0  0  0  0  0  0  0  0  0
    5.7643    8.2139   21.8410 C   0  0  0  0  0  0  0  0  0  0  0  0
    7.0328    8.0328   22.3357 C   0  0  0  0  0  0  0  0  0  0  0  0
    8.0553    8.9351   22.0025 C   0  0  0  0  0  0  0  0  0  0  0  0
    7.8197   10.0131   21.1814 C   0  0  0  0  0  0  0  0  0  0  0  0
    6.5535   10.2118   20.6752 C   0  0  0  0  0  0  0  0  0  0  0  0
    5.5816    9.3330   21.0067 C   0  0  0  0  0  0  0  0  0  0  0  0
    4.3369    9.5654   20.4833 F   0  0  0  0  0  0  0  0  0  0  0  0
 21 22  1  0  0  0
 22 15  1  0  0  0
 15 16  2  0  0  0
 16 17  1  0  0  0
 17 18  2  0  0  0
 18 13  1  0  0  0
 13  1  1  0  0  0
  1  2  2  0  0  0
  2  3  1  0  0  0
  3  4  2  0  0  0
  4  5  1  0  0  0
  5  6  2  0  0  0
  6 23  1  0  0  0
 23 25  1  0  0  0
 25 26  2  0  0  0
 26 27  1  0  0  0
 27 28  2  0  0  0
 28 29  1  0  0  0
 29 30  2  0  0  0
 30 31  1  0  0  0
  6  7  1  0  0  0
  7 10  1  0  0  0
 10 11  1  0  0  0
 10 12  1  0  0  0
  7  8  1  0  0  0
  8  9  2  0  0  0
 18 19  1  0  0  0
 19 20  2  0  0  0
 20 15  1  0  0  0
  9  1  1  0  0  0
  8  4  1  0  0  0
 30 25  1  0  0  0
 13 14  1  0  0  0
 23 24  1  0  0  0
M  END
> <minimizedAffinity>
-8.90181

> <CNNscore>
0.1503946036

> <CNNaffinity>
6.2278537750

> <CNN_VS>
0.9366356134

> <CNNaffinity_variance>
0.3750357032

$$$$
[H]c1c([H])c([H])c(N([H])c2nc3c([H])nc(N([H])c4c([H])c([H])c(OC([H])([H])[H])c([H])c4[H])nc3n2C([H])(C([H])([H])[H])C([H])([H])[H])c(F)c1[H]


 31 34  0  0  0  0  0  0  0  0999 V2000
    2.2645    4.6260   15.2595 C   0  0  0  0  0  0  0  0  0  0  0  0
    2.6760    5.6852   15.9556 N   0  0  0  0  0  0  0  0  0  0  0  0
    3.3566    5.6582   17.1000 C   0  0  0  0  0  0  0  0  0  0  0  0
    3.6794    4.4284   17.6379 C   0  0  0  0  0  0  0  0  0  0  0  0
    4.3318    4.0254   18.7335 N   0  0  0  0  0  0  0  0  0  0  0  0
    4.3498    2.6856   18.7584 C   0  0  0  0  0  0  0  0  0  0  0  0
    3.6987    2.2064   17.6619 N   0  0  0  0  0  0  0  0  0  0  0  0
    3.2853    3.2946   16.9710 C   0  0  0  0  0  0  0  0  0  0  0  0
    2.6046    3.4164   15.8268 N   0  0  0  0  0  0  0  0  0  0  0  0
    3.4777    0.8186   17.2849 C   0  0  0  0  0  0  0  0  0  0  0  0
    2.9331    0.6972   15.8749 C   0  0  0  0  0  0  0  0  0  0  0  0
    2.6424    0.0799   18.2863 C   0  0  0  0  0  0  0  0  0  0  0  0
    1.5515    4.6545   14.0605 N   0  0  0  0  0  0  0  0  0  0  0  0
    0.7583    5.3631   13.9804 H   0  0  0  0  0  0  0  0  0  0  0  0
    2.0545    2.0549   10.7564 C   0  0  0  0  0  0  0  0  0  0  0  0
    2.7136    3.2585   10.8093 C   0  0  0  0  0  0  0  0  0  0  0  0
    2.5727    4.1288   11.8870 C   0  0  0  0  0  0  0  0  0  0  0  0
    1.7749    3.8360   12.9453 C   0  0  0  0  0  0  0  0  0  0  0  0
    1.0998    2.5864   12.8758 C   0  0  0  0  0  0  0  0  0  0  0  0
    1.2478    1.7526   11.8223 C   0  0  0  0  0  0  0  0  0  0  0  0
    3.2896    0.3009    9.6535 C   0  0  0  0  0  0  0  0  0  0  0  0
    2.2046    1.1982    9.6766 O   0  0  0  0  0  0  0  0  0  0  0  0
    4.9405    1.8699   19.7486 N   0  0  0  0  0  0  0  0  0  0  0  0
    5.6744    1.1770   19.3753 H   0  0  0  0  0  0  0  0  0  0  0  0
    4.7069    1.8384   21.1287 C   0  0  0  0  0  0  0  0  0  0  0  0
    3.7954    1.0299   21.7628 C   0  0  0  0  0  0  0  0  0  0  0  0
    3.6510    1.0887   23.1579 C   0  0  0  0  0  0  0  0  0  0  0  0
    4.4084    1.9466   23.9209 C   0  0  0  0  0  0  0  0  0  0  0  0
    5.3283    2.7657   23.3030 C   0  0  0  0  0  0  0  0  0  0  0  0
    5.4537    2.6956   21.9591 C   0  0  0  0  0  0  0  0  0  0  0  0
    6.3788    3.5259   21.3830 F   0  0  0  0  0  0  0  0  0  0  0  0
 21 22  1  0  0  0
 22 15  1  0  0  0
 15 16  2  0  0  0
 16 17  1  0  0  0
 17 18  2  0  0  0
 18 13  1  0  0  0
 13  1  1  0  0  0
  1  2  2  0  0  0
  2  3  1  0  0  0
  3  4  2  0  0  0
  4  5  1  0  0  0
  5  6  2  0  0  0
  6 23  1  0  0  0
 23 25  1  0  0  0
 25 26  2  0  0  0
 26 27  1  0  0  0
 27 28  2  0  0  0
 28 29  1  0  0  0
 29 30  2  0  0  0
 30 31  1  0  0  0
  6  7  1  0  0  0
  7 10  1  0  0  0
 10 11  1  0  0  0
 10 12  1  0  0  0
  7  8  1  0  0  0
  8  9  2  0  0  0
 18 19  1  0  0  0
 19 20  2  0  0  0
 20 15  1  0  0  0
  9  1  1  0  0  0
  8  4  1  0  0  0
 30 25  1  0  0  0
 13 14  1  0  0  0
 23 24  1  0  0  0
M  END
> <minimizedAffinity>
-7.20496

> <CNNscore>
0.1489799768

> <CNNaffinity>
6.1075911522

> <CNN_VS>
0.9099087715

> <CNNaffinity_variance>
0.3272613883

$$$$
[H]c1nc(-c2c([H])c([H])c(OC([H])([H])C([H])([H])C([H])([H])N3C([H])([H])C([H])([H])C([H])(C([H])([H])c4c([H])nc([H])n4[H])C([H])([H])C3([H])[H])c([H])c2[H])nc([H])c1[H]


 29 32  0  0  0  0  0  0  0  0999 V2000
    0.9804    3.0922   12.6580 C   0  0  0  0  0  0  0  0  0  0  0  0
    2.2438    3.7974   13.1147 C   0  0  0  0  0  0  0  0  0  0  0  0
    3.1502    2.8162   13.5152 O   0  0  0  0  0  0  0  0  0  0  0  0
    3.5805    1.5511   17.5231 C   0  0  0  0  0  0  0  0  0  0  0  0
    4.1538    2.7205   17.0729 C   0  0  0  0  0  0  0  0  0  0  0  0
    4.0136    3.1402   15.7515 C   0  0  0  0  0  0  0  0  0  0  0  0
    3.2925    2.3966   14.8430 C   0  0  0  0  0  0  0  0  0  0  0  0
    2.7208    1.2276   15.2985 C   0  0  0  0  0  0  0  0  0  0  0  0
    2.8588    0.8060   16.6162 C   0  0  0  0  0  0  0  0  0  0  0  0
    4.0592    0.3464   21.5246 C   0  0  0  0  0  0  0  0  0  0  0  0
    4.8060    1.3763   20.9960 C   0  0  0  0  0  0  0  0  0  0  0  0
    4.6210    1.7292   19.7118 N   0  0  0  0  0  0  0  0  0  0  0  0
    3.7330    1.1198   18.9084 C   0  0  0  0  0  0  0  0  0  0  0  0
    3.0095    0.1193   19.4272 N   0  0  0  0  0  0  0  0  0  0  0  0
    3.1488   -0.2846   20.7159 C   0  0  0  0  0  0  0  0  0  0  0  0
    0.5212    3.7306   11.3668 C   0  0  0  0  0  0  0  0  0  0  0  0
   -0.1122    5.0181   11.5840 N   0  0  0  0  0  0  0  0  0  0  0  0
   -0.4558    5.5513   10.2792 C   0  0  0  0  0  0  0  0  0  0  0  0
   -1.8593    5.0603    9.9022 C   0  0  0  0  0  0  0  0  0  0  0  0
   -2.8177    5.8612   10.7463 C   0  0  0  0  0  0  0  0  0  0  0  0
   -2.3557    5.8286   12.1635 C   0  0  0  0  0  0  0  0  0  0  0  0
   -1.2848    4.7899   12.4018 C   0  0  0  0  0  0  0  0  0  0  0  0
   -4.2461    5.4000   10.5773 C   0  0  0  0  0  0  0  0  0  0  0  0
   -4.2336    4.0647    9.9476 C   0  0  0  0  0  0  0  0  0  0  0  0
   -4.4560    3.7386    8.6363 C   0  0  0  0  0  0  0  0  0  0  0  0
   -4.3498    2.4195    8.4960 N   0  0  0  0  0  0  0  0  0  0  0  0
   -4.0638    1.8991    9.6939 C   0  0  0  0  0  0  0  0  0  0  0  0
   -3.9943    2.9052   10.5736 N   0  0  0  0  0  0  0  0  0  0  0  0
   -3.7821    2.7933   11.6048 H   0  0  0  0  0  0  0  0  0  0  0  0
 10 11  2  0  0  0
 11 12  1  0  0  0
 12 13  2  0  0  0
 13  4  1  0  0  0
  4  5  2  0  0  0
  5  6  1  0  0  0
  6  7  2  0  0  0
  7  3  1  0  0  0
  3  2  1  0  0  0
  2  1  1  0  0  0
  1 16  1  0  0  0
 16 17  1  0  0  0
 17 18  1  0  0  0
 18 19  1  0  0  0
 19 20  1  0  0  0
 20 23  1  0  0  0
 23 24  1  0  0  0
 24 25  2  0  0  0
 25 26  1  0  0  0
 26 27  2  0  0  0
 27 28  1  0  0  0
 20 21  1  0  0  0
 21 22  1  0  0  0
  7  8  1  0  0  0
  8  9  2  0  0  0
 13 14  1  0  0  0
 14 15  2  0  0  0
 15 10  1  0  0  0
  9  4  1  0  0  0
 22 17  1  0  0  0
 28 24  1  0  0  0
 28 29  1  0  0  0
M  END
> <minimizedAffinity>
-6.61201

> <CNNscore>
0.5688119531

> <CNNaffinity>
5.8865518570

> <CNN_VS>
3.3483409882

> <CNNaffinity_variance>
0.1655181646

$$$$
[H]c1nc(-c2c([H])c([H])c(OC([H])([H])C([H])([H])C([H])([H])N3C([H])([H])C([H])([H])C([H])(C([H])([H])c4c([H])nc([H])n4[H])C([H])([H])C3([H])[H])c([H])c2[H])nc([H])c1[H]


 29 32  0  0  0  0  0  0  0  0999 V2000
    2.3895    3.4152   13.2421 C   0  0  0  0  0  0  0  0  0  0  0  0
    1.9743    2.1159   13.9066 C   0  0  0  0  0  0  0  0  0  0  0  0
    3.1171    1.5497   14.4706 O   0  0  0  0  0  0  0  0  0  0  0  0
    4.0073    1.7386   18.5962 C   0  0  0  0  0  0  0  0  0  0  0  0
    3.2996    0.6843   18.0611 C   0  0  0  0  0  0  0  0  0  0  0  0
    3.0044    0.6194   16.7007 C   0  0  0  0  0  0  0  0  0  0  0  0
    3.4123    1.6127   15.8374 C   0  0  0  0  0  0  0  0  0  0  0  0
    4.1202    2.6652   16.3778 C   0  0  0  0  0  0  0  0  0  0  0  0
    4.4162    2.7330   17.7346 C   0  0  0  0  0  0  0  0  0  0  0  0
    4.9305    1.9377   22.6951 C   0  0  0  0  0  0  0  0  0  0  0  0
    5.7558    2.5064   21.7500 C   0  0  0  0  0  0  0  0  0  0  0  0
    5.4229    2.4195   20.4502 N   0  0  0  0  0  0  0  0  0  0  0  0
    4.3114    1.7978   20.0218 C   0  0  0  0  0  0  0  0  0  0  0  0
    3.5124    1.2467   20.9446 N   0  0  0  0  0  0  0  0  0  0  0  0
    3.7924    1.2999   22.2720 C   0  0  0  0  0  0  0  0  0  0  0  0
    1.5760    4.5376   13.8453 C   0  0  0  0  0  0  0  0  0  0  0  0
    1.1164    5.4836   12.8453 N   0  0  0  0  0  0  0  0  0  0  0  0
    0.3183    4.7405   11.8884 C   0  0  0  0  0  0  0  0  0  0  0  0
   -1.1381    4.7265   12.3696 C   0  0  0  0  0  0  0  0  0  0  0  0
   -1.6745    6.1099   12.1032 C   0  0  0  0  0  0  0  0  0  0  0  0
   -0.7076    7.1129   12.6344 C   0  0  0  0  0  0  0  0  0  0  0  0
    0.3382    6.4933   13.5315 C   0  0  0  0  0  0  0  0  0  0  0  0
   -3.0735    6.2909   12.6431 C   0  0  0  0  0  0  0  0  0  0  0  0
   -4.0211    5.6567   11.7053 C   0  0  0  0  0  0  0  0  0  0  0  0
   -4.1673    5.8778   10.3618 C   0  0  0  0  0  0  0  0  0  0  0  0
   -5.1389    5.0948    9.8992 N   0  0  0  0  0  0  0  0  0  0  0  0
   -5.6143    4.3788   10.9233 C   0  0  0  0  0  0  0  0  0  0  0  0
   -4.9302    4.7251   12.0202 N   0  0  0  0  0  0  0  0  0  0  0  0
   -5.0893    4.3198   12.9852 H   0  0  0  0  0  0  0  0  0  0  0  0
 10 11  2  0  0  0
 11 12  1  0  0  0
 12 13  2  0  0  0
 13  4  1  0  0  0
  4  5  2  0  0  0
  5  6  1  0  0  0
  6  7  2  0  0  0
  7  3  1  0  0  0
  3  2  1  0  0  0
  2  1  1  0  0  0
  1 16  1  0  0  0
 16 17  1  0  0  0
 17 18  1  0  0  0
 18 19  1  0  0  0
 19 20  1  0  0  0
 20 23  1  0  0  0
 23 24  1  0  0  0
 24 25  2  0  0  0
 25 26  1  0  0  0
 26 27  2  0  0  0
 27 28  1  0  0  0
 20 21  1  0  0  0
 21 22  1  0  0  0
  7  8  1  0  0  0
  8  9  2  0  0  0
 13 14  1  0  0  0
 14 15  2  0  0  0
 15 10  1  0  0  0
  9  4  1  0  0  0
 22 17  1  0  0  0
 28 24  1  0  0  0
 28 29  1  0  0  0
M  END
> <minimizedAffinity>
-7.34521

> <CNNscore>
0.3516814113

> <CNNaffinity>
5.6689081192

> <CNN_VS>
1.9936496019

> <CNNaffinity_variance>
0.1126663461

$$$$
[H]c1nc(-c2c([H])c([H])c(OC([H])([H])C([H])([H])C([H])([H])N3C([H])([H])C([H])([H])C([H])(C([H])([H])c4c([H])nc([H])n4[H])C([H])([H])C3([H])[H])c([H])c2[H])nc([H])c1[H]


 29 32  0  0  0  0  0  0  0  0999 V2000
    7.6273    7.1862   20.9489 C   0  0  0  0  0  0  0  0  0  0  0  0
    7.5355    7.9525   19.6426 C   0  0  0  0  0  0  0  0  0  0  0  0
    6.2027    7.9249   19.2332 O   0  0  0  0  0  0  0  0  0  0  0  0
    4.5742    4.8555   16.8299 C   0  0  0  0  0  0  0  0  0  0  0  0
    3.8103    5.9239   17.2468 C   0  0  0  0  0  0  0  0  0  0  0  0
    4.3447    6.9377   18.0396 C   0  0  0  0  0  0  0  0  0  0  0  0
    5.6636    6.9077   18.4370 C   0  0  0  0  0  0  0  0  0  0  0  0
    6.4236    5.8368   18.0171 C   0  0  0  0  0  0  0  0  0  0  0  0
    5.8935    4.8236   17.2262 C   0  0  0  0  0  0  0  0  0  0  0  0
    2.9314    1.7762   14.4823 C   0  0  0  0  0  0  0  0  0  0  0  0
    3.1310    1.6119   15.8354 C   0  0  0  0  0  0  0  0  0  0  0  0
    3.6589    2.6223   16.5485 N   0  0  0  0  0  0  0  0  0  0  0  0
    4.0057    3.7988   16.0001 C   0  0  0  0  0  0  0  0  0  0  0  0
    3.8096    3.9535   14.6844 N   0  0  0  0  0  0  0  0  0  0  0  0
    3.2808    2.9723   13.9092 C   0  0  0  0  0  0  0  0  0  0  0  0
    6.3063    7.3208   21.6716 C   0  0  0  0  0  0  0  0  0  0  0  0
    5.9527    6.1171   22.4013 N   0  0  0  0  0  0  0  0  0  0  0  0
    4.5702    5.8142   22.0825 C   0  0  0  0  0  0  0  0  0  0  0  0
    4.5382    4.9221   20.8350 C   0  0  0  0  0  0  0  0  0  0  0  0
    4.9815    3.5559   21.2927 C   0  0  0  0  0  0  0  0  0  0  0  0
    6.2305    3.6975   22.0947 C   0  0  0  0  0  0  0  0  0  0  0  0
    6.8512    5.0688   21.9661 C   0  0  0  0  0  0  0  0  0  0  0  0
    5.1225    2.5886   20.1412 C   0  0  0  0  0  0  0  0  0  0  0  0
    4.1250    1.5134   20.3105 C   0  0  0  0  0  0  0  0  0  0  0  0
    3.5344    1.0728   21.4648 C   0  0  0  0  0  0  0  0  0  0  0  0
    2.6933    0.0848   21.1688 N   0  0  0  0  0  0  0  0  0  0  0  0
    2.7372   -0.1121   19.8471 C   0  0  0  0  0  0  0  0  0  0  0  0
    3.6104    0.7604   19.3299 N   0  0  0  0  0  0  0  0  0  0  0  0
    3.8517    0.8372   18.3019 H   0  0  0  0  0  0  0  0  0  0  0  0
 10 11  2  0  0  0
 11 12  1  0  0  0
 12 13  2  0  0  0
 13  4  1  0  0  0
  4  5  2  0  0  0
  5  6  1  0  0  0
  6  7  2  0  0  0
  7  3  1  0  0  0
  3  2  1  0  0  0
  2  1  1  0  0  0
  1 16  1  0  0  0
 16 17  1  0  0  0
 17 18  1  0  0  0
 18 19  1  0  0  0
 19 20  1  0  0  0
 20 23  1  0  0  0
 23 24  1  0  0  0
 24 25  2  0  0  0
 25 26  1  0  0  0
 26 27  2  0  0  0
 27 28  1  0  0  0
 20 21  1  0  0  0
 21 22  1  0  0  0
  7  8  1  0  0  0
  8  9  2  0  0  0
 13 14  1  0  0  0
 14 15  2  0  0  0
 15 10  1  0  0  0
  9  4  1  0  0  0
 22 17  1  0  0  0
 28 24  1  0  0  0
 28 29  1  0  0  0
M  END
> <minimizedAffinity>
-7.37714

> <CNNscore>
0.3468852639

> <CNNaffinity>
6.5196838379

> <CNN_VS>
2.2615821362

> <CNNaffinity_variance>
0.2310746014

$$$$
[H]c1nc(-c2c([H])c([H])c(OC([H])([H])C([H])([H])C([H])([H])N3C([H])([H])C([H])([H])C([H])(C([H])([H])c4c([H])nc([H])n4[H])C([H])([H])C3([H])[H])c([H])c2[H])nc([H])c1[H]


 29 32  0  0  0  0  0  0  0  0999 V2000
    2.3234    4.9326   16.9175 C   0  0  0  0  0  0  0  0  0  0  0  0
    2.6677    4.8785   15.4408 C   0  0  0  0  0  0  0  0  0  0  0  0
    2.0683    5.9796   14.8301 O   0  0  0  0  0  0  0  0  0  0  0  0
   -1.4787    5.7223   12.5494 C   0  0  0  0  0  0  0  0  0  0  0  0
   -0.4576    4.8099   12.3960 C   0  0  0  0  0  0  0  0  0  0  0  0
    0.7135    4.8923   13.1467 C   0  0  0  0  0  0  0  0  0  0  0  0
    0.8930    5.8948   14.0747 C   0  0  0  0  0  0  0  0  0  0  0  0
   -0.1317    6.8051   14.2245 C   0  0  0  0  0  0  0  0  0  0  0  0
   -1.3013    6.7257   13.4770 C   0  0  0  0  0  0  0  0  0  0  0  0
   -5.0310    5.4749   10.3106 C   0  0  0  0  0  0  0  0  0  0  0  0
   -5.0167    6.0461   11.5641 C   0  0  0  0  0  0  0  0  0  0  0  0
   -3.8591    6.1047   12.2455 N   0  0  0  0  0  0  0  0  0  0  0  0
   -2.7011    5.6279   11.7587 C   0  0  0  0  0  0  0  0  0  0  0  0
   -2.7203    5.0735   10.5397 N   0  0  0  0  0  0  0  0  0  0  0  0
   -3.8561    4.9840    9.8011 C   0  0  0  0  0  0  0  0  0  0  0  0
    3.5747    5.2979   17.6833 C   0  0  0  0  0  0  0  0  0  0  0  0
    3.3089    6.2387   18.7558 N   0  0  0  0  0  0  0  0  0  0  0  0
    3.5386    5.5386   20.0056 C   0  0  0  0  0  0  0  0  0  0  0  0
    5.0139    5.6986   20.3940 C   0  0  0  0  0  0  0  0  0  0  0  0
    5.1604    7.1163   20.8851 C   0  0  0  0  0  0  0  0  0  0  0  0
    4.5300    8.0371   19.8962 C   0  0  0  0  0  0  0  0  0  0  0  0
    4.2151    7.3548   18.5856 C   0  0  0  0  0  0  0  0  0  0  0  0
    6.5977    7.4669   21.1896 C   0  0  0  0  0  0  0  0  0  0  0  0
    6.6368    8.2076   22.4661 C   0  0  0  0  0  0  0  0  0  0  0  0
    6.3948    9.5371   22.6878 C   0  0  0  0  0  0  0  0  0  0  0  0
    6.5381    9.7907   23.9864 N   0  0  0  0  0  0  0  0  0  0  0  0
    6.8668    8.6471   24.5961 C   0  0  0  0  0  0  0  0  0  0  0  0
    6.9254    7.6869   23.6657 N   0  0  0  0  0  0  0  0  0  0  0  0
    7.1641    6.6733   23.8570 H   0  0  0  0  0  0  0  0  0  0  0  0
 10 11  2  0  0  0
 11 12  1  0  0  0
 12 13  2  0  0  0
 13  4  1  0  0  0
  4  5  2  0  0  0
  5  6  1  0  0  0
  6  7  2  0  0  0
  7  3  1  0  0  0
  3  2  1  0  0  0
  2  1  1  0  0  0
  1 16  1  0  0  0
 16 17  1  0  0  0
 17 18  1  0  0  0
 18 19  1  0  0  0
 19 20  1  0  0  0
 20 23  1  0  0  0
 23 24  1  0  0  0
 24 25  2  0  0  0
 25 26  1  0  0  0
 26 27  2  0  0  0
 27 28  1  0  0  0
 20 21  1  0  0  0
 21 22  1  0  0  0
  7  8  1  0  0  0
  8  9  2  0  0  0
 13 14  1  0  0  0
 14 15  2  0  0  0
 15 10  1  0  0  0
  9  4  1  0  0  0
 22 17  1  0  0  0
 28 24  1  0  0  0
 28 29  1  0  0  0
M  END
> <minimizedAffinity>
-6.99580

> <CNNscore>
0.3038985729

> <CNNaffinity>
5.3693809509

> <CNN_VS>
1.6317472458

> <CNNaffinity_variance>
0.0780103877

$$$$
[H]c1nc(-c2c([H])c([H])c(OC([H])([H])C([H])([H])C([H])([H])N3C([H])([H])C([H])([H])C([H])(C([H])([H])c4c([H])nc([H])n4[H])C([H])([H])C3([H])[H])c([H])c2[H])nc([H])c1[H]


 29 32  0  0  0  0  0  0  0  0999 V2000
    3.3771    4.4365   14.3447 C   0  0  0  0  0  0  0  0  0  0  0  0
    2.7988    3.0551   14.5883 C   0  0  0  0  0  0  0  0  0  0  0  0
    3.7902    2.2873   15.1985 O   0  0  0  0  0  0  0  0  0  0  0  0
    4.4839    2.2797   19.3660 C   0  0  0  0  0  0  0  0  0  0  0  0
    4.9705    3.2843   18.5580 C   0  0  0  0  0  0  0  0  0  0  0  0
    4.7434    3.2894   17.1831 C   0  0  0  0  0  0  0  0  0  0  0  0
    4.0198    2.2843   16.5793 C   0  0  0  0  0  0  0  0  0  0  0  0
    3.5350    1.2817   17.3921 C   0  0  0  0  0  0  0  0  0  0  0  0
    3.7600    1.2736   18.7641 C   0  0  0  0  0  0  0  0  0  0  0  0
    5.1379    2.2607   23.5210 C   0  0  0  0  0  0  0  0  0  0  0  0
    4.0272    1.6591   22.9714 C   0  0  0  0  0  0  0  0  0  0  0  0
    3.8569    1.6886   21.6380 N   0  0  0  0  0  0  0  0  0  0  0  0
    4.7271    2.2830   20.8044 C   0  0  0  0  0  0  0  0  0  0  0  0
    5.8053    2.8663   21.3437 N   0  0  0  0  0  0  0  0  0  0  0  0
    6.0347    2.8713   22.6819 C   0  0  0  0  0  0  0  0  0  0  0  0
    2.2321    5.4177   14.2361 C   0  0  0  0  0  0  0  0  0  0  0  0
    2.6581    6.7063   13.7220 N   0  0  0  0  0  0  0  0  0  0  0  0
    3.7137    6.4549   12.7591 C   0  0  0  0  0  0  0  0  0  0  0  0
    3.0792    6.2493   11.3776 C   0  0  0  0  0  0  0  0  0  0  0  0
    2.6527    7.6179   10.9111 C   0  0  0  0  0  0  0  0  0  0  0  0
    1.8917    8.2853   12.0059 C   0  0  0  0  0  0  0  0  0  0  0  0
    1.5038    7.3300   13.1101 C   0  0  0  0  0  0  0  0  0  0  0  0
    1.8912    7.5625    9.6078 C   0  0  0  0  0  0  0  0  0  0  0  0
    2.6260    8.3581    8.6043 C   0  0  0  0  0  0  0  0  0  0  0  0
    2.1896    8.8061    7.3861 C   0  0  0  0  0  0  0  0  0  0  0  0
    3.1718    9.4864    6.7998 N   0  0  0  0  0  0  0  0  0  0  0  0
    4.2258    9.4800    7.6222 C   0  0  0  0  0  0  0  0  0  0  0  0
    3.8878    8.7918    8.7191 N   0  0  0  0  0  0  0  0  0  0  0  0
    4.5260    8.6209    9.5464 H   0  0  0  0  0  0  0  0  0  0  0  0
 10 11  2  0  0  0
 11 12  1  0  0  0
 12 13  2  0  0  0
 13  4  1  0  0  0
  4  5  2  0  0  0
  5  6  1  0  0  0
  6  7  2  0  0  0
  7  3  1  0  0  0
  3  2  1  0  0  0
  2  1  1  0  0  0
  1 16  1  0  0  0
 16 17  1  0  0  0
 17 18  1  0  0  0
 18 19  1  0  0  0
 19 20  1  0  0  0
 20 23  1  0  0  0
 23 24  1  0  0  0
 24 25  2  0  0  0
 25 26  1  0  0  0
 26 27  2  0  0  0
 27 28  1  0  0  0
 20 21  1  0  0  0
 21 22  1  0  0  0
  7  8  1  0  0  0
  8  9  2  0  0  0
 13 14  1  0  0  0
 14 15  2  0  0  0
 15 10  1  0  0  0
  9  4  1  0  0  0
 22 17  1  0  0  0
 28 24  1  0  0  0
 28 29  1  0  0  0
M  END
> <minimizedAffinity>
-6.65838

> <CNNscore>
0.2945894599

> <CNNaffinity>
5.4447121620

> <CNN_VS>
1.6039547920

> <CNNaffinity_variance>
0.1057473049

$$$$
[H]c1nc(-c2c([H])c([H])c(OC([H])([H])C([H])([H])C([H])([H])N3C([H])([H])C([H])([H])C([H])(C([H])([H])c4c([H])nc([H])n4[H])C([H])([H])C3([H])[H])c([H])c2[H])nc([H])c1[H]


 29 32  0  0  0  0  0  0  0  0999 V2000
    1.4607    3.9389   13.4031 C   0  0  0  0  0  0  0  0  0  0  0  0
    1.5898    2.4328   13.2728 C   0  0  0  0  0  0  0  0  0  0  0  0
    2.8595    2.0799   13.7289 O   0  0  0  0  0  0  0  0  0  0  0  0
    3.8379    1.7169   17.8228 C   0  0  0  0  0  0  0  0  0  0  0  0
    4.3192    2.7574   17.0582 C   0  0  0  0  0  0  0  0  0  0  0  0
    3.9982    2.8796   15.7076 C   0  0  0  0  0  0  0  0  0  0  0  0
    3.1834    1.9592   15.0853 C   0  0  0  0  0  0  0  0  0  0  0  0
    2.7045    0.9203   15.8548 C   0  0  0  0  0  0  0  0  0  0  0  0
    3.0228    0.7954   17.2024 C   0  0  0  0  0  0  0  0  0  0  0  0
    4.8589    1.4143   21.8920 C   0  0  0  0  0  0  0  0  0  0  0  0
    5.4386    2.3645   21.0804 C   0  0  0  0  0  0  0  0  0  0  0  0
    5.0833    2.4264   19.7850 N   0  0  0  0  0  0  0  0  0  0  0  0
    4.1797    1.5973   19.2360 C   0  0  0  0  0  0  0  0  0  0  0  0
    3.6190    0.6754   20.0294 N   0  0  0  0  0  0  0  0  0  0  0  0
    3.9347    0.5613   21.3449 C   0  0  0  0  0  0  0  0  0  0  0  0
    2.2289    4.5806   12.2700 C   0  0  0  0  0  0  0  0  0  0  0  0
    3.4629    5.1970   12.7210 N   0  0  0  0  0  0  0  0  0  0  0  0
    4.5391    4.6257   11.9335 C   0  0  0  0  0  0  0  0  0  0  0  0
    4.7220    5.4706   10.6662 C   0  0  0  0  0  0  0  0  0  0  0  0
    5.4011    6.7408   11.1110 C   0  0  0  0  0  0  0  0  0  0  0  0
    4.6741    7.2885   12.2919 C   0  0  0  0  0  0  0  0  0  0  0  0
    3.3352    6.6235   12.5098 C   0  0  0  0  0  0  0  0  0  0  0  0
    5.5375    7.7372    9.9840 C   0  0  0  0  0  0  0  0  0  0  0  0
    4.2972    7.7087    9.1837 C   0  0  0  0  0  0  0  0  0  0  0  0
    4.0441    7.0188    8.0281 C   0  0  0  0  0  0  0  0  0  0  0  0
    2.7981    7.2750    7.6371 N   0  0  0  0  0  0  0  0  0  0  0  0
    2.2526    8.1154    8.5224 C   0  0  0  0  0  0  0  0  0  0  0  0
    3.1697    8.3759    9.4616 N   0  0  0  0  0  0  0  0  0  0  0  0
    3.0192    9.0130   10.2936 H   0  0  0  0  0  0  0  0  0  0  0  0
 10 11  2  0  0  0
 11 12  1  0  0  0
 12 13  2  0  0  0
 13  4  1  0  0  0
  4  5  2  0  0  0
  5  6  1  0  0  0
  6  7  2  0  0  0
  7  3  1  0  0  0
  3  2  1  0  0  0
  2  1  1  0  0  0
  1 16  1  0  0  0
 16 17  1  0  0  0
 17 18  1  0  0  0
 18 19  1  0  0  0
 19 20  1  0  0  0
 20 23  1  0  0  0
 23 24  1  0  0  0
 24 25  2  0  0  0
 25 26  1  0  0  0
 26 27  2  0  0  0
 27 28  1  0  0  0
 20 21  1  0  0  0
 21 22  1  0  0  0
  7  8  1  0  0  0
  8  9  2  0  0  0
 13 14  1  0  0  0
 14 15  2  0  0  0
 15 10  1  0  0  0
  9  4  1  0  0  0
 22 17  1  0  0  0
 28 24  1  0  0  0
 28 29  1  0  0  0
M  END
> <minimizedAffinity>
-6.41336

> <CNNscore>
0.2442124039

> <CNNaffinity>
5.6467256546

> <CNN_VS>
1.3790004253

> <CNNaffinity_variance>
0.0711717010

$$$$
[H]c1nc(-c2c([H])c([H])c(OC([H])([H])C([H])([H])C([H])([H])N3C([H])([H])C([H])([H])C([H])(C([H])([H])c4c([H])nc([H])n4[H])C([H])([H])C3([H])[H])c([H])c2[H])nc([H])c1[H]


 29 32  0  0  0  0  0  0  0  0999 V2000
    3.0980    0.9500   22.0498 C   0  0  0  0  0  0  0  0  0  0  0  0
    2.8809    0.2794   20.7062 C   0  0  0  0  0  0  0  0  0  0  0  0
    3.9530    0.6284   19.8855 O   0  0  0  0  0  0  0  0  0  0  0  0
    3.4865    2.0448   15.9326 C   0  0  0  0  0  0  0  0  0  0  0  0
    4.2999    2.6924   16.8370 C   0  0  0  0  0  0  0  0  0  0  0  0
    4.4557    2.2275   18.1415 C   0  0  0  0  0  0  0  0  0  0  0  0
    3.7981    1.0973   18.5758 C   0  0  0  0  0  0  0  0  0  0  0  0
    2.9856    0.4531   17.6671 C   0  0  0  0  0  0  0  0  0  0  0  0
    2.8281    0.9143   16.3649 C   0  0  0  0  0  0  0  0  0  0  0  0
    3.0675    3.5132   12.0134 C   0  0  0  0  0  0  0  0  0  0  0  0
    3.8431    4.1716   12.9422 C   0  0  0  0  0  0  0  0  0  0  0  0
    3.9497    3.6673   14.1841 N   0  0  0  0  0  0  0  0  0  0  0  0
    3.3297    2.5392   14.5691 C   0  0  0  0  0  0  0  0  0  0  0  0
    2.5769    1.9029   13.6624 N   0  0  0  0  0  0  0  0  0  0  0  0
    2.4288    2.3602   12.3926 C   0  0  0  0  0  0  0  0  0  0  0  0
    4.5855    1.1184   22.2611 C   0  0  0  0  0  0  0  0  0  0  0  0
    4.9034    2.3262   23.0002 N   0  0  0  0  0  0  0  0  0  0  0  0
    6.0669    2.9201   22.3691 C   0  0  0  0  0  0  0  0  0  0  0  0
    5.5935    3.8682   21.2601 C   0  0  0  0  0  0  0  0  0  0  0  0
    5.0547    5.0887   21.9620 C   0  0  0  0  0  0  0  0  0  0  0  0
    4.1212    4.6527   23.0397 C   0  0  0  0  0  0  0  0  0  0  0  0
    3.7464    3.1934   22.9286 C   0  0  0  0  0  0  0  0  0  0  0  0
    4.4308    6.0699   20.9980 C   0  0  0  0  0  0  0  0  0  0  0  0
    5.0851    7.3810   21.1783 C   0  0  0  0  0  0  0  0  0  0  0  0
    6.2814    7.8135   20.6713 C   0  0  0  0  0  0  0  0  0  0  0  0
    6.4964    9.0620   21.0788 N   0  0  0  0  0  0  0  0  0  0  0  0
    5.4588    9.4330   21.8361 C   0  0  0  0  0  0  0  0  0  0  0  0
    4.6029    8.4058   21.8931 N   0  0  0  0  0  0  0  0  0  0  0  0
    3.6870    8.4105   22.4241 H   0  0  0  0  0  0  0  0  0  0  0  0
 10 11  2  0  0  0
 11 12  1  0  0  0
 12 13  2  0  0  0
 13  4  1  0  0  0
  4  5  2  0  0  0
  5  6  1  0  0  0
  6  7  2  0  0  0
  7  3  1  0  0  0
  3  2  1  0  0  0
  2  1  1  0  0  0
  1 16  1  0  0  0
 16 17  1  0  0  0
 17 18  1  0  0  0
 18 19  1  0  0  0
 19 20  1  0  0  0
 20 23  1  0  0  0
 23 24  1  0  0  0
 24 25  2  0  0  0
 25 26  1  0  0  0
 26 27  2  0  0  0
 27 28  1  0  0  0
 20 21  1  0  0  0
 21 22  1  0  0  0
  7  8  1  0  0  0
  8  9  2  0  0  0
 13 14  1  0  0  0
 14 15  2  0  0  0
 15 10  1  0  0  0
  9  4  1  0  0  0
 22 17  1  0  0  0
 28 24  1  0  0  0
 28 29  1  0  0  0
M  END
> <minimizedAffinity>
-8.53144

> <CNNscore>
0.2265377641

> <CNNaffinity>
6.3025517464

> <CNN_VS>
1.4277659655

> <CNNaffinity_variance>
0.1118758097

$$$$
[H]c1nc(-c2c([H])c([H])c(OC([H])([H])C([H])([H])C([H])([H])N3C([H])([H])C([H])([H])C([H])(C([H])([H])c4c([H])nc([H])n4[H])C([H])([H])C3([H])[H])c([H])c2[H])nc([H])c1[H]


 29 32  0  0  0  0  0  0  0  0999 V2000
    1.3876    3.8057   13.3472 C   0  0  0  0  0  0  0  0  0  0  0  0
    1.3951    2.2913   13.4388 C   0  0  0  0  0  0  0  0  0  0  0  0
    2.6735    1.9018   13.8374 O   0  0  0  0  0  0  0  0  0  0  0  0
    3.9108    1.7845   17.8752 C   0  0  0  0  0  0  0  0  0  0  0  0
    3.0716    0.8247   17.3524 C   0  0  0  0  0  0  0  0  0  0  0  0
    2.6617    0.8609   16.0209 C   0  0  0  0  0  0  0  0  0  0  0  0
    3.0837    1.8633   15.1751 C   0  0  0  0  0  0  0  0  0  0  0  0
    3.9233    2.8210   15.7031 C   0  0  0  0  0  0  0  0  0  0  0  0
    4.3340    2.7878   17.0310 C   0  0  0  0  0  0  0  0  0  0  0  0
    5.1010    1.6056   21.9056 C   0  0  0  0  0  0  0  0  0  0  0  0
    4.2436    0.6679   21.3732 C   0  0  0  0  0  0  0  0  0  0  0  0
    3.8888    0.7625   20.0797 N   0  0  0  0  0  0  0  0  0  0  0  0
    4.3343    1.7382   19.2705 C   0  0  0  0  0  0  0  0  0  0  0  0
    5.1676    2.6472   19.7929 N   0  0  0  0  0  0  0  0  0  0  0  0
    5.5638    2.6072   21.0909 C   0  0  0  0  0  0  0  0  0  0  0  0
    2.1534    4.2098   12.1078 C   0  0  0  0  0  0  0  0  0  0  0  0
    3.3121    5.0266   12.4183 N   0  0  0  0  0  0  0  0  0  0  0  0
    4.4875    4.2561   12.0584 C   0  0  0  0  0  0  0  0  0  0  0  0
    4.8308    4.5410   10.5907 C   0  0  0  0  0  0  0  0  0  0  0  0
    5.4356    5.9217   10.5685 C   0  0  0  0  0  0  0  0  0  0  0  0
    4.5543    6.8469   11.3370 C   0  0  0  0  0  0  0  0  0  0  0  0
    3.2032    6.2434   11.6415 C   0  0  0  0  0  0  0  0  0  0  0  0
    5.7131    6.3983    9.1624 C   0  0  0  0  0  0  0  0  0  0  0  0
    6.9860    5.8021    8.7106 C   0  0  0  0  0  0  0  0  0  0  0  0
    7.1796    4.6722    7.9615 C   0  0  0  0  0  0  0  0  0  0  0  0
    8.4859    4.4930    7.7812 N   0  0  0  0  0  0  0  0  0  0  0  0
    9.1282    5.4880    8.4016 C   0  0  0  0  0  0  0  0  0  0  0  0
    8.2101    6.2818    8.9657 N   0  0  0  0  0  0  0  0  0  0  0  0
    8.4266    7.1536    9.5260 H   0  0  0  0  0  0  0  0  0  0  0  0
 10 11  2  0  0  0
 11 12  1  0  0  0
 12 13  2  0  0  0
 13  4  1  0  0  0
  4  5  2  0  0  0
  5  6  1  0  0  0
  6  7  2  0  0  0
  7  3  1  0  0  0
  3  2  1  0  0  0
  2  1  1  0  0  0
  1 16  1  0  0  0
 16 17  1  0  0  0
 17 18  1  0  0  0
 18 19  1  0  0  0
 19 20  1  0  0  0
 20 23  1  0  0  0
 23 24  1  0  0  0
 24 25  2  0  0  0
 25 26  1  0  0  0
 26 27  2  0  0  0
 27 28  1  0  0  0
 20 21  1  0  0  0
 21 22  1  0  0  0
  7  8  1  0  0  0
  8  9  2  0  0  0
 13 14  1  0  0  0
 14 15  2  0  0  0
 15 10  1  0  0  0
  9  4  1  0  0  0
 22 17  1  0  0  0
 28 24  1  0  0  0
 28 29  1  0  0  0
M  END
> <minimizedAffinity>
-6.30640

> <CNNscore>
0.2236110568

> <CNNaffinity>
5.6833467484

> <CNN_VS>
1.2708591223

> <CNNaffinity_variance>
0.0529971123

$$$$
[H]c1nc(-c2c([H])c([H])c(OC([H])([H])C([H])([H])C([H])([H])N3C([H])([H])C([H])([H])C([H])(C([H])([H])c4c([H])nc([H])n4[H])C([H])([H])C3([H])[H])c([H])c2[H])nc([H])c1[H]


 29 32  0  0  0  0  0  0  0  0999 V2000
    2.8567    6.6434   15.0427 C   0  0  0  0  0  0  0  0  0  0  0  0
    4.3158    7.0452   15.1502 C   0  0  0  0  0  0  0  0  0  0  0  0
    4.6162    7.1745   16.5058 O   0  0  0  0  0  0  0  0  0  0  0  0
    4.2832    3.9966   19.2698 C   0  0  0  0  0  0  0  0  0  0  0  0
    5.0797    3.8949   18.1499 C   0  0  0  0  0  0  0  0  0  0  0  0
    5.1914    4.9414   17.2365 C   0  0  0  0  0  0  0  0  0  0  0  0
    4.5055    6.1218   17.4218 C   0  0  0  0  0  0  0  0  0  0  0  0
    3.7102    6.2186   18.5438 C   0  0  0  0  0  0  0  0  0  0  0  0
    3.5965    5.1764   19.4570 C   0  0  0  0  0  0  0  0  0  0  0  0
    3.9653    0.8583   22.0523 C   0  0  0  0  0  0  0  0  0  0  0  0
    4.0421    2.1708   22.4637 C   0  0  0  0  0  0  0  0  0  0  0  0
    4.1428    3.1432   21.5406 N   0  0  0  0  0  0  0  0  0  0  0  0
    4.1726    2.8955   20.2203 C   0  0  0  0  0  0  0  0  0  0  0  0
    4.0976    1.6179   19.8256 N   0  0  0  0  0  0  0  0  0  0  0  0
    3.9945    0.5908   20.7075 C   0  0  0  0  0  0  0  0  0  0  0  0
    2.4006    6.8880   13.6222 C   0  0  0  0  0  0  0  0  0  0  0  0
    1.0826    7.4926   13.5634 N   0  0  0  0  0  0  0  0  0  0  0  0
    0.7609    7.6816   12.1615 C   0  0  0  0  0  0  0  0  0  0  0  0
    0.0702    6.4146   11.6411 C   0  0  0  0  0  0  0  0  0  0  0  0
   -1.3251    6.4410   12.2110 C   0  0  0  0  0  0  0  0  0  0  0  0
   -1.2436    6.7166   13.6741 C   0  0  0  0  0  0  0  0  0  0  0  0
    0.1615    6.5840   14.2129 C   0  0  0  0  0  0  0  0  0  0  0  0
   -2.0957    5.1831   11.8864 C   0  0  0  0  0  0  0  0  0  0  0  0
   -3.3865    5.5696   11.2828 C   0  0  0  0  0  0  0  0  0  0  0  0
   -4.5903    5.7734   11.9029 C   0  0  0  0  0  0  0  0  0  0  0  0
   -5.4956    6.1097   10.9872 N   0  0  0  0  0  0  0  0  0  0  0  0
   -4.8905    6.1239    9.7950 C   0  0  0  0  0  0  0  0  0  0  0  0
   -3.6069    5.7944    9.9811 N   0  0  0  0  0  0  0  0  0  0  0  0
   -2.8828    5.7243    9.2119 H   0  0  0  0  0  0  0  0  0  0  0  0
 10 11  2  0  0  0
 11 12  1  0  0  0
 12 13  2  0  0  0
 13  4  1  0  0  0
  4  5  2  0  0  0
  5  6  1  0  0  0
  6  7  2  0  0  0
  7  3  1  0  0  0
  3  2  1  0  0  0
  2  1  1  0  0  0
  1 16  1  0  0  0
 16 17  1  0  0  0
 17 18  1  0  0  0
 18 19  1  0  0  0
 19 20  1  0  0  0
 20 23  1  0  0  0
 23 24  1  0  0  0
 24 25  2  0  0  0
 25 26  1  0  0  0
 26 27  2  0  0  0
 27 28  1  0  0  0
 20 21  1  0  0  0
 21 22  1  0  0  0
  7  8  1  0  0  0
  8  9  2  0  0  0
 13 14  1  0  0  0
 14 15  2  0  0  0
 15 10  1  0  0  0
  9  4  1  0  0  0
 22 17  1  0  0  0
 28 24  1  0  0  0
 28 29  1  0  0  0
M  END
> <minimizedAffinity>
-6.81000

> <CNNscore>
0.2133836150

> <CNNaffinity>
5.3584375381

> <CNN_VS>
1.1434028149

> <CNNaffinity_variance>
0.1804896295

$$$$
[H]OC(=O)[C@]1([H])N([H])[C@@]([H])(C([H])([H])C([H])([H])c2c([H])c([H])c([H])c([H])c2[H])C(=O)N([H])[C@]([H])(C(=O)N([H])C([H])([H])[H])C([H])([H])C([H])([H])C(=O)OC([H])([H])C([H])([H])N([H])C(=O)C([H])([H])C1([H])[H]


 39 40  0  0  0  0  0  0  0  0999 V2000
    3.9201    6.3857   16.3368 C   0  0  0  0  0  0  0  0  0  0  0  0
    4.1323    7.1279   17.6150 C   0  0  0  0  0  0  0  0  0  0  0  0
    4.5023    8.5661   17.5149 C   0  0  0  0  0  0  0  0  0  0  0  0
    5.5671    8.8954   18.5321 C   0  0  0  0  0  0  0  0  0  0  0  0
    6.7716    8.8911   18.1039 O   0  0  0  0  0  0  0  0  0  0  0  0
    5.3112    9.1868   19.8405 O   0  0  0  0  0  0  0  0  0  0  0  0
    4.5557    8.4932   20.7704 C   0  0  0  0  0  0  0  0  0  0  0  0
    5.3605    7.5197   21.6317 C   0  0  0  0  0  0  0  0  0  0  0  0
    4.4470    6.5778   22.2175 N   0  0  0  0  0  0  0  0  0  0  0  0
    4.7319    5.2508   22.6091 C   0  0  0  0  0  0  0  0  0  0  0  0
    4.3425    4.8125   23.7467 O   0  0  0  0  0  0  0  0  0  0  0  0
    5.4836    4.2659   21.7723 C   0  0  0  0  0  0  0  0  0  0  0  0
    5.1174    4.3650   20.3276 C   0  0  0  0  0  0  0  0  0  0  0  0
    3.9573    3.4961   19.8903 C   0  0  0  0  0  0  0  0  0  0  0  0
    3.7790    3.6719   18.4783 N   0  0  0  0  0  0  0  0  0  0  0  0
    4.7838    3.3022   17.5819 C   0  0  0  0  0  0  0  0  0  0  0  0
    5.4820    4.4008   16.8582 C   0  0  0  0  0  0  0  0  0  0  0  0
    6.7560    4.4038   16.9972 O   0  0  0  0  0  0  0  0  0  0  0  0
    4.9615    5.4065   16.0636 N   0  0  0  0  0  0  0  0  0  0  0  0
    3.4501    6.9051   22.3803 H   0  0  0  0  0  0  0  0  0  0  0  0
    2.7986    3.5486   18.2361 H   0  0  0  0  0  0  0  0  0  0  0  0
    5.3735    5.5078   15.0757 H   0  0  0  0  0  0  0  0  0  0  0  0
    2.1318    8.5420   13.7147 C   0  0  0  0  0  0  0  0  0  0  0  0
    2.3860    7.6487   14.8163 N   0  0  0  0  0  0  0  0  0  0  0  0
    3.6868    7.3009   15.2071 C   0  0  0  0  0  0  0  0  0  0  0  0
    4.6544    7.7733   14.5889 O   0  0  0  0  0  0  0  0  0  0  0  0
    1.5770    7.2498   15.3364 H   0  0  0  0  0  0  0  0  0  0  0  0
    4.0607    2.1197   20.3696 C   0  0  0  0  0  0  0  0  0  0  0  0
    3.2755    1.5346   21.1502 O   0  0  0  0  0  0  0  0  0  0  0  0
    5.1607    1.3735   19.9079 O   0  0  0  0  0  0  0  0  0  0  0  0
    5.9541    1.3460   20.5343 H   0  0  0  0  0  0  0  0  0  0  0  0
    4.3431    2.2324   16.5759 C   0  0  0  0  0  0  0  0  0  0  0  0
    2.8724    2.2740   16.3370 C   0  0  0  0  0  0  0  0  0  0  0  0
    2.5489    2.7373   14.9503 C   0  0  0  0  0  0  0  0  0  0  0  0
    2.0271    3.9656   14.6823 C   0  0  0  0  0  0  0  0  0  0  0  0
    1.7723    4.2810   13.3530 C   0  0  0  0  0  0  0  0  0  0  0  0
    2.0313    3.3949   12.3252 C   0  0  0  0  0  0  0  0  0  0  0  0
    2.5585    2.1572   12.6107 C   0  0  0  0  0  0  0  0  0  0  0  0
    2.8083    1.8517   13.9285 C   0  0  0  0  0  0  0  0  0  0  0  0
 23 24  1  0  0  0
 24 25  1  0  0  0
 25 26  2  0  0  0
 25  1  1  0  0  0
  1  2  1  0  0  0
  2  3  1  0  0  0
  3  4  1  0  0  0
  4  5  2  0  0  0
  4  6  1  0  0  0
  6  7  1  0  0  0
  7  8  1  0  0  0
  8  9  1  0  0  0
  9 10  1  0  0  0
 10 11  2  0  0  0
 10 12  1  0  0  0
 12 13  1  0  0  0
 13 14  1  0  0  0
 14 28  1  0  0  0
 28 29  2  0  0  0
 28 30  1  0  0  0
 14 15  1  0  0  0
 15 16  1  0  0  0
 16 32  1  0  0  0
 32 33  1  0  0  0
 33 34  1  0  0  0
 34 35  2  0  0  0
 35 36  1  0  0  0
 36 37  2  0  0  0
 37 38  1  0  0  0
 38 39  2  0  0  0
 16 17  1  0  0  0
 17 18  2  0  0  0
 17 19  1  0  0  0
 19  1  1  0  0  0
 39 34  1  0  0  0
 24 27  1  0  0  0
  9 20  1  0  0  0
 30 31  1  0  0  0
 15 21  1  0  0  0
 19 22  1  0  0  0
M  END
> <minimizedAffinity>
-8.80389

> <CNNscore>
0.3620246947

> <CNNaffinity>
5.6622304916

> <CNN_VS>
2.0498671532

> <CNNaffinity_variance>
0.3753105402

$$$$
[H]OC(=O)[C@]1([H])N([H])[C@@]([H])(C([H])([H])C([H])([H])c2c([H])c([H])c([H])c([H])c2[H])C(=O)N([H])[C@]([H])(C(=O)N([H])C([H])([H])[H])C([H])([H])C([H])([H])C(=O)OC([H])([H])C([H])([H])N([H])C(=O)C([H])([H])C1([H])[H]


 39 40  0  0  0  0  0  0  0  0999 V2000
    4.3860    2.9356   17.9661 C   0  0  0  0  0  0  0  0  0  0  0  0
    5.2005    4.0251   18.5819 C   0  0  0  0  0  0  0  0  0  0  0  0
    5.5653    3.8756   20.0171 C   0  0  0  0  0  0  0  0  0  0  0  0
    5.4307    5.2023   20.7231 C   0  0  0  0  0  0  0  0  0  0  0  0
    4.3367    5.3913   21.3570 O   0  0  0  0  0  0  0  0  0  0  0  0
    6.3891    6.1738   20.7154 O   0  0  0  0  0  0  0  0  0  0  0  0
    7.0627    6.7441   19.6489 C   0  0  0  0  0  0  0  0  0  0  0  0
    6.4232    8.0269   19.1170 C   0  0  0  0  0  0  0  0  0  0  0  0
    6.9286    8.2649   17.7931 N   0  0  0  0  0  0  0  0  0  0  0  0
    6.2761    8.9547   16.7472 C   0  0  0  0  0  0  0  0  0  0  0  0
    6.9025    9.8346   16.0607 O   0  0  0  0  0  0  0  0  0  0  0  0
    4.8506    8.7375   16.3522 C   0  0  0  0  0  0  0  0  0  0  0  0
    4.4696    7.2941   16.4044 C   0  0  0  0  0  0  0  0  0  0  0  0
    4.6972    6.5155   15.1261 C   0  0  0  0  0  0  0  0  0  0  0  0
    4.2305    5.1755   15.3339 N   0  0  0  0  0  0  0  0  0  0  0  0
    2.8833    4.9239   15.6012 C   0  0  0  0  0  0  0  0  0  0  0  0
    2.5442    4.4401   16.9684 C   0  0  0  0  0  0  0  0  0  0  0  0
    1.6764    5.1536   17.5851 O   0  0  0  0  0  0  0  0  0  0  0  0
    3.0222    3.3425   17.6615 N   0  0  0  0  0  0  0  0  0  0  0  0
    7.8958    7.8890   17.5677 H   0  0  0  0  0  0  0  0  0  0  0  0
    4.7753    4.5286   14.7686 H   0  0  0  0  0  0  0  0  0  0  0  0
    2.2909    2.6584   18.0529 H   0  0  0  0  0  0  0  0  0  0  0  0
    3.6349    0.2865   20.6385 C   0  0  0  0  0  0  0  0  0  0  0  0
    3.5937    1.4915   19.8496 N   0  0  0  0  0  0  0  0  0  0  0  0
    4.4481    1.6949   18.7568 C   0  0  0  0  0  0  0  0  0  0  0  0
    5.2688    0.8136   18.4541 O   0  0  0  0  0  0  0  0  0  0  0  0
    2.9075    2.2332   20.1011 H   0  0  0  0  0  0  0  0  0  0  0  0
    4.1968    7.2052   13.9391 C   0  0  0  0  0  0  0  0  0  0  0  0
    3.0235    7.5911   13.7327 O   0  0  0  0  0  0  0  0  0  0  0  0
    5.1314    7.4600   12.9186 O   0  0  0  0  0  0  0  0  0  0  0  0
    5.1416    6.7834   12.1672 H   0  0  0  0  0  0  0  0  0  0  0  0
    2.2120    4.0182   14.5621 C   0  0  0  0  0  0  0  0  0  0  0  0
    3.1555    2.9918   14.0350 C   0  0  0  0  0  0  0  0  0  0  0  0
    3.1617    2.9613   12.5379 C   0  0  0  0  0  0  0  0  0  0  0  0
    2.5433    1.9884   11.8140 C   0  0  0  0  0  0  0  0  0  0  0  0
    2.6174    2.0710   10.4288 C   0  0  0  0  0  0  0  0  0  0  0  0
    3.2891    3.0947    9.7888 C   0  0  0  0  0  0  0  0  0  0  0  0
    3.9095    4.0709   10.5329 C   0  0  0  0  0  0  0  0  0  0  0  0
    3.8322    3.9829   11.9035 C   0  0  0  0  0  0  0  0  0  0  0  0
 23 24  1  0  0  0
 24 25  1  0  0  0
 25 26  2  0  0  0
 25  1  1  0  0  0
  1  2  1  0  0  0
  2  3  1  0  0  0
  3  4  1  0  0  0
  4  5  2  0  0  0
  4  6  1  0  0  0
  6  7  1  0  0  0
  7  8  1  0  0  0
  8  9  1  0  0  0
  9 10  1  0  0  0
 10 11  2  0  0  0
 10 12  1  0  0  0
 12 13  1  0  0  0
 13 14  1  0  0  0
 14 28  1  0  0  0
 28 29  2  0  0  0
 28 30  1  0  0  0
 14 15  1  0  0  0
 15 16  1  0  0  0
 16 32  1  0  0  0
 32 33  1  0  0  0
 33 34  1  0  0  0
 34 35  2  0  0  0
 35 36  1  0  0  0
 36 37  2  0  0  0
 37 38  1  0  0  0
 38 39  2  0  0  0
 16 17  1  0  0  0
 17 18  2  0  0  0
 17 19  1  0  0  0
 19  1  1  0  0  0
 39 34  1  0  0  0
 24 27  1  0  0  0
  9 20  1  0  0  0
 30 31  1  0  0  0
 15 21  1  0  0  0
 19 22  1  0  0  0
M  END
> <minimizedAffinity>
-6.66015

> <CNNscore>
0.3527917862

> <CNNaffinity>
5.5707750320

> <CNN_VS>
1.9653236866

> <CNNaffinity_variance>
0.5643267632

$$$$
[H]OC(=O)[C@]1([H])N([H])[C@@]([H])(C([H])([H])C([H])([H])c2c([H])c([H])c([H])c([H])c2[H])C(=O)N([H])[C@]([H])(C(=O)N([H])C([H])([H])[H])C([H])([H])C([H])([H])C(=O)OC([H])([H])C([H])([H])N([H])C(=O)C([H])([H])C1([H])[H]


 39 40  0  0  0  0  0  0  0  0999 V2000
    3.3848    3.9847   11.3446 C   0  0  0  0  0  0  0  0  0  0  0  0
    3.2547    4.4732   12.7496 C   0  0  0  0  0  0  0  0  0  0  0  0
    2.0999    3.9697   13.5422 C   0  0  0  0  0  0  0  0  0  0  0  0
    1.5065    5.0925   14.3571 C   0  0  0  0  0  0  0  0  0  0  0  0
    0.4873    5.6746   13.8505 O   0  0  0  0  0  0  0  0  0  0  0  0
    1.9914    5.4996   15.5660 O   0  0  0  0  0  0  0  0  0  0  0  0
    3.2826    5.8379   15.9334 C   0  0  0  0  0  0  0  0  0  0  0  0
    3.5919    7.3318   15.8335 C   0  0  0  0  0  0  0  0  0  0  0  0
    5.0194    7.4938   15.8067 N   0  0  0  0  0  0  0  0  0  0  0  0
    5.7425    8.5479   15.2054 C   0  0  0  0  0  0  0  0  0  0  0  0
    6.6940    9.1250   15.8375 O   0  0  0  0  0  0  0  0  0  0  0  0
    5.4823    9.0743   13.8304 C   0  0  0  0  0  0  0  0  0  0  0  0
    5.1644    7.9806   12.8640 C   0  0  0  0  0  0  0  0  0  0  0  0
    6.3560    7.3755   12.1526 C   0  0  0  0  0  0  0  0  0  0  0  0
    5.8693    6.3899   11.2317 N   0  0  0  0  0  0  0  0  0  0  0  0
    5.0410    6.7558   10.1688 C   0  0  0  0  0  0  0  0  0  0  0  0
    3.6255    6.2956   10.2252 C   0  0  0  0  0  0  0  0  0  0  0  0
    2.7572    7.2342   10.1389 O   0  0  0  0  0  0  0  0  0  0  0  0
    3.1167    5.0156   10.3528 N   0  0  0  0  0  0  0  0  0  0  0  0
    5.6018    6.7490   16.2900 H   0  0  0  0  0  0  0  0  0  0  0  0
    6.5602    5.6519   11.1187 H   0  0  0  0  0  0  0  0  0  0  0  0
    2.4027    4.7003    9.6134 H   0  0  0  0  0  0  0  0  0  0  0  0
    0.6215    1.6037   10.1539 C   0  0  0  0  0  0  0  0  0  0  0  0
    1.4053    2.7897   10.3884 N   0  0  0  0  0  0  0  0  0  0  0  0
    2.6016    2.7584   11.1189 C   0  0  0  0  0  0  0  0  0  0  0  0
    3.0037    1.6785   11.5814 O   0  0  0  0  0  0  0  0  0  0  0  0
    1.0707    3.6973   10.0030 H   0  0  0  0  0  0  0  0  0  0  0  0
    7.2706    8.3791   11.6130 C   0  0  0  0  0  0  0  0  0  0  0  0
    8.5216    8.3625   11.6673 O   0  0  0  0  0  0  0  0  0  0  0  0
    6.6838    9.4825   10.9666 O   0  0  0  0  0  0  0  0  0  0  0  0
    6.5755   10.3083   11.5402 H   0  0  0  0  0  0  0  0  0  0  0  0
    5.6280    6.4220    8.7924 C   0  0  0  0  0  0  0  0  0  0  0  0
    6.9815    5.8080    8.9055 C   0  0  0  0  0  0  0  0  0  0  0  0
    6.9637    4.3557    8.5410 C   0  0  0  0  0  0  0  0  0  0  0  0
    6.3476    3.4087    9.3005 C   0  0  0  0  0  0  0  0  0  0  0  0
    6.3977    2.0933    8.8550 C   0  0  0  0  0  0  0  0  0  0  0  0
    7.0440    1.7373    7.6870 C   0  0  0  0  0  0  0  0  0  0  0  0
    7.6623    2.7046    6.9297 C   0  0  0  0  0  0  0  0  0  0  0  0
    7.6087    4.0046    7.3765 C   0  0  0  0  0  0  0  0  0  0  0  0
 23 24  1  0  0  0
 24 25  1  0  0  0
 25 26  2  0  0  0
 25  1  1  0  0  0
  1  2  1  0  0  0
  2  3  1  0  0  0
  3  4  1  0  0  0
  4  5  2  0  0  0
  4  6  1  0  0  0
  6  7  1  0  0  0
  7  8  1  0  0  0
  8  9  1  0  0  0
  9 10  1  0  0  0
 10 11  2  0  0  0
 10 12  1  0  0  0
 12 13  1  0  0  0
 13 14  1  0  0  0
 14 28  1  0  0  0
 28 29  2  0  0  0
 28 30  1  0  0  0
 14 15  1  0  0  0
 15 16  1  0  0  0
 16 32  1  0  0  0
 32 33  1  0  0  0
 33 34  1  0  0  0
 34 35  2  0  0  0
 35 36  1  0  0  0
 36 37  2  0  0  0
 37 38  1  0  0  0
 38 39  2  0  0  0
 16 17  1  0  0  0
 17 18  2  0  0  0
 17 19  1  0  0  0
 19  1  1  0  0  0
 39 34  1  0  0  0
 24 27  1  0  0  0
  9 20  1  0  0  0
 30 31  1  0  0  0
 15 21  1  0  0  0
 19 22  1  0  0  0
M  END
> <minimizedAffinity>
-5.71414

> <CNNscore>
0.3321467638

> <CNNaffinity>
5.0218424797

> <CNN_VS>
1.6679887772

> <CNNaffinity_variance>
0.7968469262

$$$$
[H]OC(=O)[C@]1([H])N([H])[C@@]([H])(C([H])([H])C([H])([H])c2c([H])c([H])c([H])c([H])c2[H])C(=O)N([H])[C@]([H])(C(=O)N([H])C([H])([H])[H])C([H])([H])C([H])([H])C(=O)OC([H])([H])C([H])([H])N([H])C(=O)C([H])([H])C1([H])[H]


 39 40  0  0  0  0  0  0  0  0999 V2000
    3.4365    1.8489    9.0294 C   0  0  0  0  0  0  0  0  0  0  0  0
    3.0555    2.2505    7.6426 C   0  0  0  0  0  0  0  0  0  0  0  0
    2.8901    1.1636    6.6392 C   0  0  0  0  0  0  0  0  0  0  0  0
    3.4889    1.5858    5.3201 C   0  0  0  0  0  0  0  0  0  0  0  0
    4.6773    1.1758    5.0875 O   0  0  0  0  0  0  0  0  0  0  0  0
    2.8427    2.3571    4.3984 O   0  0  0  0  0  0  0  0  0  0  0  0
    2.1937    3.5695    4.5576 C   0  0  0  0  0  0  0  0  0  0  0  0
    3.0686    4.7910    4.2748 C   0  0  0  0  0  0  0  0  0  0  0  0
    2.4490    5.9370    4.8810 N   0  0  0  0  0  0  0  0  0  0  0  0
    3.0950    7.1036    5.3470 C   0  0  0  0  0  0  0  0  0  0  0  0
    2.6340    8.2611    5.0545 O   0  0  0  0  0  0  0  0  0  0  0  0
    4.3284    7.1060    6.1921 C   0  0  0  0  0  0  0  0  0  0  0  0
    4.3045    6.0218    7.2192 C   0  0  0  0  0  0  0  0  0  0  0  0
    3.6784    6.3971    8.5456 C   0  0  0  0  0  0  0  0  0  0  0  0
    3.7882    5.2682    9.4231 N   0  0  0  0  0  0  0  0  0  0  0  0
    5.0402    4.7856    9.8096 C   0  0  0  0  0  0  0  0  0  0  0  0
    5.4416    3.4507    9.2849 C   0  0  0  0  0  0  0  0  0  0  0  0
    6.5555    3.4412    8.6513 O   0  0  0  0  0  0  0  0  0  0  0  0
    4.7954    2.2315    9.3833 N   0  0  0  0  0  0  0  0  0  0  0  0
    1.3932    5.9161    4.9924 H   0  0  0  0  0  0  0  0  0  0  0  0
    3.0070    5.2602   10.0747 H   0  0  0  0  0  0  0  0  0  0  0  0
    5.3638    1.4109    9.7827 H   0  0  0  0  0  0  0  0  0  0  0  0
    3.9403   -1.9316    9.4494 C   0  0  0  0  0  0  0  0  0  0  0  0
    4.1842   -0.5321    9.2087 N   0  0  0  0  0  0  0  0  0  0  0  0
    3.1614    0.4242    9.2795 C   0  0  0  0  0  0  0  0  0  0  0  0
    2.0071    0.0607    9.5574 O   0  0  0  0  0  0  0  0  0  0  0  0
    5.1507   -0.2238    8.9744 H   0  0  0  0  0  0  0  0  0  0  0  0
    4.1582    7.6765    9.0633 C   0  0  0  0  0  0  0  0  0  0  0  0
    5.3437    7.9853    9.3229 O   0  0  0  0  0  0  0  0  0  0  0  0
    3.1849    8.6652    9.2980 O   0  0  0  0  0  0  0  0  0  0  0  0
    2.8595    8.7290   10.2533 H   0  0  0  0  0  0  0  0  0  0  0  0
    5.2700    4.8246   11.3249 C   0  0  0  0  0  0  0  0  0  0  0  0
    4.0134    5.1337   12.0645 C   0  0  0  0  0  0  0  0  0  0  0  0
    3.5597    3.9738   12.8958 C   0  0  0  0  0  0  0  0  0  0  0  0
    2.8121    2.9517   12.3965 C   0  0  0  0  0  0  0  0  0  0  0  0
    2.4552    1.9295   13.2677 C   0  0  0  0  0  0  0  0  0  0  0  0
    2.8343    1.9307   14.5962 C   0  0  0  0  0  0  0  0  0  0  0  0
    3.5896    2.9700   15.0872 C   0  0  0  0  0  0  0  0  0  0  0  0
    3.9394    3.9783   14.2193 C   0  0  0  0  0  0  0  0  0  0  0  0
 23 24  1  0  0  0
 24 25  1  0  0  0
 25 26  2  0  0  0
 25  1  1  0  0  0
  1  2  1  0  0  0
  2  3  1  0  0  0
  3  4  1  0  0  0
  4  5  2  0  0  0
  4  6  1  0  0  0
  6  7  1  0  0  0
  7  8  1  0  0  0
  8  9  1  0  0  0
  9 10  1  0  0  0
 10 11  2  0  0  0
 10 12  1  0  0  0
 12 13  1  0  0  0
 13 14  1  0  0  0
 14 28  1  0  0  0
 28 29  2  0  0  0
 28 30  1  0  0  0
 14 15  1  0  0  0
 15 16  1  0  0  0
 16 32  1  0  0  0
 32 33  1  0  0  0
 33 34  1  0  0  0
 34 35  2  0  0  0
 35 36  1  0  0  0
 36 37  2  0  0  0
 37 38  1  0  0  0
 38 39  2  0  0  0
 16 17  1  0  0  0
 17 18  2  0  0  0
 17 19  1  0  0  0
 19  1  1  0  0  0
 39 34  1  0  0  0
 24 27  1  0  0  0
  9 20  1  0  0  0
 30 31  1  0  0  0
 15 21  1  0  0  0
 19 22  1  0  0  0
M  END
> <minimizedAffinity>
-5.23354

> <CNNscore>
0.3228440583

> <CNNaffinity>
4.8120126724

> <CNN_VS>
1.5535297394

> <CNNaffinity_variance>
0.8391950727

$$$$
[H]OC(=O)[C@]1([H])N([H])[C@@]([H])(C([H])([H])C([H])([H])c2c([H])c([H])c([H])c([H])c2[H])C(=O)N([H])[C@]([H])(C(=O)N([H])C([H])([H])[H])C([H])([H])C([H])([H])C(=O)OC([H])([H])C([H])([H])N([H])C(=O)C([H])([H])C1([H])[H]


 39 40  0  0  0  0  0  0  0  0999 V2000
    3.7954    3.2714   18.3736 C   0  0  0  0  0  0  0  0  0  0  0  0
    3.0823    3.7025   17.1346 C   0  0  0  0  0  0  0  0  0  0  0  0
    2.5644    2.6326   16.2388 C   0  0  0  0  0  0  0  0  0  0  0  0
    2.8108    3.0044   14.7973 C   0  0  0  0  0  0  0  0  0  0  0  0
    3.8545    2.4992   14.2589 O   0  0  0  0  0  0  0  0  0  0  0  0
    1.9996    3.8257   14.0696 O   0  0  0  0  0  0  0  0  0  0  0  0
    1.5158    5.0869   14.3725 C   0  0  0  0  0  0  0  0  0  0  0  0
    2.3729    6.2331   13.8348 C   0  0  0  0  0  0  0  0  0  0  0  0
    2.0342    7.4258   14.5611 N   0  0  0  0  0  0  0  0  0  0  0  0
    2.8722    8.5360   14.8072 C   0  0  0  0  0  0  0  0  0  0  0  0
    2.4409    9.7272   14.6256 O   0  0  0  0  0  0  0  0  0  0  0  0
    4.2859    8.4382   15.2839 C   0  0  0  0  0  0  0  0  0  0  0  0
    4.4591    7.3596   16.3027 C   0  0  0  0  0  0  0  0  0  0  0  0
    4.2509    7.7847   17.7408 C   0  0  0  0  0  0  0  0  0  0  0  0
    4.5078    6.6508   18.5801 N   0  0  0  0  0  0  0  0  0  0  0  0
    5.7760    6.0679   18.6215 C   0  0  0  0  0  0  0  0  0  0  0  0
    5.9129    4.7047   18.0372 C   0  0  0  0  0  0  0  0  0  0  0  0
    6.8068    4.6046   17.1245 O   0  0  0  0  0  0  0  0  0  0  0  0
    5.2249    3.5422   18.3352 N   0  0  0  0  0  0  0  0  0  0  0  0
    1.0508    7.4909   14.9564 H   0  0  0  0  0  0  0  0  0  0  0  0
    3.9363    6.7064   19.4200 H   0  0  0  0  0  0  0  0  0  0  0  0
    5.8148    2.6781   18.5828 H   0  0  0  0  0  0  0  0  0  0  0  0
    3.2375    0.0719   20.4169 C   0  0  0  0  0  0  0  0  0  0  0  0
    3.5337    1.4338   20.0515 N   0  0  0  0  0  0  0  0  0  0  0  0
    3.4886    1.8738   18.7211 C   0  0  0  0  0  0  0  0  0  0  0  0
    3.1852    1.0700   17.8247 O   0  0  0  0  0  0  0  0  0  0  0  0
    3.7895    2.1105   20.8005 H   0  0  0  0  0  0  0  0  0  0  0  0
    4.9525    9.0209   18.0794 C   0  0  0  0  0  0  0  0  0  0  0  0
    6.0314    9.4302   17.5930 O   0  0  0  0  0  0  0  0  0  0  0  0
    4.3543    9.8363   19.0577 O   0  0  0  0  0  0  0  0  0  0  0  0
    4.7134    9.7155   19.9953 H   0  0  0  0  0  0  0  0  0  0  0  0
    6.4137    6.0883   20.0156 C   0  0  0  0  0  0  0  0  0  0  0  0
    5.3948    6.2935   21.0840 C   0  0  0  0  0  0  0  0  0  0  0  0
    5.1940    5.0564   21.9035 C   0  0  0  0  0  0  0  0  0  0  0  0
    6.0839    4.0265   21.9207 C   0  0  0  0  0  0  0  0  0  0  0  0
    5.7870    2.9324   22.7246 C   0  0  0  0  0  0  0  0  0  0  0  0
    4.6361    2.8713   23.4864 C   0  0  0  0  0  0  0  0  0  0  0  0
    3.7458    3.9192   23.4591 C   0  0  0  0  0  0  0  0  0  0  0  0
    4.0460    4.9990   22.6614 C   0  0  0  0  0  0  0  0  0  0  0  0
 23 24  1  0  0  0
 24 25  1  0  0  0
 25 26  2  0  0  0
 25  1  1  0  0  0
  1  2  1  0  0  0
  2  3  1  0  0  0
  3  4  1  0  0  0
  4  5  2  0  0  0
  4  6  1  0  0  0
  6  7  1  0  0  0
  7  8  1  0  0  0
  8  9  1  0  0  0
  9 10  1  0  0  0
 10 11  2  0  0  0
 10 12  1  0  0  0
 12 13  1  0  0  0
 13 14  1  0  0  0
 14 28  1  0  0  0
 28 29  2  0  0  0
 28 30  1  0  0  0
 14 15  1  0  0  0
 15 16  1  0  0  0
 16 32  1  0  0  0
 32 33  1  0  0  0
 33 34  1  0  0  0
 34 35  2  0  0  0
 35 36  1  0  0  0
 36 37  2  0  0  0
 37 38  1  0  0  0
 38 39  2  0  0  0
 16 17  1  0  0  0
 17 18  2  0  0  0
 17 19  1  0  0  0
 19  1  1  0  0  0
 39 34  1  0  0  0
 24 27  1  0  0  0
  9 20  1  0  0  0
 30 31  1  0  0  0
 15 21  1  0  0  0
 19 22  1  0  0  0
M  END
> <minimizedAffinity>
-8.66764

> <CNNscore>
0.3203891516

> <CNNaffinity>
5.7581853867

> <CNN_VS>
1.8448600769

> <CNNaffinity_variance>
0.0948266536

$$$$
[H]OC(=O)[C@]1([H])N([H])[C@@]([H])(C([H])([H])C([H])([H])c2c([H])c([H])c([H])c([H])c2[H])C(=O)N([H])[C@]([H])(C(=O)N([H])C([H])([H])[H])C([H])([H])C([H])([H])C(=O)OC([H])([H])C([H])([H])N([H])C(=O)C([H])([H])C1([H])[H]


 39 40  0  0  0  0  0  0  0  0999 V2000
    6.6449    5.8791    7.5301 C   0  0  0  0  0  0  0  0  0  0  0  0
    6.6145    6.3015    6.0982 C   0  0  0  0  0  0  0  0  0  0  0  0
    7.9233    6.4799    5.4121 C   0  0  0  0  0  0  0  0  0  0  0  0
    7.8831    7.7102    4.5393 C   0  0  0  0  0  0  0  0  0  0  0  0
    8.3737    8.7750    5.0490 O   0  0  0  0  0  0  0  0  0  0  0  0
    7.3654    7.7361    3.2769 O   0  0  0  0  0  0  0  0  0  0  0  0
    6.1362    7.2977    2.8152 C   0  0  0  0  0  0  0  0  0  0  0  0
    5.0588    8.3816    2.7742 C   0  0  0  0  0  0  0  0  0  0  0  0
    3.7760    7.7373    2.7121 N   0  0  0  0  0  0  0  0  0  0  0  0
    2.5465    8.2475    3.1849 C   0  0  0  0  0  0  0  0  0  0  0  0
    1.4952    8.1838    2.4577 O   0  0  0  0  0  0  0  0  0  0  0  0
    2.3553    8.8859    4.5233 C   0  0  0  0  0  0  0  0  0  0  0  0
    3.1275    8.1847    5.5926 C   0  0  0  0  0  0  0  0  0  0  0  0
    2.3964    7.0559    6.2878 C   0  0  0  0  0  0  0  0  0  0  0  0
    3.2550    6.5356    7.3117 N   0  0  0  0  0  0  0  0  0  0  0  0
    3.6535    7.3379    8.3829 C   0  0  0  0  0  0  0  0  0  0  0  0
    5.0906    7.7251    8.4396 C   0  0  0  0  0  0  0  0  0  0  0  0
    5.2994    8.9884    8.4934 O   0  0  0  0  0  0  0  0  0  0  0  0
    6.2212    6.9280    8.4457 N   0  0  0  0  0  0  0  0  0  0  0  0
    3.7365    6.7762    2.2623 H   0  0  0  0  0  0  0  0  0  0  0  0
    3.0678    5.5451    7.4489 H   0  0  0  0  0  0  0  0  0  0  0  0
    6.9224    7.0851    9.2453 H   0  0  0  0  0  0  0  0  0  0  0  0
    9.6091    3.4511    7.7344 C   0  0  0  0  0  0  0  0  0  0  0  0
    8.3433    4.0469    7.3900 N   0  0  0  0  0  0  0  0  0  0  0  0
    7.9440    5.2913    7.8977 C   0  0  0  0  0  0  0  0  0  0  0  0
    8.6996    5.9042    8.6692 O   0  0  0  0  0  0  0  0  0  0  0  0
    7.7065    3.5354    6.7441 H   0  0  0  0  0  0  0  0  0  0  0  0
    1.0398    7.4166    6.6933 C   0  0  0  0  0  0  0  0  0  0  0  0
    0.7110    8.3094    7.5076 O   0  0  0  0  0  0  0  0  0  0  0  0
   -0.0081    6.6811    6.1095 O   0  0  0  0  0  0  0  0  0  0  0  0
   -0.3556    5.9124    6.6671 H   0  0  0  0  0  0  0  0  0  0  0  0
    3.2209    6.7937    9.7493 C   0  0  0  0  0  0  0  0  0  0  0  0
    2.5345    7.8357   10.5647 C   0  0  0  0  0  0  0  0  0  0  0  0
    1.3102    7.2961   11.2371 C   0  0  0  0  0  0  0  0  0  0  0  0
    0.3495    6.5947   10.5752 C   0  0  0  0  0  0  0  0  0  0  0  0
   -0.7398    6.1430   11.3106 C   0  0  0  0  0  0  0  0  0  0  0  0
   -0.8634    6.3860   12.6649 C   0  0  0  0  0  0  0  0  0  0  0  0
    0.1148    7.0962   13.3208 C   0  0  0  0  0  0  0  0  0  0  0  0
    1.1902    7.5402   12.5868 C   0  0  0  0  0  0  0  0  0  0  0  0
 23 24  1  0  0  0
 24 25  1  0  0  0
 25 26  2  0  0  0
 25  1  1  0  0  0
  1  2  1  0  0  0
  2  3  1  0  0  0
  3  4  1  0  0  0
  4  5  2  0  0  0
  4  6  1  0  0  0
  6  7  1  0  0  0
  7  8  1  0  0  0
  8  9  1  0  0  0
  9 10  1  0  0  0
 10 11  2  0  0  0
 10 12  1  0  0  0
 12 13  1  0  0  0
 13 14  1  0  0  0
 14 28  1  0  0  0
 28 29  2  0  0  0
 28 30  1  0  0  0
 14 15  1  0  0  0
 15 16  1  0  0  0
 16 32  1  0  0  0
 32 33  1  0  0  0
 33 34  1  0  0  0
 34 35  2  0  0  0
 35 36  1  0  0  0
 36 37  2  0  0  0
 37 38  1  0  0  0
 38 39  2  0  0  0
 16 17  1  0  0  0
 17 18  2  0  0  0
 17 19  1  0  0  0
 19  1  1  0  0  0
 39 34  1  0  0  0
 24 27  1  0  0  0
  9 20  1  0  0  0
 30 31  1  0  0  0
 15 21  1  0  0  0
 19 22  1  0  0  0
M  END
> <minimizedAffinity>
-5.69150

> <CNNscore>
0.3142401576

> <CNNaffinity>
4.7284002304

> <CNN_VS>
1.4858531952

> <CNNaffinity_variance>
0.7055534124

$$$$
[H]OC(=O)[C@]1([H])N([H])[C@@]([H])(C([H])([H])C([H])([H])c2c([H])c([H])c([H])c([H])c2[H])C(=O)N([H])[C@]([H])(C(=O)N([H])C([H])([H])[H])C([H])([H])C([H])([H])C(=O)OC([H])([H])C([H])([H])N([H])C(=O)C([H])([H])C1([H])[H]


 39 40  0  0  0  0  0  0  0  0999 V2000
    4.5364    2.5138    8.5028 C   0  0  0  0  0  0  0  0  0  0  0  0
    5.3382    3.3428    7.5543 C   0  0  0  0  0  0  0  0  0  0  0  0
    6.5181    2.6986    6.9155 C   0  0  0  0  0  0  0  0  0  0  0  0
    7.6733    3.6684    6.8727 C   0  0  0  0  0  0  0  0  0  0  0  0
    8.5319    3.5591    7.8136 O   0  0  0  0  0  0  0  0  0  0  0  0
    7.8366    4.6220    5.9102 O   0  0  0  0  0  0  0  0  0  0  0  0
    6.9448    5.5743    5.4475 C   0  0  0  0  0  0  0  0  0  0  0  0
    7.0557    6.9294    6.1465 C   0  0  0  0  0  0  0  0  0  0  0  0
    5.8405    7.6582    5.9083 N   0  0  0  0  0  0  0  0  0  0  0  0
    5.2687    8.6486    6.7376 C   0  0  0  0  0  0  0  0  0  0  0  0
    4.8454    9.7480    6.2376 O   0  0  0  0  0  0  0  0  0  0  0  0
    5.1066    8.5202    8.2184 C   0  0  0  0  0  0  0  0  0  0  0  0
    4.6985    7.1402    8.6185 C   0  0  0  0  0  0  0  0  0  0  0  0
    3.2057    6.8933    8.6698 C   0  0  0  0  0  0  0  0  0  0  0  0
    2.9938    5.5485    9.1204 N   0  0  0  0  0  0  0  0  0  0  0  0
    3.4063    5.1505   10.3936 C   0  0  0  0  0  0  0  0  0  0  0  0
    4.5385    4.1856   10.4666 C   0  0  0  0  0  0  0  0  0  0  0  0
    5.5299    4.5814   11.1757 O   0  0  0  0  0  0  0  0  0  0  0  0
    4.6735    2.9359    9.8889 N   0  0  0  0  0  0  0  0  0  0  0  0
    5.3096    7.4386    5.0153 H   0  0  0  0  0  0  0  0  0  0  0  0
    2.1363    5.1799    8.7157 H   0  0  0  0  0  0  0  0  0  0  0  0
    4.9206    2.1210   10.5453 H   0  0  0  0  0  0  0  0  0  0  0  0
    4.3430   -1.0625    7.1261 C   0  0  0  0  0  0  0  0  0  0  0  0
    4.1137    0.3456    7.3278 N   0  0  0  0  0  0  0  0  0  0  0  0
    4.7885    1.0751    8.3169 C   0  0  0  0  0  0  0  0  0  0  0  0
    5.6102    0.4958    9.0456 O   0  0  0  0  0  0  0  0  0  0  0  0
    3.4246    0.8345    6.7193 H   0  0  0  0  0  0  0  0  0  0  0  0
    2.4761    7.9425    9.3781 C   0  0  0  0  0  0  0  0  0  0  0  0
    2.5374    8.2066   10.6007 O   0  0  0  0  0  0  0  0  0  0  0  0
    1.6106    8.7386    8.6054 O   0  0  0  0  0  0  0  0  0  0  0  0
    0.6400    8.4551    8.6188 H   0  0  0  0  0  0  0  0  0  0  0  0
    2.2591    4.6539   11.2813 C   0  0  0  0  0  0  0  0  0  0  0  0
    2.1699    5.4299   12.5508 C   0  0  0  0  0  0  0  0  0  0  0  0
    0.7662    5.8662   12.8363 C   0  0  0  0  0  0  0  0  0  0  0  0
    0.3845    6.4010   14.0285 C   0  0  0  0  0  0  0  0  0  0  0  0
   -0.9475    6.7706   14.1715 C   0  0  0  0  0  0  0  0  0  0  0  0
   -1.8678    6.6098   13.1537 C   0  0  0  0  0  0  0  0  0  0  0  0
   -1.4681    6.0680   11.9545 C   0  0  0  0  0  0  0  0  0  0  0  0
   -0.1483    5.7044   11.8198 C   0  0  0  0  0  0  0  0  0  0  0  0
 23 24  1  0  0  0
 24 25  1  0  0  0
 25 26  2  0  0  0
 25  1  1  0  0  0
  1  2  1  0  0  0
  2  3  1  0  0  0
  3  4  1  0  0  0
  4  5  2  0  0  0
  4  6  1  0  0  0
  6  7  1  0  0  0
  7  8  1  0  0  0
  8  9  1  0  0  0
  9 10  1  0  0  0
 10 11  2  0  0  0
 10 12  1  0  0  0
 12 13  1  0  0  0
 13 14  1  0  0  0
 14 28  1  0  0  0
 28 29  2  0  0  0
 28 30  1  0  0  0
 14 15  1  0  0  0
 15 16  1  0  0  0
 16 32  1  0  0  0
 32 33  1  0  0  0
 33 34  1  0  0  0
 34 35  2  0  0  0
 35 36  1  0  0  0
 36 37  2  0  0  0
 37 38  1  0  0  0
 38 39  2  0  0  0
 16 17  1  0  0  0
 17 18  2  0  0  0
 17 19  1  0  0  0
 19  1  1  0  0  0
 39 34  1  0  0  0
 24 27  1  0  0  0
  9 20  1  0  0  0
 30 31  1  0  0  0
 15 21  1  0  0  0
 19 22  1  0  0  0
M  END
> <minimizedAffinity>
-5.48005

> <CNNscore>
0.3063752949

> <CNNaffinity>
4.4709138870

> <CNN_VS>
1.3697775602

> <CNNaffinity_variance>
0.7777472734

$$$$
[H]OC(=O)[C@]1([H])N([H])[C@@]([H])(C([H])([H])C([H])([H])c2c([H])c([H])c([H])c([H])c2[H])C(=O)N([H])[C@]([H])(C(=O)N([H])C([H])([H])[H])C([H])([H])C([H])([H])C(=O)OC([H])([H])C([H])([H])N([H])C(=O)C([H])([H])C1([H])[H]


 39 40  0  0  0  0  0  0  0  0999 V2000
    2.8222    2.0567    8.9524 C   0  0  0  0  0  0  0  0  0  0  0  0
    2.8461    3.0380    7.8272 C   0  0  0  0  0  0  0  0  0  0  0  0
    3.3930    2.5686    6.5249 C   0  0  0  0  0  0  0  0  0  0  0  0
    4.2515    3.6460    5.9091 C   0  0  0  0  0  0  0  0  0  0  0  0
    5.5103    3.5401    6.1055 O   0  0  0  0  0  0  0  0  0  0  0  0
    3.7623    4.6901    5.1791 O   0  0  0  0  0  0  0  0  0  0  0  0
    2.7534    5.5876    5.4840 C   0  0  0  0  0  0  0  0  0  0  0  0
    3.2413    6.8820    6.1351 C   0  0  0  0  0  0  0  0  0  0  0  0
    2.1224    7.5071    6.7847 N   0  0  0  0  0  0  0  0  0  0  0  0
    2.1631    8.3625    7.9083 C   0  0  0  0  0  0  0  0  0  0  0  0
    1.4956    9.4544    7.9166 O   0  0  0  0  0  0  0  0  0  0  0  0
    2.9543    8.0921    9.1477 C   0  0  0  0  0  0  0  0  0  0  0  0
    2.9134    6.6498    9.5337 C   0  0  0  0  0  0  0  0  0  0  0  0
    1.7782    6.2556   10.4546 C   0  0  0  0  0  0  0  0  0  0  0  0
    1.9216    4.8629   10.7646 N   0  0  0  0  0  0  0  0  0  0  0  0
    3.0423    4.3989   11.4564 C   0  0  0  0  0  0  0  0  0  0  0  0
    3.9993    3.5457   10.6984 C   0  0  0  0  0  0  0  0  0  0  0  0
    5.2074    3.9735   10.6969 O   0  0  0  0  0  0  0  0  0  0  0  0
    3.7772    2.3693   10.0053 N   0  0  0  0  0  0  0  0  0  0  0  0
    1.1583    7.3146    6.3836 H   0  0  0  0  0  0  0  0  0  0  0  0
    1.0063    4.4490   10.9255 H   0  0  0  0  0  0  0  0  0  0  0  0
    4.3962    1.5289   10.2631 H   0  0  0  0  0  0  0  0  0  0  0  0
    4.2967   -1.3757    8.0761 C   0  0  0  0  0  0  0  0  0  0  0  0
    4.1573   -0.0192    8.5414 N   0  0  0  0  0  0  0  0  0  0  0  0
    2.9388    0.6705    8.4696 C   0  0  0  0  0  0  0  0  0  0  0  0
    1.9448    0.1008    7.9908 O   0  0  0  0  0  0  0  0  0  0  0  0
    4.9890    0.4621    8.9427 H   0  0  0  0  0  0  0  0  0  0  0  0
    1.6186    7.1644   11.5876 C   0  0  0  0  0  0  0  0  0  0  0  0
    2.4655    7.4147   12.4755 O   0  0  0  0  0  0  0  0  0  0  0  0
    0.3813    7.8259   11.6943 O   0  0  0  0  0  0  0  0  0  0  0  0
   -0.2849    7.3921   12.3192 H   0  0  0  0  0  0  0  0  0  0  0  0
    2.7016    3.7189   12.7875 C   0  0  0  0  0  0  0  0  0  0  0  0
    3.6601    4.1024   13.8627 C   0  0  0  0  0  0  0  0  0  0  0  0
    3.6469    3.1205   14.9932 C   0  0  0  0  0  0  0  0  0  0  0  0
    4.3346    3.3152   16.1517 C   0  0  0  0  0  0  0  0  0  0  0  0
    4.2408    2.3318   17.1293 C   0  0  0  0  0  0  0  0  0  0  0  0
    3.4831    1.1902   16.9525 C   0  0  0  0  0  0  0  0  0  0  0  0
    2.7936    1.0066   15.7768 C   0  0  0  0  0  0  0  0  0  0  0  0
    2.8908    1.9840   14.8136 C   0  0  0  0  0  0  0  0  0  0  0  0
 23 24  1  0  0  0
 24 25  1  0  0  0
 25 26  2  0  0  0
 25  1  1  0  0  0
  1  2  1  0  0  0
  2  3  1  0  0  0
  3  4  1  0  0  0
  4  5  2  0  0  0
  4  6  1  0  0  0
  6  7  1  0  0  0
  7  8  1  0  0  0
  8  9  1  0  0  0
  9 10  1  0  0  0
 10 11  2  0  0  0
 10 12  1  0  0  0
 12 13  1  0  0  0
 13 14  1  0  0  0
 14 28  1  0  0  0
 28 29  2  0  0  0
 28 30  1  0  0  0
 14 15  1  0  0  0
 15 16  1  0  0  0
 16 32  1  0  0  0
 32 33  1  0  0  0
 33 34  1  0  0  0
 34 35  2  0  0  0
 35 36  1  0  0  0
 36 37  2  0  0  0
 37 38  1  0  0  0
 38 39  2  0  0  0
 16 17  1  0  0  0
 17 18  2  0  0  0
 17 19  1  0  0  0
 19  1  1  0  0  0
 39 34  1  0  0  0
 24 27  1  0  0  0
  9 20  1  0  0  0
 30 31  1  0  0  0
 15 21  1  0  0  0
 19 22  1  0  0  0
M  END
> <minimizedAffinity>
-6.24109

> <CNNscore>
0.2972114980

> <CNNaffinity>
5.0267314911

> <CNN_VS>
1.4940023422

> <CNNaffinity_variance>
0.8920515180

$$$$
[H]OC(=O)[C@]1([H])N([H])[C@@]([H])(C([H])([H])C([H])([H])c2c([H])c([H])c([H])c([H])c2[H])C(=O)N([H])[C@]([H])(C(=O)N([H])C([H])([H])[H])C([H])([H])C([H])([H])C(=O)OC([H])([H])C([H])([H])N([H])C(=O)C([H])([H])C1([H])[H]


 39 40  0  0  0  0  0  0  0  0999 V2000
    3.2689    6.1710    9.9699 C   0  0  0  0  0  0  0  0  0  0  0  0
    3.3354    6.9050   11.2686 C   0  0  0  0  0  0  0  0  0  0  0  0
    3.9275    8.2705   11.2504 C   0  0  0  0  0  0  0  0  0  0  0  0
    4.8100    8.4647   12.4589 C   0  0  0  0  0  0  0  0  0  0  0  0
    6.0607    8.2733   12.2759 O   0  0  0  0  0  0  0  0  0  0  0  0
    4.3498    8.8223   13.6928 O   0  0  0  0  0  0  0  0  0  0  0  0
    3.3327    8.2700   14.4524 C   0  0  0  0  0  0  0  0  0  0  0  0
    3.8001    7.2102   15.4503 C   0  0  0  0  0  0  0  0  0  0  0  0
    2.6601    6.4271   15.8402 N   0  0  0  0  0  0  0  0  0  0  0  0
    2.6625    5.0826   16.2735 C   0  0  0  0  0  0  0  0  0  0  0  0
    1.9978    4.7340   17.3102 O   0  0  0  0  0  0  0  0  0  0  0  0
    3.4083    3.9779   15.5961 C   0  0  0  0  0  0  0  0  0  0  0  0
    3.3501    4.0945   14.1080 C   0  0  0  0  0  0  0  0  0  0  0  0
    2.1817    3.3947   13.4467 C   0  0  0  0  0  0  0  0  0  0  0  0
    2.3106    3.5604   12.0282 N   0  0  0  0  0  0  0  0  0  0  0  0
    3.4047    3.0255   11.3451 C   0  0  0  0  0  0  0  0  0  0  0  0
    4.3862    3.9918   10.7784 C   0  0  0  0  0  0  0  0  0  0  0  0
    5.5946    3.8112   11.1653 O   0  0  0  0  0  0  0  0  0  0  0  0
    4.1863    5.0432    9.9019 N   0  0  0  0  0  0  0  0  0  0  0  0
    1.7105    6.9010   15.8054 H   0  0  0  0  0  0  0  0  0  0  0  0
    1.3892    3.5764   11.5973 H   0  0  0  0  0  0  0  0  0  0  0  0
    4.7937    5.0589    9.0149 H   0  0  0  0  0  0  0  0  0  0  0  0
    2.4165    8.7556    7.2650 C   0  0  0  0  0  0  0  0  0  0  0  0
    2.3140    7.8563    8.3861 N   0  0  0  0  0  0  0  0  0  0  0  0
    3.3994    7.0827    8.8210 C   0  0  0  0  0  0  0  0  0  0  0  0
    4.4856    7.1699    8.2258 O   0  0  0  0  0  0  0  0  0  0  0  0
    1.4043    7.7798    8.8870 H   0  0  0  0  0  0  0  0  0  0  0  0
    1.9838    2.0302   13.9301 C   0  0  0  0  0  0  0  0  0  0  0  0
    2.7977    1.3390   14.5844 O   0  0  0  0  0  0  0  0  0  0  0  0
    0.7492    1.4275   13.6257 O   0  0  0  0  0  0  0  0  0  0  0  0
    0.7529    0.8301   12.8098 H   0  0  0  0  0  0  0  0  0  0  0  0
    3.0150    2.0077   10.2667 C   0  0  0  0  0  0  0  0  0  0  0  0
    1.5495    1.7353   10.2709 C   0  0  0  0  0  0  0  0  0  0  0  0
    1.2428    0.3451    9.8067 C   0  0  0  0  0  0  0  0  0  0  0  0
   -0.0055   -0.1953    9.8598 C   0  0  0  0  0  0  0  0  0  0  0  0
   -0.1646   -1.4956    9.3959 C   0  0  0  0  0  0  0  0  0  0  0  0
    0.8921   -2.2313    8.8951 C   0  0  0  0  0  0  0  0  0  0  0  0
    2.1480   -1.6726    8.8475 C   0  0  0  0  0  0  0  0  0  0  0  0
    2.2982   -0.3851    9.3083 C   0  0  0  0  0  0  0  0  0  0  0  0
 23 24  1  0  0  0
 24 25  1  0  0  0
 25 26  2  0  0  0
 25  1  1  0  0  0
  1  2  1  0  0  0
  2  3  1  0  0  0
  3  4  1  0  0  0
  4  5  2  0  0  0
  4  6  1  0  0  0
  6  7  1  0  0  0
  7  8  1  0  0  0
  8  9  1  0  0  0
  9 10  1  0  0  0
 10 11  2  0  0  0
 10 12  1  0  0  0
 12 13  1  0  0  0
 13 14  1  0  0  0
 14 28  1  0  0  0
 28 29  2  0  0  0
 28 30  1  0  0  0
 14 15  1  0  0  0
 15 16  1  0  0  0
 16 32  1  0  0  0
 32 33  1  0  0  0
 33 34  1  0  0  0
 34 35  2  0  0  0
 35 36  1  0  0  0
 36 37  2  0  0  0
 37 38  1  0  0  0
 38 39  2  0  0  0
 16 17  1  0  0  0
 17 18  2  0  0  0
 17 19  1  0  0  0
 19  1  1  0  0  0
 39 34  1  0  0  0
 24 27  1  0  0  0
  9 20  1  0  0  0
 30 31  1  0  0  0
 15 21  1  0  0  0
 19 22  1  0  0  0
M  END
> <minimizedAffinity>
-6.07663

> <CNNscore>
0.2909896076

> <CNNaffinity>
5.0584397316

> <CNN_VS>
1.4719533920

> <CNNaffinity_variance>
0.8588488698

$$$$
[H]c1nc2n(n1)C([H])(c1sc([H])c([H])c1[H])C([H])([H])C([H])(c1c([H])c([H])c(Cl)c(Cl)c1[H])N2[H]


 23 26  0  0  0  0  0  0  0  0999 V2000
    2.7380    2.2897   16.0422 C   0  0  0  0  0  0  0  0  0  0  0  0
    4.0073    2.7049   15.3830 C   0  0  0  0  0  0  0  0  0  0  0  0
    3.7714    3.5321   14.1731 C   0  0  0  0  0  0  0  0  0  0  0  0
    2.6408    3.1450   13.3904 N   0  0  0  0  0  0  0  0  0  0  0  0
    2.2300    3.5689   12.2129 N   0  0  0  0  0  0  0  0  0  0  0  0
    1.1136    2.9310   11.8397 C   0  0  0  0  0  0  0  0  0  0  0  0
    0.8409    2.0810   12.8449 N   0  0  0  0  0  0  0  0  0  0  0  0
    1.7617    2.1886   13.8140 C   0  0  0  0  0  0  0  0  0  0  0  0
    1.9590    1.5498   15.0689 N   0  0  0  0  0  0  0  0  0  0  0  0
    1.5419    0.6148   15.2059 H   0  0  0  0  0  0  0  0  0  0  0  0
    3.6433   -0.6812   21.1708 Cl  0  0  0  0  0  0  0  0  0  0  0  0
    3.3671    0.1717   19.6709 C   0  0  0  0  0  0  0  0  0  0  0  0
    2.4755   -0.3334   18.7537 C   0  0  0  0  0  0  0  0  0  0  0  0
    2.2742    0.3716   17.5602 C   0  0  0  0  0  0  0  0  0  0  0  0
    2.9369    1.5371   17.2902 C   0  0  0  0  0  0  0  0  0  0  0  0
    3.8248    2.0236   18.2237 C   0  0  0  0  0  0  0  0  0  0  0  0
    4.0504    1.3440   19.4283 C   0  0  0  0  0  0  0  0  0  0  0  0
    5.1759    1.9500   20.6240 Cl  0  0  0  0  0  0  0  0  0  0  0  0
    3.6526    5.0027   14.4960 C   0  0  0  0  0  0  0  0  0  0  0  0
    3.6393    5.5841   15.7317 C   0  0  0  0  0  0  0  0  0  0  0  0
    3.5227    6.9156   15.7899 C   0  0  0  0  0  0  0  0  0  0  0  0
    3.4258    7.5895   14.5996 C   0  0  0  0  0  0  0  0  0  0  0  0
    3.5013    6.3381   13.4448 S   0  0  0  0  0  0  0  0  0  0  0  0
 11 12  1  0  0  0
 12 13  2  0  0  0
 13 14  1  0  0  0
 14 15  2  0  0  0
 15  1  1  0  0  0
  1  2  1  0  0  0
  2  3  1  0  0  0
  3 19  1  0  0  0
 19 20  2  0  0  0
 20 21  1  0  0  0
 21 22  2  0  0  0
 22 23  1  0  0  0
  3  4  1  0  0  0
  4  5  1  0  0  0
  5  6  2  0  0  0
  6  7  1  0  0  0
  7  8  2  0  0  0
  8  9  1  0  0  0
 15 16  1  0  0  0
 16 17  2  0  0  0
 17 18  1  0  0  0
 17 12  1  0  0  0
  9  1  1  0  0  0
 23 19  1  0  0  0
  8  4  1  0  0  0
  9 10  1  0  0  0
M  END
> <minimizedAffinity>
-6.75116

> <CNNscore>
0.4566801786

> <CNNaffinity>
6.1545023918

> <CNN_VS>
2.8106391430

> <CNNaffinity_variance>
0.3999998271

$$$$
[H]c1nc2n(n1)C([H])(c1sc([H])c([H])c1[H])C([H])([H])C([H])(c1c([H])c([H])c(Cl)c(Cl)c1[H])N2[H]


 23 26  0  0  0  0  0  0  0  0999 V2000
    4.1797    2.9190   18.4837 C   0  0  0  0  0  0  0  0  0  0  0  0
    5.3102    3.3794   17.6306 C   0  0  0  0  0  0  0  0  0  0  0  0
    4.8811    3.6927   16.2444 C   0  0  0  0  0  0  0  0  0  0  0  0
    3.8793    2.8236   15.7135 N   0  0  0  0  0  0  0  0  0  0  0  0
    3.3787    2.7369   14.4983 N   0  0  0  0  0  0  0  0  0  0  0  0
    2.4514    1.7733   14.4325 C   0  0  0  0  0  0  0  0  0  0  0  0
    2.3930    1.2556   15.6718 N   0  0  0  0  0  0  0  0  0  0  0  0
    3.2592    1.8802   16.4832 C   0  0  0  0  0  0  0  0  0  0  0  0
    3.6049    1.7455   17.8558 N   0  0  0  0  0  0  0  0  0  0  0  0
    3.4279    0.8355   18.3115 H   0  0  0  0  0  0  0  0  0  0  0  0
    5.6485    2.0595   24.2327 Cl  0  0  0  0  0  0  0  0  0  0  0  0
    5.2284    2.2938   22.5528 C   0  0  0  0  0  0  0  0  0  0  0  0
    5.5900    1.3485   21.6215 C   0  0  0  0  0  0  0  0  0  0  0  0
    5.2398    1.5628   20.2823 C   0  0  0  0  0  0  0  0  0  0  0  0
    4.5547    2.6779   19.8853 C   0  0  0  0  0  0  0  0  0  0  0  0
    4.2034    3.6105   20.8356 C   0  0  0  0  0  0  0  0  0  0  0  0
    4.5375    3.4281   22.1843 C   0  0  0  0  0  0  0  0  0  0  0  0
    4.0978    4.6048   23.4033 Cl  0  0  0  0  0  0  0  0  0  0  0  0
    4.4076    5.1193   16.0975 C   0  0  0  0  0  0  0  0  0  0  0  0
    4.6048    6.1544   16.9663 C   0  0  0  0  0  0  0  0  0  0  0  0
    4.0932    7.3462   16.6381 C   0  0  0  0  0  0  0  0  0  0  0  0
    3.4104    7.4307   15.4520 C   0  0  0  0  0  0  0  0  0  0  0  0
    3.5090    5.8429   14.8404 S   0  0  0  0  0  0  0  0  0  0  0  0
 11 12  1  0  0  0
 12 13  2  0  0  0
 13 14  1  0  0  0
 14 15  2  0  0  0
 15  1  1  0  0  0
  1  2  1  0  0  0
  2  3  1  0  0  0
  3 19  1  0  0  0
 19 20  2  0  0  0
 20 21  1  0  0  0
 21 22  2  0  0  0
 22 23  1  0  0  0
  3  4  1  0  0  0
  4  5  1  0  0  0
  5  6  2  0  0  0
  6  7  1  0  0  0
  7  8  2  0  0  0
  8  9  1  0  0  0
 15 16  1  0  0  0
 16 17  2  0  0  0
 17 18  1  0  0  0
 17 12  1  0  0  0
  9  1  1  0  0  0
 23 19  1  0  0  0
  8  4  1  0  0  0
  9 10  1  0  0  0
M  END
> <minimizedAffinity>
-7.37025

> <CNNscore>
0.4525626302

> <CNNaffinity>
6.0900564194

> <CNN_VS>
2.7561318874

> <CNNaffinity_variance>
0.7541843057

$$$$
[H]c1nc2n(n1)C([H])(c1sc([H])c([H])c1[H])C([H])([H])C([H])(c1c([H])c([H])c(Cl)c(Cl)c1[H])N2[H]


 23 26  0  0  0  0  0  0  0  0999 V2000
    6.1257    6.2179   22.0250 C   0  0  0  0  0  0  0  0  0  0  0  0
    5.2288    7.3695   21.7297 C   0  0  0  0  0  0  0  0  0  0  0  0
    5.9834    8.6210   21.4684 C   0  0  0  0  0  0  0  0  0  0  0  0
    7.1509    8.7988   22.2721 N   0  0  0  0  0  0  0  0  0  0  0  0
    7.9588    9.8324   22.3903 N   0  0  0  0  0  0  0  0  0  0  0  0
    8.9392    9.5734   23.2646 C   0  0  0  0  0  0  0  0  0  0  0  0
    8.7074    8.3202   23.6925 N   0  0  0  0  0  0  0  0  0  0  0  0
    7.6145    7.8162   23.1008 C   0  0  0  0  0  0  0  0  0  0  0  0
    6.9305    6.5721   23.1776 N   0  0  0  0  0  0  0  0  0  0  0  0
    7.0480    6.0084   24.0352 H   0  0  0  0  0  0  0  0  0  0  0  0
    3.3284    0.9585   22.7049 Cl  0  0  0  0  0  0  0  0  0  0  0  0
    4.1296    2.4999   22.5157 C   0  0  0  0  0  0  0  0  0  0  0  0
    3.5374    3.6406   23.0049 C   0  0  0  0  0  0  0  0  0  0  0  0
    4.2028    4.8620   22.8388 C   0  0  0  0  0  0  0  0  0  0  0  0
    5.4137    4.9440   22.2084 C   0  0  0  0  0  0  0  0  0  0  0  0
    5.9873    3.7884   21.7270 C   0  0  0  0  0  0  0  0  0  0  0  0
    5.3495    2.5495   21.8758 C   0  0  0  0  0  0  0  0  0  0  0  0
    6.0663    1.0724   21.2689 Cl  0  0  0  0  0  0  0  0  0  0  0  0
    6.3721    8.7657   20.0161 C   0  0  0  0  0  0  0  0  0  0  0  0
    7.3611    8.1000   19.3500 C   0  0  0  0  0  0  0  0  0  0  0  0
    7.5377    8.3851   18.0548 C   0  0  0  0  0  0  0  0  0  0  0  0
    6.7080    9.3258   17.5008 C   0  0  0  0  0  0  0  0  0  0  0  0
    5.7132    9.7761   18.8094 S   0  0  0  0  0  0  0  0  0  0  0  0
 11 12  1  0  0  0
 12 13  2  0  0  0
 13 14  1  0  0  0
 14 15  2  0  0  0
 15  1  1  0  0  0
  1  2  1  0  0  0
  2  3  1  0  0  0
  3 19  1  0  0  0
 19 20  2  0  0  0
 20 21  1  0  0  0
 21 22  2  0  0  0
 22 23  1  0  0  0
  3  4  1  0  0  0
  4  5  1  0  0  0
  5  6  2  0  0  0
  6  7  1  0  0  0
  7  8  2  0  0  0
  8  9  1  0  0  0
 15 16  1  0  0  0
 16 17  2  0  0  0
 17 18  1  0  0  0
 17 12  1  0  0  0
  9  1  1  0  0  0
 23 19  1  0  0  0
  8  4  1  0  0  0
  9 10  1  0  0  0
M  END
> <minimizedAffinity>
-7.31776

> <CNNscore>
0.4092690647

> <CNNaffinity>
5.7340927124

> <CNN_VS>
2.3467867374

> <CNNaffinity_variance>
0.1420761049

$$$$
[H]c1nc2n(n1)C([H])(c1sc([H])c([H])c1[H])C([H])([H])C([H])(c1c([H])c([H])c(Cl)c(Cl)c1[H])N2[H]


 23 26  0  0  0  0  0  0  0  0999 V2000
    4.9919    6.1552   20.8974 C   0  0  0  0  0  0  0  0  0  0  0  0
    6.2692    6.1272   20.1322 C   0  0  0  0  0  0  0  0  0  0  0  0
    6.6476    7.4663   19.6150 C   0  0  0  0  0  0  0  0  0  0  0  0
    5.5539    8.2711   19.1711 N   0  0  0  0  0  0  0  0  0  0  0  0
    5.5434    9.4316   18.5481 N   0  0  0  0  0  0  0  0  0  0  0  0
    4.2885    9.8359   18.3149 C   0  0  0  0  0  0  0  0  0  0  0  0
    3.5064    8.8683   18.8242 N   0  0  0  0  0  0  0  0  0  0  0  0
    4.2547    7.8917   19.3581 C   0  0  0  0  0  0  0  0  0  0  0  0
    3.9615    6.6647   20.0140 N   0  0  0  0  0  0  0  0  0  0  0  0
    3.0484    6.2210   19.8231 H   0  0  0  0  0  0  0  0  0  0  0  0
    3.5516    0.8124   23.2058 Cl  0  0  0  0  0  0  0  0  0  0  0  0
    3.9664    2.3777   22.5490 C   0  0  0  0  0  0  0  0  0  0  0  0
    3.7969    3.5059   23.3171 C   0  0  0  0  0  0  0  0  0  0  0  0
    4.1379    4.7470   22.7645 C   0  0  0  0  0  0  0  0  0  0  0  0
    4.6295    4.8602   21.4933 C   0  0  0  0  0  0  0  0  0  0  0  0
    4.7906    3.7167   20.7432 C   0  0  0  0  0  0  0  0  0  0  0  0
    4.4597    2.4587   21.2645 C   0  0  0  0  0  0  0  0  0  0  0  0
    4.6589    0.9966   20.3229 Cl  0  0  0  0  0  0  0  0  0  0  0  0
    7.4560    8.2610   20.6129 C   0  0  0  0  0  0  0  0  0  0  0  0
    8.8155    8.3716   20.6817 C   0  0  0  0  0  0  0  0  0  0  0  0
    9.3278    9.1328   21.6554 C   0  0  0  0  0  0  0  0  0  0  0  0
    8.4423    9.7415   22.5073 C   0  0  0  0  0  0  0  0  0  0  0  0
    6.9285    9.2278   21.9161 S   0  0  0  0  0  0  0  0  0  0  0  0
 11 12  1  0  0  0
 12 13  2  0  0  0
 13 14  1  0  0  0
 14 15  2  0  0  0
 15  1  1  0  0  0
  1  2  1  0  0  0
  2  3  1  0  0  0
  3 19  1  0  0  0
 19 20  2  0  0  0
 20 21  1  0  0  0
 21 22  2  0  0  0
 22 23  1  0  0  0
  3  4  1  0  0  0
  4  5  1  0  0  0
  5  6  2  0  0  0
  6  7  1  0  0  0
  7  8  2  0  0  0
  8  9  1  0  0  0
 15 16  1  0  0  0
 16 17  2  0  0  0
 17 18  1  0  0  0
 17 12  1  0  0  0
  9  1  1  0  0  0
 23 19  1  0  0  0
  8  4  1  0  0  0
  9 10  1  0  0  0
M  END
> <minimizedAffinity>
-7.52816

> <CNNscore>
0.3082990944

> <CNNaffinity>
5.6370215416

> <CNN_VS>
1.7378886938

> <CNNaffinity_variance>
0.2096668482

$$$$
[H]c1nc2n(n1)C([H])(c1sc([H])c([H])c1[H])C([H])([H])C([H])(c1c([H])c([H])c(Cl)c(Cl)c1[H])N2[H]


 23 26  0  0  0  0  0  0  0  0999 V2000
    3.5366    3.5373   14.0922 C   0  0  0  0  0  0  0  0  0  0  0  0
    2.0910    3.6480   13.7516 C   0  0  0  0  0  0  0  0  0  0  0  0
    1.8725    4.1100   12.3578 C   0  0  0  0  0  0  0  0  0  0  0  0
    2.8034    5.0901   11.8958 N   0  0  0  0  0  0  0  0  0  0  0  0
    2.8215    5.7953   10.7835 N   0  0  0  0  0  0  0  0  0  0  0  0
    3.8844    6.6090   10.7523 C   0  0  0  0  0  0  0  0  0  0  0  0
    4.5372    6.3798   11.9049 N   0  0  0  0  0  0  0  0  0  0  0  0
    3.8977    5.4507   12.6304 C   0  0  0  0  0  0  0  0  0  0  0  0
    4.1361    4.8421   13.8932 N   0  0  0  0  0  0  0  0  0  0  0  0
    4.7116    5.3592   14.5776 H   0  0  0  0  0  0  0  0  0  0  0  0
    4.4836    1.2519   19.5538 Cl  0  0  0  0  0  0  0  0  0  0  0  0
    4.2183    1.9326   17.9663 C   0  0  0  0  0  0  0  0  0  0  0  0
    4.7967    3.1356   17.6352 C   0  0  0  0  0  0  0  0  0  0  0  0
    4.5666    3.6570   16.3556 C   0  0  0  0  0  0  0  0  0  0  0  0
    3.7889    3.0040   15.4396 C   0  0  0  0  0  0  0  0  0  0  0  0
    3.2204    1.8009   15.7938 C   0  0  0  0  0  0  0  0  0  0  0  0
    3.4295    1.2500   17.0653 C   0  0  0  0  0  0  0  0  0  0  0  0
    2.7133   -0.2781   17.5298 Cl  0  0  0  0  0  0  0  0  0  0  0  0
    1.8469    2.9674   11.3705 C   0  0  0  0  0  0  0  0  0  0  0  0
    2.8130    2.0241   11.1653 C   0  0  0  0  0  0  0  0  0  0  0  0
    2.5842    1.0944   10.2309 C   0  0  0  0  0  0  0  0  0  0  0  0
    1.3940    1.1654    9.5535 C   0  0  0  0  0  0  0  0  0  0  0  0
    0.6401    2.5275   10.2474 S   0  0  0  0  0  0  0  0  0  0  0  0
 11 12  1  0  0  0
 12 13  2  0  0  0
 13 14  1  0  0  0
 14 15  2  0  0  0
 15  1  1  0  0  0
  1  2  1  0  0  0
  2  3  1  0  0  0
  3 19  1  0  0  0
 19 20  2  0  0  0
 20 21  1  0  0  0
 21 22  2  0  0  0
 22 23  1  0  0  0
  3  4  1  0  0  0
  4  5  1  0  0  0
  5  6  2  0  0  0
  6  7  1  0  0  0
  7  8  2  0  0  0
  8  9  1  0  0  0
 15 16  1  0  0  0
 16 17  2  0  0  0
 17 18  1  0  0  0
 17 12  1  0  0  0
  9  1  1  0  0  0
 23 19  1  0  0  0
  8  4  1  0  0  0
  9 10  1  0  0  0
M  END
> <minimizedAffinity>
-6.55651

> <CNNscore>
0.2380974442

> <CNNaffinity>
5.5547661781

> <CNN_VS>
1.3225756884

> <CNNaffinity_variance>
0.1784575135

$$$$
[H]c1nc2n(n1)C([H])(c1sc([H])c([H])c1[H])C([H])([H])C([H])(c1c([H])c([H])c(Cl)c(Cl)c1[H])N2[H]


 23 26  0  0  0  0  0  0  0  0999 V2000
    2.6764    3.0588   14.1321 C   0  0  0  0  0  0  0  0  0  0  0  0
    1.9744    1.9574   13.4167 C   0  0  0  0  0  0  0  0  0  0  0  0
    1.5193    2.3625   12.0630 C   0  0  0  0  0  0  0  0  0  0  0  0
    1.0481    3.7075   11.9640 N   0  0  0  0  0  0  0  0  0  0  0  0
    0.4626    4.3374   10.9664 N   0  0  0  0  0  0  0  0  0  0  0  0
    0.1810    5.6028   11.3015 C   0  0  0  0  0  0  0  0  0  0  0  0
    0.6202    5.7386   12.5648 N   0  0  0  0  0  0  0  0  0  0  0  0
    1.1588    4.5904   13.0009 C   0  0  0  0  0  0  0  0  0  0  0  0
    1.7601    4.1786   14.2219 N   0  0  0  0  0  0  0  0  0  0  0  0
    1.5106    4.6945   15.0813 H   0  0  0  0  0  0  0  0  0  0  0  0
    4.7757    1.3456   19.4806 Cl  0  0  0  0  0  0  0  0  0  0  0  0
    4.1751    1.8598   17.9222 C   0  0  0  0  0  0  0  0  0  0  0  0
    4.6580    3.0148   17.3529 C   0  0  0  0  0  0  0  0  0  0  0  0
    4.1584    3.4024   16.1030 C   0  0  0  0  0  0  0  0  0  0  0  0
    3.2123    2.6663   15.4445 C   0  0  0  0  0  0  0  0  0  0  0  0
    2.7439    1.5135   16.0342 C   0  0  0  0  0  0  0  0  0  0  0  0
    3.2217    1.0961   17.2837 C   0  0  0  0  0  0  0  0  0  0  0  0
    2.6356   -0.3667   18.0457 Cl  0  0  0  0  0  0  0  0  0  0  0  0
    2.5805    2.1456   11.0105 C   0  0  0  0  0  0  0  0  0  0  0  0
    2.8036    1.0168   10.2750 C   0  0  0  0  0  0  0  0  0  0  0  0
    3.8073    1.0403    9.3908 C   0  0  0  0  0  0  0  0  0  0  0  0
    4.5322    2.2003    9.2954 C   0  0  0  0  0  0  0  0  0  0  0  0
    3.7845    3.2137   10.4440 S   0  0  0  0  0  0  0  0  0  0  0  0
 11 12  1  0  0  0
 12 13  2  0  0  0
 13 14  1  0  0  0
 14 15  2  0  0  0
 15  1  1  0  0  0
  1  2  1  0  0  0
  2  3  1  0  0  0
  3 19  1  0  0  0
 19 20  2  0  0  0
 20 21  1  0  0  0
 21 22  2  0  0  0
 22 23  1  0  0  0
  3  4  1  0  0  0
  4  5  1  0  0  0
  5  6  2  0  0  0
  6  7  1  0  0  0
  7  8  2  0  0  0
  8  9  1  0  0  0
 15 16  1  0  0  0
 16 17  2  0  0  0
 17 18  1  0  0  0
 17 12  1  0  0  0
  9  1  1  0  0  0
 23 19  1  0  0  0
  8  4  1  0  0  0
  9 10  1  0  0  0
M  END
> <minimizedAffinity>
-6.50724

> <CNNscore>
0.2369311005

> <CNNaffinity>
5.6840577126

> <CNN_VS>
1.3467299938

> <CNNaffinity_variance>
0.1475298256

$$$$
[H]c1nc2n(n1)C([H])(c1sc([H])c([H])c1[H])C([H])([H])C([H])(c1c([H])c([H])c(Cl)c(Cl)c1[H])N2[H]


 23 26  0  0  0  0  0  0  0  0999 V2000
    2.2908    3.1378   12.7525 C   0  0  0  0  0  0  0  0  0  0  0  0
    2.3832    1.9635   11.8412 C   0  0  0  0  0  0  0  0  0  0  0  0
    1.8820    2.2659   10.4770 C   0  0  0  0  0  0  0  0  0  0  0  0
    0.7466    3.1316   10.4312 N   0  0  0  0  0  0  0  0  0  0  0  0
   -0.0148    3.4909    9.4182 N   0  0  0  0  0  0  0  0  0  0  0  0
   -0.9818    4.3248    9.8211 C   0  0  0  0  0  0  0  0  0  0  0  0
   -0.7902    4.4733   11.1434 N   0  0  0  0  0  0  0  0  0  0  0  0
    0.2651    3.7522   11.5492 C   0  0  0  0  0  0  0  0  0  0  0  0
    0.9005    3.5453   12.8043 N   0  0  0  0  0  0  0  0  0  0  0  0
    0.3411    3.6959   13.6596 H   0  0  0  0  0  0  0  0  0  0  0  0
    4.5192    2.0307   18.2075 Cl  0  0  0  0  0  0  0  0  0  0  0  0
    3.8789    2.3696   16.6172 C   0  0  0  0  0  0  0  0  0  0  0  0
    4.2170    3.5415   15.9818 C   0  0  0  0  0  0  0  0  0  0  0  0
    3.6889    3.7863   14.7077 C   0  0  0  0  0  0  0  0  0  0  0  0
    2.8545    2.8964   14.0894 C   0  0  0  0  0  0  0  0  0  0  0  0
    2.5302    1.7297   14.7451 C   0  0  0  0  0  0  0  0  0  0  0  0
    3.0405    1.4525   16.0205 C   0  0  0  0  0  0  0  0  0  0  0  0
    2.6371   -0.0260   16.8662 Cl  0  0  0  0  0  0  0  0  0  0  0  0
    2.9574    2.8347    9.5821 C   0  0  0  0  0  0  0  0  0  0  0  0
    3.7360    2.1599    8.6857 C   0  0  0  0  0  0  0  0  0  0  0  0
    4.6364    2.8650    7.9914 C   0  0  0  0  0  0  0  0  0  0  0  0
    4.7036    4.2122    8.2379 C   0  0  0  0  0  0  0  0  0  0  0  0
    3.5070    4.4428    9.4296 S   0  0  0  0  0  0  0  0  0  0  0  0
 11 12  1  0  0  0
 12 13  2  0  0  0
 13 14  1  0  0  0
 14 15  2  0  0  0
 15  1  1  0  0  0
  1  2  1  0  0  0
  2  3  1  0  0  0
  3 19  1  0  0  0
 19 20  2  0  0  0
 20 21  1  0  0  0
 21 22  2  0  0  0
 22 23  1  0  0  0
  3  4  1  0  0  0
  4  5  1  0  0  0
  5  6  2  0  0  0
  6  7  1  0  0  0
  7  8  2  0  0  0
  8  9  1  0  0  0
 15 16  1  0  0  0
 16 17  2  0  0  0
 17 18  1  0  0  0
 17 12  1  0  0  0
  9  1  1  0  0  0
 23 19  1  0  0  0
  8  4  1  0  0  0
  9 10  1  0  0  0
M  END
> <minimizedAffinity>
-5.75489

> <CNNscore>
0.2220153660

> <CNNaffinity>
5.5084366798

> <CNN_VS>
1.2229576111

> <CNNaffinity_variance>
0.2827864587

$$$$
[H]c1nc2n(n1)C([H])(c1sc([H])c([H])c1[H])C([H])([H])C([H])(c1c([H])c([H])c(Cl)c(Cl)c1[H])N2[H]


 23 26  0  0  0  0  0  0  0  0999 V2000
    2.9165    3.0607   14.8423 C   0  0  0  0  0  0  0  0  0  0  0  0
    3.9093    3.8808   14.0942 C   0  0  0  0  0  0  0  0  0  0  0  0
    3.3594    4.4124   12.8219 C   0  0  0  0  0  0  0  0  0  0  0  0
    2.4825    3.5238   12.1275 N   0  0  0  0  0  0  0  0  0  0  0  0
    1.9358    3.6215   10.9331 N   0  0  0  0  0  0  0  0  0  0  0  0
    1.1733    2.5530   10.6691 C   0  0  0  0  0  0  0  0  0  0  0  0
    1.2676    1.7747   11.7612 N   0  0  0  0  0  0  0  0  0  0  0  0
    2.0657    2.3440   12.6764 C   0  0  0  0  0  0  0  0  0  0  0  0
    2.5041    1.9730   13.9772 N   0  0  0  0  0  0  0  0  0  0  0  0
    2.5011    0.9689   14.2198 H   0  0  0  0  0  0  0  0  0  0  0  0
    4.8006    1.0229   20.1570 Cl  0  0  0  0  0  0  0  0  0  0  0  0
    4.2643    1.6303   18.6087 C   0  0  0  0  0  0  0  0  0  0  0  0
    4.8730    2.7359   18.0623 C   0  0  0  0  0  0  0  0  0  0  0  0
    4.4223    3.2004   16.8200 C   0  0  0  0  0  0  0  0  0  0  0  0
    3.4025    2.5861   16.1469 C   0  0  0  0  0  0  0  0  0  0  0  0
    2.8083    1.4807   16.7138 C   0  0  0  0  0  0  0  0  0  0  0  0
    3.2340    0.9890   17.9551 C   0  0  0  0  0  0  0  0  0  0  0  0
    2.4883   -0.4148   18.6880 Cl  0  0  0  0  0  0  0  0  0  0  0  0
    2.6553    5.7355   13.0080 C   0  0  0  0  0  0  0  0  0  0  0  0
    1.4242    5.9520   13.5581 C   0  0  0  0  0  0  0  0  0  0  0  0
    0.9873    7.2148   13.6242 C   0  0  0  0  0  0  0  0  0  0  0  0
    1.8146    8.1914   13.1323 C   0  0  0  0  0  0  0  0  0  0  0  0
    3.1709    7.3090   12.5964 S   0  0  0  0  0  0  0  0  0  0  0  0
 11 12  1  0  0  0
 12 13  2  0  0  0
 13 14  1  0  0  0
 14 15  2  0  0  0
 15  1  1  0  0  0
  1  2  1  0  0  0
  2  3  1  0  0  0
  3 19  1  0  0  0
 19 20  2  0  0  0
 20 21  1  0  0  0
 21 22  2  0  0  0
 22 23  1  0  0  0
  3  4  1  0  0  0
  4  5  1  0  0  0
  5  6  2  0  0  0
  6  7  1  0  0  0
  7  8  2  0  0  0
  8  9  1  0  0  0
 15 16  1  0  0  0
 16 17  2  0  0  0
 17 18  1  0  0  0
 17 12  1  0  0  0
  9  1  1  0  0  0
 23 19  1  0  0  0
  8  4  1  0  0  0
  9 10  1  0  0  0
M  END
> <minimizedAffinity>
-6.70097

> <CNNscore>
0.2184692025

> <CNNaffinity>
5.6468849182

> <CNN_VS>
1.2336704731

> <CNNaffinity_variance>
0.2576449811

$$$$
[H]c1nc2n(n1)C([H])(c1sc([H])c([H])c1[H])C([H])([H])C([H])(c1c([H])c([H])c(Cl)c(Cl)c1[H])N2[H]


 23 26  0  0  0  0  0  0  0  0999 V2000
    3.8139    4.1806   14.3774 C   0  0  0  0  0  0  0  0  0  0  0  0
    2.8169    4.3295   13.2812 C   0  0  0  0  0  0  0  0  0  0  0  0
    3.1522    5.4443   12.3599 C   0  0  0  0  0  0  0  0  0  0  0  0
    3.7154    6.5964   12.9892 N   0  0  0  0  0  0  0  0  0  0  0  0
    3.9995    7.7856   12.4994 N   0  0  0  0  0  0  0  0  0  0  0  0
    4.5186    8.5789   13.4450 C   0  0  0  0  0  0  0  0  0  0  0  0
    4.5472    7.8268   14.5588 N   0  0  0  0  0  0  0  0  0  0  0  0
    4.0599    6.6021   14.3114 C   0  0  0  0  0  0  0  0  0  0  0  0
    3.8624    5.4360   15.1008 N   0  0  0  0  0  0  0  0  0  0  0  0
    3.7676    5.5546   16.1225 H   0  0  0  0  0  0  0  0  0  0  0  0
    2.8408   -0.4328   18.0812 Cl  0  0  0  0  0  0  0  0  0  0  0  0
    3.1141    0.9034   16.9887 C   0  0  0  0  0  0  0  0  0  0  0  0
    2.5614    0.8783   15.7295 C   0  0  0  0  0  0  0  0  0  0  0  0
    2.7972    1.9632   14.8754 C   0  0  0  0  0  0  0  0  0  0  0  0
    3.5558    3.0337   15.2615 C   0  0  0  0  0  0  0  0  0  0  0  0
    4.0988    3.0365   16.5269 C   0  0  0  0  0  0  0  0  0  0  0  0
    3.8831    1.9678   17.4074 C   0  0  0  0  0  0  0  0  0  0  0  0
    4.5669    1.9574   19.0188 Cl  0  0  0  0  0  0  0  0  0  0  0  0
    4.0695    5.0100   11.2414 C   0  0  0  0  0  0  0  0  0  0  0  0
    5.3674    4.5976   11.3434 C   0  0  0  0  0  0  0  0  0  0  0  0
    6.0009    4.2569   10.2154 C   0  0  0  0  0  0  0  0  0  0  0  0
    5.2922    4.3501    9.0452 C   0  0  0  0  0  0  0  0  0  0  0  0
    3.7685    4.9098    9.5649 S   0  0  0  0  0  0  0  0  0  0  0  0
 11 12  1  0  0  0
 12 13  2  0  0  0
 13 14  1  0  0  0
 14 15  2  0  0  0
 15  1  1  0  0  0
  1  2  1  0  0  0
  2  3  1  0  0  0
  3 19  1  0  0  0
 19 20  2  0  0  0
 20 21  1  0  0  0
 21 22  2  0  0  0
 22 23  1  0  0  0
  3  4  1  0  0  0
  4  5  1  0  0  0
  5  6  2  0  0  0
  6  7  1  0  0  0
  7  8  2  0  0  0
  8  9  1  0  0  0
 15 16  1  0  0  0
 16 17  2  0  0  0
 17 18  1  0  0  0
 17 12  1  0  0  0
  9  1  1  0  0  0
 23 19  1  0  0  0
  8  4  1  0  0  0
  9 10  1  0  0  0
M  END
> <minimizedAffinity>
-6.39996

> <CNNscore>
0.1960764527

> <CNNaffinity>
5.4710874557

> <CNN_VS>
1.0727514029

> <CNNaffinity_variance>
0.1850733459

$$$$
[H]c1nc([H])c2c(c1[H])c1c([H])nc(N([H])c3nnc(N([H])C([H])([H])C4([H])C([H])([H])N([H])C4([H])[H])c([H])c3[H])nc1n2C1([H])C([H])([H])C([H])([H])C([H])([H])C1([H])[H]


 34 39  0  0  0  0  0  0  0  0999 V2000
    3.8780    0.8619   23.0335 C   0  0  0  0  0  0  0  0  0  0  0  0
    3.4390    0.3286   21.8349 C   0  0  0  0  0  0  0  0  0  0  0  0
    3.5798    1.0548   20.6722 C   0  0  0  0  0  0  0  0  0  0  0  0
    3.2371    0.7664   19.3809 C   0  0  0  0  0  0  0  0  0  0  0  0
    2.6389   -0.3162   18.7402 C   0  0  0  0  0  0  0  0  0  0  0  0
    2.4470   -0.2609   17.4131 N   0  0  0  0  0  0  0  0  0  0  0  0
    2.8030    0.7940   16.6494 C   0  0  0  0  0  0  0  0  0  0  0  0
    3.3814    1.8501   17.2424 N   0  0  0  0  0  0  0  0  0  0  0  0
    3.5911    1.8301   18.5803 C   0  0  0  0  0  0  0  0  0  0  0  0
    4.1513    2.7638   19.4036 N   0  0  0  0  0  0  0  0  0  0  0  0
    4.1494    2.3085   20.6611 C   0  0  0  0  0  0  0  0  0  0  0  0
    4.5762    2.8097   21.8740 C   0  0  0  0  0  0  0  0  0  0  0  0
    4.4325    2.0941   22.9895 N   0  0  0  0  0  0  0  0  0  0  0  0
    4.6707    4.0495   18.9964 C   0  0  0  0  0  0  0  0  0  0  0  0
    3.5901    5.0736   18.7635 C   0  0  0  0  0  0  0  0  0  0  0  0
    4.0349    5.9201   17.6047 C   0  0  0  0  0  0  0  0  0  0  0  0
    5.2176    5.2559   16.9733 C   0  0  0  0  0  0  0  0  0  0  0  0
    5.5022    3.9946   17.7543 C   0  0  0  0  0  0  0  0  0  0  0  0
    2.5602    0.7703   15.2315 N   0  0  0  0  0  0  0  0  0  0  0  0
    2.6059   -0.1447   14.7333 H   0  0  0  0  0  0  0  0  0  0  0  0
    2.2642    1.9485   14.5067 C   0  0  0  0  0  0  0  0  0  0  0  0
    3.0687    3.0649   14.5132 C   0  0  0  0  0  0  0  0  0  0  0  0
    2.7487    4.2047   13.7908 C   0  0  0  0  0  0  0  0  0  0  0  0
    1.5917    4.2278   13.0414 C   0  0  0  0  0  0  0  0  0  0  0  0
    0.8313    3.1055   13.0657 N   0  0  0  0  0  0  0  0  0  0  0  0
    1.1514    2.0270   13.7604 N   0  0  0  0  0  0  0  0  0  0  0  0
    1.2024    5.3621   12.2770 N   0  0  0  0  0  0  0  0  0  0  0  0
    1.2228    5.3192   11.2488 H   0  0  0  0  0  0  0  0  0  0  0  0
    0.7783    6.5737   12.9415 C   0  0  0  0  0  0  0  0  0  0  0  0
   -0.6518    6.9296   12.5979 C   0  0  0  0  0  0  0  0  0  0  0  0
   -1.4114    5.7456   12.0423 C   0  0  0  0  0  0  0  0  0  0  0  0
   -2.5565    6.1039   12.8762 N   0  0  0  0  0  0  0  0  0  0  0  0
   -1.6172    6.8080   13.7499 C   0  0  0  0  0  0  0  0  0  0  0  0
   -2.9228    5.2582   13.3852 H   0  0  0  0  0  0  0  0  0  0  0  0
  1  2  2  0  0  0
  2  3  1  0  0  0
  3  4  1  0  0  0
  4  5  2  0  0  0
  5  6  1  0  0  0
  6  7  2  0  0  0
  7 19  1  0  0  0
 19 21  1  0  0  0
 21 22  2  0  0  0
 22 23  1  0  0  0
 23 24  2  0  0  0
 24 27  1  0  0  0
 27 29  1  0  0  0
 29 30  1  0  0  0
 30 31  1  0  0  0
 31 32  1  0  0  0
 32 33  1  0  0  0
 24 25  1  0  0  0
 25 26  2  0  0  0
  7  8  1  0  0  0
  8  9  2  0  0  0
  9 10  1  0  0  0
 10 14  1  0  0  0
 14 15  1  0  0  0
 15 16  1  0  0  0
 16 17  1  0  0  0
 17 18  1  0  0  0
 10 11  1  0  0  0
 11 12  1  0  0  0
 12 13  2  0  0  0
 13  1  1  0  0  0
 11  3  2  0  0  0
  9  4  1  0  0  0
 18 14  1  0  0  0
 26 21  1  0  0  0
 33 30  1  0  0  0
 19 20  1  0  0  0
 27 28  1  0  0  0
 32 34  1  0  0  0
M  END
> <minimizedAffinity>
-8.39755

> <CNNscore>
0.9253841639

> <CNNaffinity>
7.4207410812

> <CNN_VS>
6.8670363426

> <CNNaffinity_variance>
0.3000496328

$$$$
[H]c1nc([H])c2c(c1[H])c1c([H])nc(N([H])c3nnc(N([H])C([H])([H])C4([H])C([H])([H])N([H])C4([H])[H])c([H])c3[H])nc1n2C1([H])C([H])([H])C([H])([H])C([H])([H])C1([H])[H]


 34 39  0  0  0  0  0  0  0  0999 V2000
    4.6074    2.6424   23.4161 C   0  0  0  0  0  0  0  0  0  0  0  0
    4.2506    1.8475   22.3416 C   0  0  0  0  0  0  0  0  0  0  0  0
    4.2000    2.3919   21.0766 C   0  0  0  0  0  0  0  0  0  0  0  0
    3.8837    1.8381   19.8678 C   0  0  0  0  0  0  0  0  0  0  0  0
    3.5034    0.5695   19.4362 C   0  0  0  0  0  0  0  0  0  0  0  0
    3.2618    0.3724   18.1309 N   0  0  0  0  0  0  0  0  0  0  0  0
    3.3660    1.3413   17.1965 C   0  0  0  0  0  0  0  0  0  0  0  0
    3.7308    2.5728   17.5863 N   0  0  0  0  0  0  0  0  0  0  0  0
    3.9829    2.8093   18.8959 C   0  0  0  0  0  0  0  0  0  0  0  0
    4.3628    3.9556   19.5324 N   0  0  0  0  0  0  0  0  0  0  0  0
    4.4959    3.7161   20.8413 C   0  0  0  0  0  0  0  0  0  0  0  0
    4.8478    4.4799   21.9355 C   0  0  0  0  0  0  0  0  0  0  0  0
    4.8918    3.9376   23.1525 N   0  0  0  0  0  0  0  0  0  0  0  0
    4.5902    5.2374   18.9046 C   0  0  0  0  0  0  0  0  0  0  0  0
    5.9268    5.8368   19.2584 C   0  0  0  0  0  0  0  0  0  0  0  0
    5.7240    7.3217   19.3634 C   0  0  0  0  0  0  0  0  0  0  0  0
    4.2521    7.5900   19.3499 C   0  0  0  0  0  0  0  0  0  0  0  0
    3.5477    6.2589   19.2314 C   0  0  0  0  0  0  0  0  0  0  0  0
    3.0882    1.0432   15.8167 N   0  0  0  0  0  0  0  0  0  0  0  0
    3.0891    0.0458   15.5124 H   0  0  0  0  0  0  0  0  0  0  0  0
    2.8168    2.0629   14.8745 C   0  0  0  0  0  0  0  0  0  0  0  0
    1.6401    2.1469   14.1660 C   0  0  0  0  0  0  0  0  0  0  0  0
    1.4061    3.1605   13.2488 C   0  0  0  0  0  0  0  0  0  0  0  0
    2.3765    4.1162   13.0348 C   0  0  0  0  0  0  0  0  0  0  0  0
    3.5184    3.9925   13.7552 N   0  0  0  0  0  0  0  0  0  0  0  0
    3.7251    3.0193   14.6260 N   0  0  0  0  0  0  0  0  0  0  0  0
    2.2036    5.1827   12.1099 N   0  0  0  0  0  0  0  0  0  0  0  0
    2.9303    5.3742   11.4065 H   0  0  0  0  0  0  0  0  0  0  0  0
    1.0101    5.9968   12.1563 C   0  0  0  0  0  0  0  0  0  0  0  0
    1.3409    7.4720   12.2221 C   0  0  0  0  0  0  0  0  0  0  0  0
    2.1377    7.8184   13.4601 C   0  0  0  0  0  0  0  0  0  0  0  0
    3.0121    8.6609   12.6472 N   0  0  0  0  0  0  0  0  0  0  0  0
    2.6027    7.8598   11.4931 C   0  0  0  0  0  0  0  0  0  0  0  0
    4.0233    8.4572   12.8587 H   0  0  0  0  0  0  0  0  0  0  0  0
  1  2  2  0  0  0
  2  3  1  0  0  0
  3  4  1  0  0  0
  4  5  2  0  0  0
  5  6  1  0  0  0
  6  7  2  0  0  0
  7 19  1  0  0  0
 19 21  1  0  0  0
 21 22  2  0  0  0
 22 23  1  0  0  0
 23 24  2  0  0  0
 24 27  1  0  0  0
 27 29  1  0  0  0
 29 30  1  0  0  0
 30 31  1  0  0  0
 31 32  1  0  0  0
 32 33  1  0  0  0
 24 25  1  0  0  0
 25 26  2  0  0  0
  7  8  1  0  0  0
  8  9  2  0  0  0
  9 10  1  0  0  0
 10 14  1  0  0  0
 14 15  1  0  0  0
 15 16  1  0  0  0
 16 17  1  0  0  0
 17 18  1  0  0  0
 10 11  1  0  0  0
 11 12  1  0  0  0
 12 13  2  0  0  0
 13  1  1  0  0  0
 11  3  2  0  0  0
  9  4  1  0  0  0
 18 14  1  0  0  0
 26 21  1  0  0  0
 33 30  1  0  0  0
 19 20  1  0  0  0
 27 28  1  0  0  0
 32 34  1  0  0  0
M  END
> <minimizedAffinity>
-7.96885

> <CNNscore>
0.5534592271

> <CNNaffinity>
7.1102399826

> <CNN_VS>
3.9352278709

> <CNNaffinity_variance>
0.6815918684

$$$$
[H]c1nc([H])c2c(c1[H])c1c([H])nc(N([H])c3nnc(N([H])C([H])([H])C4([H])C([H])([H])N([H])C4([H])[H])c([H])c3[H])nc1n2C1([H])C([H])([H])C([H])([H])C([H])([H])C1([H])[H]


 34 39  0  0  0  0  0  0  0  0999 V2000
    2.4874   -0.9757   19.4233 C   0  0  0  0  0  0  0  0  0  0  0  0
    3.2471   -0.3430   20.3909 C   0  0  0  0  0  0  0  0  0  0  0  0
    3.8093    0.8862   20.1220 C   0  0  0  0  0  0  0  0  0  0  0  0
    4.5876    1.7094   20.8865 C   0  0  0  0  0  0  0  0  0  0  0  0
    5.1058    1.6529   22.1783 C   0  0  0  0  0  0  0  0  0  0  0  0
    5.8563    2.6730   22.6226 N   0  0  0  0  0  0  0  0  0  0  0  0
    6.1442    3.7664   21.8847 C   0  0  0  0  0  0  0  0  0  0  0  0
    5.6568    3.8454   20.6366 N   0  0  0  0  0  0  0  0  0  0  0  0
    4.8952    2.8347   20.1540 C   0  0  0  0  0  0  0  0  0  0  0  0
    4.2936    2.6809   18.9383 N   0  0  0  0  0  0  0  0  0  0  0  0
    3.6393    1.5149   18.9086 C   0  0  0  0  0  0  0  0  0  0  0  0
    2.8759    0.8556   17.9668 C   0  0  0  0  0  0  0  0  0  0  0  0
    2.3392   -0.3329   18.2431 N   0  0  0  0  0  0  0  0  0  0  0  0
    4.3454    3.6218   17.8426 C   0  0  0  0  0  0  0  0  0  0  0  0
    5.7313    4.1583   17.5928 C   0  0  0  0  0  0  0  0  0  0  0  0
    5.5748    5.5958   17.1850 C   0  0  0  0  0  0  0  0  0  0  0  0
    4.1590    6.0005   17.4497 C   0  0  0  0  0  0  0  0  0  0  0  0
    3.4412    4.7999   18.0202 C   0  0  0  0  0  0  0  0  0  0  0  0
    6.9576    4.8153   22.4398 N   0  0  0  0  0  0  0  0  0  0  0  0
    7.6106    4.5805   23.2182 H   0  0  0  0  0  0  0  0  0  0  0  0
    6.8913    6.1435   21.9575 C   0  0  0  0  0  0  0  0  0  0  0  0
    7.7809    6.6644   21.0461 C   0  0  0  0  0  0  0  0  0  0  0  0
    7.6873    7.9721   20.5937 C   0  0  0  0  0  0  0  0  0  0  0  0
    6.6755    8.7805   21.0665 C   0  0  0  0  0  0  0  0  0  0  0  0
    5.8237    8.2240   21.9625 N   0  0  0  0  0  0  0  0  0  0  0  0
    5.9275    6.9749   22.3833 N   0  0  0  0  0  0  0  0  0  0  0  0
    6.5201   10.1301   20.6459 N   0  0  0  0  0  0  0  0  0  0  0  0
    7.3119   10.7840   20.7176 H   0  0  0  0  0  0  0  0  0  0  0  0
    5.2534   10.5842   20.1181 C   0  0  0  0  0  0  0  0  0  0  0  0
    4.6442    9.5700   19.1746 C   0  0  0  0  0  0  0  0  0  0  0  0
    3.2130    9.9115   18.8244 C   0  0  0  0  0  0  0  0  0  0  0  0
    3.4900    9.5874   17.4268 N   0  0  0  0  0  0  0  0  0  0  0  0
    4.9014    9.8455   17.7145 C   0  0  0  0  0  0  0  0  0  0  0  0
    3.1299   10.3465   16.7924 H   0  0  0  0  0  0  0  0  0  0  0  0
  1  2  2  0  0  0
  2  3  1  0  0  0
  3  4  1  0  0  0
  4  5  2  0  0  0
  5  6  1  0  0  0
  6  7  2  0  0  0
  7 19  1  0  0  0
 19 21  1  0  0  0
 21 22  2  0  0  0
 22 23  1  0  0  0
 23 24  2  0  0  0
 24 27  1  0  0  0
 27 29  1  0  0  0
 29 30  1  0  0  0
 30 31  1  0  0  0
 31 32  1  0  0  0
 32 33  1  0  0  0
 24 25  1  0  0  0
 25 26  2  0  0  0
  7  8  1  0  0  0
  8  9  2  0  0  0
  9 10  1  0  0  0
 10 14  1  0  0  0
 14 15  1  0  0  0
 15 16  1  0  0  0
 16 17  1  0  0  0
 17 18  1  0  0  0
 10 11  1  0  0  0
 11 12  1  0  0  0
 12 13  2  0  0  0
 13  1  1  0  0  0
 11  3  2  0  0  0
  9  4  1  0  0  0
 18 14  1  0  0  0
 26 21  1  0  0  0
 33 30  1  0  0  0
 19 20  1  0  0  0
 27 28  1  0  0  0
 32 34  1  0  0  0
M  END
> <minimizedAffinity>
-8.15727

> <CNNscore>
0.4141191840

> <CNNaffinity>
6.9955267906

> <CNN_VS>
2.8969819546

> <CNNaffinity_variance>
0.5336487889

$$$$
[H]c1nc([H])c2c(c1[H])c1c([H])nc(N([H])c3nnc(N([H])C([H])([H])C4([H])C([H])([H])N([H])C4([H])[H])c([H])c3[H])nc1n2C1([H])C([H])([H])C([H])([H])C([H])([H])C1([H])[H]


 34 39  0  0  0  0  0  0  0  0999 V2000
    4.1114    1.2541   23.8283 C   0  0  0  0  0  0  0  0  0  0  0  0
    3.8855    0.9675   22.4940 C   0  0  0  0  0  0  0  0  0  0  0  0
    4.1955    1.9046   21.5323 C   0  0  0  0  0  0  0  0  0  0  0  0
    4.0738    1.8755   20.1713 C   0  0  0  0  0  0  0  0  0  0  0  0
    3.6137    0.9428   19.2446 C   0  0  0  0  0  0  0  0  0  0  0  0
    3.6383    1.2565   17.9399 N   0  0  0  0  0  0  0  0  0  0  0  0
    4.0878    2.4368   17.4630 C   0  0  0  0  0  0  0  0  0  0  0  0
    4.5368    3.3529   18.3352 N   0  0  0  0  0  0  0  0  0  0  0  0
    4.5272    3.0716   19.6601 C   0  0  0  0  0  0  0  0  0  0  0  0
    4.9237    3.8230   20.7285 N   0  0  0  0  0  0  0  0  0  0  0  0
    4.7289    3.1321   21.8569 C   0  0  0  0  0  0  0  0  0  0  0  0
    4.9412    3.3846   23.1969 C   0  0  0  0  0  0  0  0  0  0  0  0
    4.6358    2.4670   24.1144 N   0  0  0  0  0  0  0  0  0  0  0  0
    5.4711    5.1592   20.6678 C   0  0  0  0  0  0  0  0  0  0  0  0
    6.5798    5.3866   21.6628 C   0  0  0  0  0  0  0  0  0  0  0  0
    6.4479    6.8032   22.1455 C   0  0  0  0  0  0  0  0  0  0  0  0
    5.1323    7.3337   21.6698 C   0  0  0  0  0  0  0  0  0  0  0  0
    4.4547    6.2345   20.8858 C   0  0  0  0  0  0  0  0  0  0  0  0
    4.0789    2.6911   16.0469 N   0  0  0  0  0  0  0  0  0  0  0  0
    4.5935    2.0359   15.4197 H   0  0  0  0  0  0  0  0  0  0  0  0
    3.3945    3.7985   15.4934 C   0  0  0  0  0  0  0  0  0  0  0  0
    3.7130    4.3553   14.2760 C   0  0  0  0  0  0  0  0  0  0  0  0
    3.0211    5.4418   13.7620 C   0  0  0  0  0  0  0  0  0  0  0  0
    1.9819    5.9860   14.4864 C   0  0  0  0  0  0  0  0  0  0  0  0
    1.7048    5.4043   15.6793 N   0  0  0  0  0  0  0  0  0  0  0  0
    2.3750    4.3684   16.1546 N   0  0  0  0  0  0  0  0  0  0  0  0
    1.2301    7.0995   14.0201 N   0  0  0  0  0  0  0  0  0  0  0  0
    1.3657    8.0254   14.4488 H   0  0  0  0  0  0  0  0  0  0  0  0
    0.2772    6.9328   12.9461 C   0  0  0  0  0  0  0  0  0  0  0  0
   -0.6936    5.8069   13.2286 C   0  0  0  0  0  0  0  0  0  0  0  0
   -2.0060    5.9957   12.5011 C   0  0  0  0  0  0  0  0  0  0  0  0
   -1.9941    4.5806   12.1368 N   0  0  0  0  0  0  0  0  0  0  0  0
   -0.5426    4.6126   12.3205 C   0  0  0  0  0  0  0  0  0  0  0  0
   -2.2027    4.4606   11.1118 H   0  0  0  0  0  0  0  0  0  0  0  0
  1  2  2  0  0  0
  2  3  1  0  0  0
  3  4  1  0  0  0
  4  5  2  0  0  0
  5  6  1  0  0  0
  6  7  2  0  0  0
  7 19  1  0  0  0
 19 21  1  0  0  0
 21 22  2  0  0  0
 22 23  1  0  0  0
 23 24  2  0  0  0
 24 27  1  0  0  0
 27 29  1  0  0  0
 29 30  1  0  0  0
 30 31  1  0  0  0
 31 32  1  0  0  0
 32 33  1  0  0  0
 24 25  1  0  0  0
 25 26  2  0  0  0
  7  8  1  0  0  0
  8  9  2  0  0  0
  9 10  1  0  0  0
 10 14  1  0  0  0
 14 15  1  0  0  0
 15 16  1  0  0  0
 16 17  1  0  0  0
 17 18  1  0  0  0
 10 11  1  0  0  0
 11 12  1  0  0  0
 12 13  2  0  0  0
 13  1  1  0  0  0
 11  3  2  0  0  0
  9  4  1  0  0  0
 18 14  1  0  0  0
 26 21  1  0  0  0
 33 30  1  0  0  0
 19 20  1  0  0  0
 27 28  1  0  0  0
 32 34  1  0  0  0
M  END
> <minimizedAffinity>
-8.70077

> <CNNscore>
0.3757955432

> <CNNaffinity>
6.8114480972

> <CNN_VS>
2.5597119331

> <CNNaffinity_variance>
0.5935629010

$$$$
[H]c1nc([H])c2c(c1[H])c1c([H])nc(N([H])c3nnc(N([H])C([H])([H])C4([H])C([H])([H])N([H])C4([H])[H])c([H])c3[H])nc1n2C1([H])C([H])([H])C([H])([H])C([H])([H])C1([H])[H]


 34 39  0  0  0  0  0  0  0  0999 V2000
    2.4886   -0.4200   17.2911 C   0  0  0  0  0  0  0  0  0  0  0  0
    3.0578    0.7455   16.8100 C   0  0  0  0  0  0  0  0  0  0  0  0
    3.6493    1.6290   17.6867 C   0  0  0  0  0  0  0  0  0  0  0  0
    4.2714    2.8278   17.4775 C   0  0  0  0  0  0  0  0  0  0  0  0
    4.5504    3.6093   16.3587 C   0  0  0  0  0  0  0  0  0  0  0  0
    5.2009    4.7715   16.5236 N   0  0  0  0  0  0  0  0  0  0  0  0
    5.6078    5.2370   17.7238 C   0  0  0  0  0  0  0  0  0  0  0  0
    5.3514    4.5028   18.8178 N   0  0  0  0  0  0  0  0  0  0  0  0
    4.6967    3.3241   18.6902 C   0  0  0  0  0  0  0  0  0  0  0  0
    4.3237    2.4107   19.6337 N   0  0  0  0  0  0  0  0  0  0  0  0
    3.6944    1.3897   19.0421 C   0  0  0  0  0  0  0  0  0  0  0  0
    3.1173    0.2179   19.4875 C   0  0  0  0  0  0  0  0  0  0  0  0
    2.5493   -0.6260   18.6259 N   0  0  0  0  0  0  0  0  0  0  0  0
    4.5636    2.5152   21.0550 C   0  0  0  0  0  0  0  0  0  0  0  0
    4.1924    3.8633   21.6168 C   0  0  0  0  0  0  0  0  0  0  0  0
    5.2011    4.1833   22.6833 C   0  0  0  0  0  0  0  0  0  0  0  0
    6.3144    3.1891   22.5808 C   0  0  0  0  0  0  0  0  0  0  0  0
    5.9830    2.2498   21.4450 C   0  0  0  0  0  0  0  0  0  0  0  0
    6.3003    6.4951   17.8106 N   0  0  0  0  0  0  0  0  0  0  0  0
    6.4367    7.0500   16.9383 H   0  0  0  0  0  0  0  0  0  0  0  0
    6.7945    6.9900   19.0402 C   0  0  0  0  0  0  0  0  0  0  0  0
    5.9982    7.5794   19.9952 C   0  0  0  0  0  0  0  0  0  0  0  0
    6.5155    8.0544   21.1912 C   0  0  0  0  0  0  0  0  0  0  0  0
    7.8668    7.9363   21.4380 C   0  0  0  0  0  0  0  0  0  0  0  0
    8.6109    7.3491   20.4685 N   0  0  0  0  0  0  0  0  0  0  0  0
    8.1013    6.9016   19.3335 N   0  0  0  0  0  0  0  0  0  0  0  0
    8.4641    8.4011   22.6420 N   0  0  0  0  0  0  0  0  0  0  0  0
    8.8388    9.3585   22.6921 H   0  0  0  0  0  0  0  0  0  0  0  0
    8.5454    7.5319   23.7940 C   0  0  0  0  0  0  0  0  0  0  0  0
    9.9802    7.2709   24.1982 C   0  0  0  0  0  0  0  0  0  0  0  0
   10.0712    6.3881   25.4229 C   0  0  0  0  0  0  0  0  0  0  0  0
   11.1443    5.6306   24.7827 N   0  0  0  0  0  0  0  0  0  0  0  0
   10.6199    6.0980   23.4989 C   0  0  0  0  0  0  0  0  0  0  0  0
   10.9665    4.5961   24.8642 H   0  0  0  0  0  0  0  0  0  0  0  0
  1  2  2  0  0  0
  2  3  1  0  0  0
  3  4  1  0  0  0
  4  5  2  0  0  0
  5  6  1  0  0  0
  6  7  2  0  0  0
  7 19  1  0  0  0
 19 21  1  0  0  0
 21 22  2  0  0  0
 22 23  1  0  0  0
 23 24  2  0  0  0
 24 27  1  0  0  0
 27 29  1  0  0  0
 29 30  1  0  0  0
 30 31  1  0  0  0
 31 32  1  0  0  0
 32 33  1  0  0  0
 24 25  1  0  0  0
 25 26  2  0  0  0
  7  8  1  0  0  0
  8  9  2  0  0  0
  9 10  1  0  0  0
 10 14  1  0  0  0
 14 15  1  0  0  0
 15 16  1  0  0  0
 16 17  1  0  0  0
 17 18  1  0  0  0
 10 11  1  0  0  0
 11 12  1  0  0  0
 12 13  2  0  0  0
 13  1  1  0  0  0
 11  3  2  0  0  0
  9  4  1  0  0  0
 18 14  1  0  0  0
 26 21  1  0  0  0
 33 30  1  0  0  0
 19 20  1  0  0  0
 27 28  1  0  0  0
 32 34  1  0  0  0
M  END
> <minimizedAffinity>
-8.07653

> <CNNscore>
0.3238109052

> <CNNaffinity>
6.7217702866

> <CNN_VS>
2.1765825748

> <CNNaffinity_variance>
0.4955074191

$$$$
[H]c1nc([H])c2c(c1[H])c1c([H])nc(N([H])c3nnc(N([H])C([H])([H])C4([H])C([H])([H])N([H])C4([H])[H])c([H])c3[H])nc1n2C1([H])C([H])([H])C([H])([H])C([H])([H])C1([H])[H]


 34 39  0  0  0  0  0  0  0  0999 V2000
    2.6074   -0.4143   18.7310 C   0  0  0  0  0  0  0  0  0  0  0  0
    3.0758    0.6287   17.9522 C   0  0  0  0  0  0  0  0  0  0  0  0
    3.7849    1.6542   18.5392 C   0  0  0  0  0  0  0  0  0  0  0  0
    4.3481    2.7810   18.0091 C   0  0  0  0  0  0  0  0  0  0  0  0
    4.4351    3.3297   16.7317 C   0  0  0  0  0  0  0  0  0  0  0  0
    5.0860    4.4917   16.5665 N   0  0  0  0  0  0  0  0  0  0  0  0
    5.6701    5.1717   17.5761 C   0  0  0  0  0  0  0  0  0  0  0  0
    5.6006    4.6644   18.8168 N   0  0  0  0  0  0  0  0  0  0  0  0
    4.9518    3.4934   19.0219 C   0  0  0  0  0  0  0  0  0  0  0  0
    4.7462    2.7833   20.1695 N   0  0  0  0  0  0  0  0  0  0  0  0
    4.0469    1.6778   19.8910 C   0  0  0  0  0  0  0  0  0  0  0  0
    3.5651    0.6220   20.6376 C   0  0  0  0  0  0  0  0  0  0  0  0
    2.8810   -0.3622   20.0540 N   0  0  0  0  0  0  0  0  0  0  0  0
    5.2058    3.1539   21.4886 C   0  0  0  0  0  0  0  0  0  0  0  0
    6.0342    2.0805   22.1461 C   0  0  0  0  0  0  0  0  0  0  0  0
    5.7025    2.1105   23.6111 C   0  0  0  0  0  0  0  0  0  0  0  0
    4.5033    2.9858   23.7964 C   0  0  0  0  0  0  0  0  0  0  0  0
    4.0996    3.4994   22.4343 C   0  0  0  0  0  0  0  0  0  0  0  0
    6.3485    6.4123   17.3102 N   0  0  0  0  0  0  0  0  0  0  0  0
    6.4463    6.7245   16.3201 H   0  0  0  0  0  0  0  0  0  0  0  0
    6.8797    7.2087   18.3517 C   0  0  0  0  0  0  0  0  0  0  0  0
    8.0517    6.9134   19.0094 C   0  0  0  0  0  0  0  0  0  0  0  0
    8.5449    7.7162   20.0271 C   0  0  0  0  0  0  0  0  0  0  0  0
    7.8457    8.8456   20.3966 C   0  0  0  0  0  0  0  0  0  0  0  0
    6.6973    9.0957   19.7207 N   0  0  0  0  0  0  0  0  0  0  0  0
    6.2414    8.3192   18.7525 N   0  0  0  0  0  0  0  0  0  0  0  0
    8.2929    9.7132   21.4309 N   0  0  0  0  0  0  0  0  0  0  0  0
    8.2414   10.7332   21.3026 H   0  0  0  0  0  0  0  0  0  0  0  0
    8.8187    9.1652   22.6608 C   0  0  0  0  0  0  0  0  0  0  0  0
    8.0835    9.6988   23.8709 C   0  0  0  0  0  0  0  0  0  0  0  0
    6.5931    9.4584   23.7788 C   0  0  0  0  0  0  0  0  0  0  0  0
    6.5856    9.0423   25.1795 N   0  0  0  0  0  0  0  0  0  0  0  0
    8.0083    8.7351   25.0283 C   0  0  0  0  0  0  0  0  0  0  0  0
    6.0552    8.1401   25.2947 H   0  0  0  0  0  0  0  0  0  0  0  0
  1  2  2  0  0  0
  2  3  1  0  0  0
  3  4  1  0  0  0
  4  5  2  0  0  0
  5  6  1  0  0  0
  6  7  2  0  0  0
  7 19  1  0  0  0
 19 21  1  0  0  0
 21 22  2  0  0  0
 22 23  1  0  0  0
 23 24  2  0  0  0
 24 27  1  0  0  0
 27 29  1  0  0  0
 29 30  1  0  0  0
 30 31  1  0  0  0
 31 32  1  0  0  0
 32 33  1  0  0  0
 24 25  1  0  0  0
 25 26  2  0  0  0
  7  8  1  0  0  0
  8  9  2  0  0  0
  9 10  1  0  0  0
 10 14  1  0  0  0
 14 15  1  0  0  0
 15 16  1  0  0  0
 16 17  1  0  0  0
 17 18  1  0  0  0
 10 11  1  0  0  0
 11 12  1  0  0  0
 12 13  2  0  0  0
 13  1  1  0  0  0
 11  3  2  0  0  0
  9  4  1  0  0  0
 18 14  1  0  0  0
 26 21  1  0  0  0
 33 30  1  0  0  0
 19 20  1  0  0  0
 27 28  1  0  0  0
 32 34  1  0  0  0
M  END
> <minimizedAffinity>
-9.00447

> <CNNscore>
0.3126729131

> <CNNaffinity>
6.7326874733

> <CNN_VS>
2.1051290035

> <CNNaffinity_variance>
0.1754107773

$$$$
[H]c1nc([H])c2c(c1[H])c1c([H])nc(N([H])c3nnc(N([H])C([H])([H])C4([H])C([H])([H])N([H])C4([H])[H])c([H])c3[H])nc1n2C1([H])C([H])([H])C([H])([H])C([H])([H])C1([H])[H]


 34 39  0  0  0  0  0  0  0  0999 V2000
    5.9117    1.9562   22.5401 C   0  0  0  0  0  0  0  0  0  0  0  0
    5.2906    1.4874   21.3963 C   0  0  0  0  0  0  0  0  0  0  0  0
    5.0378    2.3520   20.3534 C   0  0  0  0  0  0  0  0  0  0  0  0
    4.4491    2.1506   19.1365 C   0  0  0  0  0  0  0  0  0  0  0  0
    3.8929    1.0538   18.4823 C   0  0  0  0  0  0  0  0  0  0  0  0
    3.3868    1.2199   17.2505 N   0  0  0  0  0  0  0  0  0  0  0  0
    3.3832    2.4009   16.5965 C   0  0  0  0  0  0  0  0  0  0  0  0
    3.9134    3.4735   17.2048 N   0  0  0  0  0  0  0  0  0  0  0  0
    4.4337    3.3440   18.4486 C   0  0  0  0  0  0  0  0  0  0  0  0
    5.0198    4.2680   19.2648 N   0  0  0  0  0  0  0  0  0  0  0  0
    5.3860    3.6832   20.4103 C   0  0  0  0  0  0  0  0  0  0  0  0
    6.0037    4.1168   21.5657 C   0  0  0  0  0  0  0  0  0  0  0  0
    6.2410    3.2672   22.5652 N   0  0  0  0  0  0  0  0  0  0  0  0
    5.2213    5.6652   18.9548 C   0  0  0  0  0  0  0  0  0  0  0  0
    3.9323    6.4038   18.7026 C   0  0  0  0  0  0  0  0  0  0  0  0
    4.2092    7.4051   17.6173 C   0  0  0  0  0  0  0  0  0  0  0  0
    5.5507    7.0943   17.0322 C   0  0  0  0  0  0  0  0  0  0  0  0
    6.1017    5.8955   17.7677 C   0  0  0  0  0  0  0  0  0  0  0  0
    2.8192    2.4905   15.2759 N   0  0  0  0  0  0  0  0  0  0  0  0
    2.3839    1.6386   14.8612 H   0  0  0  0  0  0  0  0  0  0  0  0
    2.8423    3.6963   14.5365 C   0  0  0  0  0  0  0  0  0  0  0  0
    3.8573    4.0358   13.6716 C   0  0  0  0  0  0  0  0  0  0  0  0
    3.8489    5.2271   12.9614 C   0  0  0  0  0  0  0  0  0  0  0  0
    2.7958    6.1024   13.1213 C   0  0  0  0  0  0  0  0  0  0  0  0
    1.8197    5.7252   13.9834 N   0  0  0  0  0  0  0  0  0  0  0  0
    1.8435    4.5853   14.6528 N   0  0  0  0  0  0  0  0  0  0  0  0
    2.7226    7.3404   12.4251 N   0  0  0  0  0  0  0  0  0  0  0  0
    2.8504    7.3628   11.4040 H   0  0  0  0  0  0  0  0  0  0  0  0
    2.4690    8.5657   13.1488 C   0  0  0  0  0  0  0  0  0  0  0  0
    3.4734    8.7772   14.2607 C   0  0  0  0  0  0  0  0  0  0  0  0
    4.8535    9.0872   13.7251 C   0  0  0  0  0  0  0  0  0  0  0  0
    4.9934   10.1405   14.7281 N   0  0  0  0  0  0  0  0  0  0  0  0
    3.5320   10.1895   14.7859 C   0  0  0  0  0  0  0  0  0  0  0  0
    5.3443   11.0289   14.2853 H   0  0  0  0  0  0  0  0  0  0  0  0
  1  2  2  0  0  0
  2  3  1  0  0  0
  3  4  1  0  0  0
  4  5  2  0  0  0
  5  6  1  0  0  0
  6  7  2  0  0  0
  7 19  1  0  0  0
 19 21  1  0  0  0
 21 22  2  0  0  0
 22 23  1  0  0  0
 23 24  2  0  0  0
 24 27  1  0  0  0
 27 29  1  0  0  0
 29 30  1  0  0  0
 30 31  1  0  0  0
 31 32  1  0  0  0
 32 33  1  0  0  0
 24 25  1  0  0  0
 25 26  2  0  0  0
  7  8  1  0  0  0
  8  9  2  0  0  0
  9 10  1  0  0  0
 10 14  1  0  0  0
 14 15  1  0  0  0
 15 16  1  0  0  0
 16 17  1  0  0  0
 17 18  1  0  0  0
 10 11  1  0  0  0
 11 12  1  0  0  0
 12 13  2  0  0  0
 13  1  1  0  0  0
 11  3  2  0  0  0
  9  4  1  0  0  0
 18 14  1  0  0  0
 26 21  1  0  0  0
 33 30  1  0  0  0
 19 20  1  0  0  0
 27 28  1  0  0  0
 32 34  1  0  0  0
M  END
> <minimizedAffinity>
-7.86274

> <CNNscore>
0.2786653638

> <CNNaffinity>
6.4119009972

> <CNN_VS>
1.7867747545

> <CNNaffinity_variance>
0.6088770628

$$$$
[H]c1nc([H])c2c(c1[H])c1c([H])nc(N([H])c3nnc(N([H])C([H])([H])C4([H])C([H])([H])N([H])C4([H])[H])c([H])c3[H])nc1n2C1([H])C([H])([H])C([H])([H])C([H])([H])C1([H])[H]


 34 39  0  0  0  0  0  0  0  0999 V2000
    3.1458   -0.4857   21.0972 C   0  0  0  0  0  0  0  0  0  0  0  0
    3.5271    0.5905   21.8782 C   0  0  0  0  0  0  0  0  0  0  0  0
    3.8544    1.7873   21.2784 C   0  0  0  0  0  0  0  0  0  0  0  0
    4.2555    2.9820   21.8074 C   0  0  0  0  0  0  0  0  0  0  0  0
    4.4868    3.4594   23.0954 C   0  0  0  0  0  0  0  0  0  0  0  0
    4.8869    4.7304   23.2553 N   0  0  0  0  0  0  0  0  0  0  0  0
    5.0819    5.5875   22.2305 C   0  0  0  0  0  0  0  0  0  0  0  0
    4.8659    5.1523   20.9793 N   0  0  0  0  0  0  0  0  0  0  0  0
    4.4613    3.8753   20.7791 C   0  0  0  0  0  0  0  0  0  0  0  0
    4.1799    3.2056   19.6234 N   0  0  0  0  0  0  0  0  0  0  0  0
    3.8146    1.9518   19.9117 C   0  0  0  0  0  0  0  0  0  0  0  0
    3.4300    0.8580   19.1634 C   0  0  0  0  0  0  0  0  0  0  0  0
    3.1167   -0.2925   19.7594 N   0  0  0  0  0  0  0  0  0  0  0  0
    4.2590    3.7515   18.2875 C   0  0  0  0  0  0  0  0  0  0  0  0
    5.6170    4.3184   17.9631 C   0  0  0  0  0  0  0  0  0  0  0  0
    5.3893    5.5294   17.1035 C   0  0  0  0  0  0  0  0  0  0  0  0
    3.9286    5.8518   17.1356 C   0  0  0  0  0  0  0  0  0  0  0  0
    3.2555    4.8275   18.0187 C   0  0  0  0  0  0  0  0  0  0  0  0
    5.5123    6.9353   22.4917 N   0  0  0  0  0  0  0  0  0  0  0  0
    5.7073    7.2139   23.4774 H   0  0  0  0  0  0  0  0  0  0  0  0
    5.6749    7.8800   21.4513 C   0  0  0  0  0  0  0  0  0  0  0  0
    4.8136    8.9325   21.2417 C   0  0  0  0  0  0  0  0  0  0  0  0
    5.0022    9.8414   20.2112 C   0  0  0  0  0  0  0  0  0  0  0  0
    6.0825    9.6927   19.3675 C   0  0  0  0  0  0  0  0  0  0  0  0
    6.9030    8.6417   19.6129 N   0  0  0  0  0  0  0  0  0  0  0  0
    6.7083    7.7841   20.6003 N   0  0  0  0  0  0  0  0  0  0  0  0
    6.3365   10.5871   18.2914 N   0  0  0  0  0  0  0  0  0  0  0  0
    7.1259   11.2453   18.3471 H   0  0  0  0  0  0  0  0  0  0  0  0
    5.4888   10.5728   17.1207 C   0  0  0  0  0  0  0  0  0  0  0  0
    5.3621    9.1819   16.5382 C   0  0  0  0  0  0  0  0  0  0  0  0
    4.5539    9.1754   15.2598 C   0  0  0  0  0  0  0  0  0  0  0  0
    5.5349    8.2750   14.6581 N   0  0  0  0  0  0  0  0  0  0  0  0
    6.5006    8.7795   15.6350 C   0  0  0  0  0  0  0  0  0  0  0  0
    5.8122    8.6158   13.7014 H   0  0  0  0  0  0  0  0  0  0  0  0
  1  2  2  0  0  0
  2  3  1  0  0  0
  3  4  1  0  0  0
  4  5  2  0  0  0
  5  6  1  0  0  0
  6  7  2  0  0  0
  7 19  1  0  0  0
 19 21  1  0  0  0
 21 22  2  0  0  0
 22 23  1  0  0  0
 23 24  2  0  0  0
 24 27  1  0  0  0
 27 29  1  0  0  0
 29 30  1  0  0  0
 30 31  1  0  0  0
 31 32  1  0  0  0
 32 33  1  0  0  0
 24 25  1  0  0  0
 25 26  2  0  0  0
  7  8  1  0  0  0
  8  9  2  0  0  0
  9 10  1  0  0  0
 10 14  1  0  0  0
 14 15  1  0  0  0
 15 16  1  0  0  0
 16 17  1  0  0  0
 17 18  1  0  0  0
 10 11  1  0  0  0
 11 12  1  0  0  0
 12 13  2  0  0  0
 13  1  1  0  0  0
 11  3  2  0  0  0
  9  4  1  0  0  0
 18 14  1  0  0  0
 26 21  1  0  0  0
 33 30  1  0  0  0
 19 20  1  0  0  0
 27 28  1  0  0  0
 32 34  1  0  0  0
M  END
> <minimizedAffinity>
-8.35161

> <CNNscore>
0.2756436467

> <CNNaffinity>
6.4537324905

> <CNN_VS>
1.7789303064

> <CNNaffinity_variance>
0.7944310904

$$$$
[H]c1nc([H])c2c(c1[H])c1c([H])nc(N([H])c3nnc(N([H])C([H])([H])C4([H])C([H])([H])N([H])C4([H])[H])c([H])c3[H])nc1n2C1([H])C([H])([H])C([H])([H])C([H])([H])C1([H])[H]


 34 39  0  0  0  0  0  0  0  0999 V2000
    3.8888    0.5192   22.3213 C   0  0  0  0  0  0  0  0  0  0  0  0
    3.8290    0.4407   20.9415 C   0  0  0  0  0  0  0  0  0  0  0  0
    3.9540    1.5867   20.1864 C   0  0  0  0  0  0  0  0  0  0  0  0
    3.9316    1.7834   18.8341 C   0  0  0  0  0  0  0  0  0  0  0  0
    3.7822    0.9576   17.7222 C   0  0  0  0  0  0  0  0  0  0  0  0
    3.8110    1.5054   16.4974 N   0  0  0  0  0  0  0  0  0  0  0  0
    3.9783    2.8260   16.2726 C   0  0  0  0  0  0  0  0  0  0  0  0
    4.1246    3.6435   17.3270 N   0  0  0  0  0  0  0  0  0  0  0  0
    4.1008    3.1265   18.5787 C   0  0  0  0  0  0  0  0  0  0  0  0
    4.2254    3.7380   19.7927 N   0  0  0  0  0  0  0  0  0  0  0  0
    4.1388    2.8230   20.7642 C   0  0  0  0  0  0  0  0  0  0  0  0
    4.1937    2.8646   22.1425 C   0  0  0  0  0  0  0  0  0  0  0  0
    4.0710    1.7466   22.8581 N   0  0  0  0  0  0  0  0  0  0  0  0
    4.4211    5.1530   20.0122 C   0  0  0  0  0  0  0  0  0  0  0  0
    3.3401    5.9996   19.3914 C   0  0  0  0  0  0  0  0  0  0  0  0
    4.0017    7.2518   18.8900 C   0  0  0  0  0  0  0  0  0  0  0  0
    5.4829    7.0496   18.9527 C   0  0  0  0  0  0  0  0  0  0  0  0
    5.7305    5.6640   19.5009 C   0  0  0  0  0  0  0  0  0  0  0  0
    3.9968    3.3299   14.9251 N   0  0  0  0  0  0  0  0  0  0  0  0
    4.9021    3.6657   14.5311 H   0  0  0  0  0  0  0  0  0  0  0  0
    2.8264    3.3789   14.1321 C   0  0  0  0  0  0  0  0  0  0  0  0
    2.1817    2.2578   13.6620 C   0  0  0  0  0  0  0  0  0  0  0  0
    1.0352    2.3413   12.8861 C   0  0  0  0  0  0  0  0  0  0  0  0
    0.5198    3.5809   12.5721 C   0  0  0  0  0  0  0  0  0  0  0  0
    1.1886    4.6559   13.0573 N   0  0  0  0  0  0  0  0  0  0  0  0
    2.2809    4.5582   13.7959 N   0  0  0  0  0  0  0  0  0  0  0  0
   -0.6516    3.7403   11.7817 N   0  0  0  0  0  0  0  0  0  0  0  0
   -1.4330    3.0780   11.8836 H   0  0  0  0  0  0  0  0  0  0  0  0
   -0.7464    4.8299   10.8367 C   0  0  0  0  0  0  0  0  0  0  0  0
   -1.9815    5.6712   11.0743 C   0  0  0  0  0  0  0  0  0  0  0  0
   -3.1902    4.8223   11.3997 C   0  0  0  0  0  0  0  0  0  0  0  0
   -3.5455    5.7573   12.4649 N   0  0  0  0  0  0  0  0  0  0  0  0
   -2.1387    6.1591   12.4924 C   0  0  0  0  0  0  0  0  0  0  0  0
   -3.7666    5.2387   13.3541 H   0  0  0  0  0  0  0  0  0  0  0  0
  1  2  2  0  0  0
  2  3  1  0  0  0
  3  4  1  0  0  0
  4  5  2  0  0  0
  5  6  1  0  0  0
  6  7  2  0  0  0
  7 19  1  0  0  0
 19 21  1  0  0  0
 21 22  2  0  0  0
 22 23  1  0  0  0
 23 24  2  0  0  0
 24 27  1  0  0  0
 27 29  1  0  0  0
 29 30  1  0  0  0
 30 31  1  0  0  0
 31 32  1  0  0  0
 32 33  1  0  0  0
 24 25  1  0  0  0
 25 26  2  0  0  0
  7  8  1  0  0  0
  8  9  2  0  0  0
  9 10  1  0  0  0
 10 14  1  0  0  0
 14 15  1  0  0  0
 15 16  1  0  0  0
 16 17  1  0  0  0
 17 18  1  0  0  0
 10 11  1  0  0  0
 11 12  1  0  0  0
 12 13  2  0  0  0
 13  1  1  0  0  0
 11  3  2  0  0  0
  9  4  1  0  0  0
 18 14  1  0  0  0
 26 21  1  0  0  0
 33 30  1  0  0  0
 19 20  1  0  0  0
 27 28  1  0  0  0
 32 34  1  0  0  0
M  END
> <minimizedAffinity>
-8.31778

> <CNNscore>
0.2624989450

> <CNNaffinity>
6.6302614212

> <CNN_VS>
1.7404366732

> <CNNaffinity_variance>
0.6163118482

$$$$
[H]Oc1c([H])c([H])c(C([H])([H])[C@@]2([H])C(=O)N(C([H])([H])c3c([H])c([H])c([H])c4c(C(=O)N([H])c5c([H])nc(N6C([H])([H])C([H])([H])C([H])(N7C([H])([H])C([H])([H])C7([H])[H])C([H])([H])C6([H])[H])c([H])c5[H])c([H])n(C([H])([H])[H])c34)C([H])([H])[C@]3([H])N(C(=O)N([H])C([H])([H])c4c([H])c([H])c([H])c([H])c4[H])N(C([H])([H])C([H])=C([H])[H])C([H])([H])C(=O)N23)c([H])c1[H]


 66 74  0  0  0  0  0  0  0  0999 V2000
    6.7714    8.3123   17.7426 N   0  0  0  0  0  0  0  0  0  0  0  0
    7.4060    7.0148   17.8907 C   0  0  0  0  0  0  0  0  0  0  0  0
    8.0771    7.1384   19.2483 C   0  0  0  0  0  0  0  0  0  0  0  0
    9.2854    6.8474   19.3080 O   0  0  0  0  0  0  0  0  0  0  0  0
    7.3234    7.5587   20.3441 N   0  0  0  0  0  0  0  0  0  0  0  0
    7.7040    7.1935   21.6787 C   0  0  0  0  0  0  0  0  0  0  0  0
    6.6828    6.1368   22.0288 C   0  0  0  0  0  0  0  0  0  0  0  0
    7.0061    5.1147   22.6093 O   0  0  0  0  0  0  0  0  0  0  0  0
    5.3471    6.3868   21.6568 N   0  0  0  0  0  0  0  0  0  0  0  0
    4.9565    7.5857   20.8757 C   0  0  0  0  0  0  0  0  0  0  0  0
    6.0850    8.2733   20.1819 C   0  0  0  0  0  0  0  0  0  0  0  0
    5.8850    8.6286   18.7957 N   0  0  0  0  0  0  0  0  0  0  0  0
    4.7400    9.3801   18.3865 C   0  0  0  0  0  0  0  0  0  0  0  0
    4.6139    9.5961   17.1341 O   0  0  0  0  0  0  0  0  0  0  0  0
    3.7357    9.9136   19.2036 N   0  0  0  0  0  0  0  0  0  0  0  0
    3.7592    9.7970   20.2168 H   0  0  0  0  0  0  0  0  0  0  0  0
    7.8872    9.2424   17.6571 C   0  0  0  0  0  0  0  0  0  0  0  0
    7.9878   11.3820   18.7992 C   0  0  0  0  0  0  0  0  0  0  0  0
    7.5363   10.6316   17.8304 C   0  0  0  0  0  0  0  0  0  0  0  0
    7.7770    8.2351   22.7133 C   0  0  0  0  0  0  0  0  0  0  0  0
    8.6921    8.0690   23.8452 C   0  0  0  0  0  0  0  0  0  0  0  0
    8.3484    8.5516   25.1093 C   0  0  0  0  0  0  0  0  0  0  0  0
    9.2313    8.4583   26.1637 C   0  0  0  0  0  0  0  0  0  0  0  0
   10.4854    7.8950   26.0363 C   0  0  0  0  0  0  0  0  0  0  0  0
   11.3218    7.8301   27.1346 O   0  0  0  0  0  0  0  0  0  0  0  0
   10.8268    7.4225   24.7999 C   0  0  0  0  0  0  0  0  0  0  0  0
    9.9442    7.5097   23.7234 C   0  0  0  0  0  0  0  0  0  0  0  0
   11.0564    8.1821   28.0479 H   0  0  0  0  0  0  0  0  0  0  0  0
    4.2314    5.4903   21.9646 C   0  0  0  0  0  0  0  0  0  0  0  0
    4.4692    4.1888   21.3327 C   0  0  0  0  0  0  0  0  0  0  0  0
    5.0877    3.1649   22.0013 C   0  0  0  0  0  0  0  0  0  0  0  0
    5.3672    1.9524   21.3947 C   0  0  0  0  0  0  0  0  0  0  0  0
    5.0182    1.7472   20.0724 C   0  0  0  0  0  0  0  0  0  0  0  0
    4.3838    2.7864   19.3798 C   0  0  0  0  0  0  0  0  0  0  0  0
    3.9146    2.8689   18.1117 C   0  0  0  0  0  0  0  0  0  0  0  0
    3.3629    4.1106   17.9759 C   0  0  0  0  0  0  0  0  0  0  0  0
    3.4714    4.8152   19.1160 N   0  0  0  0  0  0  0  0  0  0  0  0
    3.0018    6.1595   19.3418 C   0  0  0  0  0  0  0  0  0  0  0  0
    4.1105    3.9986   20.0018 C   0  0  0  0  0  0  0  0  0  0  0  0
    3.9775    1.8596   16.9993 C   0  0  0  0  0  0  0  0  0  0  0  0
    4.2648    0.6734   17.2670 O   0  0  0  0  0  0  0  0  0  0  0  0
    3.6910    2.3436   15.7096 N   0  0  0  0  0  0  0  0  0  0  0  0
    3.6114    1.0279   15.2994 H   0  0  0  0  0  0  0  0  0  0  0  0
    3.4279    2.7745   14.5068 C   0  0  0  0  0  0  0  0  0  0  0  0
    3.8530    4.0584   14.1071 C   0  0  0  0  0  0  0  0  0  0  0  0
    3.6195    4.5856   12.8916 C   0  0  0  0  0  0  0  0  0  0  0  0
    2.9180    3.8369   11.9745 C   0  0  0  0  0  0  0  0  0  0  0  0
    2.4756    2.5966   12.2828 N   0  0  0  0  0  0  0  0  0  0  0  0
    2.7213    2.0730   13.5060 C   0  0  0  0  0  0  0  0  0  0  0  0
    2.5879    4.3568   10.6831 N   0  0  0  0  0  0  0  0  0  0  0  0
    2.0251    5.6813   10.5907 C   0  0  0  0  0  0  0  0  0  0  0  0
    2.4666    6.4983    9.4330 C   0  0  0  0  0  0  0  0  0  0  0  0
    3.2388    5.7752    8.3867 C   0  0  0  0  0  0  0  0  0  0  0  0
    2.8285    4.3130    8.2449 C   0  0  0  0  0  0  0  0  0  0  0  0
    2.7906    3.5517    9.5113 C   0  0  0  0  0  0  0  0  0  0  0  0
    3.1972    6.3388    7.0842 N   0  0  0  0  0  0  0  0  0  0  0  0
    4.1317    7.3763    6.7868 C   0  0  0  0  0  0  0  0  0  0  0  0
    3.1232    7.9152    5.7921 C   0  0  0  0  0  0  0  0  0  0  0  0
    2.1210    7.1496    6.6538 C   0  0  0  0  0  0  0  0  0  0  0  0
    2.6203   10.6696   18.6408 C   0  0  0  0  0  0  0  0  0  0  0  0
    2.9819   12.1299   18.5210 C   0  0  0  0  0  0  0  0  0  0  0  0
    3.7296   12.7222   19.4841 C   0  0  0  0  0  0  0  0  0  0  0  0
    4.0259   14.1044   19.3777 C   0  0  0  0  0  0  0  0  0  0  0  0
    3.5449   14.8310   18.2892 C   0  0  0  0  0  0  0  0  0  0  0  0
    2.7766   14.1119   17.3518 C   0  0  0  0  0  0  0  0  0  0  0  0
    2.4962   12.8178   17.4388 C   0  0  0  0  0  0  0  0  0  0  0  0
 18 19  2  0  0  0
 19 17  1  0  0  0
 17  1  1  0  0  0
  1  2  1  0  0  0
  2  3  1  0  0  0
  3  4  2  0  0  0
  3  5  1  0  0  0
  5  6  1  0  0  0
  6 20  1  0  0  0
 20 21  1  0  0  0
 21 22  2  0  0  0
 22 23  1  0  0  0
 23 24  2  0  0  0
 24 25  1  0  0  0
 24 26  1  0  0  0
 26 27  2  0  0  0
  6  7  1  0  0  0
  7  8  2  0  0  0
  7  9  1  0  0  0
  9 29  1  0  0  0
 29 30  1  0  0  0
 30 31  2  0  0  0
 31 32  1  0  0  0
 32 33  2  0  0  0
 33 34  1  0  0  0
 34 35  1  0  0  0
 35 40  1  0  0  0
 40 41  2  0  0  0
 40 42  1  0  0  0
 42 44  1  0  0  0
 44 45  2  0  0  0
 45 46  1  0  0  0
 46 47  2  0  0  0
 47 50  1  0  0  0
 50 51  1  0  0  0
 51 52  1  0  0  0
 52 53  1  0  0  0
 53 56  1  0  0  0
 56 57  1  0  0  0
 57 58  1  0  0  0
 58 59  1  0  0  0
 53 54  1  0  0  0
 54 55  1  0  0  0
 47 48  1  0  0  0
 48 49  2  0  0  0
 35 36  2  0  0  0
 36 37  1  0  0  0
 37 38  1  0  0  0
 37 39  1  0  0  0
  9 10  1  0  0  0
 10 11  1  0  0  0
 11 12  1  0  0  0
 12 13  1  0  0  0
 13 14  2  0  0  0
 13 15  1  0  0  0
 15 60  1  0  0  0
 60 61  1  0  0  0
 61 62  2  0  0  0
 62 63  1  0  0  0
 63 64  2  0  0  0
 64 65  1  0  0  0
 65 66  2  0  0  0
 12  1  1  0  0  0
 66 61  1  0  0  0
 11  5  1  0  0  0
 27 21  1  0  0  0
 39 30  1  0  0  0
 39 34  2  0  0  0
 49 44  1  0  0  0
 55 50  1  0  0  0
 59 56  1  0  0  0
 25 28  1  0  0  0
 42 43  1  0  0  0
 15 16  1  0  0  0
M  END
> <minimizedAffinity>
-10.11545

> <CNNscore>
0.3078634739

> <CNNaffinity>
7.5121588707

> <CNN_VS>
2.3127193451

> <CNNaffinity_variance>
0.2612713873

$$$$
[H]Oc1c([H])c([H])c(C([H])([H])[C@@]2([H])C(=O)N(C([H])([H])c3c([H])c([H])c([H])c4c(C(=O)N([H])c5c([H])nc(N6C([H])([H])C([H])([H])C([H])(N7C([H])([H])C([H])([H])C7([H])[H])C([H])([H])C6([H])[H])c([H])c5[H])c([H])n(C([H])([H])[H])c34)C([H])([H])[C@]3([H])N(C(=O)N([H])C([H])([H])c4c([H])c([H])c([H])c([H])c4[H])N(C([H])([H])C([H])=C([H])[H])C([H])([H])C(=O)N23)c([H])c1[H]


 66 74  0  0  0  0  0  0  0  0999 V2000
    6.7501    8.3822   17.7269 N   0  0  0  0  0  0  0  0  0  0  0  0
    7.3934    7.0915   17.8953 C   0  0  0  0  0  0  0  0  0  0  0  0
    8.0475    7.2339   19.2593 C   0  0  0  0  0  0  0  0  0  0  0  0
    9.2574    6.9535   19.3360 O   0  0  0  0  0  0  0  0  0  0  0  0
    7.2775    7.6587   20.3420 N   0  0  0  0  0  0  0  0  0  0  0  0
    7.6454    7.3096   21.6845 C   0  0  0  0  0  0  0  0  0  0  0  0
    6.6287    6.2481   22.0331 C   0  0  0  0  0  0  0  0  0  0  0  0
    6.9534    5.2344   22.6274 O   0  0  0  0  0  0  0  0  0  0  0  0
    5.2955    6.4834   21.6431 N   0  0  0  0  0  0  0  0  0  0  0  0
    4.9044    7.6714   20.8456 C   0  0  0  0  0  0  0  0  0  0  0  0
    6.0354    8.3614   20.1583 C   0  0  0  0  0  0  0  0  0  0  0  0
    5.8488    8.7015   18.7664 N   0  0  0  0  0  0  0  0  0  0  0  0
    4.7027    9.4395   18.3364 C   0  0  0  0  0  0  0  0  0  0  0  0
    4.5896    9.6422   17.0806 O   0  0  0  0  0  0  0  0  0  0  0  0
    3.6846    9.9727   19.1364 N   0  0  0  0  0  0  0  0  0  0  0  0
    3.6970    9.8662   20.1510 H   0  0  0  0  0  0  0  0  0  0  0  0
    7.8593    9.3206   17.6454 C   0  0  0  0  0  0  0  0  0  0  0  0
    7.8681   11.7361   17.8847 C   0  0  0  0  0  0  0  0  0  0  0  0
    7.6759   10.5457   18.3861 C   0  0  0  0  0  0  0  0  0  0  0  0
    7.6977    8.3619   22.7096 C   0  0  0  0  0  0  0  0  0  0  0  0
    8.0072    9.7394   22.3186 C   0  0  0  0  0  0  0  0  0  0  0  0
    9.2607   10.0612   21.7949 C   0  0  0  0  0  0  0  0  0  0  0  0
    9.5823   11.3657   21.4866 C   0  0  0  0  0  0  0  0  0  0  0  0
    8.7030   12.4132   21.6751 C   0  0  0  0  0  0  0  0  0  0  0  0
    9.0874   13.6984   21.3427 O   0  0  0  0  0  0  0  0  0  0  0  0
    7.4749   12.1028   22.1891 C   0  0  0  0  0  0  0  0  0  0  0  0
    7.1348   10.7878   22.5058 C   0  0  0  0  0  0  0  0  0  0  0  0
   10.0009   13.9160   20.9598 H   0  0  0  0  0  0  0  0  0  0  0  0
    4.1835    5.5808   21.9465 C   0  0  0  0  0  0  0  0  0  0  0  0
    4.4440    4.2723   21.3386 C   0  0  0  0  0  0  0  0  0  0  0  0
    5.0635    3.2655   22.0318 C   0  0  0  0  0  0  0  0  0  0  0  0
    5.3643    2.0468   21.4483 C   0  0  0  0  0  0  0  0  0  0  0  0
    5.0363    1.8175   20.1246 C   0  0  0  0  0  0  0  0  0  0  0  0
    4.4011    2.8389   19.4069 C   0  0  0  0  0  0  0  0  0  0  0  0
    3.9492    2.8967   18.1311 C   0  0  0  0  0  0  0  0  0  0  0  0
    3.3866    4.1302   17.9681 C   0  0  0  0  0  0  0  0  0  0  0  0
    3.4715    4.8535   19.0985 N   0  0  0  0  0  0  0  0  0  0  0  0
    2.9846    6.1961   19.2965 C   0  0  0  0  0  0  0  0  0  0  0  0
    4.1063    4.0576   20.0058 C   0  0  0  0  0  0  0  0  0  0  0  0
    4.0386    1.8710   17.0357 C   0  0  0  0  0  0  0  0  0  0  0  0
    4.3801    0.7030   17.3195 O   0  0  0  0  0  0  0  0  0  0  0  0
    3.7126    2.3189   15.7424 N   0  0  0  0  0  0  0  0  0  0  0  0
    3.6831    0.9938   15.3565 H   0  0  0  0  0  0  0  0  0  0  0  0
    3.4135    2.7165   14.5365 C   0  0  0  0  0  0  0  0  0  0  0  0
    3.9399    3.9271   14.0402 C   0  0  0  0  0  0  0  0  0  0  0  0
    3.6793    4.4165   12.8146 C   0  0  0  0  0  0  0  0  0  0  0  0
    2.8435    3.7028   11.9863 C   0  0  0  0  0  0  0  0  0  0  0  0
    2.2981    2.5329   12.3901 N   0  0  0  0  0  0  0  0  0  0  0  0
    2.5718    2.0462   13.6226 C   0  0  0  0  0  0  0  0  0  0  0  0
    2.4811    4.1915   10.6914 N   0  0  0  0  0  0  0  0  0  0  0  0
    2.1219    3.2429    9.6664 C   0  0  0  0  0  0  0  0  0  0  0  0
    1.0209    3.6496    8.7580 C   0  0  0  0  0  0  0  0  0  0  0  0
    0.5895    5.0701    8.8587 C   0  0  0  0  0  0  0  0  0  0  0  0
    1.7258    6.0142    9.2381 C   0  0  0  0  0  0  0  0  0  0  0  0
    2.5080    5.6020   10.4226 C   0  0  0  0  0  0  0  0  0  0  0  0
   -0.0247    5.6154    7.7005 N   0  0  0  0  0  0  0  0  0  0  0  0
   -0.1507    4.7647    6.5610 C   0  0  0  0  0  0  0  0  0  0  0  0
   -0.0944    6.0113    5.7010 C   0  0  0  0  0  0  0  0  0  0  0  0
    0.6046    6.6122    6.9188 C   0  0  0  0  0  0  0  0  0  0  0  0
    2.5698   10.7140   18.5532 C   0  0  0  0  0  0  0  0  0  0  0  0
    2.9024   12.1836   18.4684 C   0  0  0  0  0  0  0  0  0  0  0  0
    3.5947   12.7788   19.4703 C   0  0  0  0  0  0  0  0  0  0  0  0
    3.8633   14.1687   19.3950 C   0  0  0  0  0  0  0  0  0  0  0  0
    3.4123   14.8997   18.2966 C   0  0  0  0  0  0  0  0  0  0  0  0
    2.7013   14.1769   17.3178 C   0  0  0  0  0  0  0  0  0  0  0  0
    2.4474   12.8757   17.3756 C   0  0  0  0  0  0  0  0  0  0  0  0
 18 19  2  0  0  0
 19 17  1  0  0  0
 17  1  1  0  0  0
  1  2  1  0  0  0
  2  3  1  0  0  0
  3  4  2  0  0  0
  3  5  1  0  0  0
  5  6  1  0  0  0
  6 20  1  0  0  0
 20 21  1  0  0  0
 21 22  2  0  0  0
 22 23  1  0  0  0
 23 24  2  0  0  0
 24 25  1  0  0  0
 24 26  1  0  0  0
 26 27  2  0  0  0
  6  7  1  0  0  0
  7  8  2  0  0  0
  7  9  1  0  0  0
  9 29  1  0  0  0
 29 30  1  0  0  0
 30 31  2  0  0  0
 31 32  1  0  0  0
 32 33  2  0  0  0
 33 34  1  0  0  0
 34 35  1  0  0  0
 35 40  1  0  0  0
 40 41  2  0  0  0
 40 42  1  0  0  0
 42 44  1  0  0  0
 44 45  2  0  0  0
 45 46  1  0  0  0
 46 47  2  0  0  0
 47 50  1  0  0  0
 50 51  1  0  0  0
 51 52  1  0  0  0
 52 53  1  0  0  0
 53 56  1  0  0  0
 56 57  1  0  0  0
 57 58  1  0  0  0
 58 59  1  0  0  0
 53 54  1  0  0  0
 54 55  1  0  0  0
 47 48  1  0  0  0
 48 49  2  0  0  0
 35 36  2  0  0  0
 36 37  1  0  0  0
 37 38  1  0  0  0
 37 39  1  0  0  0
  9 10  1  0  0  0
 10 11  1  0  0  0
 11 12  1  0  0  0
 12 13  1  0  0  0
 13 14  2  0  0  0
 13 15  1  0  0  0
 15 60  1  0  0  0
 60 61  1  0  0  0
 61 62  2  0  0  0
 62 63  1  0  0  0
 63 64  2  0  0  0
 64 65  1  0  0  0
 65 66  2  0  0  0
 12  1  1  0  0  0
 66 61  1  0  0  0
 11  5  1  0  0  0
 27 21  1  0  0  0
 39 30  1  0  0  0
 39 34  2  0  0  0
 49 44  1  0  0  0
 55 50  1  0  0  0
 59 56  1  0  0  0
 25 28  1  0  0  0
 42 43  1  0  0  0
 15 16  1  0  0  0
M  END
> <minimizedAffinity>
-9.94474

> <CNNscore>
0.2913110554

> <CNNaffinity>
7.4989404678

> <CNN_VS>
2.1845242977

> <CNNaffinity_variance>
0.2786635756

$$$$
[H]Oc1c([H])c([H])c(C([H])([H])[C@@]2([H])C(=O)N(C([H])([H])c3c([H])c([H])c([H])c4c(C(=O)N([H])c5c([H])nc(N6C([H])([H])C([H])([H])C([H])(N7C([H])([H])C([H])([H])C7([H])[H])C([H])([H])C6([H])[H])c([H])c5[H])c([H])n(C([H])([H])[H])c34)C([H])([H])[C@]3([H])N(C(=O)N([H])C([H])([H])c4c([H])c([H])c([H])c([H])c4[H])N(C([H])([H])C([H])=C([H])[H])C([H])([H])C(=O)N23)c([H])c1[H]


 66 74  0  0  0  0  0  0  0  0999 V2000
    7.0904    8.7239   18.0967 N   0  0  0  0  0  0  0  0  0  0  0  0
    7.8050    7.4618   18.1637 C   0  0  0  0  0  0  0  0  0  0  0  0
    8.2398    7.4154   19.6188 C   0  0  0  0  0  0  0  0  0  0  0  0
    9.4444    7.1955   19.8401 O   0  0  0  0  0  0  0  0  0  0  0  0
    7.2886    7.6124   20.6197 N   0  0  0  0  0  0  0  0  0  0  0  0
    7.4843    7.0695   21.9337 C   0  0  0  0  0  0  0  0  0  0  0  0
    6.5172    5.9090   21.9515 C   0  0  0  0  0  0  0  0  0  0  0  0
    6.8332    4.8317   22.4267 O   0  0  0  0  0  0  0  0  0  0  0  0
    5.2403    6.1289   21.3983 N   0  0  0  0  0  0  0  0  0  0  0  0
    4.8743    7.4074   20.7413 C   0  0  0  0  0  0  0  0  0  0  0  0
    6.0335    8.2640   20.3538 C   0  0  0  0  0  0  0  0  0  0  0  0
    6.0245    8.8166   19.0187 N   0  0  0  0  0  0  0  0  0  0  0  0
    4.8971    9.5488   18.5329 C   0  0  0  0  0  0  0  0  0  0  0  0
    4.9518    9.9479   17.3210 O   0  0  0  0  0  0  0  0  0  0  0  0
    3.7335    9.8847   19.2357 N   0  0  0  0  0  0  0  0  0  0  0  0
    3.6068    9.6142   20.2112 H   0  0  0  0  0  0  0  0  0  0  0  0
    8.1198    9.7245   18.3348 C   0  0  0  0  0  0  0  0  0  0  0  0
    7.6999   11.8009   19.5200 C   0  0  0  0  0  0  0  0  0  0  0  0
    7.6386   11.0817   18.4317 C   0  0  0  0  0  0  0  0  0  0  0  0
    7.3012    7.9406   23.1034 C   0  0  0  0  0  0  0  0  0  0  0  0
    8.0281    9.2101   23.1820 C   0  0  0  0  0  0  0  0  0  0  0  0
    7.3378   10.4232   23.1531 C   0  0  0  0  0  0  0  0  0  0  0  0
    8.0182   11.6220   23.1599 C   0  0  0  0  0  0  0  0  0  0  0  0
    9.3965   11.6949   23.1928 C   0  0  0  0  0  0  0  0  0  0  0  0
   10.0170   12.9298   23.2003 O   0  0  0  0  0  0  0  0  0  0  0  0
   10.0766   10.5095   23.2196 C   0  0  0  0  0  0  0  0  0  0  0  0
    9.4022    9.2886   23.2134 C   0  0  0  0  0  0  0  0  0  0  0  0
    9.5015   13.8030   23.1825 H   0  0  0  0  0  0  0  0  0  0  0  0
    4.1730    5.1270   21.3817 C   0  0  0  0  0  0  0  0  0  0  0  0
    3.7767    4.8665   19.9944 C   0  0  0  0  0  0  0  0  0  0  0  0
    3.2184    5.8407   19.2088 C   0  0  0  0  0  0  0  0  0  0  0  0
    2.7892    5.5887   17.9171 C   0  0  0  0  0  0  0  0  0  0  0  0
    2.9203    4.3198   17.3832 C   0  0  0  0  0  0  0  0  0  0  0  0
    3.4913    3.3166   18.1765 C   0  0  0  0  0  0  0  0  0  0  0  0
    3.7636    2.0139   17.9237 C   0  0  0  0  0  0  0  0  0  0  0  0
    4.3487    1.5082   19.0492 C   0  0  0  0  0  0  0  0  0  0  0  0
    4.4517    2.4487   20.0048 N   0  0  0  0  0  0  0  0  0  0  0  0
    5.0165    2.2768   21.3201 C   0  0  0  0  0  0  0  0  0  0  0  0
    3.9167    3.5843   19.4721 C   0  0  0  0  0  0  0  0  0  0  0  0
    3.4805    1.1972   16.6938 C   0  0  0  0  0  0  0  0  0  0  0  0
    3.3479   -0.0407   16.8002 O   0  0  0  0  0  0  0  0  0  0  0  0
    3.3758    1.9138   15.4875 N   0  0  0  0  0  0  0  0  0  0  0  0
    2.8544    0.7675   14.9221 H   0  0  0  0  0  0  0  0  0  0  0  0
    3.2751    2.5618   14.3597 C   0  0  0  0  0  0  0  0  0  0  0  0
    4.0189    3.7421   14.1536 C   0  0  0  0  0  0  0  0  0  0  0  0
    3.9711    4.4766   13.0276 C   0  0  0  0  0  0  0  0  0  0  0  0
    3.1437    4.0634   12.0084 C   0  0  0  0  0  0  0  0  0  0  0  0
    2.3975    2.9422   12.1304 N   0  0  0  0  0  0  0  0  0  0  0  0
    2.4578    2.2070   13.2647 C   0  0  0  0  0  0  0  0  0  0  0  0
    3.0035    4.8258   10.8059 N   0  0  0  0  0  0  0  0  0  0  0  0
    2.1091    5.9570   10.8008 C   0  0  0  0  0  0  0  0  0  0  0  0
    2.5565    7.1389   10.0227 C   0  0  0  0  0  0  0  0  0  0  0  0
    3.7450    6.9294    9.1523 C   0  0  0  0  0  0  0  0  0  0  0  0
    3.8433    5.5082    8.6073 C   0  0  0  0  0  0  0  0  0  0  0  0
    3.7236    4.4421    9.6241 C   0  0  0  0  0  0  0  0  0  0  0  0
    3.8600    7.8025    8.0386 N   0  0  0  0  0  0  0  0  0  0  0  0
    5.0552    8.5756    7.9301 C   0  0  0  0  0  0  0  0  0  0  0  0
    4.2410    9.6169    7.1887 C   0  0  0  0  0  0  0  0  0  0  0  0
    3.0654    8.9661    7.9149 C   0  0  0  0  0  0  0  0  0  0  0  0
    2.6590   10.6470   18.6058 C   0  0  0  0  0  0  0  0  0  0  0  0
    3.0226   12.1100   18.5367 C   0  0  0  0  0  0  0  0  0  0  0  0
    3.7642   12.6696   19.5238 C   0  0  0  0  0  0  0  0  0  0  0  0
    4.0623   14.0542   19.4651 C   0  0  0  0  0  0  0  0  0  0  0  0
    3.5895   14.8168   18.3978 C   0  0  0  0  0  0  0  0  0  0  0  0
    2.8270   14.1297   17.4320 C   0  0  0  0  0  0  0  0  0  0  0  0
    2.5449   12.8337   17.4745 C   0  0  0  0  0  0  0  0  0  0  0  0
 18 19  2  0  0  0
 19 17  1  0  0  0
 17  1  1  0  0  0
  1  2  1  0  0  0
  2  3  1  0  0  0
  3  4  2  0  0  0
  3  5  1  0  0  0
  5  6  1  0  0  0
  6 20  1  0  0  0
 20 21  1  0  0  0
 21 22  2  0  0  0
 22 23  1  0  0  0
 23 24  2  0  0  0
 24 25  1  0  0  0
 24 26  1  0  0  0
 26 27  2  0  0  0
  6  7  1  0  0  0
  7  8  2  0  0  0
  7  9  1  0  0  0
  9 29  1  0  0  0
 29 30  1  0  0  0
 30 31  2  0  0  0
 31 32  1  0  0  0
 32 33  2  0  0  0
 33 34  1  0  0  0
 34 35  1  0  0  0
 35 40  1  0  0  0
 40 41  2  0  0  0
 40 42  1  0  0  0
 42 44  1  0  0  0
 44 45  2  0  0  0
 45 46  1  0  0  0
 46 47  2  0  0  0
 47 50  1  0  0  0
 50 51  1  0  0  0
 51 52  1  0  0  0
 52 53  1  0  0  0
 53 56  1  0  0  0
 56 57  1  0  0  0
 57 58  1  0  0  0
 58 59  1  0  0  0
 53 54  1  0  0  0
 54 55  1  0  0  0
 47 48  1  0  0  0
 48 49  2  0  0  0
 35 36  2  0  0  0
 36 37  1  0  0  0
 37 38  1  0  0  0
 37 39  1  0  0  0
  9 10  1  0  0  0
 10 11  1  0  0  0
 11 12  1  0  0  0
 12 13  1  0  0  0
 13 14  2  0  0  0
 13 15  1  0  0  0
 15 60  1  0  0  0
 60 61  1  0  0  0
 61 62  2  0  0  0
 62 63  1  0  0  0
 63 64  2  0  0  0
 64 65  1  0  0  0
 65 66  2  0  0  0
 12  1  1  0  0  0
 66 61  1  0  0  0
 11  5  1  0  0  0
 27 21  1  0  0  0
 39 30  1  0  0  0
 39 34  2  0  0  0
 49 44  1  0  0  0
 55 50  1  0  0  0
 59 56  1  0  0  0
 25 28  1  0  0  0
 42 43  1  0  0  0
 15 16  1  0  0  0
M  END
> <minimizedAffinity>
-10.25125

> <CNNscore>
0.2689056396

> <CNNaffinity>
7.6631073952

> <CNN_VS>
2.0606527328

> <CNNaffinity_variance>
0.2592341602

$$$$
[H]Oc1c([H])c([H])c(C([H])([H])[C@@]2([H])C(=O)N(C([H])([H])c3c([H])c([H])c([H])c4c(C(=O)N([H])c5c([H])nc(N6C([H])([H])C([H])([H])C([H])(N7C([H])([H])C([H])([H])C7([H])[H])C([H])([H])C6([H])[H])c([H])c5[H])c([H])n(C([H])([H])[H])c34)C([H])([H])[C@]3([H])N(C(=O)N([H])C([H])([H])c4c([H])c([H])c([H])c([H])c4[H])N(C([H])([H])C([H])=C([H])[H])C([H])([H])C(=O)N23)c([H])c1[H]


 66 74  0  0  0  0  0  0  0  0999 V2000
    7.0898    8.7216   18.1279 N   0  0  0  0  0  0  0  0  0  0  0  0
    7.8101    7.4622   18.1824 C   0  0  0  0  0  0  0  0  0  0  0  0
    8.2444    7.4030   19.6372 C   0  0  0  0  0  0  0  0  0  0  0  0
    9.4499    7.1864   19.8570 O   0  0  0  0  0  0  0  0  0  0  0  0
    7.2917    7.5853   20.6396 N   0  0  0  0  0  0  0  0  0  0  0  0
    7.4892    7.0299   21.9480 C   0  0  0  0  0  0  0  0  0  0  0  0
    6.5276    5.8648   21.9535 C   0  0  0  0  0  0  0  0  0  0  0  0
    6.8484    4.7842   22.4178 O   0  0  0  0  0  0  0  0  0  0  0  0
    5.2499    6.0844   21.4018 N   0  0  0  0  0  0  0  0  0  0  0  0
    4.8784    7.3679   20.7577 C   0  0  0  0  0  0  0  0  0  0  0  0
    6.0338    8.2337   20.3795 C   0  0  0  0  0  0  0  0  0  0  0  0
    6.0230    8.7999   19.0502 N   0  0  0  0  0  0  0  0  0  0  0  0
    4.8924    9.5318   18.5712 C   0  0  0  0  0  0  0  0  0  0  0  0
    4.9460    9.9435   17.3635 O   0  0  0  0  0  0  0  0  0  0  0  0
    3.7269    9.8551   19.2768 N   0  0  0  0  0  0  0  0  0  0  0  0
    3.6009    9.5740   20.2494 H   0  0  0  0  0  0  0  0  0  0  0  0
    8.1144    9.7244   18.3768 C   0  0  0  0  0  0  0  0  0  0  0  0
    7.6036   12.0972   18.4144 C   0  0  0  0  0  0  0  0  0  0  0  0
    7.8774   11.0045   17.7537 C   0  0  0  0  0  0  0  0  0  0  0  0
    7.3015    7.8881   23.1265 C   0  0  0  0  0  0  0  0  0  0  0  0
    8.3045    7.8819   24.1943 C   0  0  0  0  0  0  0  0  0  0  0  0
    9.2818    6.8860   24.2408 C   0  0  0  0  0  0  0  0  0  0  0  0
   10.1878    6.8351   25.2785 C   0  0  0  0  0  0  0  0  0  0  0  0
   10.1829    7.7463   26.3158 C   0  0  0  0  0  0  0  0  0  0  0  0
   11.1213    7.6404   27.3248 O   0  0  0  0  0  0  0  0  0  0  0  0
    9.2267    8.7223   26.2750 C   0  0  0  0  0  0  0  0  0  0  0  0
    8.3033    8.7870   25.2317 C   0  0  0  0  0  0  0  0  0  0  0  0
   11.8276    6.9129   27.3430 H   0  0  0  0  0  0  0  0  0  0  0  0
    4.1873    5.0778   21.3743 C   0  0  0  0  0  0  0  0  0  0  0  0
    3.7971    4.8254   19.9838 C   0  0  0  0  0  0  0  0  0  0  0  0
    3.2526    5.8072   19.1980 C   0  0  0  0  0  0  0  0  0  0  0  0
    2.8290    5.5633   17.9029 C   0  0  0  0  0  0  0  0  0  0  0  0
    2.9515    4.2949   17.3657 C   0  0  0  0  0  0  0  0  0  0  0  0
    3.5082    3.2840   18.1593 C   0  0  0  0  0  0  0  0  0  0  0  0
    3.7699    1.9795   17.9040 C   0  0  0  0  0  0  0  0  0  0  0  0
    4.3433    1.4649   19.0313 C   0  0  0  0  0  0  0  0  0  0  0  0
    4.4494    2.4013   19.9905 N   0  0  0  0  0  0  0  0  0  0  0  0
    5.0045    2.2201   21.3088 C   0  0  0  0  0  0  0  0  0  0  0  0
    3.9283    3.5436   19.4583 C   0  0  0  0  0  0  0  0  0  0  0  0
    3.4867    1.1694   16.6698 C   0  0  0  0  0  0  0  0  0  0  0  0
    3.5375   -0.0775   16.7330 O   0  0  0  0  0  0  0  0  0  0  0  0
    3.1692    1.9009   15.5105 N   0  0  0  0  0  0  0  0  0  0  0  0
    2.7601    0.7101   14.9445 H   0  0  0  0  0  0  0  0  0  0  0  0
    2.8726    2.5625   14.4261 C   0  0  0  0  0  0  0  0  0  0  0  0
    1.6576    2.3122   13.7552 C   0  0  0  0  0  0  0  0  0  0  0  0
    1.2747    2.9406   12.6290 C   0  0  0  0  0  0  0  0  0  0  0  0
    2.1155    3.8846   12.0852 C   0  0  0  0  0  0  0  0  0  0  0  0
    3.2989    4.1801   12.6693 N   0  0  0  0  0  0  0  0  0  0  0  0
    3.6718    3.5469   13.8055 C   0  0  0  0  0  0  0  0  0  0  0  0
    1.7956    4.5515   10.8605 N   0  0  0  0  0  0  0  0  0  0  0  0
    1.6539    3.7670    9.6588 C   0  0  0  0  0  0  0  0  0  0  0  0
    0.5848    4.1950    8.7226 C   0  0  0  0  0  0  0  0  0  0  0  0
   -0.0439    5.5115    9.0155 C   0  0  0  0  0  0  0  0  0  0  0  0
    0.9179    6.5017    9.6642 C   0  0  0  0  0  0  0  0  0  0  0  0
    1.6507    5.9801   10.8371 C   0  0  0  0  0  0  0  0  0  0  0  0
   -0.6311    6.1785    7.9083 N   0  0  0  0  0  0  0  0  0  0  0  0
    0.0544    7.3176    7.3881 C   0  0  0  0  0  0  0  0  0  0  0  0
   -1.2929    7.8466    6.9391 C   0  0  0  0  0  0  0  0  0  0  0  0
   -1.8276    6.9228    8.0317 C   0  0  0  0  0  0  0  0  0  0  0  0
    2.6492   10.6188   18.6541 C   0  0  0  0  0  0  0  0  0  0  0  0
    3.0006   12.0858   18.6115 C   0  0  0  0  0  0  0  0  0  0  0  0
    2.4963   12.8735   17.6302 C   0  0  0  0  0  0  0  0  0  0  0  0
    2.8689   14.2403   17.5801 C   0  0  0  0  0  0  0  0  0  0  0  0
    3.7455   14.7516   18.5363 C   0  0  0  0  0  0  0  0  0  0  0  0
    4.2080   13.8404   19.5068 C   0  0  0  0  0  0  0  0  0  0  0  0
    3.8633   12.5603   19.5660 C   0  0  0  0  0  0  0  0  0  0  0  0
 18 19  2  0  0  0
 19 17  1  0  0  0
 17  1  1  0  0  0
  1  2  1  0  0  0
  2  3  1  0  0  0
  3  4  2  0  0  0
  3  5  1  0  0  0
  5  6  1  0  0  0
  6 20  1  0  0  0
 20 21  1  0  0  0
 21 22  2  0  0  0
 22 23  1  0  0  0
 23 24  2  0  0  0
 24 25  1  0  0  0
 24 26  1  0  0  0
 26 27  2  0  0  0
  6  7  1  0  0  0
  7  8  2  0  0  0
  7  9  1  0  0  0
  9 29  1  0  0  0
 29 30  1  0  0  0
 30 31  2  0  0  0
 31 32  1  0  0  0
 32 33  2  0  0  0
 33 34  1  0  0  0
 34 35  1  0  0  0
 35 40  1  0  0  0
 40 41  2  0  0  0
 40 42  1  0  0  0
 42 44  1  0  0  0
 44 45  2  0  0  0
 45 46  1  0  0  0
 46 47  2  0  0  0
 47 50  1  0  0  0
 50 51  1  0  0  0
 51 52  1  0  0  0
 52 53  1  0  0  0
 53 56  1  0  0  0
 56 57  1  0  0  0
 57 58  1  0  0  0
 58 59  1  0  0  0
 53 54  1  0  0  0
 54 55  1  0  0  0
 47 48  1  0  0  0
 48 49  2  0  0  0
 35 36  2  0  0  0
 36 37  1  0  0  0
 37 38  1  0  0  0
 37 39  1  0  0  0
  9 10  1  0  0  0
 10 11  1  0  0  0
 11 12  1  0  0  0
 12 13  1  0  0  0
 13 14  2  0  0  0
 13 15  1  0  0  0
 15 60  1  0  0  0
 60 61  1  0  0  0
 61 62  2  0  0  0
 62 63  1  0  0  0
 63 64  2  0  0  0
 64 65  1  0  0  0
 65 66  2  0  0  0
 12  1  1  0  0  0
 66 61  1  0  0  0
 11  5  1  0  0  0
 27 21  1  0  0  0
 39 30  1  0  0  0
 39 34  2  0  0  0
 49 44  1  0  0  0
 55 50  1  0  0  0
 59 56  1  0  0  0
 25 28  1  0  0  0
 42 43  1  0  0  0
 15 16  1  0  0  0
M  END
> <minimizedAffinity>
-10.12301

> <CNNscore>
0.2593961358

> <CNNaffinity>
7.5852646828

> <CNN_VS>
1.9675883055

> <CNNaffinity_variance>
0.2493955195

$$$$
[H]Oc1c([H])c([H])c(C([H])([H])[C@@]2([H])C(=O)N(C([H])([H])c3c([H])c([H])c([H])c4c(C(=O)N([H])c5c([H])nc(N6C([H])([H])C([H])([H])C([H])(N7C([H])([H])C([H])([H])C7([H])[H])C([H])([H])C6([H])[H])c([H])c5[H])c([H])n(C([H])([H])[H])c34)C([H])([H])[C@]3([H])N(C(=O)N([H])C([H])([H])c4c([H])c([H])c([H])c([H])c4[H])N(C([H])([H])C([H])=C([H])[H])C([H])([H])C(=O)N23)c([H])c1[H]


 66 74  0  0  0  0  0  0  0  0999 V2000
    6.8385    8.2458   17.8368 N   0  0  0  0  0  0  0  0  0  0  0  0
    7.4794    6.9549   18.0120 C   0  0  0  0  0  0  0  0  0  0  0  0
    8.1156    7.0956   19.3846 C   0  0  0  0  0  0  0  0  0  0  0  0
    9.3244    6.8150   19.4768 O   0  0  0  0  0  0  0  0  0  0  0  0
    7.3317    7.5192   20.4577 N   0  0  0  0  0  0  0  0  0  0  0  0
    7.6820    7.1687   21.8045 C   0  0  0  0  0  0  0  0  0  0  0  0
    6.6607    6.1068   22.1385 C   0  0  0  0  0  0  0  0  0  0  0  0
    6.9777    5.0924   22.7359 O   0  0  0  0  0  0  0  0  0  0  0  0
    5.3327    6.3427   21.7314 N   0  0  0  0  0  0  0  0  0  0  0  0
    4.9522    7.5316   20.9303 C   0  0  0  0  0  0  0  0  0  0  0  0
    6.0921    8.2223   20.2586 C   0  0  0  0  0  0  0  0  0  0  0  0
    5.9237    8.5640   18.8647 N   0  0  0  0  0  0  0  0  0  0  0  0
    4.7833    9.3026   18.4207 C   0  0  0  0  0  0  0  0  0  0  0  0
    4.6866    9.5067   17.1637 O   0  0  0  0  0  0  0  0  0  0  0  0
    3.7549    9.8349   19.2079 N   0  0  0  0  0  0  0  0  0  0  0  0
    3.7541    9.7272   20.2225 H   0  0  0  0  0  0  0  0  0  0  0  0
    7.9487    9.1841   17.7707 C   0  0  0  0  0  0  0  0  0  0  0  0
    7.7853   11.5479   18.2984 C   0  0  0  0  0  0  0  0  0  0  0  0
    7.5761   10.5487   17.4839 C   0  0  0  0  0  0  0  0  0  0  0  0
    7.7209    8.2197   22.8313 C   0  0  0  0  0  0  0  0  0  0  0  0
    8.5381    8.0293   24.0322 C   0  0  0  0  0  0  0  0  0  0  0  0
    8.4854    8.9533   25.0775 C   0  0  0  0  0  0  0  0  0  0  0  0
    9.2997    8.8165   26.1812 C   0  0  0  0  0  0  0  0  0  0  0  0
   10.2008    7.7794   26.3170 C   0  0  0  0  0  0  0  0  0  0  0  0
   10.9866    7.6989   27.4511 O   0  0  0  0  0  0  0  0  0  0  0  0
   10.2569    6.8731   25.2953 C   0  0  0  0  0  0  0  0  0  0  0  0
    9.4393    6.9980   24.1721 C   0  0  0  0  0  0  0  0  0  0  0  0
   10.9343    8.3764   28.2039 H   0  0  0  0  0  0  0  0  0  0  0  0
    4.2169    5.4398   22.0193 C   0  0  0  0  0  0  0  0  0  0  0  0
    4.4760    4.1380   21.3967 C   0  0  0  0  0  0  0  0  0  0  0  0
    5.0728    3.1149   22.0859 C   0  0  0  0  0  0  0  0  0  0  0  0
    5.3726    1.9021   21.4897 C   0  0  0  0  0  0  0  0  0  0  0  0
    5.0671    1.6958   20.1569 C   0  0  0  0  0  0  0  0  0  0  0  0
    4.4553    2.7340   19.4431 C   0  0  0  0  0  0  0  0  0  0  0  0
    4.0277    2.8153   18.1602 C   0  0  0  0  0  0  0  0  0  0  0  0
    3.4801    4.0566   18.0055 C   0  0  0  0  0  0  0  0  0  0  0  0
    3.5509    4.7621   19.1480 N   0  0  0  0  0  0  0  0  0  0  0  0
    3.0734    6.1064   19.3572 C   0  0  0  0  0  0  0  0  0  0  0  0
    4.1611    3.9466   20.0548 C   0  0  0  0  0  0  0  0  0  0  0  0
    4.1275    1.8052   17.0513 C   0  0  0  0  0  0  0  0  0  0  0  0
    4.7169    0.7237   17.2620 O   0  0  0  0  0  0  0  0  0  0  0  0
    3.5242    2.1650   15.8322 N   0  0  0  0  0  0  0  0  0  0  0  0
    3.6759    0.8506   15.4388 H   0  0  0  0  0  0  0  0  0  0  0  0
    2.9700    2.4817   14.6945 C   0  0  0  0  0  0  0  0  0  0  0  0
    1.8366    1.7764   14.2397 C   0  0  0  0  0  0  0  0  0  0  0  0
    1.2068    2.0297   13.0782 C   0  0  0  0  0  0  0  0  0  0  0  0
    1.6934    3.0335   12.2724 C   0  0  0  0  0  0  0  0  0  0  0  0
    2.7773    3.7547   12.6386 N   0  0  0  0  0  0  0  0  0  0  0  0
    3.3996    3.4962   13.8119 C   0  0  0  0  0  0  0  0  0  0  0  0
    1.1054    3.3197   10.9999 N   0  0  0  0  0  0  0  0  0  0  0  0
    0.8657    2.2312   10.0848 C   0  0  0  0  0  0  0  0  0  0  0  0
   -0.3823    2.3135    9.2859 C   0  0  0  0  0  0  0  0  0  0  0  0
   -1.1057    3.6124    9.3462 C   0  0  0  0  0  0  0  0  0  0  0  0
   -0.1750    4.8064    9.5319 C   0  0  0  0  0  0  0  0  0  0  0  0
    0.7924    4.6747   10.6416 C   0  0  0  0  0  0  0  0  0  0  0  0
   -1.9369    3.9117    8.2348 N   0  0  0  0  0  0  0  0  0  0  0  0
   -3.3450    3.9682    8.4633 C   0  0  0  0  0  0  0  0  0  0  0  0
   -3.5340    3.5564    7.0172 C   0  0  0  0  0  0  0  0  0  0  0  0
   -2.1204    2.9987    7.1702 C   0  0  0  0  0  0  0  0  0  0  0  0
    2.6479   10.5769   18.6111 C   0  0  0  0  0  0  0  0  0  0  0  0
    3.0114   12.0339   18.4612 C   0  0  0  0  0  0  0  0  0  0  0  0
    3.8356   12.6211   19.3631 C   0  0  0  0  0  0  0  0  0  0  0  0
    4.1344   14.0006   19.2317 C   0  0  0  0  0  0  0  0  0  0  0  0
    3.5777   14.7299   18.1818 C   0  0  0  0  0  0  0  0  0  0  0  0
    2.7338   14.0162   17.3073 C   0  0  0  0  0  0  0  0  0  0  0  0
    2.4501   12.7246   17.4180 C   0  0  0  0  0  0  0  0  0  0  0  0
 18 19  2  0  0  0
 19 17  1  0  0  0
 17  1  1  0  0  0
  1  2  1  0  0  0
  2  3  1  0  0  0
  3  4  2  0  0  0
  3  5  1  0  0  0
  5  6  1  0  0  0
  6 20  1  0  0  0
 20 21  1  0  0  0
 21 22  2  0  0  0
 22 23  1  0  0  0
 23 24  2  0  0  0
 24 25  1  0  0  0
 24 26  1  0  0  0
 26 27  2  0  0  0
  6  7  1  0  0  0
  7  8  2  0  0  0
  7  9  1  0  0  0
  9 29  1  0  0  0
 29 30  1  0  0  0
 30 31  2  0  0  0
 31 32  1  0  0  0
 32 33  2  0  0  0
 33 34  1  0  0  0
 34 35  1  0  0  0
 35 40  1  0  0  0
 40 41  2  0  0  0
 40 42  1  0  0  0
 42 44  1  0  0  0
 44 45  2  0  0  0
 45 46  1  0  0  0
 46 47  2  0  0  0
 47 50  1  0  0  0
 50 51  1  0  0  0
 51 52  1  0  0  0
 52 53  1  0  0  0
 53 56  1  0  0  0
 56 57  1  0  0  0
 57 58  1  0  0  0
 58 59  1  0  0  0
 53 54  1  0  0  0
 54 55  1  0  0  0
 47 48  1  0  0  0
 48 49  2  0  0  0
 35 36  2  0  0  0
 36 37  1  0  0  0
 37 38  1  0  0  0
 37 39  1  0  0  0
  9 10  1  0  0  0
 10 11  1  0  0  0
 11 12  1  0  0  0
 12 13  1  0  0  0
 13 14  2  0  0  0
 13 15  1  0  0  0
 15 60  1  0  0  0
 60 61  1  0  0  0
 61 62  2  0  0  0
 62 63  1  0  0  0
 63 64  2  0  0  0
 64 65  1  0  0  0
 65 66  2  0  0  0
 12  1  1  0  0  0
 66 61  1  0  0  0
 11  5  1  0  0  0
 27 21  1  0  0  0
 39 30  1  0  0  0
 39 34  2  0  0  0
 49 44  1  0  0  0
 55 50  1  0  0  0
 59 56  1  0  0  0
 25 28  1  0  0  0
 42 43  1  0  0  0
 15 16  1  0  0  0
M  END
> <minimizedAffinity>
-10.13952

> <CNNscore>
0.2469924092

> <CNNaffinity>
7.4709482193

> <CNN_VS>
1.8452675343

> <CNNaffinity_variance>
0.2922623158

$$$$
[H]Oc1c([H])c([H])c(C([H])([H])[C@@]2([H])C(=O)N(C([H])([H])c3c([H])c([H])c([H])c4c(C(=O)N([H])c5c([H])nc(N6C([H])([H])C([H])([H])C([H])(N7C([H])([H])C([H])([H])C7([H])[H])C([H])([H])C6([H])[H])c([H])c5[H])c([H])n(C([H])([H])[H])c34)C([H])([H])[C@]3([H])N(C(=O)N([H])C([H])([H])c4c([H])c([H])c([H])c([H])c4[H])N(C([H])([H])C([H])=C([H])[H])C([H])([H])C(=O)N23)c([H])c1[H]


 66 74  0  0  0  0  0  0  0  0999 V2000
    3.7437    1.4004   21.2744 N   0  0  0  0  0  0  0  0  0  0  0  0
    3.2915    2.2602   22.3535 C   0  0  0  0  0  0  0  0  0  0  0  0
    4.4873    3.1751   22.5581 C   0  0  0  0  0  0  0  0  0  0  0  0
    4.9196    3.2859   23.7196 O   0  0  0  0  0  0  0  0  0  0  0  0
    5.0318    3.8391   21.4590 N   0  0  0  0  0  0  0  0  0  0  0  0
    5.7540    5.0675   21.6290 C   0  0  0  0  0  0  0  0  0  0  0  0
    4.7712    6.0942   21.1171 C   0  0  0  0  0  0  0  0  0  0  0  0
    4.5986    7.1493   21.7029 O   0  0  0  0  0  0  0  0  0  0  0  0
    4.0688    5.7781   19.9374 N   0  0  0  0  0  0  0  0  0  0  0  0
    4.2075    4.4636   19.2645 C   0  0  0  0  0  0  0  0  0  0  0  0
    4.8018    3.3884   20.1119 C   0  0  0  0  0  0  0  0  0  0  0  0
    4.1311    2.1085   20.1154 N   0  0  0  0  0  0  0  0  0  0  0  0
    3.8271    1.4338   18.8925 C   0  0  0  0  0  0  0  0  0  0  0  0
    3.1790    0.3375   18.9887 O   0  0  0  0  0  0  0  0  0  0  0  0
    4.1617    1.8348   17.5934 N   0  0  0  0  0  0  0  0  0  0  0  0
    4.6858    2.6932   17.4220 H   0  0  0  0  0  0  0  0  0  0  0  0
    4.8437    0.6491   21.8602 C   0  0  0  0  0  0  0  0  0  0  0  0
    7.2048    0.5977   21.2993 C   0  0  0  0  0  0  0  0  0  0  0  0
    5.9552    0.4053   20.9724 C   0  0  0  0  0  0  0  0  0  0  0  0
    7.0704    5.2186   20.9928 C   0  0  0  0  0  0  0  0  0  0  0  0
    7.5510    6.5544   20.6308 C   0  0  0  0  0  0  0  0  0  0  0  0
    7.8730    7.4830   21.6223 C   0  0  0  0  0  0  0  0  0  0  0  0
    8.2623    8.7629   21.2900 C   0  0  0  0  0  0  0  0  0  0  0  0
    8.3537    9.1969   19.9826 C   0  0  0  0  0  0  0  0  0  0  0  0
    8.7531   10.4932   19.7177 O   0  0  0  0  0  0  0  0  0  0  0  0
    8.0378    8.2915   19.0085 C   0  0  0  0  0  0  0  0  0  0  0  0
    7.6424    6.9929   19.3289 C   0  0  0  0  0  0  0  0  0  0  0  0
    8.9872   11.1555   20.4492 H   0  0  0  0  0  0  0  0  0  0  0  0
    3.1200    6.6815   19.2841 C   0  0  0  0  0  0  0  0  0  0  0  0
    3.8534    7.7997   18.6829 C   0  0  0  0  0  0  0  0  0  0  0  0
    4.3183    8.8455   19.4366 C   0  0  0  0  0  0  0  0  0  0  0  0
    4.9616    9.9325   18.8700 C   0  0  0  0  0  0  0  0  0  0  0  0
    5.1523    9.9832   17.5013 C   0  0  0  0  0  0  0  0  0  0  0  0
    4.6828    8.9187   16.7213 C   0  0  0  0  0  0  0  0  0  0  0  0
    4.7428    8.6835   15.3886 C   0  0  0  0  0  0  0  0  0  0  0  0
    4.1473    7.4734   15.1750 C   0  0  0  0  0  0  0  0  0  0  0  0
    3.7109    6.9389   16.3291 N   0  0  0  0  0  0  0  0  0  0  0  0
    3.0370    5.6742   16.4881 C   0  0  0  0  0  0  0  0  0  0  0  0
    4.0378    7.8345   17.3041 C   0  0  0  0  0  0  0  0  0  0  0  0
    5.3012    9.5424   14.2883 C   0  0  0  0  0  0  0  0  0  0  0  0
    4.7635   10.6427   14.0404 O   0  0  0  0  0  0  0  0  0  0  0  0
    6.4225    9.0276   13.6120 N   0  0  0  0  0  0  0  0  0  0  0  0
    6.5869   10.2806   13.0565 H   0  0  0  0  0  0  0  0  0  0  0  0
    7.4626    8.5663   12.9740 C   0  0  0  0  0  0  0  0  0  0  0  0
    8.7624    8.8557   13.4383 C   0  0  0  0  0  0  0  0  0  0  0  0
    9.8893    8.4289   12.8402 C   0  0  0  0  0  0  0  0  0  0  0  0
    9.7794    7.6663   11.6999 C   0  0  0  0  0  0  0  0  0  0  0  0
    8.5675    7.3470   11.1916 N   0  0  0  0  0  0  0  0  0  0  0  0
    7.4401    7.7759   11.8045 C   0  0  0  0  0  0  0  0  0  0  0  0
   10.9364    7.2249   10.9833 N   0  0  0  0  0  0  0  0  0  0  0  0
   10.7549    6.4982    9.7511 C   0  0  0  0  0  0  0  0  0  0  0  0
   11.7311    6.7898    8.6718 C   0  0  0  0  0  0  0  0  0  0  0  0
   12.9105    7.6058    9.0683 C   0  0  0  0  0  0  0  0  0  0  0  0
   13.3369    7.3760   10.5147 C   0  0  0  0  0  0  0  0  0  0  0  0
   12.2480    7.4817   11.5087 C   0  0  0  0  0  0  0  0  0  0  0  0
   14.0732    7.4445    8.2696 N   0  0  0  0  0  0  0  0  0  0  0  0
   13.9734    6.5932    7.1279 C   0  0  0  0  0  0  0  0  0  0  0  0
   15.4542    6.3114    7.2854 C   0  0  0  0  0  0  0  0  0  0  0  0
   15.2061    6.7349    8.7318 C   0  0  0  0  0  0  0  0  0  0  0  0
    3.7858    1.0349   16.4309 C   0  0  0  0  0  0  0  0  0  0  0  0
    3.3466    1.9288   15.2971 C   0  0  0  0  0  0  0  0  0  0  0  0
    4.1058    2.9947   14.9437 C   0  0  0  0  0  0  0  0  0  0  0  0
    3.6587    3.8483   13.9040 C   0  0  0  0  0  0  0  0  0  0  0  0
    2.4493    3.5803   13.2638 C   0  0  0  0  0  0  0  0  0  0  0  0
    1.7437    2.4473   13.7160 C   0  0  0  0  0  0  0  0  0  0  0  0
    2.1541    1.6391   14.6853 C   0  0  0  0  0  0  0  0  0  0  0  0
 18 19  2  0  0  0
 19 17  1  0  0  0
 17  1  1  0  0  0
  1  2  1  0  0  0
  2  3  1  0  0  0
  3  4  2  0  0  0
  3  5  1  0  0  0
  5  6  1  0  0  0
  6 20  1  0  0  0
 20 21  1  0  0  0
 21 22  2  0  0  0
 22 23  1  0  0  0
 23 24  2  0  0  0
 24 25  1  0  0  0
 24 26  1  0  0  0
 26 27  2  0  0  0
  6  7  1  0  0  0
  7  8  2  0  0  0
  7  9  1  0  0  0
  9 29  1  0  0  0
 29 30  1  0  0  0
 30 31  2  0  0  0
 31 32  1  0  0  0
 32 33  2  0  0  0
 33 34  1  0  0  0
 34 35  1  0  0  0
 35 40  1  0  0  0
 40 41  2  0  0  0
 40 42  1  0  0  0
 42 44  1  0  0  0
 44 45  2  0  0  0
 45 46  1  0  0  0
 46 47  2  0  0  0
 47 50  1  0  0  0
 50 51  1  0  0  0
 51 52  1  0  0  0
 52 53  1  0  0  0
 53 56  1  0  0  0
 56 57  1  0  0  0
 57 58  1  0  0  0
 58 59  1  0  0  0
 53 54  1  0  0  0
 54 55  1  0  0  0
 47 48  1  0  0  0
 48 49  2  0  0  0
 35 36  2  0  0  0
 36 37  1  0  0  0
 37 38  1  0  0  0
 37 39  1  0  0  0
  9 10  1  0  0  0
 10 11  1  0  0  0
 11 12  1  0  0  0
 12 13  1  0  0  0
 13 14  2  0  0  0
 13 15  1  0  0  0
 15 60  1  0  0  0
 60 61  1  0  0  0
 61 62  2  0  0  0
 62 63  1  0  0  0
 63 64  2  0  0  0
 64 65  1  0  0  0
 65 66  2  0  0  0
 12  1  1  0  0  0
 66 61  1  0  0  0
 11  5  1  0  0  0
 27 21  1  0  0  0
 39 30  1  0  0  0
 39 34  2  0  0  0
 49 44  1  0  0  0
 55 50  1  0  0  0
 59 56  1  0  0  0
 25 28  1  0  0  0
 42 43  1  0  0  0
 15 16  1  0  0  0
M  END
> <minimizedAffinity>
-10.89054

> <CNNscore>
0.1595782638

> <CNNaffinity>
7.5909070969

> <CNN_VS>
1.2113437653

> <CNNaffinity_variance>
0.4040382504

$$$$
[H]Oc1c([H])c([H])c(C([H])([H])[C@@]2([H])C(=O)N(C([H])([H])c3c([H])c([H])c([H])c4c(C(=O)N([H])c5c([H])nc(N6C([H])([H])C([H])([H])C([H])(N7C([H])([H])C([H])([H])C7([H])[H])C([H])([H])C6([H])[H])c([H])c5[H])c([H])n(C([H])([H])[H])c34)C([H])([H])[C@]3([H])N(C(=O)N([H])C([H])([H])c4c([H])c([H])c([H])c([H])c4[H])N(C([H])([H])C([H])=C([H])[H])C([H])([H])C(=O)N23)c([H])c1[H]


 66 74  0  0  0  0  0  0  0  0999 V2000
    3.2590    3.0892   14.0369 N   0  0  0  0  0  0  0  0  0  0  0  0
    3.1085    3.0642   12.5930 C   0  0  0  0  0  0  0  0  0  0  0  0
    1.6941    3.5875   12.4082 C   0  0  0  0  0  0  0  0  0  0  0  0
    0.9294    2.9067   11.7010 O   0  0  0  0  0  0  0  0  0  0  0  0
    1.3258    4.7844   13.0224 N   0  0  0  0  0  0  0  0  0  0  0  0
    0.2626    5.5859   12.4869 C   0  0  0  0  0  0  0  0  0  0  0  0
    1.0113    6.7345   11.8525 C   0  0  0  0  0  0  0  0  0  0  0  0
    0.6931    7.1671   10.7580 O   0  0  0  0  0  0  0  0  0  0  0  0
    2.0869    7.2800   12.5808 N   0  0  0  0  0  0  0  0  0  0  0  0
    2.5363    6.7070   13.8730 C   0  0  0  0  0  0  0  0  0  0  0  0
    2.0582    5.3186   14.1399 C   0  0  0  0  0  0  0  0  0  0  0  0
    3.0388    4.3639   14.6036 N   0  0  0  0  0  0  0  0  0  0  0  0
    3.8672    4.6497   15.7328 C   0  0  0  0  0  0  0  0  0  0  0  0
    4.7470    3.7744   16.0343 O   0  0  0  0  0  0  0  0  0  0  0  0
    3.8246    5.7826   16.5546 N   0  0  0  0  0  0  0  0  0  0  0  0
    3.1486    6.5294   16.3931 H   0  0  0  0  0  0  0  0  0  0  0  0
    2.3024    2.0989   14.5078 C   0  0  0  0  0  0  0  0  0  0  0  0
    2.5614    1.0272   16.6704 C   0  0  0  0  0  0  0  0  0  0  0  0
    2.8469    1.1019   15.3982 C   0  0  0  0  0  0  0  0  0  0  0  0
   -0.7962    6.0654   13.3868 C   0  0  0  0  0  0  0  0  0  0  0  0
   -2.1868    6.0796   12.9262 C   0  0  0  0  0  0  0  0  0  0  0  0
   -2.5828    5.2865   11.8476 C   0  0  0  0  0  0  0  0  0  0  0  0
   -3.8733    5.3439   11.3665 C   0  0  0  0  0  0  0  0  0  0  0  0
   -4.8334    6.1741   11.9095 C   0  0  0  0  0  0  0  0  0  0  0  0
   -6.1105    6.1816   11.3811 O   0  0  0  0  0  0  0  0  0  0  0  0
   -4.4498    6.9536   12.9649 C   0  0  0  0  0  0  0  0  0  0  0  0
   -3.1478    6.9065   13.4629 C   0  0  0  0  0  0  0  0  0  0  0  0
   -6.3840    5.5968   10.5990 H   0  0  0  0  0  0  0  0  0  0  0  0
    2.8814    8.4246   12.1314 C   0  0  0  0  0  0  0  0  0  0  0  0
    3.6456    8.9565   13.2640 C   0  0  0  0  0  0  0  0  0  0  0  0
    3.0534    9.7112   14.2427 C   0  0  0  0  0  0  0  0  0  0  0  0
    3.7774   10.2648   15.2846 C   0  0  0  0  0  0  0  0  0  0  0  0
    5.1431   10.0604   15.3592 C   0  0  0  0  0  0  0  0  0  0  0  0
    5.7586    9.2890   14.3652 C   0  0  0  0  0  0  0  0  0  0  0  0
    7.0464    8.9072   14.1896 C   0  0  0  0  0  0  0  0  0  0  0  0
    7.0786    8.1364   13.0630 C   0  0  0  0  0  0  0  0  0  0  0  0
    5.8535    8.0218   12.5204 N   0  0  0  0  0  0  0  0  0  0  0  0
    5.5077    7.2847   11.3305 C   0  0  0  0  0  0  0  0  0  0  0  0
    5.0189    8.7404   13.3246 C   0  0  0  0  0  0  0  0  0  0  0  0
    8.2654    9.2466   15.0013 C   0  0  0  0  0  0  0  0  0  0  0  0
    9.3408    9.4920   14.4142 O   0  0  0  0  0  0  0  0  0  0  0  0
    8.0908    9.2700   16.3972 N   0  0  0  0  0  0  0  0  0  0  0  0
    9.3237    9.8854   16.4802 H   0  0  0  0  0  0  0  0  0  0  0  0
    7.9474    9.2968   17.6935 C   0  0  0  0  0  0  0  0  0  0  0  0
    7.5380   10.4840   18.3352 C   0  0  0  0  0  0  0  0  0  0  0  0
    7.3721   10.6040   19.6648 C   0  0  0  0  0  0  0  0  0  0  0  0
    7.6202    9.5081   20.4593 C   0  0  0  0  0  0  0  0  0  0  0  0
    8.0174    8.3337   19.9189 N   0  0  0  0  0  0  0  0  0  0  0  0
    8.1750    8.2217   18.5797 C   0  0  0  0  0  0  0  0  0  0  0  0
    7.5161    9.5809   21.8843 N   0  0  0  0  0  0  0  0  0  0  0  0
    7.1727    8.3876   22.6176 C   0  0  0  0  0  0  0  0  0  0  0  0
    7.8567    8.2038   23.9218 C   0  0  0  0  0  0  0  0  0  0  0  0
    8.6216    9.3776   24.4232 C   0  0  0  0  0  0  0  0  0  0  0  0
    8.0141   10.7113   24.0007 C   0  0  0  0  0  0  0  0  0  0  0  0
    7.7230   10.8329   22.5566 C   0  0  0  0  0  0  0  0  0  0  0  0
    8.8087    9.4415   25.8292 N   0  0  0  0  0  0  0  0  0  0  0  0
    9.7457   10.3978   26.3247 C   0  0  0  0  0  0  0  0  0  0  0  0
    9.9722    9.4732   27.5040 C   0  0  0  0  0  0  0  0  0  0  0  0
    9.4488    8.4042   26.5467 C   0  0  0  0  0  0  0  0  0  0  0  0
    4.7372    5.9365   17.6842 C   0  0  0  0  0  0  0  0  0  0  0  0
    4.4414    7.2152   18.4291 C   0  0  0  0  0  0  0  0  0  0  0  0
    4.7390    7.3134   19.7479 C   0  0  0  0  0  0  0  0  0  0  0  0
    4.4171    8.5063   20.4428 C   0  0  0  0  0  0  0  0  0  0  0  0
    3.8010    9.5559   19.7624 C   0  0  0  0  0  0  0  0  0  0  0  0
    3.5369    9.3409   18.3948 C   0  0  0  0  0  0  0  0  0  0  0  0
    3.8371    8.2304   17.7331 C   0  0  0  0  0  0  0  0  0  0  0  0
 18 19  2  0  0  0
 19 17  1  0  0  0
 17  1  1  0  0  0
  1  2  1  0  0  0
  2  3  1  0  0  0
  3  4  2  0  0  0
  3  5  1  0  0  0
  5  6  1  0  0  0
  6 20  1  0  0  0
 20 21  1  0  0  0
 21 22  2  0  0  0
 22 23  1  0  0  0
 23 24  2  0  0  0
 24 25  1  0  0  0
 24 26  1  0  0  0
 26 27  2  0  0  0
  6  7  1  0  0  0
  7  8  2  0  0  0
  7  9  1  0  0  0
  9 29  1  0  0  0
 29 30  1  0  0  0
 30 31  2  0  0  0
 31 32  1  0  0  0
 32 33  2  0  0  0
 33 34  1  0  0  0
 34 35  1  0  0  0
 35 40  1  0  0  0
 40 41  2  0  0  0
 40 42  1  0  0  0
 42 44  1  0  0  0
 44 45  2  0  0  0
 45 46  1  0  0  0
 46 47  2  0  0  0
 47 50  1  0  0  0
 50 51  1  0  0  0
 51 52  1  0  0  0
 52 53  1  0  0  0
 53 56  1  0  0  0
 56 57  1  0  0  0
 57 58  1  0  0  0
 58 59  1  0  0  0
 53 54  1  0  0  0
 54 55  1  0  0  0
 47 48  1  0  0  0
 48 49  2  0  0  0
 35 36  2  0  0  0
 36 37  1  0  0  0
 37 38  1  0  0  0
 37 39  1  0  0  0
  9 10  1  0  0  0
 10 11  1  0  0  0
 11 12  1  0  0  0
 12 13  1  0  0  0
 13 14  2  0  0  0
 13 15  1  0  0  0
 15 60  1  0  0  0
 60 61  1  0  0  0
 61 62  2  0  0  0
 62 63  1  0  0  0
 63 64  2  0  0  0
 64 65  1  0  0  0
 65 66  2  0  0  0
 12  1  1  0  0  0
 66 61  1  0  0  0
 11  5  1  0  0  0
 27 21  1  0  0  0
 39 30  1  0  0  0
 39 34  2  0  0  0
 49 44  1  0  0  0
 55 50  1  0  0  0
 59 56  1  0  0  0
 25 28  1  0  0  0
 42 43  1  0  0  0
 15 16  1  0  0  0
M  END
> <minimizedAffinity>
-8.87547

> <CNNscore>
0.1232614964

> <CNNaffinity>
7.1388845444

> <CNN_VS>
0.8799495697

> <CNNaffinity_variance>
0.4341612756

$$$$
[H]Oc1c([H])c([H])c(C([H])([H])[C@@]2([H])C(=O)N(C([H])([H])c3c([H])c([H])c([H])c4c(C(=O)N([H])c5c([H])nc(N6C([H])([H])C([H])([H])C([H])(N7C([H])([H])C([H])([H])C7([H])[H])C([H])([H])C6([H])[H])c([H])c5[H])c([H])n(C([H])([H])[H])c34)C([H])([H])[C@]3([H])N(C(=O)N([H])C([H])([H])c4c([H])c([H])c([H])c([H])c4[H])N(C([H])([H])C([H])=C([H])[H])C([H])([H])C(=O)N23)c([H])c1[H]


 66 74  0  0  0  0  0  0  0  0999 V2000
    3.4152    3.1268   15.2974 N   0  0  0  0  0  0  0  0  0  0  0  0
    3.1496    2.4589   14.0359 C   0  0  0  0  0  0  0  0  0  0  0  0
    1.8321    3.0856   13.6116 C   0  0  0  0  0  0  0  0  0  0  0  0
    0.9114    2.3072   13.3034 O   0  0  0  0  0  0  0  0  0  0  0  0
    1.7178    4.4754   13.5826 N   0  0  0  0  0  0  0  0  0  0  0  0
    0.7643    5.1144   12.7212 C   0  0  0  0  0  0  0  0  0  0  0  0
    1.6417    5.6740   11.6261 C   0  0  0  0  0  0  0  0  0  0  0  0
    1.3149    5.5958   10.4541 O   0  0  0  0  0  0  0  0  0  0  0  0
    2.8470    6.2880   12.0199 N   0  0  0  0  0  0  0  0  0  0  0  0
    3.2948    6.3128   13.4337 C   0  0  0  0  0  0  0  0  0  0  0  0
    2.6146    5.3243   14.3212 C   0  0  0  0  0  0  0  0  0  0  0  0
    3.4557    4.5346   15.1911 N   0  0  0  0  0  0  0  0  0  0  0  0
    4.4064    5.1565   16.0587 C   0  0  0  0  0  0  0  0  0  0  0  0
    5.1490    4.3782   16.7471 O   0  0  0  0  0  0  0  0  0  0  0  0
    4.6180    6.5279   16.2459 N   0  0  0  0  0  0  0  0  0  0  0  0
    4.0652    7.2229   15.7436 H   0  0  0  0  0  0  0  0  0  0  0  0
    2.3470    2.6660   16.1716 C   0  0  0  0  0  0  0  0  0  0  0  0
    3.6199    1.0254   17.4288 C   0  0  0  0  0  0  0  0  0  0  0  0
    2.5551    1.3606   16.7510 C   0  0  0  0  0  0  0  0  0  0  0  0
   -0.1257    6.1440   13.2765 C   0  0  0  0  0  0  0  0  0  0  0  0
   -1.5517    6.1263   12.9413 C   0  0  0  0  0  0  0  0  0  0  0  0
   -2.0179    5.3561   11.8743 C   0  0  0  0  0  0  0  0  0  0  0  0
   -3.3474    5.3857   11.5113 C   0  0  0  0  0  0  0  0  0  0  0  0
   -4.2803    6.1647   12.1661 C   0  0  0  0  0  0  0  0  0  0  0  0
   -5.5990    6.1465   11.7531 O   0  0  0  0  0  0  0  0  0  0  0  0
   -3.8279    6.9217   13.2107 C   0  0  0  0  0  0  0  0  0  0  0  0
   -2.4858    6.9023   13.5899 C   0  0  0  0  0  0  0  0  0  0  0  0
   -5.9233    5.5787   10.9779 H   0  0  0  0  0  0  0  0  0  0  0  0
    3.7832    6.9220   11.0902 C   0  0  0  0  0  0  0  0  0  0  0  0
    4.5657    5.8850   10.4104 C   0  0  0  0  0  0  0  0  0  0  0  0
    5.3220    4.9793   11.1074 C   0  0  0  0  0  0  0  0  0  0  0  0
    6.1082    4.0333   10.4723 C   0  0  0  0  0  0  0  0  0  0  0  0
    6.1445    3.9832    9.0908 C   0  0  0  0  0  0  0  0  0  0  0  0
    5.3740    4.9031    8.3683 C   0  0  0  0  0  0  0  0  0  0  0  0
    5.1939    5.0783    7.0371 C   0  0  0  0  0  0  0  0  0  0  0  0
    4.3110    6.1097    6.8915 C   0  0  0  0  0  0  0  0  0  0  0  0
    3.9304    6.5928    8.0873 N   0  0  0  0  0  0  0  0  0  0  0  0
    3.0099    7.6777    8.3207 C   0  0  0  0  0  0  0  0  0  0  0  0
    4.5902    5.8478    9.0196 C   0  0  0  0  0  0  0  0  0  0  0  0
    5.8256    4.3536    5.8813 C   0  0  0  0  0  0  0  0  0  0  0  0
    6.3971    5.0125    4.9866 O   0  0  0  0  0  0  0  0  0  0  0  0
    5.7276    2.9502    5.9047 N   0  0  0  0  0  0  0  0  0  0  0  0
    6.6642    2.9284    4.8909 H   0  0  0  0  0  0  0  0  0  0  0  0
    5.6467    1.6482    5.9099 C   0  0  0  0  0  0  0  0  0  0  0  0
    5.4347    0.9579    7.1212 C   0  0  0  0  0  0  0  0  0  0  0  0
    5.3460   -0.3808    7.2207 C   0  0  0  0  0  0  0  0  0  0  0  0
    5.4744   -1.1345    6.0765 C   0  0  0  0  0  0  0  0  0  0  0  0
    5.6806   -0.5461    4.8763 N   0  0  0  0  0  0  0  0  0  0  0  0
    5.7618    0.8015    4.7862 C   0  0  0  0  0  0  0  0  0  0  0  0
    5.4445   -2.5643    6.1178 N   0  0  0  0  0  0  0  0  0  0  0  0
    6.2636   -3.3033    5.1890 C   0  0  0  0  0  0  0  0  0  0  0  0
    6.8900   -4.5420    5.7142 C   0  0  0  0  0  0  0  0  0  0  0  0
    6.4077   -4.9973    7.0462 C   0  0  0  0  0  0  0  0  0  0  0  0
    4.9447   -4.6503    7.3024 C   0  0  0  0  0  0  0  0  0  0  0  0
    4.5870   -3.2382    7.0520 C   0  0  0  0  0  0  0  0  0  0  0  0
    6.5520   -6.3834    7.3177 N   0  0  0  0  0  0  0  0  0  0  0  0
    7.8741   -6.9220    7.3025 C   0  0  0  0  0  0  0  0  0  0  0  0
    7.2627   -8.2487    6.8991 C   0  0  0  0  0  0  0  0  0  0  0  0
    6.1105   -7.3737    6.4094 C   0  0  0  0  0  0  0  0  0  0  0  0
    5.6294    7.0203   17.1770 C   0  0  0  0  0  0  0  0  0  0  0  0
    5.1530    8.2835   17.8515 C   0  0  0  0  0  0  0  0  0  0  0  0
    5.7989    9.4541   17.6277 C   0  0  0  0  0  0  0  0  0  0  0  0
    5.3646   10.6236   18.3008 C   0  0  0  0  0  0  0  0  0  0  0  0
    4.2846   10.5525   19.1799 C   0  0  0  0  0  0  0  0  0  0  0  0
    3.6923    9.2833   19.3363 C   0  0  0  0  0  0  0  0  0  0  0  0
    4.0877    8.1828   18.7089 C   0  0  0  0  0  0  0  0  0  0  0  0
 18 19  2  0  0  0
 19 17  1  0  0  0
 17  1  1  0  0  0
  1  2  1  0  0  0
  2  3  1  0  0  0
  3  4  2  0  0  0
  3  5  1  0  0  0
  5  6  1  0  0  0
  6 20  1  0  0  0
 20 21  1  0  0  0
 21 22  2  0  0  0
 22 23  1  0  0  0
 23 24  2  0  0  0
 24 25  1  0  0  0
 24 26  1  0  0  0
 26 27  2  0  0  0
  6  7  1  0  0  0
  7  8  2  0  0  0
  7  9  1  0  0  0
  9 29  1  0  0  0
 29 30  1  0  0  0
 30 31  2  0  0  0
 31 32  1  0  0  0
 32 33  2  0  0  0
 33 34  1  0  0  0
 34 35  1  0  0  0
 35 40  1  0  0  0
 40 41  2  0  0  0
 40 42  1  0  0  0
 42 44  1  0  0  0
 44 45  2  0  0  0
 45 46  1  0  0  0
 46 47  2  0  0  0
 47 50  1  0  0  0
 50 51  1  0  0  0
 51 52  1  0  0  0
 52 53  1  0  0  0
 53 56  1  0  0  0
 56 57  1  0  0  0
 57 58  1  0  0  0
 58 59  1  0  0  0
 53 54  1  0  0  0
 54 55  1  0  0  0
 47 48  1  0  0  0
 48 49  2  0  0  0
 35 36  2  0  0  0
 36 37  1  0  0  0
 37 38  1  0  0  0
 37 39  1  0  0  0
  9 10  1  0  0  0
 10 11  1  0  0  0
 11 12  1  0  0  0
 12 13  1  0  0  0
 13 14  2  0  0  0
 13 15  1  0  0  0
 15 60  1  0  0  0
 60 61  1  0  0  0
 61 62  2  0  0  0
 62 63  1  0  0  0
 63 64  2  0  0  0
 64 65  1  0  0  0
 65 66  2  0  0  0
 12  1  1  0  0  0
 66 61  1  0  0  0
 11  5  1  0  0  0
 27 21  1  0  0  0
 39 30  1  0  0  0
 39 34  2  0  0  0
 49 44  1  0  0  0
 55 50  1  0  0  0
 59 56  1  0  0  0
 25 28  1  0  0  0
 42 43  1  0  0  0
 15 16  1  0  0  0
M  END
> <minimizedAffinity>
-8.98315

> <CNNscore>
0.1139392853

> <CNNaffinity>
6.8291192055

> <CNN_VS>
0.7781049609

> <CNNaffinity_variance>
0.7138832808

$$$$
[H]Oc1c([H])c([H])c(C([H])([H])[C@@]2([H])C(=O)N(C([H])([H])c3c([H])c([H])c([H])c4c(C(=O)N([H])c5c([H])nc(N6C([H])([H])C([H])([H])C([H])(N7C([H])([H])C([H])([H])C7([H])[H])C([H])([H])C6([H])[H])c([H])c5[H])c([H])n(C([H])([H])[H])c34)C([H])([H])[C@]3([H])N(C(=O)N([H])C([H])([H])c4c([H])c([H])c([H])c([H])c4[H])N(C([H])([H])C([H])=C([H])[H])C([H])([H])C(=O)N23)c([H])c1[H]


 66 74  0  0  0  0  0  0  0  0999 V2000
    2.5460    2.7513   12.7278 N   0  0  0  0  0  0  0  0  0  0  0  0
    2.8265    3.4389   11.4803 C   0  0  0  0  0  0  0  0  0  0  0  0
    1.7549    4.5159   11.4589 C   0  0  0  0  0  0  0  0  0  0  0  0
    1.0643    4.6032   10.4274 O   0  0  0  0  0  0  0  0  0  0  0  0
    1.6001    5.3437   12.5707 N   0  0  0  0  0  0  0  0  0  0  0  0
    1.0339    6.6554   12.4345 C   0  0  0  0  0  0  0  0  0  0  0  0
    2.2451    7.5470   12.5772 C   0  0  0  0  0  0  0  0  0  0  0  0
    2.4083    8.5109   11.8488 O   0  0  0  0  0  0  0  0  0  0  0  0
    3.1708    7.2156   13.5863 N   0  0  0  0  0  0  0  0  0  0  0  0
    3.0264    5.9980   14.4209 C   0  0  0  0  0  0  0  0  0  0  0  0
    2.0966    4.9694   13.8684 C   0  0  0  0  0  0  0  0  0  0  0  0
    2.5628    3.6018   13.8553 N   0  0  0  0  0  0  0  0  0  0  0  0
    3.0684    2.9853   15.0417 C   0  0  0  0  0  0  0  0  0  0  0  0
    3.5148    1.7946   14.9232 O   0  0  0  0  0  0  0  0  0  0  0  0
    3.1288    3.5364   16.3275 N   0  0  0  0  0  0  0  0  0  0  0  0
    2.7875    4.4790   16.5168 H   0  0  0  0  0  0  0  0  0  0  0  0
    1.2419    2.1437   12.5096 C   0  0  0  0  0  0  0  0  0  0  0  0
    0.6566    0.9976   10.4514 C   0  0  0  0  0  0  0  0  0  0  0  0
    1.2409    1.0077   11.6192 C   0  0  0  0  0  0  0  0  0  0  0  0
   -0.0470    7.0669   13.3416 C   0  0  0  0  0  0  0  0  0  0  0  0
   -1.4338    6.7210   13.0198 C   0  0  0  0  0  0  0  0  0  0  0  0
   -1.7259    5.9357   11.9031 C   0  0  0  0  0  0  0  0  0  0  0  0
   -3.0314    5.6611   11.5562 C   0  0  0  0  0  0  0  0  0  0  0  0
   -4.1086    6.1382   12.2761 C   0  0  0  0  0  0  0  0  0  0  0  0
   -5.3934    5.8236   11.8757 O   0  0  0  0  0  0  0  0  0  0  0  0
   -3.8272    6.9087   13.3695 C   0  0  0  0  0  0  0  0  0  0  0  0
   -2.5115    7.1951   13.7333 C   0  0  0  0  0  0  0  0  0  0  0  0
   -5.5896    5.2487   11.0636 H   0  0  0  0  0  0  0  0  0  0  0  0
    4.3679    8.0025   13.8878 C   0  0  0  0  0  0  0  0  0  0  0  0
    4.0145    9.0846   14.8118 C   0  0  0  0  0  0  0  0  0  0  0  0
    3.2820   10.1692   14.4057 C   0  0  0  0  0  0  0  0  0  0  0  0
    2.9923   11.2222   15.2564 C   0  0  0  0  0  0  0  0  0  0  0  0
    3.4466   11.1974   16.5622 C   0  0  0  0  0  0  0  0  0  0  0  0
    4.1948   10.0928   16.9887 C   0  0  0  0  0  0  0  0  0  0  0  0
    4.7423    9.7848   18.1889 C   0  0  0  0  0  0  0  0  0  0  0  0
    5.3416    8.5661   18.0473 C   0  0  0  0  0  0  0  0  0  0  0  0
    5.1925    8.0964   16.7962 N   0  0  0  0  0  0  0  0  0  0  0  0
    5.6907    6.8437   16.2849 C   0  0  0  0  0  0  0  0  0  0  0  0
    4.4785    9.0435   16.1230 C   0  0  0  0  0  0  0  0  0  0  0  0
    4.7658   10.5810   19.4639 C   0  0  0  0  0  0  0  0  0  0  0  0
    3.9655   11.5301   19.6056 O   0  0  0  0  0  0  0  0  0  0  0  0
    5.7084   10.1767   20.4270 N   0  0  0  0  0  0  0  0  0  0  0  0
    5.0498   10.9918   21.3256 H   0  0  0  0  0  0  0  0  0  0  0  0
    6.5760    9.8157   21.3318 C   0  0  0  0  0  0  0  0  0  0  0  0
    7.9146    9.5632   20.9667 C   0  0  0  0  0  0  0  0  0  0  0  0
    8.8724    9.1802   21.8303 C   0  0  0  0  0  0  0  0  0  0  0  0
    8.5354    9.0156   23.1544 C   0  0  0  0  0  0  0  0  0  0  0  0
    7.2719    9.2374   23.5826 N   0  0  0  0  0  0  0  0  0  0  0  0
    6.3174    9.6286   22.7069 C   0  0  0  0  0  0  0  0  0  0  0  0
    9.4909    8.5582   24.1160 N   0  0  0  0  0  0  0  0  0  0  0  0
    9.0152    8.0287   25.3702 C   0  0  0  0  0  0  0  0  0  0  0  0
    9.7677    6.8724   25.9174 C   0  0  0  0  0  0  0  0  0  0  0  0
   11.0535    6.5564   25.2386 C   0  0  0  0  0  0  0  0  0  0  0  0
   11.7500    7.7904   24.6741 C   0  0  0  0  0  0  0  0  0  0  0  0
   10.8959    8.6585   23.8364 C   0  0  0  0  0  0  0  0  0  0  0  0
   12.0160    5.8674   26.0227 N   0  0  0  0  0  0  0  0  0  0  0  0
   12.0998    6.2055   27.4071 C   0  0  0  0  0  0  0  0  0  0  0  0
   13.5597    5.8023   27.3540 C   0  0  0  0  0  0  0  0  0  0  0  0
   13.4048    6.0805   25.8601 C   0  0  0  0  0  0  0  0  0  0  0  0
    3.6710    2.7804   17.4531 C   0  0  0  0  0  0  0  0  0  0  0  0
    3.9377    3.6966   18.6223 C   0  0  0  0  0  0  0  0  0  0  0  0
    3.3647    4.9244   18.6634 C   0  0  0  0  0  0  0  0  0  0  0  0
    3.6580    5.7888   19.7479 C   0  0  0  0  0  0  0  0  0  0  0  0
    4.5286    5.3653   20.7514 C   0  0  0  0  0  0  0  0  0  0  0  0
    5.0666    4.0713   20.6030 C   0  0  0  0  0  0  0  0  0  0  0  0
    4.7964    3.2520   19.5946 C   0  0  0  0  0  0  0  0  0  0  0  0
 18 19  2  0  0  0
 19 17  1  0  0  0
 17  1  1  0  0  0
  1  2  1  0  0  0
  2  3  1  0  0  0
  3  4  2  0  0  0
  3  5  1  0  0  0
  5  6  1  0  0  0
  6 20  1  0  0  0
 20 21  1  0  0  0
 21 22  2  0  0  0
 22 23  1  0  0  0
 23 24  2  0  0  0
 24 25  1  0  0  0
 24 26  1  0  0  0
 26 27  2  0  0  0
  6  7  1  0  0  0
  7  8  2  0  0  0
  7  9  1  0  0  0
  9 29  1  0  0  0
 29 30  1  0  0  0
 30 31  2  0  0  0
 31 32  1  0  0  0
 32 33  2  0  0  0
 33 34  1  0  0  0
 34 35  1  0  0  0
 35 40  1  0  0  0
 40 41  2  0  0  0
 40 42  1  0  0  0
 42 44  1  0  0  0
 44 45  2  0  0  0
 45 46  1  0  0  0
 46 47  2  0  0  0
 47 50  1  0  0  0
 50 51  1  0  0  0
 51 52  1  0  0  0
 52 53  1  0  0  0
 53 56  1  0  0  0
 56 57  1  0  0  0
 57 58  1  0  0  0
 58 59  1  0  0  0
 53 54  1  0  0  0
 54 55  1  0  0  0
 47 48  1  0  0  0
 48 49  2  0  0  0
 35 36  2  0  0  0
 36 37  1  0  0  0
 37 38  1  0  0  0
 37 39  1  0  0  0
  9 10  1  0  0  0
 10 11  1  0  0  0
 11 12  1  0  0  0
 12 13  1  0  0  0
 13 14  2  0  0  0
 13 15  1  0  0  0
 15 60  1  0  0  0
 60 61  1  0  0  0
 61 62  2  0  0  0
 62 63  1  0  0  0
 63 64  2  0  0  0
 64 65  1  0  0  0
 65 66  2  0  0  0
 12  1  1  0  0  0
 66 61  1  0  0  0
 11  5  1  0  0  0
 27 21  1  0  0  0
 39 30  1  0  0  0
 39 34  2  0  0  0
 49 44  1  0  0  0
 55 50  1  0  0  0
 59 56  1  0  0  0
 25 28  1  0  0  0
 42 43  1  0  0  0
 15 16  1  0  0  0
M  END
> <minimizedAffinity>
-10.26352

> <CNNscore>
0.0965696648

> <CNNaffinity>
7.0650482178

> <CNN_VS>
0.6822693348

> <CNNaffinity_variance>
0.4488757551

$$$$
[H]c1nc(Oc2c([H])c([H])c(C(=O)N([H])C([H])([H])C([H])([H])N3C([H])([H])C([H])([H])C([H])([H])C3([H])[H])c([H])c2[H])c(N([H])S(=O)(=O)c2c([H])c([H])c(Cl)c(Cl)c2[H])c([H])c1Cl


 38 41  0  0  0  0  0  0  0  0999 V2000
    2.2328    4.3422   15.8303 C   0  0  0  0  0  0  0  0  0  0  0  0
    2.1701    5.0077   14.6628 N   0  0  0  0  0  0  0  0  0  0  0  0
    2.2996    4.3794   13.4907 C   0  0  0  0  0  0  0  0  0  0  0  0
    2.4993    3.0335   13.4831 C   0  0  0  0  0  0  0  0  0  0  0  0
    2.6686    2.2178   11.9383 Cl  0  0  0  0  0  0  0  0  0  0  0  0
    2.5677    2.3196   14.6891 C   0  0  0  0  0  0  0  0  0  0  0  0
    2.4329    2.9839   15.8834 C   0  0  0  0  0  0  0  0  0  0  0  0
    2.4643    2.3486   17.1460 N   0  0  0  0  0  0  0  0  0  0  0  0
    1.5886    2.2881   17.7446 H   0  0  0  0  0  0  0  0  0  0  0  0
    3.9279    1.6664   17.7227 S   0  0  0  0  0  0  0  0  0  0  0  0
    3.9939    0.2139   17.2681 O   0  0  0  0  0  0  0  0  0  0  0  0
    5.0737    2.4343   17.0677 O   0  0  0  0  0  0  0  0  0  0  0  0
    4.1441    1.7215   19.4319 C   0  0  0  0  0  0  0  0  0  0  0  0
    3.4801    0.8196   20.2705 C   0  0  0  0  0  0  0  0  0  0  0  0
    3.6828    0.9068   21.6177 C   0  0  0  0  0  0  0  0  0  0  0  0
    4.5269    1.8654   22.1528 C   0  0  0  0  0  0  0  0  0  0  0  0
    4.7743    1.9646   23.8766 Cl  0  0  0  0  0  0  0  0  0  0  0  0
    5.1878    2.7625   21.3239 C   0  0  0  0  0  0  0  0  0  0  0  0
    6.2418    3.9538   22.0390 Cl  0  0  0  0  0  0  0  0  0  0  0  0
    4.9831    2.6755   19.9531 C   0  0  0  0  0  0  0  0  0  0  0  0
    2.0877    5.0719   17.0148 O   0  0  0  0  0  0  0  0  0  0  0  0
    5.3980    6.4681   19.1818 C   0  0  0  0  0  0  0  0  0  0  0  0
    5.4784    6.2725   17.7948 C   0  0  0  0  0  0  0  0  0  0  0  0
    4.3810    5.8111   17.0900 C   0  0  0  0  0  0  0  0  0  0  0  0
    3.1890    5.5320   17.7148 C   0  0  0  0  0  0  0  0  0  0  0  0
    3.1360    5.7312   19.0723 C   0  0  0  0  0  0  0  0  0  0  0  0
    4.2195    6.1918   19.8008 C   0  0  0  0  0  0  0  0  0  0  0  0
    7.7213    6.8854   19.3600 O   0  0  0  0  0  0  0  0  0  0  0  0
    6.5593    6.9668   19.9022 C   0  0  0  0  0  0  0  0  0  0  0  0
    6.4748    7.5444   21.1850 N   0  0  0  0  0  0  0  0  0  0  0  0
    5.5153    7.5982   21.6073 H   0  0  0  0  0  0  0  0  0  0  0  0
    7.5643    8.0583   21.9650 C   0  0  0  0  0  0  0  0  0  0  0  0
    8.0800    6.9795   22.8772 C   0  0  0  0  0  0  0  0  0  0  0  0
    9.5126    7.0217   22.9361 N   0  0  0  0  0  0  0  0  0  0  0  0
   10.1642    7.5600   21.7915 C   0  0  0  0  0  0  0  0  0  0  0  0
   10.8011    6.3996   21.0449 C   0  0  0  0  0  0  0  0  0  0  0  0
   11.0256    5.3951   22.1388 C   0  0  0  0  0  0  0  0  0  0  0  0
   10.1430    5.7909   23.2935 C   0  0  0  0  0  0  0  0  0  0  0  0
 28 29  2  0  0  0
 29 30  1  0  0  0
 30 32  1  0  0  0
 32 33  1  0  0  0
 33 34  1  0  0  0
 34 35  1  0  0  0
 35 36  1  0  0  0
 36 37  1  0  0  0
 37 38  1  0  0  0
 29 22  1  0  0  0
 22 23  2  0  0  0
 23 24  1  0  0  0
 24 25  2  0  0  0
 25 21  1  0  0  0
 21  1  1  0  0  0
  1  2  2  0  0  0
  2  3  1  0  0  0
  3  4  2  0  0  0
  4  5  1  0  0  0
  4  6  1  0  0  0
  6  7  2  0  0  0
  7  8  1  0  0  0
  8 10  1  0  0  0
 10 11  2  0  0  0
 10 12  2  0  0  0
 10 13  1  0  0  0
 13 14  2  0  0  0
 14 15  1  0  0  0
 15 16  2  0  0  0
 16 17  1  0  0  0
 16 18  1  0  0  0
 18 19  1  0  0  0
 18 20  2  0  0  0
 25 26  1  0  0  0
 26 27  2  0  0  0
 38 34  1  0  0  0
 27 22  1  0  0  0
  7  1  1  0  0  0
 20 13  1  0  0  0
 30 31  1  0  0  0
  8  9  1  0  0  0
M  END
> <minimizedAffinity>
-8.45061

> <CNNscore>
0.6979980469

> <CNNaffinity>
7.4690809250

> <CNN_VS>
5.2134037018

> <CNNaffinity_variance>
0.1476016343

$$$$
[H]c1nc(Oc2c([H])c([H])c(C(=O)N([H])C([H])([H])C([H])([H])N3C([H])([H])C([H])([H])C([H])([H])C3([H])[H])c([H])c2[H])c(N([H])S(=O)(=O)c2c([H])c([H])c(Cl)c(Cl)c2[H])c([H])c1Cl


 38 41  0  0  0  0  0  0  0  0999 V2000
    3.6117    1.8410   16.1158 C   0  0  0  0  0  0  0  0  0  0  0  0
    2.7977    0.7790   16.2545 N   0  0  0  0  0  0  0  0  0  0  0  0
    2.6079    0.1922   17.4397 C   0  0  0  0  0  0  0  0  0  0  0  0
    3.2556    0.6848   18.5302 C   0  0  0  0  0  0  0  0  0  0  0  0
    2.9998   -0.0934   20.0824 Cl  0  0  0  0  0  0  0  0  0  0  0  0
    4.1090    1.7919   18.4083 C   0  0  0  0  0  0  0  0  0  0  0  0
    4.2914    2.3805   17.1810 C   0  0  0  0  0  0  0  0  0  0  0  0
    5.1113    3.5116   16.9640 N   0  0  0  0  0  0  0  0  0  0  0  0
    5.9883    3.4396   16.3687 H   0  0  0  0  0  0  0  0  0  0  0  0
    4.6911    5.0184   17.6662 S   0  0  0  0  0  0  0  0  0  0  0  0
    4.8971    6.1096   16.6234 O   0  0  0  0  0  0  0  0  0  0  0  0
    3.2066    4.9550   18.0180 O   0  0  0  0  0  0  0  0  0  0  0  0
    5.5689    5.4397   19.0885 C   0  0  0  0  0  0  0  0  0  0  0  0
    5.3090    4.8059   20.3085 C   0  0  0  0  0  0  0  0  0  0  0  0
    6.0298    5.1778   21.4065 C   0  0  0  0  0  0  0  0  0  0  0  0
    7.0008    6.1617   21.3243 C   0  0  0  0  0  0  0  0  0  0  0  0
    7.9123    6.6266   22.7370 Cl  0  0  0  0  0  0  0  0  0  0  0  0
    7.2618    6.7934   20.1154 C   0  0  0  0  0  0  0  0  0  0  0  0
    8.4931    8.0270   20.0558 Cl  0  0  0  0  0  0  0  0  0  0  0  0
    6.5298    6.4165   18.9971 C   0  0  0  0  0  0  0  0  0  0  0  0
    3.7576    2.3991   14.8414 O   0  0  0  0  0  0  0  0  0  0  0  0
    0.6061    4.4695   13.0015 C   0  0  0  0  0  0  0  0  0  0  0  0
    0.8010    3.1006   12.7645 C   0  0  0  0  0  0  0  0  0  0  0  0
    1.8438    2.4275   13.3759 C   0  0  0  0  0  0  0  0  0  0  0  0
    2.7140    3.0673   14.2259 C   0  0  0  0  0  0  0  0  0  0  0  0
    2.5022    4.4068   14.4411 C   0  0  0  0  0  0  0  0  0  0  0  0
    1.4667    5.1035   13.8418 C   0  0  0  0  0  0  0  0  0  0  0  0
   -0.3026    6.2913   11.7936 O   0  0  0  0  0  0  0  0  0  0  0  0
   -0.5044    5.1555   12.3594 C   0  0  0  0  0  0  0  0  0  0  0  0
   -1.8119    4.6305   12.3248 N   0  0  0  0  0  0  0  0  0  0  0  0
   -1.9518    3.7026   12.7951 H   0  0  0  0  0  0  0  0  0  0  0  0
   -2.9617    5.2379   11.7177 C   0  0  0  0  0  0  0  0  0  0  0  0
   -3.4845    4.3427   10.6280 C   0  0  0  0  0  0  0  0  0  0  0  0
   -4.9007    4.5160   10.4797 N   0  0  0  0  0  0  0  0  0  0  0  0
   -5.3317    5.0591    9.2373 C   0  0  0  0  0  0  0  0  0  0  0  0
   -5.7618    6.4938    9.4945 C   0  0  0  0  0  0  0  0  0  0  0  0
   -6.1605    6.4575   10.9423 C   0  0  0  0  0  0  0  0  0  0  0  0
   -5.5415    5.2225   11.5428 C   0  0  0  0  0  0  0  0  0  0  0  0
 28 29  2  0  0  0
 29 30  1  0  0  0
 30 32  1  0  0  0
 32 33  1  0  0  0
 33 34  1  0  0  0
 34 35  1  0  0  0
 35 36  1  0  0  0
 36 37  1  0  0  0
 37 38  1  0  0  0
 29 22  1  0  0  0
 22 23  2  0  0  0
 23 24  1  0  0  0
 24 25  2  0  0  0
 25 21  1  0  0  0
 21  1  1  0  0  0
  1  2  2  0  0  0
  2  3  1  0  0  0
  3  4  2  0  0  0
  4  5  1  0  0  0
  4  6  1  0  0  0
  6  7  2  0  0  0
  7  8  1  0  0  0
  8 10  1  0  0  0
 10 11  2  0  0  0
 10 12  2  0  0  0
 10 13  1  0  0  0
 13 14  2  0  0  0
 14 15  1  0  0  0
 15 16  2  0  0  0
 16 17  1  0  0  0
 16 18  1  0  0  0
 18 19  1  0  0  0
 18 20  2  0  0  0
 25 26  1  0  0  0
 26 27  2  0  0  0
 38 34  1  0  0  0
 27 22  1  0  0  0
  7  1  1  0  0  0
 20 13  1  0  0  0
 30 31  1  0  0  0
  8  9  1  0  0  0
M  END
> <minimizedAffinity>
-8.20123

> <CNNscore>
0.4065360427

> <CNNaffinity>
6.5285024643

> <CNN_VS>
2.6540715694

> <CNNaffinity_variance>
0.3612756729

$$$$
[H]c1nc(Oc2c([H])c([H])c(C(=O)N([H])C([H])([H])C([H])([H])N3C([H])([H])C([H])([H])C([H])([H])C3([H])[H])c([H])c2[H])c(N([H])S(=O)(=O)c2c([H])c([H])c(Cl)c(Cl)c2[H])c([H])c1Cl


 38 41  0  0  0  0  0  0  0  0999 V2000
    6.1787    8.5666   21.7868 C   0  0  0  0  0  0  0  0  0  0  0  0
    7.3827    9.0387   22.1571 N   0  0  0  0  0  0  0  0  0  0  0  0
    8.3238    8.2369   22.6636 C   0  0  0  0  0  0  0  0  0  0  0  0
    8.0531    6.9111   22.8061 C   0  0  0  0  0  0  0  0  0  0  0  0
    9.2960    5.8665   23.4729 Cl  0  0  0  0  0  0  0  0  0  0  0  0
    6.8040    6.3973   22.4261 C   0  0  0  0  0  0  0  0  0  0  0  0
    5.8497    7.2381   21.9082 C   0  0  0  0  0  0  0  0  0  0  0  0
    4.5733    6.8099   21.4765 N   0  0  0  0  0  0  0  0  0  0  0  0
    3.6981    7.0903   22.0097 H   0  0  0  0  0  0  0  0  0  0  0  0
    4.4296    5.8277   20.0783 S   0  0  0  0  0  0  0  0  0  0  0  0
    3.1853    6.2592   19.3128 O   0  0  0  0  0  0  0  0  0  0  0  0
    5.6549    6.0978   19.2082 O   0  0  0  0  0  0  0  0  0  0  0  0
    4.3366    4.1323   20.3745 C   0  0  0  0  0  0  0  0  0  0  0  0
    4.2695    3.2196   19.3162 C   0  0  0  0  0  0  0  0  0  0  0  0
    4.1942    1.8873   19.6038 C   0  0  0  0  0  0  0  0  0  0  0  0
    4.1838    1.4385   20.9138 C   0  0  0  0  0  0  0  0  0  0  0  0
    4.0856   -0.2674   21.2648 Cl  0  0  0  0  0  0  0  0  0  0  0  0
    4.2500    2.3410   21.9673 C   0  0  0  0  0  0  0  0  0  0  0  0
    4.2344    1.7334   23.6019 Cl  0  0  0  0  0  0  0  0  0  0  0  0
    4.3269    3.6968   21.6769 C   0  0  0  0  0  0  0  0  0  0  0  0
    5.2471    9.4701   21.2648 O   0  0  0  0  0  0  0  0  0  0  0  0
    4.4167    9.6624   17.1567 C   0  0  0  0  0  0  0  0  0  0  0  0
    5.7360    9.5381   17.6174 C   0  0  0  0  0  0  0  0  0  0  0  0
    5.9988    9.4762   18.9743 C   0  0  0  0  0  0  0  0  0  0  0  0
    4.9904    9.5332   19.9066 C   0  0  0  0  0  0  0  0  0  0  0  0
    3.7084    9.6553   19.4304 C   0  0  0  0  0  0  0  0  0  0  0  0
    3.4186    9.7194   18.0781 C   0  0  0  0  0  0  0  0  0  0  0  0
    5.0743   10.1508   14.9357 O   0  0  0  0  0  0  0  0  0  0  0  0
    4.1607    9.7122   15.7255 C   0  0  0  0  0  0  0  0  0  0  0  0
    2.9427    9.2973   15.1505 N   0  0  0  0  0  0  0  0  0  0  0  0
    2.2118    8.9447   15.8162 H   0  0  0  0  0  0  0  0  0  0  0  0
    2.6060    9.3137   13.7555 C   0  0  0  0  0  0  0  0  0  0  0  0
    2.4747    7.9015   13.2552 C   0  0  0  0  0  0  0  0  0  0  0  0
    1.1274    7.4385   13.4226 N   0  0  0  0  0  0  0  0  0  0  0  0
    0.9795    6.1899   14.0885 C   0  0  0  0  0  0  0  0  0  0  0  0
    0.5950    5.1595   13.0397 C   0  0  0  0  0  0  0  0  0  0  0  0
   -0.0788    5.9995   11.9925 C   0  0  0  0  0  0  0  0  0  0  0  0
    0.3362    7.4274   12.2335 C   0  0  0  0  0  0  0  0  0  0  0  0
 28 29  2  0  0  0
 29 30  1  0  0  0
 30 32  1  0  0  0
 32 33  1  0  0  0
 33 34  1  0  0  0
 34 35  1  0  0  0
 35 36  1  0  0  0
 36 37  1  0  0  0
 37 38  1  0  0  0
 29 22  1  0  0  0
 22 23  2  0  0  0
 23 24  1  0  0  0
 24 25  2  0  0  0
 25 21  1  0  0  0
 21  1  1  0  0  0
  1  2  2  0  0  0
  2  3  1  0  0  0
  3  4  2  0  0  0
  4  5  1  0  0  0
  4  6  1  0  0  0
  6  7  2  0  0  0
  7  8  1  0  0  0
  8 10  1  0  0  0
 10 11  2  0  0  0
 10 12  2  0  0  0
 10 13  1  0  0  0
 13 14  2  0  0  0
 14 15  1  0  0  0
 15 16  2  0  0  0
 16 17  1  0  0  0
 16 18  1  0  0  0
 18 19  1  0  0  0
 18 20  2  0  0  0
 25 26  1  0  0  0
 26 27  2  0  0  0
 38 34  1  0  0  0
 27 22  1  0  0  0
  7  1  1  0  0  0
 20 13  1  0  0  0
 30 31  1  0  0  0
  8  9  1  0  0  0
M  END
> <minimizedAffinity>
-8.85875

> <CNNscore>
0.2884256244

> <CNNaffinity>
6.3793292046

> <CNN_VS>
1.8399620056

> <CNNaffinity_variance>
0.3235577643

$$$$
[H]c1nc(Oc2c([H])c([H])c(C(=O)N([H])C([H])([H])C([H])([H])N3C([H])([H])C([H])([H])C([H])([H])C3([H])[H])c([H])c2[H])c(N([H])S(=O)(=O)c2c([H])c([H])c(Cl)c(Cl)c2[H])c([H])c1Cl


 38 41  0  0  0  0  0  0  0  0999 V2000
    6.2186    9.2370   22.4085 C   0  0  0  0  0  0  0  0  0  0  0  0
    6.7859   10.4543   22.3299 N   0  0  0  0  0  0  0  0  0  0  0  0
    8.0268   10.6785   22.7718 C   0  0  0  0  0  0  0  0  0  0  0  0
    8.7298    9.6471   23.3133 C   0  0  0  0  0  0  0  0  0  0  0  0
   10.3588    9.9522   23.8912 Cl  0  0  0  0  0  0  0  0  0  0  0  0
    8.1576    8.3693   23.4049 C   0  0  0  0  0  0  0  0  0  0  0  0
    6.8805    8.1594   22.9457 C   0  0  0  0  0  0  0  0  0  0  0  0
    6.2296    6.9047   22.9738 N   0  0  0  0  0  0  0  0  0  0  0  0
    5.3950    6.7409   23.6106 H   0  0  0  0  0  0  0  0  0  0  0  0
    6.7881    5.6301   21.9721 S   0  0  0  0  0  0  0  0  0  0  0  0
    7.0353    6.1879   20.5763 O   0  0  0  0  0  0  0  0  0  0  0  0
    8.1189    5.1521   22.5483 O   0  0  0  0  0  0  0  0  0  0  0  0
    5.7319    4.2737   21.8467 C   0  0  0  0  0  0  0  0  0  0  0  0
    5.1677    3.6933   22.9879 C   0  0  0  0  0  0  0  0  0  0  0  0
    4.3397    2.6187   22.8352 C   0  0  0  0  0  0  0  0  0  0  0  0
    4.0581    2.1063   21.5799 C   0  0  0  0  0  0  0  0  0  0  0  0
    2.9992    0.7316   21.4016 Cl  0  0  0  0  0  0  0  0  0  0  0  0
    4.6161    2.6793   20.4446 C   0  0  0  0  0  0  0  0  0  0  0  0
    4.2351    2.0029   18.8830 Cl  0  0  0  0  0  0  0  0  0  0  0  0
    5.4585    3.7727   20.5977 C   0  0  0  0  0  0  0  0  0  0  0  0
    4.9156    9.0833   21.9237 O   0  0  0  0  0  0  0  0  0  0  0  0
    4.1318    8.9499   17.8040 C   0  0  0  0  0  0  0  0  0  0  0  0
    4.1766    7.7720   18.5648 C   0  0  0  0  0  0  0  0  0  0  0  0
    4.4366    7.8272   19.9226 C   0  0  0  0  0  0  0  0  0  0  0  0
    4.6568    9.0217   20.5658 C   0  0  0  0  0  0  0  0  0  0  0  0
    4.6080   10.1598   19.7992 C   0  0  0  0  0  0  0  0  0  0  0  0
    4.3500   10.1320   18.4393 C   0  0  0  0  0  0  0  0  0  0  0  0
    3.9261    9.9318   15.6599 O   0  0  0  0  0  0  0  0  0  0  0  0
    3.8435    8.8711   16.3803 C   0  0  0  0  0  0  0  0  0  0  0  0
    3.4726    7.6720   15.7393 N   0  0  0  0  0  0  0  0  0  0  0  0
    3.4105    6.8200   16.3491 H   0  0  0  0  0  0  0  0  0  0  0  0
    3.1701    7.5050   14.3464 C   0  0  0  0  0  0  0  0  0  0  0  0
    2.4096    6.2225   14.1491 C   0  0  0  0  0  0  0  0  0  0  0  0
    1.4910    6.3530   13.0552 N   0  0  0  0  0  0  0  0  0  0  0  0
    0.4534    7.3110   13.2283 C   0  0  0  0  0  0  0  0  0  0  0  0
   -0.8360    6.5439   13.4703 C   0  0  0  0  0  0  0  0  0  0  0  0
   -0.5705    5.2378   12.7775 C   0  0  0  0  0  0  0  0  0  0  0  0
    0.9203    5.1287   12.5911 C   0  0  0  0  0  0  0  0  0  0  0  0
 28 29  2  0  0  0
 29 30  1  0  0  0
 30 32  1  0  0  0
 32 33  1  0  0  0
 33 34  1  0  0  0
 34 35  1  0  0  0
 35 36  1  0  0  0
 36 37  1  0  0  0
 37 38  1  0  0  0
 29 22  1  0  0  0
 22 23  2  0  0  0
 23 24  1  0  0  0
 24 25  2  0  0  0
 25 21  1  0  0  0
 21  1  1  0  0  0
  1  2  2  0  0  0
  2  3  1  0  0  0
  3  4  2  0  0  0
  4  5  1  0  0  0
  4  6  1  0  0  0
  6  7  2  0  0  0
  7  8  1  0  0  0
  8 10  1  0  0  0
 10 11  2  0  0  0
 10 12  2  0  0  0
 10 13  1  0  0  0
 13 14  2  0  0  0
 14 15  1  0  0  0
 15 16  2  0  0  0
 16 17  1  0  0  0
 16 18  1  0  0  0
 18 19  1  0  0  0
 18 20  2  0  0  0
 25 26  1  0  0  0
 26 27  2  0  0  0
 38 34  1  0  0  0
 27 22  1  0  0  0
  7  1  1  0  0  0
 20 13  1  0  0  0
 30 31  1  0  0  0
  8  9  1  0  0  0
M  END
> <minimizedAffinity>
-8.61507

> <CNNscore>
0.2778487504

> <CNNaffinity>
6.3157181740

> <CNN_VS>
1.7548143864

> <CNNaffinity_variance>
0.1126333624

$$$$
[H]c1nc(Oc2c([H])c([H])c(C(=O)N([H])C([H])([H])C([H])([H])N3C([H])([H])C([H])([H])C([H])([H])C3([H])[H])c([H])c2[H])c(N([H])S(=O)(=O)c2c([H])c([H])c(Cl)c(Cl)c2[H])c([H])c1Cl


 38 41  0  0  0  0  0  0  0  0999 V2000
    4.8794    4.7305   19.4806 C   0  0  0  0  0  0  0  0  0  0  0  0
    5.2010    3.4901   19.8901 N   0  0  0  0  0  0  0  0  0  0  0  0
    4.9266    3.0679   21.1277 C   0  0  0  0  0  0  0  0  0  0  0  0
    4.3062    3.9169   21.9911 C   0  0  0  0  0  0  0  0  0  0  0  0
    3.9504    3.3528   23.6146 Cl  0  0  0  0  0  0  0  0  0  0  0  0
    3.9615    5.2150   21.5849 C   0  0  0  0  0  0  0  0  0  0  0  0
    4.2529    5.6302   20.3088 C   0  0  0  0  0  0  0  0  0  0  0  0
    3.9244    6.9086   19.8021 N   0  0  0  0  0  0  0  0  0  0  0  0
    2.9805    7.0857   19.3476 H   0  0  0  0  0  0  0  0  0  0  0  0
    5.0568    8.1907   19.9195 S   0  0  0  0  0  0  0  0  0  0  0  0
    5.0242    8.9825   18.6186 O   0  0  0  0  0  0  0  0  0  0  0  0
    4.5937    9.1004   21.0551 O   0  0  0  0  0  0  0  0  0  0  0  0
    6.6824    7.7123   20.2353 C   0  0  0  0  0  0  0  0  0  0  0  0
    7.5866    7.5016   19.1886 C   0  0  0  0  0  0  0  0  0  0  0  0
    8.8620    7.1206   19.4915 C   0  0  0  0  0  0  0  0  0  0  0  0
    9.2621    6.9436   20.8054 C   0  0  0  0  0  0  0  0  0  0  0  0
   10.8951    6.4550   21.1757 Cl  0  0  0  0  0  0  0  0  0  0  0  0
    8.3677    7.1515   21.8472 C   0  0  0  0  0  0  0  0  0  0  0  0
    8.9126    6.9175   23.4873 Cl  0  0  0  0  0  0  0  0  0  0  0  0
    7.0697    7.5393   21.5414 C   0  0  0  0  0  0  0  0  0  0  0  0
    5.2002    5.0970   18.1693 O   0  0  0  0  0  0  0  0  0  0  0  0
    2.6607    4.1488   14.9669 C   0  0  0  0  0  0  0  0  0  0  0  0
    2.7016    5.4500   15.4899 C   0  0  0  0  0  0  0  0  0  0  0  0
    3.5422    5.7518   16.5465 C   0  0  0  0  0  0  0  0  0  0  0  0
    4.3564    4.8006   17.1136 C   0  0  0  0  0  0  0  0  0  0  0  0
    4.2976    3.5351   16.5842 C   0  0  0  0  0  0  0  0  0  0  0  0
    3.4653    3.2071   15.5276 C   0  0  0  0  0  0  0  0  0  0  0  0
    1.5573    2.6325   13.5223 O   0  0  0  0  0  0  0  0  0  0  0  0
    1.7798    3.8555   13.8470 C   0  0  0  0  0  0  0  0  0  0  0  0
    1.1471    4.8597   13.0870 N   0  0  0  0  0  0  0  0  0  0  0  0
    1.3458    5.8506   13.3705 H   0  0  0  0  0  0  0  0  0  0  0  0
    0.2681    4.6610   11.9701 C   0  0  0  0  0  0  0  0  0  0  0  0
   -1.1570    4.6453   12.4506 C   0  0  0  0  0  0  0  0  0  0  0  0
   -1.8109    5.8745   12.1056 N   0  0  0  0  0  0  0  0  0  0  0  0
   -1.7041    6.9228   13.0616 C   0  0  0  0  0  0  0  0  0  0  0  0
   -3.0581    7.0591   13.7381 C   0  0  0  0  0  0  0  0  0  0  0  0
   -3.9986    6.5431   12.6868 C   0  0  0  0  0  0  0  0  0  0  0  0
   -3.1768    5.7458   11.7080 C   0  0  0  0  0  0  0  0  0  0  0  0
 28 29  2  0  0  0
 29 30  1  0  0  0
 30 32  1  0  0  0
 32 33  1  0  0  0
 33 34  1  0  0  0
 34 35  1  0  0  0
 35 36  1  0  0  0
 36 37  1  0  0  0
 37 38  1  0  0  0
 29 22  1  0  0  0
 22 23  2  0  0  0
 23 24  1  0  0  0
 24 25  2  0  0  0
 25 21  1  0  0  0
 21  1  1  0  0  0
  1  2  2  0  0  0
  2  3  1  0  0  0
  3  4  2  0  0  0
  4  5  1  0  0  0
  4  6  1  0  0  0
  6  7  2  0  0  0
  7  8  1  0  0  0
  8 10  1  0  0  0
 10 11  2  0  0  0
 10 12  2  0  0  0
 10 13  1  0  0  0
 13 14  2  0  0  0
 14 15  1  0  0  0
 15 16  2  0  0  0
 16 17  1  0  0  0
 16 18  1  0  0  0
 18 19  1  0  0  0
 18 20  2  0  0  0
 25 26  1  0  0  0
 26 27  2  0  0  0
 38 34  1  0  0  0
 27 22  1  0  0  0
  7  1  1  0  0  0
 20 13  1  0  0  0
 30 31  1  0  0  0
  8  9  1  0  0  0
M  END
> <minimizedAffinity>
-8.34549

> <CNNscore>
0.2291376442

> <CNNaffinity>
6.3889131546

> <CNN_VS>
1.4639405012

> <CNNaffinity_variance>
0.1879990995

$$$$
[H]c1nc(Oc2c([H])c([H])c(C(=O)N([H])C([H])([H])C([H])([H])N3C([H])([H])C([H])([H])C([H])([H])C3([H])[H])c([H])c2[H])c(N([H])S(=O)(=O)c2c([H])c([H])c(Cl)c(Cl)c2[H])c([H])c1Cl


 38 41  0  0  0  0  0  0  0  0999 V2000
    4.7394    4.9157   19.6681 C   0  0  0  0  0  0  0  0  0  0  0  0
    4.9712    3.6323   19.9979 N   0  0  0  0  0  0  0  0  0  0  0  0
    4.7167    3.1675   21.2245 C   0  0  0  0  0  0  0  0  0  0  0  0
    4.2104    4.0169   22.1591 C   0  0  0  0  0  0  0  0  0  0  0  0
    3.8799    3.3966   23.7674 Cl  0  0  0  0  0  0  0  0  0  0  0  0
    3.9607    5.3594   21.8365 C   0  0  0  0  0  0  0  0  0  0  0  0
    4.2297    5.8179   20.5703 C   0  0  0  0  0  0  0  0  0  0  0  0
    3.9900    7.1450   20.1457 N   0  0  0  0  0  0  0  0  0  0  0  0
    3.0884    7.3996   19.6447 H   0  0  0  0  0  0  0  0  0  0  0  0
    5.1628    8.3608   20.4396 S   0  0  0  0  0  0  0  0  0  0  0  0
    5.1165    9.3617   19.2922 O   0  0  0  0  0  0  0  0  0  0  0  0
    4.7594    9.0765   21.7267 O   0  0  0  0  0  0  0  0  0  0  0  0
    6.7818    7.7964   20.6164 C   0  0  0  0  0  0  0  0  0  0  0  0
    7.6103    7.6266   19.5018 C   0  0  0  0  0  0  0  0  0  0  0  0
    8.8837    7.1742   19.6949 C   0  0  0  0  0  0  0  0  0  0  0  0
    9.3549    6.8863   20.9649 C   0  0  0  0  0  0  0  0  0  0  0  0
   10.9843    6.3075   21.1948 Cl  0  0  0  0  0  0  0  0  0  0  0  0
    8.5358    7.0533   22.0739 C   0  0  0  0  0  0  0  0  0  0  0  0
    9.1690    6.6792   23.6552 Cl  0  0  0  0  0  0  0  0  0  0  0  0
    7.2401    7.5137   21.8797 C   0  0  0  0  0  0  0  0  0  0  0  0
    5.0320    5.3253   18.3629 O   0  0  0  0  0  0  0  0  0  0  0  0
    2.7417    4.0292   15.0952 C   0  0  0  0  0  0  0  0  0  0  0  0
    2.2795    5.0540   15.9345 C   0  0  0  0  0  0  0  0  0  0  0  0
    3.0424    5.4733   17.0098 C   0  0  0  0  0  0  0  0  0  0  0  0
    4.2639    4.9089   17.2900 C   0  0  0  0  0  0  0  0  0  0  0  0
    4.6936    3.9079   16.4542 C   0  0  0  0  0  0  0  0  0  0  0  0
    3.9496    3.4698   15.3719 C   0  0  0  0  0  0  0  0  0  0  0  0
    1.0734    4.4301   13.4643 O   0  0  0  0  0  0  0  0  0  0  0  0
    1.9303    3.6123   13.9620 C   0  0  0  0  0  0  0  0  0  0  0  0
    2.0370    2.3369   13.3717 N   0  0  0  0  0  0  0  0  0  0  0  0
    2.7426    1.6865   13.7969 H   0  0  0  0  0  0  0  0  0  0  0  0
    1.2784    1.8439   12.2577 C   0  0  0  0  0  0  0  0  0  0  0  0
    2.1000    1.9566   11.0029 C   0  0  0  0  0  0  0  0  0  0  0  0
    1.5568    2.9678   10.1427 N   0  0  0  0  0  0  0  0  0  0  0  0
    0.1578    3.1975   10.2630 C   0  0  0  0  0  0  0  0  0  0  0  0
   -0.5066    2.6038    9.0319 C   0  0  0  0  0  0  0  0  0  0  0  0
    0.5925    2.6646    8.0099 C   0  0  0  0  0  0  0  0  0  0  0  0
    1.8880    2.8320    8.7600 C   0  0  0  0  0  0  0  0  0  0  0  0
 28 29  2  0  0  0
 29 30  1  0  0  0
 30 32  1  0  0  0
 32 33  1  0  0  0
 33 34  1  0  0  0
 34 35  1  0  0  0
 35 36  1  0  0  0
 36 37  1  0  0  0
 37 38  1  0  0  0
 29 22  1  0  0  0
 22 23  2  0  0  0
 23 24  1  0  0  0
 24 25  2  0  0  0
 25 21  1  0  0  0
 21  1  1  0  0  0
  1  2  2  0  0  0
  2  3  1  0  0  0
  3  4  2  0  0  0
  4  5  1  0  0  0
  4  6  1  0  0  0
  6  7  2  0  0  0
  7  8  1  0  0  0
  8 10  1  0  0  0
 10 11  2  0  0  0
 10 12  2  0  0  0
 10 13  1  0  0  0
 13 14  2  0  0  0
 14 15  1  0  0  0
 15 16  2  0  0  0
 16 17  1  0  0  0
 16 18  1  0  0  0
 18 19  1  0  0  0
 18 20  2  0  0  0
 25 26  1  0  0  0
 26 27  2  0  0  0
 38 34  1  0  0  0
 27 22  1  0  0  0
  7  1  1  0  0  0
 20 13  1  0  0  0
 30 31  1  0  0  0
  8  9  1  0  0  0
M  END
> <minimizedAffinity>
-7.57519

> <CNNscore>
0.2195370197

> <CNNaffinity>
6.2797574997

> <CNN_VS>
1.3786392212

> <CNNaffinity_variance>
0.3425357342

$$$$
[H]c1nc(Oc2c([H])c([H])c(C(=O)N([H])C([H])([H])C([H])([H])N3C([H])([H])C([H])([H])C([H])([H])C3([H])[H])c([H])c2[H])c(N([H])S(=O)(=O)c2c([H])c([H])c(Cl)c(Cl)c2[H])c([H])c1Cl


 38 41  0  0  0  0  0  0  0  0999 V2000
    5.0150    4.7249   20.2173 C   0  0  0  0  0  0  0  0  0  0  0  0
    5.3637    3.4310   20.3353 N   0  0  0  0  0  0  0  0  0  0  0  0
    5.2854    2.7883   21.5041 C   0  0  0  0  0  0  0  0  0  0  0  0
    4.8412    3.4633   22.5987 C   0  0  0  0  0  0  0  0  0  0  0  0
    4.7424    2.6101   24.1294 Cl  0  0  0  0  0  0  0  0  0  0  0  0
    4.4720    4.8133   22.4983 C   0  0  0  0  0  0  0  0  0  0  0  0
    4.5604    5.4562   21.2880 C   0  0  0  0  0  0  0  0  0  0  0  0
    4.1900    6.8053   21.0839 N   0  0  0  0  0  0  0  0  0  0  0  0
    3.1744    7.0698   20.9187 H   0  0  0  0  0  0  0  0  0  0  0  0
    5.3879    8.0320   21.1022 S   0  0  0  0  0  0  0  0  0  0  0  0
    5.5909    8.5279   19.6762 O   0  0  0  0  0  0  0  0  0  0  0  0
    4.8436    9.1830   21.9452 O   0  0  0  0  0  0  0  0  0  0  0  0
    6.9155    7.5615   21.7471 C   0  0  0  0  0  0  0  0  0  0  0  0
    7.1388    7.5436   23.1281 C   0  0  0  0  0  0  0  0  0  0  0  0
    8.3674    7.1660   23.5883 C   0  0  0  0  0  0  0  0  0  0  0  0
    9.3787    6.8063   22.7133 C   0  0  0  0  0  0  0  0  0  0  0  0
   10.9436    6.3277   23.3171 Cl  0  0  0  0  0  0  0  0  0  0  0  0
    9.1613    6.8229   21.3417 C   0  0  0  0  0  0  0  0  0  0  0  0
   10.4619    6.3625   20.2750 Cl  0  0  0  0  0  0  0  0  0  0  0  0
    7.9121    7.2065   20.8715 C   0  0  0  0  0  0  0  0  0  0  0  0
    5.1253    5.3265   18.9593 O   0  0  0  0  0  0  0  0  0  0  0  0
    2.9644    3.8786   15.6672 C   0  0  0  0  0  0  0  0  0  0  0  0
    4.3210    3.5609   15.8315 C   0  0  0  0  0  0  0  0  0  0  0  0
    5.0244    4.0442   16.9204 C   0  0  0  0  0  0  0  0  0  0  0  0
    4.4273    4.8416   17.8674 C   0  0  0  0  0  0  0  0  0  0  0  0
    3.0994    5.1384   17.6837 C   0  0  0  0  0  0  0  0  0  0  0  0
    2.3730    4.6679   16.6031 C   0  0  0  0  0  0  0  0  0  0  0  0
    2.3559    2.1056   14.2217 O   0  0  0  0  0  0  0  0  0  0  0  0
    2.2394    3.3492   14.5225 C   0  0  0  0  0  0  0  0  0  0  0  0
    1.4019    4.1425   13.7129 N   0  0  0  0  0  0  0  0  0  0  0  0
    1.3243    5.1552   13.9778 H   0  0  0  0  0  0  0  0  0  0  0  0
    0.6541    3.7049   12.5687 C   0  0  0  0  0  0  0  0  0  0  0  0
    1.3939    4.0788   11.3138 C   0  0  0  0  0  0  0  0  0  0  0  0
    0.8745    5.3036   10.7774 N   0  0  0  0  0  0  0  0  0  0  0  0
    1.7595    6.4173   10.8065 C   0  0  0  0  0  0  0  0  0  0  0  0
    1.2705    7.3565   11.8966 C   0  0  0  0  0  0  0  0  0  0  0  0
   -0.1970    7.0426   11.9600 C   0  0  0  0  0  0  0  0  0  0  0  0
   -0.3943    5.7049   11.2962 C   0  0  0  0  0  0  0  0  0  0  0  0
 28 29  2  0  0  0
 29 30  1  0  0  0
 30 32  1  0  0  0
 32 33  1  0  0  0
 33 34  1  0  0  0
 34 35  1  0  0  0
 35 36  1  0  0  0
 36 37  1  0  0  0
 37 38  1  0  0  0
 29 22  1  0  0  0
 22 23  2  0  0  0
 23 24  1  0  0  0
 24 25  2  0  0  0
 25 21  1  0  0  0
 21  1  1  0  0  0
  1  2  2  0  0  0
  2  3  1  0  0  0
  3  4  2  0  0  0
  4  5  1  0  0  0
  4  6  1  0  0  0
  6  7  2  0  0  0
  7  8  1  0  0  0
  8 10  1  0  0  0
 10 11  2  0  0  0
 10 12  2  0  0  0
 10 13  1  0  0  0
 13 14  2  0  0  0
 14 15  1  0  0  0
 15 16  2  0  0  0
 16 17  1  0  0  0
 16 18  1  0  0  0
 18 19  1  0  0  0
 18 20  2  0  0  0
 25 26  1  0  0  0
 26 27  2  0  0  0
 38 34  1  0  0  0
 27 22  1  0  0  0
  7  1  1  0  0  0
 20 13  1  0  0  0
 30 31  1  0  0  0
  8  9  1  0  0  0
M  END
> <minimizedAffinity>
-8.02204

> <CNNscore>
0.2015562803

> <CNNaffinity>
6.4228529930

> <CNN_VS>
1.2945663929

> <CNNaffinity_variance>
0.1428339183

$$$$
[H]c1nc(Oc2c([H])c([H])c(C(=O)N([H])C([H])([H])C([H])([H])N3C([H])([H])C([H])([H])C([H])([H])C3([H])[H])c([H])c2[H])c(N([H])S(=O)(=O)c2c([H])c([H])c(Cl)c(Cl)c2[H])c([H])c1Cl


 38 41  0  0  0  0  0  0  0  0999 V2000
    3.8110    6.6721   17.7856 C   0  0  0  0  0  0  0  0  0  0  0  0
    4.1899    7.4348   16.7443 N   0  0  0  0  0  0  0  0  0  0  0  0
    4.5851    8.7003   16.9103 C   0  0  0  0  0  0  0  0  0  0  0  0
    4.6035    9.2257   18.1652 C   0  0  0  0  0  0  0  0  0  0  0  0
    5.1239   10.8890   18.3725 Cl  0  0  0  0  0  0  0  0  0  0  0  0
    4.2127    8.4479   19.2657 C   0  0  0  0  0  0  0  0  0  0  0  0
    3.8090    7.1493   19.0740 C   0  0  0  0  0  0  0  0  0  0  0  0
    3.4204    6.2826   20.1212 N   0  0  0  0  0  0  0  0  0  0  0  0
    2.4004    6.2000   20.4066 H   0  0  0  0  0  0  0  0  0  0  0  0
    4.6032    5.3521   20.9431 S   0  0  0  0  0  0  0  0  0  0  0  0
    5.9467    5.5679   20.2582 O   0  0  0  0  0  0  0  0  0  0  0  0
    4.6915    5.8905   22.3692 O   0  0  0  0  0  0  0  0  0  0  0  0
    4.2872    3.6594   21.0201 C   0  0  0  0  0  0  0  0  0  0  0  0
    4.1534    3.0077   22.2509 C   0  0  0  0  0  0  0  0  0  0  0  0
    3.9063    1.6651   22.2579 C   0  0  0  0  0  0  0  0  0  0  0  0
    3.7890    0.9539   21.0754 C   0  0  0  0  0  0  0  0  0  0  0  0
    3.4746   -0.7616   21.1014 Cl  0  0  0  0  0  0  0  0  0  0  0  0
    3.9213    1.5969   19.8516 C   0  0  0  0  0  0  0  0  0  0  0  0
    3.7662    0.6638   18.3865 Cl  0  0  0  0  0  0  0  0  0  0  0  0
    4.1724    2.9627   19.8422 C   0  0  0  0  0  0  0  0  0  0  0  0
    3.4107    5.3565   17.5294 O   0  0  0  0  0  0  0  0  0  0  0  0
    2.6961    4.0283   13.6142 C   0  0  0  0  0  0  0  0  0  0  0  0
    3.8785    3.6821   14.2852 C   0  0  0  0  0  0  0  0  0  0  0  0
    4.1045    4.1260   15.5759 C   0  0  0  0  0  0  0  0  0  0  0  0
    3.1909    4.9110   16.2380 C   0  0  0  0  0  0  0  0  0  0  0  0
    2.0423    5.2362   15.5596 C   0  0  0  0  0  0  0  0  0  0  0  0
    1.7920    4.8053   14.2680 C   0  0  0  0  0  0  0  0  0  0  0  0
    1.3299    3.0385   11.9536 O   0  0  0  0  0  0  0  0  0  0  0  0
    2.4718    3.5401   12.2623 C   0  0  0  0  0  0  0  0  0  0  0  0
    3.4580    3.5896   11.2567 N   0  0  0  0  0  0  0  0  0  0  0  0
    4.3827    4.0021   11.5336 H   0  0  0  0  0  0  0  0  0  0  0  0
    3.3235    3.1312    9.9034 C   0  0  0  0  0  0  0  0  0  0  0  0
    4.6323    2.5555    9.4370 C   0  0  0  0  0  0  0  0  0  0  0  0
    4.4100    1.3325    8.7212 N   0  0  0  0  0  0  0  0  0  0  0  0
    3.8446    0.2669    9.4758 C   0  0  0  0  0  0  0  0  0  0  0  0
    4.9478   -0.7485    9.7233 C   0  0  0  0  0  0  0  0  0  0  0  0
    5.8688   -0.5159    8.5597 C   0  0  0  0  0  0  0  0  0  0  0  0
    5.5365    0.8401    7.9942 C   0  0  0  0  0  0  0  0  0  0  0  0
 28 29  2  0  0  0
 29 30  1  0  0  0
 30 32  1  0  0  0
 32 33  1  0  0  0
 33 34  1  0  0  0
 34 35  1  0  0  0
 35 36  1  0  0  0
 36 37  1  0  0  0
 37 38  1  0  0  0
 29 22  1  0  0  0
 22 23  2  0  0  0
 23 24  1  0  0  0
 24 25  2  0  0  0
 25 21  1  0  0  0
 21  1  1  0  0  0
  1  2  2  0  0  0
  2  3  1  0  0  0
  3  4  2  0  0  0
  4  5  1  0  0  0
  4  6  1  0  0  0
  6  7  2  0  0  0
  7  8  1  0  0  0
  8 10  1  0  0  0
 10 11  2  0  0  0
 10 12  2  0  0  0
 10 13  1  0  0  0
 13 14  2  0  0  0
 14 15  1  0  0  0
 15 16  2  0  0  0
 16 17  1  0  0  0
 16 18  1  0  0  0
 18 19  1  0  0  0
 18 20  2  0  0  0
 25 26  1  0  0  0
 26 27  2  0  0  0
 38 34  1  0  0  0
 27 22  1  0  0  0
  7  1  1  0  0  0
 20 13  1  0  0  0
 30 31  1  0  0  0
  8  9  1  0  0  0
M  END
> <minimizedAffinity>
-8.16329

> <CNNscore>
0.1855702847

> <CNNaffinity>
6.3575506210

> <CNN_VS>
1.1797724962

> <CNNaffinity_variance>
0.3908312917

$$$$
[H]c1nc(Oc2c([H])c([H])c(C(=O)N([H])C([H])([H])C([H])([H])N3C([H])([H])C([H])([H])C([H])([H])C3([H])[H])c([H])c2[H])c(N([H])S(=O)(=O)c2c([H])c([H])c(Cl)c(Cl)c2[H])c([H])c1Cl


 38 41  0  0  0  0  0  0  0  0999 V2000
    3.5987    2.0822   16.1307 C   0  0  0  0  0  0  0  0  0  0  0  0
    3.0976    0.8391   16.0154 N   0  0  0  0  0  0  0  0  0  0  0  0
    2.8450    0.0835   17.0880 C   0  0  0  0  0  0  0  0  0  0  0  0
    3.1020    0.5885   18.3250 C   0  0  0  0  0  0  0  0  0  0  0  0
    2.7670   -0.4121   19.7275 Cl  0  0  0  0  0  0  0  0  0  0  0  0
    3.6245    1.8828   18.4684 C   0  0  0  0  0  0  0  0  0  0  0  0
    3.8780    2.6432   17.3534 C   0  0  0  0  0  0  0  0  0  0  0  0
    4.3811    3.9638   17.3983 N   0  0  0  0  0  0  0  0  0  0  0  0
    5.3510    4.1875   17.0267 H   0  0  0  0  0  0  0  0  0  0  0  0
    3.4207    5.2217   18.0581 S   0  0  0  0  0  0  0  0  0  0  0  0
    1.9869    5.0345   17.5788 O   0  0  0  0  0  0  0  0  0  0  0  0
    3.4510    5.0647   19.5766 O   0  0  0  0  0  0  0  0  0  0  0  0
    3.9303    6.8211   17.6670 C   0  0  0  0  0  0  0  0  0  0  0  0
    4.2933    7.1611   16.3593 C   0  0  0  0  0  0  0  0  0  0  0  0
    4.6927    8.4409   16.1019 C   0  0  0  0  0  0  0  0  0  0  0  0
    4.7409    9.3906   17.1086 C   0  0  0  0  0  0  0  0  0  0  0  0
    5.2549   11.0214   16.7637 Cl  0  0  0  0  0  0  0  0  0  0  0  0
    4.3816    9.0573   18.4080 C   0  0  0  0  0  0  0  0  0  0  0  0
    4.4566   10.2837   19.6457 Cl  0  0  0  0  0  0  0  0  0  0  0  0
    3.9748    7.7560   18.6720 C   0  0  0  0  0  0  0  0  0  0  0  0
    3.8356    2.8099   14.9598 O   0  0  0  0  0  0  0  0  0  0  0  0
    0.6942    4.5663   12.8033 C   0  0  0  0  0  0  0  0  0  0  0  0
    0.9354    3.1865   12.7250 C   0  0  0  0  0  0  0  0  0  0  0  0
    1.9744    2.6175   13.4397 C   0  0  0  0  0  0  0  0  0  0  0  0
    2.7960    3.3735   14.2414 C   0  0  0  0  0  0  0  0  0  0  0  0
    2.5396    4.7211   14.3007 C   0  0  0  0  0  0  0  0  0  0  0  0
    1.5068    5.3151   13.5956 C   0  0  0  0  0  0  0  0  0  0  0  0
   -0.2564    6.2774   11.4721 O   0  0  0  0  0  0  0  0  0  0  0  0
   -0.4117    5.1427   12.0544 C   0  0  0  0  0  0  0  0  0  0  0  0
   -1.6655    4.5106   11.9320 N   0  0  0  0  0  0  0  0  0  0  0  0
   -1.7682    3.5858   12.4177 H   0  0  0  0  0  0  0  0  0  0  0  0
   -2.8070    5.0062   11.2172 C   0  0  0  0  0  0  0  0  0  0  0  0
   -3.9064    3.9806   11.2559 C   0  0  0  0  0  0  0  0  0  0  0  0
   -5.1251    4.5764   11.7221 N   0  0  0  0  0  0  0  0  0  0  0  0
   -6.2940    4.2625   10.9739 C   0  0  0  0  0  0  0  0  0  0  0  0
   -6.6669    5.5004   10.1751 C   0  0  0  0  0  0  0  0  0  0  0  0
   -6.0885    6.6091   11.0074 C   0  0  0  0  0  0  0  0  0  0  0  0
   -5.0713    5.9886   11.9290 C   0  0  0  0  0  0  0  0  0  0  0  0
 28 29  2  0  0  0
 29 30  1  0  0  0
 30 32  1  0  0  0
 32 33  1  0  0  0
 33 34  1  0  0  0
 34 35  1  0  0  0
 35 36  1  0  0  0
 36 37  1  0  0  0
 37 38  1  0  0  0
 29 22  1  0  0  0
 22 23  2  0  0  0
 23 24  1  0  0  0
 24 25  2  0  0  0
 25 21  1  0  0  0
 21  1  1  0  0  0
  1  2  2  0  0  0
  2  3  1  0  0  0
  3  4  2  0  0  0
  4  5  1  0  0  0
  4  6  1  0  0  0
  6  7  2  0  0  0
  7  8  1  0  0  0
  8 10  1  0  0  0
 10 11  2  0  0  0
 10 12  2  0  0  0
 10 13  1  0  0  0
 13 14  2  0  0  0
 14 15  1  0  0  0
 15 16  2  0  0  0
 16 17  1  0  0  0
 16 18  1  0  0  0
 18 19  1  0  0  0
 18 20  2  0  0  0
 25 26  1  0  0  0
 26 27  2  0  0  0
 38 34  1  0  0  0
 27 22  1  0  0  0
  7  1  1  0  0  0
 20 13  1  0  0  0
 30 31  1  0  0  0
  8  9  1  0  0  0
M  END
> <minimizedAffinity>
-8.20512

> <CNNscore>
0.1851565987

> <CNNaffinity>
6.4435043335

> <CNN_VS>
1.1930572987

> <CNNaffinity_variance>
0.3949112296

$$$$
[H]c1c([H])c(N([H])c2nc(N([H])[H])nc(C([H])([H])Cl)n2)c([H])c([H])c1OC([H])([H])[H]


 21 22  0  0  0  0  0  0  0  0999 V2000
    4.2679    2.1435   19.7097 C   0  0  0  0  0  0  0  0  0  0  0  0
    3.9337    0.8687   19.9377 N   0  0  0  0  0  0  0  0  0  0  0  0
    3.5656    0.3475   21.1098 C   0  0  0  0  0  0  0  0  0  0  0  0
    3.2237   -1.0220   21.2744 N   0  0  0  0  0  0  0  0  0  0  0  0
    3.5206    1.1808   22.1888 N   0  0  0  0  0  0  0  0  0  0  0  0
    3.8458    2.4831   22.0313 C   0  0  0  0  0  0  0  0  0  0  0  0
    4.2056    2.9389   20.8299 N   0  0  0  0  0  0  0  0  0  0  0  0
    2.9494   -1.5922   20.4469 H   0  0  0  0  0  0  0  0  0  0  0  0
    3.2461   -1.4580   22.2182 H   0  0  0  0  0  0  0  0  0  0  0  0
    4.6572    2.7004   18.4753 N   0  0  0  0  0  0  0  0  0  0  0  0
    5.4638    3.3831   18.5277 H   0  0  0  0  0  0  0  0  0  0  0  0
    3.0614    2.1924   14.6392 C   0  0  0  0  0  0  0  0  0  0  0  0
    2.9267    1.1674   15.5414 C   0  0  0  0  0  0  0  0  0  0  0  0
    3.4358    1.2874   16.8419 C   0  0  0  0  0  0  0  0  0  0  0  0
    4.0805    2.4413   17.2299 C   0  0  0  0  0  0  0  0  0  0  0  0
    4.2044    3.4803   16.2805 C   0  0  0  0  0  0  0  0  0  0  0  0
    3.7009    3.3525   15.0067 C   0  0  0  0  0  0  0  0  0  0  0  0
    1.1996    2.2624   13.1259 C   0  0  0  0  0  0  0  0  0  0  0  0
    2.5541    2.0516   13.3700 O   0  0  0  0  0  0  0  0  0  0  0  0
    3.8101    3.4307   23.1865 C   0  0  0  0  0  0  0  0  0  0  0  0
    4.0051    5.0927   22.5865 Cl  0  0  0  0  0  0  0  0  0  0  0  0
 18 19  1  0  0  0
 19 12  1  0  0  0
 12 13  2  0  0  0
 13 14  1  0  0  0
 14 15  2  0  0  0
 15 10  1  0  0  0
 10  1  1  0  0  0
  1  2  2  0  0  0
  2  3  1  0  0  0
  3  4  1  0  0  0
  3  5  2  0  0  0
  5  6  1  0  0  0
  6 20  1  0  0  0
 20 21  1  0  0  0
  6  7  2  0  0  0
 15 16  1  0  0  0
 16 17  2  0  0  0
 17 12  1  0  0  0
  7  1  1  0  0  0
 10 11  1  0  0  0
  4  8  1  0  0  0
  4  9  1  0  0  0
M  END
> <minimizedAffinity>
-6.68261

> <CNNscore>
0.5976974964

> <CNNaffinity>
5.4211988449

> <CNN_VS>
3.2402369976

> <CNNaffinity_variance>
0.2953744829

$$$$
[H]c1c([H])c(N([H])c2nc(N([H])[H])nc(C([H])([H])Cl)n2)c([H])c([H])c1OC([H])([H])[H]


 21 22  0  0  0  0  0  0  0  0999 V2000
    4.3021    2.0555   18.7789 C   0  0  0  0  0  0  0  0  0  0  0  0
    3.7515    0.9173   19.2151 N   0  0  0  0  0  0  0  0  0  0  0  0
    3.4900    0.6041   20.4856 C   0  0  0  0  0  0  0  0  0  0  0  0
    2.9011   -0.6299   20.8729 N   0  0  0  0  0  0  0  0  0  0  0  0
    3.8086    1.5211   21.4438 N   0  0  0  0  0  0  0  0  0  0  0  0
    4.3686    2.6944   21.0746 C   0  0  0  0  0  0  0  0  0  0  0  0
    4.6032    2.9435   19.7848 N   0  0  0  0  0  0  0  0  0  0  0  0
    2.3742   -1.1959   20.1750 H   0  0  0  0  0  0  0  0  0  0  0  0
    2.9939   -0.9708   21.8510 H   0  0  0  0  0  0  0  0  0  0  0  0
    4.5807    2.3927   17.4395 N   0  0  0  0  0  0  0  0  0  0  0  0
    5.5137    2.0496   17.0772 H   0  0  0  0  0  0  0  0  0  0  0  0
    2.1324    4.3458   14.6624 C   0  0  0  0  0  0  0  0  0  0  0  0
    2.2935    4.9136   15.9010 C   0  0  0  0  0  0  0  0  0  0  0  0
    3.1081    4.3057   16.8663 C   0  0  0  0  0  0  0  0  0  0  0  0
    3.7585    3.1254   16.5805 C   0  0  0  0  0  0  0  0  0  0  0  0
    3.5747    2.5636   15.2972 C   0  0  0  0  0  0  0  0  0  0  0  0
    2.7732    3.1685   14.3568 C   0  0  0  0  0  0  0  0  0  0  0  0
    0.9533    6.2910   13.8961 C   0  0  0  0  0  0  0  0  0  0  0  0
    1.3289    4.9602   13.7325 O   0  0  0  0  0  0  0  0  0  0  0  0
    4.7333    3.7272   22.0915 C   0  0  0  0  0  0  0  0  0  0  0  0
    3.4115    3.8806   23.2702 Cl  0  0  0  0  0  0  0  0  0  0  0  0
 18 19  1  0  0  0
 19 12  1  0  0  0
 12 13  2  0  0  0
 13 14  1  0  0  0
 14 15  2  0  0  0
 15 10  1  0  0  0
 10  1  1  0  0  0
  1  2  2  0  0  0
  2  3  1  0  0  0
  3  4  1  0  0  0
  3  5  2  0  0  0
  5  6  1  0  0  0
  6 20  1  0  0  0
 20 21  1  0  0  0
  6  7  2  0  0  0
 15 16  1  0  0  0
 16 17  2  0  0  0
 17 12  1  0  0  0
  7  1  1  0  0  0
 10 11  1  0  0  0
  4  8  1  0  0  0
  4  9  1  0  0  0
M  END
> <minimizedAffinity>
-5.97068

> <CNNscore>
0.5049723387

> <CNNaffinity>
5.2894105911

> <CNN_VS>
2.6710059643

> <CNNaffinity_variance>
0.4175578058

$$$$
[H]c1c([H])c(N([H])c2nc(N([H])[H])nc(C([H])([H])Cl)n2)c([H])c([H])c1OC([H])([H])[H]


 21 22  0  0  0  0  0  0  0  0999 V2000
    3.4107    1.9127   16.4512 C   0  0  0  0  0  0  0  0  0  0  0  0
    2.5321    1.4436   15.5586 N   0  0  0  0  0  0  0  0  0  0  0  0
    1.8983    2.1571   14.6259 C   0  0  0  0  0  0  0  0  0  0  0  0
    0.9749    1.5857   13.7092 N   0  0  0  0  0  0  0  0  0  0  0  0
    2.1600    3.4943   14.5630 N   0  0  0  0  0  0  0  0  0  0  0  0
    3.0384    4.0369   15.4352 C   0  0  0  0  0  0  0  0  0  0  0  0
    3.6375    3.2648   16.3438 N   0  0  0  0  0  0  0  0  0  0  0  0
    0.9908    0.5602   13.5268 H   0  0  0  0  0  0  0  0  0  0  0  0
    0.2826    2.1873   13.2190 H   0  0  0  0  0  0  0  0  0  0  0  0
    4.0834    1.1653   17.4383 N   0  0  0  0  0  0  0  0  0  0  0  0
    4.6706    0.3657   17.0704 H   0  0  0  0  0  0  0  0  0  0  0  0
    3.7955    1.5255   21.5985 C   0  0  0  0  0  0  0  0  0  0  0  0
    4.5210    2.4663   20.9123 C   0  0  0  0  0  0  0  0  0  0  0  0
    4.6438    2.3978   19.5176 C   0  0  0  0  0  0  0  0  0  0  0  0
    4.0347    1.3796   18.8176 C   0  0  0  0  0  0  0  0  0  0  0  0
    3.2939    0.4250   19.5500 C   0  0  0  0  0  0  0  0  0  0  0  0
    3.1794    0.5016   20.9187 C   0  0  0  0  0  0  0  0  0  0  0  0
    4.7512    2.0989   23.7244 C   0  0  0  0  0  0  0  0  0  0  0  0
    3.6894    1.6135   22.9656 O   0  0  0  0  0  0  0  0  0  0  0  0
    3.3543    5.4973   15.4016 C   0  0  0  0  0  0  0  0  0  0  0  0
    3.6093    6.0795   17.0618 Cl  0  0  0  0  0  0  0  0  0  0  0  0
 18 19  1  0  0  0
 19 12  1  0  0  0
 12 13  2  0  0  0
 13 14  1  0  0  0
 14 15  2  0  0  0
 15 10  1  0  0  0
 10  1  1  0  0  0
  1  2  2  0  0  0
  2  3  1  0  0  0
  3  4  1  0  0  0
  3  5  2  0  0  0
  5  6  1  0  0  0
  6 20  1  0  0  0
 20 21  1  0  0  0
  6  7  2  0  0  0
 15 16  1  0  0  0
 16 17  2  0  0  0
 17 12  1  0  0  0
  7  1  1  0  0  0
 10 11  1  0  0  0
  4  8  1  0  0  0
  4  9  1  0  0  0
M  END
> <minimizedAffinity>
-5.99006

> <CNNscore>
0.4478743076

> <CNNaffinity>
5.1811385155

> <CNN_VS>
2.3204989433

> <CNNaffinity_variance>
0.1604681909

$$$$
[H]c1c([H])c(N([H])c2nc(N([H])[H])nc(C([H])([H])Cl)n2)c([H])c([H])c1OC([H])([H])[H]


 21 22  0  0  0  0  0  0  0  0999 V2000
    4.6650    2.2756   19.4353 C   0  0  0  0  0  0  0  0  0  0  0  0
    3.9953    1.1712   19.7826 N   0  0  0  0  0  0  0  0  0  0  0  0
    3.2257    0.4312   18.9819 C   0  0  0  0  0  0  0  0  0  0  0  0
    2.5433   -0.7339   19.4251 N   0  0  0  0  0  0  0  0  0  0  0  0
    3.0992    0.8247   17.6820 N   0  0  0  0  0  0  0  0  0  0  0  0
    3.7486    1.9328   17.2614 C   0  0  0  0  0  0  0  0  0  0  0  0
    4.5026    2.6271   18.1158 N   0  0  0  0  0  0  0  0  0  0  0  0
    2.8577   -1.2233   20.2893 H   0  0  0  0  0  0  0  0  0  0  0  0
    1.7304   -1.1006   18.8901 H   0  0  0  0  0  0  0  0  0  0  0  0
    5.4790    3.0614   20.2751 N   0  0  0  0  0  0  0  0  0  0  0  0
    6.2473    2.5327   20.7747 H   0  0  0  0  0  0  0  0  0  0  0  0
    4.9950    7.1048   21.2434 C   0  0  0  0  0  0  0  0  0  0  0  0
    5.6457    6.7878   20.0778 C   0  0  0  0  0  0  0  0  0  0  0  0
    5.8288    5.4500   19.7014 C   0  0  0  0  0  0  0  0  0  0  0  0
    5.3553    4.4340   20.5022 C   0  0  0  0  0  0  0  0  0  0  0  0
    4.6889    4.7896   21.6963 C   0  0  0  0  0  0  0  0  0  0  0  0
    4.5143    6.1058   22.0563 C   0  0  0  0  0  0  0  0  0  0  0  0
    5.6234    9.4101   21.0150 C   0  0  0  0  0  0  0  0  0  0  0  0
    4.8276    8.4234   21.5912 O   0  0  0  0  0  0  0  0  0  0  0  0
    3.6377    2.3995   15.8460 C   0  0  0  0  0  0  0  0  0  0  0  0
    2.3842    1.4527   15.0138 Cl  0  0  0  0  0  0  0  0  0  0  0  0
 18 19  1  0  0  0
 19 12  1  0  0  0
 12 13  2  0  0  0
 13 14  1  0  0  0
 14 15  2  0  0  0
 15 10  1  0  0  0
 10  1  1  0  0  0
  1  2  2  0  0  0
  2  3  1  0  0  0
  3  4  1  0  0  0
  3  5  2  0  0  0
  5  6  1  0  0  0
  6 20  1  0  0  0
 20 21  1  0  0  0
  6  7  2  0  0  0
 15 16  1  0  0  0
 16 17  2  0  0  0
 17 12  1  0  0  0
  7  1  1  0  0  0
 10 11  1  0  0  0
  4  8  1  0  0  0
  4  9  1  0  0  0
M  END
> <minimizedAffinity>
-5.91900

> <CNNscore>
0.4045909345

> <CNNaffinity>
5.1659750938

> <CNN_VS>
2.0901067257

> <CNNaffinity_variance>
0.5219346285

$$$$
[H]c1c([H])c(N([H])c2nc(N([H])[H])nc(C([H])([H])Cl)n2)c([H])c([H])c1OC([H])([H])[H]


 21 22  0  0  0  0  0  0  0  0999 V2000
    4.2726    2.5640   21.2145 C   0  0  0  0  0  0  0  0  0  0  0  0
    3.7378    1.3551   21.4182 N   0  0  0  0  0  0  0  0  0  0  0  0
    3.4230    0.4632   20.4767 C   0  0  0  0  0  0  0  0  0  0  0  0
    2.8557   -0.8058   20.7719 N   0  0  0  0  0  0  0  0  0  0  0  0
    3.6633    0.8007   19.1771 N   0  0  0  0  0  0  0  0  0  0  0  0
    4.2029    2.0078   18.8973 C   0  0  0  0  0  0  0  0  0  0  0  0
    4.4938    2.8528   19.8883 N   0  0  0  0  0  0  0  0  0  0  0  0
    2.9506   -1.2078   21.7282 H   0  0  0  0  0  0  0  0  0  0  0  0
    2.3456   -1.3357   20.0367 H   0  0  0  0  0  0  0  0  0  0  0  0
    4.6073    3.5102   22.2034 N   0  0  0  0  0  0  0  0  0  0  0  0
    4.4139    3.2047   23.1977 H   0  0  0  0  0  0  0  0  0  0  0  0
    6.5134    7.1799   21.5545 C   0  0  0  0  0  0  0  0  0  0  0  0
    5.1436    7.1372   21.4888 C   0  0  0  0  0  0  0  0  0  0  0  0
    4.4540    5.9361   21.7052 C   0  0  0  0  0  0  0  0  0  0  0  0
    5.1477    4.7799   21.9872 C   0  0  0  0  0  0  0  0  0  0  0  0
    6.5574    4.8534   22.0490 C   0  0  0  0  0  0  0  0  0  0  0  0
    7.2245    6.0373   21.8353 C   0  0  0  0  0  0  0  0  0  0  0  0
    8.5588    8.4197   21.3524 C   0  0  0  0  0  0  0  0  0  0  0  0
    7.1673    8.3689   21.3388 O   0  0  0  0  0  0  0  0  0  0  0  0
    4.4825    2.4181   17.4877 C   0  0  0  0  0  0  0  0  0  0  0  0
    5.5191    3.8623   17.4930 Cl  0  0  0  0  0  0  0  0  0  0  0  0
 18 19  1  0  0  0
 19 12  1  0  0  0
 12 13  2  0  0  0
 13 14  1  0  0  0
 14 15  2  0  0  0
 15 10  1  0  0  0
 10  1  1  0  0  0
  1  2  2  0  0  0
  2  3  1  0  0  0
  3  4  1  0  0  0
  3  5  2  0  0  0
  5  6  1  0  0  0
  6 20  1  0  0  0
 20 21  1  0  0  0
  6  7  2  0  0  0
 15 16  1  0  0  0
 16 17  2  0  0  0
 17 12  1  0  0  0
  7  1  1  0  0  0
 10 11  1  0  0  0
  4  8  1  0  0  0
  4  9  1  0  0  0
M  END
> <minimizedAffinity>
-6.10892

> <CNNscore>
0.3903805912

> <CNNaffinity>
5.1596269608

> <CNN_VS>
2.0142183304

> <CNNaffinity_variance>
0.6263997555

$$$$
[H]c1c([H])c(N([H])c2nc(N([H])[H])nc(C([H])([H])Cl)n2)c([H])c([H])c1OC([H])([H])[H]


 21 22  0  0  0  0  0  0  0  0999 V2000
    4.1589    1.1844   20.0868 C   0  0  0  0  0  0  0  0  0  0  0  0
    5.4060    0.7599   20.3178 N   0  0  0  0  0  0  0  0  0  0  0  0
    6.1626    1.0718   21.3718 C   0  0  0  0  0  0  0  0  0  0  0  0
    7.4840    0.5796   21.5486 N   0  0  0  0  0  0  0  0  0  0  0  0
    5.6284    1.9020   22.3131 N   0  0  0  0  0  0  0  0  0  0  0  0
    4.3717    2.3697   22.1442 C   0  0  0  0  0  0  0  0  0  0  0  0
    3.6696    2.0174   21.0655 N   0  0  0  0  0  0  0  0  0  0  0  0
    7.7941   -0.2725   21.0359 H   0  0  0  0  0  0  0  0  0  0  0  0
    8.1436    1.0666   22.1883 H   0  0  0  0  0  0  0  0  0  0  0  0
    3.3545    0.8590   18.9766 N   0  0  0  0  0  0  0  0  0  0  0  0
    2.6363    0.1022   19.1518 H   0  0  0  0  0  0  0  0  0  0  0  0
    3.3621    2.3522   15.0663 C   0  0  0  0  0  0  0  0  0  0  0  0
    4.0593    3.0400   16.0272 C   0  0  0  0  0  0  0  0  0  0  0  0
    4.0964    2.5805   17.3509 C   0  0  0  0  0  0  0  0  0  0  0  0
    3.4294    1.4277   17.7032 C   0  0  0  0  0  0  0  0  0  0  0  0
    2.7200    0.7398   16.6932 C   0  0  0  0  0  0  0  0  0  0  0  0
    2.6903    1.1993   15.3969 C   0  0  0  0  0  0  0  0  0  0  0  0
    3.8750    4.0716   13.4719 C   0  0  0  0  0  0  0  0  0  0  0  0
    3.3404    2.8222   13.7753 O   0  0  0  0  0  0  0  0  0  0  0  0
    3.7477    3.2814   23.1507 C   0  0  0  0  0  0  0  0  0  0  0  0
    4.1976    4.9604   22.7780 Cl  0  0  0  0  0  0  0  0  0  0  0  0
 18 19  1  0  0  0
 19 12  1  0  0  0
 12 13  2  0  0  0
 13 14  1  0  0  0
 14 15  2  0  0  0
 15 10  1  0  0  0
 10  1  1  0  0  0
  1  2  2  0  0  0
  2  3  1  0  0  0
  3  4  1  0  0  0
  3  5  2  0  0  0
  5  6  1  0  0  0
  6 20  1  0  0  0
 20 21  1  0  0  0
  6  7  2  0  0  0
 15 16  1  0  0  0
 16 17  2  0  0  0
 17 12  1  0  0  0
  7  1  1  0  0  0
 10 11  1  0  0  0
  4  8  1  0  0  0
  4  9  1  0  0  0
M  END
> <minimizedAffinity>
-5.97522

> <CNNscore>
0.3814777732

> <CNNaffinity>
5.2741212845

> <CNN_VS>
2.0119600296

> <CNNaffinity_variance>
0.4774165154

$$$$
[H]c1c([H])c(N([H])c2nc(N([H])[H])nc(C([H])([H])Cl)n2)c([H])c([H])c1OC([H])([H])[H]


 21 22  0  0  0  0  0  0  0  0999 V2000
    4.2306    2.2472   19.9836 C   0  0  0  0  0  0  0  0  0  0  0  0
    3.7181    1.0130   19.9304 N   0  0  0  0  0  0  0  0  0  0  0  0
    3.4168    0.2386   20.9746 C   0  0  0  0  0  0  0  0  0  0  0  0
    2.8729   -1.0672   20.8382 N   0  0  0  0  0  0  0  0  0  0  0  0
    3.6473    0.7382   22.2228 N   0  0  0  0  0  0  0  0  0  0  0  0
    4.1645    1.9802   22.3516 C   0  0  0  0  0  0  0  0  0  0  0  0
    4.4430    2.7015   21.2641 N   0  0  0  0  0  0  0  0  0  0  0  0
    2.4058   -1.3454   19.9496 H   0  0  0  0  0  0  0  0  0  0  0  0
    2.9393   -1.7472   21.6222 H   0  0  0  0  0  0  0  0  0  0  0  0
    4.5510    3.0701   18.8856 N   0  0  0  0  0  0  0  0  0  0  0  0
    4.8567    2.5535   18.0144 H   0  0  0  0  0  0  0  0  0  0  0  0
    4.7312    7.2488   18.7227 C   0  0  0  0  0  0  0  0  0  0  0  0
    3.5012    6.6547   18.8527 C   0  0  0  0  0  0  0  0  0  0  0  0
    3.3840    5.2595   18.9197 C   0  0  0  0  0  0  0  0  0  0  0  0
    4.5080    4.4658   18.8549 C   0  0  0  0  0  0  0  0  0  0  0  0
    5.7613    5.1045   18.7214 C   0  0  0  0  0  0  0  0  0  0  0  0
    5.8654    6.4747   18.6569 C   0  0  0  0  0  0  0  0  0  0  0  0
    3.8544    9.4162   19.2659 C   0  0  0  0  0  0  0  0  0  0  0  0
    4.8210    8.6184   18.6592 O   0  0  0  0  0  0  0  0  0  0  0  0
    4.4328    2.5664   23.7000 C   0  0  0  0  0  0  0  0  0  0  0  0
    3.7122    4.1892   23.7867 Cl  0  0  0  0  0  0  0  0  0  0  0  0
 18 19  1  0  0  0
 19 12  1  0  0  0
 12 13  2  0  0  0
 13 14  1  0  0  0
 14 15  2  0  0  0
 15 10  1  0  0  0
 10  1  1  0  0  0
  1  2  2  0  0  0
  2  3  1  0  0  0
  3  4  1  0  0  0
  3  5  2  0  0  0
  5  6  1  0  0  0
  6 20  1  0  0  0
 20 21  1  0  0  0
  6  7  2  0  0  0
 15 16  1  0  0  0
 16 17  2  0  0  0
 17 12  1  0  0  0
  7  1  1  0  0  0
 10 11  1  0  0  0
  4  8  1  0  0  0
  4  9  1  0  0  0
M  END
> <minimizedAffinity>
-6.24105

> <CNNscore>
0.3679605126

> <CNNaffinity>
5.0173521042

> <CNN_VS>
1.8461874723

> <CNNaffinity_variance>
0.5123778582

$$$$
[H]c1c([H])c(N([H])c2nc(N([H])[H])nc(C([H])([H])Cl)n2)c([H])c([H])c1OC([H])([H])[H]


 21 22  0  0  0  0  0  0  0  0999 V2000
    4.2717    2.7207   19.2614 C   0  0  0  0  0  0  0  0  0  0  0  0
    3.3999    1.7071   19.2229 N   0  0  0  0  0  0  0  0  0  0  0  0
    3.4907    0.5627   19.9033 C   0  0  0  0  0  0  0  0  0  0  0  0
    2.5208   -0.4718   19.8103 N   0  0  0  0  0  0  0  0  0  0  0  0
    4.5695    0.3943   20.7208 N   0  0  0  0  0  0  0  0  0  0  0  0
    5.4914    1.3787   20.8088 C   0  0  0  0  0  0  0  0  0  0  0  0
    5.3388    2.4989   20.0999 N   0  0  0  0  0  0  0  0  0  0  0  0
    1.5639   -0.2570   19.4590 H   0  0  0  0  0  0  0  0  0  0  0  0
    2.7622   -1.4434   20.0916 H   0  0  0  0  0  0  0  0  0  0  0  0
    4.1820    3.9314   18.5460 N   0  0  0  0  0  0  0  0  0  0  0  0
    3.9745    3.8261   17.5139 H   0  0  0  0  0  0  0  0  0  0  0  0
    4.4632    7.8834   19.8962 C   0  0  0  0  0  0  0  0  0  0  0  0
    5.1097    6.9047   20.6080 C   0  0  0  0  0  0  0  0  0  0  0  0
    5.0548    5.5659   20.1963 C   0  0  0  0  0  0  0  0  0  0  0  0
    4.3472    5.2167   19.0671 C   0  0  0  0  0  0  0  0  0  0  0  0
    3.6917    6.2451   18.3535 C   0  0  0  0  0  0  0  0  0  0  0  0
    3.7521    7.5560   18.7661 C   0  0  0  0  0  0  0  0  0  0  0  0
    5.2944    9.5289   21.4334 C   0  0  0  0  0  0  0  0  0  0  0  0
    4.5314    9.1888   20.3193 O   0  0  0  0  0  0  0  0  0  0  0  0
    6.6884    1.2358   21.6920 C   0  0  0  0  0  0  0  0  0  0  0  0
    7.5660   -0.2467   21.2534 Cl  0  0  0  0  0  0  0  0  0  0  0  0
 18 19  1  0  0  0
 19 12  1  0  0  0
 12 13  2  0  0  0
 13 14  1  0  0  0
 14 15  2  0  0  0
 15 10  1  0  0  0
 10  1  1  0  0  0
  1  2  2  0  0  0
  2  3  1  0  0  0
  3  4  1  0  0  0
  3  5  2  0  0  0
  5  6  1  0  0  0
  6 20  1  0  0  0
 20 21  1  0  0  0
  6  7  2  0  0  0
 15 16  1  0  0  0
 16 17  2  0  0  0
 17 12  1  0  0  0
  7  1  1  0  0  0
 10 11  1  0  0  0
  4  8  1  0  0  0
  4  9  1  0  0  0
M  END
> <minimizedAffinity>
-5.90048

> <CNNscore>
0.3645462096

> <CNNaffinity>
5.0926046371

> <CNN_VS>
1.8564896584

> <CNNaffinity_variance>
0.8577588797

$$$$
[H]c1c([H])c(N([H])c2nc(N([H])[H])nc(C([H])([H])Cl)n2)c([H])c([H])c1OC([H])([H])[H]


 21 22  0  0  0  0  0  0  0  0999 V2000
    3.9324    2.3229   16.5481 C   0  0  0  0  0  0  0  0  0  0  0  0
    4.2720    3.6041   16.3693 N   0  0  0  0  0  0  0  0  0  0  0  0
    3.8356    4.4073   15.3970 C   0  0  0  0  0  0  0  0  0  0  0  0
    4.2432    5.7629   15.2719 N   0  0  0  0  0  0  0  0  0  0  0  0
    2.9589    3.8878   14.4903 N   0  0  0  0  0  0  0  0  0  0  0  0
    2.5718    2.5985   14.6100 C   0  0  0  0  0  0  0  0  0  0  0  0
    3.0475    1.8504   15.6074 N   0  0  0  0  0  0  0  0  0  0  0  0
    4.6438    6.2631   16.0932 H   0  0  0  0  0  0  0  0  0  0  0  0
    4.1432    6.2586   14.3632 H   0  0  0  0  0  0  0  0  0  0  0  0
    4.3890    1.4695   17.5721 N   0  0  0  0  0  0  0  0  0  0  0  0
    4.7943    0.5504   17.2401 H   0  0  0  0  0  0  0  0  0  0  0  0
    4.1150    1.9505   21.7211 C   0  0  0  0  0  0  0  0  0  0  0  0
    4.8391    2.8703   21.0055 C   0  0  0  0  0  0  0  0  0  0  0  0
    4.9573    2.7612   19.6130 C   0  0  0  0  0  0  0  0  0  0  0  0
    4.3450    1.7238   18.9448 C   0  0  0  0  0  0  0  0  0  0  0  0
    3.6056    0.7917   19.7069 C   0  0  0  0  0  0  0  0  0  0  0  0
    3.4956    0.9080   21.0732 C   0  0  0  0  0  0  0  0  0  0  0  0
    4.2744    3.3004   23.6994 C   0  0  0  0  0  0  0  0  0  0  0  0
    4.0133    2.0782   23.0854 O   0  0  0  0  0  0  0  0  0  0  0  0
    1.6131    1.9891   13.6389 C   0  0  0  0  0  0  0  0  0  0  0  0
    2.3733    1.9157   12.0336 Cl  0  0  0  0  0  0  0  0  0  0  0  0
 18 19  1  0  0  0
 19 12  1  0  0  0
 12 13  2  0  0  0
 13 14  1  0  0  0
 14 15  2  0  0  0
 15 10  1  0  0  0
 10  1  1  0  0  0
  1  2  2  0  0  0
  2  3  1  0  0  0
  3  4  1  0  0  0
  3  5  2  0  0  0
  5  6  1  0  0  0
  6 20  1  0  0  0
 20 21  1  0  0  0
  6  7  2  0  0  0
 15 16  1  0  0  0
 16 17  2  0  0  0
 17 12  1  0  0  0
  7  1  1  0  0  0
 10 11  1  0  0  0
  4  8  1  0  0  0
  4  9  1  0  0  0
M  END
> <minimizedAffinity>
-5.86559

> <CNNscore>
0.3641028404

> <CNNaffinity>
5.2312288284

> <CNN_VS>
1.9047052860

> <CNNaffinity_variance>
0.1551979631

$$$$
[H]c1nc2sc3c(=O)n(C4([H])C([H])([H])C([H])([H])C([H])([H])C([H])([H])C4([H])[H])c([H])nc3c2c(N(C([H])([H])[H])C([H])([H])[H])c1[H]


 23 26  0  0  0  0  0  0  0  0999 V2000
    4.8258    3.4605   22.2168 C   0  0  0  0  0  0  0  0  0  0  0  0
    4.9324    3.1332   23.5535 C   0  0  0  0  0  0  0  0  0  0  0  0
    4.6538    1.8949   24.0841 C   0  0  0  0  0  0  0  0  0  0  0  0
    4.2524    0.9713   23.1946 N   0  0  0  0  0  0  0  0  0  0  0  0
    4.1284    1.2426   21.8558 C   0  0  0  0  0  0  0  0  0  0  0  0
    3.6434    0.3069   20.5137 S   0  0  0  0  0  0  0  0  0  0  0  0
    3.7921    1.4822   19.2893 C   0  0  0  0  0  0  0  0  0  0  0  0
    3.5721    1.5068   17.8983 C   0  0  0  0  0  0  0  0  0  0  0  0
    3.1817    0.4295   17.4092 O   0  0  0  0  0  0  0  0  0  0  0  0
    3.7747    2.6185   17.1764 N   0  0  0  0  0  0  0  0  0  0  0  0
    4.1962    3.6944   17.8582 C   0  0  0  0  0  0  0  0  0  0  0  0
    4.4090    3.6891   19.1689 N   0  0  0  0  0  0  0  0  0  0  0  0
    4.2224    2.5884   19.9667 C   0  0  0  0  0  0  0  0  0  0  0  0
    4.3994    2.4665   21.3059 C   0  0  0  0  0  0  0  0  0  0  0  0
    3.5382    2.6028   15.7555 C   0  0  0  0  0  0  0  0  0  0  0  0
    2.0991    2.3053   15.4144 C   0  0  0  0  0  0  0  0  0  0  0  0
    1.9947    2.1866   13.9216 C   0  0  0  0  0  0  0  0  0  0  0  0
    3.2417    2.5223   13.1864 C   0  0  0  0  0  0  0  0  0  0  0  0
    3.9388    3.7601   13.6540 C   0  0  0  0  0  0  0  0  0  0  0  0
    3.8224    3.9817   15.1443 C   0  0  0  0  0  0  0  0  0  0  0  0
    4.2676    5.8832   21.6755 C   0  0  0  0  0  0  0  0  0  0  0  0
    5.1853    4.7753   21.8329 N   0  0  0  0  0  0  0  0  0  0  0  0
    6.5906    5.0288   21.5773 C   0  0  0  0  0  0  0  0  0  0  0  0
 21 22  1  0  0  0
 22 23  1  0  0  0
 22  1  1  0  0  0
  1  2  2  0  0  0
  2  3  1  0  0  0
  3  4  2  0  0  0
  4  5  1  0  0  0
  5  6  1  0  0  0
  6  7  1  0  0  0
  7  8  1  0  0  0
  8  9  2  0  0  0
  8 10  1  0  0  0
 10 15  1  0  0  0
 15 16  1  0  0  0
 16 17  1  0  0  0
 17 18  1  0  0  0
 18 19  1  0  0  0
 19 20  1  0  0  0
 10 11  1  0  0  0
 11 12  2  0  0  0
 12 13  1  0  0  0
 13 14  1  0  0  0
 14  1  1  0  0  0
 14  5  2  0  0  0
 13  7  2  0  0  0
 20 15  1  0  0  0
M  END
> <minimizedAffinity>
-7.50917

> <CNNscore>
0.7533791661

> <CNNaffinity>
6.6765546799

> <CNN_VS>
5.0299773216

> <CNNaffinity_variance>
0.2108080089

$$$$
[H]c1nc2sc3c(=O)n(C4([H])C([H])([H])C([H])([H])C([H])([H])C([H])([H])C4([H])[H])c([H])nc3c2c(N(C([H])([H])[H])C([H])([H])[H])c1[H]


 23 26  0  0  0  0  0  0  0  0999 V2000
    3.7994    1.3320    9.1708 C   0  0  0  0  0  0  0  0  0  0  0  0
    3.9682    0.0051    9.5116 C   0  0  0  0  0  0  0  0  0  0  0  0
    5.1617   -0.6763    9.4503 C   0  0  0  0  0  0  0  0  0  0  0  0
    6.2093    0.0473    9.0212 N   0  0  0  0  0  0  0  0  0  0  0  0
    6.0978    1.3682    8.6691 C   0  0  0  0  0  0  0  0  0  0  0  0
    7.2143    2.5221    8.0911 S   0  0  0  0  0  0  0  0  0  0  0  0
    6.1705    3.8585    7.9272 C   0  0  0  0  0  0  0  0  0  0  0  0
    6.3176    5.1924    7.4993 C   0  0  0  0  0  0  0  0  0  0  0  0
    7.4729    5.5100    7.1576 O   0  0  0  0  0  0  0  0  0  0  0  0
    5.2772    6.0379    7.4708 N   0  0  0  0  0  0  0  0  0  0  0  0
    4.0996    5.5358    7.8721 C   0  0  0  0  0  0  0  0  0  0  0  0
    3.9428    4.2815    8.2787 N   0  0  0  0  0  0  0  0  0  0  0  0
    4.9626    3.3650    8.3332 C   0  0  0  0  0  0  0  0  0  0  0  0
    4.9213    2.0661    8.7215 C   0  0  0  0  0  0  0  0  0  0  0  0
    5.4689    7.3947    7.0265 C   0  0  0  0  0  0  0  0  0  0  0  0
    5.0192    7.6033    5.6017 C   0  0  0  0  0  0  0  0  0  0  0  0
    5.3810    9.0051    5.2050 C   0  0  0  0  0  0  0  0  0  0  0  0
    5.9282    9.8375    6.3078 C   0  0  0  0  0  0  0  0  0  0  0  0
    5.1858    9.7408    7.6024 C   0  0  0  0  0  0  0  0  0  0  0  0
    4.6226    8.3631    7.8640 C   0  0  0  0  0  0  0  0  0  0  0  0
    1.4898    1.9463    8.2974 C   0  0  0  0  0  0  0  0  0  0  0  0
    2.5068    1.8894    9.3255 N   0  0  0  0  0  0  0  0  0  0  0  0
    2.1785    2.4486   10.6232 C   0  0  0  0  0  0  0  0  0  0  0  0
 21 22  1  0  0  0
 22 23  1  0  0  0
 22  1  1  0  0  0
  1  2  2  0  0  0
  2  3  1  0  0  0
  3  4  2  0  0  0
  4  5  1  0  0  0
  5  6  1  0  0  0
  6  7  1  0  0  0
  7  8  1  0  0  0
  8  9  2  0  0  0
  8 10  1  0  0  0
 10 15  1  0  0  0
 15 16  1  0  0  0
 16 17  1  0  0  0
 17 18  1  0  0  0
 18 19  1  0  0  0
 19 20  1  0  0  0
 10 11  1  0  0  0
 11 12  2  0  0  0
 12 13  1  0  0  0
 13 14  1  0  0  0
 14  1  1  0  0  0
 14  5  2  0  0  0
 13  7  2  0  0  0
 20 15  1  0  0  0
M  END
> <minimizedAffinity>
-4.48391

> <CNNscore>
0.5620750189

> <CNNaffinity>
4.8724708557

> <CNN_VS>
2.7386941910

> <CNNaffinity_variance>
0.2415852100

$$$$
[H]c1nc2sc3c(=O)n(C4([H])C([H])([H])C([H])([H])C([H])([H])C([H])([H])C4([H])[H])c([H])nc3c2c(N(C([H])([H])[H])C([H])([H])[H])c1[H]


 23 26  0  0  0  0  0  0  0  0999 V2000
    3.9854    1.9259   21.8836 C   0  0  0  0  0  0  0  0  0  0  0  0
    3.4675    0.6759   22.1569 C   0  0  0  0  0  0  0  0  0  0  0  0
    3.1434   -0.2652   21.2073 C   0  0  0  0  0  0  0  0  0  0  0  0
    3.3659    0.1084   19.9360 N   0  0  0  0  0  0  0  0  0  0  0  0
    3.8779    1.3379   19.6080 C   0  0  0  0  0  0  0  0  0  0  0  0
    4.2524    2.0898   18.1226 S   0  0  0  0  0  0  0  0  0  0  0  0
    4.8143    3.5887   18.7056 C   0  0  0  0  0  0  0  0  0  0  0  0
    5.3042    4.7690   18.1133 C   0  0  0  0  0  0  0  0  0  0  0  0
    5.3616    4.7476   16.8689 O   0  0  0  0  0  0  0  0  0  0  0  0
    5.6749    5.8232   18.8545 N   0  0  0  0  0  0  0  0  0  0  0  0
    5.5500    5.6819   20.1828 C   0  0  0  0  0  0  0  0  0  0  0  0
    5.0904    4.5769   20.7581 N   0  0  0  0  0  0  0  0  0  0  0  0
    4.6947    3.4631   20.0611 C   0  0  0  0  0  0  0  0  0  0  0  0
    4.2070    2.2896   20.5353 C   0  0  0  0  0  0  0  0  0  0  0  0
    6.1711    7.0125   18.2106 C   0  0  0  0  0  0  0  0  0  0  0  0
    5.0799    8.0175   17.9372 C   0  0  0  0  0  0  0  0  0  0  0  0
    5.6813    9.1495   17.1559 C   0  0  0  0  0  0  0  0  0  0  0  0
    7.1555    9.0688   16.9870 C   0  0  0  0  0  0  0  0  0  0  0  0
    7.9157    8.7072   18.2232 C   0  0  0  0  0  0  0  0  0  0  0  0
    7.1739    7.7401   19.1164 C   0  0  0  0  0  0  0  0  0  0  0  0
    3.4654    3.8375   23.4804 C   0  0  0  0  0  0  0  0  0  0  0  0
    4.2963    2.7617   22.9838 N   0  0  0  0  0  0  0  0  0  0  0  0
    5.5522    2.5160   23.6670 C   0  0  0  0  0  0  0  0  0  0  0  0
 21 22  1  0  0  0
 22 23  1  0  0  0
 22  1  1  0  0  0
  1  2  2  0  0  0
  2  3  1  0  0  0
  3  4  2  0  0  0
  4  5  1  0  0  0
  5  6  1  0  0  0
  6  7  1  0  0  0
  7  8  1  0  0  0
  8  9  2  0  0  0
  8 10  1  0  0  0
 10 15  1  0  0  0
 15 16  1  0  0  0
 16 17  1  0  0  0
 17 18  1  0  0  0
 18 19  1  0  0  0
 19 20  1  0  0  0
 10 11  1  0  0  0
 11 12  2  0  0  0
 12 13  1  0  0  0
 13 14  1  0  0  0
 14  1  1  0  0  0
 14  5  2  0  0  0
 13  7  2  0  0  0
 20 15  1  0  0  0
M  END
> <minimizedAffinity>
-7.56211

> <CNNscore>
0.5331072211

> <CNNaffinity>
6.1216740608

> <CNN_VS>
3.2635085583

> <CNNaffinity_variance>
0.1536956280

$$$$
[H]c1nc2sc3c(=O)n(C4([H])C([H])([H])C([H])([H])C([H])([H])C([H])([H])C4([H])[H])c([H])nc3c2c(N(C([H])([H])[H])C([H])([H])[H])c1[H]


 23 26  0  0  0  0  0  0  0  0999 V2000
    5.5457    4.7922   20.4526 C   0  0  0  0  0  0  0  0  0  0  0  0
    5.9307    4.7326   21.7768 C   0  0  0  0  0  0  0  0  0  0  0  0
    5.9183    3.5937   22.5484 C   0  0  0  0  0  0  0  0  0  0  0  0
    5.4918    2.4850   21.9205 N   0  0  0  0  0  0  0  0  0  0  0  0
    5.0970    2.4878   20.6069 C   0  0  0  0  0  0  0  0  0  0  0  0
    4.5102    1.2744   19.5603 S   0  0  0  0  0  0  0  0  0  0  0  0
    4.2812    2.2092   18.1545 C   0  0  0  0  0  0  0  0  0  0  0  0
    3.8163    1.9516   16.8502 C   0  0  0  0  0  0  0  0  0  0  0  0
    3.4922    0.7685   16.6322 O   0  0  0  0  0  0  0  0  0  0  0  0
    3.7375    2.9235   15.9296 N   0  0  0  0  0  0  0  0  0  0  0  0
    4.1264    4.1442   16.3278 C   0  0  0  0  0  0  0  0  0  0  0  0
    4.5674    4.4050   17.5529 N   0  0  0  0  0  0  0  0  0  0  0  0
    4.6738    3.4596   18.5417 C   0  0  0  0  0  0  0  0  0  0  0  0
    5.1005    3.6082   19.8206 C   0  0  0  0  0  0  0  0  0  0  0  0
    3.2566    2.6192   14.6063 C   0  0  0  0  0  0  0  0  0  0  0  0
    1.7692    2.3692   14.5773 C   0  0  0  0  0  0  0  0  0  0  0  0
    1.4014    1.9388   13.1870 C   0  0  0  0  0  0  0  0  0  0  0  0
    2.5139    2.0081   12.2043 C   0  0  0  0  0  0  0  0  0  0  0  0
    3.3318    3.2590   12.2608 C   0  0  0  0  0  0  0  0  0  0  0  0
    3.4860    3.8064   13.6609 C   0  0  0  0  0  0  0  0  0  0  0  0
    6.8035    6.4975   19.0440 C   0  0  0  0  0  0  0  0  0  0  0  0
    5.6530    6.0413   19.7942 N   0  0  0  0  0  0  0  0  0  0  0  0
    4.5134    6.9348   19.8808 C   0  0  0  0  0  0  0  0  0  0  0  0
 21 22  1  0  0  0
 22 23  1  0  0  0
 22  1  1  0  0  0
  1  2  2  0  0  0
  2  3  1  0  0  0
  3  4  2  0  0  0
  4  5  1  0  0  0
  5  6  1  0  0  0
  6  7  1  0  0  0
  7  8  1  0  0  0
  8  9  2  0  0  0
  8 10  1  0  0  0
 10 15  1  0  0  0
 15 16  1  0  0  0
 16 17  1  0  0  0
 17 18  1  0  0  0
 18 19  1  0  0  0
 19 20  1  0  0  0
 10 11  1  0  0  0
 11 12  2  0  0  0
 12 13  1  0  0  0
 13 14  1  0  0  0
 14  1  1  0  0  0
 14  5  2  0  0  0
 13  7  2  0  0  0
 20 15  1  0  0  0
M  END
> <minimizedAffinity>
-7.38983

> <CNNscore>
0.5188962221

> <CNNaffinity>
6.1155753136

> <CNN_VS>
3.1733489037

> <CNNaffinity_variance>
0.2970018387

$$$$
[H]c1nc2sc3c(=O)n(C4([H])C([H])([H])C([H])([H])C([H])([H])C([H])([H])C4([H])[H])c([H])nc3c2c(N(C([H])([H])[H])C([H])([H])[H])c1[H]


 23 26  0  0  0  0  0  0  0  0999 V2000
    5.7081    4.5674   20.9514 C   0  0  0  0  0  0  0  0  0  0  0  0
    6.2297    4.1772   22.1684 C   0  0  0  0  0  0  0  0  0  0  0  0
    6.2204    2.8889   22.6508 C   0  0  0  0  0  0  0  0  0  0  0  0
    5.6503    1.9814   21.8404 N   0  0  0  0  0  0  0  0  0  0  0  0
    5.1160    2.3143   20.6217 C   0  0  0  0  0  0  0  0  0  0  0  0
    4.3341    1.4119   19.4026 S   0  0  0  0  0  0  0  0  0  0  0  0
    4.0205    2.6639   18.2904 C   0  0  0  0  0  0  0  0  0  0  0  0
    3.3992    2.7450   17.0290 C   0  0  0  0  0  0  0  0  0  0  0  0
    2.9700    1.6631   16.5844 O   0  0  0  0  0  0  0  0  0  0  0  0
    3.2901    3.9106   16.3752 N   0  0  0  0  0  0  0  0  0  0  0  0
    3.8058    4.9832   16.9946 C   0  0  0  0  0  0  0  0  0  0  0  0
    4.3950    4.9252   18.1832 N   0  0  0  0  0  0  0  0  0  0  0  0
    4.5408    3.7677   18.9055 C   0  0  0  0  0  0  0  0  0  0  0  0
    5.1137    3.5886   20.1218 C   0  0  0  0  0  0  0  0  0  0  0  0
    2.6475    3.9517   15.0866 C   0  0  0  0  0  0  0  0  0  0  0  0
    2.0424    5.3008   14.7874 C   0  0  0  0  0  0  0  0  0  0  0  0
    1.2952    5.1930   13.4899 C   0  0  0  0  0  0  0  0  0  0  0  0
    1.4568    3.8920   12.7903 C   0  0  0  0  0  0  0  0  0  0  0  0
    2.8584    3.3733   12.7335 C   0  0  0  0  0  0  0  0  0  0  0  0
    3.6670    3.7077   13.9655 C   0  0  0  0  0  0  0  0  0  0  0  0
    6.9037    6.4962   19.8005 C   0  0  0  0  0  0  0  0  0  0  0  0
    5.8316    5.9315   20.5920 N   0  0  0  0  0  0  0  0  0  0  0  0
    4.7961    6.8346   21.0573 C   0  0  0  0  0  0  0  0  0  0  0  0
 21 22  1  0  0  0
 22 23  1  0  0  0
 22  1  1  0  0  0
  1  2  2  0  0  0
  2  3  1  0  0  0
  3  4  2  0  0  0
  4  5  1  0  0  0
  5  6  1  0  0  0
  6  7  1  0  0  0
  7  8  1  0  0  0
  8  9  2  0  0  0
  8 10  1  0  0  0
 10 15  1  0  0  0
 15 16  1  0  0  0
 16 17  1  0  0  0
 17 18  1  0  0  0
 18 19  1  0  0  0
 19 20  1  0  0  0
 10 11  1  0  0  0
 11 12  2  0  0  0
 12 13  1  0  0  0
 13 14  1  0  0  0
 14  1  1  0  0  0
 14  5  2  0  0  0
 13  7  2  0  0  0
 20 15  1  0  0  0
M  END
> <minimizedAffinity>
-6.96500

> <CNNscore>
0.3879298270

> <CNNaffinity>
5.9785737991

> <CNN_VS>
2.3192670345

> <CNNaffinity_variance>
0.3078256249

$$$$
[H]c1nc2sc3c(=O)n(C4([H])C([H])([H])C([H])([H])C([H])([H])C([H])([H])C4([H])[H])c([H])nc3c2c(N(C([H])([H])[H])C([H])([H])[H])c1[H]


 23 26  0  0  0  0  0  0  0  0999 V2000
    4.7401    3.2939   20.9846 C   0  0  0  0  0  0  0  0  0  0  0  0
    4.8910    2.3233   21.9544 C   0  0  0  0  0  0  0  0  0  0  0  0
    4.7642    0.9705   21.7388 C   0  0  0  0  0  0  0  0  0  0  0  0
    4.4715    0.6202   20.4751 N   0  0  0  0  0  0  0  0  0  0  0  0
    4.3101    1.5429   19.4731 C   0  0  0  0  0  0  0  0  0  0  0  0
    3.9339    1.4127   17.8138 S   0  0  0  0  0  0  0  0  0  0  0  0
    3.9361    3.0652   17.3995 C   0  0  0  0  0  0  0  0  0  0  0  0
    3.7085    3.7976   16.2181 C   0  0  0  0  0  0  0  0  0  0  0  0
    3.4469    3.1074   15.2143 O   0  0  0  0  0  0  0  0  0  0  0  0
    3.7741    5.1368   16.2003 N   0  0  0  0  0  0  0  0  0  0  0  0
    4.0676    5.7272   17.3687 C   0  0  0  0  0  0  0  0  0  0  0  0
    4.2854    5.0528   18.4916 N   0  0  0  0  0  0  0  0  0  0  0  0
    4.2347    3.6845   18.5805 C   0  0  0  0  0  0  0  0  0  0  0  0
    4.4310    2.8929   19.6643 C   0  0  0  0  0  0  0  0  0  0  0  0
    3.5347    5.8493   14.9714 C   0  0  0  0  0  0  0  0  0  0  0  0
    2.0642    6.0146   14.6784 C   0  0  0  0  0  0  0  0  0  0  0  0
    1.9327    6.6498   13.3246 C   0  0  0  0  0  0  0  0  0  0  0  0
    3.2197    7.0695   12.7117 C   0  0  0  0  0  0  0  0  0  0  0  0
    4.1572    7.7826   13.6332 C   0  0  0  0  0  0  0  0  0  0  0  0
    4.0935    7.2763   15.0556 C   0  0  0  0  0  0  0  0  0  0  0  0
    6.1750    5.3812   21.2269 C   0  0  0  0  0  0  0  0  0  0  0  0
    4.9389    4.6421   21.3697 N   0  0  0  0  0  0  0  0  0  0  0  0
    3.8078    5.3364   21.9553 C   0  0  0  0  0  0  0  0  0  0  0  0
 21 22  1  0  0  0
 22 23  1  0  0  0
 22  1  1  0  0  0
  1  2  2  0  0  0
  2  3  1  0  0  0
  3  4  2  0  0  0
  4  5  1  0  0  0
  5  6  1  0  0  0
  6  7  1  0  0  0
  7  8  1  0  0  0
  8  9  2  0  0  0
  8 10  1  0  0  0
 10 15  1  0  0  0
 15 16  1  0  0  0
 16 17  1  0  0  0
 17 18  1  0  0  0
 18 19  1  0  0  0
 19 20  1  0  0  0
 10 11  1  0  0  0
 11 12  2  0  0  0
 12 13  1  0  0  0
 13 14  1  0  0  0
 14  1  1  0  0  0
 14  5  2  0  0  0
 13  7  2  0  0  0
 20 15  1  0  0  0
M  END
> <minimizedAffinity>
-6.72728

> <CNNscore>
0.3796909451

> <CNNaffinity>
5.9389777184

> <CNN_VS>
2.2549760342

> <CNNaffinity_variance>
0.3107423484

$$$$
[H]c1nc2sc3c(=O)n(C4([H])C([H])([H])C([H])([H])C([H])([H])C([H])([H])C4([H])[H])c([H])nc3c2c(N(C([H])([H])[H])C([H])([H])[H])c1[H]


 23 26  0  0  0  0  0  0  0  0999 V2000
    2.8746    7.6456    5.3924 C   0  0  0  0  0  0  0  0  0  0  0  0
    3.6209    8.0234    4.2943 C   0  0  0  0  0  0  0  0  0  0  0  0
    4.9062    8.5109    4.3477 C   0  0  0  0  0  0  0  0  0  0  0  0
    5.4281    8.6071    5.5821 N   0  0  0  0  0  0  0  0  0  0  0  0
    4.7309    8.2467    6.7071 C   0  0  0  0  0  0  0  0  0  0  0  0
    5.1079    8.2635    8.3712 S   0  0  0  0  0  0  0  0  0  0  0  0
    3.6420    7.6575    8.9927 C   0  0  0  0  0  0  0  0  0  0  0  0
    3.1446    7.3771   10.2804 C   0  0  0  0  0  0  0  0  0  0  0  0
    3.9391    7.6079   11.2120 O   0  0  0  0  0  0  0  0  0  0  0  0
    1.9057    6.8982   10.4640 N   0  0  0  0  0  0  0  0  0  0  0  0
    1.1785    6.7056    9.3531 C   0  0  0  0  0  0  0  0  0  0  0  0
    1.6312    6.9641    8.1319 N   0  0  0  0  0  0  0  0  0  0  0  0
    2.8863    7.4542    7.8724 C   0  0  0  0  0  0  0  0  0  0  0  0
    3.4518    7.7600    6.6781 C   0  0  0  0  0  0  0  0  0  0  0  0
    1.4341    6.6241   11.7973 C   0  0  0  0  0  0  0  0  0  0  0  0
    0.0236    7.1101   12.0206 C   0  0  0  0  0  0  0  0  0  0  0  0
   -0.3156    6.8910   13.4665 C   0  0  0  0  0  0  0  0  0  0  0  0
    0.7173    6.1523   14.2382 C   0  0  0  0  0  0  0  0  0  0  0  0
    1.2790    4.9476   13.5527 C   0  0  0  0  0  0  0  0  0  0  0  0
    1.3867    5.1117   12.0543 C   0  0  0  0  0  0  0  0  0  0  0  0
    0.3562    7.9090    5.1422 C   0  0  0  0  0  0  0  0  0  0  0  0
    1.5764    7.1310    5.1572 N   0  0  0  0  0  0  0  0  0  0  0  0
    1.4644    5.7057    4.9113 C   0  0  0  0  0  0  0  0  0  0  0  0
 21 22  1  0  0  0
 22 23  1  0  0  0
 22  1  1  0  0  0
  1  2  2  0  0  0
  2  3  1  0  0  0
  3  4  2  0  0  0
  4  5  1  0  0  0
  5  6  1  0  0  0
  6  7  1  0  0  0
  7  8  1  0  0  0
  8  9  2  0  0  0
  8 10  1  0  0  0
 10 15  1  0  0  0
 15 16  1  0  0  0
 16 17  1  0  0  0
 17 18  1  0  0  0
 18 19  1  0  0  0
 19 20  1  0  0  0
 10 11  1  0  0  0
 11 12  2  0  0  0
 12 13  1  0  0  0
 13 14  1  0  0  0
 14  1  1  0  0  0
 14  5  2  0  0  0
 13  7  2  0  0  0
 20 15  1  0  0  0
M  END
> <minimizedAffinity>
-4.22626

> <CNNscore>
0.3609624803

> <CNNaffinity>
4.8873872757

> <CNN_VS>
1.7641633749

> <CNNaffinity_variance>
0.3048395216

$$$$
[H]c1nc2sc3c(=O)n(C4([H])C([H])([H])C([H])([H])C([H])([H])C([H])([H])C4([H])[H])c([H])nc3c2c(N(C([H])([H])[H])C([H])([H])[H])c1[H]


 23 26  0  0  0  0  0  0  0  0999 V2000
    5.6821    3.0899    8.4111 C   0  0  0  0  0  0  0  0  0  0  0  0
    6.4815    2.1677    7.7660 C   0  0  0  0  0  0  0  0  0  0  0  0
    6.2883    0.8059    7.7916 C   0  0  0  0  0  0  0  0  0  0  0  0
    5.2308    0.3941    8.5109 N   0  0  0  0  0  0  0  0  0  0  0  0
    4.4044    1.2667    9.1721 C   0  0  0  0  0  0  0  0  0  0  0  0
    3.0236    1.0539   10.1519 S   0  0  0  0  0  0  0  0  0  0  0  0
    2.6971    2.6834   10.5267 C   0  0  0  0  0  0  0  0  0  0  0  0
    1.7256    3.3550   11.2943 C   0  0  0  0  0  0  0  0  0  0  0  0
    0.8834    2.6158   11.8390 O   0  0  0  0  0  0  0  0  0  0  0  0
    1.7280    4.6905   11.4147 N   0  0  0  0  0  0  0  0  0  0  0  0
    2.7056    5.3384   10.7632 C   0  0  0  0  0  0  0  0  0  0  0  0
    3.6292    4.7218   10.0351 N   0  0  0  0  0  0  0  0  0  0  0  0
    3.6853    3.3608    9.8694 C   0  0  0  0  0  0  0  0  0  0  0  0
    4.5774    2.6246    9.1611 C   0  0  0  0  0  0  0  0  0  0  0  0
    0.7169    5.3398   12.2091 C   0  0  0  0  0  0  0  0  0  0  0  0
    1.2666    6.4940   13.0100 C   0  0  0  0  0  0  0  0  0  0  0  0
    0.1654    7.0100   13.8901 C   0  0  0  0  0  0  0  0  0  0  0  0
   -1.1603    6.3816   13.6532 C   0  0  0  0  0  0  0  0  0  0  0  0
   -1.5442    6.2361   12.2151 C   0  0  0  0  0  0  0  0  0  0  0  0
   -0.3676    5.9506   11.3110 C   0  0  0  0  0  0  0  0  0  0  0  0
    5.4670    5.3335    7.2304 C   0  0  0  0  0  0  0  0  0  0  0  0
    6.0026    4.4601    8.2526 N   0  0  0  0  0  0  0  0  0  0  0  0
    6.9460    5.0321    9.1945 C   0  0  0  0  0  0  0  0  0  0  0  0
 21 22  1  0  0  0
 22 23  1  0  0  0
 22  1  1  0  0  0
  1  2  2  0  0  0
  2  3  1  0  0  0
  3  4  2  0  0  0
  4  5  1  0  0  0
  5  6  1  0  0  0
  6  7  1  0  0  0
  7  8  1  0  0  0
  8  9  2  0  0  0
  8 10  1  0  0  0
 10 15  1  0  0  0
 15 16  1  0  0  0
 16 17  1  0  0  0
 17 18  1  0  0  0
 18 19  1  0  0  0
 19 20  1  0  0  0
 10 11  1  0  0  0
 11 12  2  0  0  0
 12 13  1  0  0  0
 13 14  1  0  0  0
 14  1  1  0  0  0
 14  5  2  0  0  0
 13  7  2  0  0  0
 20 15  1  0  0  0
M  END
> <minimizedAffinity>
-4.29031

> <CNNscore>
0.3405989408

> <CNNaffinity>
5.0103631020

> <CNN_VS>
1.7065243721

> <CNNaffinity_variance>
0.1027435213

$$$$
[H]c1nc2sc3c(=O)n(C4([H])C([H])([H])C([H])([H])C([H])([H])C([H])([H])C4([H])[H])c([H])nc3c2c(N(C([H])([H])[H])C([H])([H])[H])c1[H]


 23 26  0  0  0  0  0  0  0  0999 V2000
    3.1757    2.7107   16.4121 C   0  0  0  0  0  0  0  0  0  0  0  0
    2.7602    1.4918   15.9152 C   0  0  0  0  0  0  0  0  0  0  0  0
    2.8003    0.3050   16.6098 C   0  0  0  0  0  0  0  0  0  0  0  0
    3.2880    0.3923   17.8587 N   0  0  0  0  0  0  0  0  0  0  0  0
    3.7154    1.5771   18.4019 C   0  0  0  0  0  0  0  0  0  0  0  0
    4.3780    1.9964   19.9175 S   0  0  0  0  0  0  0  0  0  0  0  0
    4.6035    3.6665   19.6678 C   0  0  0  0  0  0  0  0  0  0  0  0
    5.1115    4.7305   20.4384 C   0  0  0  0  0  0  0  0  0  0  0  0
    5.4896    4.4162   21.5832 O   0  0  0  0  0  0  0  0  0  0  0  0
    5.1731    5.9794   19.9540 N   0  0  0  0  0  0  0  0  0  0  0  0
    4.7242    6.1475   18.7010 C   0  0  0  0  0  0  0  0  0  0  0  0
    4.2420    5.1563   17.9605 N   0  0  0  0  0  0  0  0  0  0  0  0
    4.1500    3.8574   18.3929 C   0  0  0  0  0  0  0  0  0  0  0  0
    3.6853    2.7692   17.7298 C   0  0  0  0  0  0  0  0  0  0  0  0
    5.6995    7.0404   20.7740 C   0  0  0  0  0  0  0  0  0  0  0  0
    7.1145    7.4079   20.4021 C   0  0  0  0  0  0  0  0  0  0  0  0
    7.6027    8.4231   21.3943 C   0  0  0  0  0  0  0  0  0  0  0  0
    6.5707    8.8953   22.3536 C   0  0  0  0  0  0  0  0  0  0  0  0
    5.2440    9.2231   21.7459 C   0  0  0  0  0  0  0  0  0  0  0  0
    4.8840    8.3267   20.5838 C   0  0  0  0  0  0  0  0  0  0  0  0
    1.9847    4.8354   15.6762 C   0  0  0  0  0  0  0  0  0  0  0  0
    3.0335    3.8434   15.5741 N   0  0  0  0  0  0  0  0  0  0  0  0
    4.0228    4.0207   14.5280 C   0  0  0  0  0  0  0  0  0  0  0  0
 21 22  1  0  0  0
 22 23  1  0  0  0
 22  1  1  0  0  0
  1  2  2  0  0  0
  2  3  1  0  0  0
  3  4  2  0  0  0
  4  5  1  0  0  0
  5  6  1  0  0  0
  6  7  1  0  0  0
  7  8  1  0  0  0
  8  9  2  0  0  0
  8 10  1  0  0  0
 10 15  1  0  0  0
 15 16  1  0  0  0
 16 17  1  0  0  0
 17 18  1  0  0  0
 18 19  1  0  0  0
 19 20  1  0  0  0
 10 11  1  0  0  0
 11 12  2  0  0  0
 12 13  1  0  0  0
 13 14  1  0  0  0
 14  1  1  0  0  0
 14  5  2  0  0  0
 13  7  2  0  0  0
 20 15  1  0  0  0
M  END
> <minimizedAffinity>
-7.39919

> <CNNscore>
0.3361426294

> <CNNaffinity>
5.8391261101

> <CNN_VS>
1.9627791643

> <CNNaffinity_variance>
0.1535758674

$$$$
[H]c1c([H])c(-c2c(C([H])([H])C([H])([H])[H])c(C3=NC4(C(=O)N3[H])C([H])([H])C([H])([H])C4([H])[H])nn2-c2c([H])c([H])c(Cl)c([H])c2Cl)c([H])c([H])c1Cl


 32 36  0  0  0  0  0  0  0  0999 V2000
    3.2343    3.3908   12.7566 C   0  0  0  0  0  0  0  0  0  0  0  0
    2.6495    2.3677   13.4391 C   0  0  0  0  0  0  0  0  0  0  0  0
    1.9111    1.7256   12.4788 N   0  0  0  0  0  0  0  0  0  0  0  0
    2.0331    2.3017   11.2974 N   0  0  0  0  0  0  0  0  0  0  0  0
    2.8493    3.3452   11.4007 C   0  0  0  0  0  0  0  0  0  0  0  0
    2.7260    1.9050   14.8144 C   0  0  0  0  0  0  0  0  0  0  0  0
    3.5603    2.4731   15.6855 N   0  0  0  0  0  0  0  0  0  0  0  0
    3.4814    1.8772   16.9667 C   0  0  0  0  0  0  0  0  0  0  0  0
    3.2848    2.8164   18.1352 C   0  0  0  0  0  0  0  0  0  0  0  0
    4.7216    2.6051   18.5085 C   0  0  0  0  0  0  0  0  0  0  0  0
    4.7778    1.4126   17.5835 C   0  0  0  0  0  0  0  0  0  0  0  0
    2.4393    0.8429   16.8809 C   0  0  0  0  0  0  0  0  0  0  0  0
    1.9837    0.0687   17.7511 O   0  0  0  0  0  0  0  0  0  0  0  0
    2.0178    0.9057   15.4890 N   0  0  0  0  0  0  0  0  0  0  0  0
    1.2794    0.2574   15.1452 H   0  0  0  0  0  0  0  0  0  0  0  0
    1.3827    1.8393   10.1128 C   0  0  0  0  0  0  0  0  0  0  0  0
    0.1381    2.2990    9.6908 C   0  0  0  0  0  0  0  0  0  0  0  0
   -0.4641    1.8085    8.5604 C   0  0  0  0  0  0  0  0  0  0  0  0
    0.1498    0.8442    7.8105 C   0  0  0  0  0  0  0  0  0  0  0  0
   -0.5622    0.1745    6.3559 Cl  0  0  0  0  0  0  0  0  0  0  0  0
    1.3767    0.3671    8.1966 C   0  0  0  0  0  0  0  0  0  0  0  0
    1.9871    0.8743    9.3564 C   0  0  0  0  0  0  0  0  0  0  0  0
    3.5423    0.1853    9.8172 Cl  0  0  0  0  0  0  0  0  0  0  0  0
    3.4180    4.1720   10.3556 C   0  0  0  0  0  0  0  0  0  0  0  0
    4.6118    3.8492    9.7681 C   0  0  0  0  0  0  0  0  0  0  0  0
    5.2189    4.7033    8.8563 C   0  0  0  0  0  0  0  0  0  0  0  0
    4.6578    5.9074    8.4977 C   0  0  0  0  0  0  0  0  0  0  0  0
    5.4099    6.9946    7.3489 Cl  0  0  0  0  0  0  0  0  0  0  0  0
    3.4555    6.2445    9.0825 C   0  0  0  0  0  0  0  0  0  0  0  0
    2.8653    5.3849    9.9886 C   0  0  0  0  0  0  0  0  0  0  0  0
    3.0889    5.6275   13.7810 C   0  0  0  0  0  0  0  0  0  0  0  0
    4.0520    4.4558   13.4235 C   0  0  0  0  0  0  0  0  0  0  0  0
 31 32  1  0  0  0
 32  1  1  0  0  0
  1  2  1  0  0  0
  2  6  1  0  0  0
  6  7  2  0  0  0
  7  8  1  0  0  0
  8  9  1  0  0  0
  9 10  1  0  0  0
 10 11  1  0  0  0
  8 12  1  0  0  0
 12 13  2  0  0  0
 12 14  1  0  0  0
  2  3  2  0  0  0
  3  4  1  0  0  0
  4 16  1  0  0  0
 16 17  2  0  0  0
 17 18  1  0  0  0
 18 19  2  0  0  0
 19 20  1  0  0  0
 19 21  1  0  0  0
 21 22  2  0  0  0
 22 23  1  0  0  0
  4  5  1  0  0  0
  5 24  1  0  0  0
 24 25  2  0  0  0
 25 26  1  0  0  0
 26 27  2  0  0  0
 27 28  1  0  0  0
 27 29  1  0  0  0
 29 30  2  0  0  0
  5  1  2  0  0  0
 30 24  1  0  0  0
 14  6  1  0  0  0
 22 16  1  0  0  0
 11  8  1  0  0  0
 14 15  1  0  0  0
M  END
> <minimizedAffinity>
-5.86423

> <CNNscore>
0.6104696393

> <CNNaffinity>
6.7736511230

> <CNN_VS>
4.1351084709

> <CNNaffinity_variance>
0.3621308208

$$$$
[H]c1c([H])c(-c2c(C([H])([H])C([H])([H])[H])c(C3=NC4(C(=O)N3[H])C([H])([H])C([H])([H])C4([H])[H])nn2-c2c([H])c([H])c(Cl)c([H])c2Cl)c([H])c([H])c1Cl


 32 36  0  0  0  0  0  0  0  0999 V2000
    2.6601    4.4142   13.4152 C   0  0  0  0  0  0  0  0  0  0  0  0
    2.0717    3.3189   13.9706 C   0  0  0  0  0  0  0  0  0  0  0  0
    0.9783    3.1053   13.1715 N   0  0  0  0  0  0  0  0  0  0  0  0
    0.8995    3.9934   12.1980 N   0  0  0  0  0  0  0  0  0  0  0  0
    1.9220    4.8370   12.2904 C   0  0  0  0  0  0  0  0  0  0  0  0
    2.4139    2.4520   15.0855 C   0  0  0  0  0  0  0  0  0  0  0  0
    3.2283    2.8685   16.0555 N   0  0  0  0  0  0  0  0  0  0  0  0
    3.4330    1.8763   17.0435 C   0  0  0  0  0  0  0  0  0  0  0  0
    3.2115    2.2988   18.4783 C   0  0  0  0  0  0  0  0  0  0  0  0
    4.6981    2.3061   18.6744 C   0  0  0  0  0  0  0  0  0  0  0  0
    4.8636    1.5384   17.3844 C   0  0  0  0  0  0  0  0  0  0  0  0
    2.6085    0.7230   16.6518 C   0  0  0  0  0  0  0  0  0  0  0  0
    2.4281   -0.3800   17.2131 O   0  0  0  0  0  0  0  0  0  0  0  0
    2.0060    1.1515   15.3979 N   0  0  0  0  0  0  0  0  0  0  0  0
    1.3688    0.5065   14.8864 H   0  0  0  0  0  0  0  0  0  0  0  0
   -0.1325    4.0061   11.2107 C   0  0  0  0  0  0  0  0  0  0  0  0
   -0.0632    3.2909   10.0181 C   0  0  0  0  0  0  0  0  0  0  0  0
   -1.0653    3.3520    9.0838 C   0  0  0  0  0  0  0  0  0  0  0  0
   -2.1709    4.1260    9.3024 C   0  0  0  0  0  0  0  0  0  0  0  0
   -3.4875    4.2492    8.1524 Cl  0  0  0  0  0  0  0  0  0  0  0  0
   -2.2729    4.8451   10.4662 C   0  0  0  0  0  0  0  0  0  0  0  0
   -1.2416    4.7777   11.4185 C   0  0  0  0  0  0  0  0  0  0  0  0
   -1.4183    5.7608   12.8705 Cl  0  0  0  0  0  0  0  0  0  0  0  0
    2.3539    5.8603   11.3600 C   0  0  0  0  0  0  0  0  0  0  0  0
    1.8399    7.1282   11.4131 C   0  0  0  0  0  0  0  0  0  0  0  0
    2.1586    8.0745   10.4475 C   0  0  0  0  0  0  0  0  0  0  0  0
    3.0004    7.7911    9.3967 C   0  0  0  0  0  0  0  0  0  0  0  0
    3.4129    8.9732    8.1721 Cl  0  0  0  0  0  0  0  0  0  0  0  0
    3.5246    6.5175    9.3315 C   0  0  0  0  0  0  0  0  0  0  0  0
    3.1968    5.5873   10.2988 C   0  0  0  0  0  0  0  0  0  0  0  0
    3.2972    6.2886   14.8829 C   0  0  0  0  0  0  0  0  0  0  0  0
    3.8414    5.1056   14.0270 C   0  0  0  0  0  0  0  0  0  0  0  0
 31 32  1  0  0  0
 32  1  1  0  0  0
  1  2  1  0  0  0
  2  6  1  0  0  0
  6  7  2  0  0  0
  7  8  1  0  0  0
  8  9  1  0  0  0
  9 10  1  0  0  0
 10 11  1  0  0  0
  8 12  1  0  0  0
 12 13  2  0  0  0
 12 14  1  0  0  0
  2  3  2  0  0  0
  3  4  1  0  0  0
  4 16  1  0  0  0
 16 17  2  0  0  0
 17 18  1  0  0  0
 18 19  2  0  0  0
 19 20  1  0  0  0
 19 21  1  0  0  0
 21 22  2  0  0  0
 22 23  1  0  0  0
  4  5  1  0  0  0
  5 24  1  0  0  0
 24 25  2  0  0  0
 25 26  1  0  0  0
 26 27  2  0  0  0
 27 28  1  0  0  0
 27 29  1  0  0  0
 29 30  2  0  0  0
  5  1  2  0  0  0
 30 24  1  0  0  0
 14  6  1  0  0  0
 22 16  1  0  0  0
 11  8  1  0  0  0
 14 15  1  0  0  0
M  END
> <minimizedAffinity>
-6.39012

> <CNNscore>
0.4625503421

> <CNNaffinity>
6.5970048904

> <CNN_VS>
3.0514469147

> <CNNaffinity_variance>
0.4993063509

$$$$
[H]c1c([H])c(-c2c(C([H])([H])C([H])([H])[H])c(C3=NC4(C(=O)N3[H])C([H])([H])C([H])([H])C4([H])[H])nn2-c2c([H])c([H])c(Cl)c([H])c2Cl)c([H])c([H])c1Cl


 32 36  0  0  0  0  0  0  0  0999 V2000
    2.3393    3.9197    8.4886 C   0  0  0  0  0  0  0  0  0  0  0  0
    2.1433    5.1751    8.9786 C   0  0  0  0  0  0  0  0  0  0  0  0
    2.1023    4.9843   10.3356 N   0  0  0  0  0  0  0  0  0  0  0  0
    2.2646    3.7148   10.6591 N   0  0  0  0  0  0  0  0  0  0  0  0
    2.4222    2.9971    9.5519 C   0  0  0  0  0  0  0  0  0  0  0  0
    2.0382    6.4877    8.3642 C   0  0  0  0  0  0  0  0  0  0  0  0
    3.0795    7.0408    7.7418 N   0  0  0  0  0  0  0  0  0  0  0  0
    2.7699    8.3169    7.2141 C   0  0  0  0  0  0  0  0  0  0  0  0
    3.1114    8.5449    5.7590 C   0  0  0  0  0  0  0  0  0  0  0  0
    4.2705    9.3908    6.1943 C   0  0  0  0  0  0  0  0  0  0  0  0
    3.6919    9.4514    7.5880 C   0  0  0  0  0  0  0  0  0  0  0  0
    1.3503    8.5578    7.5144 C   0  0  0  0  0  0  0  0  0  0  0  0
    0.6083    9.5239    7.2309 O   0  0  0  0  0  0  0  0  0  0  0  0
    0.9576    7.3684    8.2561 N   0  0  0  0  0  0  0  0  0  0  0  0
   -0.0182    7.2804    8.6079 H   0  0  0  0  0  0  0  0  0  0  0  0
    2.2752    3.2282   12.0018 C   0  0  0  0  0  0  0  0  0  0  0  0
    1.2315    2.4962   12.5617 C   0  0  0  0  0  0  0  0  0  0  0  0
    1.2699    2.0704   13.8648 C   0  0  0  0  0  0  0  0  0  0  0  0
    2.3469    2.3574   14.6566 C   0  0  0  0  0  0  0  0  0  0  0  0
    2.4613    1.8440   16.3283 Cl  0  0  0  0  0  0  0  0  0  0  0  0
    3.3935    3.0773   14.1387 C   0  0  0  0  0  0  0  0  0  0  0  0
    3.3465    3.5106   12.8027 C   0  0  0  0  0  0  0  0  0  0  0  0
    4.7052    4.4677   12.2162 Cl  0  0  0  0  0  0  0  0  0  0  0  0
    2.8001    1.6059    9.4065 C   0  0  0  0  0  0  0  0  0  0  0  0
    4.1155    1.2335    9.3310 C   0  0  0  0  0  0  0  0  0  0  0  0
    4.4766   -0.0816    9.0676 C   0  0  0  0  0  0  0  0  0  0  0  0
    3.5407   -1.0709    8.8713 C   0  0  0  0  0  0  0  0  0  0  0  0
    3.9798   -2.7336    8.5396 Cl  0  0  0  0  0  0  0  0  0  0  0  0
    2.2123   -0.7089    8.9445 C   0  0  0  0  0  0  0  0  0  0  0  0
    1.8694    0.6035    9.2058 C   0  0  0  0  0  0  0  0  0  0  0  0
    3.7996    3.6969    6.5160 C   0  0  0  0  0  0  0  0  0  0  0  0
    2.3290    3.6039    7.0231 C   0  0  0  0  0  0  0  0  0  0  0  0
 31 32  1  0  0  0
 32  1  1  0  0  0
  1  2  1  0  0  0
  2  6  1  0  0  0
  6  7  2  0  0  0
  7  8  1  0  0  0
  8  9  1  0  0  0
  9 10  1  0  0  0
 10 11  1  0  0  0
  8 12  1  0  0  0
 12 13  2  0  0  0
 12 14  1  0  0  0
  2  3  2  0  0  0
  3  4  1  0  0  0
  4 16  1  0  0  0
 16 17  2  0  0  0
 17 18  1  0  0  0
 18 19  2  0  0  0
 19 20  1  0  0  0
 19 21  1  0  0  0
 21 22  2  0  0  0
 22 23  1  0  0  0
  4  5  1  0  0  0
  5 24  1  0  0  0
 24 25  2  0  0  0
 25 26  1  0  0  0
 26 27  2  0  0  0
 27 28  1  0  0  0
 27 29  1  0  0  0
 29 30  2  0  0  0
  5  1  2  0  0  0
 30 24  1  0  0  0
 14  6  1  0  0  0
 22 16  1  0  0  0
 11  8  1  0  0  0
 14 15  1  0  0  0
M  END
> <minimizedAffinity>
-5.71830

> <CNNscore>
0.4004337192

> <CNNaffinity>
6.3069443703

> <CNN_VS>
2.5255131721

> <CNNaffinity_variance>
0.4631702304

$$$$
[H]c1c([H])c(-c2c(C([H])([H])C([H])([H])[H])c(C3=NC4(C(=O)N3[H])C([H])([H])C([H])([H])C4([H])[H])nn2-c2c([H])c([H])c(Cl)c([H])c2Cl)c([H])c([H])c1Cl


 32 36  0  0  0  0  0  0  0  0999 V2000
    3.5934    3.6627   15.0293 C   0  0  0  0  0  0  0  0  0  0  0  0
    2.8040    2.6596   15.5037 C   0  0  0  0  0  0  0  0  0  0  0  0
    1.8240    2.5483   14.5514 N   0  0  0  0  0  0  0  0  0  0  0  0
    1.9960    3.4093   13.5656 N   0  0  0  0  0  0  0  0  0  0  0  0
    3.0857    4.1325   13.8004 C   0  0  0  0  0  0  0  0  0  0  0  0
    2.8722    1.7938   16.6687 C   0  0  0  0  0  0  0  0  0  0  0  0
    3.6980    2.0653   17.6797 N   0  0  0  0  0  0  0  0  0  0  0  0
    3.6120    1.1020   18.7127 C   0  0  0  0  0  0  0  0  0  0  0  0
    3.4034    1.6329   20.1130 C   0  0  0  0  0  0  0  0  0  0  0  0
    4.8383    1.3183   20.4141 C   0  0  0  0  0  0  0  0  0  0  0  0
    4.9057    0.4709   19.1659 C   0  0  0  0  0  0  0  0  0  0  0  0
    2.5745    0.1437   18.3024 C   0  0  0  0  0  0  0  0  0  0  0  0
    2.1155   -0.8625   18.8864 O   0  0  0  0  0  0  0  0  0  0  0  0
    2.1629    0.6338   16.9950 N   0  0  0  0  0  0  0  0  0  0  0  0
    1.4295    0.1229   16.4615 H   0  0  0  0  0  0  0  0  0  0  0  0
    1.1308    3.5099   12.4336 C   0  0  0  0  0  0  0  0  0  0  0  0
    0.0192    4.3471   12.3887 C   0  0  0  0  0  0  0  0  0  0  0  0
   -0.8019    4.3937   11.2912 C   0  0  0  0  0  0  0  0  0  0  0  0
   -0.5467    3.6099   10.2005 C   0  0  0  0  0  0  0  0  0  0  0  0
   -1.5533    3.6202    8.7660 Cl  0  0  0  0  0  0  0  0  0  0  0  0
    0.5397    2.7721   10.2098 C   0  0  0  0  0  0  0  0  0  0  0  0
    1.3760    2.7296   11.3383 C   0  0  0  0  0  0  0  0  0  0  0  0
    2.7277    1.5994   11.2991 Cl  0  0  0  0  0  0  0  0  0  0  0  0
    3.7687    5.0706   12.9326 C   0  0  0  0  0  0  0  0  0  0  0  0
    3.4704    6.4066   12.9596 C   0  0  0  0  0  0  0  0  0  0  0  0
    4.0327    7.2877   12.0448 C   0  0  0  0  0  0  0  0  0  0  0  0
    4.9117    6.8689   11.0726 C   0  0  0  0  0  0  0  0  0  0  0  0
    5.6301    7.9673    9.9129 Cl  0  0  0  0  0  0  0  0  0  0  0  0
    5.2202    5.5256   11.0344 C   0  0  0  0  0  0  0  0  0  0  0  0
    4.6514    4.6620   11.9503 C   0  0  0  0  0  0  0  0  0  0  0  0
    4.2169    5.4836   16.5683 C   0  0  0  0  0  0  0  0  0  0  0  0
    4.7440    4.2325   15.8033 C   0  0  0  0  0  0  0  0  0  0  0  0
 31 32  1  0  0  0
 32  1  1  0  0  0
  1  2  1  0  0  0
  2  6  1  0  0  0
  6  7  2  0  0  0
  7  8  1  0  0  0
  8  9  1  0  0  0
  9 10  1  0  0  0
 10 11  1  0  0  0
  8 12  1  0  0  0
 12 13  2  0  0  0
 12 14  1  0  0  0
  2  3  2  0  0  0
  3  4  1  0  0  0
  4 16  1  0  0  0
 16 17  2  0  0  0
 17 18  1  0  0  0
 18 19  2  0  0  0
 19 20  1  0  0  0
 19 21  1  0  0  0
 21 22  2  0  0  0
 22 23  1  0  0  0
  4  5  1  0  0  0
  5 24  1  0  0  0
 24 25  2  0  0  0
 25 26  1  0  0  0
 26 27  2  0  0  0
 27 28  1  0  0  0
 27 29  1  0  0  0
 29 30  2  0  0  0
  5  1  2  0  0  0
 30 24  1  0  0  0
 14  6  1  0  0  0
 22 16  1  0  0  0
 11  8  1  0  0  0
 14 15  1  0  0  0
M  END
> <minimizedAffinity>
-6.14237

> <CNNscore>
0.3834570646

> <CNNaffinity>
6.6747026443

> <CNN_VS>
2.5594618320

> <CNNaffinity_variance>
0.4151157439

$$$$
[H]c1c([H])c(-c2c(C([H])([H])C([H])([H])[H])c(C3=NC4(C(=O)N3[H])C([H])([H])C([H])([H])C4([H])[H])nn2-c2c([H])c([H])c(Cl)c([H])c2Cl)c([H])c([H])c1Cl


 32 36  0  0  0  0  0  0  0  0999 V2000
    2.4033    4.1840   13.1773 C   0  0  0  0  0  0  0  0  0  0  0  0
    2.6500    2.9060   13.5777 C   0  0  0  0  0  0  0  0  0  0  0  0
    2.8865    2.2438   12.4008 N   0  0  0  0  0  0  0  0  0  0  0  0
    2.7981    3.0478   11.3575 N   0  0  0  0  0  0  0  0  0  0  0  0
    2.5032    4.2749   11.7736 C   0  0  0  0  0  0  0  0  0  0  0  0
    2.7336    2.2590   14.8761 C   0  0  0  0  0  0  0  0  0  0  0  0
    3.5900    2.6874   15.8039 N   0  0  0  0  0  0  0  0  0  0  0  0
    3.5144    1.9244   16.9933 C   0  0  0  0  0  0  0  0  0  0  0  0
    3.3516    2.6993   18.2813 C   0  0  0  0  0  0  0  0  0  0  0  0
    4.7881    2.4122   18.6010 C   0  0  0  0  0  0  0  0  0  0  0  0
    4.8083    1.3558   17.5219 C   0  0  0  0  0  0  0  0  0  0  0  0
    2.4501    0.9312   16.7833 C   0  0  0  0  0  0  0  0  0  0  0  0
    1.9892    0.0545   17.5469 O   0  0  0  0  0  0  0  0  0  0  0  0
    2.0131    1.1908   15.4192 N   0  0  0  0  0  0  0  0  0  0  0  0
    1.2574    0.6093   15.0017 H   0  0  0  0  0  0  0  0  0  0  0  0
    3.0057    2.6298   10.0077 C   0  0  0  0  0  0  0  0  0  0  0  0
    4.2499    2.6416    9.3828 C   0  0  0  0  0  0  0  0  0  0  0  0
    4.4014    2.2571    8.0751 C   0  0  0  0  0  0  0  0  0  0  0  0
    3.3217    1.8475    7.3433 C   0  0  0  0  0  0  0  0  0  0  0  0
    3.4442    1.3426    5.6695 Cl  0  0  0  0  0  0  0  0  0  0  0  0
    2.0801    1.8237    7.9261 C   0  0  0  0  0  0  0  0  0  0  0  0
    1.9328    2.2198    9.2664 C   0  0  0  0  0  0  0  0  0  0  0  0
    0.3034    2.2059    9.9378 Cl  0  0  0  0  0  0  0  0  0  0  0  0
    2.4751    5.5153   11.0252 C   0  0  0  0  0  0  0  0  0  0  0  0
    1.3395    5.9285   10.3817 C   0  0  0  0  0  0  0  0  0  0  0  0
    1.3447    7.0507    9.5631 C   0  0  0  0  0  0  0  0  0  0  0  0
    2.4802    7.8001    9.3580 C   0  0  0  0  0  0  0  0  0  0  0  0
    2.5028    9.2180    8.3302 Cl  0  0  0  0  0  0  0  0  0  0  0  0
    3.6309    7.3944   10.0003 C   0  0  0  0  0  0  0  0  0  0  0  0
    3.6097    6.2752   10.8099 C   0  0  0  0  0  0  0  0  0  0  0  0
    3.2428    6.0401   14.5642 C   0  0  0  0  0  0  0  0  0  0  0  0
    1.9661    5.2653   14.1193 C   0  0  0  0  0  0  0  0  0  0  0  0
 31 32  1  0  0  0
 32  1  1  0  0  0
  1  2  1  0  0  0
  2  6  1  0  0  0
  6  7  2  0  0  0
  7  8  1  0  0  0
  8  9  1  0  0  0
  9 10  1  0  0  0
 10 11  1  0  0  0
  8 12  1  0  0  0
 12 13  2  0  0  0
 12 14  1  0  0  0
  2  3  2  0  0  0
  3  4  1  0  0  0
  4 16  1  0  0  0
 16 17  2  0  0  0
 17 18  1  0  0  0
 18 19  2  0  0  0
 19 20  1  0  0  0
 19 21  1  0  0  0
 21 22  2  0  0  0
 22 23  1  0  0  0
  4  5  1  0  0  0
  5 24  1  0  0  0
 24 25  2  0  0  0
 25 26  1  0  0  0
 26 27  2  0  0  0
 27 28  1  0  0  0
 27 29  1  0  0  0
 29 30  2  0  0  0
  5  1  2  0  0  0
 30 24  1  0  0  0
 14  6  1  0  0  0
 22 16  1  0  0  0
 11  8  1  0  0  0
 14 15  1  0  0  0
M  END
> <minimizedAffinity>
-5.89559

> <CNNscore>
0.3709830940

> <CNNaffinity>
6.5733780861

> <CNN_VS>
2.4386122227

> <CNNaffinity_variance>
0.4584833980

$$$$
[H]c1c([H])c(-c2c(C([H])([H])C([H])([H])[H])c(C3=NC4(C(=O)N3[H])C([H])([H])C([H])([H])C4([H])[H])nn2-c2c([H])c([H])c(Cl)c([H])c2Cl)c([H])c([H])c1Cl


 32 36  0  0  0  0  0  0  0  0999 V2000
    3.4697    5.6339   11.0466 C   0  0  0  0  0  0  0  0  0  0  0  0
    4.6269    4.9580   10.8046 C   0  0  0  0  0  0  0  0  0  0  0  0
    4.7541    4.1426   11.8993 N   0  0  0  0  0  0  0  0  0  0  0  0
    3.7544    4.2979   12.7473 N   0  0  0  0  0  0  0  0  0  0  0  0
    2.9148    5.2118   12.2724 C   0  0  0  0  0  0  0  0  0  0  0  0
    5.5703    4.9459    9.6995 C   0  0  0  0  0  0  0  0  0  0  0  0
    5.8776    3.8113    9.0703 N   0  0  0  0  0  0  0  0  0  0  0  0
    6.8121    4.0155    8.0273 C   0  0  0  0  0  0  0  0  0  0  0  0
    6.4483    3.4435    6.6758 C   0  0  0  0  0  0  0  0  0  0  0  0
    7.4578    2.3570    6.8969 C   0  0  0  0  0  0  0  0  0  0  0  0
    8.0475    3.1491    8.0395 C   0  0  0  0  0  0  0  0  0  0  0  0
    7.0790    5.4612    7.9851 C   0  0  0  0  0  0  0  0  0  0  0  0
    7.8067    6.1353    7.2234 O   0  0  0  0  0  0  0  0  0  0  0  0
    6.2734    5.9834    9.0794 N   0  0  0  0  0  0  0  0  0  0  0  0
    6.2843    7.0038    9.2849 H   0  0  0  0  0  0  0  0  0  0  0  0
    3.6238    3.5702   13.9693 C   0  0  0  0  0  0  0  0  0  0  0  0
    4.1625    3.9986   15.1796 C   0  0  0  0  0  0  0  0  0  0  0  0
    4.0372    3.2556   16.3255 C   0  0  0  0  0  0  0  0  0  0  0  0
    3.3722    2.0612   16.3083 C   0  0  0  0  0  0  0  0  0  0  0  0
    3.1746    1.0625   17.7348 Cl  0  0  0  0  0  0  0  0  0  0  0  0
    2.8290    1.6072   15.1332 C   0  0  0  0  0  0  0  0  0  0  0  0
    2.9621    2.3740   13.9630 C   0  0  0  0  0  0  0  0  0  0  0  0
    2.2779    1.7101   12.4808 Cl  0  0  0  0  0  0  0  0  0  0  0  0
    1.6024    5.5908   12.7554 C   0  0  0  0  0  0  0  0  0  0  0  0
    0.4752    4.9434   12.3252 C   0  0  0  0  0  0  0  0  0  0  0  0
   -0.7906    5.3840   12.6897 C   0  0  0  0  0  0  0  0  0  0  0  0
   -0.9775    6.4835   13.4955 C   0  0  0  0  0  0  0  0  0  0  0  0
   -2.5665    7.0508   13.9650 Cl  0  0  0  0  0  0  0  0  0  0  0  0
    0.1497    7.1447   13.9354 C   0  0  0  0  0  0  0  0  0  0  0  0
    1.4015    6.6949   13.5628 C   0  0  0  0  0  0  0  0  0  0  0  0
    2.0361    6.1115    9.0998 C   0  0  0  0  0  0  0  0  0  0  0  0
    2.9741    6.7452   10.1708 C   0  0  0  0  0  0  0  0  0  0  0  0
 31 32  1  0  0  0
 32  1  1  0  0  0
  1  2  1  0  0  0
  2  6  1  0  0  0
  6  7  2  0  0  0
  7  8  1  0  0  0
  8  9  1  0  0  0
  9 10  1  0  0  0
 10 11  1  0  0  0
  8 12  1  0  0  0
 12 13  2  0  0  0
 12 14  1  0  0  0
  2  3  2  0  0  0
  3  4  1  0  0  0
  4 16  1  0  0  0
 16 17  2  0  0  0
 17 18  1  0  0  0
 18 19  2  0  0  0
 19 20  1  0  0  0
 19 21  1  0  0  0
 21 22  2  0  0  0
 22 23  1  0  0  0
  4  5  1  0  0  0
  5 24  1  0  0  0
 24 25  2  0  0  0
 25 26  1  0  0  0
 26 27  2  0  0  0
 27 28  1  0  0  0
 27 29  1  0  0  0
 29 30  2  0  0  0
  5  1  2  0  0  0
 30 24  1  0  0  0
 14  6  1  0  0  0
 22 16  1  0  0  0
 11  8  1  0  0  0
 14 15  1  0  0  0
M  END
> <minimizedAffinity>
-6.80271

> <CNNscore>
0.2859153748

> <CNNaffinity>
6.1778364182

> <CNN_VS>
1.7663384676

> <CNNaffinity_variance>
0.0934710428

$$$$
[H]c1c([H])c(-c2c(C([H])([H])C([H])([H])[H])c(C3=NC4(C(=O)N3[H])C([H])([H])C([H])([H])C4([H])[H])nn2-c2c([H])c([H])c(Cl)c([H])c2Cl)c([H])c([H])c1Cl


 32 36  0  0  0  0  0  0  0  0999 V2000
    5.3894    1.9083   21.7106 C   0  0  0  0  0  0  0  0  0  0  0  0
    5.4934    2.3029   23.0099 C   0  0  0  0  0  0  0  0  0  0  0  0
    5.5212    3.6710   22.9257 N   0  0  0  0  0  0  0  0  0  0  0  0
    5.4364    4.0889   21.6764 N   0  0  0  0  0  0  0  0  0  0  0  0
    5.3471    3.0382   20.8678 C   0  0  0  0  0  0  0  0  0  0  0  0
    5.5238    1.5908   24.2762 C   0  0  0  0  0  0  0  0  0  0  0  0
    6.6594    1.4552   24.9615 N   0  0  0  0  0  0  0  0  0  0  0  0
    6.4743    0.7314   26.1634 C   0  0  0  0  0  0  0  0  0  0  0  0
    7.0116    1.3705   27.4239 C   0  0  0  0  0  0  0  0  0  0  0  0
    8.1382    0.3810   27.4099 C   0  0  0  0  0  0  0  0  0  0  0  0
    7.3861   -0.4482   26.3963 C   0  0  0  0  0  0  0  0  0  0  0  0
    5.0390    0.4209   26.2451 C   0  0  0  0  0  0  0  0  0  0  0  0
    4.3810   -0.1729   27.1275 O   0  0  0  0  0  0  0  0  0  0  0  0
    4.5039    0.9797   25.0120 N   0  0  0  0  0  0  0  0  0  0  0  0
    3.4879    0.8893   24.8046 H   0  0  0  0  0  0  0  0  0  0  0  0
    5.4324    5.4649   21.2934 C   0  0  0  0  0  0  0  0  0  0  0  0
    4.3385    6.0956   20.7067 C   0  0  0  0  0  0  0  0  0  0  0  0
    4.3855    7.4131   20.3289 C   0  0  0  0  0  0  0  0  0  0  0  0
    5.5213    8.1495   20.5213 C   0  0  0  0  0  0  0  0  0  0  0  0
    5.6495    9.8362   20.0632 Cl  0  0  0  0  0  0  0  0  0  0  0  0
    6.6190    7.5607   21.0961 C   0  0  0  0  0  0  0  0  0  0  0  0
    6.5632    6.2100   21.4799 C   0  0  0  0  0  0  0  0  0  0  0  0
    8.0234    5.5066   22.1720 Cl  0  0  0  0  0  0  0  0  0  0  0  0
    5.0641    2.9952   19.4475 C   0  0  0  0  0  0  0  0  0  0  0  0
    5.5842    3.9302   18.5932 C   0  0  0  0  0  0  0  0  0  0  0  0
    5.2158    3.9649   17.2543 C   0  0  0  0  0  0  0  0  0  0  0  0
    4.3178    3.0696   16.7203 C   0  0  0  0  0  0  0  0  0  0  0  0
    3.8440    3.0995   15.0345 Cl  0  0  0  0  0  0  0  0  0  0  0  0
    3.7864    2.1229   17.5703 C   0  0  0  0  0  0  0  0  0  0  0  0
    4.1619    2.1025   18.8995 C   0  0  0  0  0  0  0  0  0  0  0  0
    6.9496    0.0563   21.2534 C   0  0  0  0  0  0  0  0  0  0  0  0
    5.4480    0.4718   21.2859 C   0  0  0  0  0  0  0  0  0  0  0  0
 31 32  1  0  0  0
 32  1  1  0  0  0
  1  2  1  0  0  0
  2  6  1  0  0  0
  6  7  2  0  0  0
  7  8  1  0  0  0
  8  9  1  0  0  0
  9 10  1  0  0  0
 10 11  1  0  0  0
  8 12  1  0  0  0
 12 13  2  0  0  0
 12 14  1  0  0  0
  2  3  2  0  0  0
  3  4  1  0  0  0
  4 16  1  0  0  0
 16 17  2  0  0  0
 17 18  1  0  0  0
 18 19  2  0  0  0
 19 20  1  0  0  0
 19 21  1  0  0  0
 21 22  2  0  0  0
 22 23  1  0  0  0
  4  5  1  0  0  0
  5 24  1  0  0  0
 24 25  2  0  0  0
 25 26  1  0  0  0
 26 27  2  0  0  0
 27 28  1  0  0  0
 27 29  1  0  0  0
 29 30  2  0  0  0
  5  1  2  0  0  0
 30 24  1  0  0  0
 14  6  1  0  0  0
 22 16  1  0  0  0
 11  8  1  0  0  0
 14 15  1  0  0  0
M  END
> <minimizedAffinity>
-7.01231

> <CNNscore>
0.2714216411

> <CNNaffinity>
6.8507127762

> <CNN_VS>
1.8594317436

> <CNNaffinity_variance>
0.3921845555

$$$$
[H]c1c([H])c(-c2c(C([H])([H])C([H])([H])[H])c(C3=NC4(C(=O)N3[H])C([H])([H])C([H])([H])C4([H])[H])nn2-c2c([H])c([H])c(Cl)c([H])c2Cl)c([H])c([H])c1Cl


 32 36  0  0  0  0  0  0  0  0999 V2000
    1.4307    5.7124   10.4996 C   0  0  0  0  0  0  0  0  0  0  0  0
    1.2795    5.8617    9.1545 C   0  0  0  0  0  0  0  0  0  0  0  0
    2.0472    4.8521    8.6339 N   0  0  0  0  0  0  0  0  0  0  0  0
    2.6227    4.1337    9.5802 N   0  0  0  0  0  0  0  0  0  0  0  0
    2.2753    4.6157   10.7688 C   0  0  0  0  0  0  0  0  0  0  0  0
    0.5014    6.7670    8.3259 C   0  0  0  0  0  0  0  0  0  0  0  0
    1.0695    7.4464    7.3292 N   0  0  0  0  0  0  0  0  0  0  0  0
    0.1419    8.2697    6.6476 C   0  0  0  0  0  0  0  0  0  0  0  0
    0.1024    8.1362    5.1420 C   0  0  0  0  0  0  0  0  0  0  0  0
    0.8170    9.4502    5.0365 C   0  0  0  0  0  0  0  0  0  0  0  0
    0.5093    9.7247    6.4893 C   0  0  0  0  0  0  0  0  0  0  0  0
   -1.1656    8.0338    7.2786 C   0  0  0  0  0  0  0  0  0  0  0  0
   -2.2955    8.5006    7.0149 O   0  0  0  0  0  0  0  0  0  0  0  0
   -0.8598    7.0864    8.3406 N   0  0  0  0  0  0  0  0  0  0  0  0
   -1.6216    6.7501    8.9652 H   0  0  0  0  0  0  0  0  0  0  0  0
    3.4707    3.0127    9.3269 C   0  0  0  0  0  0  0  0  0  0  0  0
    3.0054    1.7038    9.2317 C   0  0  0  0  0  0  0  0  0  0  0  0
    3.8578    0.6518    9.0141 C   0  0  0  0  0  0  0  0  0  0  0  0
    5.2021    0.8640    8.8836 C   0  0  0  0  0  0  0  0  0  0  0  0
    6.3466   -0.4333    8.6038 Cl  0  0  0  0  0  0  0  0  0  0  0  0
    5.6963    2.1407    8.9726 C   0  0  0  0  0  0  0  0  0  0  0  0
    4.8165    3.2135    9.1962 C   0  0  0  0  0  0  0  0  0  0  0  0
    5.5243    4.8207    9.3430 Cl  0  0  0  0  0  0  0  0  0  0  0  0
    2.5121    4.0635   12.0873 C   0  0  0  0  0  0  0  0  0  0  0  0
    3.5888    4.4560   12.8365 C   0  0  0  0  0  0  0  0  0  0  0  0
    3.8870    3.8397   14.0451 C   0  0  0  0  0  0  0  0  0  0  0  0
    3.1232    2.8123   14.5493 C   0  0  0  0  0  0  0  0  0  0  0  0
    3.4852    2.0259   16.0717 Cl  0  0  0  0  0  0  0  0  0  0  0  0
    2.0360    2.4073   13.8042 C   0  0  0  0  0  0  0  0  0  0  0  0
    1.7536    3.0294   12.6035 C   0  0  0  0  0  0  0  0  0  0  0  0
    1.8651    7.8703   11.6079 C   0  0  0  0  0  0  0  0  0  0  0  0
    0.8668    6.6788   11.4974 C   0  0  0  0  0  0  0  0  0  0  0  0
 31 32  1  0  0  0
 32  1  1  0  0  0
  1  2  1  0  0  0
  2  6  1  0  0  0
  6  7  2  0  0  0
  7  8  1  0  0  0
  8  9  1  0  0  0
  9 10  1  0  0  0
 10 11  1  0  0  0
  8 12  1  0  0  0
 12 13  2  0  0  0
 12 14  1  0  0  0
  2  3  2  0  0  0
  3  4  1  0  0  0
  4 16  1  0  0  0
 16 17  2  0  0  0
 17 18  1  0  0  0
 18 19  2  0  0  0
 19 20  1  0  0  0
 19 21  1  0  0  0
 21 22  2  0  0  0
 22 23  1  0  0  0
  4  5  1  0  0  0
  5 24  1  0  0  0
 24 25  2  0  0  0
 25 26  1  0  0  0
 26 27  2  0  0  0
 27 28  1  0  0  0
 27 29  1  0  0  0
 29 30  2  0  0  0
  5  1  2  0  0  0
 30 24  1  0  0  0
 14  6  1  0  0  0
 22 16  1  0  0  0
 11  8  1  0  0  0
 14 15  1  0  0  0
M  END
> <minimizedAffinity>
-6.08324

> <CNNscore>
0.2704314888

> <CNNaffinity>
6.0360784531

> <CNN_VS>
1.6323456764

> <CNNaffinity_variance>
0.1806257814

$$$$
[H]c1c([H])c(-c2c(C([H])([H])C([H])([H])[H])c(C3=NC4(C(=O)N3[H])C([H])([H])C([H])([H])C4([H])[H])nn2-c2c([H])c([H])c(Cl)c([H])c2Cl)c([H])c([H])c1Cl


 32 36  0  0  0  0  0  0  0  0999 V2000
    4.1072    6.6015   18.6765 C   0  0  0  0  0  0  0  0  0  0  0  0
    4.4216    7.7251   17.9742 C   0  0  0  0  0  0  0  0  0  0  0  0
    5.2170    8.4297   18.8405 N   0  0  0  0  0  0  0  0  0  0  0  0
    5.3849    7.7917   19.9839 N   0  0  0  0  0  0  0  0  0  0  0  0
    4.7216    6.6409   19.9452 C   0  0  0  0  0  0  0  0  0  0  0  0
    4.1206    8.1857   16.6293 C   0  0  0  0  0  0  0  0  0  0  0  0
    4.8399    7.7744   15.5846 N   0  0  0  0  0  0  0  0  0  0  0  0
    4.3856    8.3379   14.3686 C   0  0  0  0  0  0  0  0  0  0  0  0
    4.1184    7.3715   13.2369 C   0  0  0  0  0  0  0  0  0  0  0  0
    5.3816    7.8397   12.5784 C   0  0  0  0  0  0  0  0  0  0  0  0
    5.4168    9.0280   13.5098 C   0  0  0  0  0  0  0  0  0  0  0  0
    3.2166    9.1648   14.7045 C   0  0  0  0  0  0  0  0  0  0  0  0
    2.4554    9.8373   13.9749 O   0  0  0  0  0  0  0  0  0  0  0  0
    3.1177    9.0345   16.1510 N   0  0  0  0  0  0  0  0  0  0  0  0
    2.3645    9.5389   16.6627 H   0  0  0  0  0  0  0  0  0  0  0  0
    6.1739    8.2875   21.0663 C   0  0  0  0  0  0  0  0  0  0  0  0
    5.6676    9.1026   22.0752 C   0  0  0  0  0  0  0  0  0  0  0  0
    6.4663    9.5797   23.0828 C   0  0  0  0  0  0  0  0  0  0  0  0
    7.7958    9.2633   23.1226 C   0  0  0  0  0  0  0  0  0  0  0  0
    8.8724    9.8375   24.3806 Cl  0  0  0  0  0  0  0  0  0  0  0  0
    8.3294    8.4629   22.1445 C   0  0  0  0  0  0  0  0  0  0  0  0
    7.5046    7.9784   21.1149 C   0  0  0  0  0  0  0  0  0  0  0  0
    8.2650    6.9920   19.8682 Cl  0  0  0  0  0  0  0  0  0  0  0  0
    4.7460    5.5361   20.8823 C   0  0  0  0  0  0  0  0  0  0  0  0
    3.9512    5.5356   21.9972 C   0  0  0  0  0  0  0  0  0  0  0  0
    4.0623    4.5397   22.9591 C   0  0  0  0  0  0  0  0  0  0  0  0
    4.9677    3.5102   22.8436 C   0  0  0  0  0  0  0  0  0  0  0  0
    5.1192    2.2466   24.0468 Cl  0  0  0  0  0  0  0  0  0  0  0  0
    5.7745    3.4993   21.7254 C   0  0  0  0  0  0  0  0  0  0  0  0
    5.6527    4.4978   20.7786 C   0  0  0  0  0  0  0  0  0  0  0  0
    3.9604    4.5085   17.3838 C   0  0  0  0  0  0  0  0  0  0  0  0
    3.1406    5.5698   18.1774 C   0  0  0  0  0  0  0  0  0  0  0  0
 31 32  1  0  0  0
 32  1  1  0  0  0
  1  2  1  0  0  0
  2  6  1  0  0  0
  6  7  2  0  0  0
  7  8  1  0  0  0
  8  9  1  0  0  0
  9 10  1  0  0  0
 10 11  1  0  0  0
  8 12  1  0  0  0
 12 13  2  0  0  0
 12 14  1  0  0  0
  2  3  2  0  0  0
  3  4  1  0  0  0
  4 16  1  0  0  0
 16 17  2  0  0  0
 17 18  1  0  0  0
 18 19  2  0  0  0
 19 20  1  0  0  0
 19 21  1  0  0  0
 21 22  2  0  0  0
 22 23  1  0  0  0
  4  5  1  0  0  0
  5 24  1  0  0  0
 24 25  2  0  0  0
 25 26  1  0  0  0
 26 27  2  0  0  0
 27 28  1  0  0  0
 27 29  1  0  0  0
 29 30  2  0  0  0
  5  1  2  0  0  0
 30 24  1  0  0  0
 14  6  1  0  0  0
 22 16  1  0  0  0
 11  8  1  0  0  0
 14 15  1  0  0  0
M  END
> <minimizedAffinity>
-8.90988

> <CNNscore>
0.2314766347

> <CNNaffinity>
6.1763005257

> <CNN_VS>
1.4296692610

> <CNNaffinity_variance>
0.3446731269

$$$$
[H]c1nc(OC([H])([H])C([H])([H])Oc2nc([H])c(Br)c([H])n2)c(-c2c([H])c([H])c(C([H])([H])[H])c([H])c2[H])c(N([H])S(=O)(=O)c2c([H])c([H])c(Cl)c([H])c2[H])n1


 36 39  0  0  0  0  0  0  0  0999 V2000
    3.4558    3.0982   15.9396 C   0  0  0  0  0  0  0  0  0  0  0  0
    4.2708    2.8635   16.9921 C   0  0  0  0  0  0  0  0  0  0  0  0
    4.2019    1.5445   17.6093 N   0  0  0  0  0  0  0  0  0  0  0  0
    3.3978    0.6180   17.1776 C   0  0  0  0  0  0  0  0  0  0  0  0
    2.5865    0.8376   16.1360 N   0  0  0  0  0  0  0  0  0  0  0  0
    2.5863    1.9742   15.5541 C   0  0  0  0  0  0  0  0  0  0  0  0
    2.1230    6.8063   11.8545 C   0  0  0  0  0  0  0  0  0  0  0  0
    2.6624    6.0152   12.9789 C   0  0  0  0  0  0  0  0  0  0  0  0
    3.5972    5.0579   12.8610 C   0  0  0  0  0  0  0  0  0  0  0  0
    3.9951    4.1799   13.8254 C   0  0  0  0  0  0  0  0  0  0  0  0
    3.3964    4.2512   15.1074 C   0  0  0  0  0  0  0  0  0  0  0  0
    2.4527    5.2549   15.2662 C   0  0  0  0  0  0  0  0  0  0  0  0
    2.0446    6.1575   14.2794 C   0  0  0  0  0  0  0  0  0  0  0  0
    5.1001    3.8032   17.5658 N   0  0  0  0  0  0  0  0  0  0  0  0
    6.0278    4.0287   17.3624 H   0  0  0  0  0  0  0  0  0  0  0  0
    4.3883    4.6920   18.9485 S   0  0  0  0  0  0  0  0  0  0  0  0
    5.1141    6.0836   18.8079 O   0  0  0  0  0  0  0  0  0  0  0  0
    2.9581    4.9982   18.6965 O   0  0  0  0  0  0  0  0  0  0  0  0
    4.7482    4.0929   20.4819 C   0  0  0  0  0  0  0  0  0  0  0  0
    5.5222    3.0114   20.6435 C   0  0  0  0  0  0  0  0  0  0  0  0
    5.8331    2.3460   21.7581 C   0  0  0  0  0  0  0  0  0  0  0  0
    5.2779    2.8046   22.9331 C   0  0  0  0  0  0  0  0  0  0  0  0
    5.5955    2.0107   24.4742 Cl  0  0  0  0  0  0  0  0  0  0  0  0
    4.4085    3.9302   22.9447 C   0  0  0  0  0  0  0  0  0  0  0  0
    4.1628    4.5616   21.6997 C   0  0  0  0  0  0  0  0  0  0  0  0
    1.7685    2.3538   14.5317 O   0  0  0  0  0  0  0  0  0  0  0  0
    1.2176    1.8977   13.4977 C   0  0  0  0  0  0  0  0  0  0  0  0
    1.3094    1.8291   12.0508 C   0  0  0  0  0  0  0  0  0  0  0  0
    2.2673    1.7865   11.1965 O   0  0  0  0  0  0  0  0  0  0  0  0
    3.2088    1.7455   10.3460 C   0  0  0  0  0  0  0  0  0  0  0  0
    3.8749    3.0022    9.9731 N   0  0  0  0  0  0  0  0  0  0  0  0
    4.8950    3.0550    9.1187 C   0  0  0  0  0  0  0  0  0  0  0  0
    5.3712    1.8729    8.5373 C   0  0  0  0  0  0  0  0  0  0  0  0
    6.7968    1.9588    7.2825 Br  0  0  0  0  0  0  0  0  0  0  0  0
    4.7607    0.6885    8.8556 C   0  0  0  0  0  0  0  0  0  0  0  0
    3.7876    0.7132    9.6699 N   0  0  0  0  0  0  0  0  0  0  0  0
  7  8  1  0  0  0
  8  9  2  0  0  0
  9 10  1  0  0  0
 10 11  2  0  0  0
 11  1  1  0  0  0
  1  2  1  0  0  0
  2 14  1  0  0  0
 14 16  1  0  0  0
 16 17  2  0  0  0
 16 18  2  0  0  0
 16 19  1  0  0  0
 19 20  2  0  0  0
 20 21  1  0  0  0
 21 22  2  0  0  0
 22 23  1  0  0  0
 22 24  1  0  0  0
 24 25  2  0  0  0
  2  3  2  0  0  0
  3  4  1  0  0  0
  4  5  2  0  0  0
  5  6  1  0  0  0
  6 26  1  0  0  0
 26 27  1  0  0  0
 27 28  1  0  0  0
 28 29  1  0  0  0
 29 30  1  0  0  0
 30 31  2  0  0  0
 31 32  1  0  0  0
 32 33  2  0  0  0
 33 34  1  0  0  0
 33 35  1  0  0  0
 35 36  2  0  0  0
 11 12  1  0  0  0
 12 13  2  0  0  0
 13  8  1  0  0  0
  6  1  2  0  0  0
 36 30  1  0  0  0
 25 19  1  0  0  0
 14 15  1  0  0  0
M  END
> <minimizedAffinity>
-7.50351

> <CNNscore>
0.4245871603

> <CNNaffinity>
6.7866086960

> <CNN_VS>
2.8815069199

> <CNNaffinity_variance>
0.3333901763

$$$$
[H]c1nc(OC([H])([H])C([H])([H])Oc2nc([H])c(Br)c([H])n2)c(-c2c([H])c([H])c(C([H])([H])[H])c([H])c2[H])c(N([H])S(=O)(=O)c2c([H])c([H])c(Cl)c([H])c2[H])n1


 36 39  0  0  0  0  0  0  0  0999 V2000
    3.4113    3.0182   15.8178 C   0  0  0  0  0  0  0  0  0  0  0  0
    4.2235    2.7366   16.8609 C   0  0  0  0  0  0  0  0  0  0  0  0
    4.1123    1.4098   17.4549 N   0  0  0  0  0  0  0  0  0  0  0  0
    3.2742    0.5196   17.0117 C   0  0  0  0  0  0  0  0  0  0  0  0
    2.4652    0.7859   15.9792 N   0  0  0  0  0  0  0  0  0  0  0  0
    2.5012    1.9320   15.4177 C   0  0  0  0  0  0  0  0  0  0  0  0
    2.3293    6.7712   11.6997 C   0  0  0  0  0  0  0  0  0  0  0  0
    2.7903    5.9736   12.8540 C   0  0  0  0  0  0  0  0  0  0  0  0
    3.7667    5.0524   12.8055 C   0  0  0  0  0  0  0  0  0  0  0  0
    4.1050    4.1667   13.7855 C   0  0  0  0  0  0  0  0  0  0  0  0
    3.3873    4.1874   15.0067 C   0  0  0  0  0  0  0  0  0  0  0  0
    2.3966    5.1538   15.0959 C   0  0  0  0  0  0  0  0  0  0  0  0
    2.0493    6.0642   14.0932 C   0  0  0  0  0  0  0  0  0  0  0  0
    5.0881    3.6366   17.4461 N   0  0  0  0  0  0  0  0  0  0  0  0
    6.0064    3.8684   17.2102 H   0  0  0  0  0  0  0  0  0  0  0  0
    4.4531    4.4469   18.9120 S   0  0  0  0  0  0  0  0  0  0  0  0
    5.3147    5.7662   18.9146 O   0  0  0  0  0  0  0  0  0  0  0  0
    3.0630    4.9183   18.6917 O   0  0  0  0  0  0  0  0  0  0  0  0
    4.7352    3.6624   20.3764 C   0  0  0  0  0  0  0  0  0  0  0  0
    4.3388    4.1952   21.5400 C   0  0  0  0  0  0  0  0  0  0  0  0
    4.5553    3.7723   22.7875 C   0  0  0  0  0  0  0  0  0  0  0  0
    5.3097    2.6286   22.9357 C   0  0  0  0  0  0  0  0  0  0  0  0
    5.6812    1.9691   24.5273 Cl  0  0  0  0  0  0  0  0  0  0  0  0
    5.8355    1.9436   21.8054 C   0  0  0  0  0  0  0  0  0  0  0  0
    5.5279    2.4821   20.5310 C   0  0  0  0  0  0  0  0  0  0  0  0
    1.6914    2.3581   14.4073 O   0  0  0  0  0  0  0  0  0  0  0  0
    1.3247    2.0418   13.2471 C   0  0  0  0  0  0  0  0  0  0  0  0
    1.2383    2.5067   11.8748 C   0  0  0  0  0  0  0  0  0  0  0  0
    0.3763    3.1616   11.1839 O   0  0  0  0  0  0  0  0  0  0  0  0
   -0.4710    3.8080   10.4944 C   0  0  0  0  0  0  0  0  0  0  0  0
   -0.5387    5.2684   10.6518 N   0  0  0  0  0  0  0  0  0  0  0  0
   -1.3683    6.0349    9.9464 C   0  0  0  0  0  0  0  0  0  0  0  0
   -2.2236    5.4449    9.0069 C   0  0  0  0  0  0  0  0  0  0  0  0
   -3.4391    6.5378    8.0362 Br  0  0  0  0  0  0  0  0  0  0  0  0
   -2.1923    4.0845    8.8488 C   0  0  0  0  0  0  0  0  0  0  0  0
   -1.3835    3.4146    9.5614 N   0  0  0  0  0  0  0  0  0  0  0  0
  7  8  1  0  0  0
  8  9  2  0  0  0
  9 10  1  0  0  0
 10 11  2  0  0  0
 11  1  1  0  0  0
  1  2  1  0  0  0
  2 14  1  0  0  0
 14 16  1  0  0  0
 16 17  2  0  0  0
 16 18  2  0  0  0
 16 19  1  0  0  0
 19 20  2  0  0  0
 20 21  1  0  0  0
 21 22  2  0  0  0
 22 23  1  0  0  0
 22 24  1  0  0  0
 24 25  2  0  0  0
  2  3  2  0  0  0
  3  4  1  0  0  0
  4  5  2  0  0  0
  5  6  1  0  0  0
  6 26  1  0  0  0
 26 27  1  0  0  0
 27 28  1  0  0  0
 28 29  1  0  0  0
 29 30  1  0  0  0
 30 31  2  0  0  0
 31 32  1  0  0  0
 32 33  2  0  0  0
 33 34  1  0  0  0
 33 35  1  0  0  0
 35 36  2  0  0  0
 11 12  1  0  0  0
 12 13  2  0  0  0
 13  8  1  0  0  0
  6  1  2  0  0  0
 36 30  1  0  0  0
 25 19  1  0  0  0
 14 15  1  0  0  0
M  END
> <minimizedAffinity>
-7.28912

> <CNNscore>
0.3846485913

> <CNNaffinity>
6.6643800735

> <CNN_VS>
2.5634443760

> <CNNaffinity_variance>
0.4180872440

$$$$
[H]c1nc(OC([H])([H])C([H])([H])Oc2nc([H])c(Br)c([H])n2)c(-c2c([H])c([H])c(C([H])([H])[H])c([H])c2[H])c(N([H])S(=O)(=O)c2c([H])c([H])c(Cl)c([H])c2[H])n1


 36 39  0  0  0  0  0  0  0  0999 V2000
    3.8245    2.2124   19.4806 C   0  0  0  0  0  0  0  0  0  0  0  0
    3.8387    2.1142   20.8286 C   0  0  0  0  0  0  0  0  0  0  0  0
    3.5162    0.8155   21.4073 N   0  0  0  0  0  0  0  0  0  0  0  0
    3.2267   -0.2182   20.6732 C   0  0  0  0  0  0  0  0  0  0  0  0
    3.2099   -0.1341   19.3375 N   0  0  0  0  0  0  0  0  0  0  0  0
    3.4717    0.9758   18.7632 C   0  0  0  0  0  0  0  0  0  0  0  0
    5.4533    7.3457   17.6888 C   0  0  0  0  0  0  0  0  0  0  0  0
    4.9858    5.9604   17.8968 C   0  0  0  0  0  0  0  0  0  0  0  0
    3.7138    5.6132   18.1538 C   0  0  0  0  0  0  0  0  0  0  0  0
    3.2620    4.3834   18.5314 C   0  0  0  0  0  0  0  0  0  0  0  0
    4.1919    3.3239   18.6712 C   0  0  0  0  0  0  0  0  0  0  0  0
    5.5080    3.6473   18.3769 C   0  0  0  0  0  0  0  0  0  0  0  0
    5.9733    4.9071   17.9877 C   0  0  0  0  0  0  0  0  0  0  0  0
    4.0599    3.1683   21.6887 N   0  0  0  0  0  0  0  0  0  0  0  0
    3.4455    3.8557   22.0095 H   0  0  0  0  0  0  0  0  0  0  0  0
    5.7549    3.3481   22.2396 S   0  0  0  0  0  0  0  0  0  0  0  0
    5.5938    3.0664   23.7815 O   0  0  0  0  0  0  0  0  0  0  0  0
    6.5896    2.2238   21.7475 O   0  0  0  0  0  0  0  0  0  0  0  0
    6.4298    4.8839   22.0795 C   0  0  0  0  0  0  0  0  0  0  0  0
    5.7131    5.9146   21.6117 C   0  0  0  0  0  0  0  0  0  0  0  0
    6.0985    7.1612   21.3301 C   0  0  0  0  0  0  0  0  0  0  0  0
    7.4298    7.4604   21.5230 C   0  0  0  0  0  0  0  0  0  0  0  0
    8.0735    9.0645   21.1781 Cl  0  0  0  0  0  0  0  0  0  0  0  0
    8.3435    6.4766   21.9923 C   0  0  0  0  0  0  0  0  0  0  0  0
    7.8136    5.1914   22.2685 C   0  0  0  0  0  0  0  0  0  0  0  0
    3.4246    1.2182   17.4226 O   0  0  0  0  0  0  0  0  0  0  0  0
    2.6764    1.0596   16.4248 C   0  0  0  0  0  0  0  0  0  0  0  0
    2.3203    1.6005   15.1259 C   0  0  0  0  0  0  0  0  0  0  0  0
    2.1996    2.7780   14.6277 O   0  0  0  0  0  0  0  0  0  0  0  0
    2.0724    3.9404   14.1339 C   0  0  0  0  0  0  0  0  0  0  0  0
    2.9488    5.0135   14.6264 N   0  0  0  0  0  0  0  0  0  0  0  0
    2.9149    6.2545   14.1444 C   0  0  0  0  0  0  0  0  0  0  0  0
    2.0119    6.5742   13.1222 C   0  0  0  0  0  0  0  0  0  0  0  0
    1.9347    8.3583   12.4700 Br  0  0  0  0  0  0  0  0  0  0  0  0
    1.1732    5.5977   12.6533 C   0  0  0  0  0  0  0  0  0  0  0  0
    1.2533    4.4392   13.1654 N   0  0  0  0  0  0  0  0  0  0  0  0
  7  8  1  0  0  0
  8  9  2  0  0  0
  9 10  1  0  0  0
 10 11  2  0  0  0
 11  1  1  0  0  0
  1  2  1  0  0  0
  2 14  1  0  0  0
 14 16  1  0  0  0
 16 17  2  0  0  0
 16 18  2  0  0  0
 16 19  1  0  0  0
 19 20  2  0  0  0
 20 21  1  0  0  0
 21 22  2  0  0  0
 22 23  1  0  0  0
 22 24  1  0  0  0
 24 25  2  0  0  0
  2  3  2  0  0  0
  3  4  1  0  0  0
  4  5  2  0  0  0
  5  6  1  0  0  0
  6 26  1  0  0  0
 26 27  1  0  0  0
 27 28  1  0  0  0
 28 29  1  0  0  0
 29 30  1  0  0  0
 30 31  2  0  0  0
 31 32  1  0  0  0
 32 33  2  0  0  0
 33 34  1  0  0  0
 33 35  1  0  0  0
 35 36  2  0  0  0
 11 12  1  0  0  0
 12 13  2  0  0  0
 13  8  1  0  0  0
  6  1  2  0  0  0
 36 30  1  0  0  0
 25 19  1  0  0  0
 14 15  1  0  0  0
M  END
> <minimizedAffinity>
-7.23910

> <CNNscore>
0.3044885993

> <CNNaffinity>
6.8545060158

> <CNN_VS>
2.0871188641

> <CNNaffinity_variance>
0.3422621489

$$$$
[H]c1nc(OC([H])([H])C([H])([H])Oc2nc([H])c(Br)c([H])n2)c(-c2c([H])c([H])c(C([H])([H])[H])c([H])c2[H])c(N([H])S(=O)(=O)c2c([H])c([H])c(Cl)c([H])c2[H])n1


 36 39  0  0  0  0  0  0  0  0999 V2000
    2.7106    4.0262   13.7851 C   0  0  0  0  0  0  0  0  0  0  0  0
    2.7525    5.3673   13.6218 C   0  0  0  0  0  0  0  0  0  0  0  0
    3.1106    6.1710   14.7843 N   0  0  0  0  0  0  0  0  0  0  0  0
    3.3845    5.6377   15.9383 C   0  0  0  0  0  0  0  0  0  0  0  0
    3.3473    4.3112   16.1127 N   0  0  0  0  0  0  0  0  0  0  0  0
    3.0303    3.5470   15.1402 C   0  0  0  0  0  0  0  0  0  0  0  0
    1.0903    1.2409    9.1127 C   0  0  0  0  0  0  0  0  0  0  0  0
    1.5845    1.7250   10.4175 C   0  0  0  0  0  0  0  0  0  0  0  0
    0.8245    1.8752   11.5148 C   0  0  0  0  0  0  0  0  0  0  0  0
    1.1829    2.4842   12.6810 C   0  0  0  0  0  0  0  0  0  0  0  0
    2.4879    3.0224   12.8011 C   0  0  0  0  0  0  0  0  0  0  0  0
    3.3051    2.8489   11.6942 C   0  0  0  0  0  0  0  0  0  0  0  0
    2.9403    2.2232   10.4982 C   0  0  0  0  0  0  0  0  0  0  0  0
    2.4074    6.0265   12.4615 N   0  0  0  0  0  0  0  0  0  0  0  0
    2.9577    6.2777   11.6954 H   0  0  0  0  0  0  0  0  0  0  0  0
    0.7037    6.5742   12.3846 S   0  0  0  0  0  0  0  0  0  0  0  0
    0.3102    6.5241   13.9095 O   0  0  0  0  0  0  0  0  0  0  0  0
    0.6297    8.0147   12.0347 O   0  0  0  0  0  0  0  0  0  0  0  0
   -0.3648    5.5659   11.5590 C   0  0  0  0  0  0  0  0  0  0  0  0
   -0.1065    5.1482   10.3126 C   0  0  0  0  0  0  0  0  0  0  0  0
   -0.8674    4.4358    9.4787 C   0  0  0  0  0  0  0  0  0  0  0  0
   -2.1179    4.0742    9.9311 C   0  0  0  0  0  0  0  0  0  0  0  0
   -3.2283    3.1443    8.9269 Cl  0  0  0  0  0  0  0  0  0  0  0  0
   -2.5697    4.4552   11.2249 C   0  0  0  0  0  0  0  0  0  0  0  0
   -1.6670    5.2006   12.0239 C   0  0  0  0  0  0  0  0  0  0  0  0
    2.8881    2.1924   15.1954 O   0  0  0  0  0  0  0  0  0  0  0  0
    3.1753    1.2067   15.9210 C   0  0  0  0  0  0  0  0  0  0  0  0
    2.9396    0.5921   17.2146 C   0  0  0  0  0  0  0  0  0  0  0  0
    3.3047    0.8339   18.4219 O   0  0  0  0  0  0  0  0  0  0  0  0
    3.6720    1.0679   19.6142 C   0  0  0  0  0  0  0  0  0  0  0  0
    4.7301    2.0632   19.8417 N   0  0  0  0  0  0  0  0  0  0  0  0
    5.1559    2.4023   21.0571 C   0  0  0  0  0  0  0  0  0  0  0  0
    4.5842    1.7966   22.1834 C   0  0  0  0  0  0  0  0  0  0  0  0
    5.2278    2.2495   23.9140 Br  0  0  0  0  0  0  0  0  0  0  0  0
    3.6057    0.8552   22.0012 C   0  0  0  0  0  0  0  0  0  0  0  0
    3.2555    0.5738   20.8142 N   0  0  0  0  0  0  0  0  0  0  0  0
  7  8  1  0  0  0
  8  9  2  0  0  0
  9 10  1  0  0  0
 10 11  2  0  0  0
 11  1  1  0  0  0
  1  2  1  0  0  0
  2 14  1  0  0  0
 14 16  1  0  0  0
 16 17  2  0  0  0
 16 18  2  0  0  0
 16 19  1  0  0  0
 19 20  2  0  0  0
 20 21  1  0  0  0
 21 22  2  0  0  0
 22 23  1  0  0  0
 22 24  1  0  0  0
 24 25  2  0  0  0
  2  3  2  0  0  0
  3  4  1  0  0  0
  4  5  2  0  0  0
  5  6  1  0  0  0
  6 26  1  0  0  0
 26 27  1  0  0  0
 27 28  1  0  0  0
 28 29  1  0  0  0
 29 30  1  0  0  0
 30 31  2  0  0  0
 31 32  1  0  0  0
 32 33  2  0  0  0
 33 34  1  0  0  0
 33 35  1  0  0  0
 35 36  2  0  0  0
 11 12  1  0  0  0
 12 13  2  0  0  0
 13  8  1  0  0  0
  6  1  2  0  0  0
 36 30  1  0  0  0
 25 19  1  0  0  0
 14 15  1  0  0  0
M  END
> <minimizedAffinity>
-6.73686

> <CNNscore>
0.1945986450

> <CNNaffinity>
6.3967599869

> <CNN_VS>
1.2448008060

> <CNNaffinity_variance>
0.3399525285

$$$$
[H]c1nc(OC([H])([H])C([H])([H])Oc2nc([H])c(Br)c([H])n2)c(-c2c([H])c([H])c(C([H])([H])[H])c([H])c2[H])c(N([H])S(=O)(=O)c2c([H])c([H])c(Cl)c([H])c2[H])n1


 36 39  0  0  0  0  0  0  0  0999 V2000
    1.6624    6.6754   12.9343 C   0  0  0  0  0  0  0  0  0  0  0  0
    2.1806    7.5542   12.0475 C   0  0  0  0  0  0  0  0  0  0  0  0
    3.5464    8.0091   12.2781 N   0  0  0  0  0  0  0  0  0  0  0  0
    4.2538    7.5958   13.2881 C   0  0  0  0  0  0  0  0  0  0  0  0
    3.7525    6.7254   14.1727 N   0  0  0  0  0  0  0  0  0  0  0  0
    2.5584    6.2934   14.0385 C   0  0  0  0  0  0  0  0  0  0  0  0
   -3.4743    4.8363   11.3700 C   0  0  0  0  0  0  0  0  0  0  0  0
   -2.1880    5.1868   12.0054 C   0  0  0  0  0  0  0  0  0  0  0  0
   -1.9644    6.3077   12.7112 C   0  0  0  0  0  0  0  0  0  0  0  0
   -0.7608    6.7653   13.1598 C   0  0  0  0  0  0  0  0  0  0  0  0
    0.4058    6.0090   12.8871 C   0  0  0  0  0  0  0  0  0  0  0  0
    0.1975    4.8283   12.1901 C   0  0  0  0  0  0  0  0  0  0  0  0
   -1.0358    4.3562   11.7308 C   0  0  0  0  0  0  0  0  0  0  0  0
    1.4853    8.1044   10.9921 N   0  0  0  0  0  0  0  0  0  0  0  0
    0.8649    8.8578   10.9744 H   0  0  0  0  0  0  0  0  0  0  0  0
    1.6939    7.2556    9.4286 S   0  0  0  0  0  0  0  0  0  0  0  0
    1.7369    8.4776    8.4347 O   0  0  0  0  0  0  0  0  0  0  0  0
    3.0487    6.6574    9.3318 O   0  0  0  0  0  0  0  0  0  0  0  0
    0.4206    6.2630    8.9458 C   0  0  0  0  0  0  0  0  0  0  0  0
    0.6362    5.0124    8.5163 C   0  0  0  0  0  0  0  0  0  0  0  0
   -0.2243    4.1257    8.0111 C   0  0  0  0  0  0  0  0  0  0  0  0
   -1.5349    4.5318    7.8839 C   0  0  0  0  0  0  0  0  0  0  0  0
   -2.7705    3.4647    7.2200 Cl  0  0  0  0  0  0  0  0  0  0  0  0
   -1.9393    5.8403    8.2680 C   0  0  0  0  0  0  0  0  0  0  0  0
   -0.9374    6.6883    8.8028 C   0  0  0  0  0  0  0  0  0  0  0  0
    1.9029    5.4623   14.8974 O   0  0  0  0  0  0  0  0  0  0  0  0
    1.9519    5.0412   16.0810 C   0  0  0  0  0  0  0  0  0  0  0  0
    2.7909    4.9510   17.2619 C   0  0  0  0  0  0  0  0  0  0  0  0
    3.2911    5.7913   18.0944 O   0  0  0  0  0  0  0  0  0  0  0  0
    3.7818    6.6279   18.9133 C   0  0  0  0  0  0  0  0  0  0  0  0
    4.4605    6.1205   20.1151 N   0  0  0  0  0  0  0  0  0  0  0  0
    5.0374    6.9183   21.0118 C   0  0  0  0  0  0  0  0  0  0  0  0
    5.0086    8.3059   20.8220 C   0  0  0  0  0  0  0  0  0  0  0  0
    5.7924    9.4427   22.1287 Br  0  0  0  0  0  0  0  0  0  0  0  0
    4.3709    8.8078   19.7182 C   0  0  0  0  0  0  0  0  0  0  0  0
    3.8343    7.9898   18.9098 N   0  0  0  0  0  0  0  0  0  0  0  0
  7  8  1  0  0  0
  8  9  2  0  0  0
  9 10  1  0  0  0
 10 11  2  0  0  0
 11  1  1  0  0  0
  1  2  1  0  0  0
  2 14  1  0  0  0
 14 16  1  0  0  0
 16 17  2  0  0  0
 16 18  2  0  0  0
 16 19  1  0  0  0
 19 20  2  0  0  0
 20 21  1  0  0  0
 21 22  2  0  0  0
 22 23  1  0  0  0
 22 24  1  0  0  0
 24 25  2  0  0  0
  2  3  2  0  0  0
  3  4  1  0  0  0
  4  5  2  0  0  0
  5  6  1  0  0  0
  6 26  1  0  0  0
 26 27  1  0  0  0
 27 28  1  0  0  0
 28 29  1  0  0  0
 29 30  1  0  0  0
 30 31  2  0  0  0
 31 32  1  0  0  0
 32 33  2  0  0  0
 33 34  1  0  0  0
 33 35  1  0  0  0
 35 36  2  0  0  0
 11 12  1  0  0  0
 12 13  2  0  0  0
 13  8  1  0  0  0
  6  1  2  0  0  0
 36 30  1  0  0  0
 25 19  1  0  0  0
 14 15  1  0  0  0
M  END
> <minimizedAffinity>
-6.43646

> <CNNscore>
0.1807128787

> <CNNaffinity>
5.6774511337

> <CNN_VS>
1.0259885788

> <CNNaffinity_variance>
0.4561772943

$$$$
[H]c1nc(OC([H])([H])C([H])([H])Oc2nc([H])c(Br)c([H])n2)c(-c2c([H])c([H])c(C([H])([H])[H])c([H])c2[H])c(N([H])S(=O)(=O)c2c([H])c([H])c(Cl)c([H])c2[H])n1


 36 39  0  0  0  0  0  0  0  0999 V2000
    4.1206    3.1661   19.0159 C   0  0  0  0  0  0  0  0  0  0  0  0
    4.0326    2.6069   20.2433 C   0  0  0  0  0  0  0  0  0  0  0  0
    3.7455    1.1789   20.3079 N   0  0  0  0  0  0  0  0  0  0  0  0
    3.5803    0.4558   19.2397 C   0  0  0  0  0  0  0  0  0  0  0  0
    3.6656    0.9974   18.0187 N   0  0  0  0  0  0  0  0  0  0  0  0
    3.9036    2.2450   17.8877 C   0  0  0  0  0  0  0  0  0  0  0  0
    5.5628    8.6502   19.2577 C   0  0  0  0  0  0  0  0  0  0  0  0
    5.1686    7.2647   18.9321 C   0  0  0  0  0  0  0  0  0  0  0  0
    3.9043    6.8107   18.9271 C   0  0  0  0  0  0  0  0  0  0  0  0
    3.5018    5.5128   18.8147 C   0  0  0  0  0  0  0  0  0  0  0  0
    4.4824    4.4998   18.6759 C   0  0  0  0  0  0  0  0  0  0  0  0
    5.7951    4.9459   18.6423 C   0  0  0  0  0  0  0  0  0  0  0  0
    6.2101    6.2763   18.7555 C   0  0  0  0  0  0  0  0  0  0  0  0
    4.1185    3.3034   21.4296 N   0  0  0  0  0  0  0  0  0  0  0  0
    3.4438    3.8316   21.8971 H   0  0  0  0  0  0  0  0  0  0  0  0
    5.7412    3.3017   22.1882 S   0  0  0  0  0  0  0  0  0  0  0  0
    5.3806    2.8422   23.6517 O   0  0  0  0  0  0  0  0  0  0  0  0
    6.5714    2.1946   21.6514 O   0  0  0  0  0  0  0  0  0  0  0  0
    6.5074    4.7977   22.3083 C   0  0  0  0  0  0  0  0  0  0  0  0
    5.8051    5.9339   22.4120 C   0  0  0  0  0  0  0  0  0  0  0  0
    6.2299    7.1994   22.4207 C   0  0  0  0  0  0  0  0  0  0  0  0
    7.5865    7.4023   22.2884 C   0  0  0  0  0  0  0  0  0  0  0  0
    8.2788    9.0230   22.2712 Cl  0  0  0  0  0  0  0  0  0  0  0  0
    8.4823    6.3073   22.1413 C   0  0  0  0  0  0  0  0  0  0  0  0
    7.9140    5.0090   22.1592 C   0  0  0  0  0  0  0  0  0  0  0  0
    3.9493    2.9358   16.7135 O   0  0  0  0  0  0  0  0  0  0  0  0
    3.5458    2.8731   15.5244 C   0  0  0  0  0  0  0  0  0  0  0  0
    2.9829    1.9893   14.5201 C   0  0  0  0  0  0  0  0  0  0  0  0
    2.2992    2.1457   13.4443 O   0  0  0  0  0  0  0  0  0  0  0  0
    1.6187    2.2941   12.3831 C   0  0  0  0  0  0  0  0  0  0  0  0
    0.9096    3.5652   12.1742 N   0  0  0  0  0  0  0  0  0  0  0  0
    0.2015    3.8275   11.0773 C   0  0  0  0  0  0  0  0  0  0  0  0
    0.1147    2.8639   10.0642 C   0  0  0  0  0  0  0  0  0  0  0  0
   -0.9357    3.2246    8.5212 Br  0  0  0  0  0  0  0  0  0  0  0  0
    0.7537    1.6646   10.2376 C   0  0  0  0  0  0  0  0  0  0  0  0
    1.4028    1.4789   11.3123 N   0  0  0  0  0  0  0  0  0  0  0  0
  7  8  1  0  0  0
  8  9  2  0  0  0
  9 10  1  0  0  0
 10 11  2  0  0  0
 11  1  1  0  0  0
  1  2  1  0  0  0
  2 14  1  0  0  0
 14 16  1  0  0  0
 16 17  2  0  0  0
 16 18  2  0  0  0
 16 19  1  0  0  0
 19 20  2  0  0  0
 20 21  1  0  0  0
 21 22  2  0  0  0
 22 23  1  0  0  0
 22 24  1  0  0  0
 24 25  2  0  0  0
  2  3  2  0  0  0
  3  4  1  0  0  0
  4  5  2  0  0  0
  5  6  1  0  0  0
  6 26  1  0  0  0
 26 27  1  0  0  0
 27 28  1  0  0  0
 28 29  1  0  0  0
 29 30  1  0  0  0
 30 31  2  0  0  0
 31 32  1  0  0  0
 32 33  2  0  0  0
 33 34  1  0  0  0
 33 35  1  0  0  0
 35 36  2  0  0  0
 11 12  1  0  0  0
 12 13  2  0  0  0
 13  8  1  0  0  0
  6  1  2  0  0  0
 36 30  1  0  0  0
 25 19  1  0  0  0
 14 15  1  0  0  0
M  END
> <minimizedAffinity>
-7.14262

> <CNNscore>
0.1770039648

> <CNNaffinity>
6.3368911743

> <CNN_VS>
1.1216548681

> <CNNaffinity_variance>
0.6085948348

$$$$
[H]c1nc(OC([H])([H])C([H])([H])Oc2nc([H])c(Br)c([H])n2)c(-c2c([H])c([H])c(C([H])([H])[H])c([H])c2[H])c(N([H])S(=O)(=O)c2c([H])c([H])c(Cl)c([H])c2[H])n1


 36 39  0  0  0  0  0  0  0  0999 V2000
    4.0393    3.4158   16.8196 C   0  0  0  0  0  0  0  0  0  0  0  0
    3.8900    3.1540   15.5019 C   0  0  0  0  0  0  0  0  0  0  0  0
    3.3470    1.8512   15.1369 N   0  0  0  0  0  0  0  0  0  0  0  0
    3.0117    0.9652   16.0280 C   0  0  0  0  0  0  0  0  0  0  0  0
    3.1539    1.2125   17.3357 N   0  0  0  0  0  0  0  0  0  0  0  0
    3.6339    2.3292   17.7269 C   0  0  0  0  0  0  0  0  0  0  0  0
    5.8006    8.7289   17.7592 C   0  0  0  0  0  0  0  0  0  0  0  0
    5.3746    7.3150   17.7775 C   0  0  0  0  0  0  0  0  0  0  0  0
    6.1915    6.2678   17.5762 C   0  0  0  0  0  0  0  0  0  0  0  0
    5.8248    4.9661   17.4019 C   0  0  0  0  0  0  0  0  0  0  0  0
    4.4491    4.6298   17.4389 C   0  0  0  0  0  0  0  0  0  0  0  0
    3.5863    5.6882   17.6810 C   0  0  0  0  0  0  0  0  0  0  0  0
    3.9601    7.0233   17.8620 C   0  0  0  0  0  0  0  0  0  0  0  0
    4.2849    3.9976   14.4859 N   0  0  0  0  0  0  0  0  0  0  0  0
    5.1576    4.3953   14.3043 H   0  0  0  0  0  0  0  0  0  0  0  0
    2.9744    4.5025   13.3740 S   0  0  0  0  0  0  0  0  0  0  0  0
    1.7423    4.5088   14.3562 O   0  0  0  0  0  0  0  0  0  0  0  0
    3.1366    5.9246   12.9814 O   0  0  0  0  0  0  0  0  0  0  0  0
    2.6099    3.4357   12.1215 C   0  0  0  0  0  0  0  0  0  0  0  0
    1.5523    2.6161   12.1898 C   0  0  0  0  0  0  0  0  0  0  0  0
    1.1673    1.6515   11.3511 C   0  0  0  0  0  0  0  0  0  0  0  0
    1.9641    1.4293   10.2490 C   0  0  0  0  0  0  0  0  0  0  0  0
    1.5779    0.1781    9.0694 Cl  0  0  0  0  0  0  0  0  0  0  0  0
    3.1444    2.1922   10.0298 C   0  0  0  0  0  0  0  0  0  0  0  0
    3.4430    3.1970   10.9838 C   0  0  0  0  0  0  0  0  0  0  0  0
    3.8944    2.6846   19.0168 O   0  0  0  0  0  0  0  0  0  0  0  0
    4.8470    2.7859   19.8311 C   0  0  0  0  0  0  0  0  0  0  0  0
    5.4061    3.6081   20.8885 C   0  0  0  0  0  0  0  0  0  0  0  0
    5.7299    4.8448   21.0106 O   0  0  0  0  0  0  0  0  0  0  0  0
    6.0477    6.0670   21.1392 C   0  0  0  0  0  0  0  0  0  0  0  0
    4.9817    7.0484   21.3894 N   0  0  0  0  0  0  0  0  0  0  0  0
    5.2206    8.3454   21.5741 C   0  0  0  0  0  0  0  0  0  0  0  0
    6.5386    8.8181   21.5324 C   0  0  0  0  0  0  0  0  0  0  0  0
    6.8703   10.6773   21.7498 Br  0  0  0  0  0  0  0  0  0  0  0  0
    7.5512    7.9285   21.2871 C   0  0  0  0  0  0  0  0  0  0  0  0
    7.2501    6.7082   21.1108 N   0  0  0  0  0  0  0  0  0  0  0  0
  7  8  1  0  0  0
  8  9  2  0  0  0
  9 10  1  0  0  0
 10 11  2  0  0  0
 11  1  1  0  0  0
  1  2  1  0  0  0
  2 14  1  0  0  0
 14 16  1  0  0  0
 16 17  2  0  0  0
 16 18  2  0  0  0
 16 19  1  0  0  0
 19 20  2  0  0  0
 20 21  1  0  0  0
 21 22  2  0  0  0
 22 23  1  0  0  0
 22 24  1  0  0  0
 24 25  2  0  0  0
  2  3  2  0  0  0
  3  4  1  0  0  0
  4  5  2  0  0  0
  5  6  1  0  0  0
  6 26  1  0  0  0
 26 27  1  0  0  0
 27 28  1  0  0  0
 28 29  1  0  0  0
 29 30  1  0  0  0
 30 31  2  0  0  0
 31 32  1  0  0  0
 32 33  2  0  0  0
 33 34  1  0  0  0
 33 35  1  0  0  0
 35 36  2  0  0  0
 11 12  1  0  0  0
 12 13  2  0  0  0
 13  8  1  0  0  0
  6  1  2  0  0  0
 36 30  1  0  0  0
 25 19  1  0  0  0
 14 15  1  0  0  0
M  END
> <minimizedAffinity>
-7.19409

> <CNNscore>
0.1415746063

> <CNNaffinity>
6.1414704323

> <CNN_VS>
0.8694762588

> <CNNaffinity_variance>
0.5207384825

$$$$
[H]c1nc(OC([H])([H])C([H])([H])Oc2nc([H])c(Br)c([H])n2)c(-c2c([H])c([H])c(C([H])([H])[H])c([H])c2[H])c(N([H])S(=O)(=O)c2c([H])c([H])c(Cl)c([H])c2[H])n1


 36 39  0  0  0  0  0  0  0  0999 V2000
    1.4990    4.4944   11.6478 C   0  0  0  0  0  0  0  0  0  0  0  0
    1.9771    5.0302   10.5027 C   0  0  0  0  0  0  0  0  0  0  0  0
    3.1333    4.3833    9.8942 N   0  0  0  0  0  0  0  0  0  0  0  0
    3.6937    3.3317   10.4153 C   0  0  0  0  0  0  0  0  0  0  0  0
    3.2294    2.7914   11.5484 N   0  0  0  0  0  0  0  0  0  0  0  0
    2.2261    3.3130   12.1415 C   0  0  0  0  0  0  0  0  0  0  0  0
   -2.9402    7.3453   13.7409 C   0  0  0  0  0  0  0  0  0  0  0  0
   -1.8440    6.4226   13.3831 C   0  0  0  0  0  0  0  0  0  0  0  0
   -0.5962    6.4903   13.8760 C   0  0  0  0  0  0  0  0  0  0  0  0
    0.4913    5.7874   13.4487 C   0  0  0  0  0  0  0  0  0  0  0  0
    0.3383    4.8683   12.3816 C   0  0  0  0  0  0  0  0  0  0  0  0
   -0.9487    4.7532   11.8780 C   0  0  0  0  0  0  0  0  0  0  0  0
   -2.0656    5.4714   12.3158 C   0  0  0  0  0  0  0  0  0  0  0  0
    1.4983    6.1824    9.9170 N   0  0  0  0  0  0  0  0  0  0  0  0
    0.7365    6.3131    9.3208 H   0  0  0  0  0  0  0  0  0  0  0  0
    2.4717    7.6514   10.2385 S   0  0  0  0  0  0  0  0  0  0  0  0
    3.7857    7.3140    9.4370 O   0  0  0  0  0  0  0  0  0  0  0  0
    1.9022    8.8248    9.5303 O   0  0  0  0  0  0  0  0  0  0  0  0
    2.9173    7.9115   11.8427 C   0  0  0  0  0  0  0  0  0  0  0  0
    3.9126    7.2176   12.4107 C   0  0  0  0  0  0  0  0  0  0  0  0
    4.3368    7.2187   13.6764 C   0  0  0  0  0  0  0  0  0  0  0  0
    3.6606    8.0321   14.5596 C   0  0  0  0  0  0  0  0  0  0  0  0
    4.1091    8.1185   16.2618 Cl  0  0  0  0  0  0  0  0  0  0  0  0
    2.5577    8.8228   14.1334 C   0  0  0  0  0  0  0  0  0  0  0  0
    2.2082    8.7467   12.7619 C   0  0  0  0  0  0  0  0  0  0  0  0
    1.6953    2.9086   13.3301 O   0  0  0  0  0  0  0  0  0  0  0  0
    1.7941    1.9922   14.1851 C   0  0  0  0  0  0  0  0  0  0  0  0
    2.6380    1.4510   15.2347 C   0  0  0  0  0  0  0  0  0  0  0  0
    3.1143    1.8912   16.3431 O   0  0  0  0  0  0  0  0  0  0  0  0
    3.5920    2.3224   17.4373 C   0  0  0  0  0  0  0  0  0  0  0  0
    4.1367    1.3515   18.3980 N   0  0  0  0  0  0  0  0  0  0  0  0
    4.6913    1.7104   19.5543 C   0  0  0  0  0  0  0  0  0  0  0  0
    4.7701    3.0679   19.8910 C   0  0  0  0  0  0  0  0  0  0  0  0
    5.5200    3.5722   21.5635 Br  0  0  0  0  0  0  0  0  0  0  0  0
    4.2579    3.9942   19.0212 C   0  0  0  0  0  0  0  0  0  0  0  0
    3.7349    3.5806   17.9413 N   0  0  0  0  0  0  0  0  0  0  0  0
  7  8  1  0  0  0
  8  9  2  0  0  0
  9 10  1  0  0  0
 10 11  2  0  0  0
 11  1  1  0  0  0
  1  2  1  0  0  0
  2 14  1  0  0  0
 14 16  1  0  0  0
 16 17  2  0  0  0
 16 18  2  0  0  0
 16 19  1  0  0  0
 19 20  2  0  0  0
 20 21  1  0  0  0
 21 22  2  0  0  0
 22 23  1  0  0  0
 22 24  1  0  0  0
 24 25  2  0  0  0
  2  3  2  0  0  0
  3  4  1  0  0  0
  4  5  2  0  0  0
  5  6  1  0  0  0
  6 26  1  0  0  0
 26 27  1  0  0  0
 27 28  1  0  0  0
 28 29  1  0  0  0
 29 30  1  0  0  0
 30 31  2  0  0  0
 31 32  1  0  0  0
 32 33  2  0  0  0
 33 34  1  0  0  0
 33 35  1  0  0  0
 35 36  2  0  0  0
 11 12  1  0  0  0
 12 13  2  0  0  0
 13  8  1  0  0  0
  6  1  2  0  0  0
 36 30  1  0  0  0
 25 19  1  0  0  0
 14 15  1  0  0  0
M  END
> <minimizedAffinity>
-6.74965

> <CNNscore>
0.1411694735

> <CNNaffinity>
6.0502557755

> <CNN_VS>
0.8541114330

> <CNNaffinity_variance>
0.3039428592

$$$$
[H]c1nc(OC([H])([H])C([H])([H])Oc2nc([H])c(Br)c([H])n2)c(-c2c([H])c([H])c(C([H])([H])[H])c([H])c2[H])c(N([H])S(=O)(=O)c2c([H])c([H])c(Cl)c([H])c2[H])n1


 36 39  0  0  0  0  0  0  0  0999 V2000
    3.8638    6.8552   17.7201 C   0  0  0  0  0  0  0  0  0  0  0  0
    3.7678    7.4020   18.9525 C   0  0  0  0  0  0  0  0  0  0  0  0
    3.8298    8.8556   19.0451 N   0  0  0  0  0  0  0  0  0  0  0  0
    3.9689    9.6120   17.9964 C   0  0  0  0  0  0  0  0  0  0  0  0
    4.0644    9.0829   16.7707 N   0  0  0  0  0  0  0  0  0  0  0  0
    4.0288    7.8159   16.6165 C   0  0  0  0  0  0  0  0  0  0  0  0
    3.1653    2.0525   14.7771 C   0  0  0  0  0  0  0  0  0  0  0  0
    3.3352    3.1441   15.7572 C   0  0  0  0  0  0  0  0  0  0  0  0
    2.3310    3.8743   16.2699 C   0  0  0  0  0  0  0  0  0  0  0  0
    2.4440    5.0011   17.0294 C   0  0  0  0  0  0  0  0  0  0  0  0
    3.7359    5.4876   17.3473 C   0  0  0  0  0  0  0  0  0  0  0  0
    4.7910    4.7313   16.8595 C   0  0  0  0  0  0  0  0  0  0  0  0
    4.6776    3.5745   16.0823 C   0  0  0  0  0  0  0  0  0  0  0  0
    3.6934    6.6820   20.1256 N   0  0  0  0  0  0  0  0  0  0  0  0
    2.9135    6.4049   20.6431 H   0  0  0  0  0  0  0  0  0  0  0  0
    5.2755    6.2580   20.8507 S   0  0  0  0  0  0  0  0  0  0  0  0
    6.2606    6.8625   19.7797 O   0  0  0  0  0  0  0  0  0  0  0  0
    5.5259    7.0618   22.0730 O   0  0  0  0  0  0  0  0  0  0  0  0
    5.6197    4.6130   20.9746 C   0  0  0  0  0  0  0  0  0  0  0  0
    5.1461    3.7330   20.0823 C   0  0  0  0  0  0  0  0  0  0  0  0
    5.2330    2.4009   20.0719 C   0  0  0  0  0  0  0  0  0  0  0  0
    5.8871    1.8108   21.1316 C   0  0  0  0  0  0  0  0  0  0  0  0
    6.0617    0.0609   21.2482 Cl  0  0  0  0  0  0  0  0  0  0  0  0
    6.4327    2.5937   22.1864 C   0  0  0  0  0  0  0  0  0  0  0  0
    6.2882    3.9997   22.0801 C   0  0  0  0  0  0  0  0  0  0  0  0
    4.1820    7.1445   15.4401 O   0  0  0  0  0  0  0  0  0  0  0  0
    4.1774    7.3336   14.1972 C   0  0  0  0  0  0  0  0  0  0  0  0
    3.3229    7.5719   13.0485 C   0  0  0  0  0  0  0  0  0  0  0  0
    3.4768    7.5476   11.7737 O   0  0  0  0  0  0  0  0  0  0  0  0
    3.6217    7.5270   10.5128 C   0  0  0  0  0  0  0  0  0  0  0  0
    2.4191    7.5140    9.6668 N   0  0  0  0  0  0  0  0  0  0  0  0
    2.4698    7.5291    8.3362 C   0  0  0  0  0  0  0  0  0  0  0  0
    3.7136    7.5587    7.6924 C   0  0  0  0  0  0  0  0  0  0  0  0
    3.7817    7.5327    5.7927 Br  0  0  0  0  0  0  0  0  0  0  0  0
    4.8516    7.5572    8.4552 C   0  0  0  0  0  0  0  0  0  0  0  0
    4.7290    7.5324    9.7182 N   0  0  0  0  0  0  0  0  0  0  0  0
  7  8  1  0  0  0
  8  9  2  0  0  0
  9 10  1  0  0  0
 10 11  2  0  0  0
 11  1  1  0  0  0
  1  2  1  0  0  0
  2 14  1  0  0  0
 14 16  1  0  0  0
 16 17  2  0  0  0
 16 18  2  0  0  0
 16 19  1  0  0  0
 19 20  2  0  0  0
 20 21  1  0  0  0
 21 22  2  0  0  0
 22 23  1  0  0  0
 22 24  1  0  0  0
 24 25  2  0  0  0
  2  3  2  0  0  0
  3  4  1  0  0  0
  4  5  2  0  0  0
  5  6  1  0  0  0
  6 26  1  0  0  0
 26 27  1  0  0  0
 27 28  1  0  0  0
 28 29  1  0  0  0
 29 30  1  0  0  0
 30 31  2  0  0  0
 31 32  1  0  0  0
 32 33  2  0  0  0
 33 34  1  0  0  0
 33 35  1  0  0  0
 35 36  2  0  0  0
 11 12  1  0  0  0
 12 13  2  0  0  0
 13  8  1  0  0  0
  6  1  2  0  0  0
 36 30  1  0  0  0
 25 19  1  0  0  0
 14 15  1  0  0  0
M  END
> <minimizedAffinity>
-7.73837

> <CNNscore>
0.1337339580

> <CNNaffinity>
5.7700819969

> <CNN_VS>
0.7716559172

> <CNNaffinity_variance>
0.6687076688

$$$$
[H]c1nc(N([H])[C@@]([H])(c2c([H])c([H])c(Cl)c([H])c2[H])C([H])([H])N([H])C([H])([H])[H])c2nc([H])c([H])c(C(=O)N([H])[H])c2n1


 29 31  0  0  0  0  0  0  0  0999 V2000
    4.1726    2.4971   17.8316 C   0  0  0  0  0  0  0  0  0  0  0  0
    3.7946    1.2274   18.0654 N   0  0  0  0  0  0  0  0  0  0  0  0
    3.1386    0.5033   17.1176 C   0  0  0  0  0  0  0  0  0  0  0  0
    2.8417    1.0302   15.9058 N   0  0  0  0  0  0  0  0  0  0  0  0
    3.1931    2.2826   15.6216 C   0  0  0  0  0  0  0  0  0  0  0  0
    2.8915    2.8203   14.3872 C   0  0  0  0  0  0  0  0  0  0  0  0
    3.2872    4.1213   14.1670 C   0  0  0  0  0  0  0  0  0  0  0  0
    3.9485    4.8339   15.1392 C   0  0  0  0  0  0  0  0  0  0  0  0
    4.2242    4.2775   16.3269 N   0  0  0  0  0  0  0  0  0  0  0  0
    3.8654    3.0219   16.5964 C   0  0  0  0  0  0  0  0  0  0  0  0
    2.1929    2.0766   13.3451 C   0  0  0  0  0  0  0  0  0  0  0  0
    0.8752    1.6453   13.5691 N   0  0  0  0  0  0  0  0  0  0  0  0
    2.7471    1.8089   12.2388 O   0  0  0  0  0  0  0  0  0  0  0  0
    0.6262    0.6796   13.2139 H   0  0  0  0  0  0  0  0  0  0  0  0
    0.1933    2.2480   14.0565 H   0  0  0  0  0  0  0  0  0  0  0  0
    4.8592    3.2388   18.8315 N   0  0  0  0  0  0  0  0  0  0  0  0
    5.8936    3.3563   18.7136 H   0  0  0  0  0  0  0  0  0  0  0  0
    4.1747    3.8126   19.9681 C   0  0  0  0  0  0  0  0  0  0  0  0
    4.6937    3.2443   21.2125 C   0  0  0  0  0  0  0  0  0  0  0  0
    5.7423    2.3532   21.2790 C   0  0  0  0  0  0  0  0  0  0  0  0
    6.1935    1.8474   22.4796 C   0  0  0  0  0  0  0  0  0  0  0  0
    5.5946    2.2296   23.6575 C   0  0  0  0  0  0  0  0  0  0  0  0
    6.1674    1.5867   25.1900 Cl  0  0  0  0  0  0  0  0  0  0  0  0
    4.5413    3.1221   23.6178 C   0  0  0  0  0  0  0  0  0  0  0  0
    4.1126    3.6097   22.4078 C   0  0  0  0  0  0  0  0  0  0  0  0
    4.2552    5.3167   19.8852 C   0  0  0  0  0  0  0  0  0  0  0  0
    3.7744    7.1782   18.4318 C   0  0  0  0  0  0  0  0  0  0  0  0
    3.3804    5.8880   18.9117 N   0  0  0  0  0  0  0  0  0  0  0  0
    3.3002    5.2461   18.1129 H   0  0  0  0  0  0  0  0  0  0  0  0
 27 28  1  0  0  0
 28 26  1  0  0  0
 26 18  1  0  0  0
 18 16  1  0  0  0
 16  1  1  0  0  0
  1  2  2  0  0  0
  2  3  1  0  0  0
  3  4  2  0  0  0
  4  5  1  0  0  0
  5  6  2  0  0  0
  6 11  1  0  0  0
 11 12  1  0  0  0
 11 13  2  0  0  0
  6  7  1  0  0  0
  7  8  2  0  0  0
  8  9  1  0  0  0
  9 10  2  0  0  0
 18 19  1  0  0  0
 19 20  2  0  0  0
 20 21  1  0  0  0
 21 22  2  0  0  0
 22 23  1  0  0  0
 22 24  1  0  0  0
 24 25  2  0  0  0
 10  1  1  0  0  0
 25 19  1  0  0  0
 10  5  1  0  0  0
 28 29  1  0  0  0
 16 17  1  0  0  0
 12 14  1  0  0  0
 12 15  1  0  0  0
M  END
> <minimizedAffinity>
-7.66636

> <CNNscore>
0.6967731118

> <CNNaffinity>
6.4978971481

> <CNN_VS>
4.5275602341

> <CNNaffinity_variance>
0.6481296420

$$$$
[H]c1nc(N([H])[C@@]([H])(c2c([H])c([H])c(Cl)c([H])c2[H])C([H])([H])N([H])C([H])([H])[H])c2nc([H])c([H])c(C(=O)N([H])[H])c2n1


 29 31  0  0  0  0  0  0  0  0999 V2000
    5.0474    2.9296   20.7312 C   0  0  0  0  0  0  0  0  0  0  0  0
    4.4528    2.0804   21.5884 N   0  0  0  0  0  0  0  0  0  0  0  0
    3.6473    1.0786   21.1406 C   0  0  0  0  0  0  0  0  0  0  0  0
    3.4134    0.8974   19.8190 N   0  0  0  0  0  0  0  0  0  0  0  0
    3.9772    1.7094   18.9269 C   0  0  0  0  0  0  0  0  0  0  0  0
    3.7399    1.5255   17.5802 C   0  0  0  0  0  0  0  0  0  0  0  0
    4.3579    2.4048   16.7186 C   0  0  0  0  0  0  0  0  0  0  0  0
    5.1673    3.4096   17.1935 C   0  0  0  0  0  0  0  0  0  0  0  0
    5.3744    3.5570   18.5094 N   0  0  0  0  0  0  0  0  0  0  0  0
    4.8023    2.7356   19.3903 C   0  0  0  0  0  0  0  0  0  0  0  0
    2.8860    0.4632   17.0610 C   0  0  0  0  0  0  0  0  0  0  0  0
    1.8584    0.7817   16.1582 N   0  0  0  0  0  0  0  0  0  0  0  0
    3.0487   -0.7441   17.4053 O   0  0  0  0  0  0  0  0  0  0  0  0
    0.9409    0.2689   16.2850 H   0  0  0  0  0  0  0  0  0  0  0  0
    2.0022    1.4819   15.4133 H   0  0  0  0  0  0  0  0  0  0  0  0
    5.8878    3.9692   21.2153 N   0  0  0  0  0  0  0  0  0  0  0  0
    6.9123    3.8899   21.0106 H   0  0  0  0  0  0  0  0  0  0  0  0
    5.3674    5.0939   21.9594 C   0  0  0  0  0  0  0  0  0  0  0  0
    6.4388    6.0451   22.2563 C   0  0  0  0  0  0  0  0  0  0  0  0
    7.7819    5.7497   22.1726 C   0  0  0  0  0  0  0  0  0  0  0  0
    8.7529    6.6844   22.4633 C   0  0  0  0  0  0  0  0  0  0  0  0
    8.3934    7.9546   22.8502 C   0  0  0  0  0  0  0  0  0  0  0  0
    9.6287    9.1487   23.2215 Cl  0  0  0  0  0  0  0  0  0  0  0  0
    7.0532    8.2758   22.9417 C   0  0  0  0  0  0  0  0  0  0  0  0
    6.1076    7.3249   22.6462 C   0  0  0  0  0  0  0  0  0  0  0  0
    4.1974    5.6824   21.2109 C   0  0  0  0  0  0  0  0  0  0  0  0
    3.4572    6.4516   19.0500 C   0  0  0  0  0  0  0  0  0  0  0  0
    4.5503    6.2658   19.9561 N   0  0  0  0  0  0  0  0  0  0  0  0
    5.0028    7.1736   20.1221 H   0  0  0  0  0  0  0  0  0  0  0  0
 27 28  1  0  0  0
 28 26  1  0  0  0
 26 18  1  0  0  0
 18 16  1  0  0  0
 16  1  1  0  0  0
  1  2  2  0  0  0
  2  3  1  0  0  0
  3  4  2  0  0  0
  4  5  1  0  0  0
  5  6  2  0  0  0
  6 11  1  0  0  0
 11 12  1  0  0  0
 11 13  2  0  0  0
  6  7  1  0  0  0
  7  8  2  0  0  0
  8  9  1  0  0  0
  9 10  2  0  0  0
 18 19  1  0  0  0
 19 20  2  0  0  0
 20 21  1  0  0  0
 21 22  2  0  0  0
 22 23  1  0  0  0
 22 24  1  0  0  0
 24 25  2  0  0  0
 10  1  1  0  0  0
 25 19  1  0  0  0
 10  5  1  0  0  0
 28 29  1  0  0  0
 16 17  1  0  0  0
 12 14  1  0  0  0
 12 15  1  0  0  0
M  END
> <minimizedAffinity>
-7.06677

> <CNNscore>
0.4669647515

> <CNNaffinity>
6.1758527756

> <CNN_VS>
2.8839056492

> <CNNaffinity_variance>
0.5182309747

$$$$
[H]c1nc(N([H])[C@@]([H])(c2c([H])c([H])c(Cl)c([H])c2[H])C([H])([H])N([H])C([H])([H])[H])c2nc([H])c([H])c(C(=O)N([H])[H])c2n1


 29 31  0  0  0  0  0  0  0  0999 V2000
    4.2847    2.9428   17.0004 C   0  0  0  0  0  0  0  0  0  0  0  0
    3.6526    1.8766   16.4775 N   0  0  0  0  0  0  0  0  0  0  0  0
    3.2201    0.8575   17.2695 C   0  0  0  0  0  0  0  0  0  0  0  0
    3.4080    0.8762   18.6106 N   0  0  0  0  0  0  0  0  0  0  0  0
    4.0276    1.9079   19.1804 C   0  0  0  0  0  0  0  0  0  0  0  0
    4.2192    1.9282   20.5467 C   0  0  0  0  0  0  0  0  0  0  0  0
    4.8678    3.0284   21.0629 C   0  0  0  0  0  0  0  0  0  0  0  0
    5.2963    4.0461   20.2438 C   0  0  0  0  0  0  0  0  0  0  0  0
    5.0920    3.9911   18.9203 N   0  0  0  0  0  0  0  0  0  0  0  0
    4.4698    2.9508   18.3647 C   0  0  0  0  0  0  0  0  0  0  0  0
    3.7686    0.8579   21.4288 C   0  0  0  0  0  0  0  0  0  0  0  0
    4.0561   -0.4768   21.0990 N   0  0  0  0  0  0  0  0  0  0  0  0
    3.1218    1.1027   22.4893 O   0  0  0  0  0  0  0  0  0  0  0  0
    3.2900   -1.1847   21.2794 H   0  0  0  0  0  0  0  0  0  0  0  0
    4.9713   -0.7415   20.7013 H   0  0  0  0  0  0  0  0  0  0  0  0
    4.7280    4.0000   16.1594 N   0  0  0  0  0  0  0  0  0  0  0  0
    5.7402    4.0027   15.8886 H   0  0  0  0  0  0  0  0  0  0  0  0
    3.8342    5.0343   15.6898 C   0  0  0  0  0  0  0  0  0  0  0  0
    3.2072    4.6299   14.4312 C   0  0  0  0  0  0  0  0  0  0  0  0
    1.8601    4.7432   14.1654 C   0  0  0  0  0  0  0  0  0  0  0  0
    1.3193    4.3471   12.9606 C   0  0  0  0  0  0  0  0  0  0  0  0
    2.1292    3.8208   11.9812 C   0  0  0  0  0  0  0  0  0  0  0  0
    1.4431    3.3148   10.4439 Cl  0  0  0  0  0  0  0  0  0  0  0  0
    3.4834    3.6968   12.2229 C   0  0  0  0  0  0  0  0  0  0  0  0
    3.9947    4.0994   13.4321 C   0  0  0  0  0  0  0  0  0  0  0  0
    2.8624    5.3838   16.7894 C   0  0  0  0  0  0  0  0  0  0  0  0
    4.1967    7.3692   17.0834 C   0  0  0  0  0  0  0  0  0  0  0  0
    3.3400    6.3907   17.6824 N   0  0  0  0  0  0  0  0  0  0  0  0
    2.5376    6.8689   18.1113 H   0  0  0  0  0  0  0  0  0  0  0  0
 27 28  1  0  0  0
 28 26  1  0  0  0
 26 18  1  0  0  0
 18 16  1  0  0  0
 16  1  1  0  0  0
  1  2  2  0  0  0
  2  3  1  0  0  0
  3  4  2  0  0  0
  4  5  1  0  0  0
  5  6  2  0  0  0
  6 11  1  0  0  0
 11 12  1  0  0  0
 11 13  2  0  0  0
  6  7  1  0  0  0
  7  8  2  0  0  0
  8  9  1  0  0  0
  9 10  2  0  0  0
 18 19  1  0  0  0
 19 20  2  0  0  0
 20 21  1  0  0  0
 21 22  2  0  0  0
 22 23  1  0  0  0
 22 24  1  0  0  0
 24 25  2  0  0  0
 10  1  1  0  0  0
 25 19  1  0  0  0
 10  5  1  0  0  0
 28 29  1  0  0  0
 16 17  1  0  0  0
 12 14  1  0  0  0
 12 15  1  0  0  0
M  END
> <minimizedAffinity>
-6.55396

> <CNNscore>
0.4505343735

> <CNNaffinity>
6.1411037445

> <CNN_VS>
2.7667782307

> <CNNaffinity_variance>
0.3994577527

$$$$
[H]c1nc(N([H])[C@@]([H])(c2c([H])c([H])c(Cl)c([H])c2[H])C([H])([H])N([H])C([H])([H])[H])c2nc([H])c([H])c(C(=O)N([H])[H])c2n1


 29 31  0  0  0  0  0  0  0  0999 V2000
    4.1313    3.1958   17.1903 C   0  0  0  0  0  0  0  0  0  0  0  0
    3.4551    2.2240   16.5516 N   0  0  0  0  0  0  0  0  0  0  0  0
    3.0379    1.1082   17.2102 C   0  0  0  0  0  0  0  0  0  0  0  0
    3.2858    0.9326   18.5301 N   0  0  0  0  0  0  0  0  0  0  0  0
    3.9510    1.8637   19.2108 C   0  0  0  0  0  0  0  0  0  0  0  0
    4.2037    1.6860   20.5556 C   0  0  0  0  0  0  0  0  0  0  0  0
    4.8969    2.6922   21.1918 C   0  0  0  0  0  0  0  0  0  0  0  0
    5.3089    3.8105   20.5063 C   0  0  0  0  0  0  0  0  0  0  0  0
    5.0446    3.9479   19.1995 N   0  0  0  0  0  0  0  0  0  0  0  0
    4.3773    3.0063   18.5316 C   0  0  0  0  0  0  0  0  0  0  0  0
    3.7714    0.5069   21.2969 C   0  0  0  0  0  0  0  0  0  0  0  0
    4.0417   -0.7713   20.7813 N   0  0  0  0  0  0  0  0  0  0  0  0
    3.1558    0.6070   22.3986 O   0  0  0  0  0  0  0  0  0  0  0  0
    3.2767   -1.4956   20.8857 H   0  0  0  0  0  0  0  0  0  0  0  0
    4.9439   -0.9816   20.3256 H   0  0  0  0  0  0  0  0  0  0  0  0
    4.5580    4.3561   16.4882 N   0  0  0  0  0  0  0  0  0  0  0  0
    5.4972    4.3164   16.0255 H   0  0  0  0  0  0  0  0  0  0  0  0
    3.7435    5.5475   16.4066 C   0  0  0  0  0  0  0  0  0  0  0  0
    4.2765    6.5876   17.2871 C   0  0  0  0  0  0  0  0  0  0  0  0
    3.6387    7.0458   18.4190 C   0  0  0  0  0  0  0  0  0  0  0  0
    4.1856    8.0290   19.2159 C   0  0  0  0  0  0  0  0  0  0  0  0
    5.4020    8.5828   18.8905 C   0  0  0  0  0  0  0  0  0  0  0  0
    6.1023    9.8366   19.9042 Cl  0  0  0  0  0  0  0  0  0  0  0  0
    6.0619    8.1405   17.7606 C   0  0  0  0  0  0  0  0  0  0  0  0
    5.4935    7.1600   16.9853 C   0  0  0  0  0  0  0  0  0  0  0  0
    3.6121    5.9579   14.9609 C   0  0  0  0  0  0  0  0  0  0  0  0
    2.8762    8.1278   14.2135 C   0  0  0  0  0  0  0  0  0  0  0  0
    2.5131    6.8340   14.7080 N   0  0  0  0  0  0  0  0  0  0  0  0
    1.8746    6.3884   14.0370 H   0  0  0  0  0  0  0  0  0  0  0  0
 27 28  1  0  0  0
 28 26  1  0  0  0
 26 18  1  0  0  0
 18 16  1  0  0  0
 16  1  1  0  0  0
  1  2  2  0  0  0
  2  3  1  0  0  0
  3  4  2  0  0  0
  4  5  1  0  0  0
  5  6  2  0  0  0
  6 11  1  0  0  0
 11 12  1  0  0  0
 11 13  2  0  0  0
  6  7  1  0  0  0
  7  8  2  0  0  0
  8  9  1  0  0  0
  9 10  2  0  0  0
 18 19  1  0  0  0
 19 20  2  0  0  0
 20 21  1  0  0  0
 21 22  2  0  0  0
 22 23  1  0  0  0
 22 24  1  0  0  0
 24 25  2  0  0  0
 10  1  1  0  0  0
 25 19  1  0  0  0
 10  5  1  0  0  0
 28 29  1  0  0  0
 16 17  1  0  0  0
 12 14  1  0  0  0
 12 15  1  0  0  0
M  END
> <minimizedAffinity>
-6.20670

> <CNNscore>
0.4207285345

> <CNNaffinity>
5.9502277374

> <CNN_VS>
2.5034306049

> <CNNaffinity_variance>
0.5158533454

$$$$
[H]c1nc(N([H])[C@@]([H])(c2c([H])c([H])c(Cl)c([H])c2[H])C([H])([H])N([H])C([H])([H])[H])c2nc([H])c([H])c(C(=O)N([H])[H])c2n1


 29 31  0  0  0  0  0  0  0  0999 V2000
    4.8097    4.9695   17.6817 C   0  0  0  0  0  0  0  0  0  0  0  0
    4.3861    5.2641   16.4394 N   0  0  0  0  0  0  0  0  0  0  0  0
    3.7041    4.3515   15.6942 C   0  0  0  0  0  0  0  0  0  0  0  0
    3.4257    3.1153   16.1722 N   0  0  0  0  0  0  0  0  0  0  0  0
    3.8215    2.7714   17.3961 C   0  0  0  0  0  0  0  0  0  0  0  0
    3.5380    1.5124   17.8842 C   0  0  0  0  0  0  0  0  0  0  0  0
    3.9797    1.2301   19.1581 C   0  0  0  0  0  0  0  0  0  0  0  0
    4.6670    2.1674   19.8925 C   0  0  0  0  0  0  0  0  0  0  0  0
    4.9238    3.3807   19.3845 N   0  0  0  0  0  0  0  0  0  0  0  0
    4.5208    3.7100   18.1569 C   0  0  0  0  0  0  0  0  0  0  0  0
    2.8080    0.5084   17.1185 C   0  0  0  0  0  0  0  0  0  0  0  0
    2.3240    0.8313   15.8401 N   0  0  0  0  0  0  0  0  0  0  0  0
    2.5988   -0.6520   17.5794 O   0  0  0  0  0  0  0  0  0  0  0  0
    1.3635    0.4629   15.5905 H   0  0  0  0  0  0  0  0  0  0  0  0
    2.8854    1.3998   15.1863 H   0  0  0  0  0  0  0  0  0  0  0  0
    5.5187    5.9348   18.4477 N   0  0  0  0  0  0  0  0  0  0  0  0
    6.5338    5.7492   18.6291 H   0  0  0  0  0  0  0  0  0  0  0  0
    4.8816    7.1262   18.9617 C   0  0  0  0  0  0  0  0  0  0  0  0
    5.4514    7.4860   20.2605 C   0  0  0  0  0  0  0  0  0  0  0  0
    5.1754    8.6584   20.9294 C   0  0  0  0  0  0  0  0  0  0  0  0
    5.7395    8.9490   22.1534 C   0  0  0  0  0  0  0  0  0  0  0  0
    6.6057    8.0575   22.7424 C   0  0  0  0  0  0  0  0  0  0  0  0
    7.3268    8.4248   24.3029 Cl  0  0  0  0  0  0  0  0  0  0  0  0
    6.8987    6.8746   22.0922 C   0  0  0  0  0  0  0  0  0  0  0  0
    6.3224    6.6114   20.8739 C   0  0  0  0  0  0  0  0  0  0  0  0
    4.9584    8.2154   17.9209 C   0  0  0  0  0  0  0  0  0  0  0  0
    3.9526    8.9900   15.8722 C   0  0  0  0  0  0  0  0  0  0  0  0
    3.7698    8.3528   17.1414 N   0  0  0  0  0  0  0  0  0  0  0  0
    3.3564    7.4238   16.9909 H   0  0  0  0  0  0  0  0  0  0  0  0
 27 28  1  0  0  0
 28 26  1  0  0  0
 26 18  1  0  0  0
 18 16  1  0  0  0
 16  1  1  0  0  0
  1  2  2  0  0  0
  2  3  1  0  0  0
  3  4  2  0  0  0
  4  5  1  0  0  0
  5  6  2  0  0  0
  6 11  1  0  0  0
 11 12  1  0  0  0
 11 13  2  0  0  0
  6  7  1  0  0  0
  7  8  2  0  0  0
  8  9  1  0  0  0
  9 10  2  0  0  0
 18 19  1  0  0  0
 19 20  2  0  0  0
 20 21  1  0  0  0
 21 22  2  0  0  0
 22 23  1  0  0  0
 22 24  1  0  0  0
 24 25  2  0  0  0
 10  1  1  0  0  0
 25 19  1  0  0  0
 10  5  1  0  0  0
 28 29  1  0  0  0
 16 17  1  0  0  0
 12 14  1  0  0  0
 12 15  1  0  0  0
M  END
> <minimizedAffinity>
-7.04944

> <CNNscore>
0.4180871844

> <CNNaffinity>
5.8046464920

> <CNN_VS>
2.4268484116

> <CNNaffinity_variance>
0.5384368300

$$$$
[H]c1nc(N([H])[C@@]([H])(c2c([H])c([H])c(Cl)c([H])c2[H])C([H])([H])N([H])C([H])([H])[H])c2nc([H])c([H])c(C(=O)N([H])[H])c2n1


 29 31  0  0  0  0  0  0  0  0999 V2000
    4.9965    3.8744   18.8006 C   0  0  0  0  0  0  0  0  0  0  0  0
    5.5646    5.0330   19.1809 N   0  0  0  0  0  0  0  0  0  0  0  0
    5.7170    5.3423   20.4978 C   0  0  0  0  0  0  0  0  0  0  0  0
    5.3045    4.4991   21.4740 N   0  0  0  0  0  0  0  0  0  0  0  0
    4.7359    3.3386   21.1532 C   0  0  0  0  0  0  0  0  0  0  0  0
    4.3157    2.4786   22.1469 C   0  0  0  0  0  0  0  0  0  0  0  0
    3.7369    1.2975   21.7374 C   0  0  0  0  0  0  0  0  0  0  0  0
    3.5930    1.0060   20.4015 C   0  0  0  0  0  0  0  0  0  0  0  0
    4.0137    1.8668   19.4643 N   0  0  0  0  0  0  0  0  0  0  0  0
    4.5812    3.0253   19.8017 C   0  0  0  0  0  0  0  0  0  0  0  0
    4.4635    2.7724   23.5678 C   0  0  0  0  0  0  0  0  0  0  0  0
    4.0513    4.0208   24.0620 N   0  0  0  0  0  0  0  0  0  0  0  0
    4.9563    1.9264   24.3705 O   0  0  0  0  0  0  0  0  0  0  0  0
    4.6720    4.4691   24.7930 H   0  0  0  0  0  0  0  0  0  0  0  0
    3.1855    4.4685   23.7218 H   0  0  0  0  0  0  0  0  0  0  0  0
    4.8470    3.5654   17.4209 N   0  0  0  0  0  0  0  0  0  0  0  0
    5.2377    2.6509   17.0909 H   0  0  0  0  0  0  0  0  0  0  0  0
    4.1873    4.4631   16.4998 C   0  0  0  0  0  0  0  0  0  0  0  0
    3.7422    3.7339   15.3119 C   0  0  0  0  0  0  0  0  0  0  0  0
    3.2465    2.4486   15.3327 C   0  0  0  0  0  0  0  0  0  0  0  0
    2.8395    1.8061   14.1827 C   0  0  0  0  0  0  0  0  0  0  0  0
    2.9217    2.4475   12.9686 C   0  0  0  0  0  0  0  0  0  0  0  0
    2.4037    1.6313   11.5005 Cl  0  0  0  0  0  0  0  0  0  0  0  0
    3.4151    3.7367   12.9210 C   0  0  0  0  0  0  0  0  0  0  0  0
    3.8133    4.3523   14.0822 C   0  0  0  0  0  0  0  0  0  0  0  0
    3.0918    5.2010   17.2286 C   0  0  0  0  0  0  0  0  0  0  0  0
    4.2271    7.1889   16.4750 C   0  0  0  0  0  0  0  0  0  0  0  0
    3.3788    6.5814   17.4555 N   0  0  0  0  0  0  0  0  0  0  0  0
    2.4959    7.1057   17.5025 H   0  0  0  0  0  0  0  0  0  0  0  0
 27 28  1  0  0  0
 28 26  1  0  0  0
 26 18  1  0  0  0
 18 16  1  0  0  0
 16  1  1  0  0  0
  1  2  2  0  0  0
  2  3  1  0  0  0
  3  4  2  0  0  0
  4  5  1  0  0  0
  5  6  2  0  0  0
  6 11  1  0  0  0
 11 12  1  0  0  0
 11 13  2  0  0  0
  6  7  1  0  0  0
  7  8  2  0  0  0
  8  9  1  0  0  0
  9 10  2  0  0  0
 18 19  1  0  0  0
 19 20  2  0  0  0
 20 21  1  0  0  0
 21 22  2  0  0  0
 22 23  1  0  0  0
 22 24  1  0  0  0
 24 25  2  0  0  0
 10  1  1  0  0  0
 25 19  1  0  0  0
 10  5  1  0  0  0
 28 29  1  0  0  0
 16 17  1  0  0  0
 12 14  1  0  0  0
 12 15  1  0  0  0
M  END
> <minimizedAffinity>
-7.42506

> <CNNscore>
0.3683658242

> <CNNaffinity>
6.2569694519

> <CNN_VS>
2.3048536777

> <CNNaffinity_variance>
0.4973339438

$$$$
[H]c1nc(N([H])[C@@]([H])(c2c([H])c([H])c(Cl)c([H])c2[H])C([H])([H])N([H])C([H])([H])[H])c2nc([H])c([H])c(C(=O)N([H])[H])c2n1


 29 31  0  0  0  0  0  0  0  0999 V2000
    4.8742    3.7569   18.3289 C   0  0  0  0  0  0  0  0  0  0  0  0
    4.6781    3.1596   17.1396 N   0  0  0  0  0  0  0  0  0  0  0  0
    4.1792    1.8955   17.0614 C   0  0  0  0  0  0  0  0  0  0  0  0
    3.8613    1.1913   18.1737 N   0  0  0  0  0  0  0  0  0  0  0  0
    4.0353    1.7350   19.3767 C   0  0  0  0  0  0  0  0  0  0  0  0
    3.7113    1.0187   20.5106 C   0  0  0  0  0  0  0  0  0  0  0  0
    3.9189    1.6475   21.7185 C   0  0  0  0  0  0  0  0  0  0  0  0
    4.4242    2.9250   21.7735 C   0  0  0  0  0  0  0  0  0  0  0  0
    4.7273    3.5898   20.6500 N   0  0  0  0  0  0  0  0  0  0  0  0
    4.5474    3.0314   19.4525 C   0  0  0  0  0  0  0  0  0  0  0  0
    3.1724   -0.3359   20.4685 C   0  0  0  0  0  0  0  0  0  0  0  0
    2.1423   -0.6421   19.5641 N   0  0  0  0  0  0  0  0  0  0  0  0
    3.6118   -1.2467   21.2302 O   0  0  0  0  0  0  0  0  0  0  0  0
    1.3751   -1.2796   19.9186 H   0  0  0  0  0  0  0  0  0  0  0  0
    2.1441   -0.2588   18.6056 H   0  0  0  0  0  0  0  0  0  0  0  0
    5.3939    5.0787   18.3930 N   0  0  0  0  0  0  0  0  0  0  0  0
    6.4340    5.1870   18.3268 H   0  0  0  0  0  0  0  0  0  0  0  0
    4.5384    6.2340   18.5431 C   0  0  0  0  0  0  0  0  0  0  0  0
    5.0109    7.0758   19.6427 C   0  0  0  0  0  0  0  0  0  0  0  0
    6.0546    6.7440   20.4787 C   0  0  0  0  0  0  0  0  0  0  0  0
    6.4612    7.5747   21.5012 C   0  0  0  0  0  0  0  0  0  0  0  0
    5.8211    8.7740   21.7112 C   0  0  0  0  0  0  0  0  0  0  0  0
    6.3370    9.8355   23.0139 Cl  0  0  0  0  0  0  0  0  0  0  0  0
    4.7718    9.1298   20.8865 C   0  0  0  0  0  0  0  0  0  0  0  0
    4.3879    8.2829   19.8760 C   0  0  0  0  0  0  0  0  0  0  0  0
    4.4274    6.9421   17.2157 C   0  0  0  0  0  0  0  0  0  0  0  0
    3.6043    6.1009   15.1124 C   0  0  0  0  0  0  0  0  0  0  0  0
    3.2976    6.5397   16.4404 N   0  0  0  0  0  0  0  0  0  0  0  0
    2.8016    5.7865   16.9335 H   0  0  0  0  0  0  0  0  0  0  0  0
 27 28  1  0  0  0
 28 26  1  0  0  0
 26 18  1  0  0  0
 18 16  1  0  0  0
 16  1  1  0  0  0
  1  2  2  0  0  0
  2  3  1  0  0  0
  3  4  2  0  0  0
  4  5  1  0  0  0
  5  6  2  0  0  0
  6 11  1  0  0  0
 11 12  1  0  0  0
 11 13  2  0  0  0
  6  7  1  0  0  0
  7  8  2  0  0  0
  8  9  1  0  0  0
  9 10  2  0  0  0
 18 19  1  0  0  0
 19 20  2  0  0  0
 20 21  1  0  0  0
 21 22  2  0  0  0
 22 23  1  0  0  0
 22 24  1  0  0  0
 24 25  2  0  0  0
 10  1  1  0  0  0
 25 19  1  0  0  0
 10  5  1  0  0  0
 28 29  1  0  0  0
 16 17  1  0  0  0
 12 14  1  0  0  0
 12 15  1  0  0  0
M  END
> <minimizedAffinity>
-7.29359

> <CNNscore>
0.2967483699

> <CNNaffinity>
5.8480224609

> <CNN_VS>
1.7353911400

> <CNNaffinity_variance>
0.5047821999

$$$$
[H]c1nc(N([H])[C@@]([H])(c2c([H])c([H])c(Cl)c([H])c2[H])C([H])([H])N([H])C([H])([H])[H])c2nc([H])c([H])c(C(=O)N([H])[H])c2n1


 29 31  0  0  0  0  0  0  0  0999 V2000
    3.4806    1.4928   16.8916 C   0  0  0  0  0  0  0  0  0  0  0  0
    2.8120    0.3459   17.1091 N   0  0  0  0  0  0  0  0  0  0  0  0
    2.7053   -0.1792   18.3604 C   0  0  0  0  0  0  0  0  0  0  0  0
    3.2656    0.4299   19.4325 N   0  0  0  0  0  0  0  0  0  0  0  0
    3.9385    1.5678   19.2737 C   0  0  0  0  0  0  0  0  0  0  0  0
    4.5094    2.1894   20.3652 C   0  0  0  0  0  0  0  0  0  0  0  0
    5.1893    3.3626   20.1220 C   0  0  0  0  0  0  0  0  0  0  0  0
    5.2845    3.8744   18.8496 C   0  0  0  0  0  0  0  0  0  0  0  0
    4.7164    3.2420   17.8135 N   0  0  0  0  0  0  0  0  0  0  0  0
    4.0458    2.1029   17.9888 C   0  0  0  0  0  0  0  0  0  0  0  0
    4.4151    1.6604   21.7210 C   0  0  0  0  0  0  0  0  0  0  0  0
    3.1653    1.2599   22.2213 N   0  0  0  0  0  0  0  0  0  0  0  0
    5.4362    1.5525   22.4616 O   0  0  0  0  0  0  0  0  0  0  0  0
    2.9607    1.5003   23.2318 H   0  0  0  0  0  0  0  0  0  0  0  0
    2.4890    0.7579   21.6244 H   0  0  0  0  0  0  0  0  0  0  0  0
    3.5807    2.0291   15.5787 N   0  0  0  0  0  0  0  0  0  0  0  0
    4.4876    1.8888   15.0730 H   0  0  0  0  0  0  0  0  0  0  0  0
    2.4882    2.7402   14.9540 C   0  0  0  0  0  0  0  0  0  0  0  0
    2.9159    4.0831   14.5610 C   0  0  0  0  0  0  0  0  0  0  0  0
    3.5755    4.3733   13.3867 C   0  0  0  0  0  0  0  0  0  0  0  0
    3.9565    5.6583   13.0634 C   0  0  0  0  0  0  0  0  0  0  0  0
    3.6805    6.6961   13.9230 C   0  0  0  0  0  0  0  0  0  0  0  0
    4.1648    8.3356   13.5141 Cl  0  0  0  0  0  0  0  0  0  0  0  0
    3.0199    6.4315   15.1068 C   0  0  0  0  0  0  0  0  0  0  0  0
    2.6524    5.1419   15.4031 C   0  0  0  0  0  0  0  0  0  0  0  0
    1.9354    1.9041   13.8266 C   0  0  0  0  0  0  0  0  0  0  0  0
    0.4062    3.0851   12.3859 C   0  0  0  0  0  0  0  0  0  0  0  0
    0.5775    2.2021   13.5001 N   0  0  0  0  0  0  0  0  0  0  0  0
    0.0765    1.3250   13.3097 H   0  0  0  0  0  0  0  0  0  0  0  0
 27 28  1  0  0  0
 28 26  1  0  0  0
 26 18  1  0  0  0
 18 16  1  0  0  0
 16  1  1  0  0  0
  1  2  2  0  0  0
  2  3  1  0  0  0
  3  4  2  0  0  0
  4  5  1  0  0  0
  5  6  2  0  0  0
  6 11  1  0  0  0
 11 12  1  0  0  0
 11 13  2  0  0  0
  6  7  1  0  0  0
  7  8  2  0  0  0
  8  9  1  0  0  0
  9 10  2  0  0  0
 18 19  1  0  0  0
 19 20  2  0  0  0
 20 21  1  0  0  0
 21 22  2  0  0  0
 22 23  1  0  0  0
 22 24  1  0  0  0
 24 25  2  0  0  0
 10  1  1  0  0  0
 25 19  1  0  0  0
 10  5  1  0  0  0
 28 29  1  0  0  0
 16 17  1  0  0  0
 12 14  1  0  0  0
 12 15  1  0  0  0
M  END
> <minimizedAffinity>
-6.59305

> <CNNscore>
0.2800894380

> <CNNaffinity>
6.0217270851

> <CNN_VS>
1.6866221428

> <CNNaffinity_variance>
0.4295674860

$$$$
[H]c1nc(N([H])[C@@]([H])(c2c([H])c([H])c(Cl)c([H])c2[H])C([H])([H])N([H])C([H])([H])[H])c2nc([H])c([H])c(C(=O)N([H])[H])c2n1


 29 31  0  0  0  0  0  0  0  0999 V2000
    4.1909    2.8935   16.3778 C   0  0  0  0  0  0  0  0  0  0  0  0
    3.6177    1.7441   15.9777 N   0  0  0  0  0  0  0  0  0  0  0  0
    3.3120    0.7629   16.8704 C   0  0  0  0  0  0  0  0  0  0  0  0
    3.5717    0.9041   18.1921 N   0  0  0  0  0  0  0  0  0  0  0  0
    4.1380    2.0220   18.6422 C   0  0  0  0  0  0  0  0  0  0  0  0
    4.4026    2.1672   19.9886 C   0  0  0  0  0  0  0  0  0  0  0  0
    4.9893    3.3510   20.3784 C   0  0  0  0  0  0  0  0  0  0  0  0
    5.2895    4.3282   19.4592 C   0  0  0  0  0  0  0  0  0  0  0  0
    5.0174    4.1512   18.1589 N   0  0  0  0  0  0  0  0  0  0  0  0
    4.4501    3.0257   17.7236 C   0  0  0  0  0  0  0  0  0  0  0  0
    4.0880    1.1409   20.9760 C   0  0  0  0  0  0  0  0  0  0  0  0
    2.8190    0.5391   20.9670 N   0  0  0  0  0  0  0  0  0  0  0  0
    4.9340    0.7774   21.8448 O   0  0  0  0  0  0  0  0  0  0  0  0
    2.3767    0.3527   21.9106 H   0  0  0  0  0  0  0  0  0  0  0  0
    2.3514    0.2960   20.0793 H   0  0  0  0  0  0  0  0  0  0  0  0
    4.5016    3.9093   15.4329 N   0  0  0  0  0  0  0  0  0  0  0  0
    5.5101    4.1743   15.3304 H   0  0  0  0  0  0  0  0  0  0  0  0
    3.4822    4.5588   14.6402 C   0  0  0  0  0  0  0  0  0  0  0  0
    3.4389    3.9801   13.2970 C   0  0  0  0  0  0  0  0  0  0  0  0
    2.6249    2.9303   12.9319 C   0  0  0  0  0  0  0  0  0  0  0  0
    2.6221    2.4221   11.6502 C   0  0  0  0  0  0  0  0  0  0  0  0
    3.4477    2.9633   10.6922 C   0  0  0  0  0  0  0  0  0  0  0  0
    3.4467    2.3179    9.0572 Cl  0  0  0  0  0  0  0  0  0  0  0  0
    4.2733    4.0168   11.0330 C   0  0  0  0  0  0  0  0  0  0  0  0
    4.2554    4.5027   12.3172 C   0  0  0  0  0  0  0  0  0  0  0  0
    2.1715    4.5102   15.3855 C   0  0  0  0  0  0  0  0  0  0  0  0
    1.0322    6.2997   14.2415 C   0  0  0  0  0  0  0  0  0  0  0  0
    1.5166    5.7755   15.4829 N   0  0  0  0  0  0  0  0  0  0  0  0
    0.7306    5.6983   16.1408 H   0  0  0  0  0  0  0  0  0  0  0  0
 27 28  1  0  0  0
 28 26  1  0  0  0
 26 18  1  0  0  0
 18 16  1  0  0  0
 16  1  1  0  0  0
  1  2  2  0  0  0
  2  3  1  0  0  0
  3  4  2  0  0  0
  4  5  1  0  0  0
  5  6  2  0  0  0
  6 11  1  0  0  0
 11 12  1  0  0  0
 11 13  2  0  0  0
  6  7  1  0  0  0
  7  8  2  0  0  0
  8  9  1  0  0  0
  9 10  2  0  0  0
 18 19  1  0  0  0
 19 20  2  0  0  0
 20 21  1  0  0  0
 21 22  2  0  0  0
 22 23  1  0  0  0
 22 24  1  0  0  0
 24 25  2  0  0  0
 10  1  1  0  0  0
 25 19  1  0  0  0
 10  5  1  0  0  0
 28 29  1  0  0  0
 16 17  1  0  0  0
 12 14  1  0  0  0
 12 15  1  0  0  0
M  END
> <minimizedAffinity>
-6.55773

> <CNNscore>
0.2626493275

> <CNNaffinity>
5.8664088249

> <CNN_VS>
1.5408083200

> <CNNaffinity_variance>
0.4050549865

$$$$
[H]Oc1c(OC([H])([H])[H])c(OC([H])([H])[H])c2c3c1-c1c([H])c([H])c([H])c([H])c1C([H])([H])[C@@]3([H])N([H])C([H])([H])C2([H])[H]


 24 27  0  0  0  0  0  0  0  0999 V2000
    3.2383    2.2201   15.3448 C   0  0  0  0  0  0  0  0  0  0  0  0
    3.1122    1.4843   16.5152 C   0  0  0  0  0  0  0  0  0  0  0  0
    2.4820    0.2764   16.3804 O   0  0  0  0  0  0  0  0  0  0  0  0
    3.6182    2.0169   17.6792 C   0  0  0  0  0  0  0  0  0  0  0  0
    4.2369    3.2468   17.7072 C   0  0  0  0  0  0  0  0  0  0  0  0
    4.3438    3.9520   16.5128 C   0  0  0  0  0  0  0  0  0  0  0  0
    3.8553    3.4596   15.3332 C   0  0  0  0  0  0  0  0  0  0  0  0
    5.0049    5.2679   16.5540 C   0  0  0  0  0  0  0  0  0  0  0  0
    6.0821    5.3871   17.5615 C   0  0  0  0  0  0  0  0  0  0  0  0
    5.9480    4.6380   18.7383 N   0  0  0  0  0  0  0  0  0  0  0  0
    4.7392    3.8768   18.9055 C   0  0  0  0  0  0  0  0  0  0  0  0
    4.9112    2.9942   20.0740 C   0  0  0  0  0  0  0  0  0  0  0  0
    4.1302    1.7541   20.0695 C   0  0  0  0  0  0  0  0  0  0  0  0
    4.0078    1.0348   21.2723 C   0  0  0  0  0  0  0  0  0  0  0  0
    3.3465   -0.1533   21.3411 C   0  0  0  0  0  0  0  0  0  0  0  0
    2.7982   -0.6297   20.1864 C   0  0  0  0  0  0  0  0  0  0  0  0
    2.8820    0.0361   18.9556 C   0  0  0  0  0  0  0  0  0  0  0  0
    3.5507    1.2282   18.9124 C   0  0  0  0  0  0  0  0  0  0  0  0
    2.1198   -0.0998   15.5305 H   0  0  0  0  0  0  0  0  0  0  0  0
    6.0591    5.2200   19.6149 H   0  0  0  0  0  0  0  0  0  0  0  0
    1.4501    1.9221   13.6678 C   0  0  0  0  0  0  0  0  0  0  0  0
    2.7389    1.7082   14.1642 O   0  0  0  0  0  0  0  0  0  0  0  0
    3.9840    4.1975   14.1653 O   0  0  0  0  0  0  0  0  0  0  0  0
    3.0140    5.1624   13.8293 C   0  0  0  0  0  0  0  0  0  0  0  0
 21 22  1  0  0  0
 22  1  1  0  0  0
  1  2  2  0  0  0
  2  3  1  0  0  0
  2  4  1  0  0  0
  4  5  2  0  0  0
  5  6  1  0  0  0
  6  7  2  0  0  0
  7 23  1  0  0  0
 23 24  1  0  0  0
  6  8  1  0  0  0
  8  9  1  0  0  0
  9 10  1  0  0  0
 10 11  1  0  0  0
 11 12  1  0  0  0
 12 13  1  0  0  0
 13 14  2  0  0  0
 14 15  1  0  0  0
 15 16  2  0  0  0
 16 17  1  0  0  0
 17 18  2  0  0  0
  7  1  1  0  0  0
 18 13  1  0  0  0
 18  4  1  0  0  0
 11  5  1  0  0  0
  3 19  1  0  0  0
 10 20  1  0  0  0
M  END
> <minimizedAffinity>
-7.48160

> <CNNscore>
0.7332332134

> <CNNaffinity>
5.7532472610

> <CNN_VS>
4.2184720039

> <CNNaffinity_variance>
0.1125170812

$$$$
[H]Oc1c(OC([H])([H])[H])c(OC([H])([H])[H])c2c3c1-c1c([H])c([H])c([H])c([H])c1C([H])([H])[C@@]3([H])N([H])C([H])([H])C2([H])[H]


 24 27  0  0  0  0  0  0  0  0999 V2000
    4.2465    1.5494   19.7610 C   0  0  0  0  0  0  0  0  0  0  0  0
    3.9189    1.6053   18.4132 C   0  0  0  0  0  0  0  0  0  0  0  0
    3.3497    0.4695   17.9031 O   0  0  0  0  0  0  0  0  0  0  0  0
    4.1862    2.7663   17.7236 C   0  0  0  0  0  0  0  0  0  0  0  0
    4.7645    3.8572   18.3333 C   0  0  0  0  0  0  0  0  0  0  0  0
    5.0767    3.7610   19.6855 C   0  0  0  0  0  0  0  0  0  0  0  0
    4.8276    2.6265   20.4089 C   0  0  0  0  0  0  0  0  0  0  0  0
    5.6974    4.9326   20.3277 C   0  0  0  0  0  0  0  0  0  0  0  0
    5.2707    6.2379   19.7765 C   0  0  0  0  0  0  0  0  0  0  0  0
    4.9386    6.2840   18.4158 N   0  0  0  0  0  0  0  0  0  0  0  0
    5.1145    5.0798   17.6493 C   0  0  0  0  0  0  0  0  0  0  0  0
    4.4895    5.2813   16.3291 C   0  0  0  0  0  0  0  0  0  0  0  0
    4.0065    4.0756   15.6504 C   0  0  0  0  0  0  0  0  0  0  0  0
    3.6941    4.1569   14.2811 C   0  0  0  0  0  0  0  0  0  0  0  0
    3.1883    3.0985   13.5900 C   0  0  0  0  0  0  0  0  0  0  0  0
    2.9918    1.9388   14.2810 C   0  0  0  0  0  0  0  0  0  0  0  0
    3.2825    1.7895   15.6442 C   0  0  0  0  0  0  0  0  0  0  0  0
    3.7905    2.8667   16.3163 C   0  0  0  0  0  0  0  0  0  0  0  0
    3.1598   -0.3664   18.4133 H   0  0  0  0  0  0  0  0  0  0  0  0
    5.4463    7.0498   17.8910 H   0  0  0  0  0  0  0  0  0  0  0  0
    2.8477    0.1572   21.2455 C   0  0  0  0  0  0  0  0  0  0  0  0
    3.9888    0.3965   20.4748 O   0  0  0  0  0  0  0  0  0  0  0  0
    5.1555    2.5747   21.7560 O   0  0  0  0  0  0  0  0  0  0  0  0
    6.3411    1.9361   22.1700 C   0  0  0  0  0  0  0  0  0  0  0  0
 21 22  1  0  0  0
 22  1  1  0  0  0
  1  2  2  0  0  0
  2  3  1  0  0  0
  2  4  1  0  0  0
  4  5  2  0  0  0
  5  6  1  0  0  0
  6  7  2  0  0  0
  7 23  1  0  0  0
 23 24  1  0  0  0
  6  8  1  0  0  0
  8  9  1  0  0  0
  9 10  1  0  0  0
 10 11  1  0  0  0
 11 12  1  0  0  0
 12 13  1  0  0  0
 13 14  2  0  0  0
 14 15  1  0  0  0
 15 16  2  0  0  0
 16 17  1  0  0  0
 17 18  2  0  0  0
  7  1  1  0  0  0
 18 13  1  0  0  0
 18  4  1  0  0  0
 11  5  1  0  0  0
  3 19  1  0  0  0
 10 20  1  0  0  0
M  END
> <minimizedAffinity>
-8.20055

> <CNNscore>
0.6631233096

> <CNNaffinity>
5.8455924988

> <CNN_VS>
3.8763487339

> <CNNaffinity_variance>
0.6054412723

$$$$
[H]Oc1c(OC([H])([H])[H])c(OC([H])([H])[H])c2c3c1-c1c([H])c([H])c([H])c([H])c1C([H])([H])[C@@]3([H])N([H])C([H])([H])C2([H])[H]


 24 27  0  0  0  0  0  0  0  0999 V2000
    3.4804    1.7556   17.0413 C   0  0  0  0  0  0  0  0  0  0  0  0
    2.8005    2.0959   15.8799 C   0  0  0  0  0  0  0  0  0  0  0  0
    2.1714    1.0582   15.2461 O   0  0  0  0  0  0  0  0  0  0  0  0
    2.8155    3.4118   15.4761 C   0  0  0  0  0  0  0  0  0  0  0  0
    3.4822    4.3834   16.1887 C   0  0  0  0  0  0  0  0  0  0  0  0
    4.1505    4.0013   17.3474 C   0  0  0  0  0  0  0  0  0  0  0  0
    4.1607    2.7048   17.7852 C   0  0  0  0  0  0  0  0  0  0  0  0
    4.8628    5.0477   18.1011 C   0  0  0  0  0  0  0  0  0  0  0  0
    4.2403    6.3886   18.0356 C   0  0  0  0  0  0  0  0  0  0  0  0
    3.5531    6.7221   16.8607 N   0  0  0  0  0  0  0  0  0  0  0  0
    3.5753    5.7668   15.7858 C   0  0  0  0  0  0  0  0  0  0  0  0
    2.6096    6.2063   14.7619 C   0  0  0  0  0  0  0  0  0  0  0  0
    2.0216    5.1518   13.9312 C   0  0  0  0  0  0  0  0  0  0  0  0
    1.3493    5.5237   12.7527 C   0  0  0  0  0  0  0  0  0  0  0  0
    0.7288    4.6115   11.9548 C   0  0  0  0  0  0  0  0  0  0  0  0
    0.7823    3.3048   12.3428 C   0  0  0  0  0  0  0  0  0  0  0  0
    1.4354    2.8664   13.5031 C   0  0  0  0  0  0  0  0  0  0  0  0
    2.0519    3.8015   14.2877 C   0  0  0  0  0  0  0  0  0  0  0  0
    2.1668    0.1078   15.5491 H   0  0  0  0  0  0  0  0  0  0  0  0
    3.8630    7.6454   16.4473 H   0  0  0  0  0  0  0  0  0  0  0  0
    2.5091   -0.1465   18.2814 C   0  0  0  0  0  0  0  0  0  0  0  0
    3.4806    0.4427   17.4676 O   0  0  0  0  0  0  0  0  0  0  0  0
    4.8406    2.3686   18.9470 O   0  0  0  0  0  0  0  0  0  0  0  0
    4.1808    2.4182   20.1907 C   0  0  0  0  0  0  0  0  0  0  0  0
 21 22  1  0  0  0
 22  1  1  0  0  0
  1  2  2  0  0  0
  2  3  1  0  0  0
  2  4  1  0  0  0
  4  5  2  0  0  0
  5  6  1  0  0  0
  6  7  2  0  0  0
  7 23  1  0  0  0
 23 24  1  0  0  0
  6  8  1  0  0  0
  8  9  1  0  0  0
  9 10  1  0  0  0
 10 11  1  0  0  0
 11 12  1  0  0  0
 12 13  1  0  0  0
 13 14  2  0  0  0
 14 15  1  0  0  0
 15 16  2  0  0  0
 16 17  1  0  0  0
 17 18  2  0  0  0
  7  1  1  0  0  0
 18 13  1  0  0  0
 18  4  1  0  0  0
 11  5  1  0  0  0
  3 19  1  0  0  0
 10 20  1  0  0  0
M  END
> <minimizedAffinity>
-6.38820

> <CNNscore>
0.6236342192

> <CNNaffinity>
5.2752089500

> <CNN_VS>
3.2898008823

> <CNNaffinity_variance>
0.2287056446

$$$$
[H]Oc1c(OC([H])([H])[H])c(OC([H])([H])[H])c2c3c1-c1c([H])c([H])c([H])c([H])c1C([H])([H])[C@@]3([H])N([H])C([H])([H])C2([H])[H]


 24 27  0  0  0  0  0  0  0  0999 V2000
    3.9984    1.9668   17.5305 C   0  0  0  0  0  0  0  0  0  0  0  0
    4.0048    2.0659   18.9151 C   0  0  0  0  0  0  0  0  0  0  0  0
    3.8625    0.8810   19.5860 O   0  0  0  0  0  0  0  0  0  0  0  0
    4.1504    3.3127   19.4800 C   0  0  0  0  0  0  0  0  0  0  0  0
    4.2867    4.4474   18.7119 C   0  0  0  0  0  0  0  0  0  0  0  0
    4.2761    4.3051   17.3281 C   0  0  0  0  0  0  0  0  0  0  0  0
    4.1344    3.0849   16.7251 C   0  0  0  0  0  0  0  0  0  0  0  0
    4.4198    5.5254   16.5153 C   0  0  0  0  0  0  0  0  0  0  0  0
    5.2600    6.5793   17.1262 C   0  0  0  0  0  0  0  0  0  0  0  0
    5.2629    6.6697   18.5247 N   0  0  0  0  0  0  0  0  0  0  0  0
    4.3904    5.7841   19.2480 C   0  0  0  0  0  0  0  0  0  0  0  0
    4.7256    5.8797   20.6807 C   0  0  0  0  0  0  0  0  0  0  0  0
    4.4395    4.6940   21.4932 C   0  0  0  0  0  0  0  0  0  0  0  0
    4.4397    4.8254   22.8939 C   0  0  0  0  0  0  0  0  0  0  0  0
    4.2377    3.7628   23.7207 C   0  0  0  0  0  0  0  0  0  0  0  0
    4.0320    2.5477   23.1356 C   0  0  0  0  0  0  0  0  0  0  0  0
    4.0181    2.3472   21.7483 C   0  0  0  0  0  0  0  0  0  0  0  0
    4.2225    3.4303   20.9389 C   0  0  0  0  0  0  0  0  0  0  0  0
    3.7585   -0.0175   19.1653 H   0  0  0  0  0  0  0  0  0  0  0  0
    5.0580    7.6460   18.8773 H   0  0  0  0  0  0  0  0  0  0  0  0
    2.6464    0.0429   16.7757 C   0  0  0  0  0  0  0  0  0  0  0  0
    3.8536    0.7278   16.9395 O   0  0  0  0  0  0  0  0  0  0  0  0
    4.1293    2.9897   15.3410 O   0  0  0  0  0  0  0  0  0  0  0  0
    2.9085    2.9864   14.6379 C   0  0  0  0  0  0  0  0  0  0  0  0
 21 22  1  0  0  0
 22  1  1  0  0  0
  1  2  2  0  0  0
  2  3  1  0  0  0
  2  4  1  0  0  0
  4  5  2  0  0  0
  5  6  1  0  0  0
  6  7  2  0  0  0
  7 23  1  0  0  0
 23 24  1  0  0  0
  6  8  1  0  0  0
  8  9  1  0  0  0
  9 10  1  0  0  0
 10 11  1  0  0  0
 11 12  1  0  0  0
 12 13  1  0  0  0
 13 14  2  0  0  0
 14 15  1  0  0  0
 15 16  2  0  0  0
 16 17  1  0  0  0
 17 18  2  0  0  0
  7  1  1  0  0  0
 18 13  1  0  0  0
 18  4  1  0  0  0
 11  5  1  0  0  0
  3 19  1  0  0  0
 10 20  1  0  0  0
M  END
> <minimizedAffinity>
-7.48632

> <CNNscore>
0.5730348825

> <CNNaffinity>
5.3990550041

> <CNN_VS>
3.0938467979

> <CNNaffinity_variance>
0.3554249406

$$$$
[H]Oc1c(OC([H])([H])[H])c(OC([H])([H])[H])c2c3c1-c1c([H])c([H])c([H])c([H])c1C([H])([H])[C@@]3([H])N([H])C([H])([H])C2([H])[H]


 24 27  0  0  0  0  0  0  0  0999 V2000
    5.2339    3.5967   20.4344 C   0  0  0  0  0  0  0  0  0  0  0  0
    4.8979    3.4972   19.0912 C   0  0  0  0  0  0  0  0  0  0  0  0
    5.3745    4.5030   18.2940 O   0  0  0  0  0  0  0  0  0  0  0  0
    4.1358    2.4249   18.6863 C   0  0  0  0  0  0  0  0  0  0  0  0
    3.7048    1.4632   19.5727 C   0  0  0  0  0  0  0  0  0  0  0  0
    4.0637    1.5991   20.9098 C   0  0  0  0  0  0  0  0  0  0  0  0
    4.8204    2.6487   21.3551 C   0  0  0  0  0  0  0  0  0  0  0  0
    3.5954    0.5665   21.8505 C   0  0  0  0  0  0  0  0  0  0  0  0
    3.4741   -0.7892   21.2698 C   0  0  0  0  0  0  0  0  0  0  0  0
    3.1379   -0.8798   19.9123 N   0  0  0  0  0  0  0  0  0  0  0  0
    2.8616    0.3471   19.2145 C   0  0  0  0  0  0  0  0  0  0  0  0
    2.7701    0.0447   17.7743 C   0  0  0  0  0  0  0  0  0  0  0  0
    3.1082    1.1390   16.8600 C   0  0  0  0  0  0  0  0  0  0  0  0
    2.7445    1.0180   15.5064 C   0  0  0  0  0  0  0  0  0  0  0  0
    3.0693    1.9635   14.5822 C   0  0  0  0  0  0  0  0  0  0  0  0
    3.7701    3.0489   15.0203 C   0  0  0  0  0  0  0  0  0  0  0  0
    4.1627    3.2323   16.3534 C   0  0  0  0  0  0  0  0  0  0  0  0
    3.8238    2.2690   17.2630 C   0  0  0  0  0  0  0  0  0  0  0  0
    5.9272    5.2754   18.5990 H   0  0  0  0  0  0  0  0  0  0  0  0
    2.3147   -1.5193   19.7311 H   0  0  0  0  0  0  0  0  0  0  0  0
    5.5033    5.9147   21.2424 C   0  0  0  0  0  0  0  0  0  0  0  0
    5.9972    4.6627   20.8659 O   0  0  0  0  0  0  0  0  0  0  0  0
    5.1550    2.7442   22.6982 O   0  0  0  0  0  0  0  0  0  0  0  0
    4.3020    3.4212   23.5919 C   0  0  0  0  0  0  0  0  0  0  0  0
 21 22  1  0  0  0
 22  1  1  0  0  0
  1  2  2  0  0  0
  2  3  1  0  0  0
  2  4  1  0  0  0
  4  5  2  0  0  0
  5  6  1  0  0  0
  6  7  2  0  0  0
  7 23  1  0  0  0
 23 24  1  0  0  0
  6  8  1  0  0  0
  8  9  1  0  0  0
  9 10  1  0  0  0
 10 11  1  0  0  0
 11 12  1  0  0  0
 12 13  1  0  0  0
 13 14  2  0  0  0
 14 15  1  0  0  0
 15 16  2  0  0  0
 16 17  1  0  0  0
 17 18  2  0  0  0
  7  1  1  0  0  0
 18 13  1  0  0  0
 18  4  1  0  0  0
 11  5  1  0  0  0
  3 19  1  0  0  0
 10 20  1  0  0  0
M  END
> <minimizedAffinity>
-8.68321

> <CNNscore>
0.5434460640

> <CNNaffinity>
5.9869017601

> <CNN_VS>
3.2535581589

> <CNNaffinity_variance>
0.2396399230

$$$$
[H]Oc1c(OC([H])([H])[H])c(OC([H])([H])[H])c2c3c1-c1c([H])c([H])c([H])c([H])c1C([H])([H])[C@@]3([H])N([H])C([H])([H])C2([H])[H]


 24 27  0  0  0  0  0  0  0  0999 V2000
    4.0717    3.1747   17.5477 C   0  0  0  0  0  0  0  0  0  0  0  0
    4.2063    2.6448   18.8237 C   0  0  0  0  0  0  0  0  0  0  0  0
    4.3958    1.2900   18.8763 O   0  0  0  0  0  0  0  0  0  0  0  0
    4.1404    3.5033   19.8977 C   0  0  0  0  0  0  0  0  0  0  0  0
    3.9453    4.8567   19.7357 C   0  0  0  0  0  0  0  0  0  0  0  0
    3.8160    5.3480   18.4406 C   0  0  0  0  0  0  0  0  0  0  0  0
    3.8759    4.5304   17.3450 C   0  0  0  0  0  0  0  0  0  0  0  0
    3.6049    6.7970   18.2782 C   0  0  0  0  0  0  0  0  0  0  0  0
    4.2596    7.6359   19.3065 C   0  0  0  0  0  0  0  0  0  0  0  0
    4.3943    7.0914   20.5908 N   0  0  0  0  0  0  0  0  0  0  0  0
    3.8163    5.7954   20.8253 C   0  0  0  0  0  0  0  0  0  0  0  0
    4.2760    5.3202   22.1432 C   0  0  0  0  0  0  0  0  0  0  0  0
    4.3414    3.8670   22.3209 C   0  0  0  0  0  0  0  0  0  0  0  0
    4.4648    3.3562   23.6259 C   0  0  0  0  0  0  0  0  0  0  0  0
    4.5869    2.0229   23.8729 C   0  0  0  0  0  0  0  0  0  0  0  0
    4.5855    1.1863   22.7954 C   0  0  0  0  0  0  0  0  0  0  0  0
    4.4651    1.6283   21.4705 C   0  0  0  0  0  0  0  0  0  0  0  0
    4.3428    2.9721   21.2483 C   0  0  0  0  0  0  0  0  0  0  0  0
    4.4428    0.6777   18.0902 H   0  0  0  0  0  0  0  0  0  0  0  0
    4.0234    7.7267   21.3512 H   0  0  0  0  0  0  0  0  0  0  0  0
    3.0624    1.6094   15.9260 C   0  0  0  0  0  0  0  0  0  0  0  0
    4.1339    2.3350   16.4540 O   0  0  0  0  0  0  0  0  0  0  0  0
    3.7418    5.0639   16.0712 O   0  0  0  0  0  0  0  0  0  0  0  0
    2.4666    5.1742   15.4826 C   0  0  0  0  0  0  0  0  0  0  0  0
 21 22  1  0  0  0
 22  1  1  0  0  0
  1  2  2  0  0  0
  2  3  1  0  0  0
  2  4  1  0  0  0
  4  5  2  0  0  0
  5  6  1  0  0  0
  6  7  2  0  0  0
  7 23  1  0  0  0
 23 24  1  0  0  0
  6  8  1  0  0  0
  8  9  1  0  0  0
  9 10  1  0  0  0
 10 11  1  0  0  0
 11 12  1  0  0  0
 12 13  1  0  0  0
 13 14  2  0  0  0
 14 15  1  0  0  0
 15 16  2  0  0  0
 16 17  1  0  0  0
 17 18  2  0  0  0
  7  1  1  0  0  0
 18 13  1  0  0  0
 18  4  1  0  0  0
 11  5  1  0  0  0
  3 19  1  0  0  0
 10 20  1  0  0  0
M  END
> <minimizedAffinity>
-7.90099

> <CNNscore>
0.5151949525

> <CNNaffinity>
5.4277429581

> <CNN_VS>
2.7963457108

> <CNNaffinity_variance>
0.1658233851

$$$$
[H]Oc1c(OC([H])([H])[H])c(OC([H])([H])[H])c2c3c1-c1c([H])c([H])c([H])c([H])c1C([H])([H])[C@@]3([H])N([H])C([H])([H])C2([H])[H]


 24 27  0  0  0  0  0  0  0  0999 V2000
    3.4678    8.5542    7.1008 C   0  0  0  0  0  0  0  0  0  0  0  0
    4.6895    8.8575    6.5157 C   0  0  0  0  0  0  0  0  0  0  0  0
    5.6852    9.2041    7.3891 O   0  0  0  0  0  0  0  0  0  0  0  0
    4.7932    8.7850    5.1450 C   0  0  0  0  0  0  0  0  0  0  0  0
    3.7258    8.4245    4.3532 C   0  0  0  0  0  0  0  0  0  0  0  0
    2.5192    8.1276    4.9785 C   0  0  0  0  0  0  0  0  0  0  0  0
    2.3724    8.1863    6.3377 C   0  0  0  0  0  0  0  0  0  0  0  0
    1.3827    7.7456    4.1224 C   0  0  0  0  0  0  0  0  0  0  0  0
    1.7552    7.0171    2.8894 C   0  0  0  0  0  0  0  0  0  0  0  0
    2.9919    7.3273    2.3078 N   0  0  0  0  0  0  0  0  0  0  0  0
    3.7620    8.3820    2.9104 C   0  0  0  0  0  0  0  0  0  0  0  0
    5.1038    8.3765    2.2992 C   0  0  0  0  0  0  0  0  0  0  0  0
    6.1953    8.8952    3.1284 C   0  0  0  0  0  0  0  0  0  0  0  0
    7.4188    9.2066    2.5077 C   0  0  0  0  0  0  0  0  0  0  0  0
    8.4988    9.6410    3.2138 C   0  0  0  0  0  0  0  0  0  0  0  0
    8.3518    9.7659    4.5643 C   0  0  0  0  0  0  0  0  0  0  0  0
    7.1618    9.4740    5.2452 C   0  0  0  0  0  0  0  0  0  0  0  0
    6.0908    9.0403    4.5138 C   0  0  0  0  0  0  0  0  0  0  0  0
    5.5983    9.2523    8.3817 H   0  0  0  0  0  0  0  0  0  0  0  0
    2.9188    7.5605    1.2783 H   0  0  0  0  0  0  0  0  0  0  0  0
    3.5900    7.5718    9.3632 C   0  0  0  0  0  0  0  0  0  0  0  0
    3.3377    8.6196    8.4734 O   0  0  0  0  0  0  0  0  0  0  0  0
    1.1500    7.8817    6.9189 O   0  0  0  0  0  0  0  0  0  0  0  0
    0.8142    6.5418    7.1959 C   0  0  0  0  0  0  0  0  0  0  0  0
 21 22  1  0  0  0
 22  1  1  0  0  0
  1  2  2  0  0  0
  2  3  1  0  0  0
  2  4  1  0  0  0
  4  5  2  0  0  0
  5  6  1  0  0  0
  6  7  2  0  0  0
  7 23  1  0  0  0
 23 24  1  0  0  0
  6  8  1  0  0  0
  8  9  1  0  0  0
  9 10  1  0  0  0
 10 11  1  0  0  0
 11 12  1  0  0  0
 12 13  1  0  0  0
 13 14  2  0  0  0
 14 15  1  0  0  0
 15 16  2  0  0  0
 16 17  1  0  0  0
 17 18  2  0  0  0
  7  1  1  0  0  0
 18 13  1  0  0  0
 18  4  1  0  0  0
 11  5  1  0  0  0
  3 19  1  0  0  0
 10 20  1  0  0  0
M  END
> <minimizedAffinity>
-5.74394

> <CNNscore>
0.5129829645

> <CNNaffinity>
4.2947335243

> <CNN_VS>
2.2031252384

> <CNNaffinity_variance>
0.0503570326

$$$$
[H]Oc1c(OC([H])([H])[H])c(OC([H])([H])[H])c2c3c1-c1c([H])c([H])c([H])c([H])c1C([H])([H])[C@@]3([H])N([H])C([H])([H])C2([H])[H]


 24 27  0  0  0  0  0  0  0  0999 V2000
    4.9850    3.0214   20.4065 C   0  0  0  0  0  0  0  0  0  0  0  0
    4.5503    2.5843   19.1628 C   0  0  0  0  0  0  0  0  0  0  0  0
    4.4085    1.2284   19.0373 O   0  0  0  0  0  0  0  0  0  0  0  0
    4.3048    3.5254   18.1888 C   0  0  0  0  0  0  0  0  0  0  0  0
    4.4800    4.8719   18.4183 C   0  0  0  0  0  0  0  0  0  0  0  0
    4.9160    5.2688   19.6782 C   0  0  0  0  0  0  0  0  0  0  0  0
    5.1712    4.3670   20.6753 C   0  0  0  0  0  0  0  0  0  0  0  0
    5.1029    6.7112   19.9127 C   0  0  0  0  0  0  0  0  0  0  0  0
    4.1739    7.5848   19.1620 C   0  0  0  0  0  0  0  0  0  0  0  0
    3.7376    7.1337   17.9090 N   0  0  0  0  0  0  0  0  0  0  0  0
    4.2883    5.8980   17.4207 C   0  0  0  0  0  0  0  0  0  0  0  0
    3.5266    5.4983   16.2231 C   0  0  0  0  0  0  0  0  0  0  0  0
    3.4767    4.0619   15.9369 C   0  0  0  0  0  0  0  0  0  0  0  0
    3.0446    3.6467   14.6641 C   0  0  0  0  0  0  0  0  0  0  0  0
    2.9174    2.3314   14.3362 C   0  0  0  0  0  0  0  0  0  0  0  0
    3.2279    1.4159   15.2987 C   0  0  0  0  0  0  0  0  0  0  0  0
    3.6649    1.7609   16.5852 C   0  0  0  0  0  0  0  0  0  0  0  0
    3.7856    3.0885   16.8901 C   0  0  0  0  0  0  0  0  0  0  0  0
    4.5888    0.5555   19.7513 H   0  0  0  0  0  0  0  0  0  0  0  0
    3.8758    7.8476   17.1404 H   0  0  0  0  0  0  0  0  0  0  0  0
    6.5056    1.7109   21.8449 C   0  0  0  0  0  0  0  0  0  0  0  0
    5.2384    2.0975   21.4003 O   0  0  0  0  0  0  0  0  0  0  0  0
    5.6047    4.8078   21.9174 O   0  0  0  0  0  0  0  0  0  0  0  0
    4.6673    5.1673   22.9056 C   0  0  0  0  0  0  0  0  0  0  0  0
 21 22  1  0  0  0
 22  1  1  0  0  0
  1  2  2  0  0  0
  2  3  1  0  0  0
  2  4  1  0  0  0
  4  5  2  0  0  0
  5  6  1  0  0  0
  6  7  2  0  0  0
  7 23  1  0  0  0
 23 24  1  0  0  0
  6  8  1  0  0  0
  8  9  1  0  0  0
  9 10  1  0  0  0
 10 11  1  0  0  0
 11 12  1  0  0  0
 12 13  1  0  0  0
 13 14  2  0  0  0
 14 15  1  0  0  0
 15 16  2  0  0  0
 16 17  1  0  0  0
 17 18  2  0  0  0
  7  1  1  0  0  0
 18 13  1  0  0  0
 18  4  1  0  0  0
 11  5  1  0  0  0
  3 19  1  0  0  0
 10 20  1  0  0  0
M  END
> <minimizedAffinity>
-7.68108

> <CNNscore>
0.5111254454

> <CNNaffinity>
5.3678617477

> <CNN_VS>
2.7436506748

> <CNNaffinity_variance>
0.2381597012

$$$$
[H]Oc1c(OC([H])([H])[H])c(OC([H])([H])[H])c2c3c1-c1c([H])c([H])c([H])c([H])c1C([H])([H])[C@@]3([H])N([H])C([H])([H])C2([H])[H]


 24 27  0  0  0  0  0  0  0  0999 V2000
    4.9021    4.7095   17.9775 C   0  0  0  0  0  0  0  0  0  0  0  0
    4.5524    3.5292   18.6191 C   0  0  0  0  0  0  0  0  0  0  0  0
    4.3796    2.4473   17.7981 O   0  0  0  0  0  0  0  0  0  0  0  0
    4.4139    3.5464   19.9885 C   0  0  0  0  0  0  0  0  0  0  0  0
    4.6107    4.6934   20.7248 C   0  0  0  0  0  0  0  0  0  0  0  0
    4.9609    5.8549   20.0440 C   0  0  0  0  0  0  0  0  0  0  0  0
    5.1098    5.8821   18.6840 C   0  0  0  0  0  0  0  0  0  0  0  0
    5.1666    7.0771   20.8405 C   0  0  0  0  0  0  0  0  0  0  0  0
    5.7063    6.8460   22.1989 C   0  0  0  0  0  0  0  0  0  0  0  0
    5.3508    5.6502   22.8374 N   0  0  0  0  0  0  0  0  0  0  0  0
    4.4292    4.7826   22.1545 C   0  0  0  0  0  0  0  0  0  0  0  0
    4.3843    3.4996   22.8797 C   0  0  0  0  0  0  0  0  0  0  0  0
    4.0378    2.3181   22.0848 C   0  0  0  0  0  0  0  0  0  0  0  0
    3.6746    1.1387   22.7604 C   0  0  0  0  0  0  0  0  0  0  0  0
    3.3919   -0.0169   22.0984 C   0  0  0  0  0  0  0  0  0  0  0  0
    3.4741    0.0081   20.7369 C   0  0  0  0  0  0  0  0  0  0  0  0
    3.8285    1.1481   20.0021 C   0  0  0  0  0  0  0  0  0  0  0  0
    4.1069    2.2969   20.6898 C   0  0  0  0  0  0  0  0  0  0  0  0
    4.4837    2.4468   16.8060 H   0  0  0  0  0  0  0  0  0  0  0  0
    4.9578    5.7998   23.8083 H   0  0  0  0  0  0  0  0  0  0  0  0
    4.0124    4.8876   15.6807 C   0  0  0  0  0  0  0  0  0  0  0  0
    5.0471    4.7186   16.6049 O   0  0  0  0  0  0  0  0  0  0  0  0
    5.4602    7.0635   18.0464 O   0  0  0  0  0  0  0  0  0  0  0  0
    4.4596    7.9538   17.6096 C   0  0  0  0  0  0  0  0  0  0  0  0
 21 22  1  0  0  0
 22  1  1  0  0  0
  1  2  2  0  0  0
  2  3  1  0  0  0
  2  4  1  0  0  0
  4  5  2  0  0  0
  5  6  1  0  0  0
  6  7  2  0  0  0
  7 23  1  0  0  0
 23 24  1  0  0  0
  6  8  1  0  0  0
  8  9  1  0  0  0
  9 10  1  0  0  0
 10 11  1  0  0  0
 11 12  1  0  0  0
 12 13  1  0  0  0
 13 14  2  0  0  0
 14 15  1  0  0  0
 15 16  2  0  0  0
 16 17  1  0  0  0
 17 18  2  0  0  0
  7  1  1  0  0  0
 18 13  1  0  0  0
 18  4  1  0  0  0
 11  5  1  0  0  0
  3 19  1  0  0  0
 10 20  1  0  0  0
M  END
> <minimizedAffinity>
-7.78114

> <CNNscore>
0.4944757521

> <CNNaffinity>
5.6187562943

> <CNN_VS>
2.7783386707

> <CNNaffinity_variance>
0.1757037938

$$$$
[H]c1c([H])c([H])c(N([H])[C@@]2([H])c3c([H])c(-c4c([H])c([H])c(C(F)(F)F)c([H])c4[H])c([H])c([H])c3N(C(=O)C([H])([H])[H])[C@@]([H])(C([H])([H])[H])C2([H])[H])c([H])c1[H]


 32 35  0  0  0  0  0  0  0  0999 V2000
    3.4493   -3.0583    9.9782 C   0  0  0  0  0  0  0  0  0  0  0  0
    3.3837   -3.0778    8.5112 C   0  0  0  0  0  0  0  0  0  0  0  0
    2.9500   -4.1481    7.9631 O   0  0  0  0  0  0  0  0  0  0  0  0
    3.7764   -1.9958    7.6977 N   0  0  0  0  0  0  0  0  0  0  0  0
    4.0479   -0.6738    8.1117 C   0  0  0  0  0  0  0  0  0  0  0  0
    3.3730   -0.1541    9.2106 C   0  0  0  0  0  0  0  0  0  0  0  0
    3.7144    1.1085    9.6326 C   0  0  0  0  0  0  0  0  0  0  0  0
    4.6810    1.8980    9.0395 C   0  0  0  0  0  0  0  0  0  0  0  0
    5.3246    1.3600    7.9512 C   0  0  0  0  0  0  0  0  0  0  0  0
    5.0116    0.0786    7.4858 C   0  0  0  0  0  0  0  0  0  0  0  0
    5.7200   -0.3582    6.2758 C   0  0  0  0  0  0  0  0  0  0  0  0
    5.3906   -1.7701    5.8770 C   0  0  0  0  0  0  0  0  0  0  0  0
    4.0244   -2.2297    6.2606 C   0  0  0  0  0  0  0  0  0  0  0  0
    2.8819   -1.7535    5.4444 C   0  0  0  0  0  0  0  0  0  0  0  0
    5.0383    3.2272    9.5465 C   0  0  0  0  0  0  0  0  0  0  0  0
    4.1556    3.9230   10.3617 C   0  0  0  0  0  0  0  0  0  0  0  0
    4.4515    5.1498   10.9127 C   0  0  0  0  0  0  0  0  0  0  0  0
    5.6877    5.7168   10.6357 C   0  0  0  0  0  0  0  0  0  0  0  0
    6.5881    5.0567    9.8281 C   0  0  0  0  0  0  0  0  0  0  0  0
    6.2492    3.8132    9.2903 C   0  0  0  0  0  0  0  0  0  0  0  0
    5.9949    7.0539   11.2589 C   0  0  0  0  0  0  0  0  0  0  0  0
    7.3209    7.0982   11.6565 F   0  0  0  0  0  0  0  0  0  0  0  0
    5.2170    7.3115   12.3470 F   0  0  0  0  0  0  0  0  0  0  0  0
    5.8745    8.0045   10.2489 F   0  0  0  0  0  0  0  0  0  0  0  0
    5.3331    0.5574    5.1830 N   0  0  0  0  0  0  0  0  0  0  0  0
    4.3100    0.6583    5.0027 H   0  0  0  0  0  0  0  0  0  0  0  0
    6.3201    1.2489    4.4254 C   0  0  0  0  0  0  0  0  0  0  0  0
    7.2171    2.0943    5.0587 C   0  0  0  0  0  0  0  0  0  0  0  0
    8.1921    2.6965    4.3012 C   0  0  0  0  0  0  0  0  0  0  0  0
    8.3333    2.5144    2.9485 C   0  0  0  0  0  0  0  0  0  0  0  0
    7.4408    1.6713    2.2992 C   0  0  0  0  0  0  0  0  0  0  0  0
    6.4587    1.0595    3.0468 C   0  0  0  0  0  0  0  0  0  0  0  0
  1  2  1  0  0  0
  2  3  2  0  0  0
  2  4  1  0  0  0
  4  5  1  0  0  0
  5  6  2  0  0  0
  6  7  1  0  0  0
  7  8  2  0  0  0
  8 15  1  0  0  0
 15 16  2  0  0  0
 16 17  1  0  0  0
 17 18  2  0  0  0
 18 21  1  0  0  0
 21 22  1  0  0  0
 21 23  1  0  0  0
 21 24  1  0  0  0
 18 19  1  0  0  0
 19 20  2  0  0  0
  8  9  1  0  0  0
  9 10  2  0  0  0
 10 11  1  0  0  0
 11 25  1  0  0  0
 25 27  1  0  0  0
 27 28  2  0  0  0
 28 29  1  0  0  0
 29 30  2  0  0  0
 30 31  1  0  0  0
 31 32  2  0  0  0
 11 12  1  0  0  0
 12 13  1  0  0  0
 13 14  1  0  0  0
 13  4  1  0  0  0
 10  5  1  0  0  0
 32 27  1  0  0  0
 20 15  1  0  0  0
 25 26  1  0  0  0
M  END
> <minimizedAffinity>
-4.11341

> <CNNscore>
0.5137684941

> <CNNaffinity>
4.9272794724

> <CNN_VS>
2.5314810276

> <CNNaffinity_variance>
0.1257839352

$$$$
[H]c1c([H])c([H])c(N([H])[C@@]2([H])c3c([H])c(-c4c([H])c([H])c(C(F)(F)F)c([H])c4[H])c([H])c([H])c3N(C(=O)C([H])([H])[H])[C@@]([H])(C([H])([H])[H])C2([H])[H])c([H])c1[H]


 32 35  0  0  0  0  0  0  0  0999 V2000
    5.4564    1.2072    6.3086 C   0  0  0  0  0  0  0  0  0  0  0  0
    4.5584    2.2171    5.7337 C   0  0  0  0  0  0  0  0  0  0  0  0
    4.4607    2.2499    4.4595 O   0  0  0  0  0  0  0  0  0  0  0  0
    3.8216    3.1372    6.5065 N   0  0  0  0  0  0  0  0  0  0  0  0
    3.6147    3.1034    7.9025 C   0  0  0  0  0  0  0  0  0  0  0  0
    3.5742    1.8755    8.5536 C   0  0  0  0  0  0  0  0  0  0  0  0
    3.4460    1.8810    9.9219 C   0  0  0  0  0  0  0  0  0  0  0  0
    3.3530    3.0222   10.6955 C   0  0  0  0  0  0  0  0  0  0  0  0
    3.3880    4.2196   10.0226 C   0  0  0  0  0  0  0  0  0  0  0  0
    3.5181    4.2641    8.6305 C   0  0  0  0  0  0  0  0  0  0  0  0
    3.4757    5.5998    8.0218 C   0  0  0  0  0  0  0  0  0  0  0  0
    3.6964    5.5775    6.5347 C   0  0  0  0  0  0  0  0  0  0  0  0
    3.2480    4.3300    5.8509 C   0  0  0  0  0  0  0  0  0  0  0  0
    1.7943    4.1554    5.6179 C   0  0  0  0  0  0  0  0  0  0  0  0
    3.2537    2.9812   12.1583 C   0  0  0  0  0  0  0  0  0  0  0  0
    3.8637    3.9641   12.9263 C   0  0  0  0  0  0  0  0  0  0  0  0
    3.7645    4.0129   14.2989 C   0  0  0  0  0  0  0  0  0  0  0  0
    3.0238    3.0312   14.9423 C   0  0  0  0  0  0  0  0  0  0  0  0
    2.4069    2.0382   14.2130 C   0  0  0  0  0  0  0  0  0  0  0  0
    2.5313    2.0258   12.8221 C   0  0  0  0  0  0  0  0  0  0  0  0
    2.9188    3.1111   16.4434 C   0  0  0  0  0  0  0  0  0  0  0  0
    4.1806    3.2341   17.0011 F   0  0  0  0  0  0  0  0  0  0  0  0
    2.3223    2.0114   16.9823 F   0  0  0  0  0  0  0  0  0  0  0  0
    2.2617    4.3030   16.7368 F   0  0  0  0  0  0  0  0  0  0  0  0
    2.1439    6.1724    8.3061 N   0  0  0  0  0  0  0  0  0  0  0  0
    1.5373    5.6325    8.9618 H   0  0  0  0  0  0  0  0  0  0  0  0
    1.7290    7.3925    7.7014 C   0  0  0  0  0  0  0  0  0  0  0  0
    0.5809    7.4294    6.9263 C   0  0  0  0  0  0  0  0  0  0  0  0
    0.1813    8.6378    6.4095 C   0  0  0  0  0  0  0  0  0  0  0  0
    0.8525    9.8174    6.6119 C   0  0  0  0  0  0  0  0  0  0  0  0
    2.0060    9.7962    7.3851 C   0  0  0  0  0  0  0  0  0  0  0  0
    2.4177    8.5913    7.9109 C   0  0  0  0  0  0  0  0  0  0  0  0
  1  2  1  0  0  0
  2  3  2  0  0  0
  2  4  1  0  0  0
  4  5  1  0  0  0
  5  6  2  0  0  0
  6  7  1  0  0  0
  7  8  2  0  0  0
  8 15  1  0  0  0
 15 16  2  0  0  0
 16 17  1  0  0  0
 17 18  2  0  0  0
 18 21  1  0  0  0
 21 22  1  0  0  0
 21 23  1  0  0  0
 21 24  1  0  0  0
 18 19  1  0  0  0
 19 20  2  0  0  0
  8  9  1  0  0  0
  9 10  2  0  0  0
 10 11  1  0  0  0
 11 25  1  0  0  0
 25 27  1  0  0  0
 27 28  2  0  0  0
 28 29  1  0  0  0
 29 30  2  0  0  0
 30 31  1  0  0  0
 31 32  2  0  0  0
 11 12  1  0  0  0
 12 13  1  0  0  0
 13 14  1  0  0  0
 13  4  1  0  0  0
 10  5  1  0  0  0
 32 27  1  0  0  0
 20 15  1  0  0  0
 25 26  1  0  0  0
M  END
> <minimizedAffinity>
-5.28872

> <CNNscore>
0.5107395053

> <CNNaffinity>
5.4100441933

> <CNN_VS>
2.7631232738

> <CNNaffinity_variance>
0.2210287601

$$$$
[H]c1c([H])c([H])c(N([H])[C@@]2([H])c3c([H])c(-c4c([H])c([H])c(C(F)(F)F)c([H])c4[H])c([H])c([H])c3N(C(=O)C([H])([H])[H])[C@@]([H])(C([H])([H])[H])C2([H])[H])c([H])c1[H]


 32 35  0  0  0  0  0  0  0  0999 V2000
    3.6072    4.1798   15.4346 C   0  0  0  0  0  0  0  0  0  0  0  0
    2.3333    4.7519   14.9800 C   0  0  0  0  0  0  0  0  0  0  0  0
    1.5331    5.1780   15.8812 O   0  0  0  0  0  0  0  0  0  0  0  0
    1.9580    4.8430   13.6244 N   0  0  0  0  0  0  0  0  0  0  0  0
    2.7859    4.6528   12.4970 C   0  0  0  0  0  0  0  0  0  0  0  0
    4.1365    4.9714   12.5847 C   0  0  0  0  0  0  0  0  0  0  0  0
    4.9288    4.7046   11.4939 C   0  0  0  0  0  0  0  0  0  0  0  0
    4.4760    4.1430   10.3153 C   0  0  0  0  0  0  0  0  0  0  0  0
    3.1356    3.8466   10.2565 C   0  0  0  0  0  0  0  0  0  0  0  0
    2.2901    4.0996   11.3417 C   0  0  0  0  0  0  0  0  0  0  0  0
    0.8673    3.8019   11.1330 C   0  0  0  0  0  0  0  0  0  0  0  0
    0.0313    4.0262   12.3625 C   0  0  0  0  0  0  0  0  0  0  0  0
    0.5404    5.0818   13.2853 C   0  0  0  0  0  0  0  0  0  0  0  0
    0.3214    6.4972   12.9022 C   0  0  0  0  0  0  0  0  0  0  0  0
    5.3655    3.8419    9.1886 C   0  0  0  0  0  0  0  0  0  0  0  0
    6.3065    4.7752    8.7745 C   0  0  0  0  0  0  0  0  0  0  0  0
    7.2053    4.5347    7.7593 C   0  0  0  0  0  0  0  0  0  0  0  0
    7.1641    3.3038    7.1194 C   0  0  0  0  0  0  0  0  0  0  0  0
    6.2418    2.3541    7.5014 C   0  0  0  0  0  0  0  0  0  0  0  0
    5.3486    2.6376    8.5369 C   0  0  0  0  0  0  0  0  0  0  0  0
    8.1646    3.0578    6.0198 C   0  0  0  0  0  0  0  0  0  0  0  0
    7.5746    2.3377    4.9943 F   0  0  0  0  0  0  0  0  0  0  0  0
    9.2537    2.3639    6.4533 F   0  0  0  0  0  0  0  0  0  0  0  0
    8.4752    4.3006    5.4745 F   0  0  0  0  0  0  0  0  0  0  0  0
    0.3856    4.6850   10.0511 N   0  0  0  0  0  0  0  0  0  0  0  0
    0.5457    5.7081   10.1816 H   0  0  0  0  0  0  0  0  0  0  0  0
   -0.2654    4.1477    8.9048 C   0  0  0  0  0  0  0  0  0  0  0  0
   -0.9474    4.9846    8.0361 C   0  0  0  0  0  0  0  0  0  0  0  0
   -1.5113    4.4362    6.9099 C   0  0  0  0  0  0  0  0  0  0  0  0
   -1.4433    3.1036    6.5901 C   0  0  0  0  0  0  0  0  0  0  0  0
   -0.7646    2.2517    7.4519 C   0  0  0  0  0  0  0  0  0  0  0  0
   -0.1929    2.7884    8.5846 C   0  0  0  0  0  0  0  0  0  0  0  0
  1  2  1  0  0  0
  2  3  2  0  0  0
  2  4  1  0  0  0
  4  5  1  0  0  0
  5  6  2  0  0  0
  6  7  1  0  0  0
  7  8  2  0  0  0
  8 15  1  0  0  0
 15 16  2  0  0  0
 16 17  1  0  0  0
 17 18  2  0  0  0
 18 21  1  0  0  0
 21 22  1  0  0  0
 21 23  1  0  0  0
 21 24  1  0  0  0
 18 19  1  0  0  0
 19 20  2  0  0  0
  8  9  1  0  0  0
  9 10  2  0  0  0
 10 11  1  0  0  0
 11 25  1  0  0  0
 25 27  1  0  0  0
 27 28  2  0  0  0
 28 29  1  0  0  0
 29 30  2  0  0  0
 30 31  1  0  0  0
 31 32  2  0  0  0
 11 12  1  0  0  0
 12 13  1  0  0  0
 13 14  1  0  0  0
 13  4  1  0  0  0
 10  5  1  0  0  0
 32 27  1  0  0  0
 20 15  1  0  0  0
 25 26  1  0  0  0
M  END
> <minimizedAffinity>
-4.61600

> <CNNscore>
0.5023187399

> <CNNaffinity>
5.7722454071

> <CNN_VS>
2.8995070457

> <CNNaffinity_variance>
1.0908209085

$$$$
[H]c1c([H])c([H])c(N([H])[C@@]2([H])c3c([H])c(-c4c([H])c([H])c(C(F)(F)F)c([H])c4[H])c([H])c([H])c3N(C(=O)C([H])([H])[H])[C@@]([H])(C([H])([H])[H])C2([H])[H])c([H])c1[H]


 32 35  0  0  0  0  0  0  0  0999 V2000
    3.9010    3.8006   11.5912 C   0  0  0  0  0  0  0  0  0  0  0  0
    2.6579    4.5812   11.5420 C   0  0  0  0  0  0  0  0  0  0  0  0
    1.8544    4.4571   12.5284 O   0  0  0  0  0  0  0  0  0  0  0  0
    2.3148    5.4362   10.4753 N   0  0  0  0  0  0  0  0  0  0  0  0
    3.1591    5.8814    9.4353 C   0  0  0  0  0  0  0  0  0  0  0  0
    4.5179    6.0393    9.6842 C   0  0  0  0  0  0  0  0  0  0  0  0
    5.3231    6.4020    8.6311 C   0  0  0  0  0  0  0  0  0  0  0  0
    4.8758    6.6221    7.3424 C   0  0  0  0  0  0  0  0  0  0  0  0
    3.5273    6.4659    7.1299 C   0  0  0  0  0  0  0  0  0  0  0  0
    2.6685    6.0970    8.1706 C   0  0  0  0  0  0  0  0  0  0  0  0
    1.2408    6.0275    7.8338 C   0  0  0  0  0  0  0  0  0  0  0  0
    0.3875    5.5534    8.9774 C   0  0  0  0  0  0  0  0  0  0  0  0
    0.9139    5.8825   10.3337 C   0  0  0  0  0  0  0  0  0  0  0  0
    0.7530    7.2749   10.8169 C   0  0  0  0  0  0  0  0  0  0  0  0
    5.7778    6.9729    6.2402 C   0  0  0  0  0  0  0  0  0  0  0  0
    7.0721    7.3989    6.5071 C   0  0  0  0  0  0  0  0  0  0  0  0
    7.9841    7.6925    5.5181 C   0  0  0  0  0  0  0  0  0  0  0  0
    7.5880    7.5597    4.1946 C   0  0  0  0  0  0  0  0  0  0  0  0
    6.3103    7.1423    3.8916 C   0  0  0  0  0  0  0  0  0  0  0  0
    5.4163    6.8533    4.9248 C   0  0  0  0  0  0  0  0  0  0  0  0
    8.6060    7.8746    3.1291 C   0  0  0  0  0  0  0  0  0  0  0  0
    8.1374    8.8889    2.3106 F   0  0  0  0  0  0  0  0  0  0  0  0
    8.8909    6.7962    2.3471 F   0  0  0  0  0  0  0  0  0  0  0  0
    9.7181    8.4018    3.7799 F   0  0  0  0  0  0  0  0  0  0  0  0
    0.8135    7.3858    7.4403 N   0  0  0  0  0  0  0  0  0  0  0  0
    1.0462    8.1561    8.1052 H   0  0  0  0  0  0  0  0  0  0  0  0
    0.1170    7.6075    6.2188 C   0  0  0  0  0  0  0  0  0  0  0  0
   -1.0249    8.3923    6.2017 C   0  0  0  0  0  0  0  0  0  0  0  0
   -1.6341    8.6313    4.9939 C   0  0  0  0  0  0  0  0  0  0  0  0
   -1.1817    8.1372    3.7964 C   0  0  0  0  0  0  0  0  0  0  0  0
   -0.0392    7.3475    3.7974 C   0  0  0  0  0  0  0  0  0  0  0  0
    0.5828    7.1006    5.0015 C   0  0  0  0  0  0  0  0  0  0  0  0
  1  2  1  0  0  0
  2  3  2  0  0  0
  2  4  1  0  0  0
  4  5  1  0  0  0
  5  6  2  0  0  0
  6  7  1  0  0  0
  7  8  2  0  0  0
  8 15  1  0  0  0
 15 16  2  0  0  0
 16 17  1  0  0  0
 17 18  2  0  0  0
 18 21  1  0  0  0
 21 22  1  0  0  0
 21 23  1  0  0  0
 21 24  1  0  0  0
 18 19  1  0  0  0
 19 20  2  0  0  0
  8  9  1  0  0  0
  9 10  2  0  0  0
 10 11  1  0  0  0
 11 25  1  0  0  0
 25 27  1  0  0  0
 27 28  2  0  0  0
 28 29  1  0  0  0
 29 30  2  0  0  0
 30 31  1  0  0  0
 31 32  2  0  0  0
 11 12  1  0  0  0
 12 13  1  0  0  0
 13 14  1  0  0  0
 13  4  1  0  0  0
 10  5  1  0  0  0
 32 27  1  0  0  0
 20 15  1  0  0  0
 25 26  1  0  0  0
M  END
> <minimizedAffinity>
-3.33675

> <CNNscore>
0.4940929115

> <CNNaffinity>
5.4404277802

> <CNN_VS>
2.6880767345

> <CNNaffinity_variance>
1.1971443892

$$$$
[H]c1c([H])c([H])c(N([H])[C@@]2([H])c3c([H])c(-c4c([H])c([H])c(C(F)(F)F)c([H])c4[H])c([H])c([H])c3N(C(=O)C([H])([H])[H])[C@@]([H])(C([H])([H])[H])C2([H])[H])c([H])c1[H]


 32 35  0  0  0  0  0  0  0  0999 V2000
    3.0354    1.6133   10.5287 C   0  0  0  0  0  0  0  0  0  0  0  0
    2.6852    3.0368   10.6164 C   0  0  0  0  0  0  0  0  0  0  0  0
    2.3757    3.6273    9.5257 O   0  0  0  0  0  0  0  0  0  0  0  0
    2.6830    3.7674   11.8217 N   0  0  0  0  0  0  0  0  0  0  0  0
    2.7598    3.2484   13.1322 C   0  0  0  0  0  0  0  0  0  0  0  0
    2.2261    1.9923   13.3976 C   0  0  0  0  0  0  0  0  0  0  0  0
    2.3835    1.4851   14.6652 C   0  0  0  0  0  0  0  0  0  0  0  0
    3.0343    2.1377   15.6948 C   0  0  0  0  0  0  0  0  0  0  0  0
    3.5439    3.3801   15.4038 C   0  0  0  0  0  0  0  0  0  0  0  0
    3.4088    3.9371   14.1278 C   0  0  0  0  0  0  0  0  0  0  0  0
    3.9360    5.2973   13.9595 C   0  0  0  0  0  0  0  0  0  0  0  0
    3.8248    5.8024   12.5476 C   0  0  0  0  0  0  0  0  0  0  0  0
    2.6827    5.2435   11.7678 C   0  0  0  0  0  0  0  0  0  0  0  0
    1.3291    5.7806   12.0457 C   0  0  0  0  0  0  0  0  0  0  0  0
    3.2106    1.5421   17.0235 C   0  0  0  0  0  0  0  0  0  0  0  0
    4.0403    2.1506   17.9559 C   0  0  0  0  0  0  0  0  0  0  0  0
    4.2077    1.6723   19.2363 C   0  0  0  0  0  0  0  0  0  0  0  0
    3.5176    0.5271   19.6084 C   0  0  0  0  0  0  0  0  0  0  0  0
    2.6875   -0.1055   18.7088 C   0  0  0  0  0  0  0  0  0  0  0  0
    2.5446    0.4131   17.4200 C   0  0  0  0  0  0  0  0  0  0  0  0
    3.7063    0.0286   21.0179 C   0  0  0  0  0  0  0  0  0  0  0  0
    4.8837    0.5325   21.5453 F   0  0  0  0  0  0  0  0  0  0  0  0
    3.7588   -1.3309   21.0861 F   0  0  0  0  0  0  0  0  0  0  0  0
    2.6845    0.5869   21.7812 F   0  0  0  0  0  0  0  0  0  0  0  0
    3.1640    6.1839   14.8541 N   0  0  0  0  0  0  0  0  0  0  0  0
    2.1325    6.2161   14.6979 H   0  0  0  0  0  0  0  0  0  0  0  0
    3.8140    6.9488   15.8634 C   0  0  0  0  0  0  0  0  0  0  0  0
    4.3454    8.1921   15.5599 C   0  0  0  0  0  0  0  0  0  0  0  0
    4.9114    8.9250   16.5745 C   0  0  0  0  0  0  0  0  0  0  0  0
    4.9863    8.5000   17.8771 C   0  0  0  0  0  0  0  0  0  0  0  0
    4.4597    7.2553   18.1967 C   0  0  0  0  0  0  0  0  0  0  0  0
    3.8876    6.5100   17.1891 C   0  0  0  0  0  0  0  0  0  0  0  0
  1  2  1  0  0  0
  2  3  2  0  0  0
  2  4  1  0  0  0
  4  5  1  0  0  0
  5  6  2  0  0  0
  6  7  1  0  0  0
  7  8  2  0  0  0
  8 15  1  0  0  0
 15 16  2  0  0  0
 16 17  1  0  0  0
 17 18  2  0  0  0
 18 21  1  0  0  0
 21 22  1  0  0  0
 21 23  1  0  0  0
 21 24  1  0  0  0
 18 19  1  0  0  0
 19 20  2  0  0  0
  8  9  1  0  0  0
  9 10  2  0  0  0
 10 11  1  0  0  0
 11 25  1  0  0  0
 25 27  1  0  0  0
 27 28  2  0  0  0
 28 29  1  0  0  0
 29 30  2  0  0  0
 30 31  1  0  0  0
 31 32  2  0  0  0
 11 12  1  0  0  0
 12 13  1  0  0  0
 13 14  1  0  0  0
 13  4  1  0  0  0
 10  5  1  0  0  0
 32 27  1  0  0  0
 20 15  1  0  0  0
 25 26  1  0  0  0
M  END
> <minimizedAffinity>
-8.90284

> <CNNscore>
0.4787347913

> <CNNaffinity>
6.4023041725

> <CNN_VS>
3.0650057793

> <CNNaffinity_variance>
0.3421638012

$$$$
[H]c1c([H])c([H])c(N([H])[C@@]2([H])c3c([H])c(-c4c([H])c([H])c(C(F)(F)F)c([H])c4[H])c([H])c([H])c3N(C(=O)C([H])([H])[H])[C@@]([H])(C([H])([H])[H])C2([H])[H])c([H])c1[H]


 32 35  0  0  0  0  0  0  0  0999 V2000
    3.4978    0.8444   22.4685 C   0  0  0  0  0  0  0  0  0  0  0  0
    4.2648    2.0561   22.7850 C   0  0  0  0  0  0  0  0  0  0  0  0
    4.6919    2.1769   23.9837 O   0  0  0  0  0  0  0  0  0  0  0  0
    4.5383    3.0736   21.8487 N   0  0  0  0  0  0  0  0  0  0  0  0
    4.3637    3.0124   20.4493 C   0  0  0  0  0  0  0  0  0  0  0  0
    4.5040    1.7910   19.8001 C   0  0  0  0  0  0  0  0  0  0  0  0
    4.2543    1.7521   18.4492 C   0  0  0  0  0  0  0  0  0  0  0  0
    3.8750    2.8433   17.6909 C   0  0  0  0  0  0  0  0  0  0  0  0
    3.7525    4.0375   18.3593 C   0  0  0  0  0  0  0  0  0  0  0  0
    3.9956    4.1258   19.7340 C   0  0  0  0  0  0  0  0  0  0  0  0
    3.8971    5.4684   20.3208 C   0  0  0  0  0  0  0  0  0  0  0  0
    4.0960    5.4767   21.8112 C   0  0  0  0  0  0  0  0  0  0  0  0
    4.9821    4.3964   22.3335 C   0  0  0  0  0  0  0  0  0  0  0  0
    6.4452    4.5586   22.1571 C   0  0  0  0  0  0  0  0  0  0  0  0
    3.5833    2.7480   16.2566 C   0  0  0  0  0  0  0  0  0  0  0  0
    2.8684    1.6658   15.7609 C   0  0  0  0  0  0  0  0  0  0  0  0
    2.5165    1.5429   14.4353 C   0  0  0  0  0  0  0  0  0  0  0  0
    2.8987    2.5459   13.5554 C   0  0  0  0  0  0  0  0  0  0  0  0
    3.6117    3.6334   14.0109 C   0  0  0  0  0  0  0  0  0  0  0  0
    3.9473    3.7203   15.3637 C   0  0  0  0  0  0  0  0  0  0  0  0
    2.4925    2.3968   12.1120 C   0  0  0  0  0  0  0  0  0  0  0  0
    3.0703    1.2598   11.5720 F   0  0  0  0  0  0  0  0  0  0  0  0
    2.8672    3.4642   11.3533 F   0  0  0  0  0  0  0  0  0  0  0  0
    1.1205    2.1600   12.1036 F   0  0  0  0  0  0  0  0  0  0  0  0
    4.9378    6.3042   19.6878 N   0  0  0  0  0  0  0  0  0  0  0  0
    5.9212    5.9657   19.7753 H   0  0  0  0  0  0  0  0  0  0  0  0
    4.5951    7.5062   19.0065 C   0  0  0  0  0  0  0  0  0  0  0  0
    4.5815    7.5408   17.6212 C   0  0  0  0  0  0  0  0  0  0  0  0
    4.1876    8.7018   17.0015 C   0  0  0  0  0  0  0  0  0  0  0  0
    3.8065    9.8369   17.6718 C   0  0  0  0  0  0  0  0  0  0  0  0
    3.8165    9.8183   19.0605 C   0  0  0  0  0  0  0  0  0  0  0  0
    4.2081    8.6600   19.6952 C   0  0  0  0  0  0  0  0  0  0  0  0
  1  2  1  0  0  0
  2  3  2  0  0  0
  2  4  1  0  0  0
  4  5  1  0  0  0
  5  6  2  0  0  0
  6  7  1  0  0  0
  7  8  2  0  0  0
  8 15  1  0  0  0
 15 16  2  0  0  0
 16 17  1  0  0  0
 17 18  2  0  0  0
 18 21  1  0  0  0
 21 22  1  0  0  0
 21 23  1  0  0  0
 21 24  1  0  0  0
 18 19  1  0  0  0
 19 20  2  0  0  0
  8  9  1  0  0  0
  9 10  2  0  0  0
 10 11  1  0  0  0
 11 25  1  0  0  0
 25 27  1  0  0  0
 27 28  2  0  0  0
 28 29  1  0  0  0
 29 30  2  0  0  0
 30 31  1  0  0  0
 31 32  2  0  0  0
 11 12  1  0  0  0
 12 13  1  0  0  0
 13 14  1  0  0  0
 13  4  1  0  0  0
 10  5  1  0  0  0
 32 27  1  0  0  0
 20 15  1  0  0  0
 25 26  1  0  0  0
M  END
> <minimizedAffinity>
-10.54536

> <CNNscore>
0.4689312875

> <CNNaffinity>
6.4400758743

> <CNN_VS>
3.0199530125

> <CNNaffinity_variance>
0.2548828721

$$$$
[H]c1c([H])c([H])c(N([H])[C@@]2([H])c3c([H])c(-c4c([H])c([H])c(C(F)(F)F)c([H])c4[H])c([H])c([H])c3N(C(=O)C([H])([H])[H])[C@@]([H])(C([H])([H])[H])C2([H])[H])c([H])c1[H]


 32 35  0  0  0  0  0  0  0  0999 V2000
    3.0858    0.5412   22.0393 C   0  0  0  0  0  0  0  0  0  0  0  0
    3.9427    1.6449   22.4914 C   0  0  0  0  0  0  0  0  0  0  0  0
    4.3096    1.6317   23.7159 O   0  0  0  0  0  0  0  0  0  0  0  0
    4.3630    2.6995   21.6560 N   0  0  0  0  0  0  0  0  0  0  0  0
    4.2642    2.7626   20.2493 C   0  0  0  0  0  0  0  0  0  0  0  0
    4.3275    1.5865   19.5105 C   0  0  0  0  0  0  0  0  0  0  0  0
    4.1533    1.6754   18.1502 C   0  0  0  0  0  0  0  0  0  0  0  0
    3.9213    2.8529   17.4654 C   0  0  0  0  0  0  0  0  0  0  0  0
    3.8722    3.9989   18.2219 C   0  0  0  0  0  0  0  0  0  0  0  0
    4.0429    3.9578   19.6097 C   0  0  0  0  0  0  0  0  0  0  0  0
    4.0361    5.2549   20.2982 C   0  0  0  0  0  0  0  0  0  0  0  0
    4.1490    5.1300   21.7924 C   0  0  0  0  0  0  0  0  0  0  0  0
    4.8992    3.9319   22.2686 C   0  0  0  0  0  0  0  0  0  0  0  0
    6.3788    3.9641   22.1793 C   0  0  0  0  0  0  0  0  0  0  0  0
    3.7050    2.8962   16.0153 C   0  0  0  0  0  0  0  0  0  0  0  0
    3.0309    1.8620   15.3798 C   0  0  0  0  0  0  0  0  0  0  0  0
    2.7493    1.8667   14.0319 C   0  0  0  0  0  0  0  0  0  0  0  0
    3.1628    2.9542   13.2751 C   0  0  0  0  0  0  0  0  0  0  0  0
    3.8370    3.9977   13.8711 C   0  0  0  0  0  0  0  0  0  0  0  0
    4.1015    3.9543   15.2417 C   0  0  0  0  0  0  0  0  0  0  0  0
    2.8333    2.9439   11.8047 C   0  0  0  0  0  0  0  0  0  0  0  0
    3.9000    3.4437   11.0763 F   0  0  0  0  0  0  0  0  0  0  0  0
    1.7329    3.6921   11.5131 F   0  0  0  0  0  0  0  0  0  0  0  0
    2.7159    1.6084   11.4291 F   0  0  0  0  0  0  0  0  0  0  0  0
    5.1847    6.0315   19.7882 N   0  0  0  0  0  0  0  0  0  0  0  0
    5.7576    5.5772   19.0434 H   0  0  0  0  0  0  0  0  0  0  0  0
    5.4791    7.3249   20.3047 C   0  0  0  0  0  0  0  0  0  0  0  0
    4.5887    8.3694   20.1138 C   0  0  0  0  0  0  0  0  0  0  0  0
    4.8806    9.5870   20.6787 C   0  0  0  0  0  0  0  0  0  0  0  0
    6.0062    9.8363   21.4229 C   0  0  0  0  0  0  0  0  0  0  0  0
    6.9091    8.7999   21.6216 C   0  0  0  0  0  0  0  0  0  0  0  0
    6.6284    7.5729   21.0619 C   0  0  0  0  0  0  0  0  0  0  0  0
  1  2  1  0  0  0
  2  3  2  0  0  0
  2  4  1  0  0  0
  4  5  1  0  0  0
  5  6  2  0  0  0
  6  7  1  0  0  0
  7  8  2  0  0  0
  8 15  1  0  0  0
 15 16  2  0  0  0
 16 17  1  0  0  0
 17 18  2  0  0  0
 18 21  1  0  0  0
 21 22  1  0  0  0
 21 23  1  0  0  0
 21 24  1  0  0  0
 18 19  1  0  0  0
 19 20  2  0  0  0
  8  9  1  0  0  0
  9 10  2  0  0  0
 10 11  1  0  0  0
 11 25  1  0  0  0
 25 27  1  0  0  0
 27 28  2  0  0  0
 28 29  1  0  0  0
 29 30  2  0  0  0
 30 31  1  0  0  0
 31 32  2  0  0  0
 11 12  1  0  0  0
 12 13  1  0  0  0
 13 14  1  0  0  0
 13  4  1  0  0  0
 10  5  1  0  0  0
 32 27  1  0  0  0
 20 15  1  0  0  0
 25 26  1  0  0  0
M  END
> <minimizedAffinity>
-10.54586

> <CNNscore>
0.4646042883

> <CNNaffinity>
6.4117903709

> <CNN_VS>
2.9789452553

> <CNNaffinity_variance>
0.2022353411

$$$$
[H]c1c([H])c([H])c(N([H])[C@@]2([H])c3c([H])c(-c4c([H])c([H])c(C(F)(F)F)c([H])c4[H])c([H])c([H])c3N(C(=O)C([H])([H])[H])[C@@]([H])(C([H])([H])[H])C2([H])[H])c([H])c1[H]


 32 35  0  0  0  0  0  0  0  0999 V2000
    1.6313    6.1696   11.0915 C   0  0  0  0  0  0  0  0  0  0  0  0
    3.0436    6.5215   10.8954 C   0  0  0  0  0  0  0  0  0  0  0  0
    3.3895    7.7183   11.1822 O   0  0  0  0  0  0  0  0  0  0  0  0
    4.0122    5.6209   10.4083 N   0  0  0  0  0  0  0  0  0  0  0  0
    3.8802    4.2225   10.2673 C   0  0  0  0  0  0  0  0  0  0  0  0
    3.0585    3.5259   11.1463 C   0  0  0  0  0  0  0  0  0  0  0  0
    2.8935    2.1778   10.9355 C   0  0  0  0  0  0  0  0  0  0  0  0
    3.4889    1.4664    9.9115 C   0  0  0  0  0  0  0  0  0  0  0  0
    4.3012    2.1810    9.0644 C   0  0  0  0  0  0  0  0  0  0  0  0
    4.4988    3.5547    9.2387 C   0  0  0  0  0  0  0  0  0  0  0  0
    5.4409    4.1930    8.3105 C   0  0  0  0  0  0  0  0  0  0  0  0
    5.5469    5.6799    8.5075 C   0  0  0  0  0  0  0  0  0  0  0  0
    5.2946    6.1494    9.9006 C   0  0  0  0  0  0  0  0  0  0  0  0
    6.3746    5.9601   10.8986 C   0  0  0  0  0  0  0  0  0  0  0  0
    3.2553    0.0335    9.7027 C   0  0  0  0  0  0  0  0  0  0  0  0
    2.0011   -0.4194    9.3156 C   0  0  0  0  0  0  0  0  0  0  0  0
    1.7300   -1.7436    9.0526 C   0  0  0  0  0  0  0  0  0  0  0  0
    2.7579   -2.6667    9.1851 C   0  0  0  0  0  0  0  0  0  0  0  0
    4.0150   -2.2543    9.5703 C   0  0  0  0  0  0  0  0  0  0  0  0
    4.2484   -0.9014    9.8263 C   0  0  0  0  0  0  0  0  0  0  0  0
    2.4417   -4.1082    8.8805 C   0  0  0  0  0  0  0  0  0  0  0  0
    3.6112   -4.8084    8.6349 F   0  0  0  0  0  0  0  0  0  0  0  0
    1.6300   -4.2444    7.7952 F   0  0  0  0  0  0  0  0  0  0  0  0
    1.9135   -4.6580   10.0454 F   0  0  0  0  0  0  0  0  0  0  0  0
    6.7656    3.5784    8.5338 N   0  0  0  0  0  0  0  0  0  0  0  0
    7.0155    3.3622    9.5239 H   0  0  0  0  0  0  0  0  0  0  0  0
    7.6402    3.3110    7.4430 C   0  0  0  0  0  0  0  0  0  0  0  0
    9.0108    3.4385    7.6030 C   0  0  0  0  0  0  0  0  0  0  0  0
    9.8241    3.1138    6.5447 C   0  0  0  0  0  0  0  0  0  0  0  0
    9.3620    2.6705    5.3311 C   0  0  0  0  0  0  0  0  0  0  0  0
    7.9907    2.5391    5.1548 C   0  0  0  0  0  0  0  0  0  0  0  0
    7.1631    2.8601    6.2083 C   0  0  0  0  0  0  0  0  0  0  0  0
  1  2  1  0  0  0
  2  3  2  0  0  0
  2  4  1  0  0  0
  4  5  1  0  0  0
  5  6  2  0  0  0
  6  7  1  0  0  0
  7  8  2  0  0  0
  8 15  1  0  0  0
 15 16  2  0  0  0
 16 17  1  0  0  0
 17 18  2  0  0  0
 18 21  1  0  0  0
 21 22  1  0  0  0
 21 23  1  0  0  0
 21 24  1  0  0  0
 18 19  1  0  0  0
 19 20  2  0  0  0
  8  9  1  0  0  0
  9 10  2  0  0  0
 10 11  1  0  0  0
 11 25  1  0  0  0
 25 27  1  0  0  0
 27 28  2  0  0  0
 28 29  1  0  0  0
 29 30  2  0  0  0
 30 31  1  0  0  0
 31 32  2  0  0  0
 11 12  1  0  0  0
 12 13  1  0  0  0
 13 14  1  0  0  0
 13  4  1  0  0  0
 10  5  1  0  0  0
 32 27  1  0  0  0
 20 15  1  0  0  0
 25 26  1  0  0  0
M  END
> <minimizedAffinity>
-5.66827

> <CNNscore>
0.4599033296

> <CNNaffinity>
5.1561722755

> <CNN_VS>
2.3713407516

> <CNNaffinity_variance>
0.0913683921

$$$$
[H]c1c([H])c([H])c(N([H])[C@@]2([H])c3c([H])c(-c4c([H])c([H])c(C(F)(F)F)c([H])c4[H])c([H])c([H])c3N(C(=O)C([H])([H])[H])[C@@]([H])(C([H])([H])[H])C2([H])[H])c([H])c1[H]


 32 35  0  0  0  0  0  0  0  0999 V2000
    7.9487    4.6068   15.9484 C   0  0  0  0  0  0  0  0  0  0  0  0
    7.6005    4.5838   17.3749 C   0  0  0  0  0  0  0  0  0  0  0  0
    8.5656    4.6575   18.2099 O   0  0  0  0  0  0  0  0  0  0  0  0
    6.2793    4.4783   17.8544 N   0  0  0  0  0  0  0  0  0  0  0  0
    5.0889    4.6252   17.1099 C   0  0  0  0  0  0  0  0  0  0  0  0
    5.0745    5.4808   16.0141 C   0  0  0  0  0  0  0  0  0  0  0  0
    3.9226    5.5440   15.2671 C   0  0  0  0  0  0  0  0  0  0  0  0
    2.7772    4.8174   15.5304 C   0  0  0  0  0  0  0  0  0  0  0  0
    2.8198    3.9870   16.6243 C   0  0  0  0  0  0  0  0  0  0  0  0
    3.9701    3.8887   17.4141 C   0  0  0  0  0  0  0  0  0  0  0  0
    3.8697    3.0191   18.5932 C   0  0  0  0  0  0  0  0  0  0  0  0
    5.1628    2.9023   19.3516 C   0  0  0  0  0  0  0  0  0  0  0  0
    6.0540    4.0951   19.2630 C   0  0  0  0  0  0  0  0  0  0  0  0
    5.7037    5.2803   20.0819 C   0  0  0  0  0  0  0  0  0  0  0  0
    1.5816    4.8894   14.6838 C   0  0  0  0  0  0  0  0  0  0  0  0
    0.8290    6.0553   14.6378 C   0  0  0  0  0  0  0  0  0  0  0  0
   -0.2723    6.2058   13.8250 C   0  0  0  0  0  0  0  0  0  0  0  0
   -0.6478    5.1404   13.0186 C   0  0  0  0  0  0  0  0  0  0  0  0
    0.0735    3.9665   13.0400 C   0  0  0  0  0  0  0  0  0  0  0  0
    1.1851    3.8556   13.8780 C   0  0  0  0  0  0  0  0  0  0  0  0
   -1.8485    5.3314   12.1284 C   0  0  0  0  0  0  0  0  0  0  0  0
   -2.4840    4.1180   11.9228 F   0  0  0  0  0  0  0  0  0  0  0  0
   -1.5174    5.8481   10.9123 F   0  0  0  0  0  0  0  0  0  0  0  0
   -2.7548    6.1134   12.8393 F   0  0  0  0  0  0  0  0  0  0  0  0
    2.8377    3.5949   19.4797 N   0  0  0  0  0  0  0  0  0  0  0  0
    1.9759    3.9560   19.0148 H   0  0  0  0  0  0  0  0  0  0  0  0
    3.0330    3.6499   20.8887 C   0  0  0  0  0  0  0  0  0  0  0  0
    3.2112    4.8711   21.5190 C   0  0  0  0  0  0  0  0  0  0  0  0
    3.3366    4.8871   22.8868 C   0  0  0  0  0  0  0  0  0  0  0  0
    3.2985    3.7630   23.6729 C   0  0  0  0  0  0  0  0  0  0  0  0
    3.1222    2.5314   23.0556 C   0  0  0  0  0  0  0  0  0  0  0  0
    2.9937    2.5007   21.6844 C   0  0  0  0  0  0  0  0  0  0  0  0
  1  2  1  0  0  0
  2  3  2  0  0  0
  2  4  1  0  0  0
  4  5  1  0  0  0
  5  6  2  0  0  0
  6  7  1  0  0  0
  7  8  2  0  0  0
  8 15  1  0  0  0
 15 16  2  0  0  0
 16 17  1  0  0  0
 17 18  2  0  0  0
 18 21  1  0  0  0
 21 22  1  0  0  0
 21 23  1  0  0  0
 21 24  1  0  0  0
 18 19  1  0  0  0
 19 20  2  0  0  0
  8  9  1  0  0  0
  9 10  2  0  0  0
 10 11  1  0  0  0
 11 25  1  0  0  0
 25 27  1  0  0  0
 27 28  2  0  0  0
 28 29  1  0  0  0
 29 30  2  0  0  0
 30 31  1  0  0  0
 31 32  2  0  0  0
 11 12  1  0  0  0
 12 13  1  0  0  0
 13 14  1  0  0  0
 13  4  1  0  0  0
 10  5  1  0  0  0
 32 27  1  0  0  0
 20 15  1  0  0  0
 25 26  1  0  0  0
M  END
> <minimizedAffinity>
16.98813

> <CNNscore>
0.4217795432

> <CNNaffinity>
5.8076472282

> <CNN_VS>
2.4495468140

> <CNNaffinity_variance>
1.9355999231

$$$$
[H]c1nc(OC2([H])C([H])([H])[C@@]3([H])N(C(=O)OC(C([H])([H])[H])(C([H])([H])[H])C([H])([H])[H])[C@]([H])(C2([H])[H])C([H])([H])C3([H])[H])c([N+](=O)[O-])c(N([H])c2c([H])c([H])c(S(=O)(=O)C([H])([H])[H])c([H])c2[H])n1


 37 40  0  0  0  0  0  0  0  0999 V2000
    6.4802    8.4109   18.8396 C   0  0  0  0  0  0  0  0  0  0  0  0
    7.8139    8.7922   18.2688 N   0  0  0  0  0  0  0  0  0  0  0  0
    7.8925    9.4603   16.9282 C   0  0  0  0  0  0  0  0  0  0  0  0
    6.6375    9.7471   16.1583 N   0  0  0  0  0  0  0  0  0  0  0  0
    5.3038    9.3658   16.7291 C   0  0  0  0  0  0  0  0  0  0  0  0
    5.2252    8.6977   18.0698 C   0  0  0  0  0  0  0  0  0  0  0  0
    3.8915    8.3164   18.6406 N   0  0  0  0  0  0  0  0  0  0  0  0
    3.0007    9.3680   19.2328 O   0  0  0  0  0  0  0  0  0  0  0  0
    3.1509    7.0196   18.7824 O   0  0  0  0  0  0  0  0  0  0  0  0
    4.0488    9.6526   15.9592 N   0  0  0  0  0  0  0  0  0  0  0  0
    3.2961   10.9275   16.1999 H   0  0  0  0  0  0  0  0  0  0  0  0
    3.5465    8.6644   14.9487 C   0  0  0  0  0  0  0  0  0  0  0  0
    2.6739    9.1247   13.8188 C   0  0  0  0  0  0  0  0  0  0  0  0
    2.1718    8.1365   12.8083 C   0  0  0  0  0  0  0  0  0  0  0  0
    2.5421    6.6878   12.9277 C   0  0  0  0  0  0  0  0  0  0  0  0
    3.4147    6.2275   14.0576 C   0  0  0  0  0  0  0  0  0  0  0  0
    3.9169    7.2157   15.0681 C   0  0  0  0  0  0  0  0  0  0  0  0
    2.0400    5.6996   11.9172 S   0  0  0  0  0  0  0  0  0  0  0  0
    1.5377    4.7112   10.9067 C   0  0  0  0  0  0  0  0  0  0  0  0
    1.4977    6.8245   11.0864 O   0  0  0  0  0  0  0  0  0  0  0  0
    2.5822    4.5745   12.7480 O   0  0  0  0  0  0  0  0  0  0  0  0
    6.4014    7.7428   20.1803 O   0  0  0  0  0  0  0  0  0  0  0  0
    6.1299    6.4279   20.2473 C   0  0  0  0  0  0  0  0  0  0  0  0
    7.0733    6.2594   19.0934 O   0  0  0  0  0  0  0  0  0  0  0  0
    5.2939    5.4812   21.0566 N   0  0  0  0  0  0  0  0  0  0  0  0
    4.3945    5.8538   22.1978 C   0  0  0  0  0  0  0  0  0  0  0  0
    3.7553    4.5985   22.7132 C   0  0  0  0  0  0  0  0  0  0  0  0
    4.2596    3.4501   21.8906 C   0  0  0  0  0  0  0  0  0  0  0  0
    5.2105    3.9956   20.8668 C   0  0  0  0  0  0  0  0  0  0  0  0
    6.1040    4.8113   19.9637 C   0  0  0  0  0  0  0  0  0  0  0  0
    6.0852    6.2793   20.2715 C   0  0  0  0  0  0  0  0  0  0  0  0
    5.2305    6.8005   21.3885 C   0  0  0  0  0  0  0  0  0  0  0  0
    6.1111    7.8958   20.5551 O   0  0  0  0  0  0  0  0  0  0  0  0
    8.0686    7.5854   21.3111 C   0  0  0  0  0  0  0  0  0  0  0  0
    6.8963    8.4287   21.7167 C   0  0  0  0  0  0  0  0  0  0  0  0
    5.7241    9.2721   22.1223 C   0  0  0  0  0  0  0  0  0  0  0  0
    7.6816    8.9616   22.8783 C   0  0  0  0  0  0  0  0  0  0  0  0
 34 35  1  0  0  0
 35 36  1  0  0  0
 35 37  1  0  0  0
 35 33  1  0  0  0
 33 23  1  0  0  0
 23 24  2  0  0  0
 23 25  1  0  0  0
 25 26  1  0  0  0
 26 27  1  0  0  0
 27 28  1  0  0  0
 28 29  1  0  0  0
 29 30  1  0  0  0
 30 31  1  0  0  0
 31 22  1  0  0  0
 22  1  1  0  0  0
  1  2  2  0  0  0
  2  3  1  0  0  0
  3  4  2  0  0  0
  4  5  1  0  0  0
  5 10  1  0  0  0
 10 12  1  0  0  0
 12 13  2  0  0  0
 13 14  1  0  0  0
 14 15  2  0  0  0
 15 18  1  0  0  0
 18 19  1  0  0  0
 18 20  2  0  0  0
 18 21  2  0  0  0
 15 16  1  0  0  0
 16 17  2  0  0  0
  5  6  2  0  0  0
  6  7  1  0  0  0
  7  8  2  0  0  0
  7  9  1  0  0  0
 31 32  1  0  0  0
 29 25  1  0  0  0
  6  1  1  0  0  0
 32 26  1  0  0  0
 17 12  1  0  0  0
 10 11  1  0  0  0
M  CHG 1   7   1
M  CHG 1   9  -1
M  END
> <minimizedAffinity>
-8.09117

> <CNNscore>
0.2793542743

> <CNNaffinity>
5.7588257790

> <CNN_VS>
1.6087526083

> <CNNaffinity_variance>
0.3583356738

$$$$
[H]c1nc(OC2([H])C([H])([H])[C@@]3([H])N(C(=O)OC(C([H])([H])[H])(C([H])([H])[H])C([H])([H])[H])[C@]([H])(C2([H])[H])C([H])([H])C3([H])[H])c([N+](=O)[O-])c(N([H])c2c([H])c([H])c(S(=O)(=O)C([H])([H])[H])c([H])c2[H])n1


 37 40  0  0  0  0  0  0  0  0999 V2000
    1.2305    4.5887   13.2697 C   0  0  0  0  0  0  0  0  0  0  0  0
    0.5857    3.2616   13.0000 N   0  0  0  0  0  0  0  0  0  0  0  0
    1.1972    2.0057   13.5464 C   0  0  0  0  0  0  0  0  0  0  0  0
    2.4537    2.0769   14.3627 N   0  0  0  0  0  0  0  0  0  0  0  0
    3.0986    3.4041   14.6325 C   0  0  0  0  0  0  0  0  0  0  0  0
    2.4870    4.6600   14.0860 C   0  0  0  0  0  0  0  0  0  0  0  0
    3.1318    5.9871   14.3558 N   0  0  0  0  0  0  0  0  0  0  0  0
    4.0558    6.5922   13.3407 O   0  0  0  0  0  0  0  0  0  0  0  0
    3.0802    6.9578   15.4982 O   0  0  0  0  0  0  0  0  0  0  0  0
    4.3551    3.4753   15.4487 N   0  0  0  0  0  0  0  0  0  0  0  0
    5.6495    3.8673   14.8001 H   0  0  0  0  0  0  0  0  0  0  0  0
    4.3170    3.1546   16.9135 C   0  0  0  0  0  0  0  0  0  0  0  0
    4.3585    4.2614   17.9251 C   0  0  0  0  0  0  0  0  0  0  0  0
    4.3204    3.9405   19.3898 C   0  0  0  0  0  0  0  0  0  0  0  0
    4.2407    2.5128   19.8431 C   0  0  0  0  0  0  0  0  0  0  0  0
    4.1992    1.4060   18.8315 C   0  0  0  0  0  0  0  0  0  0  0  0
    4.2373    1.7269   17.3668 C   0  0  0  0  0  0  0  0  0  0  0  0
    4.2026    2.1919   21.3078 S   0  0  0  0  0  0  0  0  0  0  0  0
    4.1645    1.8710   22.7727 C   0  0  0  0  0  0  0  0  0  0  0  0
    4.9592    3.4529   21.6038 O   0  0  0  0  0  0  0  0  0  0  0  0
    3.4460    0.9309   21.0119 O   0  0  0  0  0  0  0  0  0  0  0  0
    0.6190    5.8447   12.7233 O   0  0  0  0  0  0  0  0  0  0  0  0
   -0.6265    6.1958   13.0877 C   0  0  0  0  0  0  0  0  0  0  0  0
   -0.0207    6.7024   14.3630 O   0  0  0  0  0  0  0  0  0  0  0  0
   -2.0243    6.1464   12.5457 N   0  0  0  0  0  0  0  0  0  0  0  0
   -2.4352    5.5862   11.2163 C   0  0  0  0  0  0  0  0  0  0  0  0
   -3.9215    5.7422   11.0869 C   0  0  0  0  0  0  0  0  0  0  0  0
   -4.4291    6.3987   12.3364 C   0  0  0  0  0  0  0  0  0  0  0  0
   -3.2566    6.6486   13.2380 C   0  0  0  0  0  0  0  0  0  0  0  0
   -1.9167    6.7728   13.9225 C   0  0  0  0  0  0  0  0  0  0  0  0
   -0.7782    6.2289   13.1113 C   0  0  0  0  0  0  0  0  0  0  0  0
   -1.0374    5.6356   11.7583 C   0  0  0  0  0  0  0  0  0  0  0  0
    0.5120    5.6519   12.2766 O   0  0  0  0  0  0  0  0  0  0  0  0
    1.1464    5.3651   10.2728 C   0  0  0  0  0  0  0  0  0  0  0  0
    1.1721    6.5116   11.2397 C   0  0  0  0  0  0  0  0  0  0  0  0
    1.1979    7.6581   12.2066 C   0  0  0  0  0  0  0  0  0  0  0  0
    1.8323    7.3713   10.2028 C   0  0  0  0  0  0  0  0  0  0  0  0
 34 35  1  0  0  0
 35 36  1  0  0  0
 35 37  1  0  0  0
 35 33  1  0  0  0
 33 23  1  0  0  0
 23 24  2  0  0  0
 23 25  1  0  0  0
 25 26  1  0  0  0
 26 27  1  0  0  0
 27 28  1  0  0  0
 28 29  1  0  0  0
 29 30  1  0  0  0
 30 31  1  0  0  0
 31 22  1  0  0  0
 22  1  1  0  0  0
  1  2  2  0  0  0
  2  3  1  0  0  0
  3  4  2  0  0  0
  4  5  1  0  0  0
  5 10  1  0  0  0
 10 12  1  0  0  0
 12 13  2  0  0  0
 13 14  1  0  0  0
 14 15  2  0  0  0
 15 18  1  0  0  0
 18 19  1  0  0  0
 18 20  2  0  0  0
 18 21  2  0  0  0
 15 16  1  0  0  0
 16 17  2  0  0  0
  5  6  2  0  0  0
  6  7  1  0  0  0
  7  8  2  0  0  0
  7  9  1  0  0  0
 31 32  1  0  0  0
 29 25  1  0  0  0
  6  1  1  0  0  0
 32 26  1  0  0  0
 17 12  1  0  0  0
 10 11  1  0  0  0
M  CHG 1   7   1
M  CHG 1   9  -1
M  END
> <minimizedAffinity>
-8.53669

> <CNNscore>
0.1322790682

> <CNNaffinity>
5.6568541527

> <CNN_VS>
0.7482833862

> <CNNaffinity_variance>
0.2824464440

$$$$
[H]c1nc(OC2([H])C([H])([H])[C@@]3([H])N(C(=O)OC(C([H])([H])[H])(C([H])([H])[H])C([H])([H])[H])[C@]([H])(C2([H])[H])C([H])([H])C3([H])[H])c([N+](=O)[O-])c(N([H])c2c([H])c([H])c(S(=O)(=O)C([H])([H])[H])c([H])c2[H])n1


 37 40  0  0  0  0  0  0  0  0999 V2000
    1.8517    4.0410   13.4372 C   0  0  0  0  0  0  0  0  0  0  0  0
    1.3771    2.6225   13.5486 N   0  0  0  0  0  0  0  0  0  0  0  0
    2.0144    1.6939   14.5392 C   0  0  0  0  0  0  0  0  0  0  0  0
    3.1264    2.1839   15.4187 N   0  0  0  0  0  0  0  0  0  0  0  0
    3.6011    3.6025   15.3073 C   0  0  0  0  0  0  0  0  0  0  0  0
    2.9637    4.5310   14.3166 C   0  0  0  0  0  0  0  0  0  0  0  0
    3.4384    5.9496   14.2053 N   0  0  0  0  0  0  0  0  0  0  0  0
    3.0923    6.9424   15.2752 O   0  0  0  0  0  0  0  0  0  0  0  0
    4.2526    6.6996   13.1932 O   0  0  0  0  0  0  0  0  0  0  0  0
    4.7131    4.0925   16.1868 N   0  0  0  0  0  0  0  0  0  0  0  0
    5.9858    4.5983   15.5748 H   0  0  0  0  0  0  0  0  0  0  0  0
    4.5524    4.0765   17.6780 C   0  0  0  0  0  0  0  0  0  0  0  0
    4.8088    2.8142   18.4467 C   0  0  0  0  0  0  0  0  0  0  0  0
    4.6481    2.7984   19.9379 C   0  0  0  0  0  0  0  0  0  0  0  0
    4.2309    4.0449   20.6606 C   0  0  0  0  0  0  0  0  0  0  0  0
    3.9745    5.3072   19.8919 C   0  0  0  0  0  0  0  0  0  0  0  0
    4.1352    5.3231   18.4007 C   0  0  0  0  0  0  0  0  0  0  0  0
    4.0702    4.0291   22.1518 S   0  0  0  0  0  0  0  0  0  0  0  0
    3.9094    4.0132   23.6432 C   0  0  0  0  0  0  0  0  0  0  0  0
    3.8174    5.5076   22.1404 O   0  0  0  0  0  0  0  0  0  0  0  0
    4.3229    2.5505   22.1634 O   0  0  0  0  0  0  0  0  0  0  0  0
    1.2144    4.9697   12.4465 O   0  0  0  0  0  0  0  0  0  0  0  0
    1.7382    5.0811   11.2135 C   0  0  0  0  0  0  0  0  0  0  0  0
    1.7814    3.5820   11.1872 O   0  0  0  0  0  0  0  0  0  0  0  0
    2.1310    6.1521   10.2395 N   0  0  0  0  0  0  0  0  0  0  0  0
    2.0065    7.6309   10.4575 C   0  0  0  0  0  0  0  0  0  0  0  0
    2.5158    8.3251    9.2292 C   0  0  0  0  0  0  0  0  0  0  0  0
    2.9552    7.2753    8.2521 C   0  0  0  0  0  0  0  0  0  0  0  0
    2.7174    5.9323    8.8765 C   0  0  0  0  0  0  0  0  0  0  0  0
    2.3747    4.7416    9.7390 C   0  0  0  0  0  0  0  0  0  0  0  0
    1.7977    5.1153   11.0723 C   0  0  0  0  0  0  0  0  0  0  0  0
    1.6137    6.5599   11.4315 C   0  0  0  0  0  0  0  0  0  0  0  0
    1.1613    5.4548   12.5467 O   0  0  0  0  0  0  0  0  0  0  0  0
    0.0501    7.0105   13.4659 C   0  0  0  0  0  0  0  0  0  0  0  0
   -0.2960    5.7896   12.6661 C   0  0  0  0  0  0  0  0  0  0  0  0
   -0.6420    4.5688   11.8663 C   0  0  0  0  0  0  0  0  0  0  0  0
   -1.7532    6.1245   12.7855 C   0  0  0  0  0  0  0  0  0  0  0  0
 34 35  1  0  0  0
 35 36  1  0  0  0
 35 37  1  0  0  0
 35 33  1  0  0  0
 33 23  1  0  0  0
 23 24  2  0  0  0
 23 25  1  0  0  0
 25 26  1  0  0  0
 26 27  1  0  0  0
 27 28  1  0  0  0
 28 29  1  0  0  0
 29 30  1  0  0  0
 30 31  1  0  0  0
 31 22  1  0  0  0
 22  1  1  0  0  0
  1  2  2  0  0  0
  2  3  1  0  0  0
  3  4  2  0  0  0
  4  5  1  0  0  0
  5 10  1  0  0  0
 10 12  1  0  0  0
 12 13  2  0  0  0
 13 14  1  0  0  0
 14 15  2  0  0  0
 15 18  1  0  0  0
 18 19  1  0  0  0
 18 20  2  0  0  0
 18 21  2  0  0  0
 15 16  1  0  0  0
 16 17  2  0  0  0
  5  6  2  0  0  0
  6  7  1  0  0  0
  7  8  2  0  0  0
  7  9  1  0  0  0
 31 32  1  0  0  0
 29 25  1  0  0  0
  6  1  1  0  0  0
 32 26  1  0  0  0
 17 12  1  0  0  0
 10 11  1  0  0  0
M  CHG 1   7   1
M  CHG 1   9  -1
M  END
> <minimizedAffinity>
-7.48757

> <CNNscore>
0.1128587127

> <CNNaffinity>
5.5887379646

> <CNN_VS>
0.6307377815

> <CNNaffinity_variance>
0.2520276904

$$$$
[H]c1nc(OC2([H])C([H])([H])[C@@]3([H])N(C(=O)OC(C([H])([H])[H])(C([H])([H])[H])C([H])([H])[H])[C@]([H])(C2([H])[H])C([H])([H])C3([H])[H])c([N+](=O)[O-])c(N([H])c2c([H])c([H])c(S(=O)(=O)C([H])([H])[H])c([H])c2[H])n1


 37 40  0  0  0  0  0  0  0  0999 V2000
    5.5359    6.7492   20.3026 C   0  0  0  0  0  0  0  0  0  0  0  0
    5.9981    5.5504   21.0768 N   0  0  0  0  0  0  0  0  0  0  0  0
    5.2888    4.2380   20.9212 C   0  0  0  0  0  0  0  0  0  0  0  0
    4.1172    4.1242   19.9913 N   0  0  0  0  0  0  0  0  0  0  0  0
    3.6551    5.3230   19.2171 C   0  0  0  0  0  0  0  0  0  0  0  0
    4.3644    6.6354   19.3728 C   0  0  0  0  0  0  0  0  0  0  0  0
    3.9022    7.8342   18.5986 N   0  0  0  0  0  0  0  0  0  0  0  0
    4.2628    7.9758   17.1495 O   0  0  0  0  0  0  0  0  0  0  0  0
    3.0897    9.0472   18.9429 O   0  0  0  0  0  0  0  0  0  0  0  0
    2.4835    5.2093   18.2873 N   0  0  0  0  0  0  0  0  0  0  0  0
    1.0953    5.4636   18.7954 H   0  0  0  0  0  0  0  0  0  0  0  0
    2.7002    4.8413   16.8494 C   0  0  0  0  0  0  0  0  0  0  0  0
    2.0357    5.6347   15.7637 C   0  0  0  0  0  0  0  0  0  0  0  0
    2.2525    5.2666   14.3258 C   0  0  0  0  0  0  0  0  0  0  0  0
    3.1339    4.1051   13.9737 C   0  0  0  0  0  0  0  0  0  0  0  0
    3.7985    3.3116   15.0594 C   0  0  0  0  0  0  0  0  0  0  0  0
    3.5817    3.6797   16.4972 C   0  0  0  0  0  0  0  0  0  0  0  0
    3.3507    3.7370   12.5358 S   0  0  0  0  0  0  0  0  0  0  0  0
    3.5675    3.3688   11.0979 C   0  0  0  0  0  0  0  0  0  0  0  0
    3.9756    5.0777   12.2867 O   0  0  0  0  0  0  0  0  0  0  0  0
    2.7259    2.3962   12.7848 O   0  0  0  0  0  0  0  0  0  0  0  0
    6.2452    8.0617   20.4582 O   0  0  0  0  0  0  0  0  0  0  0  0
    6.4265    8.5812   21.6848 C   0  0  0  0  0  0  0  0  0  0  0  0
    4.9634    8.9118   21.6697 O   0  0  0  0  0  0  0  0  0  0  0  0
    7.5300    8.7824   22.6807 N   0  0  0  0  0  0  0  0  0  0  0  0
    8.9619    8.3718   22.5050 C   0  0  0  0  0  0  0  0  0  0  0  0
    9.7122    8.7652   23.7429 C   0  0  0  0  0  0  0  0  0  0  0  0
    8.7440    9.4191   24.6836 C   0  0  0  0  0  0  0  0  0  0  0  0
    7.3953    9.4297   24.0271 C   0  0  0  0  0  0  0  0  0  0  0  0
    6.1814    9.3031   23.1385 C   0  0  0  0  0  0  0  0  0  0  0  0
    6.4682    8.6361   21.8258 C   0  0  0  0  0  0  0  0  0  0  0  0
    7.8584    8.1705   21.5091 C   0  0  0  0  0  0  0  0  0  0  0  0
    6.7132    7.9143   20.3722 O   0  0  0  0  0  0  0  0  0  0  0  0
    8.2286    7.6067   18.9199 C   0  0  0  0  0  0  0  0  0  0  0  0
    7.2652    8.7140   19.2294 C   0  0  0  0  0  0  0  0  0  0  0  0
    6.3018    9.8213   19.5389 C   0  0  0  0  0  0  0  0  0  0  0  0
    7.8172    9.5137   18.0867 C   0  0  0  0  0  0  0  0  0  0  0  0
 34 35  1  0  0  0
 35 36  1  0  0  0
 35 37  1  0  0  0
 35 33  1  0  0  0
 33 23  1  0  0  0
 23 24  2  0  0  0
 23 25  1  0  0  0
 25 26  1  0  0  0
 26 27  1  0  0  0
 27 28  1  0  0  0
 28 29  1  0  0  0
 29 30  1  0  0  0
 30 31  1  0  0  0
 31 22  1  0  0  0
 22  1  1  0  0  0
  1  2  2  0  0  0
  2  3  1  0  0  0
  3  4  2  0  0  0
  4  5  1  0  0  0
  5 10  1  0  0  0
 10 12  1  0  0  0
 12 13  2  0  0  0
 13 14  1  0  0  0
 14 15  2  0  0  0
 15 18  1  0  0  0
 18 19  1  0  0  0
 18 20  2  0  0  0
 18 21  2  0  0  0
 15 16  1  0  0  0
 16 17  2  0  0  0
  5  6  2  0  0  0
  6  7  1  0  0  0
  7  8  2  0  0  0
  7  9  1  0  0  0
 31 32  1  0  0  0
 29 25  1  0  0  0
  6  1  1  0  0  0
 32 26  1  0  0  0
 17 12  1  0  0  0
 10 11  1  0  0  0
M  CHG 1   7   1
M  CHG 1   9  -1
M  END
> <minimizedAffinity>
-7.81271

> <CNNscore>
0.1094416529

> <CNNaffinity>
5.6333756447

> <CNN_VS>
0.6165259480

> <CNNaffinity_variance>
0.1745817363

$$$$
[H]c1nc(OC2([H])C([H])([H])[C@@]3([H])N(C(=O)OC(C([H])([H])[H])(C([H])([H])[H])C([H])([H])[H])[C@]([H])(C2([H])[H])C([H])([H])C3([H])[H])c([N+](=O)[O-])c(N([H])c2c([H])c([H])c(S(=O)(=O)C([H])([H])[H])c([H])c2[H])n1


 37 40  0  0  0  0  0  0  0  0999 V2000
    2.8449    5.9964   11.7063 C   0  0  0  0  0  0  0  0  0  0  0  0
    4.1424    6.3209   12.3852 N   0  0  0  0  0  0  0  0  0  0  0  0
    5.1629    7.1695   11.6863 C   0  0  0  0  0  0  0  0  0  0  0  0
    4.8858    7.6936   10.3084 N   0  0  0  0  0  0  0  0  0  0  0  0
    3.5882    7.3691    9.6295 C   0  0  0  0  0  0  0  0  0  0  0  0
    2.5678    6.5205   10.3284 C   0  0  0  0  0  0  0  0  0  0  0  0
    1.2702    6.1960    9.6494 N   0  0  0  0  0  0  0  0  0  0  0  0
    0.1064    7.1350    9.7680 O   0  0  0  0  0  0  0  0  0  0  0  0
    0.7964    5.0560    8.7974 O   0  0  0  0  0  0  0  0  0  0  0  0
    3.3111    7.8933    8.2516 N   0  0  0  0  0  0  0  0  0  0  0  0
    1.8959    8.0743    7.7886 H   0  0  0  0  0  0  0  0  0  0  0  0
    4.4493    8.2364    7.3368 C   0  0  0  0  0  0  0  0  0  0  0  0
    5.1964    7.1462    6.6275 C   0  0  0  0  0  0  0  0  0  0  0  0
    6.3346    7.4894    5.7128 C   0  0  0  0  0  0  0  0  0  0  0  0
    6.7256    8.9229    5.5073 C   0  0  0  0  0  0  0  0  0  0  0  0
    5.9784   10.0131    6.2166 C   0  0  0  0  0  0  0  0  0  0  0  0
    4.8403    9.6699    7.1313 C   0  0  0  0  0  0  0  0  0  0  0  0
    7.8637    9.2661    4.5926 S   0  0  0  0  0  0  0  0  0  0  0  0
    9.0019    9.6094    3.6778 C   0  0  0  0  0  0  0  0  0  0  0  0
    8.3219    7.8382    4.6268 O   0  0  0  0  0  0  0  0  0  0  0  0
    7.4056   10.6940    4.5583 O   0  0  0  0  0  0  0  0  0  0  0  0
    1.8243    5.1478   12.4051 O   0  0  0  0  0  0  0  0  0  0  0  0
    2.1751    3.9430   12.8876 C   0  0  0  0  0  0  0  0  0  0  0  0
    2.1715    3.4656   11.4656 O   0  0  0  0  0  0  0  0  0  0  0  0
    2.4593    3.2872   14.2063 N   0  0  0  0  0  0  0  0  0  0  0  0
    2.4083    3.9511   15.5504 C   0  0  0  0  0  0  0  0  0  0  0  0
    2.7620    2.9264   16.5872 C   0  0  0  0  0  0  0  0  0  0  0  0
    3.0316    1.6292   15.8839 C   0  0  0  0  0  0  0  0  0  0  0  0
    2.8445    1.8522   14.4124 C   0  0  0  0  0  0  0  0  0  0  0  0
    2.5910    2.3601   13.0135 C   0  0  0  0  0  0  0  0  0  0  0  0
    2.2154    3.8115   12.9632 C   0  0  0  0  0  0  0  0  0  0  0  0
    2.1241    4.6069   14.2317 C   0  0  0  0  0  0  0  0  0  0  0  0
    1.7995    5.3943   12.8372 O   0  0  0  0  0  0  0  0  0  0  0  0
    0.8625    6.9531   13.9292 C   0  0  0  0  0  0  0  0  0  0  0  0
    0.3799    5.8107   13.0854 C   0  0  0  0  0  0  0  0  0  0  0  0
   -0.1027    4.6684   12.2415 C   0  0  0  0  0  0  0  0  0  0  0  0
   -1.0396    6.2271   13.3335 C   0  0  0  0  0  0  0  0  0  0  0  0
 34 35  1  0  0  0
 35 36  1  0  0  0
 35 37  1  0  0  0
 35 33  1  0  0  0
 33 23  1  0  0  0
 23 24  2  0  0  0
 23 25  1  0  0  0
 25 26  1  0  0  0
 26 27  1  0  0  0
 27 28  1  0  0  0
 28 29  1  0  0  0
 29 30  1  0  0  0
 30 31  1  0  0  0
 31 22  1  0  0  0
 22  1  1  0  0  0
  1  2  2  0  0  0
  2  3  1  0  0  0
  3  4  2  0  0  0
  4  5  1  0  0  0
  5 10  1  0  0  0
 10 12  1  0  0  0
 12 13  2  0  0  0
 13 14  1  0  0  0
 14 15  2  0  0  0
 15 18  1  0  0  0
 18 19  1  0  0  0
 18 20  2  0  0  0
 18 21  2  0  0  0
 15 16  1  0  0  0
 16 17  2  0  0  0
  5  6  2  0  0  0
  6  7  1  0  0  0
  7  8  2  0  0  0
  7  9  1  0  0  0
 31 32  1  0  0  0
 29 25  1  0  0  0
  6  1  1  0  0  0
 32 26  1  0  0  0
 17 12  1  0  0  0
 10 11  1  0  0  0
M  CHG 1   7   1
M  CHG 1   9  -1
M  END
> <minimizedAffinity>
-7.42215

> <CNNscore>
0.0998253301

> <CNNaffinity>
5.0404653549

> <CNN_VS>
0.5031661391

> <CNNaffinity_variance>
0.3733641207

$$$$
[H]c1nc(OC2([H])C([H])([H])[C@@]3([H])N(C(=O)OC(C([H])([H])[H])(C([H])([H])[H])C([H])([H])[H])[C@]([H])(C2([H])[H])C([H])([H])C3([H])[H])c([N+](=O)[O-])c(N([H])c2c([H])c([H])c(S(=O)(=O)C([H])([H])[H])c([H])c2[H])n1


 37 40  0  0  0  0  0  0  0  0999 V2000
    4.9328    7.5395   17.0598 C   0  0  0  0  0  0  0  0  0  0  0  0
    3.8981    6.5070   16.7234 N   0  0  0  0  0  0  0  0  0  0  0  0
    3.4976    6.2842   15.2952 C   0  0  0  0  0  0  0  0  0  0  0  0
    4.1318    7.0940   14.2033 N   0  0  0  0  0  0  0  0  0  0  0  0
    5.1665    8.1265   14.5398 C   0  0  0  0  0  0  0  0  0  0  0  0
    5.5670    8.3493   15.9680 C   0  0  0  0  0  0  0  0  0  0  0  0
    6.6017    9.3818   16.3044 N   0  0  0  0  0  0  0  0  0  0  0  0
    6.1806   10.7748   16.6682 O   0  0  0  0  0  0  0  0  0  0  0  0
    8.1000    9.3710   16.3758 O   0  0  0  0  0  0  0  0  0  0  0  0
    5.8007    8.9363   13.4479 N   0  0  0  0  0  0  0  0  0  0  0  0
    5.2720   10.3020   13.1233 H   0  0  0  0  0  0  0  0  0  0  0  0
    6.9636    8.3803   12.6807 C   0  0  0  0  0  0  0  0  0  0  0  0
    6.7264    7.4432   11.5337 C   0  0  0  0  0  0  0  0  0  0  0  0
    7.8893    6.8873   10.7666 C   0  0  0  0  0  0  0  0  0  0  0  0
    9.2895    7.2684   11.1464 C   0  0  0  0  0  0  0  0  0  0  0  0
    9.5267    8.2055   12.2934 C   0  0  0  0  0  0  0  0  0  0  0  0
    8.3638    8.7614   13.0606 C   0  0  0  0  0  0  0  0  0  0  0  0
   10.4524    6.7125   10.3793 S   0  0  0  0  0  0  0  0  0  0  0  0
   11.6153    6.1565    9.6121 C   0  0  0  0  0  0  0  0  0  0  0  0
   11.3943    7.2595   11.4106 O   0  0  0  0  0  0  0  0  0  0  0  0
    9.5105    6.1654    9.3480 O   0  0  0  0  0  0  0  0  0  0  0  0
    5.3334    7.7623   18.4881 O   0  0  0  0  0  0  0  0  0  0  0  0
    5.7423    6.7223   19.2353 C   0  0  0  0  0  0  0  0  0  0  0  0
    6.9620    6.6829   18.3631 O   0  0  0  0  0  0  0  0  0  0  0  0
    5.2726    5.9121   20.4070 N   0  0  0  0  0  0  0  0  0  0  0  0
    3.9917    6.1132   21.1613 C   0  0  0  0  0  0  0  0  0  0  0  0
    3.9287    5.0839   22.2506 C   0  0  0  0  0  0  0  0  0  0  0  0
    5.1707    4.2466   22.1695 C   0  0  0  0  0  0  0  0  0  0  0  0
    6.0012    4.7585   21.0301 C   0  0  0  0  0  0  0  0  0  0  0  0
    6.6126    5.4732   19.8492 C   0  0  0  0  0  0  0  0  0  0  0  0
    5.7719    6.6035   19.3336 C   0  0  0  0  0  0  0  0  0  0  0  0
    4.4615    6.9234   19.9896 C   0  0  0  0  0  0  0  0  0  0  0  0
    4.9017    7.8525   18.7197 O   0  0  0  0  0  0  0  0  0  0  0  0
    3.4572    9.3275   19.2073 C   0  0  0  0  0  0  0  0  0  0  0  0
    4.9376    9.1868   19.4040 C   0  0  0  0  0  0  0  0  0  0  0  0
    6.4179    9.0461   19.6008 C   0  0  0  0  0  0  0  0  0  0  0  0
    4.9734   10.5211   20.0883 C   0  0  0  0  0  0  0  0  0  0  0  0
 34 35  1  0  0  0
 35 36  1  0  0  0
 35 37  1  0  0  0
 35 33  1  0  0  0
 33 23  1  0  0  0
 23 24  2  0  0  0
 23 25  1  0  0  0
 25 26  1  0  0  0
 26 27  1  0  0  0
 27 28  1  0  0  0
 28 29  1  0  0  0
 29 30  1  0  0  0
 30 31  1  0  0  0
 31 22  1  0  0  0
 22  1  1  0  0  0
  1  2  2  0  0  0
  2  3  1  0  0  0
  3  4  2  0  0  0
  4  5  1  0  0  0
  5 10  1  0  0  0
 10 12  1  0  0  0
 12 13  2  0  0  0
 13 14  1  0  0  0
 14 15  2  0  0  0
 15 18  1  0  0  0
 18 19  1  0  0  0
 18 20  2  0  0  0
 18 21  2  0  0  0
 15 16  1  0  0  0
 16 17  2  0  0  0
  5  6  2  0  0  0
  6  7  1  0  0  0
  7  8  2  0  0  0
  7  9  1  0  0  0
 31 32  1  0  0  0
 29 25  1  0  0  0
  6  1  1  0  0  0
 32 26  1  0  0  0
 17 12  1  0  0  0
 10 11  1  0  0  0
M  CHG 1   7   1
M  CHG 1   9  -1
M  END
> <minimizedAffinity>
-7.56717

> <CNNscore>
0.0939792320

> <CNNaffinity>
5.3585686684

> <CNN_VS>
0.5035941601

> <CNNaffinity_variance>
0.1581532061

$$$$
[H]c1nc(OC2([H])C([H])([H])[C@@]3([H])N(C(=O)OC(C([H])([H])[H])(C([H])([H])[H])C([H])([H])[H])[C@]([H])(C2([H])[H])C([H])([H])C3([H])[H])c([N+](=O)[O-])c(N([H])c2c([H])c([H])c(S(=O)(=O)C([H])([H])[H])c([H])c2[H])n1


 37 40  0  0  0  0  0  0  0  0999 V2000
    4.4681    7.3540   16.6243 C   0  0  0  0  0  0  0  0  0  0  0  0
    5.0794    8.5824   16.0183 N   0  0  0  0  0  0  0  0  0  0  0  0
    4.9339    8.8457   14.5488 C   0  0  0  0  0  0  0  0  0  0  0  0
    4.1770    7.8806   13.6852 N   0  0  0  0  0  0  0  0  0  0  0  0
    3.5657    6.6522   14.2912 C   0  0  0  0  0  0  0  0  0  0  0  0
    3.7112    6.3889   15.7607 C   0  0  0  0  0  0  0  0  0  0  0  0
    3.0999    5.1604   16.3667 N   0  0  0  0  0  0  0  0  0  0  0  0
    3.7750    3.8303   16.2079 O   0  0  0  0  0  0  0  0  0  0  0  0
    1.8606    4.9015   17.1712 O   0  0  0  0  0  0  0  0  0  0  0  0
    2.8088    5.6870   13.4277 N   0  0  0  0  0  0  0  0  0  0  0  0
    3.5328    4.5652   12.7441 H   0  0  0  0  0  0  0  0  0  0  0  0
    1.3279    5.8438   13.2477 C   0  0  0  0  0  0  0  0  0  0  0  0
    0.6390    5.1842   12.0900 C   0  0  0  0  0  0  0  0  0  0  0  0
   -0.8419    5.3410   11.9101 C   0  0  0  0  0  0  0  0  0  0  0  0
   -1.6339    6.1576   12.8879 C   0  0  0  0  0  0  0  0  0  0  0  0
   -0.9449    6.8172   14.0456 C   0  0  0  0  0  0  0  0  0  0  0  0
    0.5359    6.6604   14.2255 C   0  0  0  0  0  0  0  0  0  0  0  0
   -3.1147    6.3144   12.7081 S   0  0  0  0  0  0  0  0  0  0  0  0
   -4.5957    6.4712   12.5281 C   0  0  0  0  0  0  0  0  0  0  0  0
   -3.1224    7.4136   13.7287 O   0  0  0  0  0  0  0  0  0  0  0  0
   -3.1072    5.2152   11.6874 O   0  0  0  0  0  0  0  0  0  0  0  0
    4.6135    7.0906   18.0938 O   0  0  0  0  0  0  0  0  0  0  0  0
    4.6532    8.1222   18.9548 C   0  0  0  0  0  0  0  0  0  0  0  0
    3.2079    8.3469   18.6221 O   0  0  0  0  0  0  0  0  0  0  0  0
    5.6312    8.8045   19.8648 N   0  0  0  0  0  0  0  0  0  0  0  0
    7.0674    8.4198   20.0630 C   0  0  0  0  0  0  0  0  0  0  0  0
    7.6685    9.3688   21.0571 C   0  0  0  0  0  0  0  0  0  0  0  0
    6.6038   10.3399   21.4733 C   0  0  0  0  0  0  0  0  0  0  0  0
    5.3446    9.9911   20.7365 C   0  0  0  0  0  0  0  0  0  0  0  0
    4.2452    9.4197   19.8739 C   0  0  0  0  0  0  0  0  0  0  0  0
    4.6783    8.2375   19.0585 C   0  0  0  0  0  0  0  0  0  0  0  0
    6.0894    7.7376   19.1530 C   0  0  0  0  0  0  0  0  0  0  0  0
    5.0862    6.9401   18.1394 O   0  0  0  0  0  0  0  0  0  0  0  0
    6.4702    5.3369   18.0204 C   0  0  0  0  0  0  0  0  0  0  0  0
    5.2016    5.5887   18.7800 C   0  0  0  0  0  0  0  0  0  0  0  0
    3.9329    5.8406   19.5397 C   0  0  0  0  0  0  0  0  0  0  0  0
    5.3169    4.2373   19.4207 C   0  0  0  0  0  0  0  0  0  0  0  0
 34 35  1  0  0  0
 35 36  1  0  0  0
 35 37  1  0  0  0
 35 33  1  0  0  0
 33 23  1  0  0  0
 23 24  2  0  0  0
 23 25  1  0  0  0
 25 26  1  0  0  0
 26 27  1  0  0  0
 27 28  1  0  0  0
 28 29  1  0  0  0
 29 30  1  0  0  0
 30 31  1  0  0  0
 31 22  1  0  0  0
 22  1  1  0  0  0
  1  2  2  0  0  0
  2  3  1  0  0  0
  3  4  2  0  0  0
  4  5  1  0  0  0
  5 10  1  0  0  0
 10 12  1  0  0  0
 12 13  2  0  0  0
 13 14  1  0  0  0
 14 15  2  0  0  0
 15 18  1  0  0  0
 18 19  1  0  0  0
 18 20  2  0  0  0
 18 21  2  0  0  0
 15 16  1  0  0  0
 16 17  2  0  0  0
  5  6  2  0  0  0
  6  7  1  0  0  0
  7  8  2  0  0  0
  7  9  1  0  0  0
 31 32  1  0  0  0
 29 25  1  0  0  0
  6  1  1  0  0  0
 32 26  1  0  0  0
 17 12  1  0  0  0
 10 11  1  0  0  0
M  CHG 1   7   1
M  CHG 1   9  -1
M  END
> <minimizedAffinity>
-8.20079

> <CNNscore>
0.0600833707

> <CNNaffinity>
5.5561432838

> <CNN_VS>
0.3338318169

> <CNNaffinity_variance>
0.1075836867

$$$$
[H]c1nc(OC2([H])C([H])([H])[C@@]3([H])N(C(=O)OC(C([H])([H])[H])(C([H])([H])[H])C([H])([H])[H])[C@]([H])(C2([H])[H])C([H])([H])C3([H])[H])c([N+](=O)[O-])c(N([H])c2c([H])c([H])c(S(=O)(=O)C([H])([H])[H])c([H])c2[H])n1


 37 40  0  0  0  0  0  0  0  0999 V2000
    3.3964    5.1905   11.6643 C   0  0  0  0  0  0  0  0  0  0  0  0
    4.2321    4.0560   11.1500 N   0  0  0  0  0  0  0  0  0  0  0  0
    5.0937    4.2488    9.9374 C   0  0  0  0  0  0  0  0  0  0  0  0
    5.1198    5.5761    9.2391 N   0  0  0  0  0  0  0  0  0  0  0  0
    4.2841    6.7106    9.7534 C   0  0  0  0  0  0  0  0  0  0  0  0
    3.4224    6.5179   10.9659 C   0  0  0  0  0  0  0  0  0  0  0  0
    2.5868    7.6524   11.4802 N   0  0  0  0  0  0  0  0  0  0  0  0
    3.1105    8.5332   12.5757 O   0  0  0  0  0  0  0  0  0  0  0  0
    1.2242    8.1802   11.1413 O   0  0  0  0  0  0  0  0  0  0  0  0
    4.3102    8.0379    9.0551 N   0  0  0  0  0  0  0  0  0  0  0  0
    5.3575    9.0515    9.4097 H   0  0  0  0  0  0  0  0  0  0  0  0
    3.2889    8.3516    8.0022 C   0  0  0  0  0  0  0  0  0  0  0  0
    2.5842    9.6757    8.0115 C   0  0  0  0  0  0  0  0  0  0  0  0
    1.5630    9.9892    6.9586 C   0  0  0  0  0  0  0  0  0  0  0  0
    1.2463    8.9786    5.8963 C   0  0  0  0  0  0  0  0  0  0  0  0
    1.9510    7.6544    5.8870 C   0  0  0  0  0  0  0  0  0  0  0  0
    2.9722    7.3409    6.9399 C   0  0  0  0  0  0  0  0  0  0  0  0
    0.2251    9.2921    4.8434 S   0  0  0  0  0  0  0  0  0  0  0  0
   -0.7962    9.6056    3.7904 C   0  0  0  0  0  0  0  0  0  0  0  0
    0.0240   10.6521    5.4432 O   0  0  0  0  0  0  0  0  0  0  0  0
    0.4261    7.9320    4.2434 O   0  0  0  0  0  0  0  0  0  0  0  0
    2.5347    4.9979   12.8768 O   0  0  0  0  0  0  0  0  0  0  0  0
    3.0829    4.5532   14.0209 C   0  0  0  0  0  0  0  0  0  0  0  0
    3.7238    5.9041   14.1409 O   0  0  0  0  0  0  0  0  0  0  0  0
    3.1041    3.3114   14.8620 N   0  0  0  0  0  0  0  0  0  0  0  0
    2.3792    2.0324   14.5643 C   0  0  0  0  0  0  0  0  0  0  0  0
    2.6809    1.0611   15.6668 C   0  0  0  0  0  0  0  0  0  0  0  0
    3.5923    1.7398   16.6460 C   0  0  0  0  0  0  0  0  0  0  0  0
    3.8538    3.1306   16.1485 C   0  0  0  0  0  0  0  0  0  0  0  0
    3.9366    4.4498   15.4191 C   0  0  0  0  0  0  0  0  0  0  0  0
    3.1367    4.4828   14.1506 C   0  0  0  0  0  0  0  0  0  0  0  0
    2.3580    3.2742   13.7232 C   0  0  0  0  0  0  0  0  0  0  0  0
    2.2831    4.5863   12.7524 O   0  0  0  0  0  0  0  0  0  0  0  0
    1.0401    5.9542   13.7935 C   0  0  0  0  0  0  0  0  0  0  0  0
    0.8077    4.8522   12.8028 C   0  0  0  0  0  0  0  0  0  0  0  0
    0.5753    3.7502   11.8120 C   0  0  0  0  0  0  0  0  0  0  0  0
   -0.6677    5.1181   12.8531 C   0  0  0  0  0  0  0  0  0  0  0  0
 34 35  1  0  0  0
 35 36  1  0  0  0
 35 37  1  0  0  0
 35 33  1  0  0  0
 33 23  1  0  0  0
 23 24  2  0  0  0
 23 25  1  0  0  0
 25 26  1  0  0  0
 26 27  1  0  0  0
 27 28  1  0  0  0
 28 29  1  0  0  0
 29 30  1  0  0  0
 30 31  1  0  0  0
 31 22  1  0  0  0
 22  1  1  0  0  0
  1  2  2  0  0  0
  2  3  1  0  0  0
  3  4  2  0  0  0
  4  5  1  0  0  0
  5 10  1  0  0  0
 10 12  1  0  0  0
 12 13  2  0  0  0
 13 14  1  0  0  0
 14 15  2  0  0  0
 15 18  1  0  0  0
 18 19  1  0  0  0
 18 20  2  0  0  0
 18 21  2  0  0  0
 15 16  1  0  0  0
 16 17  2  0  0  0
  5  6  2  0  0  0
  6  7  1  0  0  0
  7  8  2  0  0  0
  7  9  1  0  0  0
 31 32  1  0  0  0
 29 25  1  0  0  0
  6  1  1  0  0  0
 32 26  1  0  0  0
 17 12  1  0  0  0
 10 11  1  0  0  0
M  CHG 1   7   1
M  CHG 1   9  -1
M  END
> <minimizedAffinity>
-6.96450

> <CNNscore>
0.0593953282

> <CNNaffinity>
5.1936335564

> <CNN_VS>
0.3084775805

> <CNNaffinity_variance>
0.2213870734

$$$$
[H]c1nc(OC2([H])C([H])([H])[C@@]3([H])N(C(=O)OC(C([H])([H])[H])(C([H])([H])[H])C([H])([H])[H])[C@]([H])(C2([H])[H])C([H])([H])C3([H])[H])c([N+](=O)[O-])c(N([H])c2c([H])c([H])c(S(=O)(=O)C([H])([H])[H])c([H])c2[H])n1


 37 40  0  0  0  0  0  0  0  0999 V2000
    2.6560    3.3461   14.0198 C   0  0  0  0  0  0  0  0  0  0  0  0
    3.0182    1.9361   14.3814 N   0  0  0  0  0  0  0  0  0  0  0  0
    3.1953    1.5528   15.8207 C   0  0  0  0  0  0  0  0  0  0  0  0
    3.0100    2.5794   16.8985 N   0  0  0  0  0  0  0  0  0  0  0  0
    2.6478    3.9894   16.5370 C   0  0  0  0  0  0  0  0  0  0  0  0
    2.4707    4.3727   15.0977 C   0  0  0  0  0  0  0  0  0  0  0  0
    2.1085    5.7827   14.7361 N   0  0  0  0  0  0  0  0  0  0  0  0
    0.6686    6.2018   14.7017 O   0  0  0  0  0  0  0  0  0  0  0  0
    2.9022    6.9997   14.3633 O   0  0  0  0  0  0  0  0  0  0  0  0
    2.4625    5.0161   17.6148 N   0  0  0  0  0  0  0  0  0  0  0  0
    1.1284    5.6760   17.8007 H   0  0  0  0  0  0  0  0  0  0  0  0
    3.6115    5.3828   18.5066 C   0  0  0  0  0  0  0  0  0  0  0  0
    3.4046    5.4968   19.9879 C   0  0  0  0  0  0  0  0  0  0  0  0
    4.5536    5.8635   20.8797 C   0  0  0  0  0  0  0  0  0  0  0  0
    5.9096    6.1163   20.2901 C   0  0  0  0  0  0  0  0  0  0  0  0
    6.1165    6.0023   18.8089 C   0  0  0  0  0  0  0  0  0  0  0  0
    4.9675    5.6356   17.9171 C   0  0  0  0  0  0  0  0  0  0  0  0
    7.0586    6.4830   21.1819 S   0  0  0  0  0  0  0  0  0  0  0  0
    8.2076    6.8497   22.0737 C   0  0  0  0  0  0  0  0  0  0  0  0
    7.8874    6.8163   19.9770 O   0  0  0  0  0  0  0  0  0  0  0  0
    6.2298    6.1496   22.3869 O   0  0  0  0  0  0  0  0  0  0  0  0
    2.4789    3.7295   12.5805 O   0  0  0  0  0  0  0  0  0  0  0  0
    1.2386    3.8929   12.0884 C   0  0  0  0  0  0  0  0  0  0  0  0
    0.8803    2.6199   12.7961 O   0  0  0  0  0  0  0  0  0  0  0  0
    0.4762    4.8577   11.2295 N   0  0  0  0  0  0  0  0  0  0  0  0
    1.0266    6.1028   10.5996 C   0  0  0  0  0  0  0  0  0  0  0  0
   -0.0800    6.7615    9.8305 C   0  0  0  0  0  0  0  0  0  0  0  0
   -1.3144    5.9234    9.9849 C   0  0  0  0  0  0  0  0  0  0  0  0
   -0.9707    4.7469   10.8495 C   0  0  0  0  0  0  0  0  0  0  0  0
   -0.3490    3.6864   11.7260 C   0  0  0  0  0  0  0  0  0  0  0  0
    1.1013    3.9299   12.0218 C   0  0  0  0  0  0  0  0  0  0  0  0
    1.7891    5.1380   11.4586 C   0  0  0  0  0  0  0  0  0  0  0  0
    2.6889    4.1363   12.3841 O   0  0  0  0  0  0  0  0  0  0  0  0
    4.3939    5.1533   11.6367 C   0  0  0  0  0  0  0  0  0  0  0  0
    3.7265    3.8429   11.3414 C   0  0  0  0  0  0  0  0  0  0  0  0
    3.0591    2.5324   11.0460 C   0  0  0  0  0  0  0  0  0  0  0  0
    4.7641    3.5494   10.2986 C   0  0  0  0  0  0  0  0  0  0  0  0
 34 35  1  0  0  0
 35 36  1  0  0  0
 35 37  1  0  0  0
 35 33  1  0  0  0
 33 23  1  0  0  0
 23 24  2  0  0  0
 23 25  1  0  0  0
 25 26  1  0  0  0
 26 27  1  0  0  0
 27 28  1  0  0  0
 28 29  1  0  0  0
 29 30  1  0  0  0
 30 31  1  0  0  0
 31 22  1  0  0  0
 22  1  1  0  0  0
  1  2  2  0  0  0
  2  3  1  0  0  0
  3  4  2  0  0  0
  4  5  1  0  0  0
  5 10  1  0  0  0
 10 12  1  0  0  0
 12 13  2  0  0  0
 13 14  1  0  0  0
 14 15  2  0  0  0
 15 18  1  0  0  0
 18 19  1  0  0  0
 18 20  2  0  0  0
 18 21  2  0  0  0
 15 16  1  0  0  0
 16 17  2  0  0  0
  5  6  2  0  0  0
  6  7  1  0  0  0
  7  8  2  0  0  0
  7  9  1  0  0  0
 31 32  1  0  0  0
 29 25  1  0  0  0
  6  1  1  0  0  0
 32 26  1  0  0  0
 17 12  1  0  0  0
 10 11  1  0  0  0
M  CHG 1   7   1
M  CHG 1   9  -1
M  END
> <minimizedAffinity>
-7.08626

> <CNNscore>
0.0561534315

> <CNNaffinity>
5.6789503098

> <CNN_VS>
0.3188925385

> <CNNaffinity_variance>
0.0884334445

$$$$
[H]c1c([H])c(N([H])c2nc(N3C([H])([H])C([H])([H])C([H])([H])C3([H])[H])c3c([H])c([H])c([H])c([H])c3n2)c([H])c([H])c1OC([H])([H])[H]


 25 28  0  0  0  0  0  0  0  0999 V2000
    3.9325    1.7710   18.4670 C   0  0  0  0  0  0  0  0  0  0  0  0
    4.4100    3.0175   18.5112 N   0  0  0  0  0  0  0  0  0  0  0  0
    4.4423    3.8482   17.4490 C   0  0  0  0  0  0  0  0  0  0  0  0
    3.9547    3.3801   16.2502 C   0  0  0  0  0  0  0  0  0  0  0  0
    3.9614    4.1563   15.1216 C   0  0  0  0  0  0  0  0  0  0  0  0
    3.4633    3.6218   13.9457 C   0  0  0  0  0  0  0  0  0  0  0  0
    2.9646    2.3488   13.8654 C   0  0  0  0  0  0  0  0  0  0  0  0
    2.9515    1.5600   14.9826 C   0  0  0  0  0  0  0  0  0  0  0  0
    3.4487    2.0783   16.1772 C   0  0  0  0  0  0  0  0  0  0  0  0
    3.4667    1.3460   17.2946 N   0  0  0  0  0  0  0  0  0  0  0  0
    4.9423    5.1760   17.6042 N   0  0  0  0  0  0  0  0  0  0  0  0
    4.1830    6.3705   17.7929 C   0  0  0  0  0  0  0  0  0  0  0  0
    5.1362    7.3720   18.4495 C   0  0  0  0  0  0  0  0  0  0  0  0
    6.3541    6.5607   18.7407 C   0  0  0  0  0  0  0  0  0  0  0  0
    6.3409    5.5332   17.6022 C   0  0  0  0  0  0  0  0  0  0  0  0
    3.9551    0.9679   19.6265 N   0  0  0  0  0  0  0  0  0  0  0  0
    3.4895    0.0156   19.5231 H   0  0  0  0  0  0  0  0  0  0  0  0
    5.4027    1.8952   23.5210 C   0  0  0  0  0  0  0  0  0  0  0  0
    6.2704    1.8083   22.4624 C   0  0  0  0  0  0  0  0  0  0  0  0
    5.8376    1.4963   21.1626 C   0  0  0  0  0  0  0  0  0  0  0  0
    4.5161    1.2621   20.8848 C   0  0  0  0  0  0  0  0  0  0  0  0
    3.6437    1.3554   21.9819 C   0  0  0  0  0  0  0  0  0  0  0  0
    4.0753    1.6609   23.2508 C   0  0  0  0  0  0  0  0  0  0  0  0
    6.2764    1.1835   25.6773 C   0  0  0  0  0  0  0  0  0  0  0  0
    5.8445    2.2041   24.7981 O   0  0  0  0  0  0  0  0  0  0  0  0
 24 25  1  0  0  0
 25 18  1  0  0  0
 18 19  2  0  0  0
 19 20  1  0  0  0
 20 21  2  0  0  0
 21 16  1  0  0  0
 16  1  1  0  0  0
  1  2  2  0  0  0
  2  3  1  0  0  0
  3 11  1  0  0  0
 11 12  1  0  0  0
 12 13  1  0  0  0
 13 14  1  0  0  0
 14 15  1  0  0  0
  3  4  2  0  0  0
  4  5  1  0  0  0
  5  6  2  0  0  0
  6  7  1  0  0  0
  7  8  2  0  0  0
  8  9  1  0  0  0
  9 10  2  0  0  0
 21 22  1  0  0  0
 22 23  2  0  0  0
 23 18  1  0  0  0
 10  1  1  0  0  0
 15 11  1  0  0  0
  9  4  1  0  0  0
 16 17  1  0  0  0
M  END
> <minimizedAffinity>
-7.70450

> <CNNscore>
0.5206235051

> <CNNaffinity>
6.2922949791

> <CNN_VS>
3.2759165764

> <CNNaffinity_variance>
0.3543321490

$$$$
[H]c1c([H])c(N([H])c2nc(N3C([H])([H])C([H])([H])C([H])([H])C3([H])[H])c3c([H])c([H])c([H])c([H])c3n2)c([H])c([H])c1OC([H])([H])[H]


 25 28  0  0  0  0  0  0  0  0999 V2000
    3.4813    2.0859   15.9787 C   0  0  0  0  0  0  0  0  0  0  0  0
    3.5495    1.4075   17.1271 N   0  0  0  0  0  0  0  0  0  0  0  0
    4.0689    1.9087   18.2665 C   0  0  0  0  0  0  0  0  0  0  0  0
    4.5575    3.1949   18.2405 C   0  0  0  0  0  0  0  0  0  0  0  0
    5.1110    3.7741   19.3516 C   0  0  0  0  0  0  0  0  0  0  0  0
    5.5912    5.0689   19.2555 C   0  0  0  0  0  0  0  0  0  0  0  0
    5.5355    5.7937   18.0948 C   0  0  0  0  0  0  0  0  0  0  0  0
    4.9871    5.2302   16.9758 C   0  0  0  0  0  0  0  0  0  0  0  0
    4.4977    3.9271   17.0504 C   0  0  0  0  0  0  0  0  0  0  0  0
    3.9607    3.3278   15.9838 N   0  0  0  0  0  0  0  0  0  0  0  0
    4.0669    1.1161   19.4536 N   0  0  0  0  0  0  0  0  0  0  0  0
    5.0927    1.0372   20.4437 C   0  0  0  0  0  0  0  0  0  0  0  0
    4.4059    0.5395   21.7178 C   0  0  0  0  0  0  0  0  0  0  0  0
    2.9568    0.5449   21.3625 C   0  0  0  0  0  0  0  0  0  0  0  0
    2.9891    0.2454   19.8587 C   0  0  0  0  0  0  0  0  0  0  0  0
    2.9360    1.4728   14.8312 N   0  0  0  0  0  0  0  0  0  0  0  0
    2.9076    0.4086   14.8605 H   0  0  0  0  0  0  0  0  0  0  0  0
    1.1726    3.3889   11.4635 C   0  0  0  0  0  0  0  0  0  0  0  0
    2.2933    2.6131   11.3104 C   0  0  0  0  0  0  0  0  0  0  0  0
    2.9129    1.9698   12.3950 C   0  0  0  0  0  0  0  0  0  0  0  0
    2.4245    2.0855   13.6703 C   0  0  0  0  0  0  0  0  0  0  0  0
    1.2769    2.8843   13.8062 C   0  0  0  0  0  0  0  0  0  0  0  0
    0.6768    3.5107   12.7399 C   0  0  0  0  0  0  0  0  0  0  0  0
   -0.8034    3.8275   10.1135 C   0  0  0  0  0  0  0  0  0  0  0  0
    0.5721    4.0175   10.3837 O   0  0  0  0  0  0  0  0  0  0  0  0
 24 25  1  0  0  0
 25 18  1  0  0  0
 18 19  2  0  0  0
 19 20  1  0  0  0
 20 21  2  0  0  0
 21 16  1  0  0  0
 16  1  1  0  0  0
  1  2  2  0  0  0
  2  3  1  0  0  0
  3 11  1  0  0  0
 11 12  1  0  0  0
 12 13  1  0  0  0
 13 14  1  0  0  0
 14 15  1  0  0  0
  3  4  2  0  0  0
  4  5  1  0  0  0
  5  6  2  0  0  0
  6  7  1  0  0  0
  7  8  2  0  0  0
  8  9  1  0  0  0
  9 10  2  0  0  0
 21 22  1  0  0  0
 22 23  2  0  0  0
 23 18  1  0  0  0
 10  1  1  0  0  0
 15 11  1  0  0  0
  9  4  1  0  0  0
 16 17  1  0  0  0
M  END
> <minimizedAffinity>
-6.60704

> <CNNscore>
0.5202834606

> <CNNaffinity>
6.0327172279

> <CNN_VS>
3.1387228966

> <CNNaffinity_variance>
0.3010265231

$$$$
[H]c1c([H])c(N([H])c2nc(N3C([H])([H])C([H])([H])C([H])([H])C3([H])[H])c3c([H])c([H])c([H])c([H])c3n2)c([H])c([H])c1OC([H])([H])[H]


 25 28  0  0  0  0  0  0  0  0999 V2000
    4.5301    2.7086   18.1334 C   0  0  0  0  0  0  0  0  0  0  0  0
    4.8360    3.6595   19.0199 N   0  0  0  0  0  0  0  0  0  0  0  0
    4.6957    3.5169   20.3538 C   0  0  0  0  0  0  0  0  0  0  0  0
    4.2073    2.3199   20.8257 C   0  0  0  0  0  0  0  0  0  0  0  0
    4.0247    2.0984   22.1651 C   0  0  0  0  0  0  0  0  0  0  0  0
    3.5222    0.8745   22.5728 C   0  0  0  0  0  0  0  0  0  0  0  0
    3.2000   -0.1229   21.6913 C   0  0  0  0  0  0  0  0  0  0  0  0
    3.3751    0.0821   20.3505 C   0  0  0  0  0  0  0  0  0  0  0  0
    3.8797    1.3075   19.9182 C   0  0  0  0  0  0  0  0  0  0  0  0
    4.0609    1.5613   18.6190 N   0  0  0  0  0  0  0  0  0  0  0  0
    5.0818    4.5806   21.2236 N   0  0  0  0  0  0  0  0  0  0  0  0
    6.3637    4.7931   21.8155 C   0  0  0  0  0  0  0  0  0  0  0  0
    6.4224    6.2829   22.1613 C   0  0  0  0  0  0  0  0  0  0  0  0
    5.1783    6.8358   21.5509 C   0  0  0  0  0  0  0  0  0  0  0  0
    4.2112    5.6497   21.6514 C   0  0  0  0  0  0  0  0  0  0  0  0
    4.6939    2.9544   16.7540 N   0  0  0  0  0  0  0  0  0  0  0  0
    5.6861    3.2014   16.4560 H   0  0  0  0  0  0  0  0  0  0  0  0
    1.7134    3.0705   13.7166 C   0  0  0  0  0  0  0  0  0  0  0  0
    2.2112    1.8691   14.1526 C   0  0  0  0  0  0  0  0  0  0  0  0
    3.2012    1.7845   15.1460 C   0  0  0  0  0  0  0  0  0  0  0  0
    3.7228    2.9069   15.7346 C   0  0  0  0  0  0  0  0  0  0  0  0
    3.2004    4.1271   15.2743 C   0  0  0  0  0  0  0  0  0  0  0  0
    2.2320    4.2014   14.3016 C   0  0  0  0  0  0  0  0  0  0  0  0
    0.0691    4.3562   12.4666 C   0  0  0  0  0  0  0  0  0  0  0  0
    0.7365    3.1383   12.7355 O   0  0  0  0  0  0  0  0  0  0  0  0
 24 25  1  0  0  0
 25 18  1  0  0  0
 18 19  2  0  0  0
 19 20  1  0  0  0
 20 21  2  0  0  0
 21 16  1  0  0  0
 16  1  1  0  0  0
  1  2  2  0  0  0
  2  3  1  0  0  0
  3 11  1  0  0  0
 11 12  1  0  0  0
 12 13  1  0  0  0
 13 14  1  0  0  0
 14 15  1  0  0  0
  3  4  2  0  0  0
  4  5  1  0  0  0
  5  6  2  0  0  0
  6  7  1  0  0  0
  7  8  2  0  0  0
  8  9  1  0  0  0
  9 10  2  0  0  0
 21 22  1  0  0  0
 22 23  2  0  0  0
 23 18  1  0  0  0
 10  1  1  0  0  0
 15 11  1  0  0  0
  9  4  1  0  0  0
 16 17  1  0  0  0
M  END
> <minimizedAffinity>
-8.05080

> <CNNscore>
0.4825862348

> <CNNaffinity>
6.1234078407

> <CNN_VS>
2.9550724030

> <CNNaffinity_variance>
0.2951203585

$$$$
[H]c1c([H])c(N([H])c2nc(N3C([H])([H])C([H])([H])C([H])([H])C3([H])[H])c3c([H])c([H])c([H])c([H])c3n2)c([H])c([H])c1OC([H])([H])[H]


 25 28  0  0  0  0  0  0  0  0999 V2000
    4.7488    2.5034   18.7370 C   0  0  0  0  0  0  0  0  0  0  0  0
    5.0221    3.7847   18.9964 N   0  0  0  0  0  0  0  0  0  0  0  0
    5.0190    4.3180   20.2353 C   0  0  0  0  0  0  0  0  0  0  0  0
    4.7149    3.4905   21.2920 C   0  0  0  0  0  0  0  0  0  0  0  0
    4.6795    3.9561   22.5798 C   0  0  0  0  0  0  0  0  0  0  0  0
    4.3587    3.0725   23.5961 C   0  0  0  0  0  0  0  0  0  0  0  0
    4.0750    1.7525   23.3660 C   0  0  0  0  0  0  0  0  0  0  0  0
    4.1048    1.2716   22.0860 C   0  0  0  0  0  0  0  0  0  0  0  0
    4.4252    2.1443   21.0474 C   0  0  0  0  0  0  0  0  0  0  0  0
    4.4593    1.7268   19.7787 N   0  0  0  0  0  0  0  0  0  0  0  0
    5.3573    5.6931   20.4145 N   0  0  0  0  0  0  0  0  0  0  0  0
    4.5007    6.8238   20.2514 C   0  0  0  0  0  0  0  0  0  0  0  0
    5.1329    7.9488   21.0744 C   0  0  0  0  0  0  0  0  0  0  0  0
    6.2488    7.2723   21.7978 C   0  0  0  0  0  0  0  0  0  0  0  0
    6.6598    6.1744   20.8089 C   0  0  0  0  0  0  0  0  0  0  0  0
    4.7593    2.0379   17.4054 N   0  0  0  0  0  0  0  0  0  0  0  0
    5.4833    1.2849   17.1980 H   0  0  0  0  0  0  0  0  0  0  0  0
    2.2079    2.9806   14.1306 C   0  0  0  0  0  0  0  0  0  0  0  0
    3.0696    3.9234   14.6307 C   0  0  0  0  0  0  0  0  0  0  0  0
    3.9226    3.6583   15.7152 C   0  0  0  0  0  0  0  0  0  0  0  0
    3.9372    2.4347   16.3324 C   0  0  0  0  0  0  0  0  0  0  0  0
    3.0476    1.4833   15.8060 C   0  0  0  0  0  0  0  0  0  0  0  0
    2.2159    1.7507   14.7447 C   0  0  0  0  0  0  0  0  0  0  0  0
    0.7963    4.5398   12.9077 C   0  0  0  0  0  0  0  0  0  0  0  0
    1.3721    3.2567   13.0597 O   0  0  0  0  0  0  0  0  0  0  0  0
 24 25  1  0  0  0
 25 18  1  0  0  0
 18 19  2  0  0  0
 19 20  1  0  0  0
 20 21  2  0  0  0
 21 16  1  0  0  0
 16  1  1  0  0  0
  1  2  2  0  0  0
  2  3  1  0  0  0
  3 11  1  0  0  0
 11 12  1  0  0  0
 12 13  1  0  0  0
 13 14  1  0  0  0
 14 15  1  0  0  0
  3  4  2  0  0  0
  4  5  1  0  0  0
  5  6  2  0  0  0
  6  7  1  0  0  0
  7  8  2  0  0  0
  8  9  1  0  0  0
  9 10  2  0  0  0
 21 22  1  0  0  0
 22 23  2  0  0  0
 23 18  1  0  0  0
 10  1  1  0  0  0
 15 11  1  0  0  0
  9  4  1  0  0  0
 16 17  1  0  0  0
M  END
> <minimizedAffinity>
-7.81457

> <CNNscore>
0.3499905467

> <CNNaffinity>
5.8807106018

> <CNN_VS>
2.0581932068

> <CNNaffinity_variance>
0.2603346407

$$$$
[H]c1c([H])c(N([H])c2nc(N3C([H])([H])C([H])([H])C([H])([H])C3([H])[H])c3c([H])c([H])c([H])c([H])c3n2)c([H])c([H])c1OC([H])([H])[H]


 25 28  0  0  0  0  0  0  0  0999 V2000
    3.1370    2.0241   15.2724 C   0  0  0  0  0  0  0  0  0  0  0  0
    2.7801    1.9812   13.9861 N   0  0  0  0  0  0  0  0  0  0  0  0
    2.7279    3.0644   13.1840 C   0  0  0  0  0  0  0  0  0  0  0  0
    3.0615    4.2843   13.7265 C   0  0  0  0  0  0  0  0  0  0  0  0
    3.0238    5.4340   12.9827 C   0  0  0  0  0  0  0  0  0  0  0  0
    3.3640    6.6297   13.5918 C   0  0  0  0  0  0  0  0  0  0  0  0
    3.7362    6.7095   14.9074 C   0  0  0  0  0  0  0  0  0  0  0  0
    3.7781    5.5714   15.6646 C   0  0  0  0  0  0  0  0  0  0  0  0
    3.4391    4.3565   15.0712 C   0  0  0  0  0  0  0  0  0  0  0  0
    3.4552    3.2174   15.7694 N   0  0  0  0  0  0  0  0  0  0  0  0
    2.3661    2.9117   11.8117 N   0  0  0  0  0  0  0  0  0  0  0  0
    1.0534    2.9587   11.2520 C   0  0  0  0  0  0  0  0  0  0  0  0
    1.2420    3.3051    9.7731 C   0  0  0  0  0  0  0  0  0  0  0  0
    2.6998    3.6034    9.6641 C   0  0  0  0  0  0  0  0  0  0  0  0
    3.3012    2.6854   10.7355 C   0  0  0  0  0  0  0  0  0  0  0  0
    3.1459    0.8403   16.0395 N   0  0  0  0  0  0  0  0  0  0  0  0
    3.0753   -0.0609   15.4763 H   0  0  0  0  0  0  0  0  0  0  0  0
    3.6671    0.5656   20.2556 C   0  0  0  0  0  0  0  0  0  0  0  0
    2.7105   -0.1889   19.6256 C   0  0  0  0  0  0  0  0  0  0  0  0
    2.4983   -0.1234   18.2382 C   0  0  0  0  0  0  0  0  0  0  0  0
    3.2428    0.7037   17.4383 C   0  0  0  0  0  0  0  0  0  0  0  0
    4.2167    1.4682   18.1021 C   0  0  0  0  0  0  0  0  0  0  0  0
    4.4178    1.3985   19.4602 C   0  0  0  0  0  0  0  0  0  0  0  0
    3.4728    1.5555   22.4696 C   0  0  0  0  0  0  0  0  0  0  0  0
    3.8650    0.4902   21.6255 O   0  0  0  0  0  0  0  0  0  0  0  0
 24 25  1  0  0  0
 25 18  1  0  0  0
 18 19  2  0  0  0
 19 20  1  0  0  0
 20 21  2  0  0  0
 21 16  1  0  0  0
 16  1  1  0  0  0
  1  2  2  0  0  0
  2  3  1  0  0  0
  3 11  1  0  0  0
 11 12  1  0  0  0
 12 13  1  0  0  0
 13 14  1  0  0  0
 14 15  1  0  0  0
  3  4  2  0  0  0
  4  5  1  0  0  0
  5  6  2  0  0  0
  6  7  1  0  0  0
  7  8  2  0  0  0
  8  9  1  0  0  0
  9 10  2  0  0  0
 21 22  1  0  0  0
 22 23  2  0  0  0
 23 18  1  0  0  0
 10  1  1  0  0  0
 15 11  1  0  0  0
  9  4  1  0  0  0
 16 17  1  0  0  0
M  END
> <minimizedAffinity>
-6.41092

> <CNNscore>
0.2826749682

> <CNNaffinity>
5.6620931625

> <CNN_VS>
1.6005320549

> <CNNaffinity_variance>
0.1872201264

$$$$
[H]c1c([H])c(N([H])c2nc(N3C([H])([H])C([H])([H])C([H])([H])C3([H])[H])c3c([H])c([H])c([H])c([H])c3n2)c([H])c([H])c1OC([H])([H])[H]


 25 28  0  0  0  0  0  0  0  0999 V2000
    4.5449    3.3737   17.3649 C   0  0  0  0  0  0  0  0  0  0  0  0
    4.8467    3.6697   18.6318 N   0  0  0  0  0  0  0  0  0  0  0  0
    4.5328    2.8843   19.6825 C   0  0  0  0  0  0  0  0  0  0  0  0
    3.8610    1.7099   19.4308 C   0  0  0  0  0  0  0  0  0  0  0  0
    3.4960    0.8619   20.4427 C   0  0  0  0  0  0  0  0  0  0  0  0
    2.8149   -0.2998   20.1216 C   0  0  0  0  0  0  0  0  0  0  0  0
    2.4912   -0.6350   18.8338 C   0  0  0  0  0  0  0  0  0  0  0  0
    2.8472    0.2010   17.8117 C   0  0  0  0  0  0  0  0  0  0  0  0
    3.5334    1.3764   18.1126 C   0  0  0  0  0  0  0  0  0  0  0  0
    3.8959    2.2311   17.1518 N   0  0  0  0  0  0  0  0  0  0  0  0
    4.9284    3.2712   20.9982 N   0  0  0  0  0  0  0  0  0  0  0  0
    4.2464    4.1632   21.8802 C   0  0  0  0  0  0  0  0  0  0  0  0
    4.7319    3.8108   23.2883 C   0  0  0  0  0  0  0  0  0  0  0  0
    5.5533    2.5826   23.0809 C   0  0  0  0  0  0  0  0  0  0  0  0
    6.1160    2.8013   21.6710 C   0  0  0  0  0  0  0  0  0  0  0  0
    4.8989    4.2657   16.3310 N   0  0  0  0  0  0  0  0  0  0  0  0
    5.9346    4.5089   16.2819 H   0  0  0  0  0  0  0  0  0  0  0  0
    2.4647    5.8807   13.2343 C   0  0  0  0  0  0  0  0  0  0  0  0
    2.6392    6.5689   14.4078 C   0  0  0  0  0  0  0  0  0  0  0  0
    3.4263    6.0696   15.4592 C   0  0  0  0  0  0  0  0  0  0  0  0
    4.0650    4.8608   15.3639 C   0  0  0  0  0  0  0  0  0  0  0  0
    3.8737    4.1714   14.1549 C   0  0  0  0  0  0  0  0  0  0  0  0
    3.1016    4.6667   13.1311 C   0  0  0  0  0  0  0  0  0  0  0  0
    0.8715    7.5249   12.4112 C   0  0  0  0  0  0  0  0  0  0  0  0
    1.6851    6.3861   12.2056 O   0  0  0  0  0  0  0  0  0  0  0  0
 24 25  1  0  0  0
 25 18  1  0  0  0
 18 19  2  0  0  0
 19 20  1  0  0  0
 20 21  2  0  0  0
 21 16  1  0  0  0
 16  1  1  0  0  0
  1  2  2  0  0  0
  2  3  1  0  0  0
  3 11  1  0  0  0
 11 12  1  0  0  0
 12 13  1  0  0  0
 13 14  1  0  0  0
 14 15  1  0  0  0
  3  4  2  0  0  0
  4  5  1  0  0  0
  5  6  2  0  0  0
  6  7  1  0  0  0
  7  8  2  0  0  0
  8  9  1  0  0  0
  9 10  2  0  0  0
 21 22  1  0  0  0
 22 23  2  0  0  0
 23 18  1  0  0  0
 10  1  1  0  0  0
 15 11  1  0  0  0
  9  4  1  0  0  0
 16 17  1  0  0  0
M  END
> <minimizedAffinity>
-7.07422

> <CNNscore>
0.2449773550

> <CNNaffinity>
5.9933633804

> <CNN_VS>
1.4682383537

> <CNNaffinity_variance>
0.1501942426

$$$$
[H]c1c([H])c(N([H])c2nc(N3C([H])([H])C([H])([H])C([H])([H])C3([H])[H])c3c([H])c([H])c([H])c([H])c3n2)c([H])c([H])c1OC([H])([H])[H]


 25 28  0  0  0  0  0  0  0  0999 V2000
    5.0359    3.9913   17.8020 C   0  0  0  0  0  0  0  0  0  0  0  0
    5.3362    4.9507   18.6812 N   0  0  0  0  0  0  0  0  0  0  0  0
    5.3991    4.7556   20.0144 C   0  0  0  0  0  0  0  0  0  0  0  0
    5.1366    3.4926   20.4937 C   0  0  0  0  0  0  0  0  0  0  0  0
    5.1687    3.2137   21.8344 C   0  0  0  0  0  0  0  0  0  0  0  0
    4.8869    1.9238   22.2507 C   0  0  0  0  0  0  0  0  0  0  0  0
    4.5771    0.9160   21.3765 C   0  0  0  0  0  0  0  0  0  0  0  0
    4.5395    1.1776   20.0347 C   0  0  0  0  0  0  0  0  0  0  0  0
    4.8197    2.4699   19.5937 C   0  0  0  0  0  0  0  0  0  0  0  0
    4.7877    2.7796   18.2944 N   0  0  0  0  0  0  0  0  0  0  0  0
    5.7616    5.8379   20.8715 N   0  0  0  0  0  0  0  0  0  0  0  0
    7.0790    6.2948   21.1792 C   0  0  0  0  0  0  0  0  0  0  0  0
    6.9207    7.7455   21.6408 C   0  0  0  0  0  0  0  0  0  0  0  0
    5.4827    8.0442   21.3782 C   0  0  0  0  0  0  0  0  0  0  0  0
    4.8232    6.6744   21.5809 C   0  0  0  0  0  0  0  0  0  0  0  0
    4.9768    4.2928   16.4252 N   0  0  0  0  0  0  0  0  0  0  0  0
    5.8106    4.8375   16.0480 H   0  0  0  0  0  0  0  0  0  0  0  0
    1.8488    3.5437   13.6363 C   0  0  0  0  0  0  0  0  0  0  0  0
    2.5482    2.5012   14.1888 C   0  0  0  0  0  0  0  0  0  0  0  0
    3.5934    2.7027   15.1060 C   0  0  0  0  0  0  0  0  0  0  0  0
    3.9689    3.9610   15.4984 C   0  0  0  0  0  0  0  0  0  0  0  0
    3.2411    5.0149   14.9214 C   0  0  0  0  0  0  0  0  0  0  0  0
    2.2200    4.8093   14.0243 C   0  0  0  0  0  0  0  0  0  0  0  0
   -0.1705    4.3170   12.5211 C   0  0  0  0  0  0  0  0  0  0  0  0
    0.8199    3.3293   12.7326 O   0  0  0  0  0  0  0  0  0  0  0  0
 24 25  1  0  0  0
 25 18  1  0  0  0
 18 19  2  0  0  0
 19 20  1  0  0  0
 20 21  2  0  0  0
 21 16  1  0  0  0
 16  1  1  0  0  0
  1  2  2  0  0  0
  2  3  1  0  0  0
  3 11  1  0  0  0
 11 12  1  0  0  0
 12 13  1  0  0  0
 13 14  1  0  0  0
 14 15  1  0  0  0
  3  4  2  0  0  0
  4  5  1  0  0  0
  5  6  2  0  0  0
  6  7  1  0  0  0
  7  8  2  0  0  0
  8  9  1  0  0  0
  9 10  2  0  0  0
 21 22  1  0  0  0
 22 23  2  0  0  0
 23 18  1  0  0  0
 10  1  1  0  0  0
 15 11  1  0  0  0
  9  4  1  0  0  0
 16 17  1  0  0  0
M  END
> <minimizedAffinity>
-7.22743

> <CNNscore>
0.1974167228

> <CNNaffinity>
5.5913243294

> <CNN_VS>
1.1038209200

> <CNNaffinity_variance>
0.2213444710

$$$$
[H]c1c([H])c(N([H])c2nc(N3C([H])([H])C([H])([H])C([H])([H])C3([H])[H])c3c([H])c([H])c([H])c([H])c3n2)c([H])c([H])c1OC([H])([H])[H]


 25 28  0  0  0  0  0  0  0  0999 V2000
    4.8717    3.5766   18.5641 C   0  0  0  0  0  0  0  0  0  0  0  0
    4.9712    4.8990   18.7221 N   0  0  0  0  0  0  0  0  0  0  0  0
    4.7867    5.5314   19.8992 C   0  0  0  0  0  0  0  0  0  0  0  0
    4.4768    4.7659   21.0000 C   0  0  0  0  0  0  0  0  0  0  0  0
    4.2633    5.3314   22.2292 C   0  0  0  0  0  0  0  0  0  0  0  0
    3.9472    4.5049   23.2939 C   0  0  0  0  0  0  0  0  0  0  0  0
    3.8390    3.1454   23.1677 C   0  0  0  0  0  0  0  0  0  0  0  0
    4.0479    2.5647   21.9472 C   0  0  0  0  0  0  0  0  0  0  0  0
    4.3670    3.3785   20.8614 C   0  0  0  0  0  0  0  0  0  0  0  0
    4.5719    2.8618   19.6464 N   0  0  0  0  0  0  0  0  0  0  0  0
    4.9477    6.9476   19.9743 N   0  0  0  0  0  0  0  0  0  0  0  0
    4.1580    7.9444   19.3250 C   0  0  0  0  0  0  0  0  0  0  0  0
    4.3529    9.2266   20.1379 C   0  0  0  0  0  0  0  0  0  0  0  0
    5.1362    8.7758   21.3251 C   0  0  0  0  0  0  0  0  0  0  0  0
    5.9632    7.6194   20.7497 C   0  0  0  0  0  0  0  0  0  0  0  0
    5.0648    3.0043   17.2892 N   0  0  0  0  0  0  0  0  0  0  0  0
    6.0668    2.7151   17.0733 H   0  0  0  0  0  0  0  0  0  0  0  0
    2.1486    2.0314   14.3445 C   0  0  0  0  0  0  0  0  0  0  0  0
    2.8801    3.1868   14.2392 C   0  0  0  0  0  0  0  0  0  0  0  0
    3.8461    3.5514   15.1921 C   0  0  0  0  0  0  0  0  0  0  0  0
    4.1085    2.7643   16.2830 C   0  0  0  0  0  0  0  0  0  0  0  0
    3.3489    1.5860   16.3730 C   0  0  0  0  0  0  0  0  0  0  0  0
    2.4053    1.2366   15.4365 C   0  0  0  0  0  0  0  0  0  0  0  0
    1.3676    2.0514   12.0404 C   0  0  0  0  0  0  0  0  0  0  0  0
    1.1988    1.6848   13.3962 O   0  0  0  0  0  0  0  0  0  0  0  0
 24 25  1  0  0  0
 25 18  1  0  0  0
 18 19  2  0  0  0
 19 20  1  0  0  0
 20 21  2  0  0  0
 21 16  1  0  0  0
 16  1  1  0  0  0
  1  2  2  0  0  0
  2  3  1  0  0  0
  3 11  1  0  0  0
 11 12  1  0  0  0
 12 13  1  0  0  0
 13 14  1  0  0  0
 14 15  1  0  0  0
  3  4  2  0  0  0
  4  5  1  0  0  0
  5  6  2  0  0  0
  6  7  1  0  0  0
  7  8  2  0  0  0
  8  9  1  0  0  0
  9 10  2  0  0  0
 21 22  1  0  0  0
 22 23  2  0  0  0
 23 18  1  0  0  0
 10  1  1  0  0  0
 15 11  1  0  0  0
  9  4  1  0  0  0
 16 17  1  0  0  0
M  END
> <minimizedAffinity>
-8.28693

> <CNNscore>
0.1600980312

> <CNNaffinity>
5.4365944862

> <CNN_VS>
0.8703880906

> <CNNaffinity_variance>
0.2684783041

$$$$
[H]c1c([H])c(N([H])c2nc(N3C([H])([H])C([H])([H])C([H])([H])C3([H])[H])c3c([H])c([H])c([H])c([H])c3n2)c([H])c([H])c1OC([H])([H])[H]


 25 28  0  0  0  0  0  0  0  0999 V2000
    3.9231    8.8076   15.3005 C   0  0  0  0  0  0  0  0  0  0  0  0
    2.9558    8.1950   14.6128 N   0  0  0  0  0  0  0  0  0  0  0  0
    3.1018    7.7428   13.3504 C   0  0  0  0  0  0  0  0  0  0  0  0
    4.3202    7.9260   12.7374 C   0  0  0  0  0  0  0  0  0  0  0  0
    4.5470    7.5060   11.4535 C   0  0  0  0  0  0  0  0  0  0  0  0
    5.7932    7.7283   10.8931 C   0  0  0  0  0  0  0  0  0  0  0  0
    6.8077    8.3513   11.5701 C   0  0  0  0  0  0  0  0  0  0  0  0
    6.5978    8.7779   12.8524 C   0  0  0  0  0  0  0  0  0  0  0  0
    5.3500    8.5644   13.4360 C   0  0  0  0  0  0  0  0  0  0  0  0
    5.0909    8.9698   14.6824 N   0  0  0  0  0  0  0  0  0  0  0  0
    2.0179    7.0702   12.7101 N   0  0  0  0  0  0  0  0  0  0  0  0
    0.9597    7.6586   11.9532 C   0  0  0  0  0  0  0  0  0  0  0  0
    0.4237    6.5457   11.0494 C   0  0  0  0  0  0  0  0  0  0  0  0
    1.3830    5.4236   11.2652 C   0  0  0  0  0  0  0  0  0  0  0  0
    1.8166    5.6408   12.7202 C   0  0  0  0  0  0  0  0  0  0  0  0
    3.6731    9.2628   16.6121 N   0  0  0  0  0  0  0  0  0  0  0  0
    3.1325   10.1782   16.6749 H   0  0  0  0  0  0  0  0  0  0  0  0
    4.8068    7.6897   20.4019 C   0  0  0  0  0  0  0  0  0  0  0  0
    4.7226    6.8668   19.3078 C   0  0  0  0  0  0  0  0  0  0  0  0
    4.3441    7.3415   18.0407 C   0  0  0  0  0  0  0  0  0  0  0  0
    4.0384    8.6612   17.8324 C   0  0  0  0  0  0  0  0  0  0  0  0
    4.1302    9.4873   18.9649 C   0  0  0  0  0  0  0  0  0  0  0  0
    4.5010    9.0149   20.2015 C   0  0  0  0  0  0  0  0  0  0  0  0
    4.7697    5.9233   22.0745 C   0  0  0  0  0  0  0  0  0  0  0  0
    5.1818    7.2069   21.6460 O   0  0  0  0  0  0  0  0  0  0  0  0
 24 25  1  0  0  0
 25 18  1  0  0  0
 18 19  2  0  0  0
 19 20  1  0  0  0
 20 21  2  0  0  0
 21 16  1  0  0  0
 16  1  1  0  0  0
  1  2  2  0  0  0
  2  3  1  0  0  0
  3 11  1  0  0  0
 11 12  1  0  0  0
 12 13  1  0  0  0
 13 14  1  0  0  0
 14 15  1  0  0  0
  3  4  2  0  0  0
  4  5  1  0  0  0
  5  6  2  0  0  0
  6  7  1  0  0  0
  7  8  2  0  0  0
  8  9  1  0  0  0
  9 10  2  0  0  0
 21 22  1  0  0  0
 22 23  2  0  0  0
 23 18  1  0  0  0
 10  1  1  0  0  0
 15 11  1  0  0  0
  9  4  1  0  0  0
 16 17  1  0  0  0
M  END
> <minimizedAffinity>
-6.08502

> <CNNscore>
0.1492190361

> <CNNaffinity>
4.5323276520

> <CNN_VS>
0.6763095856

> <CNNaffinity_variance>
0.5279530287

$$$$
[H]OC12N(C([H])([H])c3c([H])c([H])c(OC([H])([H])[H])c([H])c3[H])C3([H])C4([H])C5([H])C([H])([H])C([H])(C14[H])C1([H])C2([H])C3([H])C51[H]


 23 29  0  0  0  0  0  0  0  0999 V2000
    4.3317    2.0824   20.0084 N   0  0  0  0  0  0  0  0  0  0  0  0
    4.7318    3.4221   20.4170 C   0  0  0  0  0  0  0  0  0  0  0  0
    3.7627    3.6302   21.5603 C   0  0  0  0  0  0  0  0  0  0  0  0
    4.5326    4.4321   22.5690 C   0  0  0  0  0  0  0  0  0  0  0  0
    4.0095    3.8127   23.8706 C   0  0  0  0  0  0  0  0  0  0  0  0
    4.3194    2.3572   23.4907 C   0  0  0  0  0  0  0  0  0  0  0  0
    5.7621    2.4516   23.1099 C   0  0  0  0  0  0  0  0  0  0  0  0
    5.9027    3.8503   22.4921 C   0  0  0  0  0  0  0  0  0  0  0  0
    6.0352    3.2451   21.1278 C   0  0  0  0  0  0  0  0  0  0  0  0
    5.9021    1.8551   21.7545 C   0  0  0  0  0  0  0  0  0  0  0  0
    4.5420    1.4195   21.2722 C   0  0  0  0  0  0  0  0  0  0  0  0
    4.2986    0.0954   21.3237 O   0  0  0  0  0  0  0  0  0  0  0  0
    3.6299    2.2500   22.1733 C   0  0  0  0  0  0  0  0  0  0  0  0
    4.9854   -0.3772   21.8550 H   0  0  0  0  0  0  0  0  0  0  0  0
    5.0979    1.5851   18.9138 C   0  0  0  0  0  0  0  0  0  0  0  0
    2.6743    1.6862   15.3486 C   0  0  0  0  0  0  0  0  0  0  0  0
    3.5913    2.6780   15.6194 C   0  0  0  0  0  0  0  0  0  0  0  0
    4.3640    2.6490   16.7596 C   0  0  0  0  0  0  0  0  0  0  0  0
    4.2582    1.6212   17.6916 C   0  0  0  0  0  0  0  0  0  0  0  0
    3.3233    0.6273   17.3972 C   0  0  0  0  0  0  0  0  0  0  0  0
    2.5523    0.6588   16.2566 C   0  0  0  0  0  0  0  0  0  0  0  0
    2.4459    2.1458   12.9502 C   0  0  0  0  0  0  0  0  0  0  0  0
    1.8970    1.7312   14.1848 O   0  0  0  0  0  0  0  0  0  0  0  0
 22 23  1  0  0  0
 23 16  1  0  0  0
 16 17  2  0  0  0
 17 18  1  0  0  0
 18 19  2  0  0  0
 19 15  1  0  0  0
 15  1  1  0  0  0
  1  2  1  0  0  0
  2  3  1  0  0  0
  3  4  1  0  0  0
  4  5  1  0  0  0
  5  6  1  0  0  0
  6  7  1  0  0  0
  7  8  1  0  0  0
  8  9  1  0  0  0
  9 10  1  0  0  0
 10 11  1  0  0  0
 11 12  1  0  0  0
 11 13  1  0  0  0
 19 20  1  0  0  0
 20 21  2  0  0  0
 21 16  1  0  0  0
 11  1  1  0  0  0
  9  2  1  0  0  0
 13  3  1  0  0  0
  8  4  1  0  0  0
 13  6  1  0  0  0
 10  7  1  0  0  0
 12 14  1  0  0  0
M  END
> <minimizedAffinity>
-8.10666

> <CNNscore>
0.3841205835

> <CNNaffinity>
5.5672712326

> <CNN_VS>
2.1385035515

> <CNNaffinity_variance>
0.0682868958

$$$$
[H]OC12N(C([H])([H])c3c([H])c([H])c(OC([H])([H])[H])c([H])c3[H])C3([H])C4([H])C5([H])C([H])([H])C([H])(C14[H])C1([H])C2([H])C3([H])C51[H]


 23 29  0  0  0  0  0  0  0  0999 V2000
    4.2535    3.3124   19.6601 N   0  0  0  0  0  0  0  0  0  0  0  0
    4.6741    4.5172   20.3626 C   0  0  0  0  0  0  0  0  0  0  0  0
    3.7005    4.4795   21.5202 C   0  0  0  0  0  0  0  0  0  0  0  0
    4.4770    5.0177   22.6867 C   0  0  0  0  0  0  0  0  0  0  0  0
    3.9334    4.1299   23.8127 C   0  0  0  0  0  0  0  0  0  0  0  0
    4.2203    2.7925   23.1141 C   0  0  0  0  0  0  0  0  0  0  0  0
    5.6672    2.9432   22.7692 C   0  0  0  0  0  0  0  0  0  0  0  0
    5.8371    4.4426   22.4845 C   0  0  0  0  0  0  0  0  0  0  0  0
    5.9689    4.1593   21.0190 C   0  0  0  0  0  0  0  0  0  0  0  0
    5.8066    2.6664   21.3144 C   0  0  0  0  0  0  0  0  0  0  0  0
    4.4426    2.3770   20.7417 C   0  0  0  0  0  0  0  0  0  0  0  0
    4.1755    1.0804   20.4914 O   0  0  0  0  0  0  0  0  0  0  0  0
    3.5387    2.9992   21.8045 C   0  0  0  0  0  0  0  0  0  0  0  0
    4.8499    0.4870   20.9041 H   0  0  0  0  0  0  0  0  0  0  0  0
    5.0187    3.0614   18.4838 C   0  0  0  0  0  0  0  0  0  0  0  0
    2.3004    2.2430   15.2379 C   0  0  0  0  0  0  0  0  0  0  0  0
    3.0221    1.2351   15.8389 C   0  0  0  0  0  0  0  0  0  0  0  0
    3.8935    1.4953   16.8738 C   0  0  0  0  0  0  0  0  0  0  0  0
    4.0883    2.7834   17.3626 C   0  0  0  0  0  0  0  0  0  0  0  0
    3.3472    3.7888   16.7392 C   0  0  0  0  0  0  0  0  0  0  0  0
    2.4768    3.5258   15.7050 C   0  0  0  0  0  0  0  0  0  0  0  0
    1.1315    2.9216   13.1913 C   0  0  0  0  0  0  0  0  0  0  0  0
    1.4190    1.9609   14.1871 O   0  0  0  0  0  0  0  0  0  0  0  0
 22 23  1  0  0  0
 23 16  1  0  0  0
 16 17  2  0  0  0
 17 18  1  0  0  0
 18 19  2  0  0  0
 19 15  1  0  0  0
 15  1  1  0  0  0
  1  2  1  0  0  0
  2  3  1  0  0  0
  3  4  1  0  0  0
  4  5  1  0  0  0
  5  6  1  0  0  0
  6  7  1  0  0  0
  7  8  1  0  0  0
  8  9  1  0  0  0
  9 10  1  0  0  0
 10 11  1  0  0  0
 11 12  1  0  0  0
 11 13  1  0  0  0
 19 20  1  0  0  0
 20 21  2  0  0  0
 21 16  1  0  0  0
 11  1  1  0  0  0
  9  2  1  0  0  0
 13  3  1  0  0  0
  8  4  1  0  0  0
 13  6  1  0  0  0
 10  7  1  0  0  0
 12 14  1  0  0  0
M  END
> <minimizedAffinity>
-7.27093

> <CNNscore>
0.3728040159

> <CNNaffinity>
5.5362997055

> <CNN_VS>
2.0639548302

> <CNNaffinity_variance>
0.1043575183

$$$$
[H]OC12N(C([H])([H])c3c([H])c([H])c(OC([H])([H])[H])c([H])c3[H])C3([H])C4([H])C5([H])C([H])([H])C([H])(C14[H])C1([H])C2([H])C3([H])C51[H]


 23 29  0  0  0  0  0  0  0  0999 V2000
    5.1999    6.4285   20.6519 N   0  0  0  0  0  0  0  0  0  0  0  0
    6.4935    7.0182   20.9690 C   0  0  0  0  0  0  0  0  0  0  0  0
    6.9672    7.3399   19.5685 C   0  0  0  0  0  0  0  0  0  0  0  0
    7.7347    8.6220   19.7127 C   0  0  0  0  0  0  0  0  0  0  0  0
    7.3409    9.3269   18.4091 C   0  0  0  0  0  0  0  0  0  0  0  0
    5.8238    9.1897   18.6054 C   0  0  0  0  0  0  0  0  0  0  0  0
    5.6492    9.7662   19.9738 C   0  0  0  0  0  0  0  0  0  0  0  0
    6.9382    9.3843   20.7157 C   0  0  0  0  0  0  0  0  0  0  0  0
    6.1848    8.3719   21.5236 C   0  0  0  0  0  0  0  0  0  0  0  0
    4.9041    8.7655   20.7838 C   0  0  0  0  0  0  0  0  0  0  0  0
    4.6432    7.5487   19.9333 C   0  0  0  0  0  0  0  0  0  0  0  0
    3.3866    7.4197   19.4650 O   0  0  0  0  0  0  0  0  0  0  0  0
    5.6947    7.7230   18.8389 C   0  0  0  0  0  0  0  0  0  0  0  0
    2.8672    8.2512   19.5921 H   0  0  0  0  0  0  0  0  0  0  0  0
    4.4793    6.0172   21.8112 C   0  0  0  0  0  0  0  0  0  0  0  0
    3.8965    1.7478   21.6474 C   0  0  0  0  0  0  0  0  0  0  0  0
    3.7910    2.4399   22.8339 C   0  0  0  0  0  0  0  0  0  0  0  0
    3.9802    3.8034   22.8886 C   0  0  0  0  0  0  0  0  0  0  0  0
    4.2861    4.5477   21.7534 C   0  0  0  0  0  0  0  0  0  0  0  0
    4.3880    3.8265   20.5626 C   0  0  0  0  0  0  0  0  0  0  0  0
    4.1984    2.4635   20.5109 C   0  0  0  0  0  0  0  0  0  0  0  0
    2.9983   -0.2525   20.5485 C   0  0  0  0  0  0  0  0  0  0  0  0
    3.7011    0.3618   21.6097 O   0  0  0  0  0  0  0  0  0  0  0  0
 22 23  1  0  0  0
 23 16  1  0  0  0
 16 17  2  0  0  0
 17 18  1  0  0  0
 18 19  2  0  0  0
 19 15  1  0  0  0
 15  1  1  0  0  0
  1  2  1  0  0  0
  2  3  1  0  0  0
  3  4  1  0  0  0
  4  5  1  0  0  0
  5  6  1  0  0  0
  6  7  1  0  0  0
  7  8  1  0  0  0
  8  9  1  0  0  0
  9 10  1  0  0  0
 10 11  1  0  0  0
 11 12  1  0  0  0
 11 13  1  0  0  0
 19 20  1  0  0  0
 20 21  2  0  0  0
 21 16  1  0  0  0
 11  1  1  0  0  0
  9  2  1  0  0  0
 13  3  1  0  0  0
  8  4  1  0  0  0
 13  6  1  0  0  0
 10  7  1  0  0  0
 12 14  1  0  0  0
M  END
> <minimizedAffinity>
-7.46528

> <CNNscore>
0.3456745446

> <CNNaffinity>
5.1613254547

> <CNN_VS>
1.7841387987

> <CNNaffinity_variance>
0.0318253301

$$$$
[H]OC12N(C([H])([H])c3c([H])c([H])c(OC([H])([H])[H])c([H])c3[H])C3([H])C4([H])C5([H])C([H])([H])C([H])(C14[H])C1([H])C2([H])C3([H])C51[H]


 23 29  0  0  0  0  0  0  0  0999 V2000
    4.4259    3.7385   20.1943 N   0  0  0  0  0  0  0  0  0  0  0  0
    4.8210    4.2009   21.5179 C   0  0  0  0  0  0  0  0  0  0  0  0
    3.8561    3.3937   22.3586 C   0  0  0  0  0  0  0  0  0  0  0  0
    4.6265    3.0568   23.6021 C   0  0  0  0  0  0  0  0  0  0  0  0
    4.1125    1.6369   23.8685 C   0  0  0  0  0  0  0  0  0  0  0  0
    4.4281    1.0878   22.4693 C   0  0  0  0  0  0  0  0  0  0  0  0
    5.8685    1.4606   22.3231 C   0  0  0  0  0  0  0  0  0  0  0  0
    5.9991    2.7852   23.0889 C   0  0  0  0  0  0  0  0  0  0  0  0
    6.1285    3.5312   21.7958 C   0  0  0  0  0  0  0  0  0  0  0  0
    6.0053    2.2047   21.0424 C   0  0  0  0  0  0  0  0  0  0  0  0
    4.6453    2.3283   20.4043 C   0  0  0  0  0  0  0  0  0  0  0  0
    4.4089    1.5045   19.3648 O   0  0  0  0  0  0  0  0  0  0  0  0
    3.7331    2.0840   21.6050 C   0  0  0  0  0  0  0  0  0  0  0  0
    5.1005    0.8014   19.2972 H   0  0  0  0  0  0  0  0  0  0  0  0
    5.1895    4.3346   19.1484 C   0  0  0  0  0  0  0  0  0  0  0  0
    2.7696    4.5049   15.5834 C   0  0  0  0  0  0  0  0  0  0  0  0
    2.3135    5.0056   16.7830 C   0  0  0  0  0  0  0  0  0  0  0  0
    3.0840    4.9491   17.9237 C   0  0  0  0  0  0  0  0  0  0  0  0
    4.3564    4.3858   17.9223 C   0  0  0  0  0  0  0  0  0  0  0  0
    4.7982    3.8848   16.6966 C   0  0  0  0  0  0  0  0  0  0  0  0
    4.0259    3.9427   15.5580 C   0  0  0  0  0  0  0  0  0  0  0  0
    1.2555    5.7423   14.1028 C   0  0  0  0  0  0  0  0  0  0  0  0
    1.9733    4.5706   14.4335 O   0  0  0  0  0  0  0  0  0  0  0  0
 22 23  1  0  0  0
 23 16  1  0  0  0
 16 17  2  0  0  0
 17 18  1  0  0  0
 18 19  2  0  0  0
 19 15  1  0  0  0
 15  1  1  0  0  0
  1  2  1  0  0  0
  2  3  1  0  0  0
  3  4  1  0  0  0
  4  5  1  0  0  0
  5  6  1  0  0  0
  6  7  1  0  0  0
  7  8  1  0  0  0
  8  9  1  0  0  0
  9 10  1  0  0  0
 10 11  1  0  0  0
 11 12  1  0  0  0
 11 13  1  0  0  0
 19 20  1  0  0  0
 20 21  2  0  0  0
 21 16  1  0  0  0
 11  1  1  0  0  0
  9  2  1  0  0  0
 13  3  1  0  0  0
  8  4  1  0  0  0
 13  6  1  0  0  0
 10  7  1  0  0  0
 12 14  1  0  0  0
M  END
> <minimizedAffinity>
-7.35085

> <CNNscore>
0.2918171585

> <CNNaffinity>
5.3911209106

> <CNN_VS>
1.5732215643

> <CNNaffinity_variance>
0.0314435288

$$$$
[H]OC12N(C([H])([H])c3c([H])c([H])c(OC([H])([H])[H])c([H])c3[H])C3([H])C4([H])C5([H])C([H])([H])C([H])(C14[H])C1([H])C2([H])C3([H])C51[H]


 23 29  0  0  0  0  0  0  0  0999 V2000
    4.0789    4.7405   19.4995 N   0  0  0  0  0  0  0  0  0  0  0  0
    4.5503    3.7798   18.5112 C   0  0  0  0  0  0  0  0  0  0  0  0
    3.2660    3.5711   17.7389 C   0  0  0  0  0  0  0  0  0  0  0  0
    3.7053    3.3826   16.3159 C   0  0  0  0  0  0  0  0  0  0  0  0
    2.5762    4.1138   15.5799 C   0  0  0  0  0  0  0  0  0  0  0  0
    2.6983    5.4279   16.3654 C   0  0  0  0  0  0  0  0  0  0  0  0
    4.1542    5.7308   16.2108 C   0  0  0  0  0  0  0  0  0  0  0  0
    4.8288    4.3519   16.1755 C   0  0  0  0  0  0  0  0  0  0  0  0
    5.3775    4.5742   17.5520 C   0  0  0  0  0  0  0  0  0  0  0  0
    4.7077    5.9502   17.5739 C   0  0  0  0  0  0  0  0  0  0  0  0
    3.6066    5.7501   18.5838 C   0  0  0  0  0  0  0  0  0  0  0  0
    3.0888    6.8740   19.1164 O   0  0  0  0  0  0  0  0  0  0  0  0
    2.6041    4.9347   17.7690 C   0  0  0  0  0  0  0  0  0  0  0  0
    3.3800    7.6766   18.6181 H   0  0  0  0  0  0  0  0  0  0  0  0
    5.1020    5.1537   20.4023 C   0  0  0  0  0  0  0  0  0  0  0  0
    5.0533    2.5148   23.8123 C   0  0  0  0  0  0  0  0  0  0  0  0
    4.1322    3.5307   23.6798 C   0  0  0  0  0  0  0  0  0  0  0  0
    4.1484    4.3767   22.5926 C   0  0  0  0  0  0  0  0  0  0  0  0
    5.0916    4.2490   21.5776 C   0  0  0  0  0  0  0  0  0  0  0  0
    6.0148    3.2135   21.7323 C   0  0  0  0  0  0  0  0  0  0  0  0
    5.9962    2.3692   22.8201 C   0  0  0  0  0  0  0  0  0  0  0  0
    6.2095    1.2754   25.5850 C   0  0  0  0  0  0  0  0  0  0  0  0
    5.0224    1.6638   24.9239 O   0  0  0  0  0  0  0  0  0  0  0  0
 22 23  1  0  0  0
 23 16  1  0  0  0
 16 17  2  0  0  0
 17 18  1  0  0  0
 18 19  2  0  0  0
 19 15  1  0  0  0
 15  1  1  0  0  0
  1  2  1  0  0  0
  2  3  1  0  0  0
  3  4  1  0  0  0
  4  5  1  0  0  0
  5  6  1  0  0  0
  6  7  1  0  0  0
  7  8  1  0  0  0
  8  9  1  0  0  0
  9 10  1  0  0  0
 10 11  1  0  0  0
 11 12  1  0  0  0
 11 13  1  0  0  0
 19 20  1  0  0  0
 20 21  2  0  0  0
 21 16  1  0  0  0
 11  1  1  0  0  0
  9  2  1  0  0  0
 13  3  1  0  0  0
  8  4  1  0  0  0
 13  6  1  0  0  0
 10  7  1  0  0  0
 12 14  1  0  0  0
M  END
> <minimizedAffinity>
-7.20081

> <CNNscore>
0.2835027277

> <CNNaffinity>
5.3547925949

> <CNN_VS>
1.5180983543

> <CNNaffinity_variance>
0.0436914004

$$$$
[H]OC12N(C([H])([H])c3c([H])c([H])c(OC([H])([H])[H])c([H])c3[H])C3([H])C4([H])C5([H])C([H])([H])C([H])(C14[H])C1([H])C2([H])C3([H])C51[H]


 23 29  0  0  0  0  0  0  0  0999 V2000
    5.7635    4.1513   20.7269 N   0  0  0  0  0  0  0  0  0  0  0  0
    4.4398    3.5486   20.8081 C   0  0  0  0  0  0  0  0  0  0  0  0
    4.7988    2.2615   21.5179 C   0  0  0  0  0  0  0  0  0  0  0  0
    3.6256    1.9811   22.4114 C   0  0  0  0  0  0  0  0  0  0  0  0
    4.3447    1.4089   23.6389 C   0  0  0  0  0  0  0  0  0  0  0  0
    5.3172    2.5842   23.8166 C   0  0  0  0  0  0  0  0  0  0  0  0
    4.3760    3.7456   23.8433 C   0  0  0  0  0  0  0  0  0  0  0  0
    3.2373    3.3352   22.8983 C   0  0  0  0  0  0  0  0  0  0  0  0
    3.7223    4.3145   21.8730 C   0  0  0  0  0  0  0  0  0  0  0  0
    4.8488    4.7218   22.8255 C   0  0  0  0  0  0  0  0  0  0  0  0
    6.0650    4.1564   22.1375 C   0  0  0  0  0  0  0  0  0  0  0  0
    7.2478    4.6795   22.5149 O   0  0  0  0  0  0  0  0  0  0  0  0
    5.9184    2.6693   22.4551 C   0  0  0  0  0  0  0  0  0  0  0  0
    7.1556    5.2266   23.3330 H   0  0  0  0  0  0  0  0  0  0  0  0
    5.7530    5.4276   20.0917 C   0  0  0  0  0  0  0  0  0  0  0  0
    3.8980    5.0055   16.2219 C   0  0  0  0  0  0  0  0  0  0  0  0
    4.9874    4.2423   16.5809 C   0  0  0  0  0  0  0  0  0  0  0  0
    5.5832    4.3782   17.8156 C   0  0  0  0  0  0  0  0  0  0  0  0
    5.1174    5.2892   18.7587 C   0  0  0  0  0  0  0  0  0  0  0  0
    4.0132    6.0516   18.3740 C   0  0  0  0  0  0  0  0  0  0  0  0
    3.4195    5.9136   17.1392 C   0  0  0  0  0  0  0  0  0  0  0  0
    3.8276    3.9543   14.0071 C   0  0  0  0  0  0  0  0  0  0  0  0
    3.3044    4.8544   14.9628 O   0  0  0  0  0  0  0  0  0  0  0  0
 22 23  1  0  0  0
 23 16  1  0  0  0
 16 17  2  0  0  0
 17 18  1  0  0  0
 18 19  2  0  0  0
 19 15  1  0  0  0
 15  1  1  0  0  0
  1  2  1  0  0  0
  2  3  1  0  0  0
  3  4  1  0  0  0
  4  5  1  0  0  0
  5  6  1  0  0  0
  6  7  1  0  0  0
  7  8  1  0  0  0
  8  9  1  0  0  0
  9 10  1  0  0  0
 10 11  1  0  0  0
 11 12  1  0  0  0
 11 13  1  0  0  0
 19 20  1  0  0  0
 20 21  2  0  0  0
 21 16  1  0  0  0
 11  1  1  0  0  0
  9  2  1  0  0  0
 13  3  1  0  0  0
  8  4  1  0  0  0
 13  6  1  0  0  0
 10  7  1  0  0  0
 12 14  1  0  0  0
M  END
> <minimizedAffinity>
-7.13556

> <CNNscore>
0.2828955352

> <CNNaffinity>
5.2041997910

> <CNN_VS>
1.4722448587

> <CNNaffinity_variance>
0.0488605723

$$$$
[H]OC12N(C([H])([H])c3c([H])c([H])c(OC([H])([H])[H])c([H])c3[H])C3([H])C4([H])C5([H])C([H])([H])C([H])(C14[H])C1([H])C2([H])C3([H])C51[H]


 23 29  0  0  0  0  0  0  0  0999 V2000
    5.3998    3.2228   20.5003 N   0  0  0  0  0  0  0  0  0  0  0  0
    3.9865    2.8772   20.5718 C   0  0  0  0  0  0  0  0  0  0  0  0
    4.0603    1.4412   20.1008 C   0  0  0  0  0  0  0  0  0  0  0  0
    3.0054    0.7268   20.8947 C   0  0  0  0  0  0  0  0  0  0  0  0
    3.7050   -0.6161   21.1367 C   0  0  0  0  0  0  0  0  0  0  0  0
    4.9914   -0.0216   21.7287 C   0  0  0  0  0  0  0  0  0  0  0  0
    4.4424    0.8606   22.8036 C   0  0  0  0  0  0  0  0  0  0  0  0
    3.1044    1.3607   22.2400 C   0  0  0  0  0  0  0  0  0  0  0  0
    3.6913    2.7233   22.0294 C   0  0  0  0  0  0  0  0  0  0  0  0
    5.0181    2.2169   22.6000 C   0  0  0  0  0  0  0  0  0  0  0  0
    5.8996    2.1925   21.3775 C   0  0  0  0  0  0  0  0  0  0  0  0
    7.2261    2.1704   21.6121 O   0  0  0  0  0  0  0  0  0  0  0  0
    5.3784    0.9467   20.6633 C   0  0  0  0  0  0  0  0  0  0  0  0
    7.4213    1.9778   22.5619 H   0  0  0  0  0  0  0  0  0  0  0  0
    5.6636    4.5635   20.9069 C   0  0  0  0  0  0  0  0  0  0  0  0
    4.6444    7.2324   17.6770 C   0  0  0  0  0  0  0  0  0  0  0  0
    4.0136    7.3136   18.8991 C   0  0  0  0  0  0  0  0  0  0  0  0
    4.3357    6.4596   19.9310 C   0  0  0  0  0  0  0  0  0  0  0  0
    5.3100    5.4758   19.7922 C   0  0  0  0  0  0  0  0  0  0  0  0
    5.9360    5.4116   18.5462 C   0  0  0  0  0  0  0  0  0  0  0  0
    5.6121    6.2666   17.5165 C   0  0  0  0  0  0  0  0  0  0  0  0
    3.8205    7.6284   15.4011 C   0  0  0  0  0  0  0  0  0  0  0  0
    4.3048    8.1086   16.6389 O   0  0  0  0  0  0  0  0  0  0  0  0
 22 23  1  0  0  0
 23 16  1  0  0  0
 16 17  2  0  0  0
 17 18  1  0  0  0
 18 19  2  0  0  0
 19 15  1  0  0  0
 15  1  1  0  0  0
  1  2  1  0  0  0
  2  3  1  0  0  0
  3  4  1  0  0  0
  4  5  1  0  0  0
  5  6  1  0  0  0
  6  7  1  0  0  0
  7  8  1  0  0  0
  8  9  1  0  0  0
  9 10  1  0  0  0
 10 11  1  0  0  0
 11 12  1  0  0  0
 11 13  1  0  0  0
 19 20  1  0  0  0
 20 21  2  0  0  0
 21 16  1  0  0  0
 11  1  1  0  0  0
  9  2  1  0  0  0
 13  3  1  0  0  0
  8  4  1  0  0  0
 13  6  1  0  0  0
 10  7  1  0  0  0
 12 14  1  0  0  0
M  END
> <minimizedAffinity>
-6.42947

> <CNNscore>
0.2772591412

> <CNNaffinity>
5.3033823967

> <CNN_VS>
1.4704113007

> <CNNaffinity_variance>
0.1478343755

$$$$
[H]OC12N(C([H])([H])c3c([H])c([H])c(OC([H])([H])[H])c([H])c3[H])C3([H])C4([H])C5([H])C([H])([H])C([H])(C14[H])C1([H])C2([H])C3([H])C51[H]


 23 29  0  0  0  0  0  0  0  0999 V2000
    3.6036    3.7099   17.5827 N   0  0  0  0  0  0  0  0  0  0  0  0
    4.2928    2.9619   16.5399 C   0  0  0  0  0  0  0  0  0  0  0  0
    3.1223    2.1822   15.9819 C   0  0  0  0  0  0  0  0  0  0  0  0
    3.3962    2.0889   14.5090 C   0  0  0  0  0  0  0  0  0  0  0  0
    1.9732    2.2284   13.9548 C   0  0  0  0  0  0  0  0  0  0  0  0
    1.6381    3.5284   14.7007 C   0  0  0  0  0  0  0  0  0  0  0  0
    2.7928    4.3966   14.3157 C   0  0  0  0  0  0  0  0  0  0  0  0
    3.9739    3.4241   14.1851 C   0  0  0  0  0  0  0  0  0  0  0  0
    4.5643    3.9552   15.4558 C   0  0  0  0  0  0  0  0  0  0  0  0
    3.3869    4.9259   15.5725 C   0  0  0  0  0  0  0  0  0  0  0  0
    2.6264    4.3615   16.7452 C   0  0  0  0  0  0  0  0  0  0  0  0
    1.7629    5.2046   17.3440 O   0  0  0  0  0  0  0  0  0  0  0  0
    1.9583    3.1457   16.1055 C   0  0  0  0  0  0  0  0  0  0  0  0
    1.6153    6.0165   16.7996 H   0  0  0  0  0  0  0  0  0  0  0  0
    4.4721    4.5762   18.3091 C   0  0  0  0  0  0  0  0  0  0  0  0
    4.4625    3.3639   22.4473 C   0  0  0  0  0  0  0  0  0  0  0  0
    4.0212    4.6119   22.0658 C   0  0  0  0  0  0  0  0  0  0  0  0
    4.0266    5.0020   20.7445 C   0  0  0  0  0  0  0  0  0  0  0  0
    4.4762    4.1594   19.7326 C   0  0  0  0  0  0  0  0  0  0  0  0
    4.9186    2.9002   20.1416 C   0  0  0  0  0  0  0  0  0  0  0  0
    4.9120    2.5128   21.4631 C   0  0  0  0  0  0  0  0  0  0  0  0
    5.3906    2.0611   24.3067 C   0  0  0  0  0  0  0  0  0  0  0  0
    4.4500    2.9835   23.7948 O   0  0  0  0  0  0  0  0  0  0  0  0
 22 23  1  0  0  0
 23 16  1  0  0  0
 16 17  2  0  0  0
 17 18  1  0  0  0
 18 19  2  0  0  0
 19 15  1  0  0  0
 15  1  1  0  0  0
  1  2  1  0  0  0
  2  3  1  0  0  0
  3  4  1  0  0  0
  4  5  1  0  0  0
  5  6  1  0  0  0
  6  7  1  0  0  0
  7  8  1  0  0  0
  8  9  1  0  0  0
  9 10  1  0  0  0
 10 11  1  0  0  0
 11 12  1  0  0  0
 11 13  1  0  0  0
 19 20  1  0  0  0
 20 21  2  0  0  0
 21 16  1  0  0  0
 11  1  1  0  0  0
  9  2  1  0  0  0
 13  3  1  0  0  0
  8  4  1  0  0  0
 13  6  1  0  0  0
 10  7  1  0  0  0
 12 14  1  0  0  0
M  END
> <minimizedAffinity>
-6.73507

> <CNNscore>
0.2743616402

> <CNNaffinity>
5.3570303917

> <CNN_VS>
1.4697636366

> <CNNaffinity_variance>
0.0742086396

$$$$
[H]OC12N(C([H])([H])c3c([H])c([H])c(OC([H])([H])[H])c([H])c3[H])C3([H])C4([H])C5([H])C([H])([H])C([H])(C14[H])C1([H])C2([H])C3([H])C51[H]


 23 29  0  0  0  0  0  0  0  0999 V2000
    5.3815    5.4263   20.9741 N   0  0  0  0  0  0  0  0  0  0  0  0
    4.2007    4.5773   20.8923 C   0  0  0  0  0  0  0  0  0  0  0  0
    4.8753    3.2311   20.7447 C   0  0  0  0  0  0  0  0  0  0  0  0
    3.9888    2.2784   21.4929 C   0  0  0  0  0  0  0  0  0  0  0  0
    5.0416    1.3519   22.1131 C   0  0  0  0  0  0  0  0  0  0  0  0
    5.8722    2.4674   22.7646 C   0  0  0  0  0  0  0  0  0  0  0  0
    4.8245    3.2051   23.5348 C   0  0  0  0  0  0  0  0  0  0  0  0
    3.5575    3.0738   22.6772 C   0  0  0  0  0  0  0  0  0  0  0  0
    3.6614    4.5164   22.2855 C   0  0  0  0  0  0  0  0  0  0  0  0
    4.9188    4.6386   23.1493 C   0  0  0  0  0  0  0  0  0  0  0  0
    6.0016    4.7929   22.1121 C   0  0  0  0  0  0  0  0  0  0  0  0
    7.1641    5.3131   22.5516 O   0  0  0  0  0  0  0  0  0  0  0  0
    6.1225    3.3599   21.5969 C   0  0  0  0  0  0  0  0  0  0  0  0
    7.1976    5.3378   23.5394 H   0  0  0  0  0  0  0  0  0  0  0  0
    5.0616    6.8066   21.1322 C   0  0  0  0  0  0  0  0  0  0  0  0
    4.8361    8.6104   17.2220 C   0  0  0  0  0  0  0  0  0  0  0  0
    5.6992    7.5685   17.4812 C   0  0  0  0  0  0  0  0  0  0  0  0
    5.7749    6.9932   18.7307 C   0  0  0  0  0  0  0  0  0  0  0  0
    4.9871    7.4333   19.7899 C   0  0  0  0  0  0  0  0  0  0  0  0
    4.1201    8.4895   19.5050 C   0  0  0  0  0  0  0  0  0  0  0  0
    4.0465    9.0626   18.2550 C   0  0  0  0  0  0  0  0  0  0  0  0
    3.5568    9.2405   15.2265 C   0  0  0  0  0  0  0  0  0  0  0  0
    4.7718    9.1836   15.9460 O   0  0  0  0  0  0  0  0  0  0  0  0
 22 23  1  0  0  0
 23 16  1  0  0  0
 16 17  2  0  0  0
 17 18  1  0  0  0
 18 19  2  0  0  0
 19 15  1  0  0  0
 15  1  1  0  0  0
  1  2  1  0  0  0
  2  3  1  0  0  0
  3  4  1  0  0  0
  4  5  1  0  0  0
  5  6  1  0  0  0
  6  7  1  0  0  0
  7  8  1  0  0  0
  8  9  1  0  0  0
  9 10  1  0  0  0
 10 11  1  0  0  0
 11 12  1  0  0  0
 11 13  1  0  0  0
 19 20  1  0  0  0
 20 21  2  0  0  0
 21 16  1  0  0  0
 11  1  1  0  0  0
  9  2  1  0  0  0
 13  3  1  0  0  0
  8  4  1  0  0  0
 13  6  1  0  0  0
 10  7  1  0  0  0
 12 14  1  0  0  0
M  END
> <minimizedAffinity>
-7.18360

> <CNNscore>
0.2696807981

> <CNNaffinity>
5.0568284988

> <CNN_VS>
1.3637295961

> <CNNaffinity_variance>
0.0298702475

$$$$
[H]c1nc(N2C([H])([H])C([H])([H])N(C([H])([H])C([H])([H])C([H])([H])Sc3c([H])c([H])c(F)c([H])c3[H])C([H])([H])C2([H])[H])c([H])c([H])c1[H]


 23 25  0  0  0  0  0  0  0  0999 V2000
    4.5043    6.3708   19.5216 N   0  0  0  0  0  0  0  0  0  0  0  0
    5.5081    5.9688   18.5674 C   0  0  0  0  0  0  0  0  0  0  0  0
    5.2481    4.6550   17.8833 C   0  0  0  0  0  0  0  0  0  0  0  0
    3.8969    4.4981   17.4434 N   0  0  0  0  0  0  0  0  0  0  0  0
    2.8471    5.1541   18.1788 C   0  0  0  0  0  0  0  0  0  0  0  0
    3.3715    5.4808   19.5450 C   0  0  0  0  0  0  0  0  0  0  0  0
    3.6209    3.7021   16.3007 C   0  0  0  0  0  0  0  0  0  0  0  0
    3.1504    2.4122   16.3880 C   0  0  0  0  0  0  0  0  0  0  0  0
    2.8963    1.6448   15.2488 C   0  0  0  0  0  0  0  0  0  0  0  0
    3.1151    2.1737   14.0073 C   0  0  0  0  0  0  0  0  0  0  0  0
    3.5850    3.4643   13.9445 C   0  0  0  0  0  0  0  0  0  0  0  0
    3.8240    4.1873   15.0466 N   0  0  0  0  0  0  0  0  0  0  0  0
    5.0683    6.5720   20.8387 C   0  0  0  0  0  0  0  0  0  0  0  0
    4.5726    5.4911   21.7629 C   0  0  0  0  0  0  0  0  0  0  0  0
    5.7776    4.6478   22.1774 C   0  0  0  0  0  0  0  0  0  0  0  0
    5.2036    3.1129   22.9474 S   0  0  0  0  0  0  0  0  0  0  0  0
    2.6104   -0.5038   18.9919 F   0  0  0  0  0  0  0  0  0  0  0  0
    3.1908    0.3124   19.9123 C   0  0  0  0  0  0  0  0  0  0  0  0
    4.1528    1.2282   19.5074 C   0  0  0  0  0  0  0  0  0  0  0  0
    4.7550    2.0641   20.4132 C   0  0  0  0  0  0  0  0  0  0  0  0
    4.4355    2.0328   21.7539 C   0  0  0  0  0  0  0  0  0  0  0  0
    3.4784    1.1186   22.1436 C   0  0  0  0  0  0  0  0  0  0  0  0
    2.8591    0.2670   21.2466 C   0  0  0  0  0  0  0  0  0  0  0  0
 17 18  1  0  0  0
 18 19  2  0  0  0
 19 20  1  0  0  0
 20 21  2  0  0  0
 21 16  1  0  0  0
 16 15  1  0  0  0
 15 14  1  0  0  0
 14 13  1  0  0  0
 13  1  1  0  0  0
  1  2  1  0  0  0
  2  3  1  0  0  0
  3  4  1  0  0  0
  4  7  1  0  0  0
  7  8  2  0  0  0
  8  9  1  0  0  0
  9 10  2  0  0  0
 10 11  1  0  0  0
 11 12  2  0  0  0
  4  5  1  0  0  0
  5  6  1  0  0  0
 21 22  1  0  0  0
 22 23  2  0  0  0
 23 18  1  0  0  0
  6  1  1  0  0  0
 12  7  1  0  0  0
M  END
> <minimizedAffinity>
-7.20170

> <CNNscore>
0.5541496277

> <CNNaffinity>
6.1966400146

> <CNN_VS>
3.4338657856

> <CNNaffinity_variance>
0.0914401785

$$$$
[H]c1nc(N2C([H])([H])C([H])([H])N(C([H])([H])C([H])([H])C([H])([H])Sc3c([H])c([H])c(F)c([H])c3[H])C([H])([H])C2([H])[H])c([H])c([H])c1[H]


 23 25  0  0  0  0  0  0  0  0999 V2000
    3.8432    4.7288   16.1622 N   0  0  0  0  0  0  0  0  0  0  0  0
    3.0190    5.3592   17.1637 C   0  0  0  0  0  0  0  0  0  0  0  0
    3.4763    5.1621   18.5828 C   0  0  0  0  0  0  0  0  0  0  0  0
    4.8842    5.3381   18.7584 N   0  0  0  0  0  0  0  0  0  0  0  0
    5.7644    5.0276   17.6620 C   0  0  0  0  0  0  0  0  0  0  0  0
    5.0284    4.1259   16.7167 C   0  0  0  0  0  0  0  0  0  0  0  0
    5.3807    5.8091   20.0022 C   0  0  0  0  0  0  0  0  0  0  0  0
    5.9340    4.9756   20.9467 C   0  0  0  0  0  0  0  0  0  0  0  0
    6.4063    5.4615   22.1682 C   0  0  0  0  0  0  0  0  0  0  0  0
    6.3246    6.7970   22.4486 C   0  0  0  0  0  0  0  0  0  0  0  0
    5.7685    7.6108   21.4900 C   0  0  0  0  0  0  0  0  0  0  0  0
    5.3199    7.1293   20.3232 N   0  0  0  0  0  0  0  0  0  0  0  0
    3.0850    3.7995   15.3529 C   0  0  0  0  0  0  0  0  0  0  0  0
    3.5058    2.3921   15.6849 C   0  0  0  0  0  0  0  0  0  0  0  0
    2.2885    1.6680   16.2585 C   0  0  0  0  0  0  0  0  0  0  0  0
    2.8286    0.1713   17.1225 S   0  0  0  0  0  0  0  0  0  0  0  0
    4.2446    1.2902   22.7964 F   0  0  0  0  0  0  0  0  0  0  0  0
    3.9062    1.0187   21.5073 C   0  0  0  0  0  0  0  0  0  0  0  0
    4.4853    1.7485   20.4777 C   0  0  0  0  0  0  0  0  0  0  0  0
    4.1633    1.4968   19.1682 C   0  0  0  0  0  0  0  0  0  0  0  0
    3.2585    0.5171   18.8185 C   0  0  0  0  0  0  0  0  0  0  0  0
    2.6902   -0.2010   19.8504 C   0  0  0  0  0  0  0  0  0  0  0  0
    3.0010    0.0368   21.1772 C   0  0  0  0  0  0  0  0  0  0  0  0
 17 18  1  0  0  0
 18 19  2  0  0  0
 19 20  1  0  0  0
 20 21  2  0  0  0
 21 16  1  0  0  0
 16 15  1  0  0  0
 15 14  1  0  0  0
 14 13  1  0  0  0
 13  1  1  0  0  0
  1  2  1  0  0  0
  2  3  1  0  0  0
  3  4  1  0  0  0
  4  7  1  0  0  0
  7  8  2  0  0  0
  8  9  1  0  0  0
  9 10  2  0  0  0
 10 11  1  0  0  0
 11 12  2  0  0  0
  4  5  1  0  0  0
  5  6  1  0  0  0
 21 22  1  0  0  0
 22 23  2  0  0  0
 23 18  1  0  0  0
  6  1  1  0  0  0
 12  7  1  0  0  0
M  END
> <minimizedAffinity>
-6.75377

> <CNNscore>
0.5488417149

> <CNNaffinity>
5.9214739799

> <CNN_VS>
3.2499518394

> <CNNaffinity_variance>
0.2771036327

$$$$
[H]c1nc(N2C([H])([H])C([H])([H])N(C([H])([H])C([H])([H])C([H])([H])Sc3c([H])c([H])c(F)c([H])c3[H])C([H])([H])C2([H])[H])c([H])c([H])c1[H]


 23 25  0  0  0  0  0  0  0  0999 V2000
    3.8045    4.3910   17.3234 N   0  0  0  0  0  0  0  0  0  0  0  0
    5.1512    4.9049   17.3664 C   0  0  0  0  0  0  0  0  0  0  0  0
    5.2901    6.2823   17.9540 C   0  0  0  0  0  0  0  0  0  0  0  0
    4.5310    6.4715   19.1507 N   0  0  0  0  0  0  0  0  0  0  0  0
    3.3097    5.7283   19.3226 C   0  0  0  0  0  0  0  0  0  0  0  0
    2.8566    5.2610   17.9718 C   0  0  0  0  0  0  0  0  0  0  0  0
    4.9930    7.3837   20.1355 C   0  0  0  0  0  0  0  0  0  0  0  0
    4.6212    8.7082   20.1562 C   0  0  0  0  0  0  0  0  0  0  0  0
    5.0978    9.5893   21.1297 C   0  0  0  0  0  0  0  0  0  0  0  0
    5.9562    9.1406   22.0944 C   0  0  0  0  0  0  0  0  0  0  0  0
    6.3135    7.8135   22.0541 C   0  0  0  0  0  0  0  0  0  0  0  0
    5.8478    6.9811   21.1136 N   0  0  0  0  0  0  0  0  0  0  0  0
    3.4033    4.0541   15.9748 C   0  0  0  0  0  0  0  0  0  0  0  0
    3.6581    2.5900   15.7308 C   0  0  0  0  0  0  0  0  0  0  0  0
    2.4440    1.8170   16.2439 C   0  0  0  0  0  0  0  0  0  0  0  0
    2.9948    0.2842   17.0350 S   0  0  0  0  0  0  0  0  0  0  0  0
    3.9271    1.0892   22.8602 F   0  0  0  0  0  0  0  0  0  0  0  0
    3.7295    0.9215   21.5249 C   0  0  0  0  0  0  0  0  0  0  0  0
    2.8481   -0.0542   21.0789 C   0  0  0  0  0  0  0  0  0  0  0  0
    2.6289   -0.2459   19.7384 C   0  0  0  0  0  0  0  0  0  0  0  0
    3.2680    0.5145   18.7823 C   0  0  0  0  0  0  0  0  0  0  0  0
    4.1413    1.4805   19.2381 C   0  0  0  0  0  0  0  0  0  0  0  0
    4.3764    1.6901   20.5850 C   0  0  0  0  0  0  0  0  0  0  0  0
 17 18  1  0  0  0
 18 19  2  0  0  0
 19 20  1  0  0  0
 20 21  2  0  0  0
 21 16  1  0  0  0
 16 15  1  0  0  0
 15 14  1  0  0  0
 14 13  1  0  0  0
 13  1  1  0  0  0
  1  2  1  0  0  0
  2  3  1  0  0  0
  3  4  1  0  0  0
  4  7  1  0  0  0
  7  8  2  0  0  0
  8  9  1  0  0  0
  9 10  2  0  0  0
 10 11  1  0  0  0
 11 12  2  0  0  0
  4  5  1  0  0  0
  5  6  1  0  0  0
 21 22  1  0  0  0
 22 23  2  0  0  0
 23 18  1  0  0  0
  6  1  1  0  0  0
 12  7  1  0  0  0
M  END
> <minimizedAffinity>
-7.21946

> <CNNscore>
0.4388970435

> <CNNaffinity>
5.7303667068

> <CNN_VS>
2.5150411129

> <CNNaffinity_variance>
0.2172250003

$$$$
[H]c1nc(N2C([H])([H])C([H])([H])N(C([H])([H])C([H])([H])C([H])([H])Sc3c([H])c([H])c(F)c([H])c3[H])C([H])([H])C2([H])[H])c([H])c([H])c1[H]


 23 25  0  0  0  0  0  0  0  0999 V2000
    2.9725    3.0182   15.2658 N   0  0  0  0  0  0  0  0  0  0  0  0
    2.4405    1.7221   15.6073 C   0  0  0  0  0  0  0  0  0  0  0  0
    3.2270    0.9612   16.6389 C   0  0  0  0  0  0  0  0  0  0  0  0
    3.6330    1.7616   17.7518 N   0  0  0  0  0  0  0  0  0  0  0  0
    3.8742    3.1661   17.5450 C   0  0  0  0  0  0  0  0  0  0  0  0
    4.1027    3.3872   16.0797 C   0  0  0  0  0  0  0  0  0  0  0  0
    3.7914    1.1582   19.0270 C   0  0  0  0  0  0  0  0  0  0  0  0
    2.9001    0.2397   19.5319 C   0  0  0  0  0  0  0  0  0  0  0  0
    3.0718   -0.3325   20.7945 C   0  0  0  0  0  0  0  0  0  0  0  0
    4.1478    0.0178   21.5615 C   0  0  0  0  0  0  0  0  0  0  0  0
    5.0253    0.9370   21.0366 C   0  0  0  0  0  0  0  0  0  0  0  0
    4.8465    1.4769   19.8237 N   0  0  0  0  0  0  0  0  0  0  0  0
    3.2603    3.1227   13.8517 C   0  0  0  0  0  0  0  0  0  0  0  0
    2.2267    2.3502   13.0751 C   0  0  0  0  0  0  0  0  0  0  0  0
    1.5211    3.3314   12.1401 C   0  0  0  0  0  0  0  0  0  0  0  0
    1.2345    4.8935   13.0097 S   0  0  0  0  0  0  0  0  0  0  0  0
   -4.4163    6.7018   12.5105 F   0  0  0  0  0  0  0  0  0  0  0  0
   -3.1222    6.3039   12.6413 C   0  0  0  0  0  0  0  0  0  0  0  0
   -2.6414    5.2642   11.8566 C   0  0  0  0  0  0  0  0  0  0  0  0
   -1.3409    4.8418   11.9667 C   0  0  0  0  0  0  0  0  0  0  0  0
   -0.4608    5.4249   12.8533 C   0  0  0  0  0  0  0  0  0  0  0  0
   -0.9505    6.4568   13.6273 C   0  0  0  0  0  0  0  0  0  0  0  0
   -2.2580    6.8980   13.5318 C   0  0  0  0  0  0  0  0  0  0  0  0
 17 18  1  0  0  0
 18 19  2  0  0  0
 19 20  1  0  0  0
 20 21  2  0  0  0
 21 16  1  0  0  0
 16 15  1  0  0  0
 15 14  1  0  0  0
 14 13  1  0  0  0
 13  1  1  0  0  0
  1  2  1  0  0  0
  2  3  1  0  0  0
  3  4  1  0  0  0
  4  7  1  0  0  0
  7  8  2  0  0  0
  8  9  1  0  0  0
  9 10  2  0  0  0
 10 11  1  0  0  0
 11 12  2  0  0  0
  4  5  1  0  0  0
  5  6  1  0  0  0
 21 22  1  0  0  0
 22 23  2  0  0  0
 23 18  1  0  0  0
  6  1  1  0  0  0
 12  7  1  0  0  0
M  END
> <minimizedAffinity>
-6.41907

> <CNNscore>
0.4082670510

> <CNNaffinity>
5.2821025848

> <CNN_VS>
2.1565084457

> <CNNaffinity_variance>
0.3024113774

$$$$
[H]c1nc(N2C([H])([H])C([H])([H])N(C([H])([H])C([H])([H])C([H])([H])Sc3c([H])c([H])c(F)c([H])c3[H])C([H])([H])C2([H])[H])c([H])c([H])c1[H]


 23 25  0  0  0  0  0  0  0  0999 V2000
    2.3889    4.9494   14.4099 N   0  0  0  0  0  0  0  0  0  0  0  0
    2.0575    3.9168   13.4594 C   0  0  0  0  0  0  0  0  0  0  0  0
    0.6458    3.9550   12.9422 C   0  0  0  0  0  0  0  0  0  0  0  0
    0.2024    5.2676   12.5897 N   0  0  0  0  0  0  0  0  0  0  0  0
    0.7477    6.3974   13.2966 C   0  0  0  0  0  0  0  0  0  0  0  0
    1.3233    5.9023   14.5896 C   0  0  0  0  0  0  0  0  0  0  0  0
   -0.7612    5.4277   11.5596 C   0  0  0  0  0  0  0  0  0  0  0  0
   -2.0710    5.0296   11.6970 C   0  0  0  0  0  0  0  0  0  0  0  0
   -2.9987    5.1879   10.6647 C   0  0  0  0  0  0  0  0  0  0  0  0
   -2.6120    5.7514    9.4807 C   0  0  0  0  0  0  0  0  0  0  0  0
   -1.2987    6.1419    9.3662 C   0  0  0  0  0  0  0  0  0  0  0  0
   -0.4210    5.9830   10.3657 N   0  0  0  0  0  0  0  0  0  0  0  0
    2.8430    4.3941   15.6664 C   0  0  0  0  0  0  0  0  0  0  0  0
    3.5303    3.0788   15.4098 C   0  0  0  0  0  0  0  0  0  0  0  0
    4.2541    2.6764   16.6940 C   0  0  0  0  0  0  0  0  0  0  0  0
    3.6449    1.0645   17.2501 S   0  0  0  0  0  0  0  0  0  0  0  0
    3.5348    0.7575   23.1952 F   0  0  0  0  0  0  0  0  0  0  0  0
    3.5749    0.8450   21.8384 C   0  0  0  0  0  0  0  0  0  0  0  0
    2.8444   -0.0526   21.0712 C   0  0  0  0  0  0  0  0  0  0  0  0
    2.8655    0.0116   19.7011 C   0  0  0  0  0  0  0  0  0  0  0  0
    3.6063    0.9613   19.0302 C   0  0  0  0  0  0  0  0  0  0  0  0
    4.3277    1.8472   19.8036 C   0  0  0  0  0  0  0  0  0  0  0  0
    4.3200    1.7999   21.1861 C   0  0  0  0  0  0  0  0  0  0  0  0
 17 18  1  0  0  0
 18 19  2  0  0  0
 19 20  1  0  0  0
 20 21  2  0  0  0
 21 16  1  0  0  0
 16 15  1  0  0  0
 15 14  1  0  0  0
 14 13  1  0  0  0
 13  1  1  0  0  0
  1  2  1  0  0  0
  2  3  1  0  0  0
  3  4  1  0  0  0
  4  7  1  0  0  0
  7  8  2  0  0  0
  8  9  1  0  0  0
  9 10  2  0  0  0
 10 11  1  0  0  0
 11 12  2  0  0  0
  4  5  1  0  0  0
  5  6  1  0  0  0
 21 22  1  0  0  0
 22 23  2  0  0  0
 23 18  1  0  0  0
  6  1  1  0  0  0
 12  7  1  0  0  0
M  END
> <minimizedAffinity>
-6.07500

> <CNNscore>
0.4043900371

> <CNNaffinity>
4.9400038719

> <CNN_VS>
1.9976882935

> <CNNaffinity_variance>
0.2779749036

$$$$
[H]c1nc(N2C([H])([H])C([H])([H])N(C([H])([H])C([H])([H])C([H])([H])Sc3c([H])c([H])c(F)c([H])c3[H])C([H])([H])C2([H])[H])c([H])c([H])c1[H]


 23 25  0  0  0  0  0  0  0  0999 V2000
    4.9877    7.0178   18.8425 N   0  0  0  0  0  0  0  0  0  0  0  0
    5.8368    6.1368   18.0791 C   0  0  0  0  0  0  0  0  0  0  0  0
    5.4777    4.6785   18.1574 C   0  0  0  0  0  0  0  0  0  0  0  0
    4.0758    4.4283   18.0312 N   0  0  0  0  0  0  0  0  0  0  0  0
    3.1482    5.4302   18.4885 C   0  0  0  0  0  0  0  0  0  0  0  0
    3.8720    6.3320   19.4430 C   0  0  0  0  0  0  0  0  0  0  0  0
    3.6315    3.2049   17.4644 C   0  0  0  0  0  0  0  0  0  0  0  0
    4.1160    1.9804   17.8629 C   0  0  0  0  0  0  0  0  0  0  0  0
    3.6709    0.7905   17.2824 C   0  0  0  0  0  0  0  0  0  0  0  0
    2.7296    0.8252   16.2917 C   0  0  0  0  0  0  0  0  0  0  0  0
    2.2596    2.0597   15.9100 C   0  0  0  0  0  0  0  0  0  0  0  0
    2.6968    3.1921   16.4766 N   0  0  0  0  0  0  0  0  0  0  0  0
    5.7435    7.7834   19.8099 C   0  0  0  0  0  0  0  0  0  0  0  0
    5.0711    7.6889   21.1542 C   0  0  0  0  0  0  0  0  0  0  0  0
    6.1535    7.4031   22.1942 C   0  0  0  0  0  0  0  0  0  0  0  0
    6.8722    5.7703   21.8841 S   0  0  0  0  0  0  0  0  0  0  0  0
    2.9147    1.4079   22.7548 F   0  0  0  0  0  0  0  0  0  0  0  0
    3.8302    2.3910   22.5414 C   0  0  0  0  0  0  0  0  0  0  0  0
    3.6711    3.6231   23.1615 C   0  0  0  0  0  0  0  0  0  0  0  0
    4.5784    4.6330   22.9650 C   0  0  0  0  0  0  0  0  0  0  0  0
    5.6789    4.4719   22.1503 C   0  0  0  0  0  0  0  0  0  0  0  0
    5.8258    3.2433   21.5400 C   0  0  0  0  0  0  0  0  0  0  0  0
    4.9228    2.2119   21.7248 C   0  0  0  0  0  0  0  0  0  0  0  0
 17 18  1  0  0  0
 18 19  2  0  0  0
 19 20  1  0  0  0
 20 21  2  0  0  0
 21 16  1  0  0  0
 16 15  1  0  0  0
 15 14  1  0  0  0
 14 13  1  0  0  0
 13  1  1  0  0  0
  1  2  1  0  0  0
  2  3  1  0  0  0
  3  4  1  0  0  0
  4  7  1  0  0  0
  7  8  2  0  0  0
  8  9  1  0  0  0
  9 10  2  0  0  0
 10 11  1  0  0  0
 11 12  2  0  0  0
  4  5  1  0  0  0
  5  6  1  0  0  0
 21 22  1  0  0  0
 22 23  2  0  0  0
 23 18  1  0  0  0
  6  1  1  0  0  0
 12  7  1  0  0  0
M  END
> <minimizedAffinity>
-7.12809

> <CNNscore>
0.3888024092

> <CNNaffinity>
5.7102441788

> <CNN_VS>
2.2201566696

> <CNNaffinity_variance>
0.1963688880

$$$$
[H]c1nc(N2C([H])([H])C([H])([H])N(C([H])([H])C([H])([H])C([H])([H])Sc3c([H])c([H])c(F)c([H])c3[H])C([H])([H])C2([H])[H])c([H])c([H])c1[H]


 23 25  0  0  0  0  0  0  0  0999 V2000
    3.1814    3.1128   15.5018 N   0  0  0  0  0  0  0  0  0  0  0  0
    2.4312    1.9441   15.8905 C   0  0  0  0  0  0  0  0  0  0  0  0
    3.1013    1.0662   16.9113 C   0  0  0  0  0  0  0  0  0  0  0  0
    3.6910    1.7943   17.9912 N   0  0  0  0  0  0  0  0  0  0  0  0
    4.1808    3.1257   17.7447 C   0  0  0  0  0  0  0  0  0  0  0  0
    4.3905    3.2773   16.2678 C   0  0  0  0  0  0  0  0  0  0  0  0
    3.7829    1.1921   19.2735 C   0  0  0  0  0  0  0  0  0  0  0  0
    4.6821    1.6075   20.2284 C   0  0  0  0  0  0  0  0  0  0  0  0
    4.7609    0.9919   21.4797 C   0  0  0  0  0  0  0  0  0  0  0  0
    3.9304   -0.0516   21.7801 C   0  0  0  0  0  0  0  0  0  0  0  0
    3.0399   -0.4493   20.8109 C   0  0  0  0  0  0  0  0  0  0  0  0
    2.9768    0.1515   19.6152 N   0  0  0  0  0  0  0  0  0  0  0  0
    3.4296    3.1396   14.0766 C   0  0  0  0  0  0  0  0  0  0  0  0
    2.4689    2.2073   13.3866 C   0  0  0  0  0  0  0  0  0  0  0  0
    2.4429    2.5824   11.9055 C   0  0  0  0  0  0  0  0  0  0  0  0
    1.0267    3.6631   11.5817 S   0  0  0  0  0  0  0  0  0  0  0  0
    2.0348    9.2182   13.4724 F   0  0  0  0  0  0  0  0  0  0  0  0
    1.7856    7.9484   13.0534 C   0  0  0  0  0  0  0  0  0  0  0  0
    2.6283    7.3552   12.1228 C   0  0  0  0  0  0  0  0  0  0  0  0
    2.4018    6.0761   11.6821 C   0  0  0  0  0  0  0  0  0  0  0  0
    1.3371    5.3287   12.1388 C   0  0  0  0  0  0  0  0  0  0  0  0
    0.5072    5.9292   13.0630 C   0  0  0  0  0  0  0  0  0  0  0  0
    0.7178    7.2175   13.5205 C   0  0  0  0  0  0  0  0  0  0  0  0
 17 18  1  0  0  0
 18 19  2  0  0  0
 19 20  1  0  0  0
 20 21  2  0  0  0
 21 16  1  0  0  0
 16 15  1  0  0  0
 15 14  1  0  0  0
 14 13  1  0  0  0
 13  1  1  0  0  0
  1  2  1  0  0  0
  2  3  1  0  0  0
  3  4  1  0  0  0
  4  7  1  0  0  0
  7  8  2  0  0  0
  8  9  1  0  0  0
  9 10  2  0  0  0
 10 11  1  0  0  0
 11 12  2  0  0  0
  4  5  1  0  0  0
  5  6  1  0  0  0
 21 22  1  0  0  0
 22 23  2  0  0  0
 23 18  1  0  0  0
  6  1  1  0  0  0
 12  7  1  0  0  0
M  END
> <minimizedAffinity>
-5.87191

> <CNNscore>
0.3189343512

> <CNNaffinity>
5.4302263260

> <CNN_VS>
1.7318856716

> <CNNaffinity_variance>
0.2357514650

$$$$
[H]c1nc(N2C([H])([H])C([H])([H])N(C([H])([H])C([H])([H])C([H])([H])Sc3c([H])c([H])c(F)c([H])c3[H])C([H])([H])C2([H])[H])c([H])c([H])c1[H]


 23 25  0  0  0  0  0  0  0  0999 V2000
    5.4277    6.9616   18.2680 N   0  0  0  0  0  0  0  0  0  0  0  0
    6.2708    5.9631   17.6581 C   0  0  0  0  0  0  0  0  0  0  0  0
    5.5977    4.6496   17.3694 C   0  0  0  0  0  0  0  0  0  0  0  0
    4.3019    4.7893   16.7817 N   0  0  0  0  0  0  0  0  0  0  0  0
    3.5165    5.9529   17.1020 C   0  0  0  0  0  0  0  0  0  0  0  0
    4.0538    6.5405   18.3725 C   0  0  0  0  0  0  0  0  0  0  0  0
    3.8197    3.7835   15.9036 C   0  0  0  0  0  0  0  0  0  0  0  0
    3.4917    2.5173   16.3303 C   0  0  0  0  0  0  0  0  0  0  0  0
    3.0291    1.5410   15.4449 C   0  0  0  0  0  0  0  0  0  0  0  0
    2.8926    1.8343   14.1167 C   0  0  0  0  0  0  0  0  0  0  0  0
    3.2259    3.1057   13.7132 C   0  0  0  0  0  0  0  0  0  0  0  0
    3.6684    4.0310   14.5749 N   0  0  0  0  0  0  0  0  0  0  0  0
    5.9601    7.4088   19.5367 C   0  0  0  0  0  0  0  0  0  0  0  0
    6.0589    6.2359   20.4762 C   0  0  0  0  0  0  0  0  0  0  0  0
    5.2146    6.5574   21.7086 C   0  0  0  0  0  0  0  0  0  0  0  0
    4.0577    5.1995   22.0185 S   0  0  0  0  0  0  0  0  0  0  0  0
    6.5907   -0.0900   20.9913 F   0  0  0  0  0  0  0  0  0  0  0  0
    6.0248    1.1206   21.2448 C   0  0  0  0  0  0  0  0  0  0  0  0
    5.0949    1.6430   20.3558 C   0  0  0  0  0  0  0  0  0  0  0  0
    4.5078    2.8613   20.5855 C   0  0  0  0  0  0  0  0  0  0  0  0
    4.8118    3.6152   21.6990 C   0  0  0  0  0  0  0  0  0  0  0  0
    5.7371    3.0854   22.5747 C   0  0  0  0  0  0  0  0  0  0  0  0
    6.3406    1.8591   22.3618 C   0  0  0  0  0  0  0  0  0  0  0  0
 17 18  1  0  0  0
 18 19  2  0  0  0
 19 20  1  0  0  0
 20 21  2  0  0  0
 21 16  1  0  0  0
 16 15  1  0  0  0
 15 14  1  0  0  0
 14 13  1  0  0  0
 13  1  1  0  0  0
  1  2  1  0  0  0
  2  3  1  0  0  0
  3  4  1  0  0  0
  4  7  1  0  0  0
  7  8  2  0  0  0
  8  9  1  0  0  0
  9 10  2  0  0  0
 10 11  1  0  0  0
 11 12  2  0  0  0
  4  5  1  0  0  0
  5  6  1  0  0  0
 21 22  1  0  0  0
 22 23  2  0  0  0
 23 18  1  0  0  0
  6  1  1  0  0  0
 12  7  1  0  0  0
M  END
> <minimizedAffinity>
-7.02729

> <CNNscore>
0.3004217148

> <CNNaffinity>
5.5142521858

> <CNN_VS>
1.6566010714

> <CNNaffinity_variance>
0.2884172499

$$$$
[H]c1nc(N2C([H])([H])C([H])([H])N(C([H])([H])C([H])([H])C([H])([H])Sc3c([H])c([H])c(F)c([H])c3[H])C([H])([H])C2([H])[H])c([H])c([H])c1[H]


 23 25  0  0  0  0  0  0  0  0999 V2000
    4.1074    6.0658   18.0403 N   0  0  0  0  0  0  0  0  0  0  0  0
    3.3502    4.8491   18.2017 C   0  0  0  0  0  0  0  0  0  0  0  0
    2.3734    4.5542   17.0969 C   0  0  0  0  0  0  0  0  0  0  0  0
    2.9109    4.7641   15.7888 N   0  0  0  0  0  0  0  0  0  0  0  0
    3.9291    5.7663   15.6096 C   0  0  0  0  0  0  0  0  0  0  0  0
    3.8634    6.7085   16.7741 C   0  0  0  0  0  0  0  0  0  0  0  0
    2.4303    3.9875   14.7019 C   0  0  0  0  0  0  0  0  0  0  0  0
    2.2671    4.4998   13.4355 C   0  0  0  0  0  0  0  0  0  0  0  0
    1.7823    3.7183   12.3842 C   0  0  0  0  0  0  0  0  0  0  0  0
    1.4570    2.4084   12.6017 C   0  0  0  0  0  0  0  0  0  0  0  0
    1.6285    1.9180   13.8747 C   0  0  0  0  0  0  0  0  0  0  0  0
    2.0946    2.6807   14.8725 N   0  0  0  0  0  0  0  0  0  0  0  0
    3.9165    6.9667   19.1561 C   0  0  0  0  0  0  0  0  0  0  0  0
    5.2585    7.3470   19.7240 C   0  0  0  0  0  0  0  0  0  0  0  0
    5.0784    7.5765   21.2239 C   0  0  0  0  0  0  0  0  0  0  0  0
    6.2313    6.5216   22.1385 S   0  0  0  0  0  0  0  0  0  0  0  0
    3.9393    1.1240   23.1698 F   0  0  0  0  0  0  0  0  0  0  0  0
    4.4815    2.3473   22.9251 C   0  0  0  0  0  0  0  0  0  0  0  0
    3.7609    3.4921   23.2380 C   0  0  0  0  0  0  0  0  0  0  0  0
    4.2822    4.7390   23.0025 C   0  0  0  0  0  0  0  0  0  0  0  0
    5.5335    4.9100   22.4495 C   0  0  0  0  0  0  0  0  0  0  0  0
    6.2394    3.7649   22.1430 C   0  0  0  0  0  0  0  0  0  0  0  0
    5.7322    2.4986   22.3725 C   0  0  0  0  0  0  0  0  0  0  0  0
 17 18  1  0  0  0
 18 19  2  0  0  0
 19 20  1  0  0  0
 20 21  2  0  0  0
 21 16  1  0  0  0
 16 15  1  0  0  0
 15 14  1  0  0  0
 14 13  1  0  0  0
 13  1  1  0  0  0
  1  2  1  0  0  0
  2  3  1  0  0  0
  3  4  1  0  0  0
  4  7  1  0  0  0
  7  8  2  0  0  0
  8  9  1  0  0  0
  9 10  2  0  0  0
 10 11  1  0  0  0
 11 12  2  0  0  0
  4  5  1  0  0  0
  5  6  1  0  0  0
 21 22  1  0  0  0
 22 23  2  0  0  0
 23 18  1  0  0  0
  6  1  1  0  0  0
 12  7  1  0  0  0
M  END
> <minimizedAffinity>
-6.16635

> <CNNscore>
0.2924549878

> <CNNaffinity>
5.3363041878

> <CNN_VS>
1.5606287718

> <CNNaffinity_variance>
0.1387651414

$$$$
[H]c1c([H])c([H])c2c(c1[H])[C@]([H])(c1c([H])c([H])c(F)c([H])c1[H])C([H])([H])C([H])([H])[C@]2([H])N([H])C([H])([H])[H]


 20 22  0  0  0  0  0  0  0  0999 V2000
    4.4132    3.3172   16.1258 C   0  0  0  0  0  0  0  0  0  0  0  0
    5.1962    4.2807   16.9535 C   0  0  0  0  0  0  0  0  0  0  0  0
    4.7364    4.2562   18.3923 C   0  0  0  0  0  0  0  0  0  0  0  0
    5.1263    2.8686   18.9231 C   0  0  0  0  0  0  0  0  0  0  0  0
    4.1968    1.9336   18.2175 C   0  0  0  0  0  0  0  0  0  0  0  0
    3.6757    0.8599   18.8856 C   0  0  0  0  0  0  0  0  0  0  0  0
    2.8184    0.0103   18.2144 C   0  0  0  0  0  0  0  0  0  0  0  0
    2.4738    0.2055   16.9076 C   0  0  0  0  0  0  0  0  0  0  0  0
    3.0212    1.3060   16.2589 C   0  0  0  0  0  0  0  0  0  0  0  0
    3.8794    2.1736   16.8978 C   0  0  0  0  0  0  0  0  0  0  0  0
    5.0795    2.7738   20.3766 C   0  0  0  0  0  0  0  0  0  0  0  0
    5.9420    1.9322   21.0408 C   0  0  0  0  0  0  0  0  0  0  0  0
    5.9309    1.8134   22.4141 C   0  0  0  0  0  0  0  0  0  0  0  0
    5.0397    2.5488   23.1567 C   0  0  0  0  0  0  0  0  0  0  0  0
    5.0366    2.4230   24.5152 F   0  0  0  0  0  0  0  0  0  0  0  0
    4.1706    3.3936   22.5238 C   0  0  0  0  0  0  0  0  0  0  0  0
    4.1897    3.5072   21.1293 C   0  0  0  0  0  0  0  0  0  0  0  0
    3.8167    4.1146   13.9300 C   0  0  0  0  0  0  0  0  0  0  0  0
    3.4071    3.9547   15.2974 N   0  0  0  0  0  0  0  0  0  0  0  0
    2.5690    3.3317   15.3138 H   0  0  0  0  0  0  0  0  0  0  0  0
 18 19  1  0  0  0
 19  1  1  0  0  0
  1  2  1  0  0  0
  2  3  1  0  0  0
  3  4  1  0  0  0
  4 11  1  0  0  0
 11 12  2  0  0  0
 12 13  1  0  0  0
 13 14  2  0  0  0
 14 15  1  0  0  0
 14 16  1  0  0  0
 16 17  2  0  0  0
  4  5  1  0  0  0
  5  6  2  0  0  0
  6  7  1  0  0  0
  7  8  2  0  0  0
  8  9  1  0  0  0
  9 10  2  0  0  0
 10  1  1  0  0  0
 17 11  1  0  0  0
 10  5  1  0  0  0
 19 20  1  0  0  0
M  END
> <minimizedAffinity>
-7.92679

> <CNNscore>
0.5813087225

> <CNNaffinity>
5.6369075775

> <CNN_VS>
3.2767834663

> <CNNaffinity_variance>
0.2051343471

$$$$
[H]c1c([H])c([H])c2c(c1[H])[C@]([H])(c1c([H])c([H])c(F)c([H])c1[H])C([H])([H])C([H])([H])[C@]2([H])N([H])C([H])([H])[H]


 20 22  0  0  0  0  0  0  0  0999 V2000
    4.7297    5.9080   17.1585 C   0  0  0  0  0  0  0  0  0  0  0  0
    5.0449    5.8464   18.6157 C   0  0  0  0  0  0  0  0  0  0  0  0
    4.2997    4.7145   19.2832 C   0  0  0  0  0  0  0  0  0  0  0  0
    4.8961    3.4277   18.6933 C   0  0  0  0  0  0  0  0  0  0  0  0
    4.4086    3.4143   17.2797 C   0  0  0  0  0  0  0  0  0  0  0  0
    4.0374    2.2325   16.6997 C   0  0  0  0  0  0  0  0  0  0  0  0
    3.5892    2.2439   15.3934 C   0  0  0  0  0  0  0  0  0  0  0  0
    3.5043    3.3939   14.6620 C   0  0  0  0  0  0  0  0  0  0  0  0
    3.8894    4.5767   15.2819 C   0  0  0  0  0  0  0  0  0  0  0  0
    4.3410    4.6017   16.5829 C   0  0  0  0  0  0  0  0  0  0  0  0
    4.5545    2.2329   19.4546 C   0  0  0  0  0  0  0  0  0  0  0  0
    5.3439    1.8391   20.5107 C   0  0  0  0  0  0  0  0  0  0  0  0
    5.0559    0.7161   21.2565 C   0  0  0  0  0  0  0  0  0  0  0  0
    3.9533   -0.0435   20.9504 C   0  0  0  0  0  0  0  0  0  0  0  0
    3.6780   -1.1535   21.6944 F   0  0  0  0  0  0  0  0  0  0  0  0
    3.1506    0.3235   19.9062 C   0  0  0  0  0  0  0  0  0  0  0  0
    3.4512    1.4652   19.1552 C   0  0  0  0  0  0  0  0  0  0  0  0
    4.3757    8.2832   16.9437 C   0  0  0  0  0  0  0  0  0  0  0  0
    3.8051    6.9715   16.8138 N   0  0  0  0  0  0  0  0  0  0  0  0
    3.5463    6.8285   15.8121 H   0  0  0  0  0  0  0  0  0  0  0  0
 18 19  1  0  0  0
 19  1  1  0  0  0
  1  2  1  0  0  0
  2  3  1  0  0  0
  3  4  1  0  0  0
  4 11  1  0  0  0
 11 12  2  0  0  0
 12 13  1  0  0  0
 13 14  2  0  0  0
 14 15  1  0  0  0
 14 16  1  0  0  0
 16 17  2  0  0  0
  4  5  1  0  0  0
  5  6  2  0  0  0
  6  7  1  0  0  0
  7  8  2  0  0  0
  8  9  1  0  0  0
  9 10  2  0  0  0
 10  1  1  0  0  0
 17 11  1  0  0  0
 10  5  1  0  0  0
 19 20  1  0  0  0
M  END
> <minimizedAffinity>
-7.09390

> <CNNscore>
0.5803942084

> <CNNaffinity>
5.3216590881

> <CNN_VS>
3.0886600018

> <CNNaffinity_variance>
0.2065835446

$$$$
[H]c1c([H])c([H])c2c(c1[H])[C@]([H])(c1c([H])c([H])c(F)c([H])c1[H])C([H])([H])C([H])([H])[C@]2([H])N([H])C([H])([H])[H]


 20 22  0  0  0  0  0  0  0  0999 V2000
    5.3497    7.0677   21.3593 C   0  0  0  0  0  0  0  0  0  0  0  0
    5.8047    6.2011   22.4855 C   0  0  0  0  0  0  0  0  0  0  0  0
    4.9428    4.9657   22.6002 C   0  0  0  0  0  0  0  0  0  0  0  0
    5.2271    4.1489   21.3308 C   0  0  0  0  0  0  0  0  0  0  0  0
    4.5948    4.9458   20.2348 C   0  0  0  0  0  0  0  0  0  0  0  0
    3.9538    4.3047   19.2107 C   0  0  0  0  0  0  0  0  0  0  0  0
    3.3760    5.0609   18.2098 C   0  0  0  0  0  0  0  0  0  0  0  0
    3.4230    6.4256   18.2080 C   0  0  0  0  0  0  0  0  0  0  0  0
    4.0821    7.0447   19.2634 C   0  0  0  0  0  0  0  0  0  0  0  0
    4.6694    6.3215   20.2779 C   0  0  0  0  0  0  0  0  0  0  0  0
    4.7583    2.7716   21.4151 C   0  0  0  0  0  0  0  0  0  0  0  0
    5.4180    1.7758   20.7320 C   0  0  0  0  0  0  0  0  0  0  0  0
    5.0078    0.4608   20.7852 C   0  0  0  0  0  0  0  0  0  0  0  0
    3.9108    0.1168   21.5368 C   0  0  0  0  0  0  0  0  0  0  0  0
    3.5128   -1.1874   21.5818 F   0  0  0  0  0  0  0  0  0  0  0  0
    3.2355    1.0854   22.2263 C   0  0  0  0  0  0  0  0  0  0  0  0
    3.6598    2.4173   22.1660 C   0  0  0  0  0  0  0  0  0  0  0  0
    5.3782    9.4413   21.7813 C   0  0  0  0  0  0  0  0  0  0  0  0
    4.6024    8.2325   21.7946 N   0  0  0  0  0  0  0  0  0  0  0  0
    3.8115    8.3477   21.1223 H   0  0  0  0  0  0  0  0  0  0  0  0
 18 19  1  0  0  0
 19  1  1  0  0  0
  1  2  1  0  0  0
  2  3  1  0  0  0
  3  4  1  0  0  0
  4 11  1  0  0  0
 11 12  2  0  0  0
 12 13  1  0  0  0
 13 14  2  0  0  0
 14 15  1  0  0  0
 14 16  1  0  0  0
 16 17  2  0  0  0
  4  5  1  0  0  0
  5  6  2  0  0  0
  6  7  1  0  0  0
  7  8  2  0  0  0
  8  9  1  0  0  0
  9 10  2  0  0  0
 10  1  1  0  0  0
 17 11  1  0  0  0
 10  5  1  0  0  0
 19 20  1  0  0  0
M  END
> <minimizedAffinity>
-8.11077

> <CNNscore>
0.5287932158

> <CNNaffinity>
5.1639590263

> <CNN_VS>
2.7306663990

> <CNNaffinity_variance>
0.2874111831

$$$$
[H]c1c([H])c([H])c2c(c1[H])[C@]([H])(c1c([H])c([H])c(F)c([H])c1[H])C([H])([H])C([H])([H])[C@]2([H])N([H])C([H])([H])[H]


 20 22  0  0  0  0  0  0  0  0999 V2000
    4.5153    5.5263   17.3076 C   0  0  0  0  0  0  0  0  0  0  0  0
    4.9186    6.2492   18.5490 C   0  0  0  0  0  0  0  0  0  0  0  0
    4.4438    5.5154   19.7812 C   0  0  0  0  0  0  0  0  0  0  0  0
    5.2416    4.2031   19.8090 C   0  0  0  0  0  0  0  0  0  0  0  0
    4.6863    3.4142   18.6664 C   0  0  0  0  0  0  0  0  0  0  0  0
    4.5166    2.0628   18.7921 C   0  0  0  0  0  0  0  0  0  0  0  0
    4.0011    1.3545   17.7244 C   0  0  0  0  0  0  0  0  0  0  0  0
    3.6555    1.9570   16.5487 C   0  0  0  0  0  0  0  0  0  0  0  0
    3.8409    3.3312   16.4550 C   0  0  0  0  0  0  0  0  0  0  0  0
    4.3526    4.0684   17.5000 C   0  0  0  0  0  0  0  0  0  0  0  0
    5.1796    3.5184   21.0940 C   0  0  0  0  0  0  0  0  0  0  0  0
    4.1348    3.7623   21.9554 C   0  0  0  0  0  0  0  0  0  0  0  0
    4.0383    3.1356   23.1794 C   0  0  0  0  0  0  0  0  0  0  0  0
    5.0042    2.2391   23.5665 C   0  0  0  0  0  0  0  0  0  0  0  0
    4.8994    1.6251   24.7803 F   0  0  0  0  0  0  0  0  0  0  0  0
    6.0542    1.9769   22.7309 C   0  0  0  0  0  0  0  0  0  0  0  0
    6.1432    2.6181   21.4904 C   0  0  0  0  0  0  0  0  0  0  0  0
    3.7722    7.0518   15.5949 C   0  0  0  0  0  0  0  0  0  0  0  0
    3.3856    6.1332   16.6291 N   0  0  0  0  0  0  0  0  0  0  0  0
    2.8498    5.3536   16.1864 H   0  0  0  0  0  0  0  0  0  0  0  0
 18 19  1  0  0  0
 19  1  1  0  0  0
  1  2  1  0  0  0
  2  3  1  0  0  0
  3  4  1  0  0  0
  4 11  1  0  0  0
 11 12  2  0  0  0
 12 13  1  0  0  0
 13 14  2  0  0  0
 14 15  1  0  0  0
 14 16  1  0  0  0
 16 17  2  0  0  0
  4  5  1  0  0  0
  5  6  2  0  0  0
  6  7  1  0  0  0
  7  8  2  0  0  0
  8  9  1  0  0  0
  9 10  2  0  0  0
 10  1  1  0  0  0
 17 11  1  0  0  0
 10  5  1  0  0  0
 19 20  1  0  0  0
M  END
> <minimizedAffinity>
-7.42480

> <CNNscore>
0.5094522238

> <CNNaffinity>
5.1518540382

> <CNN_VS>
2.6246235371

> <CNNaffinity_variance>
0.2725166380

$$$$
[H]c1c([H])c([H])c2c(c1[H])[C@]([H])(c1c([H])c([H])c(F)c([H])c1[H])C([H])([H])C([H])([H])[C@]2([H])N([H])C([H])([H])[H]


 20 22  0  0  0  0  0  0  0  0999 V2000
    5.6848    4.4141   21.9545 C   0  0  0  0  0  0  0  0  0  0  0  0
    5.8221    2.9293   22.0078 C   0  0  0  0  0  0  0  0  0  0  0  0
    4.7185    2.2555   21.2266 C   0  0  0  0  0  0  0  0  0  0  0  0
    4.9723    2.6251   19.7575 C   0  0  0  0  0  0  0  0  0  0  0  0
    4.6449    4.0825   19.6862 C   0  0  0  0  0  0  0  0  0  0  0  0
    4.0070    4.5830   18.5846 C   0  0  0  0  0  0  0  0  0  0  0  0
    3.7136    5.9318   18.5408 C   0  0  0  0  0  0  0  0  0  0  0  0
    4.0384    6.7819   19.5589 C   0  0  0  0  0  0  0  0  0  0  0  0
    4.6859    6.2402   20.6630 C   0  0  0  0  0  0  0  0  0  0  0  0
    4.9937    4.8999   20.7398 C   0  0  0  0  0  0  0  0  0  0  0  0
    4.2254    1.7983   18.8181 C   0  0  0  0  0  0  0  0  0  0  0  0
    4.3722    1.9896   17.4634 C   0  0  0  0  0  0  0  0  0  0  0  0
    3.6850    1.2291   16.5416 C   0  0  0  0  0  0  0  0  0  0  0  0
    2.8247    0.2479   16.9701 C   0  0  0  0  0  0  0  0  0  0  0  0
    2.1490   -0.4984   16.0493 F   0  0  0  0  0  0  0  0  0  0  0  0
    2.6589    0.0351   18.3105 C   0  0  0  0  0  0  0  0  0  0  0  0
    3.3610    0.8122   19.2384 C   0  0  0  0  0  0  0  0  0  0  0  0
    3.9245    4.3650   23.6013 C   0  0  0  0  0  0  0  0  0  0  0  0
    5.1468    4.9868   23.1741 N   0  0  0  0  0  0  0  0  0  0  0  0
    5.8648    4.8344   23.9171 H   0  0  0  0  0  0  0  0  0  0  0  0
 18 19  1  0  0  0
 19  1  1  0  0  0
  1  2  1  0  0  0
  2  3  1  0  0  0
  3  4  1  0  0  0
  4 11  1  0  0  0
 11 12  2  0  0  0
 12 13  1  0  0  0
 13 14  2  0  0  0
 14 15  1  0  0  0
 14 16  1  0  0  0
 16 17  2  0  0  0
  4  5  1  0  0  0
  5  6  2  0  0  0
  6  7  1  0  0  0
  7  8  2  0  0  0
  8  9  1  0  0  0
  9 10  2  0  0  0
 10  1  1  0  0  0
 17 11  1  0  0  0
 10  5  1  0  0  0
 19 20  1  0  0  0
M  END
> <minimizedAffinity>
-7.75950

> <CNNscore>
0.4508124888

> <CNNaffinity>
5.3457403183

> <CNN_VS>
2.4099264145

> <CNNaffinity_variance>
0.2025981843

$$$$
[H]c1c([H])c([H])c2c(c1[H])[C@]([H])(c1c([H])c([H])c(F)c([H])c1[H])C([H])([H])C([H])([H])[C@]2([H])N([H])C([H])([H])[H]


 20 22  0  0  0  0  0  0  0  0999 V2000
    6.4361    5.5826   21.8508 C   0  0  0  0  0  0  0  0  0  0  0  0
    6.7402    4.1805   22.2607 C   0  0  0  0  0  0  0  0  0  0  0  0
    5.5533    3.2771   22.0212 C   0  0  0  0  0  0  0  0  0  0  0  0
    5.3859    3.2171   20.4955 C   0  0  0  0  0  0  0  0  0  0  0  0
    4.8974    4.5819   20.1281 C   0  0  0  0  0  0  0  0  0  0  0  0
    3.9517    4.7252   19.1504 C   0  0  0  0  0  0  0  0  0  0  0  0
    3.5143    5.9950   18.8283 C   0  0  0  0  0  0  0  0  0  0  0  0
    3.9936    7.1111   19.4522 C   0  0  0  0  0  0  0  0  0  0  0  0
    4.9536    6.9294   20.4407 C   0  0  0  0  0  0  0  0  0  0  0  0
    5.4122    5.6776   20.7870 C   0  0  0  0  0  0  0  0  0  0  0  0
    4.5183    2.1328   20.0534 C   0  0  0  0  0  0  0  0  0  0  0  0
    3.7934    1.4109   20.9736 C   0  0  0  0  0  0  0  0  0  0  0  0
    2.9612    0.3784   20.5975 C   0  0  0  0  0  0  0  0  0  0  0  0
    2.8400    0.0470   19.2700 C   0  0  0  0  0  0  0  0  0  0  0  0
    2.0142   -0.9772   18.9088 F   0  0  0  0  0  0  0  0  0  0  0  0
    3.5483    0.7471   18.3331 C   0  0  0  0  0  0  0  0  0  0  0  0
    4.3904    1.7935   18.7250 C   0  0  0  0  0  0  0  0  0  0  0  0
    7.1851    7.4575   23.1685 C   0  0  0  0  0  0  0  0  0  0  0  0
    6.1664    6.4644   22.9708 N   0  0  0  0  0  0  0  0  0  0  0  0
    5.2715    6.9570   22.7536 H   0  0  0  0  0  0  0  0  0  0  0  0
 18 19  1  0  0  0
 19  1  1  0  0  0
  1  2  1  0  0  0
  2  3  1  0  0  0
  3  4  1  0  0  0
  4 11  1  0  0  0
 11 12  2  0  0  0
 12 13  1  0  0  0
 13 14  2  0  0  0
 14 15  1  0  0  0
 14 16  1  0  0  0
 16 17  2  0  0  0
  4  5  1  0  0  0
  5  6  2  0  0  0
  6  7  1  0  0  0
  7  8  2  0  0  0
  8  9  1  0  0  0
  9 10  2  0  0  0
 10  1  1  0  0  0
 17 11  1  0  0  0
 10  5  1  0  0  0
 19 20  1  0  0  0
M  END
> <minimizedAffinity>
-7.71150

> <CNNscore>
0.4428904355

> <CNNaffinity>
5.1261053085

> <CNN_VS>
2.2703030109

> <CNNaffinity_variance>
0.3672498465

$$$$
[H]c1c([H])c([H])c2c(c1[H])[C@]([H])(c1c([H])c([H])c(F)c([H])c1[H])C([H])([H])C([H])([H])[C@]2([H])N([H])C([H])([H])[H]


 20 22  0  0  0  0  0  0  0  0999 V2000
    5.1529    8.0169   18.4737 C   0  0  0  0  0  0  0  0  0  0  0  0
    3.8390    7.3218   18.6037 C   0  0  0  0  0  0  0  0  0  0  0  0
    4.0195    5.9175   19.1305 C   0  0  0  0  0  0  0  0  0  0  0  0
    4.5255    6.0826   20.5713 C   0  0  0  0  0  0  0  0  0  0  0  0
    5.9179    6.6040   20.4115 C   0  0  0  0  0  0  0  0  0  0  0  0
    6.9062    6.1728   21.2531 C   0  0  0  0  0  0  0  0  0  0  0  0
    8.1850    6.6669   21.0864 C   0  0  0  0  0  0  0  0  0  0  0  0
    8.4959    7.5704   20.1109 C   0  0  0  0  0  0  0  0  0  0  0  0
    7.4681    7.9872   19.2734 C   0  0  0  0  0  0  0  0  0  0  0  0
    6.1815    7.5151   19.4114 C   0  0  0  0  0  0  0  0  0  0  0  0
    4.4320    4.8596   21.3584 C   0  0  0  0  0  0  0  0  0  0  0  0
    4.0349    4.9155   22.6746 C   0  0  0  0  0  0  0  0  0  0  0  0
    3.9329    3.7828   23.4536 C   0  0  0  0  0  0  0  0  0  0  0  0
    4.2328    2.5546   22.9166 C   0  0  0  0  0  0  0  0  0  0  0  0
    4.1294    1.4400   23.6966 F   0  0  0  0  0  0  0  0  0  0  0  0
    4.6301    2.4685   21.6112 C   0  0  0  0  0  0  0  0  0  0  0  0
    4.7304    3.6241   20.8286 C   0  0  0  0  0  0  0  0  0  0  0  0
    4.5700    8.1475   16.1379 C   0  0  0  0  0  0  0  0  0  0  0  0
    5.6299    8.0955   17.1058 N   0  0  0  0  0  0  0  0  0  0  0  0
    6.1797    8.9805   17.0321 H   0  0  0  0  0  0  0  0  0  0  0  0
 18 19  1  0  0  0
 19  1  1  0  0  0
  1  2  1  0  0  0
  2  3  1  0  0  0
  3  4  1  0  0  0
  4 11  1  0  0  0
 11 12  2  0  0  0
 12 13  1  0  0  0
 13 14  2  0  0  0
 14 15  1  0  0  0
 14 16  1  0  0  0
 16 17  2  0  0  0
  4  5  1  0  0  0
  5  6  2  0  0  0
  6  7  1  0  0  0
  7  8  2  0  0  0
  8  9  1  0  0  0
  9 10  2  0  0  0
 10  1  1  0  0  0
 17 11  1  0  0  0
 10  5  1  0  0  0
 19 20  1  0  0  0
M  END
> <minimizedAffinity>
-6.70089

> <CNNscore>
0.4399130344

> <CNNaffinity>
4.6693158150

> <CNN_VS>
2.0540928841

> <CNNaffinity_variance>
0.3383027911

$$$$
[H]c1c([H])c([H])c2c(c1[H])[C@]([H])(c1c([H])c([H])c(F)c([H])c1[H])C([H])([H])C([H])([H])[C@]2([H])N([H])C([H])([H])[H]


 20 22  0  0  0  0  0  0  0  0999 V2000
    4.2689    5.7257   20.3263 C   0  0  0  0  0  0  0  0  0  0  0  0
    3.6198    6.4214   19.1769 C   0  0  0  0  0  0  0  0  0  0  0  0
    3.9637    5.7448   17.8707 C   0  0  0  0  0  0  0  0  0  0  0  0
    3.2884    4.3667   17.9332 C   0  0  0  0  0  0  0  0  0  0  0  0
    4.0777    3.6198   18.9605 C   0  0  0  0  0  0  0  0  0  0  0  0
    4.3435    2.2904   18.7795 C   0  0  0  0  0  0  0  0  0  0  0  0
    5.0753    1.6209   19.7406 C   0  0  0  0  0  0  0  0  0  0  0  0
    5.5420    2.2407   20.8643 C   0  0  0  0  0  0  0  0  0  0  0  0
    5.2539    3.5918   21.0166 C   0  0  0  0  0  0  0  0  0  0  0  0
    4.5269    4.2901   20.0780 C   0  0  0  0  0  0  0  0  0  0  0  0
    3.2134    3.7026   16.6382 C   0  0  0  0  0  0  0  0  0  0  0  0
    2.3975    2.6072   16.4712 C   0  0  0  0  0  0  0  0  0  0  0  0
    2.2974    1.9507   15.2632 C   0  0  0  0  0  0  0  0  0  0  0  0
    3.0260    2.3890   14.1845 C   0  0  0  0  0  0  0  0  0  0  0  0
    2.9201    1.7314   12.9938 F   0  0  0  0  0  0  0  0  0  0  0  0
    3.8453    3.4751   14.3209 C   0  0  0  0  0  0  0  0  0  0  0  0
    3.9400    4.1348   15.5512 C   0  0  0  0  0  0  0  0  0  0  0  0
    5.1882    7.8170   21.0971 C   0  0  0  0  0  0  0  0  0  0  0  0
    5.4315    6.4249   20.8405 N   0  0  0  0  0  0  0  0  0  0  0  0
    5.6786    5.9668   21.7460 H   0  0  0  0  0  0  0  0  0  0  0  0
 18 19  1  0  0  0
 19  1  1  0  0  0
  1  2  1  0  0  0
  2  3  1  0  0  0
  3  4  1  0  0  0
  4 11  1  0  0  0
 11 12  2  0  0  0
 12 13  1  0  0  0
 13 14  2  0  0  0
 14 15  1  0  0  0
 14 16  1  0  0  0
 16 17  2  0  0  0
  4  5  1  0  0  0
  5  6  2  0  0  0
  6  7  1  0  0  0
  7  8  2  0  0  0
  8  9  1  0  0  0
  9 10  2  0  0  0
 10  1  1  0  0  0
 17 11  1  0  0  0
 10  5  1  0  0  0
 19 20  1  0  0  0
M  END
> <minimizedAffinity>
-7.01964

> <CNNscore>
0.4264605641

> <CNNaffinity>
5.0054392815

> <CNN_VS>
2.1346225739

> <CNNaffinity_variance>
0.2387325019

$$$$
[H]c1c([H])c([H])c2c(c1[H])[C@]([H])(c1c([H])c([H])c(F)c([H])c1[H])C([H])([H])C([H])([H])[C@]2([H])N([H])C([H])([H])[H]


 20 22  0  0  0  0  0  0  0  0999 V2000
    4.5046    8.3120    8.0008 C   0  0  0  0  0  0  0  0  0  0  0  0
    3.1729    8.9831    8.0531 C   0  0  0  0  0  0  0  0  0  0  0  0
    2.1477    8.0997    8.7244 C   0  0  0  0  0  0  0  0  0  0  0  0
    2.5960    7.9926   10.1896 C   0  0  0  0  0  0  0  0  0  0  0  0
    3.8326    7.1537   10.1324 C   0  0  0  0  0  0  0  0  0  0  0  0
    4.0731    6.2294   11.1115 C   0  0  0  0  0  0  0  0  0  0  0  0
    5.2210    5.4649   11.0377 C   0  0  0  0  0  0  0  0  0  0  0  0
    6.1230    5.6004   10.0216 C   0  0  0  0  0  0  0  0  0  0  0  0
    5.8477    6.5487    9.0436 C   0  0  0  0  0  0  0  0  0  0  0  0
    4.7128    7.3281    9.0860 C   0  0  0  0  0  0  0  0  0  0  0  0
    1.5604    7.4709   11.0722 C   0  0  0  0  0  0  0  0  0  0  0  0
    0.6043    6.6117   10.5810 C   0  0  0  0  0  0  0  0  0  0  0  0
   -0.3918    6.0954   11.3819 C   0  0  0  0  0  0  0  0  0  0  0  0
   -0.4468    6.4379   12.7109 C   0  0  0  0  0  0  0  0  0  0  0  0
   -1.4373    5.9219   13.4945 F   0  0  0  0  0  0  0  0  0  0  0  0
    0.4901    7.2898   13.2268 C   0  0  0  0  0  0  0  0  0  0  0  0
    1.4973    7.8085   12.4057 C   0  0  0  0  0  0  0  0  0  0  0  0
    4.3414    8.5934    5.6119 C   0  0  0  0  0  0  0  0  0  0  0  0
    4.8308    7.7811    6.6907 N   0  0  0  0  0  0  0  0  0  0  0  0
    5.8732    7.7560    6.6302 H   0  0  0  0  0  0  0  0  0  0  0  0
 18 19  1  0  0  0
 19  1  1  0  0  0
  1  2  1  0  0  0
  2  3  1  0  0  0
  3  4  1  0  0  0
  4 11  1  0  0  0
 11 12  2  0  0  0
 12 13  1  0  0  0
 13 14  2  0  0  0
 14 15  1  0  0  0
 14 16  1  0  0  0
 16 17  2  0  0  0
  4  5  1  0  0  0
  5  6  2  0  0  0
  6  7  1  0  0  0
  7  8  2  0  0  0
  8  9  1  0  0  0
  9 10  2  0  0  0
 10  1  1  0  0  0
 17 11  1  0  0  0
 10  5  1  0  0  0
 19 20  1  0  0  0
M  END
> <minimizedAffinity>
-4.00243

> <CNNscore>
0.4247829318

> <CNNaffinity>
3.8719849586

> <CNN_VS>
1.6447530985

> <CNNaffinity_variance>
0.3751945496

$$$$
[H]OC(=O)C([H])(Oc1c([H])c([H])c(-c2noc([H])c3c(C(=O)C4([H])C([H])([H])C([H])([H])C([H])([H])C4([H])[H])c([H])c([H])c2-3)c([H])c1[H])C(=O)O[H]


 32 35  0  0  0  0  0  0  0  0999 V2000
    4.8090    2.0985   19.4725 C   0  0  0  0  0  0  0  0  0  0  0  0
    5.1838    3.1339   18.6428 C   0  0  0  0  0  0  0  0  0  0  0  0
    4.5482    3.0439   17.4090 C   0  0  0  0  0  0  0  0  0  0  0  0
    3.7425    1.9272   17.4334 C   0  0  0  0  0  0  0  0  0  0  0  0
    2.8818    1.3125   16.5490 C   0  0  0  0  0  0  0  0  0  0  0  0
    2.2295    0.1902   16.9224 N   0  0  0  0  0  0  0  0  0  0  0  0
    2.3924   -0.3224   18.0885 O   0  0  0  0  0  0  0  0  0  0  0  0
    3.1843    0.1789   19.0032 C   0  0  0  0  0  0  0  0  0  0  0  0
    3.9165    1.3323   18.7536 C   0  0  0  0  0  0  0  0  0  0  0  0
    2.6708    1.8707   15.2165 C   0  0  0  0  0  0  0  0  0  0  0  0
    1.5568    1.5011   14.4948 C   0  0  0  0  0  0  0  0  0  0  0  0
    1.3093    1.9967   13.2198 C   0  0  0  0  0  0  0  0  0  0  0  0
    2.1784    2.8800   12.6342 C   0  0  0  0  0  0  0  0  0  0  0  0
    3.3100    3.2608   13.3568 C   0  0  0  0  0  0  0  0  0  0  0  0
    3.5326    2.7601   14.6096 C   0  0  0  0  0  0  0  0  0  0  0  0
    1.9954    3.4032   11.3877 O   0  0  0  0  0  0  0  0  0  0  0  0
    2.5086    2.9959   10.1685 C   0  0  0  0  0  0  0  0  0  0  0  0
    2.3867    1.5360   10.0193 C   0  0  0  0  0  0  0  0  0  0  0  0
    1.3108    1.0092    9.6091 O   0  0  0  0  0  0  0  0  0  0  0  0
    3.4157    0.6776   10.3136 O   0  0  0  0  0  0  0  0  0  0  0  0
    3.3897    0.0772   11.1256 H   0  0  0  0  0  0  0  0  0  0  0  0
    3.8568    3.5299    9.8667 C   0  0  0  0  0  0  0  0  0  0  0  0
    4.1580    4.6904   10.2330 O   0  0  0  0  0  0  0  0  0  0  0  0
    4.7664    2.7388    9.1837 O   0  0  0  0  0  0  0  0  0  0  0  0
    5.7241    3.0504    9.1035 H   0  0  0  0  0  0  0  0  0  0  0  0
    5.7832    0.7173   21.1078 O   0  0  0  0  0  0  0  0  0  0  0  0
    5.2428    1.8209   20.8343 C   0  0  0  0  0  0  0  0  0  0  0  0
    5.0961    2.7581   21.9630 C   0  0  0  0  0  0  0  0  0  0  0  0
    5.2499    4.1895   21.6305 C   0  0  0  0  0  0  0  0  0  0  0  0
    4.5424    4.8856   22.7997 C   0  0  0  0  0  0  0  0  0  0  0  0
    3.5419    3.9190   23.3418 C   0  0  0  0  0  0  0  0  0  0  0  0
    3.7495    2.6321   22.6014 C   0  0  0  0  0  0  0  0  0  0  0  0
 26 27  2  0  0  0
 27  1  1  0  0  0
  1  2  2  0  0  0
  2  3  1  0  0  0
  3  4  2  0  0  0
  4  5  1  0  0  0
  5 10  1  0  0  0
 10 11  2  0  0  0
 11 12  1  0  0  0
 12 13  2  0  0  0
 13 16  1  0  0  0
 16 17  1  0  0  0
 17 18  1  0  0  0
 18 19  2  0  0  0
 18 20  1  0  0  0
 17 22  1  0  0  0
 22 23  2  0  0  0
 22 24  1  0  0  0
 13 14  1  0  0  0
 14 15  2  0  0  0
  5  6  2  0  0  0
  6  7  1  0  0  0
  7  8  1  0  0  0
  8  9  2  0  0  0
 27 28  1  0  0  0
 28 29  1  0  0  0
 29 30  1  0  0  0
 30 31  1  0  0  0
 31 32  1  0  0  0
  9  1  1  0  0  0
 32 28  1  0  0  0
  9  4  1  0  0  0
 15 10  1  0  0  0
 20 21  1  0  0  0
 24 25  1  0  0  0
M  END
> <minimizedAffinity>
-7.97823

> <CNNscore>
0.7706558704

> <CNNaffinity>
6.3016471863

> <CNN_VS>
4.8564014435

> <CNNaffinity_variance>
0.7598930597

$$$$
[H]OC(=O)C([H])(Oc1c([H])c([H])c(-c2noc([H])c3c(C(=O)C4([H])C([H])([H])C([H])([H])C([H])([H])C4([H])[H])c([H])c([H])c2-3)c([H])c1[H])C(=O)O[H]


 32 35  0  0  0  0  0  0  0  0999 V2000
    4.8135    2.2813   19.5511 C   0  0  0  0  0  0  0  0  0  0  0  0
    5.1213    3.3952   18.7991 C   0  0  0  0  0  0  0  0  0  0  0  0
    4.4595    3.3739   17.5760 C   0  0  0  0  0  0  0  0  0  0  0  0
    3.7046    2.2229   17.5283 C   0  0  0  0  0  0  0  0  0  0  0  0
    2.8499    1.6412   16.6163 C   0  0  0  0  0  0  0  0  0  0  0  0
    2.2572    0.4641   16.9125 N   0  0  0  0  0  0  0  0  0  0  0  0
    2.4718   -0.1310   18.0300 O   0  0  0  0  0  0  0  0  0  0  0  0
    3.2636    0.3322   18.9646 C   0  0  0  0  0  0  0  0  0  0  0  0
    3.9378    1.5342   18.7926 C   0  0  0  0  0  0  0  0  0  0  0  0
    2.5811    2.2927   15.3376 C   0  0  0  0  0  0  0  0  0  0  0  0
    2.7566    1.5876   14.1670 C   0  0  0  0  0  0  0  0  0  0  0  0
    2.5212    2.1597   12.9220 C   0  0  0  0  0  0  0  0  0  0  0  0
    2.1020    3.4608   12.8205 C   0  0  0  0  0  0  0  0  0  0  0  0
    1.9213    4.1838   14.0005 C   0  0  0  0  0  0  0  0  0  0  0  0
    2.1590    3.5998   15.2138 C   0  0  0  0  0  0  0  0  0  0  0  0
    1.8539    4.0820   11.6317 O   0  0  0  0  0  0  0  0  0  0  0  0
    2.7124    4.3776   10.5869 C   0  0  0  0  0  0  0  0  0  0  0  0
    2.7248    5.8263   10.3236 C   0  0  0  0  0  0  0  0  0  0  0  0
    2.6734    6.6629   11.2727 O   0  0  0  0  0  0  0  0  0  0  0  0
    2.7898    6.3431    9.0544 O   0  0  0  0  0  0  0  0  0  0  0  0
    1.9954    6.7955    8.6245 H   0  0  0  0  0  0  0  0  0  0  0  0
    2.5151    3.5397    9.3815 C   0  0  0  0  0  0  0  0  0  0  0  0
    1.4993    2.8101    9.2956 O   0  0  0  0  0  0  0  0  0  0  0  0
    3.4566    3.5744    8.3655 O   0  0  0  0  0  0  0  0  0  0  0  0
    3.2508    3.1131    7.4905 H   0  0  0  0  0  0  0  0  0  0  0  0
    5.9380    0.8481   21.0385 O   0  0  0  0  0  0  0  0  0  0  0  0
    5.2932    1.9171   20.8766 C   0  0  0  0  0  0  0  0  0  0  0  0
    5.0785    2.7245   22.0914 C   0  0  0  0  0  0  0  0  0  0  0  0
    5.3628    4.1684   21.9589 C   0  0  0  0  0  0  0  0  0  0  0  0
    4.5719    4.7766   23.1236 C   0  0  0  0  0  0  0  0  0  0  0  0
    3.4544    3.8352   23.4305 C   0  0  0  0  0  0  0  0  0  0  0  0
    3.6617    2.6313   22.5615 C   0  0  0  0  0  0  0  0  0  0  0  0
 26 27  2  0  0  0
 27  1  1  0  0  0
  1  2  2  0  0  0
  2  3  1  0  0  0
  3  4  2  0  0  0
  4  5  1  0  0  0
  5 10  1  0  0  0
 10 11  2  0  0  0
 11 12  1  0  0  0
 12 13  2  0  0  0
 13 16  1  0  0  0
 16 17  1  0  0  0
 17 18  1  0  0  0
 18 19  2  0  0  0
 18 20  1  0  0  0
 17 22  1  0  0  0
 22 23  2  0  0  0
 22 24  1  0  0  0
 13 14  1  0  0  0
 14 15  2  0  0  0
  5  6  2  0  0  0
  6  7  1  0  0  0
  7  8  1  0  0  0
  8  9  2  0  0  0
 27 28  1  0  0  0
 28 29  1  0  0  0
 29 30  1  0  0  0
 30 31  1  0  0  0
 31 32  1  0  0  0
  9  1  1  0  0  0
 32 28  1  0  0  0
  9  4  1  0  0  0
 15 10  1  0  0  0
 20 21  1  0  0  0
 24 25  1  0  0  0
M  END
> <minimizedAffinity>
-7.34250

> <CNNscore>
0.7517157793

> <CNNaffinity>
6.3753809929

> <CNN_VS>
4.7924742699

> <CNNaffinity_variance>
0.9799860120

$$$$
[H]OC(=O)C([H])(Oc1c([H])c([H])c(-c2noc([H])c3c(C(=O)C4([H])C([H])([H])C([H])([H])C([H])([H])C4([H])[H])c([H])c([H])c2-3)c([H])c1[H])C(=O)O[H]


 32 35  0  0  0  0  0  0  0  0999 V2000
    4.7989    1.9958   19.5635 C   0  0  0  0  0  0  0  0  0  0  0  0
    5.1365    3.1071   18.8206 C   0  0  0  0  0  0  0  0  0  0  0  0
    4.4374    3.1391   17.6187 C   0  0  0  0  0  0  0  0  0  0  0  0
    3.6272    2.0262   17.5758 C   0  0  0  0  0  0  0  0  0  0  0  0
    2.7180    1.5020   16.6817 C   0  0  0  0  0  0  0  0  0  0  0  0
    2.0791    0.3492   16.9770 N   0  0  0  0  0  0  0  0  0  0  0  0
    2.2990   -0.2753   18.0772 O   0  0  0  0  0  0  0  0  0  0  0  0
    3.1403    0.1331   18.9940 C   0  0  0  0  0  0  0  0  0  0  0  0
    3.8657    1.3047   18.8206 C   0  0  0  0  0  0  0  0  0  0  0  0
    2.4417    2.1883   15.4230 C   0  0  0  0  0  0  0  0  0  0  0  0
    2.5943    3.5556   15.3482 C   0  0  0  0  0  0  0  0  0  0  0  0
    2.3396    4.2607   14.1775 C   0  0  0  0  0  0  0  0  0  0  0  0
    1.9229    3.6076   13.0467 C   0  0  0  0  0  0  0  0  0  0  0  0
    1.7651    2.2225   13.1120 C   0  0  0  0  0  0  0  0  0  0  0  0
    2.0217    1.5503   14.2747 C   0  0  0  0  0  0  0  0  0  0  0  0
    1.6556    4.2386   11.8673 O   0  0  0  0  0  0  0  0  0  0  0  0
    0.6584    5.1444   11.5497 C   0  0  0  0  0  0  0  0  0  0  0  0
    1.1997    6.5131   11.5055 C   0  0  0  0  0  0  0  0  0  0  0  0
    2.4484    6.7221   11.5211 O   0  0  0  0  0  0  0  0  0  0  0  0
    0.3937    7.6218   11.4479 O   0  0  0  0  0  0  0  0  0  0  0  0
    0.2889    8.2430   12.2376 H   0  0  0  0  0  0  0  0  0  0  0  0
   -0.5740    5.0011   12.3587 C   0  0  0  0  0  0  0  0  0  0  0  0
   -0.7966    5.8061   13.2936 O   0  0  0  0  0  0  0  0  0  0  0  0
   -1.4639    3.9790   12.0704 O   0  0  0  0  0  0  0  0  0  0  0  0
   -2.3643    3.9690   12.5286 H   0  0  0  0  0  0  0  0  0  0  0  0
    5.9522    0.5142   20.9797 O   0  0  0  0  0  0  0  0  0  0  0  0
    5.3010    1.5856   20.8671 C   0  0  0  0  0  0  0  0  0  0  0  0
    5.1026    2.3472   22.1137 C   0  0  0  0  0  0  0  0  0  0  0  0
    5.6570    3.7168   22.1223 C   0  0  0  0  0  0  0  0  0  0  0  0
    4.8651    4.3947   23.2470 C   0  0  0  0  0  0  0  0  0  0  0  0
    3.5684    3.6647   23.3686 C   0  0  0  0  0  0  0  0  0  0  0  0
    3.6492    2.4958   22.4334 C   0  0  0  0  0  0  0  0  0  0  0  0
 26 27  2  0  0  0
 27  1  1  0  0  0
  1  2  2  0  0  0
  2  3  1  0  0  0
  3  4  2  0  0  0
  4  5  1  0  0  0
  5 10  1  0  0  0
 10 11  2  0  0  0
 11 12  1  0  0  0
 12 13  2  0  0  0
 13 16  1  0  0  0
 16 17  1  0  0  0
 17 18  1  0  0  0
 18 19  2  0  0  0
 18 20  1  0  0  0
 17 22  1  0  0  0
 22 23  2  0  0  0
 22 24  1  0  0  0
 13 14  1  0  0  0
 14 15  2  0  0  0
  5  6  2  0  0  0
  6  7  1  0  0  0
  7  8  1  0  0  0
  8  9  2  0  0  0
 27 28  1  0  0  0
 28 29  1  0  0  0
 29 30  1  0  0  0
 30 31  1  0  0  0
 31 32  1  0  0  0
  9  1  1  0  0  0
 32 28  1  0  0  0
  9  4  1  0  0  0
 15 10  1  0  0  0
 20 21  1  0  0  0
 24 25  1  0  0  0
M  END
> <minimizedAffinity>
-8.26514

> <CNNscore>
0.7278753519

> <CNNaffinity>
6.2811670303

> <CNN_VS>
4.5719065666

> <CNNaffinity_variance>
0.6799140573

$$$$
[H]OC(=O)C([H])(Oc1c([H])c([H])c(-c2noc([H])c3c(C(=O)C4([H])C([H])([H])C([H])([H])C([H])([H])C4([H])[H])c([H])c([H])c2-3)c([H])c1[H])C(=O)O[H]


 32 35  0  0  0  0  0  0  0  0999 V2000
    4.1925    1.2611   19.8448 C   0  0  0  0  0  0  0  0  0  0  0  0
    4.8220    2.4119   19.4203 C   0  0  0  0  0  0  0  0  0  0  0  0
    4.5206    2.6880   18.0909 C   0  0  0  0  0  0  0  0  0  0  0  0
    3.6777    1.6974   17.6381 C   0  0  0  0  0  0  0  0  0  0  0  0
    3.0414    1.4111   16.4490 C   0  0  0  0  0  0  0  0  0  0  0  0
    2.2566    0.3156   16.3581 N   0  0  0  0  0  0  0  0  0  0  0  0
    2.0874   -0.4717   17.3583 O   0  0  0  0  0  0  0  0  0  0  0  0
    2.6433   -0.2940   18.5307 C   0  0  0  0  0  0  0  0  0  0  0  0
    3.4751    0.7933   18.7645 C   0  0  0  0  0  0  0  0  0  0  0  0
    3.2095    2.2870   15.2931 C   0  0  0  0  0  0  0  0  0  0  0  0
    2.7300    1.8883   14.0645 C   0  0  0  0  0  0  0  0  0  0  0  0
    2.8676    2.6794   12.9296 C   0  0  0  0  0  0  0  0  0  0  0  0
    3.4936    3.8968   13.0000 C   0  0  0  0  0  0  0  0  0  0  0  0
    3.9829    4.3100   14.2400 C   0  0  0  0  0  0  0  0  0  0  0  0
    3.8358    3.5148   15.3425 C   0  0  0  0  0  0  0  0  0  0  0  0
    3.6621    4.7207   11.9260 O   0  0  0  0  0  0  0  0  0  0  0  0
    3.0330    5.9132   11.6131 C   0  0  0  0  0  0  0  0  0  0  0  0
    3.8370    7.0572   12.0747 C   0  0  0  0  0  0  0  0  0  0  0  0
    3.2969    8.1726   12.3343 O   0  0  0  0  0  0  0  0  0  0  0  0
    5.1962    6.9805   12.2450 O   0  0  0  0  0  0  0  0  0  0  0  0
    5.8365    7.4467   11.6178 H   0  0  0  0  0  0  0  0  0  0  0  0
    1.6066    5.9707   12.0078 C   0  0  0  0  0  0  0  0  0  0  0  0
    0.7341    5.4965   11.2427 O   0  0  0  0  0  0  0  0  0  0  0  0
    1.2567    6.5479   13.2179 O   0  0  0  0  0  0  0  0  0  0  0  0
    0.3052    6.4603   13.5460 H   0  0  0  0  0  0  0  0  0  0  0  0
    4.0232   -0.6110   21.2582 O   0  0  0  0  0  0  0  0  0  0  0  0
    4.2469    0.6233   21.1525 C   0  0  0  0  0  0  0  0  0  0  0  0
    4.5522    1.3279   22.4110 C   0  0  0  0  0  0  0  0  0  0  0  0
    5.9120    1.8970   22.5125 C   0  0  0  0  0  0  0  0  0  0  0  0
    5.7519    2.9618   23.6045 C   0  0  0  0  0  0  0  0  0  0  0  0
    4.3165    3.3729   23.6055 C   0  0  0  0  0  0  0  0  0  0  0  0
    3.6156    2.4726   22.6331 C   0  0  0  0  0  0  0  0  0  0  0  0
 26 27  2  0  0  0
 27  1  1  0  0  0
  1  2  2  0  0  0
  2  3  1  0  0  0
  3  4  2  0  0  0
  4  5  1  0  0  0
  5 10  1  0  0  0
 10 11  2  0  0  0
 11 12  1  0  0  0
 12 13  2  0  0  0
 13 16  1  0  0  0
 16 17  1  0  0  0
 17 18  1  0  0  0
 18 19  2  0  0  0
 18 20  1  0  0  0
 17 22  1  0  0  0
 22 23  2  0  0  0
 22 24  1  0  0  0
 13 14  1  0  0  0
 14 15  2  0  0  0
  5  6  2  0  0  0
  6  7  1  0  0  0
  7  8  1  0  0  0
  8  9  2  0  0  0
 27 28  1  0  0  0
 28 29  1  0  0  0
 29 30  1  0  0  0
 30 31  1  0  0  0
 31 32  1  0  0  0
  9  1  1  0  0  0
 32 28  1  0  0  0
  9  4  1  0  0  0
 15 10  1  0  0  0
 20 21  1  0  0  0
 24 25  1  0  0  0
M  END
> <minimizedAffinity>
-8.49179

> <CNNscore>
0.7222407460

> <CNNaffinity>
6.1145610809

> <CNN_VS>
4.4161853790

> <CNNaffinity_variance>
0.4877872467

$$$$
[H]OC(=O)C([H])(Oc1c([H])c([H])c(-c2noc([H])c3c(C(=O)C4([H])C([H])([H])C([H])([H])C([H])([H])C4([H])[H])c([H])c([H])c2-3)c([H])c1[H])C(=O)O[H]


 32 35  0  0  0  0  0  0  0  0999 V2000
    4.7600    1.9262   19.3927 C   0  0  0  0  0  0  0  0  0  0  0  0
    5.2080    3.1177   18.8631 C   0  0  0  0  0  0  0  0  0  0  0  0
    4.6247    3.3681   17.6255 C   0  0  0  0  0  0  0  0  0  0  0  0
    3.7791    2.3188   17.3412 C   0  0  0  0  0  0  0  0  0  0  0  0
    2.9368    1.9847   16.3021 C   0  0  0  0  0  0  0  0  0  0  0  0
    2.2287    0.8358   16.3591 N   0  0  0  0  0  0  0  0  0  0  0  0
    2.3214    0.0413   17.3636 O   0  0  0  0  0  0  0  0  0  0  0  0
    3.0896    0.2613   18.4011 C   0  0  0  0  0  0  0  0  0  0  0  0
    3.8731    1.4057   18.4745 C   0  0  0  0  0  0  0  0  0  0  0  0
    2.8051    2.8671   15.1465 C   0  0  0  0  0  0  0  0  0  0  0  0
    2.3731    4.1628   15.3281 C   0  0  0  0  0  0  0  0  0  0  0  0
    2.2240    5.0441   14.2633 C   0  0  0  0  0  0  0  0  0  0  0  0
    2.5059    4.6445   12.9828 C   0  0  0  0  0  0  0  0  0  0  0  0
    2.9441    3.3339   12.7880 C   0  0  0  0  0  0  0  0  0  0  0  0
    3.0833    2.4850   13.8509 C   0  0  0  0  0  0  0  0  0  0  0  0
    2.3806    5.4577   11.8948 O   0  0  0  0  0  0  0  0  0  0  0  0
    2.7888    6.7676   11.7122 C   0  0  0  0  0  0  0  0  0  0  0  0
    1.8105    7.5034   10.8938 C   0  0  0  0  0  0  0  0  0  0  0  0
    0.6284    7.0744   10.7464 O   0  0  0  0  0  0  0  0  0  0  0  0
    2.1208    8.6762   10.2531 O   0  0  0  0  0  0  0  0  0  0  0  0
    2.2200    8.7219    9.2488 H   0  0  0  0  0  0  0  0  0  0  0  0
    4.1924    6.9104   11.2613 C   0  0  0  0  0  0  0  0  0  0  0  0
    4.4307    7.2017   10.0655 O   0  0  0  0  0  0  0  0  0  0  0  0
    5.2226    6.7202   12.1681 O   0  0  0  0  0  0  0  0  0  0  0  0
    6.1664    6.9544   11.8941 H   0  0  0  0  0  0  0  0  0  0  0  0
    5.9237    0.3262   20.6643 O   0  0  0  0  0  0  0  0  0  0  0  0
    5.1229    1.2975   20.6547 C   0  0  0  0  0  0  0  0  0  0  0  0
    4.6117    1.7176   21.9722 C   0  0  0  0  0  0  0  0  0  0  0  0
    5.6349    1.9405   23.0146 C   0  0  0  0  0  0  0  0  0  0  0  0
    4.9030    2.8380   24.0198 C   0  0  0  0  0  0  0  0  0  0  0  0
    3.8369    3.5602   23.2641 C   0  0  0  0  0  0  0  0  0  0  0  0
    3.8466    2.9989   21.8740 C   0  0  0  0  0  0  0  0  0  0  0  0
 26 27  2  0  0  0
 27  1  1  0  0  0
  1  2  2  0  0  0
  2  3  1  0  0  0
  3  4  2  0  0  0
  4  5  1  0  0  0
  5 10  1  0  0  0
 10 11  2  0  0  0
 11 12  1  0  0  0
 12 13  2  0  0  0
 13 16  1  0  0  0
 16 17  1  0  0  0
 17 18  1  0  0  0
 18 19  2  0  0  0
 18 20  1  0  0  0
 17 22  1  0  0  0
 22 23  2  0  0  0
 22 24  1  0  0  0
 13 14  1  0  0  0
 14 15  2  0  0  0
  5  6  2  0  0  0
  6  7  1  0  0  0
  7  8  1  0  0  0
  8  9  2  0  0  0
 27 28  1  0  0  0
 28 29  1  0  0  0
 29 30  1  0  0  0
 30 31  1  0  0  0
 31 32  1  0  0  0
  9  1  1  0  0  0
 32 28  1  0  0  0
  9  4  1  0  0  0
 15 10  1  0  0  0
 20 21  1  0  0  0
 24 25  1  0  0  0
M  END
> <minimizedAffinity>
-7.92067

> <CNNscore>
0.6797823906

> <CNNaffinity>
6.1341032982

> <CNN_VS>
4.1698555946

> <CNNaffinity_variance>
0.7085719109

$$$$
[H]OC(=O)C([H])(Oc1c([H])c([H])c(-c2noc([H])c3c(C(=O)C4([H])C([H])([H])C([H])([H])C([H])([H])C4([H])[H])c([H])c([H])c2-3)c([H])c1[H])C(=O)O[H]


 32 35  0  0  0  0  0  0  0  0999 V2000
    4.2477    1.9089   18.9774 C   0  0  0  0  0  0  0  0  0  0  0  0
    4.7924    3.0706   18.4727 C   0  0  0  0  0  0  0  0  0  0  0  0
    4.4529    3.2448   17.1353 C   0  0  0  0  0  0  0  0  0  0  0  0
    3.6710    2.1752   16.7590 C   0  0  0  0  0  0  0  0  0  0  0  0
    3.0371    1.7758   15.6017 C   0  0  0  0  0  0  0  0  0  0  0  0
    2.3259    0.6275   15.5917 N   0  0  0  0  0  0  0  0  0  0  0  0
    2.2249   -0.1067   16.6403 O   0  0  0  0  0  0  0  0  0  0  0  0
    2.7857    0.1783   17.7889 C   0  0  0  0  0  0  0  0  0  0  0  0
    3.5466    1.3301   17.9411 C   0  0  0  0  0  0  0  0  0  0  0  0
    3.1285    2.5887   14.3924 C   0  0  0  0  0  0  0  0  0  0  0  0
    3.7180    3.8325   14.4541 C   0  0  0  0  0  0  0  0  0  0  0  0
    3.8266    4.6509   13.3356 C   0  0  0  0  0  0  0  0  0  0  0  0
    3.3433    4.2391   12.1208 C   0  0  0  0  0  0  0  0  0  0  0  0
    2.7442    2.9807   12.0476 C   0  0  0  0  0  0  0  0  0  0  0  0
    2.6488    2.1933   13.1613 C   0  0  0  0  0  0  0  0  0  0  0  0
    3.4172    4.9922   10.9858 O   0  0  0  0  0  0  0  0  0  0  0  0
    4.5246    5.4367   10.2844 C   0  0  0  0  0  0  0  0  0  0  0  0
    5.4987    4.3459   10.1131 C   0  0  0  0  0  0  0  0  0  0  0  0
    5.3097    3.4297    9.2600 O   0  0  0  0  0  0  0  0  0  0  0  0
    6.6475    4.2614   10.8584 O   0  0  0  0  0  0  0  0  0  0  0  0
    6.7648    3.5583   11.5743 H   0  0  0  0  0  0  0  0  0  0  0  0
    5.1050    6.6983   10.7995 C   0  0  0  0  0  0  0  0  0  0  0  0
    6.3503    6.8395   10.8272 O   0  0  0  0  0  0  0  0  0  0  0  0
    4.2628    7.7050   11.2435 O   0  0  0  0  0  0  0  0  0  0  0  0
    4.6537    8.6109   11.4609 H   0  0  0  0  0  0  0  0  0  0  0  0
    4.2149    0.1209   20.5048 O   0  0  0  0  0  0  0  0  0  0  0  0
    4.3646    1.3570   20.3196 C   0  0  0  0  0  0  0  0  0  0  0  0
    4.6533    2.1539   21.5259 C   0  0  0  0  0  0  0  0  0  0  0  0
    3.7326    1.9499   22.6634 C   0  0  0  0  0  0  0  0  0  0  0  0
    4.5553    2.4488   23.8576 C   0  0  0  0  0  0  0  0  0  0  0  0
    5.9943    2.3046   23.4864 C   0  0  0  0  0  0  0  0  0  0  0  0
    6.0218    1.8624   22.0542 C   0  0  0  0  0  0  0  0  0  0  0  0
 26 27  2  0  0  0
 27  1  1  0  0  0
  1  2  2  0  0  0
  2  3  1  0  0  0
  3  4  2  0  0  0
  4  5  1  0  0  0
  5 10  1  0  0  0
 10 11  2  0  0  0
 11 12  1  0  0  0
 12 13  2  0  0  0
 13 16  1  0  0  0
 16 17  1  0  0  0
 17 18  1  0  0  0
 18 19  2  0  0  0
 18 20  1  0  0  0
 17 22  1  0  0  0
 22 23  2  0  0  0
 22 24  1  0  0  0
 13 14  1  0  0  0
 14 15  2  0  0  0
  5  6  2  0  0  0
  6  7  1  0  0  0
  7  8  1  0  0  0
  8  9  2  0  0  0
 27 28  1  0  0  0
 28 29  1  0  0  0
 29 30  1  0  0  0
 30 31  1  0  0  0
 31 32  1  0  0  0
  9  1  1  0  0  0
 32 28  1  0  0  0
  9  4  1  0  0  0
 15 10  1  0  0  0
 20 21  1  0  0  0
 24 25  1  0  0  0
M  END
> <minimizedAffinity>
-8.16413

> <CNNscore>
0.6705603600

> <CNNaffinity>
5.9845900536

> <CNN_VS>
4.0130290985

> <CNNaffinity_variance>
0.6781636477

$$$$
[H]OC(=O)C([H])(Oc1c([H])c([H])c(-c2noc([H])c3c(C(=O)C4([H])C([H])([H])C([H])([H])C([H])([H])C4([H])[H])c([H])c([H])c2-3)c([H])c1[H])C(=O)O[H]


 32 35  0  0  0  0  0  0  0  0999 V2000
    3.7210    1.6405   19.3174 C   0  0  0  0  0  0  0  0  0  0  0  0
    4.1782    2.9097   19.0331 C   0  0  0  0  0  0  0  0  0  0  0  0
    4.0029    3.2171   17.6880 C   0  0  0  0  0  0  0  0  0  0  0  0
    3.4199    2.1265   17.0818 C   0  0  0  0  0  0  0  0  0  0  0  0
    3.0032    1.8132   15.8054 C   0  0  0  0  0  0  0  0  0  0  0  0
    2.4501    0.6055   15.5607 N   0  0  0  0  0  0  0  0  0  0  0  0
    2.3018   -0.2644   16.4935 O   0  0  0  0  0  0  0  0  0  0  0  0
    2.6622   -0.0708   17.7376 C   0  0  0  0  0  0  0  0  0  0  0  0
    3.2445    1.1275   18.1298 C   0  0  0  0  0  0  0  0  0  0  0  0
    3.1539    2.7804   14.7222 C   0  0  0  0  0  0  0  0  0  0  0  0
    2.7607    2.4374   13.4470 C   0  0  0  0  0  0  0  0  0  0  0  0
    2.8866    3.3165   12.3774 C   0  0  0  0  0  0  0  0  0  0  0  0
    3.4135    4.5684   12.5621 C   0  0  0  0  0  0  0  0  0  0  0  0
    3.8149    4.9257   13.8501 C   0  0  0  0  0  0  0  0  0  0  0  0
    3.6812    4.0441   14.8867 C   0  0  0  0  0  0  0  0  0  0  0  0
    3.5650    5.4780   11.5569 O   0  0  0  0  0  0  0  0  0  0  0  0
    2.6399    5.9601   10.6472 C   0  0  0  0  0  0  0  0  0  0  0  0
    3.0291    5.5972    9.2742 C   0  0  0  0  0  0  0  0  0  0  0  0
    4.2475    5.5431    8.9337 O   0  0  0  0  0  0  0  0  0  0  0  0
    2.1075    5.3036    8.3012 O   0  0  0  0  0  0  0  0  0  0  0  0
    1.9297    5.9336    7.5317 H   0  0  0  0  0  0  0  0  0  0  0  0
    2.2976    7.3899   10.8270 C   0  0  0  0  0  0  0  0  0  0  0  0
    1.0958    7.7281   10.9403 O   0  0  0  0  0  0  0  0  0  0  0  0
    3.3112    8.3337   10.8675 O   0  0  0  0  0  0  0  0  0  0  0  0
    3.0866    9.2834   11.1289 H   0  0  0  0  0  0  0  0  0  0  0  0
    2.6790    0.3607   20.9930 O   0  0  0  0  0  0  0  0  0  0  0  0
    3.7243    0.9360   20.5915 C   0  0  0  0  0  0  0  0  0  0  0  0
    4.8923    0.8369   21.4858 C   0  0  0  0  0  0  0  0  0  0  0  0
    6.1521    0.4025   20.8475 C   0  0  0  0  0  0  0  0  0  0  0  0
    7.2181    0.8997   21.8315 C   0  0  0  0  0  0  0  0  0  0  0  0
    6.6264    2.0559   22.5679 C   0  0  0  0  0  0  0  0  0  0  0  0
    5.1960    2.1521   22.1296 C   0  0  0  0  0  0  0  0  0  0  0  0
 26 27  2  0  0  0
 27  1  1  0  0  0
  1  2  2  0  0  0
  2  3  1  0  0  0
  3  4  2  0  0  0
  4  5  1  0  0  0
  5 10  1  0  0  0
 10 11  2  0  0  0
 11 12  1  0  0  0
 12 13  2  0  0  0
 13 16  1  0  0  0
 16 17  1  0  0  0
 17 18  1  0  0  0
 18 19  2  0  0  0
 18 20  1  0  0  0
 17 22  1  0  0  0
 22 23  2  0  0  0
 22 24  1  0  0  0
 13 14  1  0  0  0
 14 15  2  0  0  0
  5  6  2  0  0  0
  6  7  1  0  0  0
  7  8  1  0  0  0
  8  9  2  0  0  0
 27 28  1  0  0  0
 28 29  1  0  0  0
 29 30  1  0  0  0
 30 31  1  0  0  0
 31 32  1  0  0  0
  9  1  1  0  0  0
 32 28  1  0  0  0
  9  4  1  0  0  0
 15 10  1  0  0  0
 20 21  1  0  0  0
 24 25  1  0  0  0
M  END
> <minimizedAffinity>
-7.27483

> <CNNscore>
0.4747071564

> <CNNaffinity>
5.8276567459

> <CNN_VS>
2.7664303780

> <CNNaffinity_variance>
0.8110749125

$$$$
[H]OC(=O)C([H])(Oc1c([H])c([H])c(-c2noc([H])c3c(C(=O)C4([H])C([H])([H])C([H])([H])C([H])([H])C4([H])[H])c([H])c([H])c2-3)c([H])c1[H])C(=O)O[H]


 32 35  0  0  0  0  0  0  0  0999 V2000
    2.9883    3.0878   14.1118 C   0  0  0  0  0  0  0  0  0  0  0  0
    3.4533    4.3520   14.4059 C   0  0  0  0  0  0  0  0  0  0  0  0
    3.7691    4.4696   15.7552 C   0  0  0  0  0  0  0  0  0  0  0  0
    3.5047    3.2580   16.3544 C   0  0  0  0  0  0  0  0  0  0  0  0
    3.6059    2.7458   17.6304 C   0  0  0  0  0  0  0  0  0  0  0  0
    3.2476    1.4651   17.8665 N   0  0  0  0  0  0  0  0  0  0  0  0
    2.8116    0.7074   16.9259 O   0  0  0  0  0  0  0  0  0  0  0  0
    2.6759    1.0918   15.6814 C   0  0  0  0  0  0  0  0  0  0  0  0
    3.0077    2.3846   15.2974 C   0  0  0  0  0  0  0  0  0  0  0  0
    4.1009    3.5789   18.7224 C   0  0  0  0  0  0  0  0  0  0  0  0
    3.5769    4.8400   18.9048 C   0  0  0  0  0  0  0  0  0  0  0  0
    4.0150    5.6777   19.9241 C   0  0  0  0  0  0  0  0  0  0  0  0
    4.9952    5.2683   20.7902 C   0  0  0  0  0  0  0  0  0  0  0  0
    5.5327    3.9925   20.6141 C   0  0  0  0  0  0  0  0  0  0  0  0
    5.0859    3.1861   19.6042 C   0  0  0  0  0  0  0  0  0  0  0  0
    5.4702    6.0399   21.8100 O   0  0  0  0  0  0  0  0  0  0  0  0
    6.4076    7.0581   21.7921 C   0  0  0  0  0  0  0  0  0  0  0  0
    7.4824    6.7868   22.7614 C   0  0  0  0  0  0  0  0  0  0  0  0
    8.3429    5.8833   22.5462 O   0  0  0  0  0  0  0  0  0  0  0  0
    7.6087    7.4859   23.9351 O   0  0  0  0  0  0  0  0  0  0  0  0
    7.4017    7.0633   24.8291 H   0  0  0  0  0  0  0  0  0  0  0  0
    5.8299    8.4188   21.8861 C   0  0  0  0  0  0  0  0  0  0  0  0
    6.5773    9.4174   21.7605 O   0  0  0  0  0  0  0  0  0  0  0  0
    4.4710    8.5685   22.1115 O   0  0  0  0  0  0  0  0  0  0  0  0
    4.0599    9.4883   22.0355 H   0  0  0  0  0  0  0  0  0  0  0  0
    3.2928    1.7715   12.1868 O   0  0  0  0  0  0  0  0  0  0  0  0
    2.5473    2.5555   12.8304 C   0  0  0  0  0  0  0  0  0  0  0  0
    1.2529    2.8700   12.1986 C   0  0  0  0  0  0  0  0  0  0  0  0
    0.7388    4.2345   12.4371 C   0  0  0  0  0  0  0  0  0  0  0  0
   -0.2562    4.4266   11.2861 C   0  0  0  0  0  0  0  0  0  0  0  0
    0.1795    3.5256   10.1781 C   0  0  0  0  0  0  0  0  0  0  0  0
    1.3230    2.7167   10.7125 C   0  0  0  0  0  0  0  0  0  0  0  0
 26 27  2  0  0  0
 27  1  1  0  0  0
  1  2  2  0  0  0
  2  3  1  0  0  0
  3  4  2  0  0  0
  4  5  1  0  0  0
  5 10  1  0  0  0
 10 11  2  0  0  0
 11 12  1  0  0  0
 12 13  2  0  0  0
 13 16  1  0  0  0
 16 17  1  0  0  0
 17 18  1  0  0  0
 18 19  2  0  0  0
 18 20  1  0  0  0
 17 22  1  0  0  0
 22 23  2  0  0  0
 22 24  1  0  0  0
 13 14  1  0  0  0
 14 15  2  0  0  0
  5  6  2  0  0  0
  6  7  1  0  0  0
  7  8  1  0  0  0
  8  9  2  0  0  0
 27 28  1  0  0  0
 28 29  1  0  0  0
 29 30  1  0  0  0
 30 31  1  0  0  0
 31 32  1  0  0  0
  9  1  1  0  0  0
 32 28  1  0  0  0
  9  4  1  0  0  0
 15 10  1  0  0  0
 20 21  1  0  0  0
 24 25  1  0  0  0
M  END
> <minimizedAffinity>
-7.49825

> <CNNscore>
0.3746517599

> <CNNaffinity>
5.7617440224

> <CNN_VS>
2.1586475372

> <CNNaffinity_variance>
0.7081269026

$$$$
[H]OC(=O)C([H])(Oc1c([H])c([H])c(-c2noc([H])c3c(C(=O)C4([H])C([H])([H])C([H])([H])C([H])([H])C4([H])[H])c([H])c([H])c2-3)c([H])c1[H])C(=O)O[H]


 32 35  0  0  0  0  0  0  0  0999 V2000
    4.8518    5.0417   19.6905 C   0  0  0  0  0  0  0  0  0  0  0  0
    4.2495    5.9467   18.8425 C   0  0  0  0  0  0  0  0  0  0  0  0
    3.6911    5.3075   17.7407 C   0  0  0  0  0  0  0  0  0  0  0  0
    3.9338    3.9582   17.8718 C   0  0  0  0  0  0  0  0  0  0  0  0
    3.6455    2.8282   17.1363 C   0  0  0  0  0  0  0  0  0  0  0  0
    4.0501    1.6193   17.5827 N   0  0  0  0  0  0  0  0  0  0  0  0
    4.7013    1.4952   18.6824 O   0  0  0  0  0  0  0  0  0  0  0  0
    5.0273    2.5002   19.4563 C   0  0  0  0  0  0  0  0  0  0  0  0
    4.6742    3.8002   19.1183 C   0  0  0  0  0  0  0  0  0  0  0  0
    2.9039    2.9332   15.8831 C   0  0  0  0  0  0  0  0  0  0  0  0
    2.6557    4.1766   15.3438 C   0  0  0  0  0  0  0  0  0  0  0  0
    1.9498    4.3354   14.1568 C   0  0  0  0  0  0  0  0  0  0  0  0
    1.4726    3.2444   13.4780 C   0  0  0  0  0  0  0  0  0  0  0  0
    1.7186    1.9803   14.0158 C   0  0  0  0  0  0  0  0  0  0  0  0
    2.4154    1.8487   15.1849 C   0  0  0  0  0  0  0  0  0  0  0  0
    0.7731    3.3302   12.3100 O   0  0  0  0  0  0  0  0  0  0  0  0
    1.2215    3.3000   11.0009 C   0  0  0  0  0  0  0  0  0  0  0  0
    0.6935    2.1163   10.3020 C   0  0  0  0  0  0  0  0  0  0  0  0
    0.4848    2.1344    9.0533 O   0  0  0  0  0  0  0  0  0  0  0  0
    0.4006    0.9458   10.9550 O   0  0  0  0  0  0  0  0  0  0  0  0
   -0.5524    0.6439   11.1009 H   0  0  0  0  0  0  0  0  0  0  0  0
    2.6824    3.4948   10.8534 C   0  0  0  0  0  0  0  0  0  0  0  0
    3.4371    2.4952   10.8027 O   0  0  0  0  0  0  0  0  0  0  0  0
    3.1942    4.7799   10.7733 O   0  0  0  0  0  0  0  0  0  0  0  0
    4.1675    4.9059   10.5333 H   0  0  0  0  0  0  0  0  0  0  0  0
    6.6730    5.8661   20.9293 O   0  0  0  0  0  0  0  0  0  0  0  0
    5.5519    5.2938   20.9420 C   0  0  0  0  0  0  0  0  0  0  0  0
    5.0398    4.9202   22.2731 C   0  0  0  0  0  0  0  0  0  0  0  0
    3.5689    4.8583   22.3988 C   0  0  0  0  0  0  0  0  0  0  0  0
    3.3726    3.9698   23.6334 C   0  0  0  0  0  0  0  0  0  0  0  0
    4.5865    3.1081   23.7479 C   0  0  0  0  0  0  0  0  0  0  0  0
    5.5397    3.5733   22.6884 C   0  0  0  0  0  0  0  0  0  0  0  0
 26 27  2  0  0  0
 27  1  1  0  0  0
  1  2  2  0  0  0
  2  3  1  0  0  0
  3  4  2  0  0  0
  4  5  1  0  0  0
  5 10  1  0  0  0
 10 11  2  0  0  0
 11 12  1  0  0  0
 12 13  2  0  0  0
 13 16  1  0  0  0
 16 17  1  0  0  0
 17 18  1  0  0  0
 18 19  2  0  0  0
 18 20  1  0  0  0
 17 22  1  0  0  0
 22 23  2  0  0  0
 22 24  1  0  0  0
 13 14  1  0  0  0
 14 15  2  0  0  0
  5  6  2  0  0  0
  6  7  1  0  0  0
  7  8  1  0  0  0
  8  9  2  0  0  0
 27 28  1  0  0  0
 28 29  1  0  0  0
 29 30  1  0  0  0
 30 31  1  0  0  0
 31 32  1  0  0  0
  9  1  1  0  0  0
 32 28  1  0  0  0
  9  4  1  0  0  0
 15 10  1  0  0  0
 20 21  1  0  0  0
 24 25  1  0  0  0
M  END
> <minimizedAffinity>
-7.36234

> <CNNscore>
0.3551399708

> <CNNaffinity>
5.5540094376

> <CNN_VS>
1.9724507332

> <CNNaffinity_variance>
0.4407329559

$$$$
[H]c1c(OC([H])([H])[H])c([H])c2c3nnc(SC([H])([H])[H])nc3n(C([H])([H])[H])c2c1[H]


 18 20  0  0  0  0  0  0  0  0999 V2000
    6.2264    3.7489   21.9953 C   0  0  0  0  0  0  0  0  0  0  0  0
    5.7314    2.7037   22.7456 C   0  0  0  0  0  0  0  0  0  0  0  0
    4.9145    1.7559   22.1262 C   0  0  0  0  0  0  0  0  0  0  0  0
    4.5890    1.8386   20.7792 C   0  0  0  0  0  0  0  0  0  0  0  0
    5.0921    2.8884   20.0458 C   0  0  0  0  0  0  0  0  0  0  0  0
    5.9093    3.8395   20.6582 C   0  0  0  0  0  0  0  0  0  0  0  0
    4.6363    2.7548   18.7536 C   0  0  0  0  0  0  0  0  0  0  0  0
    4.8370    3.5077   17.6608 N   0  0  0  0  0  0  0  0  0  0  0  0
    4.2748    3.1530   16.5179 N   0  0  0  0  0  0  0  0  0  0  0  0
    3.5220    2.0507   16.4927 C   0  0  0  0  0  0  0  0  0  0  0  0
    3.2992    1.2742   17.5647 N   0  0  0  0  0  0  0  0  0  0  0  0
    3.8594    1.6064   18.7533 C   0  0  0  0  0  0  0  0  0  0  0  0
    3.8301    1.0517   19.9773 N   0  0  0  0  0  0  0  0  0  0  0  0
    3.1132   -0.1688   20.3643 C   0  0  0  0  0  0  0  0  0  0  0  0
    7.0057    6.0777   22.2377 C   0  0  0  0  0  0  0  0  0  0  0  0
    7.0398    4.7183   22.5502 O   0  0  0  0  0  0  0  0  0  0  0  0
    2.7748    1.5999   14.9294 S   0  0  0  0  0  0  0  0  0  0  0  0
    2.9703    2.9839   13.7590 C   0  0  0  0  0  0  0  0  0  0  0  0
 15 16  1  0  0  0
 16  1  1  0  0  0
  1  2  2  0  0  0
  2  3  1  0  0  0
  3  4  2  0  0  0
  4  5  1  0  0  0
  5  6  2  0  0  0
  5  7  1  0  0  0
  7  8  2  0  0  0
  8  9  1  0  0  0
  9 10  2  0  0  0
 10 17  1  0  0  0
 17 18  1  0  0  0
 10 11  1  0  0  0
 11 12  2  0  0  0
 12 13  1  0  0  0
 13 14  1  0  0  0
  6  1  1  0  0  0
 12  7  1  0  0  0
 13  4  1  0  0  0
M  END
> <minimizedAffinity>
-6.08385

> <CNNscore>
0.6327106953

> <CNNaffinity>
5.3825349808

> <CNN_VS>
3.4055874348

> <CNNaffinity_variance>
0.2189357728

$$$$
[H]c1c(OC([H])([H])[H])c([H])c2c3nnc(SC([H])([H])[H])nc3n(C([H])([H])[H])c2c1[H]


 18 20  0  0  0  0  0  0  0  0999 V2000
    3.0882    2.3744   14.9608 C   0  0  0  0  0  0  0  0  0  0  0  0
    3.5990    3.6157   14.6465 C   0  0  0  0  0  0  0  0  0  0  0  0
    4.3121    4.3182   15.6197 C   0  0  0  0  0  0  0  0  0  0  0  0
    4.5194    3.8008   16.8912 C   0  0  0  0  0  0  0  0  0  0  0  0
    4.0025    2.5606   17.1873 C   0  0  0  0  0  0  0  0  0  0  0  0
    3.2887    1.8526   16.2194 C   0  0  0  0  0  0  0  0  0  0  0  0
    4.3350    2.2670   18.4905 C   0  0  0  0  0  0  0  0  0  0  0  0
    4.0736    1.1927   19.2514 N   0  0  0  0  0  0  0  0  0  0  0  0
    4.5163    1.1580   20.4967 N   0  0  0  0  0  0  0  0  0  0  0  0
    5.2120    2.2010   20.9554 C   0  0  0  0  0  0  0  0  0  0  0  0
    5.4922    3.2912   20.2242 N   0  0  0  0  0  0  0  0  0  0  0  0
    5.0549    3.3620   18.9433 C   0  0  0  0  0  0  0  0  0  0  0  0
    5.1670    4.2899   17.9772 N   0  0  0  0  0  0  0  0  0  0  0  0
    5.8572    5.5805   18.0839 C   0  0  0  0  0  0  0  0  0  0  0  0
    1.2297    2.0593   13.3683 C   0  0  0  0  0  0  0  0  0  0  0  0
    2.3740    1.6301   14.0414 O   0  0  0  0  0  0  0  0  0  0  0  0
    5.7954    2.1217   22.6462 S   0  0  0  0  0  0  0  0  0  0  0  0
    4.5418    2.8663   23.7404 C   0  0  0  0  0  0  0  0  0  0  0  0
 15 16  1  0  0  0
 16  1  1  0  0  0
  1  2  2  0  0  0
  2  3  1  0  0  0
  3  4  2  0  0  0
  4  5  1  0  0  0
  5  6  2  0  0  0
  5  7  1  0  0  0
  7  8  2  0  0  0
  8  9  1  0  0  0
  9 10  2  0  0  0
 10 17  1  0  0  0
 17 18  1  0  0  0
 10 11  1  0  0  0
 11 12  2  0  0  0
 12 13  1  0  0  0
 13 14  1  0  0  0
  6  1  1  0  0  0
 12  7  1  0  0  0
 13  4  1  0  0  0
M  END
> <minimizedAffinity>
-6.29176

> <CNNscore>
0.6182124019

> <CNNaffinity>
5.2908015251

> <CNN_VS>
3.2708392143

> <CNNaffinity_variance>
0.2645568252

$$$$
[H]c1c(OC([H])([H])[H])c([H])c2c3nnc(SC([H])([H])[H])nc3n(C([H])([H])[H])c2c1[H]


 18 20  0  0  0  0  0  0  0  0999 V2000
    4.4901    1.3993   20.2466 C   0  0  0  0  0  0  0  0  0  0  0  0
    5.1137    2.5680   20.6284 C   0  0  0  0  0  0  0  0  0  0  0  0
    5.2705    3.5877   19.6877 C   0  0  0  0  0  0  0  0  0  0  0  0
    4.8163    3.4556   18.3825 C   0  0  0  0  0  0  0  0  0  0  0  0
    4.1963    2.2823   18.0190 C   0  0  0  0  0  0  0  0  0  0  0  0
    4.0360    1.2588   18.9540 C   0  0  0  0  0  0  0  0  0  0  0  0
    3.8391    2.3889   16.6938 C   0  0  0  0  0  0  0  0  0  0  0  0
    3.2159    1.5300   15.8720 N   0  0  0  0  0  0  0  0  0  0  0  0
    2.9869    1.8833   14.6188 N   0  0  0  0  0  0  0  0  0  0  0  0
    3.3875    3.0905   14.2133 C   0  0  0  0  0  0  0  0  0  0  0  0
    4.0132    3.9747   15.0060 N   0  0  0  0  0  0  0  0  0  0  0  0
    4.2646    3.6474   16.2970 C   0  0  0  0  0  0  0  0  0  0  0  0
    4.8555    4.2932   17.3172 N   0  0  0  0  0  0  0  0  0  0  0  0
    5.4302    5.6428   17.2786 C   0  0  0  0  0  0  0  0  0  0  0  0
    3.2318   -0.5378   21.1147 C   0  0  0  0  0  0  0  0  0  0  0  0
    4.3048    0.3539   21.1309 O   0  0  0  0  0  0  0  0  0  0  0  0
    3.0627    3.5363   12.5100 S   0  0  0  0  0  0  0  0  0  0  0  0
    2.4010    2.0815   11.6332 C   0  0  0  0  0  0  0  0  0  0  0  0
 15 16  1  0  0  0
 16  1  1  0  0  0
  1  2  2  0  0  0
  2  3  1  0  0  0
  3  4  2  0  0  0
  4  5  1  0  0  0
  5  6  2  0  0  0
  5  7  1  0  0  0
  7  8  2  0  0  0
  8  9  1  0  0  0
  9 10  2  0  0  0
 10 17  1  0  0  0
 17 18  1  0  0  0
 10 11  1  0  0  0
 11 12  2  0  0  0
 12 13  1  0  0  0
 13 14  1  0  0  0
  6  1  1  0  0  0
 12  7  1  0  0  0
 13  4  1  0  0  0
M  END
> <minimizedAffinity>
-6.08042

> <CNNscore>
0.5519504547

> <CNNaffinity>
5.0557985306

> <CNN_VS>
2.7905502319

> <CNNaffinity_variance>
0.2294919789

$$$$
[H]c1c(OC([H])([H])[H])c([H])c2c3nnc(SC([H])([H])[H])nc3n(C([H])([H])[H])c2c1[H]


 18 20  0  0  0  0  0  0  0  0999 V2000
    5.0907    2.1398   21.6599 C   0  0  0  0  0  0  0  0  0  0  0  0
    4.4369    0.9260   21.6603 C   0  0  0  0  0  0  0  0  0  0  0  0
    3.8435    0.4788   20.4783 C   0  0  0  0  0  0  0  0  0  0  0  0
    3.8947    1.2221   19.3069 C   0  0  0  0  0  0  0  0  0  0  0  0
    4.5514    2.4310   19.3249 C   0  0  0  0  0  0  0  0  0  0  0  0
    5.1470    2.8844   20.5028 C   0  0  0  0  0  0  0  0  0  0  0  0
    4.4677    2.9735   18.0624 C   0  0  0  0  0  0  0  0  0  0  0  0
    4.9389    4.1253   17.5597 N   0  0  0  0  0  0  0  0  0  0  0  0
    4.7178    4.4157   16.2890 N   0  0  0  0  0  0  0  0  0  0  0  0
    4.0284    3.5461   15.5468 C   0  0  0  0  0  0  0  0  0  0  0  0
    3.5422    2.3859   16.0150 N   0  0  0  0  0  0  0  0  0  0  0  0
    3.7495    2.0545   17.3128 C   0  0  0  0  0  0  0  0  0  0  0  0
    3.4026    0.9952   18.0641 N   0  0  0  0  0  0  0  0  0  0  0  0
    2.6386   -0.1761   17.6196 C   0  0  0  0  0  0  0  0  0  0  0  0
    5.4305    2.2226   24.1027 C   0  0  0  0  0  0  0  0  0  0  0  0
    5.6978    2.6367   22.7973 O   0  0  0  0  0  0  0  0  0  0  0  0
    3.7462    3.9711   13.8307 S   0  0  0  0  0  0  0  0  0  0  0  0
    2.6660    2.7098   13.0785 C   0  0  0  0  0  0  0  0  0  0  0  0
 15 16  1  0  0  0
 16  1  1  0  0  0
  1  2  2  0  0  0
  2  3  1  0  0  0
  3  4  2  0  0  0
  4  5  1  0  0  0
  5  6  2  0  0  0
  5  7  1  0  0  0
  7  8  2  0  0  0
  8  9  1  0  0  0
  9 10  2  0  0  0
 10 17  1  0  0  0
 17 18  1  0  0  0
 10 11  1  0  0  0
 11 12  2  0  0  0
 12 13  1  0  0  0
 13 14  1  0  0  0
  6  1  1  0  0  0
 12  7  1  0  0  0
 13  4  1  0  0  0
M  END
> <minimizedAffinity>
-6.33277

> <CNNscore>
0.4772804677

> <CNNaffinity>
5.2607927322

> <CNN_VS>
2.5108735561

> <CNNaffinity_variance>
0.1684022844

$$$$
[H]c1c(OC([H])([H])[H])c([H])c2c3nnc(SC([H])([H])[H])nc3n(C([H])([H])[H])c2c1[H]


 18 20  0  0  0  0  0  0  0  0999 V2000
    3.0634    0.2177   19.4494 C   0  0  0  0  0  0  0  0  0  0  0  0
    2.9293   -0.2223   20.7491 C   0  0  0  0  0  0  0  0  0  0  0  0
    3.4405    0.5635   21.7837 C   0  0  0  0  0  0  0  0  0  0  0  0
    4.0779    1.7721   21.5384 C   0  0  0  0  0  0  0  0  0  0  0  0
    4.2026    2.1957   20.2353 C   0  0  0  0  0  0  0  0  0  0  0  0
    3.6941    1.4154   19.1960 C   0  0  0  0  0  0  0  0  0  0  0  0
    4.8607    3.4048   20.2476 C   0  0  0  0  0  0  0  0  0  0  0  0
    5.2257    4.2254   19.2502 N   0  0  0  0  0  0  0  0  0  0  0  0
    5.8591    5.3501   19.5360 N   0  0  0  0  0  0  0  0  0  0  0  0
    6.1148    5.6304   20.8160 C   0  0  0  0  0  0  0  0  0  0  0  0
    5.7654    4.8343   21.8387 N   0  0  0  0  0  0  0  0  0  0  0  0
    5.1144    3.6732   21.5840 C   0  0  0  0  0  0  0  0  0  0  0  0
    4.6416    2.6868   22.3653 N   0  0  0  0  0  0  0  0  0  0  0  0
    4.7236    2.6188   23.8288 C   0  0  0  0  0  0  0  0  0  0  0  0
    2.6224   -0.1193   17.0450 C   0  0  0  0  0  0  0  0  0  0  0  0
    2.5787   -0.5144   18.3824 O   0  0  0  0  0  0  0  0  0  0  0  0
    6.9750    7.1607   21.1674 S   0  0  0  0  0  0  0  0  0  0  0  0
    7.2448    7.2885   22.9658 C   0  0  0  0  0  0  0  0  0  0  0  0
 15 16  1  0  0  0
 16  1  1  0  0  0
  1  2  2  0  0  0
  2  3  1  0  0  0
  3  4  2  0  0  0
  4  5  1  0  0  0
  5  6  2  0  0  0
  5  7  1  0  0  0
  7  8  2  0  0  0
  8  9  1  0  0  0
  9 10  2  0  0  0
 10 17  1  0  0  0
 17 18  1  0  0  0
 10 11  1  0  0  0
 11 12  2  0  0  0
 12 13  1  0  0  0
 13 14  1  0  0  0
  6  1  1  0  0  0
 12  7  1  0  0  0
 13  4  1  0  0  0
M  END
> <minimizedAffinity>
-6.81323

> <CNNscore>
0.4592124820

> <CNNaffinity>
5.1056470871

> <CNN_VS>
2.3445768356

> <CNNaffinity_variance>
0.5119131207

$$$$
[H]c1c(OC([H])([H])[H])c([H])c2c3nnc(SC([H])([H])[H])nc3n(C([H])([H])[H])c2c1[H]


 18 20  0  0  0  0  0  0  0  0999 V2000
    2.9246    0.8621   16.8221 C   0  0  0  0  0  0  0  0  0  0  0  0
    2.5135    1.1698   15.5427 C   0  0  0  0  0  0  0  0  0  0  0  0
    2.8305    2.4230   15.0151 C   0  0  0  0  0  0  0  0  0  0  0  0
    3.5464    3.3637   15.7430 C   0  0  0  0  0  0  0  0  0  0  0  0
    3.9486    3.0394   17.0182 C   0  0  0  0  0  0  0  0  0  0  0  0
    3.6353    1.7886   17.5520 C   0  0  0  0  0  0  0  0  0  0  0  0
    4.6330    4.1186   17.5301 C   0  0  0  0  0  0  0  0  0  0  0  0
    5.2226    4.3105   18.7206 N   0  0  0  0  0  0  0  0  0  0  0  0
    5.8256    5.4612   18.9664 N   0  0  0  0  0  0  0  0  0  0  0  0
    5.8256    6.3972   18.0146 C   0  0  0  0  0  0  0  0  0  0  0  0
    5.2467    6.2408   16.8137 N   0  0  0  0  0  0  0  0  0  0  0  0
    4.6193    5.0744   16.5258 C   0  0  0  0  0  0  0  0  0  0  0  0
    3.9627    4.6191   15.4449 N   0  0  0  0  0  0  0  0  0  0  0  0
    3.7420    5.3453   14.1891 C   0  0  0  0  0  0  0  0  0  0  0  0
    2.4236   -0.5806   18.7604 C   0  0  0  0  0  0  0  0  0  0  0  0
    2.6421   -0.3608   17.4000 O   0  0  0  0  0  0  0  0  0  0  0  0
    6.6501    7.9436   18.3811 S   0  0  0  0  0  0  0  0  0  0  0  0
    5.3933    9.2427   18.6185 C   0  0  0  0  0  0  0  0  0  0  0  0
 15 16  1  0  0  0
 16  1  1  0  0  0
  1  2  2  0  0  0
  2  3  1  0  0  0
  3  4  2  0  0  0
  4  5  1  0  0  0
  5  6  2  0  0  0
  5  7  1  0  0  0
  7  8  2  0  0  0
  8  9  1  0  0  0
  9 10  2  0  0  0
 10 17  1  0  0  0
 17 18  1  0  0  0
 10 11  1  0  0  0
 11 12  2  0  0  0
 12 13  1  0  0  0
 13 14  1  0  0  0
  6  1  1  0  0  0
 12  7  1  0  0  0
 13  4  1  0  0  0
M  END
> <minimizedAffinity>
-5.55253

> <CNNscore>
0.4534904659

> <CNNaffinity>
4.8615875244

> <CNN_VS>
2.2046835423

> <CNNaffinity_variance>
0.2651445568

$$$$
[H]c1c(OC([H])([H])[H])c([H])c2c3nnc(SC([H])([H])[H])nc3n(C([H])([H])[H])c2c1[H]


 18 20  0  0  0  0  0  0  0  0999 V2000
    4.3949    3.2735   23.0198 C   0  0  0  0  0  0  0  0  0  0  0  0
    4.2993    4.6462   23.1031 C   0  0  0  0  0  0  0  0  0  0  0  0
    4.1121    5.3820   21.9315 C   0  0  0  0  0  0  0  0  0  0  0  0
    4.0200    4.7692   20.6892 C   0  0  0  0  0  0  0  0  0  0  0  0
    4.1175    3.3982   20.6249 C   0  0  0  0  0  0  0  0  0  0  0  0
    4.3046    2.6563   21.7920 C   0  0  0  0  0  0  0  0  0  0  0  0
    3.9975    3.0300   19.3039 C   0  0  0  0  0  0  0  0  0  0  0  0
    4.0232    1.8246   18.7141 N   0  0  0  0  0  0  0  0  0  0  0  0
    3.8816    1.7426   17.4021 N   0  0  0  0  0  0  0  0  0  0  0  0
    3.7173    2.8703   16.7068 C   0  0  0  0  0  0  0  0  0  0  0  0
    3.6867    4.0919   17.2621 N   0  0  0  0  0  0  0  0  0  0  0  0
    3.8284    4.2150   18.6044 C   0  0  0  0  0  0  0  0  0  0  0  0
    3.8418    5.2671   19.4408 N   0  0  0  0  0  0  0  0  0  0  0  0
    3.6927    6.6787   19.0686 C   0  0  0  0  0  0  0  0  0  0  0  0
    5.7925    1.9293   24.5460 C   0  0  0  0  0  0  0  0  0  0  0  0
    4.5802    2.4900   24.1428 O   0  0  0  0  0  0  0  0  0  0  0  0
    3.5297    2.7232   14.9324 S   0  0  0  0  0  0  0  0  0  0  0  0
    2.6072    4.1683   14.3128 C   0  0  0  0  0  0  0  0  0  0  0  0
 15 16  1  0  0  0
 16  1  1  0  0  0
  1  2  2  0  0  0
  2  3  1  0  0  0
  3  4  2  0  0  0
  4  5  1  0  0  0
  5  6  2  0  0  0
  5  7  1  0  0  0
  7  8  2  0  0  0
  8  9  1  0  0  0
  9 10  2  0  0  0
 10 17  1  0  0  0
 17 18  1  0  0  0
 10 11  1  0  0  0
 11 12  2  0  0  0
 12 13  1  0  0  0
 13 14  1  0  0  0
  6  1  1  0  0  0
 12  7  1  0  0  0
 13  4  1  0  0  0
M  END
> <minimizedAffinity>
-6.47414

> <CNNscore>
0.4235449433

> <CNNaffinity>
4.9244933128

> <CNN_VS>
2.0857441425

> <CNNaffinity_variance>
0.2083347142

$$$$
[H]c1c(OC([H])([H])[H])c([H])c2c3nnc(SC([H])([H])[H])nc3n(C([H])([H])[H])c2c1[H]


 18 20  0  0  0  0  0  0  0  0999 V2000
    3.3353    0.6143   18.9961 C   0  0  0  0  0  0  0  0  0  0  0  0
    2.9367    0.4119   17.6919 C   0  0  0  0  0  0  0  0  0  0  0  0
    3.2139    1.3959   16.7411 C   0  0  0  0  0  0  0  0  0  0  0  0
    3.8781    2.5687   17.0738 C   0  0  0  0  0  0  0  0  0  0  0  0
    4.2685    2.7538   18.3801 C   0  0  0  0  0  0  0  0  0  0  0  0
    3.9949    1.7745   19.3359 C   0  0  0  0  0  0  0  0  0  0  0  0
    4.8999    3.9745   18.4609 C   0  0  0  0  0  0  0  0  0  0  0  0
    5.4587    4.6162   19.4990 N   0  0  0  0  0  0  0  0  0  0  0  0
    6.0110    5.8018   19.3059 N   0  0  0  0  0  0  0  0  0  0  0  0
    5.9921    6.3214   18.0763 C   0  0  0  0  0  0  0  0  0  0  0  0
    5.4427    5.7093   17.0155 N   0  0  0  0  0  0  0  0  0  0  0  0
    4.8675    4.4925   17.1753 C   0  0  0  0  0  0  0  0  0  0  0  0
    4.2500    3.6435   16.3358 N   0  0  0  0  0  0  0  0  0  0  0  0
    4.0247    3.8468   14.9002 C   0  0  0  0  0  0  0  0  0  0  0  0
    3.2861   -0.1245   21.3500 C   0  0  0  0  0  0  0  0  0  0  0  0
    3.0905   -0.3216   19.9827 O   0  0  0  0  0  0  0  0  0  0  0  0
    6.7476    7.9288   17.8504 S   0  0  0  0  0  0  0  0  0  0  0  0
    7.1432    8.6320   19.4851 C   0  0  0  0  0  0  0  0  0  0  0  0
 15 16  1  0  0  0
 16  1  1  0  0  0
  1  2  2  0  0  0
  2  3  1  0  0  0
  3  4  2  0  0  0
  4  5  1  0  0  0
  5  6  2  0  0  0
  5  7  1  0  0  0
  7  8  2  0  0  0
  8  9  1  0  0  0
  9 10  2  0  0  0
 10 17  1  0  0  0
 17 18  1  0  0  0
 10 11  1  0  0  0
 11 12  2  0  0  0
 12 13  1  0  0  0
 13 14  1  0  0  0
  6  1  1  0  0  0
 12  7  1  0  0  0
 13  4  1  0  0  0
M  END
> <minimizedAffinity>
-5.66863

> <CNNscore>
0.4132836759

> <CNNaffinity>
5.1681852341

> <CNN_VS>
2.1359264851

> <CNNaffinity_variance>
0.2352489978

$$$$
[H]c1c(OC([H])([H])[H])c([H])c2c3nnc(SC([H])([H])[H])nc3n(C([H])([H])[H])c2c1[H]


 18 20  0  0  0  0  0  0  0  0999 V2000
    3.6012    3.1916   14.4827 C   0  0  0  0  0  0  0  0  0  0  0  0
    2.8628    2.0305   14.3979 C   0  0  0  0  0  0  0  0  0  0  0  0
    2.7191    1.2374   15.5379 C   0  0  0  0  0  0  0  0  0  0  0  0
    3.2985    1.5865   16.7502 C   0  0  0  0  0  0  0  0  0  0  0  0
    4.0320    2.7487   16.8165 C   0  0  0  0  0  0  0  0  0  0  0  0
    4.1798    3.5465   15.6810 C   0  0  0  0  0  0  0  0  0  0  0  0
    4.4988    2.8781   18.1051 C   0  0  0  0  0  0  0  0  0  0  0  0
    5.2539    3.8252   18.6833 N   0  0  0  0  0  0  0  0  0  0  0  0
    5.5679    3.7115   19.9625 N   0  0  0  0  0  0  0  0  0  0  0  0
    5.1193    2.6506   20.6373 C   0  0  0  0  0  0  0  0  0  0  0  0
    4.3630    1.6846   20.0927 N   0  0  0  0  0  0  0  0  0  0  0  0
    4.0210    1.7676   18.7839 C   0  0  0  0  0  0  0  0  0  0  0  0
    3.2952    0.9861   17.9657 N   0  0  0  0  0  0  0  0  0  0  0  0
    2.6311   -0.2723   18.3247 C   0  0  0  0  0  0  0  0  0  0  0  0
    2.7571    4.5667   12.6157 C   0  0  0  0  0  0  0  0  0  0  0  0
    3.7800    4.0187   13.3904 O   0  0  0  0  0  0  0  0  0  0  0  0
    5.5639    2.5273   22.3672 S   0  0  0  0  0  0  0  0  0  0  0  0
    4.1864    1.7563   23.2790 C   0  0  0  0  0  0  0  0  0  0  0  0
 15 16  1  0  0  0
 16  1  1  0  0  0
  1  2  2  0  0  0
  2  3  1  0  0  0
  3  4  2  0  0  0
  4  5  1  0  0  0
  5  6  2  0  0  0
  5  7  1  0  0  0
  7  8  2  0  0  0
  8  9  1  0  0  0
  9 10  2  0  0  0
 10 17  1  0  0  0
 17 18  1  0  0  0
 10 11  1  0  0  0
 11 12  2  0  0  0
 12 13  1  0  0  0
 13 14  1  0  0  0
  6  1  1  0  0  0
 12  7  1  0  0  0
 13  4  1  0  0  0
M  END
> <minimizedAffinity>
-6.44420

> <CNNscore>
0.4090360403

> <CNNaffinity>
5.0669927597

> <CNN_VS>
2.0725827217

> <CNNaffinity_variance>
0.2870028019

$$$$
[H]OC1(c2c([H])c([H])c(C([H])([H])C([H])([H])C([H])([H])[H])c([H])c2[H])C([H])([H])C([H])([H])N(C([H])(c2c([H])c([H])c([H])c([H])c2[H])c2c([H])c([H])c([H])c([H])c2[H])C([H])([H])C1([H])[H]


 30 33  0  0  0  0  0  0  0  0999 V2000
    3.5373    6.8178    8.8910 C   0  0  0  0  0  0  0  0  0  0  0  0
    3.7495    7.4820   10.1195 O   0  0  0  0  0  0  0  0  0  0  0  0
    2.0873    6.8681    8.5962 C   0  0  0  0  0  0  0  0  0  0  0  0
    1.3462    6.3294    9.7895 C   0  0  0  0  0  0  0  0  0  0  0  0
    2.0845    5.4040   10.5654 N   0  0  0  0  0  0  0  0  0  0  0  0
    3.1041    4.6401   10.0243 C   0  0  0  0  0  0  0  0  0  0  0  0
    3.9812    5.3959    9.0538 C   0  0  0  0  0  0  0  0  0  0  0  0
    3.9883    8.4285    9.9490 H   0  0  0  0  0  0  0  0  0  0  0  0
    5.8246    9.0323    6.0196 C   0  0  0  0  0  0  0  0  0  0  0  0
    6.2867    7.8212    6.4982 C   0  0  0  0  0  0  0  0  0  0  0  0
    5.5529    7.0733    7.4170 C   0  0  0  0  0  0  0  0  0  0  0  0
    4.3314    7.5284    7.8798 C   0  0  0  0  0  0  0  0  0  0  0  0
    3.8934    8.7357    7.3835 C   0  0  0  0  0  0  0  0  0  0  0  0
    4.6043    9.4856    6.4772 C   0  0  0  0  0  0  0  0  0  0  0  0
    6.6957    9.8361    5.1375 C   0  0  0  0  0  0  0  0  0  0  0  0
    8.9571    9.4607    4.2167 C   0  0  0  0  0  0  0  0  0  0  0  0
    7.5410    8.9522    4.2358 C   0  0  0  0  0  0  0  0  0  0  0  0
    1.8598    5.4759   11.9545 C   0  0  0  0  0  0  0  0  0  0  0  0
    0.4259    5.8225   12.3202 C   0  0  0  0  0  0  0  0  0  0  0  0
    0.1609    6.5591   13.4772 C   0  0  0  0  0  0  0  0  0  0  0  0
   -1.1196    6.8478   13.8600 C   0  0  0  0  0  0  0  0  0  0  0  0
   -2.1531    6.3875   13.0644 C   0  0  0  0  0  0  0  0  0  0  0  0
   -1.8949    5.6718   11.9325 C   0  0  0  0  0  0  0  0  0  0  0  0
   -0.5753    5.3808   11.5483 C   0  0  0  0  0  0  0  0  0  0  0  0
    2.1490    4.2882   12.7560 C   0  0  0  0  0  0  0  0  0  0  0  0
    1.3594    3.1470   12.6449 C   0  0  0  0  0  0  0  0  0  0  0  0
    1.6392    1.9956   13.3243 C   0  0  0  0  0  0  0  0  0  0  0  0
    2.7473    1.9254   14.1640 C   0  0  0  0  0  0  0  0  0  0  0  0
    3.5314    3.0368   14.2912 C   0  0  0  0  0  0  0  0  0  0  0  0
    3.2224    4.1939   13.5919 C   0  0  0  0  0  0  0  0  0  0  0  0
 16 17  1  0  0  0
 17 15  1  0  0  0
 15  9  1  0  0  0
  9 10  2  0  0  0
 10 11  1  0  0  0
 11 12  2  0  0  0
 12  1  1  0  0  0
  1  2  1  0  0  0
  1  3  1  0  0  0
  3  4  1  0  0  0
  4  5  1  0  0  0
  5 18  1  0  0  0
 18 19  1  0  0  0
 19 20  2  0  0  0
 20 21  1  0  0  0
 21 22  2  0  0  0
 22 23  1  0  0  0
 23 24  2  0  0  0
 18 25  1  0  0  0
 25 26  2  0  0  0
 26 27  1  0  0  0
 27 28  2  0  0  0
 28 29  1  0  0  0
 29 30  2  0  0  0
  5  6  1  0  0  0
  6  7  1  0  0  0
 12 13  1  0  0  0
 13 14  2  0  0  0
 14  9  1  0  0  0
  7  1  1  0  0  0
 24 19  1  0  0  0
 30 25  1  0  0  0
  2  8  1  0  0  0
M  END
> <minimizedAffinity>
-6.33285

> <CNNscore>
0.3900049329

> <CNNaffinity>
4.6538457870

> <CNN_VS>
1.8150228262

> <CNNaffinity_variance>
0.4001491070

$$$$
[H]OC1(c2c([H])c([H])c(C([H])([H])C([H])([H])C([H])([H])[H])c([H])c2[H])C([H])([H])C([H])([H])N(C([H])(c2c([H])c([H])c([H])c([H])c2[H])c2c([H])c([H])c([H])c([H])c2[H])C([H])([H])C1([H])[H]


 30 33  0  0  0  0  0  0  0  0999 V2000
    2.6727    2.8634   14.2476 C   0  0  0  0  0  0  0  0  0  0  0  0
    2.4743    4.2580   14.3525 O   0  0  0  0  0  0  0  0  0  0  0  0
    3.6097    2.6246   13.1264 C   0  0  0  0  0  0  0  0  0  0  0  0
    3.0706    3.3214   11.9070 C   0  0  0  0  0  0  0  0  0  0  0  0
    1.6637    3.4772   11.8984 N   0  0  0  0  0  0  0  0  0  0  0  0
    0.8256    2.6206   12.5911 C   0  0  0  0  0  0  0  0  0  0  0  0
    1.3463    2.2306   13.9546 C   0  0  0  0  0  0  0  0  0  0  0  0
    3.1032    4.6342   15.0195 H   0  0  0  0  0  0  0  0  0  0  0  0
    4.2453    1.6984   18.0620 C   0  0  0  0  0  0  0  0  0  0  0  0
    3.4492    0.8308   17.3390 C   0  0  0  0  0  0  0  0  0  0  0  0
    2.9418    1.1784   16.0885 C   0  0  0  0  0  0  0  0  0  0  0  0
    3.2235    2.4135   15.5329 C   0  0  0  0  0  0  0  0  0  0  0  0
    4.0221    3.2563   16.2729 C   0  0  0  0  0  0  0  0  0  0  0  0
    4.5306    2.9291   17.5073 C   0  0  0  0  0  0  0  0  0  0  0  0
    4.6590    1.3235   19.4301 C   0  0  0  0  0  0  0  0  0  0  0  0
    3.7608    0.7344   21.6547 C   0  0  0  0  0  0  0  0  0  0  0  0
    3.5430    0.6065   20.1713 C   0  0  0  0  0  0  0  0  0  0  0  0
    1.1992    4.6778   11.3259 C   0  0  0  0  0  0  0  0  0  0  0  0
    0.1633    5.3947   12.1761 C   0  0  0  0  0  0  0  0  0  0  0  0
   -1.1740    5.4169   11.7730 C   0  0  0  0  0  0  0  0  0  0  0  0
   -2.1228    6.0919   12.4897 C   0  0  0  0  0  0  0  0  0  0  0  0
   -1.7195    6.7569   13.6333 C   0  0  0  0  0  0  0  0  0  0  0  0
   -0.4147    6.7323   14.0297 C   0  0  0  0  0  0  0  0  0  0  0  0
    0.5521    6.0355   13.2858 C   0  0  0  0  0  0  0  0  0  0  0  0
    2.1828    5.7156   11.0221 C   0  0  0  0  0  0  0  0  0  0  0  0
    3.0702    6.1603   11.9983 C   0  0  0  0  0  0  0  0  0  0  0  0
    4.0479    7.0769   11.7342 C   0  0  0  0  0  0  0  0  0  0  0  0
    4.1921    7.6031   10.4535 C   0  0  0  0  0  0  0  0  0  0  0  0
    3.3270    7.1838    9.4829 C   0  0  0  0  0  0  0  0  0  0  0  0
    2.3414    6.2543    9.7794 C   0  0  0  0  0  0  0  0  0  0  0  0
 16 17  1  0  0  0
 17 15  1  0  0  0
 15  9  1  0  0  0
  9 10  2  0  0  0
 10 11  1  0  0  0
 11 12  2  0  0  0
 12  1  1  0  0  0
  1  2  1  0  0  0
  1  3  1  0  0  0
  3  4  1  0  0  0
  4  5  1  0  0  0
  5 18  1  0  0  0
 18 19  1  0  0  0
 19 20  2  0  0  0
 20 21  1  0  0  0
 21 22  2  0  0  0
 22 23  1  0  0  0
 23 24  2  0  0  0
 18 25  1  0  0  0
 25 26  2  0  0  0
 26 27  1  0  0  0
 27 28  2  0  0  0
 28 29  1  0  0  0
 29 30  2  0  0  0
  5  6  1  0  0  0
  6  7  1  0  0  0
 12 13  1  0  0  0
 13 14  2  0  0  0
 14  9  1  0  0  0
  7  1  1  0  0  0
 24 19  1  0  0  0
 30 25  1  0  0  0
  2  8  1  0  0  0
M  END
> <minimizedAffinity>
-7.24965

> <CNNscore>
0.3606853187

> <CNNaffinity>
5.4507508278

> <CNN_VS>
1.9660058022

> <CNNaffinity_variance>
0.2517306209

$$$$
[H]OC1(c2c([H])c([H])c(C([H])([H])C([H])([H])C([H])([H])[H])c([H])c2[H])C([H])([H])C([H])([H])N(C([H])(c2c([H])c([H])c([H])c([H])c2[H])c2c([H])c([H])c([H])c([H])c2[H])C([H])([H])C1([H])[H]


 30 33  0  0  0  0  0  0  0  0999 V2000
    3.0924    3.5816   16.1062 C   0  0  0  0  0  0  0  0  0  0  0  0
    2.2209    2.6338   15.5251 O   0  0  0  0  0  0  0  0  0  0  0  0
    2.3202    4.8244   16.3325 C   0  0  0  0  0  0  0  0  0  0  0  0
    1.6690    5.2159   15.0341 C   0  0  0  0  0  0  0  0  0  0  0  0
    2.3557    4.7699   13.8794 N   0  0  0  0  0  0  0  0  0  0  0  0
    3.7177    4.5231   13.8843 C   0  0  0  0  0  0  0  0  0  0  0  0
    4.2071    3.8364   15.1378 C   0  0  0  0  0  0  0  0  0  0  0  0
    1.8306    2.0623   16.2342 H   0  0  0  0  0  0  0  0  0  0  0  0
    4.5885    1.7593   19.6869 C   0  0  0  0  0  0  0  0  0  0  0  0
    4.6277    3.1318   19.5313 C   0  0  0  0  0  0  0  0  0  0  0  0
    4.1302    3.7494   18.3855 C   0  0  0  0  0  0  0  0  0  0  0  0
    3.5798    2.9978   17.3630 C   0  0  0  0  0  0  0  0  0  0  0  0
    3.5500    1.6335   17.5460 C   0  0  0  0  0  0  0  0  0  0  0  0
    4.0361    1.0085   18.6696 C   0  0  0  0  0  0  0  0  0  0  0  0
    5.2343    1.1511   20.8685 C   0  0  0  0  0  0  0  0  0  0  0  0
    5.6630    2.2997   23.0132 C   0  0  0  0  0  0  0  0  0  0  0  0
    4.6082    1.6474   22.1611 C   0  0  0  0  0  0  0  0  0  0  0  0
    1.5299    4.3883   12.8036 C   0  0  0  0  0  0  0  0  0  0  0  0
    0.1849    5.0959   12.7900 C   0  0  0  0  0  0  0  0  0  0  0  0
   -0.8968    4.5228   12.1173 C   0  0  0  0  0  0  0  0  0  0  0  0
   -2.1072    5.1549   12.0459 C   0  0  0  0  0  0  0  0  0  0  0  0
   -2.2322    6.3865   12.6629 C   0  0  0  0  0  0  0  0  0  0  0  0
   -1.1776    6.9448   13.3233 C   0  0  0  0  0  0  0  0  0  0  0  0
    0.0617    6.2865   13.3906 C   0  0  0  0  0  0  0  0  0  0  0  0
    2.0412    4.5807   11.4477 C   0  0  0  0  0  0  0  0  0  0  0  0
    2.3405    5.8559   10.9761 C   0  0  0  0  0  0  0  0  0  0  0  0
    2.8851    6.0695    9.7418 C   0  0  0  0  0  0  0  0  0  0  0  0
    3.1662    4.9961    8.9012 C   0  0  0  0  0  0  0  0  0  0  0  0
    2.8742    3.7370    9.3434 C   0  0  0  0  0  0  0  0  0  0  0  0
    2.3187    3.5490   10.6001 C   0  0  0  0  0  0  0  0  0  0  0  0
 16 17  1  0  0  0
 17 15  1  0  0  0
 15  9  1  0  0  0
  9 10  2  0  0  0
 10 11  1  0  0  0
 11 12  2  0  0  0
 12  1  1  0  0  0
  1  2  1  0  0  0
  1  3  1  0  0  0
  3  4  1  0  0  0
  4  5  1  0  0  0
  5 18  1  0  0  0
 18 19  1  0  0  0
 19 20  2  0  0  0
 20 21  1  0  0  0
 21 22  2  0  0  0
 22 23  1  0  0  0
 23 24  2  0  0  0
 18 25  1  0  0  0
 25 26  2  0  0  0
 26 27  1  0  0  0
 27 28  2  0  0  0
 28 29  1  0  0  0
 29 30  2  0  0  0
  5  6  1  0  0  0
  6  7  1  0  0  0
 12 13  1  0  0  0
 13 14  2  0  0  0
 14  9  1  0  0  0
  7  1  1  0  0  0
 24 19  1  0  0  0
 30 25  1  0  0  0
  2  8  1  0  0  0
M  END
> <minimizedAffinity>
-7.11488

> <CNNscore>
0.3592965901

> <CNNaffinity>
5.6530122757

> <CNN_VS>
2.0311081409

> <CNNaffinity_variance>
0.4981082976

$$$$
[H]OC1(c2c([H])c([H])c(C([H])([H])C([H])([H])C([H])([H])[H])c([H])c2[H])C([H])([H])C([H])([H])N(C([H])(c2c([H])c([H])c([H])c([H])c2[H])c2c([H])c([H])c([H])c([H])c2[H])C([H])([H])C1([H])[H]


 30 33  0  0  0  0  0  0  0  0999 V2000
    3.0634    3.6562   15.2867 C   0  0  0  0  0  0  0  0  0  0  0  0
    2.6227    4.9372   15.6868 O   0  0  0  0  0  0  0  0  0  0  0  0
    4.1511    3.8418   14.2996 C   0  0  0  0  0  0  0  0  0  0  0  0
    3.6480    4.7508   13.2115 C   0  0  0  0  0  0  0  0  0  0  0  0
    2.2456    4.7140   13.0228 N   0  0  0  0  0  0  0  0  0  0  0  0
    1.4886    3.6038   13.3549 C   0  0  0  0  0  0  0  0  0  0  0  0
    1.9054    2.9489   14.6510 C   0  0  0  0  0  0  0  0  0  0  0  0
    3.0976    5.2094   16.5129 H   0  0  0  0  0  0  0  0  0  0  0  0
    4.3789    1.7805   18.9105 C   0  0  0  0  0  0  0  0  0  0  0  0
    3.6576    1.0647   17.9742 C   0  0  0  0  0  0  0  0  0  0  0  0
    3.2354    1.6460   16.7802 C   0  0  0  0  0  0  0  0  0  0  0  0
    3.5288    2.9681   16.4983 C   0  0  0  0  0  0  0  0  0  0  0  0
    4.2518    3.6563   17.4466 C   0  0  0  0  0  0  0  0  0  0  0  0
    4.6759    3.0982   18.6290 C   0  0  0  0  0  0  0  0  0  0  0  0
    4.6998    1.1487   20.2071 C   0  0  0  0  0  0  0  0  0  0  0  0
    6.7977    1.0729   21.5094 C   0  0  0  0  0  0  0  0  0  0  0  0
    5.7073    1.9718   20.9921 C   0  0  0  0  0  0  0  0  0  0  0  0
    1.6557    5.9484   12.6860 C   0  0  0  0  0  0  0  0  0  0  0  0
    1.9525    6.3950   11.2639 C   0  0  0  0  0  0  0  0  0  0  0  0
    2.1532    5.4423   10.2623 C   0  0  0  0  0  0  0  0  0  0  0  0
    2.4680    5.8090    8.9832 C   0  0  0  0  0  0  0  0  0  0  0  0
    2.5830    7.1591    8.7060 C   0  0  0  0  0  0  0  0  0  0  0  0
    2.3833    8.0900    9.6826 C   0  0  0  0  0  0  0  0  0  0  0  0
    2.0601    7.7022   10.9936 C   0  0  0  0  0  0  0  0  0  0  0  0
    0.2025    6.0634   12.7937 C   0  0  0  0  0  0  0  0  0  0  0  0
   -0.3818    6.6614   13.9070 C   0  0  0  0  0  0  0  0  0  0  0  0
   -1.7306    6.8498   14.0118 C   0  0  0  0  0  0  0  0  0  0  0  0
   -2.5798    6.4441   12.9860 C   0  0  0  0  0  0  0  0  0  0  0  0
   -2.0262    5.8498   11.8876 C   0  0  0  0  0  0  0  0  0  0  0  0
   -0.6536    5.6680   11.8087 C   0  0  0  0  0  0  0  0  0  0  0  0
 16 17  1  0  0  0
 17 15  1  0  0  0
 15  9  1  0  0  0
  9 10  2  0  0  0
 10 11  1  0  0  0
 11 12  2  0  0  0
 12  1  1  0  0  0
  1  2  1  0  0  0
  1  3  1  0  0  0
  3  4  1  0  0  0
  4  5  1  0  0  0
  5 18  1  0  0  0
 18 19  1  0  0  0
 19 20  2  0  0  0
 20 21  1  0  0  0
 21 22  2  0  0  0
 22 23  1  0  0  0
 23 24  2  0  0  0
 18 25  1  0  0  0
 25 26  2  0  0  0
 26 27  1  0  0  0
 27 28  2  0  0  0
 28 29  1  0  0  0
 29 30  2  0  0  0
  5  6  1  0  0  0
  6  7  1  0  0  0
 12 13  1  0  0  0
 13 14  2  0  0  0
 14  9  1  0  0  0
  7  1  1  0  0  0
 24 19  1  0  0  0
 30 25  1  0  0  0
  2  8  1  0  0  0
M  END
> <minimizedAffinity>
-7.46245

> <CNNscore>
0.3548486531

> <CNNaffinity>
5.4845876694

> <CNN_VS>
1.9461985826

> <CNNaffinity_variance>
0.3050526083

$$$$
[H]OC1(c2c([H])c([H])c(C([H])([H])C([H])([H])C([H])([H])[H])c([H])c2[H])C([H])([H])C([H])([H])N(C([H])(c2c([H])c([H])c([H])c([H])c2[H])c2c([H])c([H])c([H])c([H])c2[H])C([H])([H])C1([H])[H]


 30 33  0  0  0  0  0  0  0  0999 V2000
    3.0280    3.9834   13.0159 C   0  0  0  0  0  0  0  0  0  0  0  0
    3.4701    3.2009   11.9262 O   0  0  0  0  0  0  0  0  0  0  0  0
    1.6163    4.3510   12.7632 C   0  0  0  0  0  0  0  0  0  0  0  0
    1.5323    4.9848   11.4014 C   0  0  0  0  0  0  0  0  0  0  0  0
    2.7259    5.6165   10.9775 N   0  0  0  0  0  0  0  0  0  0  0  0
    3.6550    6.1104   11.8769 C   0  0  0  0  0  0  0  0  0  0  0  0
    3.8792    5.2153   13.0732 C   0  0  0  0  0  0  0  0  0  0  0  0
    3.3576    2.2398   12.1396 H   0  0  0  0  0  0  0  0  0  0  0  0
    3.4372    1.7073   16.6259 C   0  0  0  0  0  0  0  0  0  0  0  0
    2.6994    1.2132   15.5672 C   0  0  0  0  0  0  0  0  0  0  0  0
    2.5673    1.9250   14.3764 C   0  0  0  0  0  0  0  0  0  0  0  0
    3.1762    3.1573   14.2215 C   0  0  0  0  0  0  0  0  0  0  0  0
    3.9082    3.6236   15.2904 C   0  0  0  0  0  0  0  0  0  0  0  0
    4.0486    2.9345   16.4714 C   0  0  0  0  0  0  0  0  0  0  0  0
    3.4473    0.9650   17.9034 C   0  0  0  0  0  0  0  0  0  0  0  0
    3.8880    1.1500   20.3272 C   0  0  0  0  0  0  0  0  0  0  0  0
    4.2292    1.7096   18.9727 C   0  0  0  0  0  0  0  0  0  0  0  0
    3.0015    5.5098    9.5999 C   0  0  0  0  0  0  0  0  0  0  0  0
    3.2929    6.8446    8.9341 C   0  0  0  0  0  0  0  0  0  0  0  0
    4.5678    7.1059    8.4264 C   0  0  0  0  0  0  0  0  0  0  0  0
    4.8766    8.3131    7.8635 C   0  0  0  0  0  0  0  0  0  0  0  0
    3.8848    9.2756    7.8098 C   0  0  0  0  0  0  0  0  0  0  0  0
    2.6387    9.0197    8.3016 C   0  0  0  0  0  0  0  0  0  0  0  0
    2.3321    7.7757    8.8779 C   0  0  0  0  0  0  0  0  0  0  0  0
    4.1194    4.6618    9.1901 C   0  0  0  0  0  0  0  0  0  0  0  0
    5.3745    4.8104    9.7739 C   0  0  0  0  0  0  0  0  0  0  0  0
    6.4243    3.9919    9.4681 C   0  0  0  0  0  0  0  0  0  0  0  0
    6.2674    2.9605    8.5464 C   0  0  0  0  0  0  0  0  0  0  0  0
    5.0448    2.8019    7.9579 C   0  0  0  0  0  0  0  0  0  0  0  0
    3.9969    3.6495    8.2847 C   0  0  0  0  0  0  0  0  0  0  0  0
 16 17  1  0  0  0
 17 15  1  0  0  0
 15  9  1  0  0  0
  9 10  2  0  0  0
 10 11  1  0  0  0
 11 12  2  0  0  0
 12  1  1  0  0  0
  1  2  1  0  0  0
  1  3  1  0  0  0
  3  4  1  0  0  0
  4  5  1  0  0  0
  5 18  1  0  0  0
 18 19  1  0  0  0
 19 20  2  0  0  0
 20 21  1  0  0  0
 21 22  2  0  0  0
 22 23  1  0  0  0
 23 24  2  0  0  0
 18 25  1  0  0  0
 25 26  2  0  0  0
 26 27  1  0  0  0
 27 28  2  0  0  0
 28 29  1  0  0  0
 29 30  2  0  0  0
  5  6  1  0  0  0
  6  7  1  0  0  0
 12 13  1  0  0  0
 13 14  2  0  0  0
 14  9  1  0  0  0
  7  1  1  0  0  0
 24 19  1  0  0  0
 30 25  1  0  0  0
  2  8  1  0  0  0
M  END
> <minimizedAffinity>
-6.32729

> <CNNscore>
0.3530905843

> <CNNaffinity>
5.1590299606

> <CNN_VS>
1.8216048479

> <CNNaffinity_variance>
0.2197212726

$$$$
[H]OC1(c2c([H])c([H])c(C([H])([H])C([H])([H])C([H])([H])[H])c([H])c2[H])C([H])([H])C([H])([H])N(C([H])(c2c([H])c([H])c([H])c([H])c2[H])c2c([H])c([H])c([H])c([H])c2[H])C([H])([H])C1([H])[H]


 30 33  0  0  0  0  0  0  0  0999 V2000
    3.3676    3.7600   16.1502 C   0  0  0  0  0  0  0  0  0  0  0  0
    2.7174    3.7706   17.4041 O   0  0  0  0  0  0  0  0  0  0  0  0
    3.7730    2.3649   15.8647 C   0  0  0  0  0  0  0  0  0  0  0  0
    4.5653    1.8564   17.0382 C   0  0  0  0  0  0  0  0  0  0  0  0
    5.2343    2.8655   17.7715 N   0  0  0  0  0  0  0  0  0  0  0  0
    5.6106    4.0659   17.1942 C   0  0  0  0  0  0  0  0  0  0  0  0
    4.5777    4.6380   16.2517 C   0  0  0  0  0  0  0  0  0  0  0  0
    1.7385    3.6913   17.2719 H   0  0  0  0  0  0  0  0  0  0  0  0
    0.6342    5.3818   13.2730 C   0  0  0  0  0  0  0  0  0  0  0  0
    1.0897    4.0831   13.1505 C   0  0  0  0  0  0  0  0  0  0  0  0
    1.9632    3.5266   14.0829 C   0  0  0  0  0  0  0  0  0  0  0  0
    2.4026    4.2670   15.1655 C   0  0  0  0  0  0  0  0  0  0  0  0
    1.9300    5.5564   15.2650 C   0  0  0  0  0  0  0  0  0  0  0  0
    1.0684    6.1204   14.3546 C   0  0  0  0  0  0  0  0  0  0  0  0
   -0.1968    5.9568   12.1950 C   0  0  0  0  0  0  0  0  0  0  0  0
   -2.4533    5.1841   11.5515 C   0  0  0  0  0  0  0  0  0  0  0  0
   -1.6688    5.9639   12.5717 C   0  0  0  0  0  0  0  0  0  0  0  0
    5.2906    2.6544   19.1634 C   0  0  0  0  0  0  0  0  0  0  0  0
    5.0195    3.9080   19.9788 C   0  0  0  0  0  0  0  0  0  0  0  0
    3.7808    4.5465   19.8833 C   0  0  0  0  0  0  0  0  0  0  0  0
    3.5203    5.7017   20.5670 C   0  0  0  0  0  0  0  0  0  0  0  0
    4.5242    6.2245   21.3618 C   0  0  0  0  0  0  0  0  0  0  0  0
    5.7325    5.5994   21.4586 C   0  0  0  0  0  0  0  0  0  0  0  0
    5.9895    4.4128   20.7519 C   0  0  0  0  0  0  0  0  0  0  0  0
    4.3896    1.6587   19.7407 C   0  0  0  0  0  0  0  0  0  0  0  0
    4.2822    1.5139   21.1212 C   0  0  0  0  0  0  0  0  0  0  0  0
    3.4012    0.6443   21.6986 C   0  0  0  0  0  0  0  0  0  0  0  0
    2.5641   -0.1380   20.9080 C   0  0  0  0  0  0  0  0  0  0  0  0
    2.6584   -0.0149   19.5507 C   0  0  0  0  0  0  0  0  0  0  0  0
    3.5640    0.8738   18.9910 C   0  0  0  0  0  0  0  0  0  0  0  0
 16 17  1  0  0  0
 17 15  1  0  0  0
 15  9  1  0  0  0
  9 10  2  0  0  0
 10 11  1  0  0  0
 11 12  2  0  0  0
 12  1  1  0  0  0
  1  2  1  0  0  0
  1  3  1  0  0  0
  3  4  1  0  0  0
  4  5  1  0  0  0
  5 18  1  0  0  0
 18 19  1  0  0  0
 19 20  2  0  0  0
 20 21  1  0  0  0
 21 22  2  0  0  0
 22 23  1  0  0  0
 23 24  2  0  0  0
 18 25  1  0  0  0
 25 26  2  0  0  0
 26 27  1  0  0  0
 27 28  2  0  0  0
 28 29  1  0  0  0
 29 30  2  0  0  0
  5  6  1  0  0  0
  6  7  1  0  0  0
 12 13  1  0  0  0
 13 14  2  0  0  0
 14  9  1  0  0  0
  7  1  1  0  0  0
 24 19  1  0  0  0
 30 25  1  0  0  0
  2  8  1  0  0  0
M  END
> <minimizedAffinity>
-7.51236

> <CNNscore>
0.3266813755

> <CNNaffinity>
6.0107402802

> <CNN_VS>
1.9635969400

> <CNNaffinity_variance>
0.5795319676

$$$$
[H]OC1(c2c([H])c([H])c(C([H])([H])C([H])([H])C([H])([H])[H])c([H])c2[H])C([H])([H])C([H])([H])N(C([H])(c2c([H])c([H])c([H])c([H])c2[H])c2c([H])c([H])c([H])c([H])c2[H])C([H])([H])C1([H])[H]


 30 33  0  0  0  0  0  0  0  0999 V2000
    3.0702    3.5880   14.9874 C   0  0  0  0  0  0  0  0  0  0  0  0
    2.8435    4.9390   15.3321 O   0  0  0  0  0  0  0  0  0  0  0  0
    4.1546    3.5560   13.9800 C   0  0  0  0  0  0  0  0  0  0  0  0
    3.7797    4.4835   12.8564 C   0  0  0  0  0  0  0  0  0  0  0  0
    2.3855    4.6596   12.6861 N   0  0  0  0  0  0  0  0  0  0  0  0
    1.4703    3.6983   13.0789 C   0  0  0  0  0  0  0  0  0  0  0  0
    1.8038    3.0443   14.3993 C   0  0  0  0  0  0  0  0  0  0  0  0
    3.3708    5.1695   16.1388 H   0  0  0  0  0  0  0  0  0  0  0  0
    4.1349    1.6894   18.6809 C   0  0  0  0  0  0  0  0  0  0  0  0
    3.3494    1.0288   17.7557 C   0  0  0  0  0  0  0  0  0  0  0  0
    3.0057    1.6167   16.5400 C   0  0  0  0  0  0  0  0  0  0  0  0
    3.4449    2.8899   16.2244 C   0  0  0  0  0  0  0  0  0  0  0  0
    4.2290    3.5232   17.1624 C   0  0  0  0  0  0  0  0  0  0  0  0
    4.5772    2.9578   18.3659 C   0  0  0  0  0  0  0  0  0  0  0  0
    4.3712    1.0655   19.9993 C   0  0  0  0  0  0  0  0  0  0  0  0
    6.4343    1.3057   21.3368 C   0  0  0  0  0  0  0  0  0  0  0  0
    5.1595    1.9856   20.9163 C   0  0  0  0  0  0  0  0  0  0  0  0
    1.9901    5.9552   12.2987 C   0  0  0  0  0  0  0  0  0  0  0  0
    0.5329    6.2616   12.6033 C   0  0  0  0  0  0  0  0  0  0  0  0
    0.1173    6.4238   13.9270 C   0  0  0  0  0  0  0  0  0  0  0  0
   -1.1940    6.6537   14.2388 C   0  0  0  0  0  0  0  0  0  0  0  0
   -2.1045    6.7220   13.2000 C   0  0  0  0  0  0  0  0  0  0  0  0
   -1.6988    6.5677   11.9071 C   0  0  0  0  0  0  0  0  0  0  0  0
   -0.3488    6.3320   11.5979 C   0  0  0  0  0  0  0  0  0  0  0  0
    2.7138    7.0900   12.8692 C   0  0  0  0  0  0  0  0  0  0  0  0
    4.0706    7.2681   12.6130 C   0  0  0  0  0  0  0  0  0  0  0  0
    4.7645    8.3522   13.0700 C   0  0  0  0  0  0  0  0  0  0  0  0
    4.1223    9.3343   13.8190 C   0  0  0  0  0  0  0  0  0  0  0  0
    2.7921    9.1748   14.0863 C   0  0  0  0  0  0  0  0  0  0  0  0
    2.1126    8.0625   13.6124 C   0  0  0  0  0  0  0  0  0  0  0  0
 16 17  1  0  0  0
 17 15  1  0  0  0
 15  9  1  0  0  0
  9 10  2  0  0  0
 10 11  1  0  0  0
 11 12  2  0  0  0
 12  1  1  0  0  0
  1  2  1  0  0  0
  1  3  1  0  0  0
  3  4  1  0  0  0
  4  5  1  0  0  0
  5 18  1  0  0  0
 18 19  1  0  0  0
 19 20  2  0  0  0
 20 21  1  0  0  0
 21 22  2  0  0  0
 22 23  1  0  0  0
 23 24  2  0  0  0
 18 25  1  0  0  0
 25 26  2  0  0  0
 26 27  1  0  0  0
 27 28  2  0  0  0
 28 29  1  0  0  0
 29 30  2  0  0  0
  5  6  1  0  0  0
  6  7  1  0  0  0
 12 13  1  0  0  0
 13 14  2  0  0  0
 14  9  1  0  0  0
  7  1  1  0  0  0
 24 19  1  0  0  0
 30 25  1  0  0  0
  2  8  1  0  0  0
M  END
> <minimizedAffinity>
-7.44725

> <CNNscore>
0.3223381042

> <CNNaffinity>
5.4831748009

> <CNN_VS>
1.7674361467

> <CNNaffinity_variance>
0.3559471071

$$$$
[H]OC1(c2c([H])c([H])c(C([H])([H])C([H])([H])C([H])([H])[H])c([H])c2[H])C([H])([H])C([H])([H])N(C([H])(c2c([H])c([H])c([H])c([H])c2[H])c2c([H])c([H])c([H])c([H])c2[H])C([H])([H])C1([H])[H]


 30 33  0  0  0  0  0  0  0  0999 V2000
    2.4620    3.6360   13.2920 C   0  0  0  0  0  0  0  0  0  0  0  0
    3.3170    3.2351   12.2415 O   0  0  0  0  0  0  0  0  0  0  0  0
    1.0997    3.1511   12.9742 C   0  0  0  0  0  0  0  0  0  0  0  0
    0.7406    3.6300   11.5939 C   0  0  0  0  0  0  0  0  0  0  0  0
    1.3961    4.8215   11.2012 N   0  0  0  0  0  0  0  0  0  0  0  0
    1.8467    5.7503   12.1233 C   0  0  0  0  0  0  0  0  0  0  0  0
    2.4756    5.1333   13.3506 C   0  0  0  0  0  0  0  0  0  0  0  0
    3.7508    2.3754   12.4755 H   0  0  0  0  0  0  0  0  0  0  0  0
    3.9729    2.0206   16.9646 C   0  0  0  0  0  0  0  0  0  0  0  0
    3.1342    1.2701   16.1629 C   0  0  0  0  0  0  0  0  0  0  0  0
    2.6454    1.7652   14.9555 C   0  0  0  0  0  0  0  0  0  0  0  0
    2.9891    3.0337   14.5238 C   0  0  0  0  0  0  0  0  0  0  0  0
    3.8289    3.7577   15.3400 C   0  0  0  0  0  0  0  0  0  0  0  0
    4.3199    3.2845   16.5334 C   0  0  0  0  0  0  0  0  0  0  0  0
    4.3668    1.4915   18.2868 C   0  0  0  0  0  0  0  0  0  0  0  0
    4.7654    2.0888   20.6505 C   0  0  0  0  0  0  0  0  0  0  0  0
    4.7581    2.6094   19.2387 C   0  0  0  0  0  0  0  0  0  0  0  0
    1.7492    4.8877    9.8388 C   0  0  0  0  0  0  0  0  0  0  0  0
    0.6155    5.3531    8.9399 C   0  0  0  0  0  0  0  0  0  0  0  0
   -0.3762    6.1950    9.4489 C   0  0  0  0  0  0  0  0  0  0  0  0
   -1.4346    6.5944    8.6810 C   0  0  0  0  0  0  0  0  0  0  0  0
   -1.4970    6.1389    7.3766 C   0  0  0  0  0  0  0  0  0  0  0  0
   -0.5271    5.3201    6.8777 C   0  0  0  0  0  0  0  0  0  0  0  0
    0.5563    4.9159    7.6755 C   0  0  0  0  0  0  0  0  0  0  0  0
    2.8698    5.7483    9.4642 C   0  0  0  0  0  0  0  0  0  0  0  0
    2.6849    7.1163    9.2833 C   0  0  0  0  0  0  0  0  0  0  0  0
    3.7194    7.9627    9.0019 C   0  0  0  0  0  0  0  0  0  0  0  0
    5.0178    7.4738    8.8881 C   0  0  0  0  0  0  0  0  0  0  0  0
    5.2191    6.1331    9.0562 C   0  0  0  0  0  0  0  0  0  0  0  0
    4.1501    5.2959    9.3382 C   0  0  0  0  0  0  0  0  0  0  0  0
 16 17  1  0  0  0
 17 15  1  0  0  0
 15  9  1  0  0  0
  9 10  2  0  0  0
 10 11  1  0  0  0
 11 12  2  0  0  0
 12  1  1  0  0  0
  1  2  1  0  0  0
  1  3  1  0  0  0
  3  4  1  0  0  0
  4  5  1  0  0  0
  5 18  1  0  0  0
 18 19  1  0  0  0
 19 20  2  0  0  0
 20 21  1  0  0  0
 21 22  2  0  0  0
 22 23  1  0  0  0
 23 24  2  0  0  0
 18 25  1  0  0  0
 25 26  2  0  0  0
 26 27  1  0  0  0
 27 28  2  0  0  0
 28 29  1  0  0  0
 29 30  2  0  0  0
  5  6  1  0  0  0
  6  7  1  0  0  0
 12 13  1  0  0  0
 13 14  2  0  0  0
 14  9  1  0  0  0
  7  1  1  0  0  0
 24 19  1  0  0  0
 30 25  1  0  0  0
  2  8  1  0  0  0
M  END
> <minimizedAffinity>
-5.96084

> <CNNscore>
0.3068245053

> <CNNaffinity>
4.9524183273

> <CNN_VS>
1.5195232630

> <CNNaffinity_variance>
0.3017814755

$$$$
[H]OC1(c2c([H])c([H])c(C([H])([H])C([H])([H])C([H])([H])[H])c([H])c2[H])C([H])([H])C([H])([H])N(C([H])(c2c([H])c([H])c([H])c([H])c2[H])c2c([H])c([H])c([H])c([H])c2[H])C([H])([H])C1([H])[H]


 30 33  0  0  0  0  0  0  0  0999 V2000
    2.2424    4.4727   14.7520 C   0  0  0  0  0  0  0  0  0  0  0  0
    1.7861    4.0691   16.0265 O   0  0  0  0  0  0  0  0  0  0  0  0
    2.8564    3.2942   14.0993 C   0  0  0  0  0  0  0  0  0  0  0  0
    3.8879    2.7236   15.0340 C   0  0  0  0  0  0  0  0  0  0  0  0
    4.4539    3.6675   15.9242 N   0  0  0  0  0  0  0  0  0  0  0  0
    4.5138    5.0172   15.6231 C   0  0  0  0  0  0  0  0  0  0  0  0
    3.2692    5.5461   14.9495 C   0  0  0  0  0  0  0  0  0  0  0  0
    0.8305    3.8124   15.9717 H   0  0  0  0  0  0  0  0  0  0  0  0
   -1.2448    5.7546   12.6128 C   0  0  0  0  0  0  0  0  0  0  0  0
   -0.6946    6.5537   13.5967 C   0  0  0  0  0  0  0  0  0  0  0  0
    0.4495    6.1683   14.2927 C   0  0  0  0  0  0  0  0  0  0  0  0
    1.0700    4.9635   14.0155 C   0  0  0  0  0  0  0  0  0  0  0  0
    0.5030    4.1893   13.0282 C   0  0  0  0  0  0  0  0  0  0  0  0
   -0.6247    4.5545   12.3322 C   0  0  0  0  0  0  0  0  0  0  0  0
   -2.5220    6.1588   11.9894 C   0  0  0  0  0  0  0  0  0  0  0  0
   -4.0496    5.7946   10.0823 C   0  0  0  0  0  0  0  0  0  0  0  0
   -2.6319    5.6444   10.5638 C   0  0  0  0  0  0  0  0  0  0  0  0
    4.7454    3.1743   17.2114 C   0  0  0  0  0  0  0  0  0  0  0  0
    4.5956    4.2154   18.3085 C   0  0  0  0  0  0  0  0  0  0  0  0
    3.3304    4.7150   18.6265 C   0  0  0  0  0  0  0  0  0  0  0  0
    3.1657    5.6857   19.5753 C   0  0  0  0  0  0  0  0  0  0  0  0
    4.2944    6.1629   20.2166 C   0  0  0  0  0  0  0  0  0  0  0  0
    5.5295    5.6727   19.9095 C   0  0  0  0  0  0  0  0  0  0  0  0
    5.6874    4.6752   18.9330 C   0  0  0  0  0  0  0  0  0  0  0  0
    3.9687    2.0362   17.6994 C   0  0  0  0  0  0  0  0  0  0  0  0
    3.2137    1.2632   16.8216 C   0  0  0  0  0  0  0  0  0  0  0  0
    2.5315    0.1518   17.2280 C   0  0  0  0  0  0  0  0  0  0  0  0
    2.5737   -0.2523   18.5595 C   0  0  0  0  0  0  0  0  0  0  0  0
    3.3044    0.4966   19.4379 C   0  0  0  0  0  0  0  0  0  0  0  0
    3.9849    1.6223   18.9987 C   0  0  0  0  0  0  0  0  0  0  0  0
 16 17  1  0  0  0
 17 15  1  0  0  0
 15  9  1  0  0  0
  9 10  2  0  0  0
 10 11  1  0  0  0
 11 12  2  0  0  0
 12  1  1  0  0  0
  1  2  1  0  0  0
  1  3  1  0  0  0
  3  4  1  0  0  0
  4  5  1  0  0  0
  5 18  1  0  0  0
 18 19  1  0  0  0
 19 20  2  0  0  0
 20 21  1  0  0  0
 21 22  2  0  0  0
 22 23  1  0  0  0
 23 24  2  0  0  0
 18 25  1  0  0  0
 25 26  2  0  0  0
 26 27  1  0  0  0
 27 28  2  0  0  0
 28 29  1  0  0  0
 29 30  2  0  0  0
  5  6  1  0  0  0
  6  7  1  0  0  0
 12 13  1  0  0  0
 13 14  2  0  0  0
 14  9  1  0  0  0
  7  1  1  0  0  0
 24 19  1  0  0  0
 30 25  1  0  0  0
  2  8  1  0  0  0
M  END
> <minimizedAffinity>
-7.27409

> <CNNscore>
0.2916533947

> <CNNaffinity>
5.7927126884

> <CNN_VS>
1.6894643307

> <CNNaffinity_variance>
0.5066630244

$$$$
[H]N=C(c1c([H])c([H])c([H])c(Oc2nc(Oc3c([H])c([H])c([H])c(N([H])C(=O)C([H])([H])[H])c3[H])c(F)c(C([H])([H])[H])c2F)c1[H])N([H])[H]


 34 36  0  0  0  0  0  0  0  0999 V2000
    4.3797    1.9730   19.2060 C   0  0  0  0  0  0  0  0  0  0  0  0
    5.1453    2.9462   18.6557 N   0  0  0  0  0  0  0  0  0  0  0  0
    5.1173    3.2957   17.3674 C   0  0  0  0  0  0  0  0  0  0  0  0
    4.2530    2.6286   16.5239 C   0  0  0  0  0  0  0  0  0  0  0  0
    4.2089    2.9708   15.2036 F   0  0  0  0  0  0  0  0  0  0  0  0
    3.4417    1.6272   17.0056 C   0  0  0  0  0  0  0  0  0  0  0  0
    2.5040    0.8956   16.1179 C   0  0  0  0  0  0  0  0  0  0  0  0
    3.5243    1.3203   18.3454 C   0  0  0  0  0  0  0  0  0  0  0  0
    2.6991    0.3187   18.7746 F   0  0  0  0  0  0  0  0  0  0  0  0
    4.4631    1.6711   20.5313 O   0  0  0  0  0  0  0  0  0  0  0  0
    4.1085    4.8571   22.3180 C   0  0  0  0  0  0  0  0  0  0  0  0
    4.0171    4.3605   23.5950 C   0  0  0  0  0  0  0  0  0  0  0  0
    4.0673    3.0143   23.8977 C   0  0  0  0  0  0  0  0  0  0  0  0
    4.2147    2.1000   22.8986 C   0  0  0  0  0  0  0  0  0  0  0  0
    4.3116    2.5342   21.5987 C   0  0  0  0  0  0  0  0  0  0  0  0
    4.2588    3.8765   21.3283 C   0  0  0  0  0  0  0  0  0  0  0  0
    4.8583    8.5370   21.4119 C   0  0  0  0  0  0  0  0  0  0  0  0
    5.1279    7.1147   21.8045 C   0  0  0  0  0  0  0  0  0  0  0  0
    6.3156    6.8167   21.9754 O   0  0  0  0  0  0  0  0  0  0  0  0
    4.0782    6.2221   21.9555 N   0  0  0  0  0  0  0  0  0  0  0  0
    3.0795    6.5986   21.7811 H   0  0  0  0  0  0  0  0  0  0  0  0
    5.9481    4.3135   16.8999 O   0  0  0  0  0  0  0  0  0  0  0  0
    5.6928    5.6483   17.1473 C   0  0  0  0  0  0  0  0  0  0  0  0
    6.3568    6.3803   18.1223 C   0  0  0  0  0  0  0  0  0  0  0  0
    6.0673    7.7062   18.3301 C   0  0  0  0  0  0  0  0  0  0  0  0
    5.0941    8.3547   17.5635 C   0  0  0  0  0  0  0  0  0  0  0  0
    4.4277    7.6580   16.5998 C   0  0  0  0  0  0  0  0  0  0  0  0
    4.7442    6.2987   16.4073 C   0  0  0  0  0  0  0  0  0  0  0  0
    3.4054    8.2767   15.7697 C   0  0  0  0  0  0  0  0  0  0  0  0
    2.7893    7.6274   14.8756 N   0  0  0  0  0  0  0  0  0  0  0  0
    3.0868    9.6434   15.9639 N   0  0  0  0  0  0  0  0  0  0  0  0
    2.9611    6.6431   14.6758 H   0  0  0  0  0  0  0  0  0  0  0  0
    3.1768   10.2923   15.1652 H   0  0  0  0  0  0  0  0  0  0  0  0
    2.7717    9.9721   16.8914 H   0  0  0  0  0  0  0  0  0  0  0  0
 17 18  1  0  0  0
 18 19  2  0  0  0
 18 20  1  0  0  0
 20 11  1  0  0  0
 11 12  2  0  0  0
 12 13  1  0  0  0
 13 14  2  0  0  0
 14 15  1  0  0  0
 15 10  1  0  0  0
 10  1  1  0  0  0
  1  2  2  0  0  0
  2  3  1  0  0  0
  3 22  1  0  0  0
 22 23  1  0  0  0
 23 24  2  0  0  0
 24 25  1  0  0  0
 25 26  2  0  0  0
 26 27  1  0  0  0
 27 29  1  0  0  0
 29 30  2  0  0  0
 29 31  1  0  0  0
 27 28  2  0  0  0
  3  4  2  0  0  0
  4  5  1  0  0  0
  4  6  1  0  0  0
  6  7  1  0  0  0
  6  8  2  0  0  0
  8  9  1  0  0  0
 15 16  2  0  0  0
 16 11  1  0  0  0
  8  1  1  0  0  0
 28 23  1  0  0  0
 20 21  1  0  0  0
 30 32  1  0  0  0
 31 33  1  0  0  0
 31 34  1  0  0  0
M  END
> <minimizedAffinity>
-8.99147

> <CNNscore>
0.4153875709

> <CNNaffinity>
6.3469786644

> <CNN_VS>
2.6364560127

> <CNNaffinity_variance>
0.2223155946

$$$$
[H]N=C(c1c([H])c([H])c([H])c(Oc2nc(Oc3c([H])c([H])c([H])c(N([H])C(=O)C([H])([H])[H])c3[H])c(F)c(C([H])([H])[H])c2F)c1[H])N([H])[H]


 34 36  0  0  0  0  0  0  0  0999 V2000
    4.6465    2.3564   19.2901 C   0  0  0  0  0  0  0  0  0  0  0  0
    3.9580    2.1353   18.1442 N   0  0  0  0  0  0  0  0  0  0  0  0
    3.1455    1.0964   17.9360 C   0  0  0  0  0  0  0  0  0  0  0  0
    2.9848    0.1742   18.9493 C   0  0  0  0  0  0  0  0  0  0  0  0
    2.1586   -0.8948   18.7567 F   0  0  0  0  0  0  0  0  0  0  0  0
    3.6495    0.3272   20.1442 C   0  0  0  0  0  0  0  0  0  0  0  0
    3.4925   -0.6516   21.2488 C   0  0  0  0  0  0  0  0  0  0  0  0
    4.4710    1.4228   20.2881 C   0  0  0  0  0  0  0  0  0  0  0  0
    5.1090    1.5294   21.4923 F   0  0  0  0  0  0  0  0  0  0  0  0
    5.4585    3.4405   19.4302 O   0  0  0  0  0  0  0  0  0  0  0  0
    6.0739    6.7342   20.9275 C   0  0  0  0  0  0  0  0  0  0  0  0
    4.9984    6.7695   21.7805 C   0  0  0  0  0  0  0  0  0  0  0  0
    4.0723    5.7510   21.8867 C   0  0  0  0  0  0  0  0  0  0  0  0
    4.2019    4.6342   21.1171 C   0  0  0  0  0  0  0  0  0  0  0  0
    5.2576    4.5388   20.2431 C   0  0  0  0  0  0  0  0  0  0  0  0
    6.1613    5.5655   20.1593 C   0  0  0  0  0  0  0  0  0  0  0  0
    8.1232    9.9404   20.2603 C   0  0  0  0  0  0  0  0  0  0  0  0
    6.9272    9.0373   20.3216 C   0  0  0  0  0  0  0  0  0  0  0  0
    5.8598    9.5264   19.9344 O   0  0  0  0  0  0  0  0  0  0  0  0
    7.0569    7.7396   20.7911 N   0  0  0  0  0  0  0  0  0  0  0  0
    8.0430    7.4215   21.1009 H   0  0  0  0  0  0  0  0  0  0  0  0
    2.4814    0.9604   16.7173 O   0  0  0  0  0  0  0  0  0  0  0  0
    2.5751    1.9061   15.7148 C   0  0  0  0  0  0  0  0  0  0  0  0
    2.9064    1.5923   14.4036 C   0  0  0  0  0  0  0  0  0  0  0  0
    2.9866    2.5690   13.4421 C   0  0  0  0  0  0  0  0  0  0  0  0
    2.7362    3.9077   13.7593 C   0  0  0  0  0  0  0  0  0  0  0  0
    2.4090    4.2419   15.0397 C   0  0  0  0  0  0  0  0  0  0  0  0
    2.3336    3.2202   16.0069 C   0  0  0  0  0  0  0  0  0  0  0  0
    2.1367    5.6164   15.4316 C   0  0  0  0  0  0  0  0  0  0  0  0
    2.7992    6.1941   16.3414 N   0  0  0  0  0  0  0  0  0  0  0  0
    1.1027    6.3323   14.7795 N   0  0  0  0  0  0  0  0  0  0  0  0
    3.5568    5.7473   16.8560 H   0  0  0  0  0  0  0  0  0  0  0  0
    0.3358    6.7256   15.3490 H   0  0  0  0  0  0  0  0  0  0  0  0
    1.1268    6.4518   13.7534 H   0  0  0  0  0  0  0  0  0  0  0  0
 17 18  1  0  0  0
 18 19  2  0  0  0
 18 20  1  0  0  0
 20 11  1  0  0  0
 11 12  2  0  0  0
 12 13  1  0  0  0
 13 14  2  0  0  0
 14 15  1  0  0  0
 15 10  1  0  0  0
 10  1  1  0  0  0
  1  2  2  0  0  0
  2  3  1  0  0  0
  3 22  1  0  0  0
 22 23  1  0  0  0
 23 24  2  0  0  0
 24 25  1  0  0  0
 25 26  2  0  0  0
 26 27  1  0  0  0
 27 29  1  0  0  0
 29 30  2  0  0  0
 29 31  1  0  0  0
 27 28  2  0  0  0
  3  4  2  0  0  0
  4  5  1  0  0  0
  4  6  1  0  0  0
  6  7  1  0  0  0
  6  8  2  0  0  0
  8  9  1  0  0  0
 15 16  2  0  0  0
 16 11  1  0  0  0
  8  1  1  0  0  0
 28 23  1  0  0  0
 20 21  1  0  0  0
 30 32  1  0  0  0
 31 33  1  0  0  0
 31 34  1  0  0  0
M  END
> <minimizedAffinity>
-8.31627

> <CNNscore>
0.3782042861

> <CNNaffinity>
6.4724359512

> <CNN_VS>
2.4479029179

> <CNNaffinity_variance>
0.1984693259

$$$$
[H]N=C(c1c([H])c([H])c([H])c(Oc2nc(Oc3c([H])c([H])c([H])c(N([H])C(=O)C([H])([H])[H])c3[H])c(F)c(C([H])([H])[H])c2F)c1[H])N([H])[H]


 34 36  0  0  0  0  0  0  0  0999 V2000
    4.6243    3.1130   21.2491 C   0  0  0  0  0  0  0  0  0  0  0  0
    4.9384    3.1591   19.9318 N   0  0  0  0  0  0  0  0  0  0  0  0
    4.6096    2.2210   19.0405 C   0  0  0  0  0  0  0  0  0  0  0  0
    3.8997    1.1209   19.4754 C   0  0  0  0  0  0  0  0  0  0  0  0
    3.5535    0.1508   18.5802 F   0  0  0  0  0  0  0  0  0  0  0  0
    3.5422    0.9995   20.7985 C   0  0  0  0  0  0  0  0  0  0  0  0
    2.7785   -0.1744   21.2899 C   0  0  0  0  0  0  0  0  0  0  0  0
    3.9154    2.0057   21.6612 C   0  0  0  0  0  0  0  0  0  0  0  0
    3.5374    1.8382   22.9640 F   0  0  0  0  0  0  0  0  0  0  0  0
    4.9946    4.1093   22.1005 O   0  0  0  0  0  0  0  0  0  0  0  0
    5.2154    7.5814   20.9324 C   0  0  0  0  0  0  0  0  0  0  0  0
    6.5687    7.7572   21.0846 C   0  0  0  0  0  0  0  0  0  0  0  0
    7.4191    6.7778   21.5577 C   0  0  0  0  0  0  0  0  0  0  0  0
    6.9217    5.5572   21.9025 C   0  0  0  0  0  0  0  0  0  0  0  0
    5.5749    5.3190   21.7732 C   0  0  0  0  0  0  0  0  0  0  0  0
    4.7550    6.3101   21.3006 C   0  0  0  0  0  0  0  0  0  0  0  0
    3.0365    9.9881   18.8383 C   0  0  0  0  0  0  0  0  0  0  0  0
    4.0593    8.9310   19.1319 C   0  0  0  0  0  0  0  0  0  0  0  0
    4.6415    8.4545   18.1508 O   0  0  0  0  0  0  0  0  0  0  0  0
    4.3049    8.5426   20.4396 N   0  0  0  0  0  0  0  0  0  0  0  0
    3.7345    9.0325   21.2169 H   0  0  0  0  0  0  0  0  0  0  0  0
    4.9819    2.3638   17.7042 O   0  0  0  0  0  0  0  0  0  0  0  0
    4.0723    2.6764   16.7127 C   0  0  0  0  0  0  0  0  0  0  0  0
    3.5800    1.7418   15.8119 C   0  0  0  0  0  0  0  0  0  0  0  0
    2.6760    2.1019   14.8434 C   0  0  0  0  0  0  0  0  0  0  0  0
    2.2271    3.4221   14.7390 C   0  0  0  0  0  0  0  0  0  0  0  0
    2.6954    4.3590   15.6116 C   0  0  0  0  0  0  0  0  0  0  0  0
    3.6224    3.9626   16.5958 C   0  0  0  0  0  0  0  0  0  0  0  0
    2.2661    5.7480   15.5544 C   0  0  0  0  0  0  0  0  0  0  0  0
    1.1390    6.0788   15.0848 N   0  0  0  0  0  0  0  0  0  0  0  0
    3.1299    6.7619   16.0369 N   0  0  0  0  0  0  0  0  0  0  0  0
    0.4632    5.4094   14.7194 H   0  0  0  0  0  0  0  0  0  0  0  0
    3.4096    7.5221   15.3958 H   0  0  0  0  0  0  0  0  0  0  0  0
    3.4666    6.7302   17.0133 H   0  0  0  0  0  0  0  0  0  0  0  0
 17 18  1  0  0  0
 18 19  2  0  0  0
 18 20  1  0  0  0
 20 11  1  0  0  0
 11 12  2  0  0  0
 12 13  1  0  0  0
 13 14  2  0  0  0
 14 15  1  0  0  0
 15 10  1  0  0  0
 10  1  1  0  0  0
  1  2  2  0  0  0
  2  3  1  0  0  0
  3 22  1  0  0  0
 22 23  1  0  0  0
 23 24  2  0  0  0
 24 25  1  0  0  0
 25 26  2  0  0  0
 26 27  1  0  0  0
 27 29  1  0  0  0
 29 30  2  0  0  0
 29 31  1  0  0  0
 27 28  2  0  0  0
  3  4  2  0  0  0
  4  5  1  0  0  0
  4  6  1  0  0  0
  6  7  1  0  0  0
  6  8  2  0  0  0
  8  9  1  0  0  0
 15 16  2  0  0  0
 16 11  1  0  0  0
  8  1  1  0  0  0
 28 23  1  0  0  0
 20 21  1  0  0  0
 30 32  1  0  0  0
 31 33  1  0  0  0
 31 34  1  0  0  0
M  END
> <minimizedAffinity>
-9.33184

> <CNNscore>
0.3135668039

> <CNNaffinity>
6.2080368996

> <CNN_VS>
1.9466342926

> <CNNaffinity_variance>
0.3023980856

$$$$
[H]N=C(c1c([H])c([H])c([H])c(Oc2nc(Oc3c([H])c([H])c([H])c(N([H])C(=O)C([H])([H])[H])c3[H])c(F)c(C([H])([H])[H])c2F)c1[H])N([H])[H]


 34 36  0  0  0  0  0  0  0  0999 V2000
    4.9634    2.4563   19.8810 C   0  0  0  0  0  0  0  0  0  0  0  0
    4.6321    2.4241   18.5675 N   0  0  0  0  0  0  0  0  0  0  0  0
    3.7997    1.5372   18.0169 C   0  0  0  0  0  0  0  0  0  0  0  0
    3.2280    0.5797   18.8291 C   0  0  0  0  0  0  0  0  0  0  0  0
    2.3742   -0.3358   18.2859 F   0  0  0  0  0  0  0  0  0  0  0  0
    3.5136    0.5449   20.1746 C   0  0  0  0  0  0  0  0  0  0  0  0
    2.9109   -0.4753   21.0682 C   0  0  0  0  0  0  0  0  0  0  0  0
    4.3810    1.4910   20.6732 C   0  0  0  0  0  0  0  0  0  0  0  0
    4.6328    1.4139   22.0145 F   0  0  0  0  0  0  0  0  0  0  0  0
    5.8215    3.3927   20.3720 O   0  0  0  0  0  0  0  0  0  0  0  0
    5.7008    7.0106   19.7676 C   0  0  0  0  0  0  0  0  0  0  0  0
    5.1040    7.3895   20.9448 C   0  0  0  0  0  0  0  0  0  0  0  0
    4.7364    6.5021   21.9365 C   0  0  0  0  0  0  0  0  0  0  0  0
    4.9633    5.1690   21.7713 C   0  0  0  0  0  0  0  0  0  0  0  0
    5.5575    4.7265   20.6143 C   0  0  0  0  0  0  0  0  0  0  0  0
    5.9118    5.6305   19.6473 C   0  0  0  0  0  0  0  0  0  0  0  0
    7.5908    9.1661   17.1779 C   0  0  0  0  0  0  0  0  0  0  0  0
    7.3902    8.2091   18.3152 C   0  0  0  0  0  0  0  0  0  0  0  0
    8.4196    7.7596   18.8318 O   0  0  0  0  0  0  0  0  0  0  0  0
    6.1098    7.8768   18.7293 N   0  0  0  0  0  0  0  0  0  0  0  0
    5.2844    8.3354   18.2019 H   0  0  0  0  0  0  0  0  0  0  0  0
    3.5239    1.5903   16.6509 O   0  0  0  0  0  0  0  0  0  0  0  0
    3.2207    2.7722   16.0034 C   0  0  0  0  0  0  0  0  0  0  0  0
    2.5021    3.8008   16.5976 C   0  0  0  0  0  0  0  0  0  0  0  0
    2.2261    4.9577   15.9118 C   0  0  0  0  0  0  0  0  0  0  0  0
    2.6624    5.1301   14.5945 C   0  0  0  0  0  0  0  0  0  0  0  0
    3.3698    4.1349   13.9884 C   0  0  0  0  0  0  0  0  0  0  0  0
    3.6393    2.9581   14.7147 C   0  0  0  0  0  0  0  0  0  0  0  0
    3.8513    4.2548   12.6207 C   0  0  0  0  0  0  0  0  0  0  0  0
    3.4592    3.4752   11.7048 N   0  0  0  0  0  0  0  0  0  0  0  0
    4.7848    5.2712   12.3000 N   0  0  0  0  0  0  0  0  0  0  0  0
    2.7906    2.7212   11.8557 H   0  0  0  0  0  0  0  0  0  0  0  0
    5.6906    4.9997   11.8840 H   0  0  0  0  0  0  0  0  0  0  0  0
    4.5520    6.2610   12.4835 H   0  0  0  0  0  0  0  0  0  0  0  0
 17 18  1  0  0  0
 18 19  2  0  0  0
 18 20  1  0  0  0
 20 11  1  0  0  0
 11 12  2  0  0  0
 12 13  1  0  0  0
 13 14  2  0  0  0
 14 15  1  0  0  0
 15 10  1  0  0  0
 10  1  1  0  0  0
  1  2  2  0  0  0
  2  3  1  0  0  0
  3 22  1  0  0  0
 22 23  1  0  0  0
 23 24  2  0  0  0
 24 25  1  0  0  0
 25 26  2  0  0  0
 26 27  1  0  0  0
 27 29  1  0  0  0
 29 30  2  0  0  0
 29 31  1  0  0  0
 27 28  2  0  0  0
  3  4  2  0  0  0
  4  5  1  0  0  0
  4  6  1  0  0  0
  6  7  1  0  0  0
  6  8  2  0  0  0
  8  9  1  0  0  0
 15 16  2  0  0  0
 16 11  1  0  0  0
  8  1  1  0  0  0
 28 23  1  0  0  0
 20 21  1  0  0  0
 30 32  1  0  0  0
 31 33  1  0  0  0
 31 34  1  0  0  0
M  END
> <minimizedAffinity>
-8.09587

> <CNNscore>
0.3102659881

> <CNNaffinity>
6.1039028168

> <CNN_VS>
1.8938333988

> <CNNaffinity_variance>
0.4063963890

$$$$
[H]N=C(c1c([H])c([H])c([H])c(Oc2nc(Oc3c([H])c([H])c([H])c(N([H])C(=O)C([H])([H])[H])c3[H])c(F)c(C([H])([H])[H])c2F)c1[H])N([H])[H]


 34 36  0  0  0  0  0  0  0  0999 V2000
    4.5941    4.1164   20.8521 C   0  0  0  0  0  0  0  0  0  0  0  0
    4.8207    3.5580   19.6384 N   0  0  0  0  0  0  0  0  0  0  0  0
    4.6080    2.2734   19.3430 C   0  0  0  0  0  0  0  0  0  0  0  0
    4.1232    1.4429   20.3322 C   0  0  0  0  0  0  0  0  0  0  0  0
    3.8988    0.1266   20.0507 F   0  0  0  0  0  0  0  0  0  0  0  0
    3.8672    1.9334   21.5919 C   0  0  0  0  0  0  0  0  0  0  0  0
    3.3455    1.0596   22.6722 C   0  0  0  0  0  0  0  0  0  0  0  0
    4.1103    3.2686   21.8245 C   0  0  0  0  0  0  0  0  0  0  0  0
    3.8408    3.7069   23.0909 F   0  0  0  0  0  0  0  0  0  0  0  0
    4.8353    5.4371   21.0798 O   0  0  0  0  0  0  0  0  0  0  0  0
    7.9442    6.7595   22.5131 C   0  0  0  0  0  0  0  0  0  0  0  0
    8.4841    7.2869   21.3660 C   0  0  0  0  0  0  0  0  0  0  0  0
    7.8671    7.2270   20.1323 C   0  0  0  0  0  0  0  0  0  0  0  0
    6.6546    6.6180   20.0097 C   0  0  0  0  0  0  0  0  0  0  0  0
    6.0620    6.0701   21.1216 C   0  0  0  0  0  0  0  0  0  0  0  0
    6.6979    6.1448   22.3331 C   0  0  0  0  0  0  0  0  0  0  0  0
   10.1150    6.3938   25.6879 C   0  0  0  0  0  0  0  0  0  0  0  0
    9.6865    6.2082   24.2625 C   0  0  0  0  0  0  0  0  0  0  0  0
   10.4252    5.5058   23.5628 O   0  0  0  0  0  0  0  0  0  0  0  0
    8.5248    6.8065   23.8001 N   0  0  0  0  0  0  0  0  0  0  0  0
    7.9578    7.3979   24.5061 H   0  0  0  0  0  0  0  0  0  0  0  0
    4.8743    1.7968   18.0598 O   0  0  0  0  0  0  0  0  0  0  0  0
    4.0355    2.0444   16.9905 C   0  0  0  0  0  0  0  0  0  0  0  0
    3.2085    1.0779   16.4345 C   0  0  0  0  0  0  0  0  0  0  0  0
    2.3917    1.3735   15.3713 C   0  0  0  0  0  0  0  0  0  0  0  0
    2.3719    2.6583   14.8198 C   0  0  0  0  0  0  0  0  0  0  0  0
    3.1747    3.6254   15.3476 C   0  0  0  0  0  0  0  0  0  0  0  0
    4.0031    3.2953   16.4384 C   0  0  0  0  0  0  0  0  0  0  0  0
    3.1985    4.9805   14.8184 C   0  0  0  0  0  0  0  0  0  0  0  0
    3.9999    5.3245   13.9020 N   0  0  0  0  0  0  0  0  0  0  0  0
    2.3015    5.9451   15.3398 N   0  0  0  0  0  0  0  0  0  0  0  0
    4.6739    4.6899   13.4763 H   0  0  0  0  0  0  0  0  0  0  0  0
    2.6872    6.8140   15.7443 H   0  0  0  0  0  0  0  0  0  0  0  0
    1.2834    5.7710   15.3101 H   0  0  0  0  0  0  0  0  0  0  0  0
 17 18  1  0  0  0
 18 19  2  0  0  0
 18 20  1  0  0  0
 20 11  1  0  0  0
 11 12  2  0  0  0
 12 13  1  0  0  0
 13 14  2  0  0  0
 14 15  1  0  0  0
 15 10  1  0  0  0
 10  1  1  0  0  0
  1  2  2  0  0  0
  2  3  1  0  0  0
  3 22  1  0  0  0
 22 23  1  0  0  0
 23 24  2  0  0  0
 24 25  1  0  0  0
 25 26  2  0  0  0
 26 27  1  0  0  0
 27 29  1  0  0  0
 29 30  2  0  0  0
 29 31  1  0  0  0
 27 28  2  0  0  0
  3  4  2  0  0  0
  4  5  1  0  0  0
  4  6  1  0  0  0
  6  7  1  0  0  0
  6  8  2  0  0  0
  8  9  1  0  0  0
 15 16  2  0  0  0
 16 11  1  0  0  0
  8  1  1  0  0  0
 28 23  1  0  0  0
 20 21  1  0  0  0
 30 32  1  0  0  0
 31 33  1  0  0  0
 31 34  1  0  0  0
M  END
> <minimizedAffinity>
-8.90954

> <CNNscore>
0.2705717981

> <CNNaffinity>
6.1906328201

> <CNN_VS>
1.6750106812

> <CNNaffinity_variance>
0.3682692349

$$$$
[H]N=C(c1c([H])c([H])c([H])c(Oc2nc(Oc3c([H])c([H])c([H])c(N([H])C(=O)C([H])([H])[H])c3[H])c(F)c(C([H])([H])[H])c2F)c1[H])N([H])[H]


 34 36  0  0  0  0  0  0  0  0999 V2000
    4.8744    2.1673   19.7849 C   0  0  0  0  0  0  0  0  0  0  0  0
    5.2441    3.4004   20.2077 N   0  0  0  0  0  0  0  0  0  0  0  0
    5.0085    3.8856   21.4291 C   0  0  0  0  0  0  0  0  0  0  0  0
    4.3429    3.0874   22.3364 C   0  0  0  0  0  0  0  0  0  0  0  0
    4.0924    3.5644   23.5902 F   0  0  0  0  0  0  0  0  0  0  0  0
    3.9339    1.8218   21.9843 C   0  0  0  0  0  0  0  0  0  0  0  0
    3.2165    0.9448   22.9429 C   0  0  0  0  0  0  0  0  0  0  0  0
    4.2112    1.3877   20.7073 C   0  0  0  0  0  0  0  0  0  0  0  0
    3.7841    0.1246   20.4063 F   0  0  0  0  0  0  0  0  0  0  0  0
    5.1496    1.7401   18.5215 O   0  0  0  0  0  0  0  0  0  0  0  0
    3.4851    3.1143   15.5533 C   0  0  0  0  0  0  0  0  0  0  0  0
    2.7208    2.0205   15.2290 C   0  0  0  0  0  0  0  0  0  0  0  0
    2.7279    0.8419   15.9480 C   0  0  0  0  0  0  0  0  0  0  0  0
    3.5258    0.7224   17.0458 C   0  0  0  0  0  0  0  0  0  0  0  0
    4.3150    1.7823   17.4220 C   0  0  0  0  0  0  0  0  0  0  0  0
    4.2871    2.9399   16.6892 C   0  0  0  0  0  0  0  0  0  0  0  0
    2.8604    6.6510   14.1298 C   0  0  0  0  0  0  0  0  0  0  0  0
    2.6503    5.4320   14.9782 C   0  0  0  0  0  0  0  0  0  0  0  0
    1.6914    5.4742   15.7575 O   0  0  0  0  0  0  0  0  0  0  0  0
    3.5042    4.3463   14.8624 N   0  0  0  0  0  0  0  0  0  0  0  0
    4.3085    4.4237   14.1436 H   0  0  0  0  0  0  0  0  0  0  0  0
    5.4316    5.1711   21.7653 O   0  0  0  0  0  0  0  0  0  0  0  0
    5.7714    6.1106   20.8114 C   0  0  0  0  0  0  0  0  0  0  0  0
    7.0847    6.4229   20.4872 C   0  0  0  0  0  0  0  0  0  0  0  0
    7.3715    7.3649   19.5306 C   0  0  0  0  0  0  0  0  0  0  0  0
    6.3461    8.0357   18.8569 C   0  0  0  0  0  0  0  0  0  0  0  0
    5.0480    7.7473   19.1569 C   0  0  0  0  0  0  0  0  0  0  0  0
    4.7816    6.7764   20.1425 C   0  0  0  0  0  0  0  0  0  0  0  0
    3.9375    8.4105   18.4905 C   0  0  0  0  0  0  0  0  0  0  0  0
    3.7860    8.3590   17.2357 N   0  0  0  0  0  0  0  0  0  0  0  0
    2.9968    9.1348   19.2635 N   0  0  0  0  0  0  0  0  0  0  0  0
    4.4186    7.8591   16.6125 H   0  0  0  0  0  0  0  0  0  0  0  0
    2.8452   10.1345   19.0517 H   0  0  0  0  0  0  0  0  0  0  0  0
    2.4789    8.6608   20.0216 H   0  0  0  0  0  0  0  0  0  0  0  0
 17 18  1  0  0  0
 18 19  2  0  0  0
 18 20  1  0  0  0
 20 11  1  0  0  0
 11 12  2  0  0  0
 12 13  1  0  0  0
 13 14  2  0  0  0
 14 15  1  0  0  0
 15 10  1  0  0  0
 10  1  1  0  0  0
  1  2  2  0  0  0
  2  3  1  0  0  0
  3 22  1  0  0  0
 22 23  1  0  0  0
 23 24  2  0  0  0
 24 25  1  0  0  0
 25 26  2  0  0  0
 26 27  1  0  0  0
 27 29  1  0  0  0
 29 30  2  0  0  0
 29 31  1  0  0  0
 27 28  2  0  0  0
  3  4  2  0  0  0
  4  5  1  0  0  0
  4  6  1  0  0  0
  6  7  1  0  0  0
  6  8  2  0  0  0
  8  9  1  0  0  0
 15 16  2  0  0  0
 16 11  1  0  0  0
  8  1  1  0  0  0
 28 23  1  0  0  0
 20 21  1  0  0  0
 30 32  1  0  0  0
 31 33  1  0  0  0
 31 34  1  0  0  0
M  END
> <minimizedAffinity>
-9.08589

> <CNNscore>
0.2676793933

> <CNNaffinity>
6.1431055069

> <CNN_VS>
1.6443827152

> <CNNaffinity_variance>
0.4049212039

$$$$
[H]N=C(c1c([H])c([H])c([H])c(Oc2nc(Oc3c([H])c([H])c([H])c(N([H])C(=O)C([H])([H])[H])c3[H])c(F)c(C([H])([H])[H])c2F)c1[H])N([H])[H]


 34 36  0  0  0  0  0  0  0  0999 V2000
    5.3209    3.3452   20.5224 C   0  0  0  0  0  0  0  0  0  0  0  0
    5.1145    2.8336   19.2848 N   0  0  0  0  0  0  0  0  0  0  0  0
    4.3369    1.7813   19.0192 C   0  0  0  0  0  0  0  0  0  0  0  0
    3.6908    1.1599   20.0678 C   0  0  0  0  0  0  0  0  0  0  0  0
    2.8912    0.0828   19.8176 F   0  0  0  0  0  0  0  0  0  0  0  0
    3.8486    1.6190   21.3552 C   0  0  0  0  0  0  0  0  0  0  0  0
    3.1639    0.9672   22.4994 C   0  0  0  0  0  0  0  0  0  0  0  0
    4.6660    2.7091   21.5543 C   0  0  0  0  0  0  0  0  0  0  0  0
    4.7905    3.1260   22.8501 F   0  0  0  0  0  0  0  0  0  0  0  0
    6.1298    4.4233   20.7170 O   0  0  0  0  0  0  0  0  0  0  0  0
    5.9042    7.8089   22.1154 C   0  0  0  0  0  0  0  0  0  0  0  0
    5.0928    8.3663   21.1581 C   0  0  0  0  0  0  0  0  0  0  0  0
    4.6123    7.6738   20.0646 C   0  0  0  0  0  0  0  0  0  0  0  0
    4.9420    6.3629   19.8943 C   0  0  0  0  0  0  0  0  0  0  0  0
    5.7515    5.7477   20.8183 C   0  0  0  0  0  0  0  0  0  0  0  0
    6.2133    6.4602   21.8939 C   0  0  0  0  0  0  0  0  0  0  0  0
    7.9567    9.7426   24.7560 C   0  0  0  0  0  0  0  0  0  0  0  0
    7.6255    9.1081   23.4379 C   0  0  0  0  0  0  0  0  0  0  0  0
    8.4914    9.2008   22.5603 O   0  0  0  0  0  0  0  0  0  0  0  0
    6.4098    8.4668   23.2587 N   0  0  0  0  0  0  0  0  0  0  0  0
    5.7314    8.4477   24.1008 H   0  0  0  0  0  0  0  0  0  0  0  0
    4.1908    1.3323   17.7070 O   0  0  0  0  0  0  0  0  0  0  0  0
    3.9251    2.1902   16.6574 C   0  0  0  0  0  0  0  0  0  0  0  0
    4.4347    3.4794   16.5829 C   0  0  0  0  0  0  0  0  0  0  0  0
    4.1416    4.2946   15.5178 C   0  0  0  0  0  0  0  0  0  0  0  0
    3.3202    3.8464   14.4786 C   0  0  0  0  0  0  0  0  0  0  0  0
    2.8071    2.5844   14.5281 C   0  0  0  0  0  0  0  0  0  0  0  0
    3.1238    1.7688   15.6324 C   0  0  0  0  0  0  0  0  0  0  0  0
    1.9472    2.0606   13.4779 C   0  0  0  0  0  0  0  0  0  0  0  0
    0.7396    1.7534   13.6960 N   0  0  0  0  0  0  0  0  0  0  0  0
    2.4714    1.8881   12.1730 N   0  0  0  0  0  0  0  0  0  0  0  0
    0.2902    1.8486   14.6055 H   0  0  0  0  0  0  0  0  0  0  0  0
    2.4364    0.9489   11.7443 H   0  0  0  0  0  0  0  0  0  0  0  0
    2.8783    2.6941   11.6706 H   0  0  0  0  0  0  0  0  0  0  0  0
 17 18  1  0  0  0
 18 19  2  0  0  0
 18 20  1  0  0  0
 20 11  1  0  0  0
 11 12  2  0  0  0
 12 13  1  0  0  0
 13 14  2  0  0  0
 14 15  1  0  0  0
 15 10  1  0  0  0
 10  1  1  0  0  0
  1  2  2  0  0  0
  2  3  1  0  0  0
  3 22  1  0  0  0
 22 23  1  0  0  0
 23 24  2  0  0  0
 24 25  1  0  0  0
 25 26  2  0  0  0
 26 27  1  0  0  0
 27 29  1  0  0  0
 29 30  2  0  0  0
 29 31  1  0  0  0
 27 28  2  0  0  0
  3  4  2  0  0  0
  4  5  1  0  0  0
  4  6  1  0  0  0
  6  7  1  0  0  0
  6  8  2  0  0  0
  8  9  1  0  0  0
 15 16  2  0  0  0
 16 11  1  0  0  0
  8  1  1  0  0  0
 28 23  1  0  0  0
 20 21  1  0  0  0
 30 32  1  0  0  0
 31 33  1  0  0  0
 31 34  1  0  0  0
M  END
> <minimizedAffinity>
-8.92339

> <CNNscore>
0.2489620149

> <CNNaffinity>
6.0215778351

> <CNN_VS>
1.4991441965

> <CNNaffinity_variance>
0.4057515562

$$$$
[H]N=C(c1c([H])c([H])c([H])c(Oc2nc(Oc3c([H])c([H])c([H])c(N([H])C(=O)C([H])([H])[H])c3[H])c(F)c(C([H])([H])[H])c2F)c1[H])N([H])[H]


 34 36  0  0  0  0  0  0  0  0999 V2000
    4.3239    1.8510   19.2757 C   0  0  0  0  0  0  0  0  0  0  0  0
    5.0591    2.8257   18.6879 N   0  0  0  0  0  0  0  0  0  0  0  0
    5.0012    3.1421   17.3920 C   0  0  0  0  0  0  0  0  0  0  0  0
    4.1366    2.4365   16.5810 C   0  0  0  0  0  0  0  0  0  0  0  0
    4.0622    2.7446   15.2537 F   0  0  0  0  0  0  0  0  0  0  0  0
    3.3551    1.4310   17.1018 C   0  0  0  0  0  0  0  0  0  0  0  0
    2.4177    0.6582   16.2493 C   0  0  0  0  0  0  0  0  0  0  0  0
    3.4675    1.1594   18.4470 C   0  0  0  0  0  0  0  0  0  0  0  0
    2.6712    0.1521   18.9155 F   0  0  0  0  0  0  0  0  0  0  0  0
    4.4368    1.5841   20.6063 O   0  0  0  0  0  0  0  0  0  0  0  0
    4.1055    4.8132   22.3185 C   0  0  0  0  0  0  0  0  0  0  0  0
    4.0328    4.3483   23.6085 C   0  0  0  0  0  0  0  0  0  0  0  0
    4.0884    3.0101   23.9438 C   0  0  0  0  0  0  0  0  0  0  0  0
    4.2221    2.0714   22.9656 C   0  0  0  0  0  0  0  0  0  0  0  0
    4.3000    2.4733   21.6541 C   0  0  0  0  0  0  0  0  0  0  0  0
    4.2423    3.8085   21.3513 C   0  0  0  0  0  0  0  0  0  0  0  0
    4.8401    8.4394   21.2066 C   0  0  0  0  0  0  0  0  0  0  0  0
    5.1158    7.0187   21.6007 C   0  0  0  0  0  0  0  0  0  0  0  0
    6.3054    6.6822   21.6140 O   0  0  0  0  0  0  0  0  0  0  0  0
    4.0691    6.1689   21.9228 N   0  0  0  0  0  0  0  0  0  0  0  0
    3.0685    6.5767   21.8774 H   0  0  0  0  0  0  0  0  0  0  0  0
    5.8021    4.1648   16.8848 O   0  0  0  0  0  0  0  0  0  0  0  0
    5.6042    5.4915   17.2149 C   0  0  0  0  0  0  0  0  0  0  0  0
    4.3709    6.1219   17.1195 C   0  0  0  0  0  0  0  0  0  0  0  0
    4.2249    7.4438   17.4601 C   0  0  0  0  0  0  0  0  0  0  0  0
    5.3169    8.1910   17.9126 C   0  0  0  0  0  0  0  0  0  0  0  0
    6.5388    7.5952   18.0151 C   0  0  0  0  0  0  0  0  0  0  0  0
    6.6609    6.2375   17.6591 C   0  0  0  0  0  0  0  0  0  0  0  0
    7.7123    8.3191   18.4796 C   0  0  0  0  0  0  0  0  0  0  0  0
    8.2899    9.1847   17.7603 N   0  0  0  0  0  0  0  0  0  0  0  0
    8.2263    8.0514   19.7723 N   0  0  0  0  0  0  0  0  0  0  0  0
    7.9812    9.4330   16.8214 H   0  0  0  0  0  0  0  0  0  0  0  0
    9.2087    7.7446   19.8621 H   0  0  0  0  0  0  0  0  0  0  0  0
    7.6201    8.1645   20.6014 H   0  0  0  0  0  0  0  0  0  0  0  0
 17 18  1  0  0  0
 18 19  2  0  0  0
 18 20  1  0  0  0
 20 11  1  0  0  0
 11 12  2  0  0  0
 12 13  1  0  0  0
 13 14  2  0  0  0
 14 15  1  0  0  0
 15 10  1  0  0  0
 10  1  1  0  0  0
  1  2  2  0  0  0
  2  3  1  0  0  0
  3 22  1  0  0  0
 22 23  1  0  0  0
 23 24  2  0  0  0
 24 25  1  0  0  0
 25 26  2  0  0  0
 26 27  1  0  0  0
 27 29  1  0  0  0
 29 30  2  0  0  0
 29 31  1  0  0  0
 27 28  2  0  0  0
  3  4  2  0  0  0
  4  5  1  0  0  0
  4  6  1  0  0  0
  6  7  1  0  0  0
  6  8  2  0  0  0
  8  9  1  0  0  0
 15 16  2  0  0  0
 16 11  1  0  0  0
  8  1  1  0  0  0
 28 23  1  0  0  0
 20 21  1  0  0  0
 30 32  1  0  0  0
 31 33  1  0  0  0
 31 34  1  0  0  0
M  END
> <minimizedAffinity>
-9.21200

> <CNNscore>
0.2351977229

> <CNNaffinity>
6.0513401031

> <CNN_VS>
1.4232614040

> <CNNaffinity_variance>
0.4612883031

$$$$
[H]N=C(c1c([H])c([H])c([H])c(Oc2nc(Oc3c([H])c([H])c([H])c(N([H])C(=O)C([H])([H])[H])c3[H])c(F)c(C([H])([H])[H])c2F)c1[H])N([H])[H]


 34 36  0  0  0  0  0  0  0  0999 V2000
    4.7604    3.9644   16.9586 C   0  0  0  0  0  0  0  0  0  0  0  0
    4.8176    3.1350   18.0286 N   0  0  0  0  0  0  0  0  0  0  0  0
    4.2860    1.9108   18.0685 C   0  0  0  0  0  0  0  0  0  0  0  0
    3.6290    1.4426   16.9493 C   0  0  0  0  0  0  0  0  0  0  0  0
    3.0788    0.1940   16.9695 F   0  0  0  0  0  0  0  0  0  0  0  0
    3.5273    2.2243   15.8216 C   0  0  0  0  0  0  0  0  0  0  0  0
    2.8257    1.7425   14.6058 C   0  0  0  0  0  0  0  0  0  0  0  0
    4.0996    3.4764   15.8525 C   0  0  0  0  0  0  0  0  0  0  0  0
    3.9709    4.2137   14.7087 F   0  0  0  0  0  0  0  0  0  0  0  0
    5.3270    5.2023   16.9914 O   0  0  0  0  0  0  0  0  0  0  0  0
    6.0391    7.4452   19.8076 C   0  0  0  0  0  0  0  0  0  0  0  0
    4.8471    8.1265   19.8262 C   0  0  0  0  0  0  0  0  0  0  0  0
    3.8110    7.8798   18.9476 C   0  0  0  0  0  0  0  0  0  0  0  0
    3.9448    6.9140   17.9961 C   0  0  0  0  0  0  0  0  0  0  0  0
    5.1146    6.1969   17.9257 C   0  0  0  0  0  0  0  0  0  0  0  0
    6.1257    6.4636   18.8113 C   0  0  0  0  0  0  0  0  0  0  0  0
    8.5880    7.4552   22.7108 C   0  0  0  0  0  0  0  0  0  0  0  0
    7.3557    7.0886   21.9382 C   0  0  0  0  0  0  0  0  0  0  0  0
    6.5958    6.2803   22.4838 O   0  0  0  0  0  0  0  0  0  0  0  0
    7.1230    7.6469   20.6910 N   0  0  0  0  0  0  0  0  0  0  0  0
    7.8589    8.3450   20.3160 H   0  0  0  0  0  0  0  0  0  0  0  0
    4.4005    1.1351   19.2216 O   0  0  0  0  0  0  0  0  0  0  0  0
    4.8510    1.6542   20.4199 C   0  0  0  0  0  0  0  0  0  0  0  0
    6.0079    1.2160   21.0500 C   0  0  0  0  0  0  0  0  0  0  0  0
    6.4146    1.7642   22.2412 C   0  0  0  0  0  0  0  0  0  0  0  0
    5.6724    2.7800   22.8518 C   0  0  0  0  0  0  0  0  0  0  0  0
    4.5324    3.2278   22.2534 C   0  0  0  0  0  0  0  0  0  0  0  0
    4.1378    2.6481   21.0314 C   0  0  0  0  0  0  0  0  0  0  0  0
    3.7179    4.2818   22.8386 C   0  0  0  0  0  0  0  0  0  0  0  0
    3.0077    4.0829   23.8664 N   0  0  0  0  0  0  0  0  0  0  0  0
    3.7168    5.5685   22.2455 N   0  0  0  0  0  0  0  0  0  0  0  0
    2.9554    3.1873   24.3495 H   0  0  0  0  0  0  0  0  0  0  0  0
    2.8178    5.9700   21.9329 H   0  0  0  0  0  0  0  0  0  0  0  0
    4.6047    6.0848   22.1335 H   0  0  0  0  0  0  0  0  0  0  0  0
 17 18  1  0  0  0
 18 19  2  0  0  0
 18 20  1  0  0  0
 20 11  1  0  0  0
 11 12  2  0  0  0
 12 13  1  0  0  0
 13 14  2  0  0  0
 14 15  1  0  0  0
 15 10  1  0  0  0
 10  1  1  0  0  0
  1  2  2  0  0  0
  2  3  1  0  0  0
  3 22  1  0  0  0
 22 23  1  0  0  0
 23 24  2  0  0  0
 24 25  1  0  0  0
 25 26  2  0  0  0
 26 27  1  0  0  0
 27 29  1  0  0  0
 29 30  2  0  0  0
 29 31  1  0  0  0
 27 28  2  0  0  0
  3  4  2  0  0  0
  4  5  1  0  0  0
  4  6  1  0  0  0
  6  7  1  0  0  0
  6  8  2  0  0  0
  8  9  1  0  0  0
 15 16  2  0  0  0
 16 11  1  0  0  0
  8  1  1  0  0  0
 28 23  1  0  0  0
 20 21  1  0  0  0
 30 32  1  0  0  0
 31 33  1  0  0  0
 31 34  1  0  0  0
M  END
> <minimizedAffinity>
-9.43313

> <CNNscore>
0.2278322875

> <CNNaffinity>
6.1021399498

> <CNN_VS>
1.3902645111

> <CNNaffinity_variance>
0.5258280039

$$$$
[H]c1c([H])c(C(N=[N+]=[N-])(C([H])([H])[H])C([H])([H])[H])c(Cl)c([H])c1C(F)(F)F


 17 17  0  0  0  0  0  0  0  0999 V2000
    4.7534    2.6889   20.7660 C   0  0  0  0  0  0  0  0  0  0  0  0
    5.1452    3.4347   19.6340 C   0  0  0  0  0  0  0  0  0  0  0  0
    4.7061    2.9325   18.4413 C   0  0  0  0  0  0  0  0  0  0  0  0
    3.9751    1.8203   18.2307 C   0  0  0  0  0  0  0  0  0  0  0  0
    3.5936    1.0778   19.3761 C   0  0  0  0  0  0  0  0  0  0  0  0
    3.9983    1.5412   20.6345 C   0  0  0  0  0  0  0  0  0  0  0  0
    3.5435    0.5951   22.0656 Cl  0  0  0  0  0  0  0  0  0  0  0  0
    3.5065    1.3401   16.9043 C   0  0  0  0  0  0  0  0  0  0  0  0
    3.6714   -0.0345   16.7480 F   0  0  0  0  0  0  0  0  0  0  0  0
    4.0716    2.0339   15.8865 F   0  0  0  0  0  0  0  0  0  0  0  0
    2.1183    1.4992   16.7873 F   0  0  0  0  0  0  0  0  0  0  0  0
    6.0369    4.4191   21.9750 C   0  0  0  0  0  0  0  0  0  0  0  0
    5.0731    3.1953   22.1287 C   0  0  0  0  0  0  0  0  0  0  0  0
    3.8946    3.7001   22.8839 C   0  0  0  0  0  0  0  0  0  0  0  0
    5.7821    2.2069   22.9068 N   0  0  0  0  0  0  0  0  0  0  0  0
    5.6734    2.1960   24.1107 N   0  0  0  0  0  0  0  0  0  0  0  0
    5.9836    1.6442   25.2161 N   0  0  0  0  0  0  0  0  0  0  0  0
 12 13  1  0  0  0
 13 14  1  0  0  0
 13 15  1  0  0  0
 15 16  2  0  0  0
 16 17  2  0  0  0
 13  1  1  0  0  0
  1  2  2  0  0  0
  2  3  1  0  0  0
  3  4  2  0  0  0
  4  8  1  0  0  0
  8  9  1  0  0  0
  8 10  1  0  0  0
  8 11  1  0  0  0
  4  5  1  0  0  0
  5  6  2  0  0  0
  6  7  1  0  0  0
  6  1  1  0  0  0
M  CHG 1  16   1
M  CHG 1  17  -1
M  END
> <minimizedAffinity>
-6.82542

> <CNNscore>
0.6623526812

> <CNNaffinity>
5.4572076797

> <CNN_VS>
3.6145961285

> <CNNaffinity_variance>
0.3199811280

$$$$
[H]c1c([H])c(C(N=[N+]=[N-])(C([H])([H])[H])C([H])([H])[H])c(Cl)c([H])c1C(F)(F)F


 17 17  0  0  0  0  0  0  0  0999 V2000
    4.8418    2.7576   20.2507 C   0  0  0  0  0  0  0  0  0  0  0  0
    5.0105    3.3535   18.9828 C   0  0  0  0  0  0  0  0  0  0  0  0
    4.4422    2.6635   17.9492 C   0  0  0  0  0  0  0  0  0  0  0  0
    3.7722    1.4957   18.0032 C   0  0  0  0  0  0  0  0  0  0  0  0
    3.6152    0.9055   19.2822 C   0  0  0  0  0  0  0  0  0  0  0  0
    4.1619    1.5647   20.3907 C   0  0  0  0  0  0  0  0  0  0  0  0
    3.9888    0.8103   21.9878 Cl  0  0  0  0  0  0  0  0  0  0  0  0
    3.1539    0.8068   16.8402 C   0  0  0  0  0  0  0  0  0  0  0  0
    3.2620   -0.5797   16.9245 F   0  0  0  0  0  0  0  0  0  0  0  0
    3.6291    1.2780   15.6617 F   0  0  0  0  0  0  0  0  0  0  0  0
    1.7663    1.0077   16.8318 F   0  0  0  0  0  0  0  0  0  0  0  0
    4.0739    3.7509   22.3783 C   0  0  0  0  0  0  0  0  0  0  0  0
    5.3164    3.4697   21.4685 C   0  0  0  0  0  0  0  0  0  0  0  0
    6.2618    2.6830   22.3059 C   0  0  0  0  0  0  0  0  0  0  0  0
    5.8867    4.7551   21.1404 N   0  0  0  0  0  0  0  0  0  0  0  0
    6.6352    5.2989   21.9185 N   0  0  0  0  0  0  0  0  0  0  0  0
    7.3823    6.2978   22.1764 N   0  0  0  0  0  0  0  0  0  0  0  0
 12 13  1  0  0  0
 13 14  1  0  0  0
 13 15  1  0  0  0
 15 16  2  0  0  0
 16 17  2  0  0  0
 13  1  1  0  0  0
  1  2  2  0  0  0
  2  3  1  0  0  0
  3  4  2  0  0  0
  4  8  1  0  0  0
  8  9  1  0  0  0
  8 10  1  0  0  0
  8 11  1  0  0  0
  4  5  1  0  0  0
  5  6  2  0  0  0
  6  7  1  0  0  0
  6  1  1  0  0  0
M  CHG 1  16   1
M  CHG 1  17  -1
M  END
> <minimizedAffinity>
-6.72093

> <CNNscore>
0.5914714336

> <CNNaffinity>
5.2587509155

> <CNN_VS>
3.1104009151

> <CNNaffinity_variance>
0.3266072273

$$$$
[H]c1c([H])c(C(N=[N+]=[N-])(C([H])([H])[H])C([H])([H])[H])c(Cl)c([H])c1C(F)(F)F


 17 17  0  0  0  0  0  0  0  0999 V2000
    4.1014    1.4775   19.4770 C   0  0  0  0  0  0  0  0  0  0  0  0
    3.4095    0.5825   18.6335 C   0  0  0  0  0  0  0  0  0  0  0  0
    3.2338    1.0271   17.3533 C   0  0  0  0  0  0  0  0  0  0  0  0
    3.6212    2.2049   16.8259 C   0  0  0  0  0  0  0  0  0  0  0  0
    4.3099    3.0966   17.6859 C   0  0  0  0  0  0  0  0  0  0  0  0
    4.5371    2.7011   19.0104 C   0  0  0  0  0  0  0  0  0  0  0  0
    5.3748    3.8302   20.0936 Cl  0  0  0  0  0  0  0  0  0  0  0  0
    3.4209    2.6194   15.4126 C   0  0  0  0  0  0  0  0  0  0  0  0
    3.4032    1.5351   14.5379 F   0  0  0  0  0  0  0  0  0  0  0  0
    4.3175    3.5607   15.0295 F   0  0  0  0  0  0  0  0  0  0  0  0
    2.1451    3.1750   15.2404 F   0  0  0  0  0  0  0  0  0  0  0  0
    3.7519   -0.3081   21.1481 C   0  0  0  0  0  0  0  0  0  0  0  0
    4.4546    1.0611   20.8617 C   0  0  0  0  0  0  0  0  0  0  0  0
    5.9077    0.8231   21.0753 C   0  0  0  0  0  0  0  0  0  0  0  0
    3.9500    1.9962   21.8395 N   0  0  0  0  0  0  0  0  0  0  0  0
    4.4688    2.0677   22.9291 N   0  0  0  0  0  0  0  0  0  0  0  0
    4.5001    2.6262   24.0734 N   0  0  0  0  0  0  0  0  0  0  0  0
 12 13  1  0  0  0
 13 14  1  0  0  0
 13 15  1  0  0  0
 15 16  2  0  0  0
 16 17  2  0  0  0
 13  1  1  0  0  0
  1  2  2  0  0  0
  2  3  1  0  0  0
  3  4  2  0  0  0
  4  8  1  0  0  0
  8  9  1  0  0  0
  8 10  1  0  0  0
  8 11  1  0  0  0
  4  5  1  0  0  0
  5  6  2  0  0  0
  6  7  1  0  0  0
  6  1  1  0  0  0
M  CHG 1  16   1
M  CHG 1  17  -1
M  END
> <minimizedAffinity>
-6.90973

> <CNNscore>
0.5859826207

> <CNNaffinity>
5.4649081230

> <CNN_VS>
3.2023410797

> <CNNaffinity_variance>
0.1808380783

$$$$
[H]c1c([H])c(C(N=[N+]=[N-])(C([H])([H])[H])C([H])([H])[H])c(Cl)c([H])c1C(F)(F)F


 17 17  0  0  0  0  0  0  0  0999 V2000
    4.3573    2.6315   19.3352 C   0  0  0  0  0  0  0  0  0  0  0  0
    5.0244    3.6624   20.0305 C   0  0  0  0  0  0  0  0  0  0  0  0
    5.0970    3.4825   21.3832 C   0  0  0  0  0  0  0  0  0  0  0  0
    4.5968    2.4644   22.1106 C   0  0  0  0  0  0  0  0  0  0  0  0
    3.9242    1.4390   21.3999 C   0  0  0  0  0  0  0  0  0  0  0  0
    3.8226    1.5511   20.0073 C   0  0  0  0  0  0  0  0  0  0  0  0
    2.9557    0.2805   19.1220 Cl  0  0  0  0  0  0  0  0  0  0  0  0
    4.7322    2.3145   23.5832 C   0  0  0  0  0  0  0  0  0  0  0  0
    6.0617    2.3347   23.9996 F   0  0  0  0  0  0  0  0  0  0  0  0
    4.0772    1.2207   24.0428 F   0  0  0  0  0  0  0  0  0  0  0  0
    4.1863    3.4255   24.2417 F   0  0  0  0  0  0  0  0  0  0  0  0
    5.3239    3.7420   17.3514 C   0  0  0  0  0  0  0  0  0  0  0  0
    4.3121    2.6555   17.8476 C   0  0  0  0  0  0  0  0  0  0  0  0
    4.7360    1.3829   17.2037 C   0  0  0  0  0  0  0  0  0  0  0  0
    3.0105    3.0530   17.3650 N   0  0  0  0  0  0  0  0  0  0  0  0
    2.7913    4.2138   17.1083 N   0  0  0  0  0  0  0  0  0  0  0  0
    1.9658    5.0871   16.6859 N   0  0  0  0  0  0  0  0  0  0  0  0
 12 13  1  0  0  0
 13 14  1  0  0  0
 13 15  1  0  0  0
 15 16  2  0  0  0
 16 17  2  0  0  0
 13  1  1  0  0  0
  1  2  2  0  0  0
  2  3  1  0  0  0
  3  4  2  0  0  0
  4  8  1  0  0  0
  8  9  1  0  0  0
  8 10  1  0  0  0
  8 11  1  0  0  0
  4  5  1  0  0  0
  5  6  2  0  0  0
  6  7  1  0  0  0
  6  1  1  0  0  0
M  CHG 1  16   1
M  CHG 1  17  -1
M  END
> <minimizedAffinity>
-6.30459

> <CNNscore>
0.5401957035

> <CNNaffinity>
5.2527904510

> <CNN_VS>
2.8375349045

> <CNNaffinity_variance>
0.3525108099

$$$$
[H]c1c([H])c(C(N=[N+]=[N-])(C([H])([H])[H])C([H])([H])[H])c(Cl)c([H])c1C(F)(F)F


 17 17  0  0  0  0  0  0  0  0999 V2000
    4.6553    3.3421   18.3835 C   0  0  0  0  0  0  0  0  0  0  0  0
    4.1208    2.1060   17.9620 C   0  0  0  0  0  0  0  0  0  0  0  0
    3.8600    1.2240   18.9727 C   0  0  0  0  0  0  0  0  0  0  0  0
    4.0703    1.3926   20.2929 C   0  0  0  0  0  0  0  0  0  0  0  0
    4.6130    2.6366   20.7016 C   0  0  0  0  0  0  0  0  0  0  0  0
    4.8937    3.5949   19.7192 C   0  0  0  0  0  0  0  0  0  0  0  0
    5.5993    5.1412   20.2298 Cl  0  0  0  0  0  0  0  0  0  0  0  0
    3.7401    0.3991   21.3480 C   0  0  0  0  0  0  0  0  0  0  0  0
    3.8943    0.9165   22.6325 F   0  0  0  0  0  0  0  0  0  0  0  0
    4.4264   -0.7582   21.1857 F   0  0  0  0  0  0  0  0  0  0  0  0
    2.3764    0.0756   21.3078 F   0  0  0  0  0  0  0  0  0  0  0  0
    3.8635    5.5803   17.7007 C   0  0  0  0  0  0  0  0  0  0  0  0
    4.8753    4.4273   17.3889 C   0  0  0  0  0  0  0  0  0  0  0  0
    6.2268    5.0466   17.4506 C   0  0  0  0  0  0  0  0  0  0  0  0
    4.5893    3.9793   16.0463 N   0  0  0  0  0  0  0  0  0  0  0  0
    3.9370    4.6761   15.3044 N   0  0  0  0  0  0  0  0  0  0  0  0
    3.4242    4.8365   14.1495 N   0  0  0  0  0  0  0  0  0  0  0  0
 12 13  1  0  0  0
 13 14  1  0  0  0
 13 15  1  0  0  0
 15 16  2  0  0  0
 16 17  2  0  0  0
 13  1  1  0  0  0
  1  2  2  0  0  0
  2  3  1  0  0  0
  3  4  2  0  0  0
  4  8  1  0  0  0
  8  9  1  0  0  0
  8 10  1  0  0  0
  8 11  1  0  0  0
  4  5  1  0  0  0
  5  6  2  0  0  0
  6  7  1  0  0  0
  6  1  1  0  0  0
M  CHG 1  16   1
M  CHG 1  17  -1
M  END
> <minimizedAffinity>
-6.19411

> <CNNscore>
0.5257329345

> <CNNaffinity>
5.1090736389

> <CNN_VS>
2.6860082150

> <CNNaffinity_variance>
0.5337651968

$$$$
[H]c1c([H])c(C(N=[N+]=[N-])(C([H])([H])[H])C([H])([H])[H])c(Cl)c([H])c1C(F)(F)F


 17 17  0  0  0  0  0  0  0  0999 V2000
    4.3272    3.6744   18.1464 C   0  0  0  0  0  0  0  0  0  0  0  0
    4.9741    4.3286   19.2164 C   0  0  0  0  0  0  0  0  0  0  0  0
    5.3567    3.5064   20.2387 C   0  0  0  0  0  0  0  0  0  0  0  0
    5.1713    2.1760   20.3442 C   0  0  0  0  0  0  0  0  0  0  0  0
    4.5150    1.5328   19.2650 C   0  0  0  0  0  0  0  0  0  0  0  0
    4.1055    2.3125   18.1757 C   0  0  0  0  0  0  0  0  0  0  0  0
    3.2590    1.5103   16.8379 Cl  0  0  0  0  0  0  0  0  0  0  0  0
    5.6358    1.3321   21.4762 C   0  0  0  0  0  0  0  0  0  0  0  0
    6.4028    2.0479   22.3931 F   0  0  0  0  0  0  0  0  0  0  0  0
    6.2751    0.2169   21.0469 F   0  0  0  0  0  0  0  0  0  0  0  0
    4.5469    0.9073   22.2507 F   0  0  0  0  0  0  0  0  0  0  0  0
    2.4070    4.5969   16.8956 C   0  0  0  0  0  0  0  0  0  0  0  0
    3.9645    4.4427   16.9243 C   0  0  0  0  0  0  0  0  0  0  0  0
    4.5092    5.8270   16.8898 C   0  0  0  0  0  0  0  0  0  0  0  0
    4.3306    3.7292   15.7236 N   0  0  0  0  0  0  0  0  0  0  0  0
    3.9395    4.1185   14.6480 N   0  0  0  0  0  0  0  0  0  0  0  0
    3.9284    3.9621   13.3839 N   0  0  0  0  0  0  0  0  0  0  0  0
 12 13  1  0  0  0
 13 14  1  0  0  0
 13 15  1  0  0  0
 15 16  2  0  0  0
 16 17  2  0  0  0
 13  1  1  0  0  0
  1  2  2  0  0  0
  2  3  1  0  0  0
  3  4  2  0  0  0
  4  8  1  0  0  0
  8  9  1  0  0  0
  8 10  1  0  0  0
  8 11  1  0  0  0
  4  5  1  0  0  0
  5  6  2  0  0  0
  6  7  1  0  0  0
  6  1  1  0  0  0
M  CHG 1  16   1
M  CHG 1  17  -1
M  END
> <minimizedAffinity>
-5.98616

> <CNNscore>
0.5139073730

> <CNNaffinity>
5.0322608948

> <CNN_VS>
2.5861160755

> <CNNaffinity_variance>
0.3919014037

$$$$
[H]c1c([H])c(C(N=[N+]=[N-])(C([H])([H])[H])C([H])([H])[H])c(Cl)c([H])c1C(F)(F)F


 17 17  0  0  0  0  0  0  0  0999 V2000
    4.5302    3.3726   21.3130 C   0  0  0  0  0  0  0  0  0  0  0  0
    4.2015    4.7131   21.0193 C   0  0  0  0  0  0  0  0  0  0  0  0
    4.3980    5.0753   19.7164 C   0  0  0  0  0  0  0  0  0  0  0  0
    4.8779    4.3181   18.7104 C   0  0  0  0  0  0  0  0  0  0  0  0
    5.2095    2.9754   19.0209 C   0  0  0  0  0  0  0  0  0  0  0  0
    5.0216    2.5308   20.3359 C   0  0  0  0  0  0  0  0  0  0  0  0
    5.4636    0.8576   20.7294 Cl  0  0  0  0  0  0  0  0  0  0  0  0
    5.0446    4.7666   17.3032 C   0  0  0  0  0  0  0  0  0  0  0  0
    4.1224    5.7477   16.9451 F   0  0  0  0  0  0  0  0  0  0  0  0
    5.0345    3.7255   16.4357 F   0  0  0  0  0  0  0  0  0  0  0  0
    6.2725    5.4237   17.1400 F   0  0  0  0  0  0  0  0  0  0  0  0
    3.5418    3.9435   23.5039 C   0  0  0  0  0  0  0  0  0  0  0  0
    4.2535    2.8264   22.6696 C   0  0  0  0  0  0  0  0  0  0  0  0
    3.3286    1.6609   22.6811 C   0  0  0  0  0  0  0  0  0  0  0  0
    5.4752    2.5045   23.3689 N   0  0  0  0  0  0  0  0  0  0  0  0
    5.4271    2.0390   24.4835 N   0  0  0  0  0  0  0  0  0  0  0  0
    6.0617    1.5853   25.4905 N   0  0  0  0  0  0  0  0  0  0  0  0
 12 13  1  0  0  0
 13 14  1  0  0  0
 13 15  1  0  0  0
 15 16  2  0  0  0
 16 17  2  0  0  0
 13  1  1  0  0  0
  1  2  2  0  0  0
  2  3  1  0  0  0
  3  4  2  0  0  0
  4  8  1  0  0  0
  8  9  1  0  0  0
  8 10  1  0  0  0
  8 11  1  0  0  0
  4  5  1  0  0  0
  5  6  2  0  0  0
  6  7  1  0  0  0
  6  1  1  0  0  0
M  CHG 1  16   1
M  CHG 1  17  -1
M  END
> <minimizedAffinity>
-6.16703

> <CNNscore>
0.4861813188

> <CNNaffinity>
4.9999890327

> <CNN_VS>
2.4309012890

> <CNNaffinity_variance>
0.3769393861

$$$$
[H]c1c([H])c(C(N=[N+]=[N-])(C([H])([H])[H])C([H])([H])[H])c(Cl)c([H])c1C(F)(F)F


 17 17  0  0  0  0  0  0  0  0999 V2000
    3.9100    4.1087   18.7472 C   0  0  0  0  0  0  0  0  0  0  0  0
    4.0735    4.4391   20.1094 C   0  0  0  0  0  0  0  0  0  0  0  0
    4.5025    3.4086   20.8977 C   0  0  0  0  0  0  0  0  0  0  0  0
    4.7612    2.1382   20.5306 C   0  0  0  0  0  0  0  0  0  0  0  0
    4.5872    1.8189   19.1607 C   0  0  0  0  0  0  0  0  0  0  0  0
    4.1609    2.8307   18.2907 C   0  0  0  0  0  0  0  0  0  0  0  0
    3.9166    2.4223   16.5809 Cl  0  0  0  0  0  0  0  0  0  0  0  0
    5.2514    1.0664   21.4363 C   0  0  0  0  0  0  0  0  0  0  0  0
    5.6824    1.5639   22.6643 F   0  0  0  0  0  0  0  0  0  0  0  0
    6.1976    0.2974   20.8446 F   0  0  0  0  0  0  0  0  0  0  0  0
    4.2000    0.2135   21.8013 F   0  0  0  0  0  0  0  0  0  0  0  0
    3.4747    6.5317   18.5410 C   0  0  0  0  0  0  0  0  0  0  0  0
    3.5567    5.1728   17.7683 C   0  0  0  0  0  0  0  0  0  0  0  0
    4.5689    5.3765   16.6968 C   0  0  0  0  0  0  0  0  0  0  0  0
    2.2527    4.9474   17.1906 N   0  0  0  0  0  0  0  0  0  0  0  0
    2.0022    5.3678   16.0852 N   0  0  0  0  0  0  0  0  0  0  0  0
    1.1579    5.4713   15.1370 N   0  0  0  0  0  0  0  0  0  0  0  0
 12 13  1  0  0  0
 13 14  1  0  0  0
 13 15  1  0  0  0
 15 16  2  0  0  0
 16 17  2  0  0  0
 13  1  1  0  0  0
  1  2  2  0  0  0
  2  3  1  0  0  0
  3  4  2  0  0  0
  4  8  1  0  0  0
  8  9  1  0  0  0
  8 10  1  0  0  0
  8 11  1  0  0  0
  4  5  1  0  0  0
  5  6  2  0  0  0
  6  7  1  0  0  0
  6  1  1  0  0  0
M  CHG 1  16   1
M  CHG 1  17  -1
M  END
> <minimizedAffinity>
-6.33737

> <CNNscore>
0.4685268402

> <CNNaffinity>
4.9777603149

> <CNN_VS>
2.3322143555

> <CNNaffinity_variance>
0.3045503199

$$$$
[H]c1c([H])c(C(N=[N+]=[N-])(C([H])([H])[H])C([H])([H])[H])c(Cl)c([H])c1C(F)(F)F


 17 17  0  0  0  0  0  0  0  0999 V2000
    4.0952    1.7040   19.4224 C   0  0  0  0  0  0  0  0  0  0  0  0
    3.3991    0.7813   18.6129 C   0  0  0  0  0  0  0  0  0  0  0  0
    3.2197    1.1813   17.3186 C   0  0  0  0  0  0  0  0  0  0  0  0
    3.6071    2.3395   16.7493 C   0  0  0  0  0  0  0  0  0  0  0  0
    4.2999    3.2595   17.5754 C   0  0  0  0  0  0  0  0  0  0  0  0
    4.5310    2.9100   18.9121 C   0  0  0  0  0  0  0  0  0  0  0  0
    5.3740    4.0747   19.9525 Cl  0  0  0  0  0  0  0  0  0  0  0  0
    3.4025    2.7049   15.3231 C   0  0  0  0  0  0  0  0  0  0  0  0
    2.2344    3.4379   15.1243 F   0  0  0  0  0  0  0  0  0  0  0  0
    3.4621    1.6224   14.5099 F   0  0  0  0  0  0  0  0  0  0  0  0
    4.4000    3.5931   14.8963 F   0  0  0  0  0  0  0  0  0  0  0  0
    3.8328    2.4091   21.7755 C   0  0  0  0  0  0  0  0  0  0  0  0
    4.4525    1.3355   20.8196 C   0  0  0  0  0  0  0  0  0  0  0  0
    3.8997    0.0282   21.2661 C   0  0  0  0  0  0  0  0  0  0  0  0
    5.8810    1.3736   21.0272 N   0  0  0  0  0  0  0  0  0  0  0  0
    6.5187    0.3467   21.0205 N   0  0  0  0  0  0  0  0  0  0  0  0
    7.6581   -0.2152   21.1138 N   0  0  0  0  0  0  0  0  0  0  0  0
 12 13  1  0  0  0
 13 14  1  0  0  0
 13 15  1  0  0  0
 15 16  2  0  0  0
 16 17  2  0  0  0
 13  1  1  0  0  0
  1  2  2  0  0  0
  2  3  1  0  0  0
  3  4  2  0  0  0
  4  8  1  0  0  0
  8  9  1  0  0  0
  8 10  1  0  0  0
  8 11  1  0  0  0
  4  5  1  0  0  0
  5  6  2  0  0  0
  6  7  1  0  0  0
  6  1  1  0  0  0
M  CHG 1  16   1
M  CHG 1  17  -1
M  END
> <minimizedAffinity>
-6.51052

> <CNNscore>
0.4531199932

> <CNNaffinity>
5.1115660667

> <CNN_VS>
2.3161528111

> <CNNaffinity_variance>
0.4709393978

$$$$
[H]c1c([H])c(C([H])([H])OC([H])([H])C2([H])C([H])([H])C([H])([H])N(C([H])([H])C([H])([H])C([H])([H])C([H])([H])C([H])([H])[H])C([H])([H])C2([H])[H])c([H])c([H])c1F


 21 22  0  0  0  0  0  0  0  0999 V2000
    2.9183    3.9576   13.1725 N   0  0  0  0  0  0  0  0  0  0  0  0
    3.1588    5.0269   14.0597 C   0  0  0  0  0  0  0  0  0  0  0  0
    3.7945    4.7066   15.3576 C   0  0  0  0  0  0  0  0  0  0  0  0
    2.9685    3.6062   16.0130 C   0  0  0  0  0  0  0  0  0  0  0  0
    3.1149    2.4135   15.0935 C   0  0  0  0  0  0  0  0  0  0  0  0
    2.7270    2.6672   13.6889 C   0  0  0  0  0  0  0  0  0  0  0  0
    1.9300    4.3727   12.2107 C   0  0  0  0  0  0  0  0  0  0  0  0
    0.9612    5.3830   12.7124 C   0  0  0  0  0  0  0  0  0  0  0  0
   -0.4562    4.8703   12.6819 C   0  0  0  0  0  0  0  0  0  0  0  0
   -1.7147    6.7572   13.6130 C   0  0  0  0  0  0  0  0  0  0  0  0
   -1.4444    5.9615   12.3598 C   0  0  0  0  0  0  0  0  0  0  0  0
    3.5325    3.2319   17.3631 C   0  0  0  0  0  0  0  0  0  0  0  0
    3.3910    1.8584   17.5698 O   0  0  0  0  0  0  0  0  0  0  0  0
    4.5633    1.3460   18.1191 C   0  0  0  0  0  0  0  0  0  0  0  0
    4.4439    1.3993   19.6085 C   0  0  0  0  0  0  0  0  0  0  0  0
    3.4503    0.7021   20.2716 C   0  0  0  0  0  0  0  0  0  0  0  0
    3.3187    0.7347   21.6448 C   0  0  0  0  0  0  0  0  0  0  0  0
    4.1900    1.4774   22.4148 C   0  0  0  0  0  0  0  0  0  0  0  0
    4.0815    1.5266   23.7750 F   0  0  0  0  0  0  0  0  0  0  0  0
    5.1829    2.1749   21.7597 C   0  0  0  0  0  0  0  0  0  0  0  0
    5.3170    2.1431   20.3746 C   0  0  0  0  0  0  0  0  0  0  0  0
 10 11  1  0  0  0
 11  9  1  0  0  0
  9  8  1  0  0  0
  8  7  1  0  0  0
  7  1  1  0  0  0
  1  2  1  0  0  0
  2  3  1  0  0  0
  3  4  1  0  0  0
  4 12  1  0  0  0
 12 13  1  0  0  0
 13 14  1  0  0  0
 14 15  1  0  0  0
 15 16  2  0  0  0
 16 17  1  0  0  0
 17 18  2  0  0  0
 18 19  1  0  0  0
 18 20  1  0  0  0
 20 21  2  0  0  0
  4  5  1  0  0  0
  5  6  1  0  0  0
  6  1  1  0  0  0
 21 15  1  0  0  0
M  END
> <minimizedAffinity>
-5.61813

> <CNNscore>
0.5832403898

> <CNNaffinity>
4.9756398201

> <CNN_VS>
2.9019939899

> <CNNaffinity_variance>
0.3408134580

$$$$
[H]c1c([H])c(C([H])([H])OC([H])([H])C2([H])C([H])([H])C([H])([H])N(C([H])([H])C([H])([H])C([H])([H])C([H])([H])C([H])([H])[H])C([H])([H])C2([H])[H])c([H])c([H])c1F


 21 22  0  0  0  0  0  0  0  0999 V2000
    4.3732    5.4152   22.1972 N   0  0  0  0  0  0  0  0  0  0  0  0
    5.7465    5.6589   21.9901 C   0  0  0  0  0  0  0  0  0  0  0  0
    6.1581    6.1536   20.6571 C   0  0  0  0  0  0  0  0  0  0  0  0
    5.5940    5.1925   19.6176 C   0  0  0  0  0  0  0  0  0  0  0  0
    4.0920    5.3264   19.7424 C   0  0  0  0  0  0  0  0  0  0  0  0
    3.5625    5.0820   21.1017 C   0  0  0  0  0  0  0  0  0  0  0  0
    4.2278    4.5484   23.3381 C   0  0  0  0  0  0  0  0  0  0  0  0
    4.0305    3.1125   23.0059 C   0  0  0  0  0  0  0  0  0  0  0  0
    5.2041    2.2677   23.4324 C   0  0  0  0  0  0  0  0  0  0  0  0
    5.4064    1.7611   21.0421 C   0  0  0  0  0  0  0  0  0  0  0  0
    6.1802    2.0474   22.3055 C   0  0  0  0  0  0  0  0  0  0  0  0
    5.9892    5.6073   18.2202 C   0  0  0  0  0  0  0  0  0  0  0  0
    6.0608    4.4826   17.3961 O   0  0  0  0  0  0  0  0  0  0  0  0
    5.0214    4.5155   16.4703 C   0  0  0  0  0  0  0  0  0  0  0  0
    4.3298    3.1903   16.4965 C   0  0  0  0  0  0  0  0  0  0  0  0
    3.4878    2.8027   15.4698 C   0  0  0  0  0  0  0  0  0  0  0  0
    2.8378    1.5855   15.4702 C   0  0  0  0  0  0  0  0  0  0  0  0
    3.0100    0.6996   16.5139 C   0  0  0  0  0  0  0  0  0  0  0  0
    2.3786   -0.5108   16.5385 F   0  0  0  0  0  0  0  0  0  0  0  0
    3.8482    1.0800   17.5406 C   0  0  0  0  0  0  0  0  0  0  0  0
    4.5045    2.3074   17.5417 C   0  0  0  0  0  0  0  0  0  0  0  0
 10 11  1  0  0  0
 11  9  1  0  0  0
  9  8  1  0  0  0
  8  7  1  0  0  0
  7  1  1  0  0  0
  1  2  1  0  0  0
  2  3  1  0  0  0
  3  4  1  0  0  0
  4 12  1  0  0  0
 12 13  1  0  0  0
 13 14  1  0  0  0
 14 15  1  0  0  0
 15 16  2  0  0  0
 16 17  1  0  0  0
 17 18  2  0  0  0
 18 19  1  0  0  0
 18 20  1  0  0  0
 20 21  2  0  0  0
  4  5  1  0  0  0
  5  6  1  0  0  0
  6  1  1  0  0  0
 21 15  1  0  0  0
M  END
> <minimizedAffinity>
-6.62117

> <CNNscore>
0.5349767804

> <CNNaffinity>
5.5455269814

> <CNN_VS>
2.9667282104

> <CNNaffinity_variance>
0.3887457848

$$$$
[H]c1c([H])c(C([H])([H])OC([H])([H])C2([H])C([H])([H])C([H])([H])N(C([H])([H])C([H])([H])C([H])([H])C([H])([H])C([H])([H])[H])C([H])([H])C2([H])[H])c([H])c([H])c1F


 21 22  0  0  0  0  0  0  0  0999 V2000
    4.4351    5.0945   16.8858 N   0  0  0  0  0  0  0  0  0  0  0  0
    3.3228    5.6970   17.5088 C   0  0  0  0  0  0  0  0  0  0  0  0
    3.5455    6.3515   18.8177 C   0  0  0  0  0  0  0  0  0  0  0  0
    4.2188    5.3334   19.7302 C   0  0  0  0  0  0  0  0  0  0  0  0
    5.5618    5.0661   19.0865 C   0  0  0  0  0  0  0  0  0  0  0  0
    5.4921    4.6210   17.6776 C   0  0  0  0  0  0  0  0  0  0  0  0
    3.9583    4.1605   15.8988 C   0  0  0  0  0  0  0  0  0  0  0  0
    2.9168    3.2183   16.3875 C   0  0  0  0  0  0  0  0  0  0  0  0
    3.3968    1.7892   16.3735 C   0  0  0  0  0  0  0  0  0  0  0  0
    2.7076    0.0058   17.9083 C   0  0  0  0  0  0  0  0  0  0  0  0
    3.5674    1.2375   17.7655 C   0  0  0  0  0  0  0  0  0  0  0  0
    4.4619    5.9101   21.1048 C   0  0  0  0  0  0  0  0  0  0  0  0
    3.9553    5.0448   22.0763 O   0  0  0  0  0  0  0  0  0  0  0  0
    4.9809    4.2400   22.5650 C   0  0  0  0  0  0  0  0  0  0  0  0
    4.7093    2.8308   22.1460 C   0  0  0  0  0  0  0  0  0  0  0  0
    3.5358    2.1919   22.5036 C   0  0  0  0  0  0  0  0  0  0  0  0
    3.2614    0.8923   22.1297 C   0  0  0  0  0  0  0  0  0  0  0  0
    4.1653    0.1751   21.3732 C   0  0  0  0  0  0  0  0  0  0  0  0
    3.9180   -1.1120   20.9903 F   0  0  0  0  0  0  0  0  0  0  0  0
    5.3373    0.8063   21.0134 C   0  0  0  0  0  0  0  0  0  0  0  0
    5.6156    2.1171   21.3898 C   0  0  0  0  0  0  0  0  0  0  0  0
 10 11  1  0  0  0
 11  9  1  0  0  0
  9  8  1  0  0  0
  8  7  1  0  0  0
  7  1  1  0  0  0
  1  2  1  0  0  0
  2  3  1  0  0  0
  3  4  1  0  0  0
  4 12  1  0  0  0
 12 13  1  0  0  0
 13 14  1  0  0  0
 14 15  1  0  0  0
 15 16  2  0  0  0
 16 17  1  0  0  0
 17 18  2  0  0  0
 18 19  1  0  0  0
 18 20  1  0  0  0
 20 21  2  0  0  0
  4  5  1  0  0  0
  5  6  1  0  0  0
  6  1  1  0  0  0
 21 15  1  0  0  0
M  END
> <minimizedAffinity>
-6.34739

> <CNNscore>
0.4921707213

> <CNNaffinity>
5.6022505760

> <CNN_VS>
2.7572636604

> <CNNaffinity_variance>
0.6875960231

$$$$
[H]c1c([H])c(C([H])([H])OC([H])([H])C2([H])C([H])([H])C([H])([H])N(C([H])([H])C([H])([H])C([H])([H])C([H])([H])C([H])([H])[H])C([H])([H])C2([H])[H])c([H])c([H])c1F


 21 22  0  0  0  0  0  0  0  0999 V2000
    5.6919    4.8883   22.5330 N   0  0  0  0  0  0  0  0  0  0  0  0
    4.3462    4.8632   22.9535 C   0  0  0  0  0  0  0  0  0  0  0  0
    3.7909    3.5611   23.3863 C   0  0  0  0  0  0  0  0  0  0  0  0
    4.0503    2.5582   22.2685 C   0  0  0  0  0  0  0  0  0  0  0  0
    5.5571    2.4428   22.1948 C   0  0  0  0  0  0  0  0  0  0  0  0
    6.2642    3.7264   21.9940 C   0  0  0  0  0  0  0  0  0  0  0  0
    5.9075    6.0811   21.7552 C   0  0  0  0  0  0  0  0  0  0  0  0
    4.6973    6.5986   21.0635 C   0  0  0  0  0  0  0  0  0  0  0  0
    4.6570    6.1887   19.6133 C   0  0  0  0  0  0  0  0  0  0  0  0
    2.9564    5.2254   18.1329 C   0  0  0  0  0  0  0  0  0  0  0  0
    3.7620    4.9972   19.3882 C   0  0  0  0  0  0  0  0  0  0  0  0
    3.4903    1.1990   22.6147 C   0  0  0  0  0  0  0  0  0  0  0  0
    2.6857    0.7396   21.5703 O   0  0  0  0  0  0  0  0  0  0  0  0
    3.3936   -0.1860   20.8083 C   0  0  0  0  0  0  0  0  0  0  0  0
    3.3646    0.2624   19.3823 C   0  0  0  0  0  0  0  0  0  0  0  0
    4.1988    1.2698   18.9324 C   0  0  0  0  0  0  0  0  0  0  0  0
    4.1914    1.7017   17.6219 C   0  0  0  0  0  0  0  0  0  0  0  0
    3.3359    1.1323   16.7013 C   0  0  0  0  0  0  0  0  0  0  0  0
    3.3088    1.5415   15.3989 F   0  0  0  0  0  0  0  0  0  0  0  0
    2.5015    0.1275   17.1435 C   0  0  0  0  0  0  0  0  0  0  0  0
    2.5078   -0.3093   18.4650 C   0  0  0  0  0  0  0  0  0  0  0  0
 10 11  1  0  0  0
 11  9  1  0  0  0
  9  8  1  0  0  0
  8  7  1  0  0  0
  7  1  1  0  0  0
  1  2  1  0  0  0
  2  3  1  0  0  0
  3  4  1  0  0  0
  4 12  1  0  0  0
 12 13  1  0  0  0
 13 14  1  0  0  0
 14 15  1  0  0  0
 15 16  2  0  0  0
 16 17  1  0  0  0
 17 18  2  0  0  0
 18 19  1  0  0  0
 18 20  1  0  0  0
 20 21  2  0  0  0
  4  5  1  0  0  0
  5  6  1  0  0  0
  6  1  1  0  0  0
 21 15  1  0  0  0
M  END
> <minimizedAffinity>
-6.75467

> <CNNscore>
0.4900112748

> <CNNaffinity>
5.7425222397

> <CNN_VS>
2.8139007092

> <CNNaffinity_variance>
0.2467380017

$$$$
[H]c1c([H])c(C([H])([H])OC([H])([H])C2([H])C([H])([H])C([H])([H])N(C([H])([H])C([H])([H])C([H])([H])C([H])([H])C([H])([H])[H])C([H])([H])C2([H])[H])c([H])c([H])c1F


 21 22  0  0  0  0  0  0  0  0999 V2000
    3.5030    0.3413   19.1903 N   0  0  0  0  0  0  0  0  0  0  0  0
    2.4973   -0.0467   18.2813 C   0  0  0  0  0  0  0  0  0  0  0  0
    2.6730    0.3404   16.8634 C   0  0  0  0  0  0  0  0  0  0  0  0
    2.9159    1.8444   16.8259 C   0  0  0  0  0  0  0  0  0  0  0  0
    4.2301    2.0418   17.5493 C   0  0  0  0  0  0  0  0  0  0  0  0
    4.2691    1.4849   18.9191 C   0  0  0  0  0  0  0  0  0  0  0  0
    2.9638    0.2816   20.5244 C   0  0  0  0  0  0  0  0  0  0  0  0
    3.9385    0.5950   21.6027 C   0  0  0  0  0  0  0  0  0  0  0  0
    3.4268    1.6653   22.5330 C   0  0  0  0  0  0  0  0  0  0  0  0
    3.7867    3.8827   23.5151 C   0  0  0  0  0  0  0  0  0  0  0  0
    4.2281    2.9371   22.4252 C   0  0  0  0  0  0  0  0  0  0  0  0
    3.0812    2.3348   15.4070 C   0  0  0  0  0  0  0  0  0  0  0  0
    2.5455    3.6183   15.2855 O   0  0  0  0  0  0  0  0  0  0  0  0
    2.6309    4.0360   13.9601 C   0  0  0  0  0  0  0  0  0  0  0  0
    1.3332    4.6785   13.5878 C   0  0  0  0  0  0  0  0  0  0  0  0
    0.9642    5.9028   14.1153 C   0  0  0  0  0  0  0  0  0  0  0  0
   -0.2275    6.5167   13.7879 C   0  0  0  0  0  0  0  0  0  0  0  0
   -1.1054    5.9181   12.9078 C   0  0  0  0  0  0  0  0  0  0  0  0
   -2.2907    6.5043   12.5675 F   0  0  0  0  0  0  0  0  0  0  0  0
   -0.7435    4.6973   12.3785 C   0  0  0  0  0  0  0  0  0  0  0  0
    0.4582    4.0768   12.7076 C   0  0  0  0  0  0  0  0  0  0  0  0
 10 11  1  0  0  0
 11  9  1  0  0  0
  9  8  1  0  0  0
  8  7  1  0  0  0
  7  1  1  0  0  0
  1  2  1  0  0  0
  2  3  1  0  0  0
  3  4  1  0  0  0
  4 12  1  0  0  0
 12 13  1  0  0  0
 13 14  1  0  0  0
 14 15  1  0  0  0
 15 16  2  0  0  0
 16 17  1  0  0  0
 17 18  2  0  0  0
 18 19  1  0  0  0
 18 20  1  0  0  0
 20 21  2  0  0  0
  4  5  1  0  0  0
  5  6  1  0  0  0
  6  1  1  0  0  0
 21 15  1  0  0  0
M  END
> <minimizedAffinity>
-6.12101

> <CNNscore>
0.4816374481

> <CNNaffinity>
5.0792279243

> <CNN_VS>
2.4463462830

> <CNNaffinity_variance>
0.6388038397

$$$$
[H]c1c([H])c(C([H])([H])OC([H])([H])C2([H])C([H])([H])C([H])([H])N(C([H])([H])C([H])([H])C([H])([H])C([H])([H])C([H])([H])[H])C([H])([H])C2([H])[H])c([H])c([H])c1F


 21 22  0  0  0  0  0  0  0  0999 V2000
    1.7502    3.6047   12.3593 N   0  0  0  0  0  0  0  0  0  0  0  0
    2.7483    4.3409   13.0302 C   0  0  0  0  0  0  0  0  0  0  0  0
    3.6305    3.6025   13.9617 C   0  0  0  0  0  0  0  0  0  0  0  0
    2.7363    2.8473   14.9377 C   0  0  0  0  0  0  0  0  0  0  0  0
    1.9885    1.8478   14.0826 C   0  0  0  0  0  0  0  0  0  0  0  0
    1.2388    2.4415   12.9542 C   0  0  0  0  0  0  0  0  0  0  0  0
    0.7505    4.5217   11.8756 C   0  0  0  0  0  0  0  0  0  0  0  0
   -0.3606    4.7876   12.8273 C   0  0  0  0  0  0  0  0  0  0  0  0
   -1.2691    5.8883   12.3415 C   0  0  0  0  0  0  0  0  0  0  0  0
   -3.2579    4.7766   11.4360 C   0  0  0  0  0  0  0  0  0  0  0  0
   -1.9888    5.5077   11.0732 C   0  0  0  0  0  0  0  0  0  0  0  0
    3.5570    2.0815   15.9483 C   0  0  0  0  0  0  0  0  0  0  0  0
    3.2108    2.4834   17.2398 O   0  0  0  0  0  0  0  0  0  0  0  0
    4.1366    3.4147   17.7026 C   0  0  0  0  0  0  0  0  0  0  0  0
    4.6635    2.9364   19.0175 C   0  0  0  0  0  0  0  0  0  0  0  0
    5.1581    3.8246   19.9554 C   0  0  0  0  0  0  0  0  0  0  0  0
    5.6499    3.4089   21.1758 C   0  0  0  0  0  0  0  0  0  0  0  0
    5.6643    2.0694   21.5059 C   0  0  0  0  0  0  0  0  0  0  0  0
    6.1454    1.6319   22.7066 F   0  0  0  0  0  0  0  0  0  0  0  0
    5.1726    1.1786   20.5752 C   0  0  0  0  0  0  0  0  0  0  0  0
    4.6762    1.5964   19.3437 C   0  0  0  0  0  0  0  0  0  0  0  0
 10 11  1  0  0  0
 11  9  1  0  0  0
  9  8  1  0  0  0
  8  7  1  0  0  0
  7  1  1  0  0  0
  1  2  1  0  0  0
  2  3  1  0  0  0
  3  4  1  0  0  0
  4 12  1  0  0  0
 12 13  1  0  0  0
 13 14  1  0  0  0
 14 15  1  0  0  0
 15 16  2  0  0  0
 16 17  1  0  0  0
 17 18  2  0  0  0
 18 19  1  0  0  0
 18 20  1  0  0  0
 20 21  2  0  0  0
  4  5  1  0  0  0
  5  6  1  0  0  0
  6  1  1  0  0  0
 21 15  1  0  0  0
M  END
> <minimizedAffinity>
-5.49586

> <CNNscore>
0.4642390013

> <CNNaffinity>
4.8001871109

> <CNN_VS>
2.2284340858

> <CNNaffinity_variance>
0.3069195151

$$$$
[H]c1c([H])c(C([H])([H])OC([H])([H])C2([H])C([H])([H])C([H])([H])N(C([H])([H])C([H])([H])C([H])([H])C([H])([H])C([H])([H])[H])C([H])([H])C2([H])[H])c([H])c([H])c1F


 21 22  0  0  0  0  0  0  0  0999 V2000
    5.4257    7.4227   21.2009 N   0  0  0  0  0  0  0  0  0  0  0  0
    5.7658    8.2899   20.1422 C   0  0  0  0  0  0  0  0  0  0  0  0
    5.4164    7.8603   18.7695 C   0  0  0  0  0  0  0  0  0  0  0  0
    5.9972    6.4664   18.5640 C   0  0  0  0  0  0  0  0  0  0  0  0
    5.2564    5.5899   19.5501 C   0  0  0  0  0  0  0  0  0  0  0  0
    5.3309    6.0446   20.9556 C   0  0  0  0  0  0  0  0  0  0  0  0
    6.2133    7.7752   22.3540 C   0  0  0  0  0  0  0  0  0  0  0  0
    7.6401    8.0764   22.0629 C   0  0  0  0  0  0  0  0  0  0  0  0
    8.5347    6.8952   22.3407 C   0  0  0  0  0  0  0  0  0  0  0  0
   10.8162    7.2186   21.5033 C   0  0  0  0  0  0  0  0  0  0  0  0
    9.4696    6.6129   21.1929 C   0  0  0  0  0  0  0  0  0  0  0  0
    5.7100    5.9559   17.1719 C   0  0  0  0  0  0  0  0  0  0  0  0
    4.5011    5.2574   17.1650 O   0  0  0  0  0  0  0  0  0  0  0  0
    4.3771    4.5510   15.9717 C   0  0  0  0  0  0  0  0  0  0  0  0
    3.9845    3.1459   16.2987 C   0  0  0  0  0  0  0  0  0  0  0  0
    4.3975    2.5430   17.4730 C   0  0  0  0  0  0  0  0  0  0  0  0
    4.0490    1.2480   17.7981 C   0  0  0  0  0  0  0  0  0  0  0  0
    3.2630    0.4992   16.9465 C   0  0  0  0  0  0  0  0  0  0  0  0
    2.9042   -0.7841   17.2446 F   0  0  0  0  0  0  0  0  0  0  0  0
    2.8480    1.0944   15.7740 C   0  0  0  0  0  0  0  0  0  0  0  0
    3.1987    2.4006   15.4447 C   0  0  0  0  0  0  0  0  0  0  0  0
 10 11  1  0  0  0
 11  9  1  0  0  0
  9  8  1  0  0  0
  8  7  1  0  0  0
  7  1  1  0  0  0
  1  2  1  0  0  0
  2  3  1  0  0  0
  3  4  1  0  0  0
  4 12  1  0  0  0
 12 13  1  0  0  0
 13 14  1  0  0  0
 14 15  1  0  0  0
 15 16  2  0  0  0
 16 17  1  0  0  0
 17 18  2  0  0  0
 18 19  1  0  0  0
 18 20  1  0  0  0
 20 21  2  0  0  0
  4  5  1  0  0  0
  5  6  1  0  0  0
  6  1  1  0  0  0
 21 15  1  0  0  0
M  END
> <minimizedAffinity>
-5.34678

> <CNNscore>
0.4331409633

> <CNNaffinity>
5.1707458496

> <CNN_VS>
2.2396619320

> <CNNaffinity_variance>
0.1436722875

$$$$
[H]c1c([H])c(C([H])([H])OC([H])([H])C2([H])C([H])([H])C([H])([H])N(C([H])([H])C([H])([H])C([H])([H])C([H])([H])C([H])([H])[H])C([H])([H])C2([H])[H])c([H])c([H])c1F


 21 22  0  0  0  0  0  0  0  0999 V2000
    4.7075    4.3881   22.9940 N   0  0  0  0  0  0  0  0  0  0  0  0
    5.9382    4.1167   22.3615 C   0  0  0  0  0  0  0  0  0  0  0  0
    6.3319    4.9891   21.2323 C   0  0  0  0  0  0  0  0  0  0  0  0
    5.1777    4.9990   20.2372 C   0  0  0  0  0  0  0  0  0  0  0  0
    4.0330    5.6531   20.9796 C   0  0  0  0  0  0  0  0  0  0  0  0
    3.6824    5.0076   22.2635 C   0  0  0  0  0  0  0  0  0  0  0  0
    4.3001    3.2172   23.7270 C   0  0  0  0  0  0  0  0  0  0  0  0
    4.7873    1.9307   23.1627 C   0  0  0  0  0  0  0  0  0  0  0  0
    3.7298    1.2375   22.3418 C   0  0  0  0  0  0  0  0  0  0  0  0
    5.7582    0.7742   21.0448 C   0  0  0  0  0  0  0  0  0  0  0  0
    4.3298    0.3498   21.2819 C   0  0  0  0  0  0  0  0  0  0  0  0
    5.5041    5.8489   19.0321 C   0  0  0  0  0  0  0  0  0  0  0  0
    4.8504    5.3435   17.9067 O   0  0  0  0  0  0  0  0  0  0  0  0
    5.6220    4.3374   17.3314 C   0  0  0  0  0  0  0  0  0  0  0  0
    4.7267    3.1806   17.0223 C   0  0  0  0  0  0  0  0  0  0  0  0
    4.5834    2.1300   17.9104 C   0  0  0  0  0  0  0  0  0  0  0  0
    3.7638    1.0511   17.6489 C   0  0  0  0  0  0  0  0  0  0  0  0
    3.0477    0.9844   16.4714 C   0  0  0  0  0  0  0  0  0  0  0  0
    2.2299   -0.0718   16.1885 F   0  0  0  0  0  0  0  0  0  0  0  0
    3.1862    2.0287   15.5817 C   0  0  0  0  0  0  0  0  0  0  0  0
    4.0125    3.1176   15.8440 C   0  0  0  0  0  0  0  0  0  0  0  0
 10 11  1  0  0  0
 11  9  1  0  0  0
  9  8  1  0  0  0
  8  7  1  0  0  0
  7  1  1  0  0  0
  1  2  1  0  0  0
  2  3  1  0  0  0
  3  4  1  0  0  0
  4 12  1  0  0  0
 12 13  1  0  0  0
 13 14  1  0  0  0
 14 15  1  0  0  0
 15 16  2  0  0  0
 16 17  1  0  0  0
 17 18  2  0  0  0
 18 19  1  0  0  0
 18 20  1  0  0  0
 20 21  2  0  0  0
  4  5  1  0  0  0
  5  6  1  0  0  0
  6  1  1  0  0  0
 21 15  1  0  0  0
M  END
> <minimizedAffinity>
-6.80761

> <CNNscore>
0.4150474966

> <CNNaffinity>
5.6054244041

> <CNN_VS>
2.3265173435

> <CNNaffinity_variance>
0.4299513698

$$$$
[H]c1c([H])c(C([H])([H])OC([H])([H])C2([H])C([H])([H])C([H])([H])N(C([H])([H])C([H])([H])C([H])([H])C([H])([H])C([H])([H])[H])C([H])([H])C2([H])[H])c([H])c([H])c1F


 21 22  0  0  0  0  0  0  0  0999 V2000
    3.3047    2.2352   17.0929 N   0  0  0  0  0  0  0  0  0  0  0  0
    3.8331    3.4055   16.5102 C   0  0  0  0  0  0  0  0  0  0  0  0
    3.2647    3.8387   15.2139 C   0  0  0  0  0  0  0  0  0  0  0  0
    3.3405    2.6517   14.2610 C   0  0  0  0  0  0  0  0  0  0  0  0
    2.4263    1.6099   14.8679 C   0  0  0  0  0  0  0  0  0  0  0  0
    2.7464    1.2488   16.2662 C   0  0  0  0  0  0  0  0  0  0  0  0
    4.2450    1.7422   18.0661 C   0  0  0  0  0  0  0  0  0  0  0  0
    4.8266    2.7855   18.9517 C   0  0  0  0  0  0  0  0  0  0  0  0
    4.6223    2.4658   20.4107 C   0  0  0  0  0  0  0  0  0  0  0  0
    6.4312    1.8776   21.9576 C   0  0  0  0  0  0  0  0  0  0  0  0
    5.7278    3.0222   21.2707 C   0  0  0  0  0  0  0  0  0  0  0  0
    2.8028    3.0127   12.8966 C   0  0  0  0  0  0  0  0  0  0  0  0
    1.4254    3.2274   12.9735 O   0  0  0  0  0  0  0  0  0  0  0  0
    1.0201    4.0401   11.9182 C   0  0  0  0  0  0  0  0  0  0  0  0
   -0.0245    4.9809   12.4270 C   0  0  0  0  0  0  0  0  0  0  0  0
   -1.2703    5.0564   11.8307 C   0  0  0  0  0  0  0  0  0  0  0  0
   -2.2514    5.9160   12.2810 C   0  0  0  0  0  0  0  0  0  0  0  0
   -2.0170    6.7430   13.3602 C   0  0  0  0  0  0  0  0  0  0  0  0
   -2.9706    7.6025   13.8253 F   0  0  0  0  0  0  0  0  0  0  0  0
   -0.7769    6.6726   13.9591 C   0  0  0  0  0  0  0  0  0  0  0  0
    0.2138    5.8061   13.5062 C   0  0  0  0  0  0  0  0  0  0  0  0
 10 11  1  0  0  0
 11  9  1  0  0  0
  9  8  1  0  0  0
  8  7  1  0  0  0
  7  1  1  0  0  0
  1  2  1  0  0  0
  2  3  1  0  0  0
  3  4  1  0  0  0
  4 12  1  0  0  0
 12 13  1  0  0  0
 13 14  1  0  0  0
 14 15  1  0  0  0
 15 16  2  0  0  0
 16 17  1  0  0  0
 17 18  2  0  0  0
 18 19  1  0  0  0
 18 20  1  0  0  0
 20 21  2  0  0  0
  4  5  1  0  0  0
  5  6  1  0  0  0
  6  1  1  0  0  0
 21 15  1  0  0  0
M  END
> <minimizedAffinity>
-5.97262

> <CNNscore>
0.4072991014

> <CNNaffinity>
4.9322772026

> <CNN_VS>
2.0089120865

> <CNNaffinity_variance>
0.3103815019

$$$$
[H]c1c([H])c([H])c([C@@]2([H])C([H])([H])[C@]2([H])N([H])C([H])([H])C2([H])C([H])([H])C([H])([H])N([H])C([H])([H])C2([H])[H])c([H])c1[H]


 19 21  0  0  0  0  0  0  0  0999 V2000
    4.0126    6.4826   21.9626 N   0  0  0  0  0  0  0  0  0  0  0  0
    3.6794    7.0384   22.7664 H   0  0  0  0  0  0  0  0  0  0  0  0
    3.9200    3.9463   21.6935 C   0  0  0  0  0  0  0  0  0  0  0  0
    3.4333    4.3607   23.0855 C   0  0  0  0  0  0  0  0  0  0  0  0
    4.4920    5.1618   22.3203 C   0  0  0  0  0  0  0  0  0  0  0  0
    6.5217    0.5327   21.3503 C   0  0  0  0  0  0  0  0  0  0  0  0
    5.3054    0.5832   20.7028 C   0  0  0  0  0  0  0  0  0  0  0  0
    4.4785    1.7008   20.8289 C   0  0  0  0  0  0  0  0  0  0  0  0
    4.8353    2.7843   21.5929 C   0  0  0  0  0  0  0  0  0  0  0  0
    6.0532    2.7269   22.2376 C   0  0  0  0  0  0  0  0  0  0  0  0
    6.8825    1.6158   22.1164 C   0  0  0  0  0  0  0  0  0  0  0  0
    5.0796    7.1267   21.2249 C   0  0  0  0  0  0  0  0  0  0  0  0
    5.0395    8.6246   21.2987 C   0  0  0  0  0  0  0  0  0  0  0  0
    4.3628    9.1578   20.0682 C   0  0  0  0  0  0  0  0  0  0  0  0
    5.1209    8.9409   18.7991 C   0  0  0  0  0  0  0  0  0  0  0  0
    6.5437    8.7453   19.0163 N   0  0  0  0  0  0  0  0  0  0  0  0
    6.9198    9.7155   20.0562 C   0  0  0  0  0  0  0  0  0  0  0  0
    6.4858    9.1009   21.3794 C   0  0  0  0  0  0  0  0  0  0  0  0
    7.0508    8.9111   18.1411 H   0  0  0  0  0  0  0  0  0  0  0  0
  6  7  2  0  0  0
  7  8  1  0  0  0
  8  9  2  0  0  0
  9  3  1  0  0  0
  3  4  1  0  0  0
  4  5  1  0  0  0
  5  1  1  0  0  0
  1 12  1  0  0  0
 12 13  1  0  0  0
 13 14  1  0  0  0
 14 15  1  0  0  0
 15 16  1  0  0  0
 16 17  1  0  0  0
 17 18  1  0  0  0
  9 10  1  0  0  0
 10 11  2  0  0  0
 11  6  1  0  0  0
  5  3  1  0  0  0
 18 13  1  0  0  0
  1  2  1  0  0  0
 16 19  1  0  0  0
M  END
> <minimizedAffinity>
-6.54574

> <CNNscore>
0.5860596299

> <CNNaffinity>
4.8214006424

> <CNN_VS>
2.8256282806

> <CNNaffinity_variance>
0.1236076951

$$$$
[H]c1c([H])c([H])c([C@@]2([H])C([H])([H])[C@]2([H])N([H])C([H])([H])C2([H])C([H])([H])C([H])([H])N([H])C([H])([H])C2([H])[H])c([H])c1[H]


 19 21  0  0  0  0  0  0  0  0999 V2000
    5.7026    3.5433   21.8837 N   0  0  0  0  0  0  0  0  0  0  0  0
    6.6937    3.6704   22.1435 H   0  0  0  0  0  0  0  0  0  0  0  0
    4.4328    1.5162   20.9937 C   0  0  0  0  0  0  0  0  0  0  0  0
    5.8807    1.1438   21.3275 C   0  0  0  0  0  0  0  0  0  0  0  0
    5.4888    2.5470   20.8524 C   0  0  0  0  0  0  0  0  0  0  0  0
    2.8109    0.0956   17.2666 C   0  0  0  0  0  0  0  0  0  0  0  0
    3.7626    1.0925   17.3083 C   0  0  0  0  0  0  0  0  0  0  0  0
    4.2741    1.5369   18.5287 C   0  0  0  0  0  0  0  0  0  0  0  0
    3.8576    1.0080   19.7252 C   0  0  0  0  0  0  0  0  0  0  0  0
    2.9055    0.0113   19.6760 C   0  0  0  0  0  0  0  0  0  0  0  0
    2.3912   -0.4365   18.4628 C   0  0  0  0  0  0  0  0  0  0  0  0
    5.0717    4.7623   21.4216 C   0  0  0  0  0  0  0  0  0  0  0  0
    5.1330    4.9416   19.9333 C   0  0  0  0  0  0  0  0  0  0  0  0
    6.0830    6.0601   19.6132 C   0  0  0  0  0  0  0  0  0  0  0  0
    5.6250    7.4107   20.0587 C   0  0  0  0  0  0  0  0  0  0  0  0
    4.1853    7.4907   20.2335 N   0  0  0  0  0  0  0  0  0  0  0  0
    3.6099    6.7468   19.1024 C   0  0  0  0  0  0  0  0  0  0  0  0
    3.7185    5.2739   19.4707 C   0  0  0  0  0  0  0  0  0  0  0  0
    3.8928    8.4731   20.2299 H   0  0  0  0  0  0  0  0  0  0  0  0
  6  7  2  0  0  0
  7  8  1  0  0  0
  8  9  2  0  0  0
  9  3  1  0  0  0
  3  4  1  0  0  0
  4  5  1  0  0  0
  5  1  1  0  0  0
  1 12  1  0  0  0
 12 13  1  0  0  0
 13 14  1  0  0  0
 14 15  1  0  0  0
 15 16  1  0  0  0
 16 17  1  0  0  0
 17 18  1  0  0  0
  9 10  1  0  0  0
 10 11  2  0  0  0
 11  6  1  0  0  0
  5  3  1  0  0  0
 18 13  1  0  0  0
  1  2  1  0  0  0
 16 19  1  0  0  0
M  END
> <minimizedAffinity>
-6.78815

> <CNNscore>
0.4796442986

> <CNNaffinity>
5.2490720749

> <CNN_VS>
2.5176875591

> <CNNaffinity_variance>
0.2242889404

$$$$
[H]c1c([H])c([H])c([C@@]2([H])C([H])([H])[C@]2([H])N([H])C([H])([H])C2([H])C([H])([H])C([H])([H])N([H])C([H])([H])C2([H])[H])c([H])c1[H]


 19 21  0  0  0  0  0  0  0  0999 V2000
    4.3653    6.8008   21.5339 N   0  0  0  0  0  0  0  0  0  0  0  0
    4.8224    7.2805   22.3257 H   0  0  0  0  0  0  0  0  0  0  0  0
    4.3527    4.3947   22.3849 C   0  0  0  0  0  0  0  0  0  0  0  0
    5.7639    4.9863   22.4559 C   0  0  0  0  0  0  0  0  0  0  0  0
    4.7545    5.4122   21.3845 C   0  0  0  0  0  0  0  0  0  0  0  0
    3.9484    0.4056   20.8155 C   0  0  0  0  0  0  0  0  0  0  0  0
    4.4863    1.4280   20.0628 C   0  0  0  0  0  0  0  0  0  0  0  0
    4.6075    2.7136   20.5930 C   0  0  0  0  0  0  0  0  0  0  0  0
    4.2019    3.0125   21.8701 C   0  0  0  0  0  0  0  0  0  0  0  0
    3.6649    1.9850   22.6172 C   0  0  0  0  0  0  0  0  0  0  0  0
    3.5410    0.7009   22.0949 C   0  0  0  0  0  0  0  0  0  0  0  0
    4.6110    7.4412   20.2583 C   0  0  0  0  0  0  0  0  0  0  0  0
    4.9652    8.8943   20.3759 C   0  0  0  0  0  0  0  0  0  0  0  0
    6.2290    9.1544   19.6068 C   0  0  0  0  0  0  0  0  0  0  0  0
    7.4472    8.5025   20.1753 C   0  0  0  0  0  0  0  0  0  0  0  0
    7.3151    8.1905   21.5877 N   0  0  0  0  0  0  0  0  0  0  0  0
    6.6352    9.3503   22.1848 C   0  0  0  0  0  0  0  0  0  0  0  0
    5.1575    9.1824   21.8609 C   0  0  0  0  0  0  0  0  0  0  0  0
    8.2440    8.0436   21.9955 H   0  0  0  0  0  0  0  0  0  0  0  0
  6  7  2  0  0  0
  7  8  1  0  0  0
  8  9  2  0  0  0
  9  3  1  0  0  0
  3  4  1  0  0  0
  4  5  1  0  0  0
  5  1  1  0  0  0
  1 12  1  0  0  0
 12 13  1  0  0  0
 13 14  1  0  0  0
 14 15  1  0  0  0
 15 16  1  0  0  0
 16 17  1  0  0  0
 17 18  1  0  0  0
  9 10  1  0  0  0
 10 11  2  0  0  0
 11  6  1  0  0  0
  5  3  1  0  0  0
 18 13  1  0  0  0
  1  2  1  0  0  0
 16 19  1  0  0  0
M  END
> <minimizedAffinity>
-6.43642

> <CNNscore>
0.4544885755

> <CNNaffinity>
4.7547216415

> <CNN_VS>
2.1609666348

> <CNNaffinity_variance>
0.0770694241

$$$$
[H]c1c([H])c([H])c([C@@]2([H])C([H])([H])[C@]2([H])N([H])C([H])([H])C2([H])C([H])([H])C([H])([H])N([H])C([H])([H])C2([H])[H])c([H])c1[H]


 19 21  0  0  0  0  0  0  0  0999 V2000
    4.4166    5.7303   18.0673 N   0  0  0  0  0  0  0  0  0  0  0  0
    4.3416    5.8803   17.0485 H   0  0  0  0  0  0  0  0  0  0  0  0
    5.0408    3.5517   19.2413 C   0  0  0  0  0  0  0  0  0  0  0  0
    4.8838    3.3283   17.7340 C   0  0  0  0  0  0  0  0  0  0  0  0
    4.0733    4.3865   18.4899 C   0  0  0  0  0  0  0  0  0  0  0  0
    3.3093    0.5893   21.8423 C   0  0  0  0  0  0  0  0  0  0  0  0
    3.4940    0.3514   20.4968 C   0  0  0  0  0  0  0  0  0  0  0  0
    4.0576    1.3271   19.6728 C   0  0  0  0  0  0  0  0  0  0  0  0
    4.4475    2.5502   20.1595 C   0  0  0  0  0  0  0  0  0  0  0  0
    4.2598    2.7813   21.5062 C   0  0  0  0  0  0  0  0  0  0  0  0
    3.6984    1.8131   22.3335 C   0  0  0  0  0  0  0  0  0  0  0  0
    3.5900    6.6336   18.8408 C   0  0  0  0  0  0  0  0  0  0  0  0
    4.3712    7.6950   19.5578 C   0  0  0  0  0  0  0  0  0  0  0  0
    3.7763    9.0379   19.2432 C   0  0  0  0  0  0  0  0  0  0  0  0
    3.9267    9.4658   17.8197 C   0  0  0  0  0  0  0  0  0  0  0  0
    5.0255    8.8002   17.1419 N   0  0  0  0  0  0  0  0  0  0  0  0
    6.1235    8.7586   18.1200 C   0  0  0  0  0  0  0  0  0  0  0  0
    5.8078    7.6001   19.0554 C   0  0  0  0  0  0  0  0  0  0  0  0
    5.2837    9.3304   16.3035 H   0  0  0  0  0  0  0  0  0  0  0  0
  6  7  2  0  0  0
  7  8  1  0  0  0
  8  9  2  0  0  0
  9  3  1  0  0  0
  3  4  1  0  0  0
  4  5  1  0  0  0
  5  1  1  0  0  0
  1 12  1  0  0  0
 12 13  1  0  0  0
 13 14  1  0  0  0
 14 15  1  0  0  0
 15 16  1  0  0  0
 16 17  1  0  0  0
 17 18  1  0  0  0
  9 10  1  0  0  0
 10 11  2  0  0  0
 11  6  1  0  0  0
  5  3  1  0  0  0
 18 13  1  0  0  0
  1  2  1  0  0  0
 16 19  1  0  0  0
M  END
> <minimizedAffinity>
-5.99142

> <CNNscore>
0.4167580009

> <CNNaffinity>
4.7200059891

> <CNN_VS>
1.9671002626

> <CNNaffinity_variance>
0.1366576403

$$$$
[H]c1c([H])c([H])c([C@@]2([H])C([H])([H])[C@]2([H])N([H])C([H])([H])C2([H])C([H])([H])C([H])([H])N([H])C([H])([H])C2([H])[H])c([H])c1[H]


 19 21  0  0  0  0  0  0  0  0999 V2000
    4.2149    6.4331   22.1283 N   0  0  0  0  0  0  0  0  0  0  0  0
    4.3899    7.1190   22.8800 H   0  0  0  0  0  0  0  0  0  0  0  0
    3.9538    3.8958   22.0415 C   0  0  0  0  0  0  0  0  0  0  0  0
    3.8935    4.3967   23.4878 C   0  0  0  0  0  0  0  0  0  0  0  0
    4.7246    5.1061   22.4136 C   0  0  0  0  0  0  0  0  0  0  0  0
    6.2220    0.3369   21.1878 C   0  0  0  0  0  0  0  0  0  0  0  0
    4.8659    0.4053   20.9480 C   0  0  0  0  0  0  0  0  0  0  0  0
    4.1513    1.5701   21.2327 C   0  0  0  0  0  0  0  0  0  0  0  0
    4.7591    2.6839   21.7570 C   0  0  0  0  0  0  0  0  0  0  0  0
    6.1157    2.6083   21.9943 C   0  0  0  0  0  0  0  0  0  0  0  0
    6.8344    1.4501   21.7129 C   0  0  0  0  0  0  0  0  0  0  0  0
    4.7743    6.8281   20.8521 C   0  0  0  0  0  0  0  0  0  0  0  0
    6.0032    6.0560   20.4720 C   0  0  0  0  0  0  0  0  0  0  0  0
    7.1813    6.9877   20.4541 C   0  0  0  0  0  0  0  0  0  0  0  0
    7.1360    8.0257   19.3805 C   0  0  0  0  0  0  0  0  0  0  0  0
    6.2835    7.6501   18.2660 N   0  0  0  0  0  0  0  0  0  0  0  0
    6.5467    6.2216   18.0335 C   0  0  0  0  0  0  0  0  0  0  0  0
    5.7455    5.4709   19.0877 C   0  0  0  0  0  0  0  0  0  0  0  0
    6.5197    8.2181   17.4461 H   0  0  0  0  0  0  0  0  0  0  0  0
  6  7  2  0  0  0
  7  8  1  0  0  0
  8  9  2  0  0  0
  9  3  1  0  0  0
  3  4  1  0  0  0
  4  5  1  0  0  0
  5  1  1  0  0  0
  1 12  1  0  0  0
 12 13  1  0  0  0
 13 14  1  0  0  0
 14 15  1  0  0  0
 15 16  1  0  0  0
 16 17  1  0  0  0
 17 18  1  0  0  0
  9 10  1  0  0  0
 10 11  2  0  0  0
 11  6  1  0  0  0
  5  3  1  0  0  0
 18 13  1  0  0  0
  1  2  1  0  0  0
 16 19  1  0  0  0
M  END
> <minimizedAffinity>
-6.62922

> <CNNscore>
0.4165023565

> <CNNaffinity>
4.6968479156

> <CNN_VS>
1.9562482834

> <CNNaffinity_variance>
0.2642167211

$$$$
[H]c1c([H])c([H])c([C@@]2([H])C([H])([H])[C@]2([H])N([H])C([H])([H])C2([H])C([H])([H])C([H])([H])N([H])C([H])([H])C2([H])[H])c([H])c1[H]


 19 21  0  0  0  0  0  0  0  0999 V2000
    3.0629    3.4350   11.9611 N   0  0  0  0  0  0  0  0  0  0  0  0
    2.2330    3.7928   11.4618 H   0  0  0  0  0  0  0  0  0  0  0  0
    2.7441    1.9405   14.0052 C   0  0  0  0  0  0  0  0  0  0  0  0
    1.4724    2.7453   13.7199 C   0  0  0  0  0  0  0  0  0  0  0  0
    2.8687    3.2834   13.3898 C   0  0  0  0  0  0  0  0  0  0  0  0
    4.0261    1.5571   18.0978 C   0  0  0  0  0  0  0  0  0  0  0  0
    3.2327    0.6034   17.4959 C   0  0  0  0  0  0  0  0  0  0  0  0
    2.8294    0.7491   16.1675 C   0  0  0  0  0  0  0  0  0  0  0  0
    3.2000    1.8339   15.4120 C   0  0  0  0  0  0  0  0  0  0  0  0
    3.9935    2.7839   16.0205 C   0  0  0  0  0  0  0  0  0  0  0  0
    4.3992    2.6450   17.3445 C   0  0  0  0  0  0  0  0  0  0  0  0
    4.2371    4.2647   11.7866 C   0  0  0  0  0  0  0  0  0  0  0  0
    4.2334    5.0462   10.5060 C   0  0  0  0  0  0  0  0  0  0  0  0
    5.6004    4.9788    9.8870 C   0  0  0  0  0  0  0  0  0  0  0  0
    6.6684    5.6794   10.6621 C   0  0  0  0  0  0  0  0  0  0  0  0
    6.1444    6.7033   11.5492 N   0  0  0  0  0  0  0  0  0  0  0  0
    5.0878    7.3832   10.7843 C   0  0  0  0  0  0  0  0  0  0  0  0
    3.8645    6.4812   10.8663 C   0  0  0  0  0  0  0  0  0  0  0  0
    6.8969    7.3476   11.8126 H   0  0  0  0  0  0  0  0  0  0  0  0
  6  7  2  0  0  0
  7  8  1  0  0  0
  8  9  2  0  0  0
  9  3  1  0  0  0
  3  4  1  0  0  0
  4  5  1  0  0  0
  5  1  1  0  0  0
  1 12  1  0  0  0
 12 13  1  0  0  0
 13 14  1  0  0  0
 14 15  1  0  0  0
 15 16  1  0  0  0
 16 17  1  0  0  0
 17 18  1  0  0  0
  9 10  1  0  0  0
 10 11  2  0  0  0
 11  6  1  0  0  0
  5  3  1  0  0  0
 18 13  1  0  0  0
  1  2  1  0  0  0
 16 19  1  0  0  0
M  END
> <minimizedAffinity>
-5.17587

> <CNNscore>
0.4121653438

> <CNNaffinity>
4.0331635475

> <CNN_VS>
1.6623302698

> <CNNaffinity_variance>
0.2161821127

$$$$
[H]c1c([H])c([H])c([C@@]2([H])C([H])([H])[C@]2([H])N([H])C([H])([H])C2([H])C([H])([H])C([H])([H])N([H])C([H])([H])C2([H])[H])c([H])c1[H]


 19 21  0  0  0  0  0  0  0  0999 V2000
    4.0941    5.5875   17.9952 N   0  0  0  0  0  0  0  0  0  0  0  0
    3.5202    5.7681   17.1561 H   0  0  0  0  0  0  0  0  0  0  0  0
    4.9293    3.6203   19.3904 C   0  0  0  0  0  0  0  0  0  0  0  0
    4.7393    3.2046   17.9284 C   0  0  0  0  0  0  0  0  0  0  0  0
    3.8733    4.2830   18.5882 C   0  0  0  0  0  0  0  0  0  0  0  0
    3.5395    0.9995   22.5112 C   0  0  0  0  0  0  0  0  0  0  0  0
    3.8332    2.3242   22.7564 C   0  0  0  0  0  0  0  0  0  0  0  0
    4.2823    3.1551   21.7285 C   0  0  0  0  0  0  0  0  0  0  0  0
    4.4491    2.6960   20.4455 C   0  0  0  0  0  0  0  0  0  0  0  0
    4.1535    1.3700   20.2075 C   0  0  0  0  0  0  0  0  0  0  0  0
    3.7054    0.5359   21.2275 C   0  0  0  0  0  0  0  0  0  0  0  0
    3.8917    6.5623   19.0471 C   0  0  0  0  0  0  0  0  0  0  0  0
    5.0161    7.5472   19.1755 C   0  0  0  0  0  0  0  0  0  0  0  0
    6.0790    6.9645   20.0627 C   0  0  0  0  0  0  0  0  0  0  0  0
    5.6702    6.7893   21.4890 C   0  0  0  0  0  0  0  0  0  0  0  0
    4.5698    7.6563   21.8728 N   0  0  0  0  0  0  0  0  0  0  0  0
    4.8526    8.9540   21.2403 C   0  0  0  0  0  0  0  0  0  0  0  0
    4.4254    8.8134   19.7861 C   0  0  0  0  0  0  0  0  0  0  0  0
    4.5322    7.7320   22.8943 H   0  0  0  0  0  0  0  0  0  0  0  0
  6  7  2  0  0  0
  7  8  1  0  0  0
  8  9  2  0  0  0
  9  3  1  0  0  0
  3  4  1  0  0  0
  4  5  1  0  0  0
  5  1  1  0  0  0
  1 12  1  0  0  0
 12 13  1  0  0  0
 13 14  1  0  0  0
 14 15  1  0  0  0
 15 16  1  0  0  0
 16 17  1  0  0  0
 17 18  1  0  0  0
  9 10  1  0  0  0
 10 11  2  0  0  0
 11  6  1  0  0  0
  5  3  1  0  0  0
 18 13  1  0  0  0
  1  2  1  0  0  0
 16 19  1  0  0  0
M  END
> <minimizedAffinity>
-6.77337

> <CNNscore>
0.4079888761

> <CNNaffinity>
4.7719221115

> <CNN_VS>
1.9468911886

> <CNNaffinity_variance>
0.1848111451

$$$$
[H]c1c([H])c([H])c([C@@]2([H])C([H])([H])[C@]2([H])N([H])C([H])([H])C2([H])C([H])([H])C([H])([H])N([H])C([H])([H])C2([H])[H])c([H])c1[H]


 19 21  0  0  0  0  0  0  0  0999 V2000
    1.7835    4.2051   12.6775 N   0  0  0  0  0  0  0  0  0  0  0  0
    0.9756    4.8467   12.6363 H   0  0  0  0  0  0  0  0  0  0  0  0
    2.8187    2.2964   14.0188 C   0  0  0  0  0  0  0  0  0  0  0  0
    1.3982    1.9361   13.5731 C   0  0  0  0  0  0  0  0  0  0  0  0
    1.8180    3.3798   13.8691 C   0  0  0  0  0  0  0  0  0  0  0  0
    3.9214    1.2933   18.0583 C   0  0  0  0  0  0  0  0  0  0  0  0
    3.1006    0.4775   17.3087 C   0  0  0  0  0  0  0  0  0  0  0  0
    2.7566    0.8234   16.0008 C   0  0  0  0  0  0  0  0  0  0  0  0
    3.2144    1.9757   15.4112 C   0  0  0  0  0  0  0  0  0  0  0  0
    4.0349    2.7869   16.1669 C   0  0  0  0  0  0  0  0  0  0  0  0
    4.3817    2.4482   17.4714 C   0  0  0  0  0  0  0  0  0  0  0  0
    3.0594    4.8867   12.6065 C   0  0  0  0  0  0  0  0  0  0  0  0
    2.9470    6.3281   12.2058 C   0  0  0  0  0  0  0  0  0  0  0  0
    3.7811    7.1618   13.1362 C   0  0  0  0  0  0  0  0  0  0  0  0
    3.2862    7.2034   14.5453 C   0  0  0  0  0  0  0  0  0  0  0  0
    1.8717    6.8926   14.6576 N   0  0  0  0  0  0  0  0  0  0  0  0
    1.2273    7.5791   13.5274 C   0  0  0  0  0  0  0  0  0  0  0  0
    1.4720    6.7006   12.3087 C   0  0  0  0  0  0  0  0  0  0  0  0
    1.5165    7.2288   15.5584 H   0  0  0  0  0  0  0  0  0  0  0  0
  6  7  2  0  0  0
  7  8  1  0  0  0
  8  9  2  0  0  0
  9  3  1  0  0  0
  3  4  1  0  0  0
  4  5  1  0  0  0
  5  1  1  0  0  0
  1 12  1  0  0  0
 12 13  1  0  0  0
 13 14  1  0  0  0
 14 15  1  0  0  0
 15 16  1  0  0  0
 16 17  1  0  0  0
 17 18  1  0  0  0
  9 10  1  0  0  0
 10 11  2  0  0  0
 11  6  1  0  0  0
  5  3  1  0  0  0
 18 13  1  0  0  0
  1  2  1  0  0  0
 16 19  1  0  0  0
M  END
> <minimizedAffinity>
-5.62788

> <CNNscore>
0.3887816668

> <CNNaffinity>
4.1133022308

> <CNN_VS>
1.5991765261

> <CNNaffinity_variance>
0.3761164248

$$$$
[H]c1c([H])c([H])c([C@@]2([H])C([H])([H])[C@]2([H])N([H])C([H])([H])C2([H])C([H])([H])C([H])([H])N([H])C([H])([H])C2([H])[H])c([H])c1[H]


 19 21  0  0  0  0  0  0  0  0999 V2000
    3.0809    4.0594   12.6375 N   0  0  0  0  0  0  0  0  0  0  0  0
    2.3735    3.8966   11.9033 H   0  0  0  0  0  0  0  0  0  0  0  0
    3.0178    2.0607   14.2234 C   0  0  0  0  0  0  0  0  0  0  0  0
    1.6007    2.4628   13.8030 C   0  0  0  0  0  0  0  0  0  0  0  0
    2.7361    3.4849   13.9232 C   0  0  0  0  0  0  0  0  0  0  0  0
    3.7615    1.1988   18.3759 C   0  0  0  0  0  0  0  0  0  0  0  0
    4.3278    2.2895   17.7508 C   0  0  0  0  0  0  0  0  0  0  0  0
    4.0721    2.5490   16.4032 C   0  0  0  0  0  0  0  0  0  0  0  0
    3.2564    1.7404   15.6512 C   0  0  0  0  0  0  0  0  0  0  0  0
    2.6933    0.6513   16.2830 C   0  0  0  0  0  0  0  0  0  0  0  0
    2.9440    0.3866   17.6261 C   0  0  0  0  0  0  0  0  0  0  0  0
    3.3527    5.4631   12.8686 C   0  0  0  0  0  0  0  0  0  0  0  0
    2.2257    6.1883   13.5431 C   0  0  0  0  0  0  0  0  0  0  0  0
    1.3290    6.7831   12.4951 C   0  0  0  0  0  0  0  0  0  0  0  0
    1.9525    7.8788   11.6932 C   0  0  0  0  0  0  0  0  0  0  0  0
    3.0663    8.5152   12.3746 N   0  0  0  0  0  0  0  0  0  0  0  0
    2.6460    8.6453   13.7784 C   0  0  0  0  0  0  0  0  0  0  0  0
    2.8556    7.2752   14.4074 C   0  0  0  0  0  0  0  0  0  0  0  0
    3.2535    9.4282   11.9482 H   0  0  0  0  0  0  0  0  0  0  0  0
  6  7  2  0  0  0
  7  8  1  0  0  0
  8  9  2  0  0  0
  9  3  1  0  0  0
  3  4  1  0  0  0
  4  5  1  0  0  0
  5  1  1  0  0  0
  1 12  1  0  0  0
 12 13  1  0  0  0
 13 14  1  0  0  0
 14 15  1  0  0  0
 15 16  1  0  0  0
 16 17  1  0  0  0
 17 18  1  0  0  0
  9 10  1  0  0  0
 10 11  2  0  0  0
 11  6  1  0  0  0
  5  3  1  0  0  0
 18 13  1  0  0  0
  1  2  1  0  0  0
 16 19  1  0  0  0
M  END
> <minimizedAffinity>
-5.65211

> <CNNscore>
0.3859416842

> <CNNaffinity>
4.2022132874

> <CNN_VS>
1.6218092442

> <CNNaffinity_variance>
0.3310107291

$$$$
[H]OC([H])([H])C(F)(F)C([H])([H])N1[C@]([H])(c2c(F)c([H])nc(OC([H])([H])C([H])([H])N([H])C([H])([H])C([H])([H])C([H])([H])F)c2F)c2c(c3c([H])c([H])c([H])c([H])c3n2[H])C([H])([H])[C@@]1([H])C([H])([H])[H]


 39 42  0  0  0  0  0  0  0  0999 V2000
    2.9042    1.3318   18.1357 C   0  0  0  0  0  0  0  0  0  0  0  0
    4.2231    1.8217   17.6011 C   0  0  0  0  0  0  0  0  0  0  0  0
    5.1867    1.5321   18.7894 C   0  0  0  0  0  0  0  0  0  0  0  0
    4.7993    2.4989   19.8330 C   0  0  0  0  0  0  0  0  0  0  0  0
    4.2892    3.7234   19.4860 C   0  0  0  0  0  0  0  0  0  0  0  0
    4.0366    4.3598   20.6510 N   0  0  0  0  0  0  0  0  0  0  0  0
    4.3592    3.6049   21.7070 C   0  0  0  0  0  0  0  0  0  0  0  0
    4.3010    3.7776   23.0774 C   0  0  0  0  0  0  0  0  0  0  0  0
    4.7220    2.7808   23.9282 C   0  0  0  0  0  0  0  0  0  0  0  0
    5.2185    1.5703   23.4332 C   0  0  0  0  0  0  0  0  0  0  0  0
    5.2642    1.4273   22.0649 C   0  0  0  0  0  0  0  0  0  0  0  0
    4.8470    2.4152   21.2054 C   0  0  0  0  0  0  0  0  0  0  0  0
    4.0896    4.1767   18.0788 C   0  0  0  0  0  0  0  0  0  0  0  0
    4.3181    3.1235   17.1398 N   0  0  0  0  0  0  0  0  0  0  0  0
    3.6399    5.3189   20.7314 H   0  0  0  0  0  0  0  0  0  0  0  0
    4.6675    5.4847   17.8172 C   0  0  0  0  0  0  0  0  0  0  0  0
    5.9876    5.6619   17.4629 C   0  0  0  0  0  0  0  0  0  0  0  0
    6.7675    4.5934   17.3590 F   0  0  0  0  0  0  0  0  0  0  0  0
    6.5267    6.9114   17.2124 C   0  0  0  0  0  0  0  0  0  0  0  0
    5.7401    7.9969   17.3166 N   0  0  0  0  0  0  0  0  0  0  0  0
    4.4434    7.9145   17.6566 C   0  0  0  0  0  0  0  0  0  0  0  0
    3.9205    6.6559   17.9038 C   0  0  0  0  0  0  0  0  0  0  0  0
    2.6058    6.6141   18.2459 F   0  0  0  0  0  0  0  0  0  0  0  0
    3.6903    9.0527   17.7468 O   0  0  0  0  0  0  0  0  0  0  0  0
    3.3972    9.7966   18.8876 C   0  0  0  0  0  0  0  0  0  0  0  0
    4.4687    9.8342   19.9210 C   0  0  0  0  0  0  0  0  0  0  0  0
    4.3367    8.7699   20.9010 N   0  0  0  0  0  0  0  0  0  0  0  0
    3.4372    8.7627   21.3959 H   0  0  0  0  0  0  0  0  0  0  0  0
    5.4671    8.6652   21.7769 C   0  0  0  0  0  0  0  0  0  0  0  0
    6.4824    7.6568   21.2998 C   0  0  0  0  0  0  0  0  0  0  0  0
    6.6380    6.4821   22.2200 C   0  0  0  0  0  0  0  0  0  0  0  0
    7.1947    5.3777   21.6150 F   0  0  0  0  0  0  0  0  0  0  0  0
    4.5936    3.5013   15.8481 C   0  0  0  0  0  0  0  0  0  0  0  0
    3.6830    3.5815   14.7194 C   0  0  0  0  0  0  0  0  0  0  0  0
    4.2687    3.9956   13.5235 F   0  0  0  0  0  0  0  0  0  0  0  0
    3.3341    2.2137   14.3223 F   0  0  0  0  0  0  0  0  0  0  0  0
    2.3439    4.2089   14.8218 C   0  0  0  0  0  0  0  0  0  0  0  0
    2.2310    5.5570   14.8653 O   0  0  0  0  0  0  0  0  0  0  0  0
    2.1270    5.9616   13.9727 H   0  0  0  0  0  0  0  0  0  0  0  0
  1  2  1  0  0  0
  2  3  1  0  0  0
  3  4  1  0  0  0
  4  5  2  0  0  0
  5  6  1  0  0  0
  6  7  1  0  0  0
  7  8  2  0  0  0
  8  9  1  0  0  0
  9 10  2  0  0  0
 10 11  1  0  0  0
 11 12  2  0  0  0
  5 13  1  0  0  0
 13 16  1  0  0  0
 16 17  2  0  0  0
 17 18  1  0  0  0
 17 19  1  0  0  0
 19 20  2  0  0  0
 20 21  1  0  0  0
 21 24  1  0  0  0
 24 25  1  0  0  0
 25 26  1  0  0  0
 26 27  1  0  0  0
 27 29  1  0  0  0
 29 30  1  0  0  0
 30 31  1  0  0  0
 31 32  1  0  0  0
 21 22  2  0  0  0
 22 23  1  0  0  0
 13 14  1  0  0  0
 14 33  1  0  0  0
 33 34  1  0  0  0
 34 35  1  0  0  0
 34 36  1  0  0  0
 34 37  1  0  0  0
 37 38  1  0  0  0
 14  2  1  0  0  0
 12  4  1  0  0  0
 22 16  1  0  0  0
 12  7  1  0  0  0
  6 15  1  0  0  0
 27 28  1  0  0  0
 38 39  1  0  0  0
M  END
> <minimizedAffinity>
-7.27093

> <CNNscore>
0.4577778876

> <CNNaffinity>
6.8892297745

> <CNN_VS>
3.1537370682

> <CNNaffinity_variance>
0.1615968943

$$$$
[H]OC([H])([H])C(F)(F)C([H])([H])N1[C@]([H])(c2c(F)c([H])nc(OC([H])([H])C([H])([H])N([H])C([H])([H])C([H])([H])C([H])([H])F)c2F)c2c(c3c([H])c([H])c([H])c([H])c3n2[H])C([H])([H])[C@@]1([H])C([H])([H])[H]


 39 42  0  0  0  0  0  0  0  0999 V2000
    6.6763    2.0239   21.5478 C   0  0  0  0  0  0  0  0  0  0  0  0
    5.6805    3.0931   21.9092 C   0  0  0  0  0  0  0  0  0  0  0  0
    4.3232    2.3931   21.6063 C   0  0  0  0  0  0  0  0  0  0  0  0
    4.2735    2.2868   20.1366 C   0  0  0  0  0  0  0  0  0  0  0  0
    4.8889    3.2297   19.3540 C   0  0  0  0  0  0  0  0  0  0  0  0
    4.6648    2.8502   18.0767 N   0  0  0  0  0  0  0  0  0  0  0  0
    3.9447    1.7248   18.0141 C   0  0  0  0  0  0  0  0  0  0  0  0
    3.4571    0.9405   16.9853 C   0  0  0  0  0  0  0  0  0  0  0  0
    2.7259   -0.1941   17.2545 C   0  0  0  0  0  0  0  0  0  0  0  0
    2.4564   -0.5846   18.5705 C   0  0  0  0  0  0  0  0  0  0  0  0
    2.9547    0.2156   19.5734 C   0  0  0  0  0  0  0  0  0  0  0  0
    3.6858    1.3508   19.3173 C   0  0  0  0  0  0  0  0  0  0  0  0
    5.6326    4.4055   19.8924 C   0  0  0  0  0  0  0  0  0  0  0  0
    5.7862    4.3375   21.3119 N   0  0  0  0  0  0  0  0  0  0  0  0
    5.0048    3.3610   17.2357 H   0  0  0  0  0  0  0  0  0  0  0  0
    5.2158    5.6627   19.2932 C   0  0  0  0  0  0  0  0  0  0  0  0
    4.0041    6.2580   19.5706 C   0  0  0  0  0  0  0  0  0  0  0  0
    3.1792    5.6571   20.4187 F   0  0  0  0  0  0  0  0  0  0  0  0
    3.6187    7.4570   18.9975 C   0  0  0  0  0  0  0  0  0  0  0  0
    4.4513    8.0694   18.1375 N   0  0  0  0  0  0  0  0  0  0  0  0
    5.6500    7.5589   17.8114 C   0  0  0  0  0  0  0  0  0  0  0  0
    6.0196    6.3580   18.3945 C   0  0  0  0  0  0  0  0  0  0  0  0
    7.2386    5.8737   18.0387 F   0  0  0  0  0  0  0  0  0  0  0  0
    6.4566    8.2260   16.9309 O   0  0  0  0  0  0  0  0  0  0  0  0
    6.0734    9.0338   15.8626 C   0  0  0  0  0  0  0  0  0  0  0  0
    5.3523    8.3392   14.7603 C   0  0  0  0  0  0  0  0  0  0  0  0
    3.9417    8.1469   15.0501 N   0  0  0  0  0  0  0  0  0  0  0  0
    3.6829    8.3359   16.0254 H   0  0  0  0  0  0  0  0  0  0  0  0
    3.4286    6.9019   14.5577 C   0  0  0  0  0  0  0  0  0  0  0  0
    3.6075    5.7695   15.5380 C   0  0  0  0  0  0  0  0  0  0  0  0
    2.3189    5.1105   15.9335 C   0  0  0  0  0  0  0  0  0  0  0  0
    2.2257    4.8465   17.2816 F   0  0  0  0  0  0  0  0  0  0  0  0
    6.0474    5.5209   21.9588 C   0  0  0  0  0  0  0  0  0  0  0  0
    7.3372    6.1092   22.2746 C   0  0  0  0  0  0  0  0  0  0  0  0
    8.2548    5.2318   22.8517 F   0  0  0  0  0  0  0  0  0  0  0  0
    8.0430    6.3545   21.0128 F   0  0  0  0  0  0  0  0  0  0  0  0
    7.4679    7.4245   22.9455 C   0  0  0  0  0  0  0  0  0  0  0  0
    6.8467    7.6446   24.1277 O   0  0  0  0  0  0  0  0  0  0  0  0
    7.4111    7.4218   24.9042 H   0  0  0  0  0  0  0  0  0  0  0  0
  1  2  1  0  0  0
  2  3  1  0  0  0
  3  4  1  0  0  0
  4  5  2  0  0  0
  5  6  1  0  0  0
  6  7  1  0  0  0
  7  8  2  0  0  0
  8  9  1  0  0  0
  9 10  2  0  0  0
 10 11  1  0  0  0
 11 12  2  0  0  0
  5 13  1  0  0  0
 13 16  1  0  0  0
 16 17  2  0  0  0
 17 18  1  0  0  0
 17 19  1  0  0  0
 19 20  2  0  0  0
 20 21  1  0  0  0
 21 24  1  0  0  0
 24 25  1  0  0  0
 25 26  1  0  0  0
 26 27  1  0  0  0
 27 29  1  0  0  0
 29 30  1  0  0  0
 30 31  1  0  0  0
 31 32  1  0  0  0
 21 22  2  0  0  0
 22 23  1  0  0  0
 13 14  1  0  0  0
 14 33  1  0  0  0
 33 34  1  0  0  0
 34 35  1  0  0  0
 34 36  1  0  0  0
 34 37  1  0  0  0
 37 38  1  0  0  0
 14  2  1  0  0  0
 12  4  1  0  0  0
 22 16  1  0  0  0
 12  7  1  0  0  0
  6 15  1  0  0  0
 27 28  1  0  0  0
 38 39  1  0  0  0
M  END
> <minimizedAffinity>
-8.34538

> <CNNscore>
0.4493978024

> <CNNaffinity>
7.1420412064

> <CNN_VS>
3.2096176147

> <CNNaffinity_variance>
0.1486776024

$$$$
[H]OC([H])([H])C(F)(F)C([H])([H])N1[C@]([H])(c2c(F)c([H])nc(OC([H])([H])C([H])([H])N([H])C([H])([H])C([H])([H])C([H])([H])F)c2F)c2c(c3c([H])c([H])c([H])c([H])c3n2[H])C([H])([H])[C@@]1([H])C([H])([H])[H]


 39 42  0  0  0  0  0  0  0  0999 V2000
    6.4076    2.4600   21.4561 C   0  0  0  0  0  0  0  0  0  0  0  0
    5.5072    3.6651   21.4074 C   0  0  0  0  0  0  0  0  0  0  0  0
    4.1291    3.0310   21.0566 C   0  0  0  0  0  0  0  0  0  0  0  0
    4.2654    2.5824   19.6587 C   0  0  0  0  0  0  0  0  0  0  0  0
    5.0888    3.2561   18.7937 C   0  0  0  0  0  0  0  0  0  0  0  0
    4.9951    2.6039   17.6140 N   0  0  0  0  0  0  0  0  0  0  0  0
    4.1606    1.5613   17.6902 C   0  0  0  0  0  0  0  0  0  0  0  0
    3.7258    0.5989   16.7979 C   0  0  0  0  0  0  0  0  0  0  0  0
    2.8348   -0.3727   17.1936 C   0  0  0  0  0  0  0  0  0  0  0  0
    2.3458   -0.4142   18.5036 C   0  0  0  0  0  0  0  0  0  0  0  0
    2.7966    0.5565   19.3691 C   0  0  0  0  0  0  0  0  0  0  0  0
    3.6859    1.5316   18.9859 C   0  0  0  0  0  0  0  0  0  0  0  0
    5.8885    4.4588   19.1676 C   0  0  0  0  0  0  0  0  0  0  0  0
    5.8403    4.7179   20.5725 N   0  0  0  0  0  0  0  0  0  0  0  0
    5.5038    2.8689   16.7452 H   0  0  0  0  0  0  0  0  0  0  0  0
    5.7093    5.5679   18.2450 C   0  0  0  0  0  0  0  0  0  0  0  0
    6.7181    6.4553   17.9375 C   0  0  0  0  0  0  0  0  0  0  0  0
    7.9041    6.2939   18.5101 F   0  0  0  0  0  0  0  0  0  0  0  0
    6.5379    7.5055   17.0548 C   0  0  0  0  0  0  0  0  0  0  0  0
    5.3377    7.6729   16.4723 N   0  0  0  0  0  0  0  0  0  0  0  0
    4.3007    6.8549   16.7156 C   0  0  0  0  0  0  0  0  0  0  0  0
    4.4989    5.8088   17.6017 C   0  0  0  0  0  0  0  0  0  0  0  0
    3.4260    5.0043   17.8226 F   0  0  0  0  0  0  0  0  0  0  0  0
    3.1021    7.0726   16.0937 O   0  0  0  0  0  0  0  0  0  0  0  0
    2.8225    7.0147   14.7302 C   0  0  0  0  0  0  0  0  0  0  0  0
    2.8966    5.6593   14.1179 C   0  0  0  0  0  0  0  0  0  0  0  0
    2.8256    5.6973   12.6673 N   0  0  0  0  0  0  0  0  0  0  0  0
    3.6615    5.3335   12.1954 H   0  0  0  0  0  0  0  0  0  0  0  0
    2.3916    6.9647   12.1561 C   0  0  0  0  0  0  0  0  0  0  0  0
    3.3048    7.5039   11.0835 C   0  0  0  0  0  0  0  0  0  0  0  0
    2.8658    7.1547    9.6919 C   0  0  0  0  0  0  0  0  0  0  0  0
    2.0037    8.0746    9.1386 F   0  0  0  0  0  0  0  0  0  0  0  0
    6.1515    5.9947   20.9725 C   0  0  0  0  0  0  0  0  0  0  0  0
    5.2616    7.0172   21.4942 C   0  0  0  0  0  0  0  0  0  0  0  0
    4.0970    6.5316   22.0882 F   0  0  0  0  0  0  0  0  0  0  0  0
    5.8859    7.5921   22.6901 F   0  0  0  0  0  0  0  0  0  0  0  0
    4.9168    8.2375   20.7267 C   0  0  0  0  0  0  0  0  0  0  0  0
    3.7935    8.2662   19.9722 O   0  0  0  0  0  0  0  0  0  0  0  0
    3.0093    8.6022   20.4655 H   0  0  0  0  0  0  0  0  0  0  0  0
  1  2  1  0  0  0
  2  3  1  0  0  0
  3  4  1  0  0  0
  4  5  2  0  0  0
  5  6  1  0  0  0
  6  7  1  0  0  0
  7  8  2  0  0  0
  8  9  1  0  0  0
  9 10  2  0  0  0
 10 11  1  0  0  0
 11 12  2  0  0  0
  5 13  1  0  0  0
 13 16  1  0  0  0
 16 17  2  0  0  0
 17 18  1  0  0  0
 17 19  1  0  0  0
 19 20  2  0  0  0
 20 21  1  0  0  0
 21 24  1  0  0  0
 24 25  1  0  0  0
 25 26  1  0  0  0
 26 27  1  0  0  0
 27 29  1  0  0  0
 29 30  1  0  0  0
 30 31  1  0  0  0
 31 32  1  0  0  0
 21 22  2  0  0  0
 22 23  1  0  0  0
 13 14  1  0  0  0
 14 33  1  0  0  0
 33 34  1  0  0  0
 34 35  1  0  0  0
 34 36  1  0  0  0
 34 37  1  0  0  0
 37 38  1  0  0  0
 14  2  1  0  0  0
 12  4  1  0  0  0
 22 16  1  0  0  0
 12  7  1  0  0  0
  6 15  1  0  0  0
 27 28  1  0  0  0
 38 39  1  0  0  0
M  END
> <minimizedAffinity>
-6.66962

> <CNNscore>
0.3738449216

> <CNNaffinity>
6.7268362045

> <CNN_VS>
2.5147936344

> <CNNaffinity_variance>
0.1553923339

$$$$
[H]OC([H])([H])C(F)(F)C([H])([H])N1[C@]([H])(c2c(F)c([H])nc(OC([H])([H])C([H])([H])N([H])C([H])([H])C([H])([H])C([H])([H])F)c2F)c2c(c3c([H])c([H])c([H])c([H])c3n2[H])C([H])([H])[C@@]1([H])C([H])([H])[H]


 39 42  0  0  0  0  0  0  0  0999 V2000
    3.9189    4.0057   23.1440 C   0  0  0  0  0  0  0  0  0  0  0  0
    4.8435    3.4975   22.0706 C   0  0  0  0  0  0  0  0  0  0  0  0
    6.0734    4.4399   22.2238 C   0  0  0  0  0  0  0  0  0  0  0  0
    5.6024    5.7544   21.7504 C   0  0  0  0  0  0  0  0  0  0  0  0
    4.6390    5.8344   20.7779 C   0  0  0  0  0  0  0  0  0  0  0  0
    4.4311    7.1540   20.5743 N   0  0  0  0  0  0  0  0  0  0  0  0
    5.2086    7.9046   21.3626 C   0  0  0  0  0  0  0  0  0  0  0  0
    5.3821    9.2641   21.5436 C   0  0  0  0  0  0  0  0  0  0  0  0
    6.2904    9.7388   22.4625 C   0  0  0  0  0  0  0  0  0  0  0  0
    7.0603    8.8636   23.2358 C   0  0  0  0  0  0  0  0  0  0  0  0
    6.8656    7.5161   23.0336 C   0  0  0  0  0  0  0  0  0  0  0  0
    5.9620    7.0300   22.1193 C   0  0  0  0  0  0  0  0  0  0  0  0
    4.0052    4.6491   20.1306 C   0  0  0  0  0  0  0  0  0  0  0  0
    4.3827    3.4262   20.7670 N   0  0  0  0  0  0  0  0  0  0  0  0
    3.7528    7.5513   19.8918 H   0  0  0  0  0  0  0  0  0  0  0  0
    4.0256    4.7176   18.6787 C   0  0  0  0  0  0  0  0  0  0  0  0
    5.1737    4.5378   17.9376 C   0  0  0  0  0  0  0  0  0  0  0  0
    6.3115    4.2949   18.5757 F   0  0  0  0  0  0  0  0  0  0  0  0
    5.1814    4.6013   16.5554 C   0  0  0  0  0  0  0  0  0  0  0  0
    4.0307    4.8472   15.9047 N   0  0  0  0  0  0  0  0  0  0  0  0
    2.8671    5.0347   16.5486 C   0  0  0  0  0  0  0  0  0  0  0  0
    2.8779    4.9677   17.9322 C   0  0  0  0  0  0  0  0  0  0  0  0
    1.6818    5.1638   18.5471 F   0  0  0  0  0  0  0  0  0  0  0  0
    1.7267    5.2810   15.8348 O   0  0  0  0  0  0  0  0  0  0  0  0
    1.5948    5.4254   14.4555 C   0  0  0  0  0  0  0  0  0  0  0  0
    1.5705    6.8286   13.9576 C   0  0  0  0  0  0  0  0  0  0  0  0
    2.8672    7.4769   14.0517 N   0  0  0  0  0  0  0  0  0  0  0  0
    3.5113    7.0350   14.7179 H   0  0  0  0  0  0  0  0  0  0  0  0
    2.7775    8.8994   14.2075 C   0  0  0  0  0  0  0  0  0  0  0  0
    3.6816    9.4247   15.2946 C   0  0  0  0  0  0  0  0  0  0  0  0
    4.4025    8.3455   16.0476 C   0  0  0  0  0  0  0  0  0  0  0  0
    3.8829    8.1057   17.2998 F   0  0  0  0  0  0  0  0  0  0  0  0
    4.2336    2.2777   20.0281 C   0  0  0  0  0  0  0  0  0  0  0  0
    3.7931    0.9686   20.4771 C   0  0  0  0  0  0  0  0  0  0  0  0
    4.7433    0.2478   21.1998 F   0  0  0  0  0  0  0  0  0  0  0  0
    2.8141    1.1651   21.5510 F   0  0  0  0  0  0  0  0  0  0  0  0
    3.0716    0.0254   19.5900 C   0  0  0  0  0  0  0  0  0  0  0  0
    2.8443    0.3540   18.2968 O   0  0  0  0  0  0  0  0  0  0  0  0
    3.5625    0.0524   17.6931 H   0  0  0  0  0  0  0  0  0  0  0  0
  1  2  1  0  0  0
  2  3  1  0  0  0
  3  4  1  0  0  0
  4  5  2  0  0  0
  5  6  1  0  0  0
  6  7  1  0  0  0
  7  8  2  0  0  0
  8  9  1  0  0  0
  9 10  2  0  0  0
 10 11  1  0  0  0
 11 12  2  0  0  0
  5 13  1  0  0  0
 13 16  1  0  0  0
 16 17  2  0  0  0
 17 18  1  0  0  0
 17 19  1  0  0  0
 19 20  2  0  0  0
 20 21  1  0  0  0
 21 24  1  0  0  0
 24 25  1  0  0  0
 25 26  1  0  0  0
 26 27  1  0  0  0
 27 29  1  0  0  0
 29 30  1  0  0  0
 30 31  1  0  0  0
 31 32  1  0  0  0
 21 22  2  0  0  0
 22 23  1  0  0  0
 13 14  1  0  0  0
 14 33  1  0  0  0
 33 34  1  0  0  0
 34 35  1  0  0  0
 34 36  1  0  0  0
 34 37  1  0  0  0
 37 38  1  0  0  0
 14  2  1  0  0  0
 12  4  1  0  0  0
 22 16  1  0  0  0
 12  7  1  0  0  0
  6 15  1  0  0  0
 27 28  1  0  0  0
 38 39  1  0  0  0
M  END
> <minimizedAffinity>
-7.81196

> <CNNscore>
0.3662081659

> <CNNaffinity>
6.7278709412

> <CNN_VS>
2.4638013840

> <CNNaffinity_variance>
0.0764432698

$$$$
[H]OC([H])([H])C(F)(F)C([H])([H])N1[C@]([H])(c2c(F)c([H])nc(OC([H])([H])C([H])([H])N([H])C([H])([H])C([H])([H])C([H])([H])F)c2F)c2c(c3c([H])c([H])c([H])c([H])c3n2[H])C([H])([H])[C@@]1([H])C([H])([H])[H]


 39 42  0  0  0  0  0  0  0  0999 V2000
    3.9315    4.1781   23.2257 C   0  0  0  0  0  0  0  0  0  0  0  0
    4.8467    3.6412   22.1582 C   0  0  0  0  0  0  0  0  0  0  0  0
    6.1034    4.5463   22.3179 C   0  0  0  0  0  0  0  0  0  0  0  0
    5.6751    5.8738   21.8405 C   0  0  0  0  0  0  0  0  0  0  0  0
    4.7203    5.9818   20.8622 C   0  0  0  0  0  0  0  0  0  0  0  0
    4.5534    7.3068   20.6561 N   0  0  0  0  0  0  0  0  0  0  0  0
    5.3484    8.0345   21.4483 C   0  0  0  0  0  0  0  0  0  0  0  0
    5.5618    9.3884   21.6291 C   0  0  0  0  0  0  0  0  0  0  0  0
    6.4785    9.8365   22.5529 C   0  0  0  0  0  0  0  0  0  0  0  0
    7.2171    8.9394   23.3317 C   0  0  0  0  0  0  0  0  0  0  0  0
    6.9831    7.5981   23.1295 C   0  0  0  0  0  0  0  0  0  0  0  0
    6.0707    7.1385   22.2103 C   0  0  0  0  0  0  0  0  0  0  0  0
    4.0549    4.8154   20.2123 C   0  0  0  0  0  0  0  0  0  0  0  0
    4.3917    3.5823   20.8520 N   0  0  0  0  0  0  0  0  0  0  0  0
    3.8915    7.7235   19.9693 H   0  0  0  0  0  0  0  0  0  0  0  0
    4.0860    4.8816   18.7604 C   0  0  0  0  0  0  0  0  0  0  0  0
    5.2519    4.7828   18.0320 C   0  0  0  0  0  0  0  0  0  0  0  0
    6.3973    4.6238   18.6828 F   0  0  0  0  0  0  0  0  0  0  0  0
    5.2699    4.8433   16.6498 C   0  0  0  0  0  0  0  0  0  0  0  0
    4.1116    5.0044   15.9862 N   0  0  0  0  0  0  0  0  0  0  0  0
    2.9307    5.1095   16.6173 C   0  0  0  0  0  0  0  0  0  0  0  0
    2.9314    5.0468   18.0010 C   0  0  0  0  0  0  0  0  0  0  0  0
    1.7178    5.1580   18.6026 F   0  0  0  0  0  0  0  0  0  0  0  0
    1.7832    5.2716   15.8907 O   0  0  0  0  0  0  0  0  0  0  0  0
    1.6523    5.7780   14.5995 C   0  0  0  0  0  0  0  0  0  0  0  0
    1.8163    4.7849   13.5020 C   0  0  0  0  0  0  0  0  0  0  0  0
    3.1806    4.7202   13.0069 N   0  0  0  0  0  0  0  0  0  0  0  0
    3.5575    5.6220   12.6928 H   0  0  0  0  0  0  0  0  0  0  0  0
    3.3902    3.6588   12.0659 C   0  0  0  0  0  0  0  0  0  0  0  0
    4.0930    4.1207   10.8138 C   0  0  0  0  0  0  0  0  0  0  0  0
    5.4915    4.6069   11.0565 C   0  0  0  0  0  0  0  0  0  0  0  0
    6.4507    3.8868   10.3806 F   0  0  0  0  0  0  0  0  0  0  0  0
    4.2124    2.4381   20.1133 C   0  0  0  0  0  0  0  0  0  0  0  0
    3.8772    1.1055   20.5837 C   0  0  0  0  0  0  0  0  0  0  0  0
    2.8046    1.0518   21.4733 F   0  0  0  0  0  0  0  0  0  0  0  0
    3.2657    0.3737   19.4697 F   0  0  0  0  0  0  0  0  0  0  0  0
    4.9066    0.1413   21.0396 C   0  0  0  0  0  0  0  0  0  0  0  0
    6.2099    0.5057   21.0638 O   0  0  0  0  0  0  0  0  0  0  0  0
    6.4833    0.8930   21.9277 H   0  0  0  0  0  0  0  0  0  0  0  0
  1  2  1  0  0  0
  2  3  1  0  0  0
  3  4  1  0  0  0
  4  5  2  0  0  0
  5  6  1  0  0  0
  6  7  1  0  0  0
  7  8  2  0  0  0
  8  9  1  0  0  0
  9 10  2  0  0  0
 10 11  1  0  0  0
 11 12  2  0  0  0
  5 13  1  0  0  0
 13 16  1  0  0  0
 16 17  2  0  0  0
 17 18  1  0  0  0
 17 19  1  0  0  0
 19 20  2  0  0  0
 20 21  1  0  0  0
 21 24  1  0  0  0
 24 25  1  0  0  0
 25 26  1  0  0  0
 26 27  1  0  0  0
 27 29  1  0  0  0
 29 30  1  0  0  0
 30 31  1  0  0  0
 31 32  1  0  0  0
 21 22  2  0  0  0
 22 23  1  0  0  0
 13 14  1  0  0  0
 14 33  1  0  0  0
 33 34  1  0  0  0
 34 35  1  0  0  0
 34 36  1  0  0  0
 34 37  1  0  0  0
 37 38  1  0  0  0
 14  2  1  0  0  0
 12  4  1  0  0  0
 22 16  1  0  0  0
 12  7  1  0  0  0
  6 15  1  0  0  0
 27 28  1  0  0  0
 38 39  1  0  0  0
M  END
> <minimizedAffinity>
-7.52567

> <CNNscore>
0.3462468386

> <CNNaffinity>
6.7895584106

> <CNN_VS>
2.3508632183

> <CNNaffinity_variance>
0.0419158153

$$$$
[H]OC([H])([H])C(F)(F)C([H])([H])N1[C@]([H])(c2c(F)c([H])nc(OC([H])([H])C([H])([H])N([H])C([H])([H])C([H])([H])C([H])([H])F)c2F)c2c(c3c([H])c([H])c([H])c([H])c3n2[H])C([H])([H])[C@@]1([H])C([H])([H])[H]


 39 42  0  0  0  0  0  0  0  0999 V2000
    3.9728    4.1336   23.1133 C   0  0  0  0  0  0  0  0  0  0  0  0
    4.9147    3.6889   22.0269 C   0  0  0  0  0  0  0  0  0  0  0  0
    6.1635    4.5809   22.2901 C   0  0  0  0  0  0  0  0  0  0  0  0
    5.7404    5.9422   21.9140 C   0  0  0  0  0  0  0  0  0  0  0  0
    4.8081    6.1283   20.9259 C   0  0  0  0  0  0  0  0  0  0  0  0
    4.6402    7.4654   20.8261 N   0  0  0  0  0  0  0  0  0  0  0  0
    5.4135    8.1271   21.6940 C   0  0  0  0  0  0  0  0  0  0  0  0
    5.6166    9.4620   21.9909 C   0  0  0  0  0  0  0  0  0  0  0  0
    6.5097    9.8345   22.9698 C   0  0  0  0  0  0  0  0  0  0  0  0
    7.2341    8.8779   23.6888 C   0  0  0  0  0  0  0  0  0  0  0  0
    7.0108    7.5574   23.3713 C   0  0  0  0  0  0  0  0  0  0  0  0
    6.1219    7.1730   22.3961 C   0  0  0  0  0  0  0  0  0  0  0  0
    4.1630    5.0180   20.1665 C   0  0  0  0  0  0  0  0  0  0  0  0
    4.4903    3.7371   20.7100 N   0  0  0  0  0  0  0  0  0  0  0  0
    3.9925    7.9358   20.1607 H   0  0  0  0  0  0  0  0  0  0  0  0
    4.2274    5.2040   18.7262 C   0  0  0  0  0  0  0  0  0  0  0  0
    5.4004    5.4874   18.0604 C   0  0  0  0  0  0  0  0  0  0  0  0
    6.5202    5.5990   18.7634 F   0  0  0  0  0  0  0  0  0  0  0  0
    5.4512    5.6588   16.6883 C   0  0  0  0  0  0  0  0  0  0  0  0
    4.3189    5.5466   15.9719 N   0  0  0  0  0  0  0  0  0  0  0  0
    3.1333    5.2728   16.5403 C   0  0  0  0  0  0  0  0  0  0  0  0
    3.1009    5.1042   17.9149 C   0  0  0  0  0  0  0  0  0  0  0  0
    1.8833    4.8297   18.4525 F   0  0  0  0  0  0  0  0  0  0  0  0
    2.0134    5.1695   15.7619 O   0  0  0  0  0  0  0  0  0  0  0  0
    1.8925    4.5651   14.5125 C   0  0  0  0  0  0  0  0  0  0  0  0
    0.8231    5.1163   13.6349 C   0  0  0  0  0  0  0  0  0  0  0  0
    0.4874    6.4918   13.9605 N   0  0  0  0  0  0  0  0  0  0  0  0
    0.2304    6.6410   14.9431 H   0  0  0  0  0  0  0  0  0  0  0  0
   -0.4367    7.0816   13.0364 C   0  0  0  0  0  0  0  0  0  0  0  0
   -1.8587    6.6364   13.2703 C   0  0  0  0  0  0  0  0  0  0  0  0
   -2.4462    5.8775   12.1170 C   0  0  0  0  0  0  0  0  0  0  0  0
   -2.1307    4.5373   12.1208 F   0  0  0  0  0  0  0  0  0  0  0  0
    4.3332    2.6574   19.8753 C   0  0  0  0  0  0  0  0  0  0  0  0
    4.0072    1.2865   20.2275 C   0  0  0  0  0  0  0  0  0  0  0  0
    5.0274    0.5904   20.8751 F   0  0  0  0  0  0  0  0  0  0  0  0
    3.0409    1.3210   21.3300 F   0  0  0  0  0  0  0  0  0  0  0  0
    3.3414    0.3599   19.2814 C   0  0  0  0  0  0  0  0  0  0  0  0
    2.5173   -0.6064   19.7493 O   0  0  0  0  0  0  0  0  0  0  0  0
    1.5777   -0.3144   19.8055 H   0  0  0  0  0  0  0  0  0  0  0  0
  1  2  1  0  0  0
  2  3  1  0  0  0
  3  4  1  0  0  0
  4  5  2  0  0  0
  5  6  1  0  0  0
  6  7  1  0  0  0
  7  8  2  0  0  0
  8  9  1  0  0  0
  9 10  2  0  0  0
 10 11  1  0  0  0
 11 12  2  0  0  0
  5 13  1  0  0  0
 13 16  1  0  0  0
 16 17  2  0  0  0
 17 18  1  0  0  0
 17 19  1  0  0  0
 19 20  2  0  0  0
 20 21  1  0  0  0
 21 24  1  0  0  0
 24 25  1  0  0  0
 25 26  1  0  0  0
 26 27  1  0  0  0
 27 29  1  0  0  0
 29 30  1  0  0  0
 30 31  1  0  0  0
 31 32  1  0  0  0
 21 22  2  0  0  0
 22 23  1  0  0  0
 13 14  1  0  0  0
 14 33  1  0  0  0
 33 34  1  0  0  0
 34 35  1  0  0  0
 34 36  1  0  0  0
 34 37  1  0  0  0
 37 38  1  0  0  0
 14  2  1  0  0  0
 12  4  1  0  0  0
 22 16  1  0  0  0
 12  7  1  0  0  0
  6 15  1  0  0  0
 27 28  1  0  0  0
 38 39  1  0  0  0
M  END
> <minimizedAffinity>
-7.80119

> <CNNscore>
0.3396901786

> <CNNaffinity>
6.6404905319

> <CNN_VS>
2.2557094097

> <CNNaffinity_variance>
0.0667488575

$$$$
[H]OC([H])([H])C(F)(F)C([H])([H])N1[C@]([H])(c2c(F)c([H])nc(OC([H])([H])C([H])([H])N([H])C([H])([H])C([H])([H])C([H])([H])F)c2F)c2c(c3c([H])c([H])c([H])c([H])c3n2[H])C([H])([H])[C@@]1([H])C([H])([H])[H]


 39 42  0  0  0  0  0  0  0  0999 V2000
    4.3160    4.2259   23.6310 C   0  0  0  0  0  0  0  0  0  0  0  0
    4.7634    3.1570   22.6704 C   0  0  0  0  0  0  0  0  0  0  0  0
    6.2886    3.4442   22.5471 C   0  0  0  0  0  0  0  0  0  0  0  0
    6.3744    4.7108   21.7974 C   0  0  0  0  0  0  0  0  0  0  0  0
    5.4139    5.0338   20.8736 C   0  0  0  0  0  0  0  0  0  0  0  0
    5.7742    6.2364   20.3739 N   0  0  0  0  0  0  0  0  0  0  0  0
    6.9046    6.6849   20.9309 C   0  0  0  0  0  0  0  0  0  0  0  0
    7.6764    7.8218   20.7796 C   0  0  0  0  0  0  0  0  0  0  0  0
    8.8217    7.9959   21.5230 C   0  0  0  0  0  0  0  0  0  0  0  0
    9.2358    7.0320   22.4485 C   0  0  0  0  0  0  0  0  0  0  0  0
    8.4473    5.9111   22.5772 C   0  0  0  0  0  0  0  0  0  0  0  0
    7.3019    5.7260   21.8406 C   0  0  0  0  0  0  0  0  0  0  0  0
    4.2421    4.1690   20.5499 C   0  0  0  0  0  0  0  0  0  0  0  0
    4.1364    3.0558   21.4403 N   0  0  0  0  0  0  0  0  0  0  0  0
    5.2467    6.7605   19.6454 H   0  0  0  0  0  0  0  0  0  0  0  0
    4.0826    3.9413   19.1231 C   0  0  0  0  0  0  0  0  0  0  0  0
    4.8315    3.0188   18.4246 C   0  0  0  0  0  0  0  0  0  0  0  0
    5.7405    2.3091   19.0809 F   0  0  0  0  0  0  0  0  0  0  0  0
    4.6689    2.8072   17.0669 C   0  0  0  0  0  0  0  0  0  0  0  0
    3.7489    3.5241   16.3979 N   0  0  0  0  0  0  0  0  0  0  0  0
    2.9770    4.4433   17.0005 C   0  0  0  0  0  0  0  0  0  0  0  0
    3.1532    4.6420   18.3600 C   0  0  0  0  0  0  0  0  0  0  0  0
    2.3547    5.5807   18.9328 F   0  0  0  0  0  0  0  0  0  0  0  0
    2.0564    5.1430   16.2699 O   0  0  0  0  0  0  0  0  0  0  0  0
    2.1283    5.5088   14.9276 C   0  0  0  0  0  0  0  0  0  0  0  0
    0.8523    5.9820   14.3232 C   0  0  0  0  0  0  0  0  0  0  0  0
    0.5890    5.3762   13.0292 N   0  0  0  0  0  0  0  0  0  0  0  0
   -0.3816    5.0683   12.8983 H   0  0  0  0  0  0  0  0  0  0  0  0
    1.5543    4.3805   12.6649 C   0  0  0  0  0  0  0  0  0  0  0  0
    0.9200    3.0658   12.2847 C   0  0  0  0  0  0  0  0  0  0  0  0
    1.2491    1.9469   13.2286 C   0  0  0  0  0  0  0  0  0  0  0  0
    1.3884    2.3523   14.5370 F   0  0  0  0  0  0  0  0  0  0  0  0
    3.3985    1.9843   20.9991 C   0  0  0  0  0  0  0  0  0  0  0  0
    3.6537    0.5693   21.2041 C   0  0  0  0  0  0  0  0  0  0  0  0
    4.9680    0.1708   20.9621 F   0  0  0  0  0  0  0  0  0  0  0  0
    3.6150    0.3077   22.6465 F   0  0  0  0  0  0  0  0  0  0  0  0
    2.7472   -0.4845   20.6894 C   0  0  0  0  0  0  0  0  0  0  0  0
    2.5888   -0.6467   19.3550 O   0  0  0  0  0  0  0  0  0  0  0  0
    3.2255   -1.2926   18.9695 H   0  0  0  0  0  0  0  0  0  0  0  0
  1  2  1  0  0  0
  2  3  1  0  0  0
  3  4  1  0  0  0
  4  5  2  0  0  0
  5  6  1  0  0  0
  6  7  1  0  0  0
  7  8  2  0  0  0
  8  9  1  0  0  0
  9 10  2  0  0  0
 10 11  1  0  0  0
 11 12  2  0  0  0
  5 13  1  0  0  0
 13 16  1  0  0  0
 16 17  2  0  0  0
 17 18  1  0  0  0
 17 19  1  0  0  0
 19 20  2  0  0  0
 20 21  1  0  0  0
 21 24  1  0  0  0
 24 25  1  0  0  0
 25 26  1  0  0  0
 26 27  1  0  0  0
 27 29  1  0  0  0
 29 30  1  0  0  0
 30 31  1  0  0  0
 31 32  1  0  0  0
 21 22  2  0  0  0
 22 23  1  0  0  0
 13 14  1  0  0  0
 14 33  1  0  0  0
 33 34  1  0  0  0
 34 35  1  0  0  0
 34 36  1  0  0  0
 34 37  1  0  0  0
 37 38  1  0  0  0
 14  2  1  0  0  0
 12  4  1  0  0  0
 22 16  1  0  0  0
 12  7  1  0  0  0
  6 15  1  0  0  0
 27 28  1  0  0  0
 38 39  1  0  0  0
M  END
> <minimizedAffinity>
-7.60138

> <CNNscore>
0.3289385140

> <CNNaffinity>
6.7670755386

> <CNN_VS>
2.2259516716

> <CNNaffinity_variance>
0.0765534565

$$$$
[H]OC([H])([H])C(F)(F)C([H])([H])N1[C@]([H])(c2c(F)c([H])nc(OC([H])([H])C([H])([H])N([H])C([H])([H])C([H])([H])C([H])([H])F)c2F)c2c(c3c([H])c([H])c([H])c([H])c3n2[H])C([H])([H])[C@@]1([H])C([H])([H])[H]


 39 42  0  0  0  0  0  0  0  0999 V2000
    6.6593    2.0147   21.6032 C   0  0  0  0  0  0  0  0  0  0  0  0
    5.6705    3.1015   21.9295 C   0  0  0  0  0  0  0  0  0  0  0  0
    4.3084    2.3985   21.6567 C   0  0  0  0  0  0  0  0  0  0  0  0
    4.2526    2.2399   20.1919 C   0  0  0  0  0  0  0  0  0  0  0  0
    4.8701    3.1508   19.3739 C   0  0  0  0  0  0  0  0  0  0  0  0
    4.6393    2.7271   18.1118 N   0  0  0  0  0  0  0  0  0  0  0  0
    3.9130    1.6040   18.0922 C   0  0  0  0  0  0  0  0  0  0  0  0
    3.4174    0.7861   17.0938 C   0  0  0  0  0  0  0  0  0  0  0  0
    2.6813   -0.3342   17.4061 C   0  0  0  0  0  0  0  0  0  0  0  0
    2.4146   -0.6758   18.7362 C   0  0  0  0  0  0  0  0  0  0  0  0
    2.9209    0.1571   19.7080 C   0  0  0  0  0  0  0  0  0  0  0  0
    3.6570    1.2783   19.4088 C   0  0  0  0  0  0  0  0  0  0  0  0
    5.6221    4.3411   19.8671 C   0  0  0  0  0  0  0  0  0  0  0  0
    5.7806    4.3232   21.2876 N   0  0  0  0  0  0  0  0  0  0  0  0
    4.9789    3.2055   17.2518 H   0  0  0  0  0  0  0  0  0  0  0  0
    5.2097    5.5783   19.2248 C   0  0  0  0  0  0  0  0  0  0  0  0
    3.9976    6.1840   19.4770 C   0  0  0  0  0  0  0  0  0  0  0  0
    3.1682    5.6126   20.3409 F   0  0  0  0  0  0  0  0  0  0  0  0
    3.6165    7.3639   18.8628 C   0  0  0  0  0  0  0  0  0  0  0  0
    4.4537    7.9463   17.9866 N   0  0  0  0  0  0  0  0  0  0  0  0
    5.6531    7.4238   17.6829 C   0  0  0  0  0  0  0  0  0  0  0  0
    6.0184    6.2424   18.3071 C   0  0  0  0  0  0  0  0  0  0  0  0
    7.2382    5.7449   17.9729 F   0  0  0  0  0  0  0  0  0  0  0  0
    6.4645    8.0602   16.7843 O   0  0  0  0  0  0  0  0  0  0  0  0
    6.1361    9.1087   15.9279 C   0  0  0  0  0  0  0  0  0  0  0  0
    6.0970    8.7649   14.4795 C   0  0  0  0  0  0  0  0  0  0  0  0
    7.4048    8.8432   13.8516 N   0  0  0  0  0  0  0  0  0  0  0  0
    7.9723    9.6414   14.1593 H   0  0  0  0  0  0  0  0  0  0  0  0
    7.3565    8.6972   12.4261 C   0  0  0  0  0  0  0  0  0  0  0  0
    8.4886    7.8584   11.8877 C   0  0  0  0  0  0  0  0  0  0  0  0
    9.8335    8.5099   12.0226 C   0  0  0  0  0  0  0  0  0  0  0  0
   10.5634    8.5145   10.8552 F   0  0  0  0  0  0  0  0  0  0  0  0
    6.0504    5.5276   21.8908 C   0  0  0  0  0  0  0  0  0  0  0  0
    7.3444    6.1085   22.2032 C   0  0  0  0  0  0  0  0  0  0  0  0
    8.3212    5.1897   22.5856 F   0  0  0  0  0  0  0  0  0  0  0  0
    7.9540    6.5557   20.9467 F   0  0  0  0  0  0  0  0  0  0  0  0
    7.4894    7.3182   23.0476 C   0  0  0  0  0  0  0  0  0  0  0  0
    6.5427    7.6174   23.9674 O   0  0  0  0  0  0  0  0  0  0  0  0
    6.7313    7.2266   24.8522 H   0  0  0  0  0  0  0  0  0  0  0  0
  1  2  1  0  0  0
  2  3  1  0  0  0
  3  4  1  0  0  0
  4  5  2  0  0  0
  5  6  1  0  0  0
  6  7  1  0  0  0
  7  8  2  0  0  0
  8  9  1  0  0  0
  9 10  2  0  0  0
 10 11  1  0  0  0
 11 12  2  0  0  0
  5 13  1  0  0  0
 13 16  1  0  0  0
 16 17  2  0  0  0
 17 18  1  0  0  0
 17 19  1  0  0  0
 19 20  2  0  0  0
 20 21  1  0  0  0
 21 24  1  0  0  0
 24 25  1  0  0  0
 25 26  1  0  0  0
 26 27  1  0  0  0
 27 29  1  0  0  0
 29 30  1  0  0  0
 30 31  1  0  0  0
 31 32  1  0  0  0
 21 22  2  0  0  0
 22 23  1  0  0  0
 13 14  1  0  0  0
 14 33  1  0  0  0
 33 34  1  0  0  0
 34 35  1  0  0  0
 34 36  1  0  0  0
 34 37  1  0  0  0
 37 38  1  0  0  0
 14  2  1  0  0  0
 12  4  1  0  0  0
 22 16  1  0  0  0
 12  7  1  0  0  0
  6 15  1  0  0  0
 27 28  1  0  0  0
 38 39  1  0  0  0
M  END
> <minimizedAffinity>
-8.85632

> <CNNscore>
0.3260092139

> <CNNaffinity>
6.6498918533

> <CNN_VS>
2.1679260731

> <CNNaffinity_variance>
0.1027161703

$$$$
[H]OC([H])([H])C(F)(F)C([H])([H])N1[C@]([H])(c2c(F)c([H])nc(OC([H])([H])C([H])([H])N([H])C([H])([H])C([H])([H])C([H])([H])F)c2F)c2c(c3c([H])c([H])c([H])c([H])c3n2[H])C([H])([H])[C@@]1([H])C([H])([H])[H]


 39 42  0  0  0  0  0  0  0  0999 V2000
    5.4033    1.1667   19.8541 C   0  0  0  0  0  0  0  0  0  0  0  0
    4.4751    2.1833   20.4626 C   0  0  0  0  0  0  0  0  0  0  0  0
    3.3032    2.2125   19.4379 C   0  0  0  0  0  0  0  0  0  0  0  0
    3.8669    2.8593   18.2389 C   0  0  0  0  0  0  0  0  0  0  0  0
    4.8567    3.8003   18.3617 C   0  0  0  0  0  0  0  0  0  0  0  0
    5.1517    4.1900   17.1020 N   0  0  0  0  0  0  0  0  0  0  0  0
    4.4039    3.5480   16.1978 C   0  0  0  0  0  0  0  0  0  0  0  0
    4.3114    3.5762   14.8186 C   0  0  0  0  0  0  0  0  0  0  0  0
    3.4126    2.7686   14.1595 C   0  0  0  0  0  0  0  0  0  0  0  0
    2.5708    1.9002   14.8626 C   0  0  0  0  0  0  0  0  0  0  0  0
    2.6857    1.8940   16.2342 C   0  0  0  0  0  0  0  0  0  0  0  0
    3.5790    2.6957   16.9036 C   0  0  0  0  0  0  0  0  0  0  0  0
    5.4307    4.2433   19.6655 C   0  0  0  0  0  0  0  0  0  0  0  0
    4.9621    3.4458   20.7553 N   0  0  0  0  0  0  0  0  0  0  0  0
    5.8699    4.9008   16.8516 H   0  0  0  0  0  0  0  0  0  0  0  0
    5.4498    5.6893   19.8143 C   0  0  0  0  0  0  0  0  0  0  0  0
    6.5466    6.3782   20.2857 C   0  0  0  0  0  0  0  0  0  0  0  0
    7.6320    5.6931   20.6221 F   0  0  0  0  0  0  0  0  0  0  0  0
    6.5555    7.7553   20.4199 C   0  0  0  0  0  0  0  0  0  0  0  0
    5.4578    8.4536   20.0802 N   0  0  0  0  0  0  0  0  0  0  0  0
    4.3462    7.8621   19.6128 C   0  0  0  0  0  0  0  0  0  0  0  0
    4.3549    6.4829   19.4849 C   0  0  0  0  0  0  0  0  0  0  0  0
    3.2118    5.9218   19.0100 F   0  0  0  0  0  0  0  0  0  0  0  0
    3.2587    8.6229   19.2822 O   0  0  0  0  0  0  0  0  0  0  0  0
    3.2392    9.8360   18.5976 C   0  0  0  0  0  0  0  0  0  0  0  0
    3.9238    9.8366   17.2751 C   0  0  0  0  0  0  0  0  0  0  0  0
    3.5170    8.7230   16.4354 N   0  0  0  0  0  0  0  0  0  0  0  0
    3.9759    7.8336   16.6645 H   0  0  0  0  0  0  0  0  0  0  0  0
    3.5445    9.0317   15.0355 C   0  0  0  0  0  0  0  0  0  0  0  0
    4.7842    8.5148   14.3491 C   0  0  0  0  0  0  0  0  0  0  0  0
    6.0204    8.6096   15.1941 C   0  0  0  0  0  0  0  0  0  0  0  0
    6.1081    7.6274   16.1549 F   0  0  0  0  0  0  0  0  0  0  0  0
    5.0569    4.0011   22.0081 C   0  0  0  0  0  0  0  0  0  0  0  0
    4.3652    3.6067   23.2229 C   0  0  0  0  0  0  0  0  0  0  0  0
    4.0987    4.6498   24.1093 F   0  0  0  0  0  0  0  0  0  0  0  0
    2.9825    3.2722   22.8671 F   0  0  0  0  0  0  0  0  0  0  0  0
    4.7621    2.4168   24.0126 C   0  0  0  0  0  0  0  0  0  0  0  0
    6.0232    2.3148   24.4932 O   0  0  0  0  0  0  0  0  0  0  0  0
    6.1203    2.6938   25.3976 H   0  0  0  0  0  0  0  0  0  0  0  0
  1  2  1  0  0  0
  2  3  1  0  0  0
  3  4  1  0  0  0
  4  5  2  0  0  0
  5  6  1  0  0  0
  6  7  1  0  0  0
  7  8  2  0  0  0
  8  9  1  0  0  0
  9 10  2  0  0  0
 10 11  1  0  0  0
 11 12  2  0  0  0
  5 13  1  0  0  0
 13 16  1  0  0  0
 16 17  2  0  0  0
 17 18  1  0  0  0
 17 19  1  0  0  0
 19 20  2  0  0  0
 20 21  1  0  0  0
 21 24  1  0  0  0
 24 25  1  0  0  0
 25 26  1  0  0  0
 26 27  1  0  0  0
 27 29  1  0  0  0
 29 30  1  0  0  0
 30 31  1  0  0  0
 31 32  1  0  0  0
 21 22  2  0  0  0
 22 23  1  0  0  0
 13 14  1  0  0  0
 14 33  1  0  0  0
 33 34  1  0  0  0
 34 35  1  0  0  0
 34 36  1  0  0  0
 34 37  1  0  0  0
 37 38  1  0  0  0
 14  2  1  0  0  0
 12  4  1  0  0  0
 22 16  1  0  0  0
 12  7  1  0  0  0
  6 15  1  0  0  0
 27 28  1  0  0  0
 38 39  1  0  0  0
M  END
> <minimizedAffinity>
-7.10662

> <CNNscore>
0.3241612315

> <CNNaffinity>
6.7396955490

> <CNN_VS>
2.1847479343

> <CNNaffinity_variance>
0.2998863757

$$$$
[H]c1c([H])c(C([H])(C(=O)N([H])C([H])([H])c2c([H])c([H])c(C(F)(F)F)c([H])c2C2([H])C([H])([H])C([H])([H])C([H])([H])C([H])([H])C2([H])[H])C([H])([H])[H])c([H])c(F)c1N([H])S(=O)(=O)C([H])([H])[H]


 36 38  0  0  0  0  0  0  0  0999 V2000
    3.3145    0.6013   20.1880 C   0  0  0  0  0  0  0  0  0  0  0  0
    2.5176    0.2502   20.8514 O   0  0  0  0  0  0  0  0  0  0  0  0
    3.7855    0.9714   18.9225 N   0  0  0  0  0  0  0  0  0  0  0  0
    2.4963    0.8034   18.3946 H   0  0  0  0  0  0  0  0  0  0  0  0
    4.5982    0.0228   22.0270 C   0  0  0  0  0  0  0  0  0  0  0  0
    4.8095    0.9718   20.8237 C   0  0  0  0  0  0  0  0  0  0  0  0
    4.8100    2.3207   21.2638 C   0  0  0  0  0  0  0  0  0  0  0  0
    5.5475    3.2887   20.7121 C   0  0  0  0  0  0  0  0  0  0  0  0
    5.4630    4.5767   21.0272 C   0  0  0  0  0  0  0  0  0  0  0  0
    4.5247    4.9704   22.0665 C   0  0  0  0  0  0  0  0  0  0  0  0
    3.8159    4.0190   22.6175 C   0  0  0  0  0  0  0  0  0  0  0  0
    3.0050    4.3878   23.7010 F   0  0  0  0  0  0  0  0  0  0  0  0
    3.8582    2.6789   22.2965 C   0  0  0  0  0  0  0  0  0  0  0  0
    4.3929    6.3724   22.0495 N   0  0  0  0  0  0  0  0  0  0  0  0
    3.3387    6.6437   22.3810 H   0  0  0  0  0  0  0  0  0  0  0  0
    5.4029    7.6448   21.7812 S   0  0  0  0  0  0  0  0  0  0  0  0
    6.9325    7.4546   22.7021 C   0  0  0  0  0  0  0  0  0  0  0  0
    4.7217    8.9437   21.9606 O   0  0  0  0  0  0  0  0  0  0  0  0
    5.8622    7.5372   20.2901 O   0  0  0  0  0  0  0  0  0  0  0  0
    4.1990    1.3002   17.7897 C   0  0  0  0  0  0  0  0  0  0  0  0
    3.5073    1.8747   16.6073 C   0  0  0  0  0  0  0  0  0  0  0  0
    2.7948    1.2230   15.6348 C   0  0  0  0  0  0  0  0  0  0  0  0
    2.6040    1.7889   14.3350 C   0  0  0  0  0  0  0  0  0  0  0  0
    3.1466    2.9705   14.1167 C   0  0  0  0  0  0  0  0  0  0  0  0
    3.8831    3.6479   15.0793 C   0  0  0  0  0  0  0  0  0  0  0  0
    4.0615    3.1394   16.2812 C   0  0  0  0  0  0  0  0  0  0  0  0
    4.6231    3.7900   17.5102 C   0  0  0  0  0  0  0  0  0  0  0  0
    3.6615    4.9000   17.9886 C   0  0  0  0  0  0  0  0  0  0  0  0
    3.4917    6.0523   17.1092 C   0  0  0  0  0  0  0  0  0  0  0  0
    4.8174    6.6787   16.7482 C   0  0  0  0  0  0  0  0  0  0  0  0
    5.9623    5.9476   17.4023 C   0  0  0  0  0  0  0  0  0  0  0  0
    5.9549    4.4630   17.2392 C   0  0  0  0  0  0  0  0  0  0  0  0
    3.2839    3.5072   12.6723 C   0  0  0  0  0  0  0  0  0  0  0  0
    4.4043    4.0560   12.3562 F   0  0  0  0  0  0  0  0  0  0  0  0
    2.1716    4.2866   12.4452 F   0  0  0  0  0  0  0  0  0  0  0  0
    3.0619    2.3597   11.8486 F   0  0  0  0  0  0  0  0  0  0  0  0
  5  6  1  0  0  0
  6  1  1  0  0  0
  1  2  2  0  0  0
  1  3  1  0  0  0
  3 20  1  0  0  0
 20 21  1  0  0  0
 21 22  2  0  0  0
 22 23  1  0  0  0
 23 24  2  0  0  0
 24 33  1  0  0  0
 33 34  1  0  0  0
 33 35  1  0  0  0
 33 36  1  0  0  0
 24 25  1  0  0  0
 25 26  2  0  0  0
 26 27  1  0  0  0
 27 28  1  0  0  0
 28 29  1  0  0  0
 29 30  1  0  0  0
 30 31  1  0  0  0
 31 32  1  0  0  0
  6  7  1  0  0  0
  7  8  2  0  0  0
  8  9  1  0  0  0
  9 10  2  0  0  0
 10 14  1  0  0  0
 14 16  1  0  0  0
 16 17  1  0  0  0
 16 18  2  0  0  0
 16 19  2  0  0  0
 10 11  1  0  0  0
 11 12  1  0  0  0
 11 13  2  0  0  0
 26 21  1  0  0  0
 32 27  1  0  0  0
 13  7  1  0  0  0
  3  4  1  0  0  0
 14 15  1  0  0  0
M  END
> <minimizedAffinity>
-9.52744

> <CNNscore>
0.4773820341

> <CNNaffinity>
6.9646043777

> <CNN_VS>
3.3247768879

> <CNNaffinity_variance>
0.3511911035

$$$$
[H]c1c([H])c(C([H])(C(=O)N([H])C([H])([H])c2c([H])c([H])c(C(F)(F)F)c([H])c2C2([H])C([H])([H])C([H])([H])C([H])([H])C([H])([H])C2([H])[H])C([H])([H])[H])c([H])c(F)c1N([H])S(=O)(=O)C([H])([H])[H]


 36 38  0  0  0  0  0  0  0  0999 V2000
    4.4506    8.2950   18.1721 C   0  0  0  0  0  0  0  0  0  0  0  0
    4.0086    9.0522   17.5167 O   0  0  0  0  0  0  0  0  0  0  0  0
    4.5274    7.6268   19.4000 N   0  0  0  0  0  0  0  0  0  0  0  0
    3.4254    8.3595   19.8666 H   0  0  0  0  0  0  0  0  0  0  0  0
    5.6613    8.0204   16.2168 C   0  0  0  0  0  0  0  0  0  0  0  0
    5.6468    7.2955   17.5833 C   0  0  0  0  0  0  0  0  0  0  0  0
    5.1281    5.9836   17.4313 C   0  0  0  0  0  0  0  0  0  0  0  0
    5.8285    4.8694   17.6625 C   0  0  0  0  0  0  0  0  0  0  0  0
    5.3218    3.6412   17.6497 C   0  0  0  0  0  0  0  0  0  0  0  0
    3.9109    3.4825   17.3341 C   0  0  0  0  0  0  0  0  0  0  0  0
    3.2308    4.5732   17.0912 C   0  0  0  0  0  0  0  0  0  0  0  0
    1.9042    4.4043   16.6678 F   0  0  0  0  0  0  0  0  0  0  0  0
    3.7172    5.8628   17.1226 C   0  0  0  0  0  0  0  0  0  0  0  0
    3.5239    2.1640   17.6423 N   0  0  0  0  0  0  0  0  0  0  0  0
    3.7572    1.9619   18.7376 H   0  0  0  0  0  0  0  0  0  0  0  0
    2.7464    0.9506   16.8459 S   0  0  0  0  0  0  0  0  0  0  0  0
    2.3514    1.4378   15.1635 C   0  0  0  0  0  0  0  0  0  0  0  0
    1.6120    0.4113   17.6241 O   0  0  0  0  0  0  0  0  0  0  0  0
    3.7943   -0.1945   16.6547 O   0  0  0  0  0  0  0  0  0  0  0  0
    4.5904    7.0349   20.4992 C   0  0  0  0  0  0  0  0  0  0  0  0
    5.6722    6.9317   21.5118 C   0  0  0  0  0  0  0  0  0  0  0  0
    6.4712    7.9264   22.0121 C   0  0  0  0  0  0  0  0  0  0  0  0
    7.7519    7.6466   22.5843 C   0  0  0  0  0  0  0  0  0  0  0  0
    8.1278    6.3831   22.6086 C   0  0  0  0  0  0  0  0  0  0  0  0
    7.3442    5.3567   22.0983 C   0  0  0  0  0  0  0  0  0  0  0  0
    6.1612    5.6012   21.5735 C   0  0  0  0  0  0  0  0  0  0  0  0
    5.0845    4.6360   21.1758 C   0  0  0  0  0  0  0  0  0  0  0  0
    3.9206    4.7195   22.1878 C   0  0  0  0  0  0  0  0  0  0  0  0
    4.1994    4.2876   23.5537 C   0  0  0  0  0  0  0  0  0  0  0  0
    4.7779    2.8932   23.5908 C   0  0  0  0  0  0  0  0  0  0  0  0
    4.9041    2.3180   22.2028 C   0  0  0  0  0  0  0  0  0  0  0  0
    5.5714    3.1999   21.1990 C   0  0  0  0  0  0  0  0  0  0  0  0
    9.6041    6.0173   22.8913 C   0  0  0  0  0  0  0  0  0  0  0  0
   10.4661    6.9707   22.8248 F   0  0  0  0  0  0  0  0  0  0  0  0
    9.8864    4.9241   22.1031 F   0  0  0  0  0  0  0  0  0  0  0  0
    9.5852    5.4786   24.2157 F   0  0  0  0  0  0  0  0  0  0  0  0
  5  6  1  0  0  0
  6  1  1  0  0  0
  1  2  2  0  0  0
  1  3  1  0  0  0
  3 20  1  0  0  0
 20 21  1  0  0  0
 21 22  2  0  0  0
 22 23  1  0  0  0
 23 24  2  0  0  0
 24 33  1  0  0  0
 33 34  1  0  0  0
 33 35  1  0  0  0
 33 36  1  0  0  0
 24 25  1  0  0  0
 25 26  2  0  0  0
 26 27  1  0  0  0
 27 28  1  0  0  0
 28 29  1  0  0  0
 29 30  1  0  0  0
 30 31  1  0  0  0
 31 32  1  0  0  0
  6  7  1  0  0  0
  7  8  2  0  0  0
  8  9  1  0  0  0
  9 10  2  0  0  0
 10 14  1  0  0  0
 14 16  1  0  0  0
 16 17  1  0  0  0
 16 18  2  0  0  0
 16 19  2  0  0  0
 10 11  1  0  0  0
 11 12  1  0  0  0
 11 13  2  0  0  0
 26 21  1  0  0  0
 32 27  1  0  0  0
 13  7  1  0  0  0
  3  4  1  0  0  0
 14 15  1  0  0  0
M  END
> <minimizedAffinity>
-8.31999

> <CNNscore>
0.3684356213

> <CNNaffinity>
6.8184509277

> <CNN_VS>
2.5121603012

> <CNNaffinity_variance>
0.0640908778

$$$$
[H]c1c([H])c(C([H])(C(=O)N([H])C([H])([H])c2c([H])c([H])c(C(F)(F)F)c([H])c2C2([H])C([H])([H])C([H])([H])C([H])([H])C([H])([H])C2([H])[H])C([H])([H])[H])c([H])c(F)c1N([H])S(=O)(=O)C([H])([H])[H]


 36 38  0  0  0  0  0  0  0  0999 V2000
    4.1415    1.3948   19.4757 C   0  0  0  0  0  0  0  0  0  0  0  0
    3.4708    0.7591   20.0625 O   0  0  0  0  0  0  0  0  0  0  0  0
    4.4949    2.0354   18.2820 N   0  0  0  0  0  0  0  0  0  0  0  0
    3.3029    1.5896   17.6909 H   0  0  0  0  0  0  0  0  0  0  0  0
    5.4789    1.0112   21.3273 C   0  0  0  0  0  0  0  0  0  0  0  0
    5.4755    2.0763   20.2055 C   0  0  0  0  0  0  0  0  0  0  0  0
    5.1215    3.3423   20.7395 C   0  0  0  0  0  0  0  0  0  0  0  0
    5.7517    3.9270   21.7624 C   0  0  0  0  0  0  0  0  0  0  0  0
    5.5165    5.1631   22.1889 C   0  0  0  0  0  0  0  0  0  0  0  0
    4.4806    5.9356   21.5212 C   0  0  0  0  0  0  0  0  0  0  0  0
    3.8529    5.3553   20.5310 C   0  0  0  0  0  0  0  0  0  0  0  0
    2.7746    6.0582   19.9735 F   0  0  0  0  0  0  0  0  0  0  0  0
    4.0897    4.0869   20.0455 C   0  0  0  0  0  0  0  0  0  0  0  0
    4.5826    7.2789   21.9314 N   0  0  0  0  0  0  0  0  0  0  0  0
    3.8112    7.4712   22.7457 H   0  0  0  0  0  0  0  0  0  0  0  0
    5.5900    8.5372   21.5957 S   0  0  0  0  0  0  0  0  0  0  0  0
    6.7826    8.0843   20.3321 C   0  0  0  0  0  0  0  0  0  0  0  0
    6.1692    9.1286   22.8197 O   0  0  0  0  0  0  0  0  0  0  0  0
    4.7157    9.6278   20.8941 O   0  0  0  0  0  0  0  0  0  0  0  0
    4.8042    2.6042   17.2127 C   0  0  0  0  0  0  0  0  0  0  0  0
    5.1828    4.0077   16.9070 C   0  0  0  0  0  0  0  0  0  0  0  0
    6.1868    4.7605   17.4577 C   0  0  0  0  0  0  0  0  0  0  0  0
    6.1464    6.1903   17.4493 C   0  0  0  0  0  0  0  0  0  0  0  0
    5.0953    6.7510   16.8845 C   0  0  0  0  0  0  0  0  0  0  0  0
    4.0581    6.0132   16.3296 C   0  0  0  0  0  0  0  0  0  0  0  0
    4.0863    4.6964   16.3268 C   0  0  0  0  0  0  0  0  0  0  0  0
    3.1964    3.7322   15.6004 C   0  0  0  0  0  0  0  0  0  0  0  0
    3.8466    3.3486   14.2529 C   0  0  0  0  0  0  0  0  0  0  0  0
    3.9868    4.4094   13.2604 C   0  0  0  0  0  0  0  0  0  0  0  0
    2.6698    5.0959   12.9877 C   0  0  0  0  0  0  0  0  0  0  0  0
    1.5597    4.4930   13.8108 C   0  0  0  0  0  0  0  0  0  0  0  0
    1.8483    4.3424   15.2684 C   0  0  0  0  0  0  0  0  0  0  0  0
    4.7966    8.2510   17.1165 C   0  0  0  0  0  0  0  0  0  0  0  0
    5.8076    9.0434   17.1957 F   0  0  0  0  0  0  0  0  0  0  0  0
    3.9292    8.3088   18.1845 F   0  0  0  0  0  0  0  0  0  0  0  0
    3.9808    8.6232   16.0027 F   0  0  0  0  0  0  0  0  0  0  0  0
  5  6  1  0  0  0
  6  1  1  0  0  0
  1  2  2  0  0  0
  1  3  1  0  0  0
  3 20  1  0  0  0
 20 21  1  0  0  0
 21 22  2  0  0  0
 22 23  1  0  0  0
 23 24  2  0  0  0
 24 33  1  0  0  0
 33 34  1  0  0  0
 33 35  1  0  0  0
 33 36  1  0  0  0
 24 25  1  0  0  0
 25 26  2  0  0  0
 26 27  1  0  0  0
 27 28  1  0  0  0
 28 29  1  0  0  0
 29 30  1  0  0  0
 30 31  1  0  0  0
 31 32  1  0  0  0
  6  7  1  0  0  0
  7  8  2  0  0  0
  8  9  1  0  0  0
  9 10  2  0  0  0
 10 14  1  0  0  0
 14 16  1  0  0  0
 16 17  1  0  0  0
 16 18  2  0  0  0
 16 19  2  0  0  0
 10 11  1  0  0  0
 11 12  1  0  0  0
 11 13  2  0  0  0
 26 21  1  0  0  0
 32 27  1  0  0  0
 13  7  1  0  0  0
  3  4  1  0  0  0
 14 15  1  0  0  0
M  END
> <minimizedAffinity>
-8.70842

> <CNNscore>
0.2955345809

> <CNNaffinity>
6.4439573288

> <CNN_VS>
1.9044122696

> <CNNaffinity_variance>
1.0147211552

$$$$
[H]c1c([H])c(C([H])(C(=O)N([H])C([H])([H])c2c([H])c([H])c(C(F)(F)F)c([H])c2C2([H])C([H])([H])C([H])([H])C([H])([H])C([H])([H])C2([H])[H])C([H])([H])[H])c([H])c(F)c1N([H])S(=O)(=O)C([H])([H])[H]


 36 38  0  0  0  0  0  0  0  0999 V2000
    2.9773    3.4673   16.0520 C   0  0  0  0  0  0  0  0  0  0  0  0
    2.3236    3.8434   16.8455 O   0  0  0  0  0  0  0  0  0  0  0  0
    3.5182    3.5507   14.7633 N   0  0  0  0  0  0  0  0  0  0  0  0
    2.8367    4.7597   14.5565 H   0  0  0  0  0  0  0  0  0  0  0  0
    2.8217    1.1661   15.8405 C   0  0  0  0  0  0  0  0  0  0  0  0
    3.9274    2.1281   16.3356 C   0  0  0  0  0  0  0  0  0  0  0  0
    4.1142    1.9741   17.7337 C   0  0  0  0  0  0  0  0  0  0  0  0
    4.7217    2.8743   18.5122 C   0  0  0  0  0  0  0  0  0  0  0  0
    4.7900    2.8049   19.8373 C   0  0  0  0  0  0  0  0  0  0  0  0
    4.1894    1.6567   20.4978 C   0  0  0  0  0  0  0  0  0  0  0  0
    3.6101    0.7678   19.7325 C   0  0  0  0  0  0  0  0  0  0  0  0
    3.1428   -0.3945   20.3637 F   0  0  0  0  0  0  0  0  0  0  0  0
    3.4971    0.8218   18.3596 C   0  0  0  0  0  0  0  0  0  0  0  0
    4.1278    1.9117   21.8814 N   0  0  0  0  0  0  0  0  0  0  0  0
    3.4028    1.1743   22.3563 H   0  0  0  0  0  0  0  0  0  0  0  0
    4.9135    2.9102   22.9287 S   0  0  0  0  0  0  0  0  0  0  0  0
    4.1227    4.5209   22.9944 C   0  0  0  0  0  0  0  0  0  0  0  0
    6.3705    2.9377   22.6848 O   0  0  0  0  0  0  0  0  0  0  0  0
    4.6699    2.3286   24.3600 O   0  0  0  0  0  0  0  0  0  0  0  0
    3.9967    3.6314   13.6114 C   0  0  0  0  0  0  0  0  0  0  0  0
    3.6483    4.4870   12.4482 C   0  0  0  0  0  0  0  0  0  0  0  0
    3.8546    5.8320   12.2854 C   0  0  0  0  0  0  0  0  0  0  0  0
    3.0673    6.6098   11.3792 C   0  0  0  0  0  0  0  0  0  0  0  0
    2.1320    5.9696   10.7056 C   0  0  0  0  0  0  0  0  0  0  0  0
    1.8932    4.6104   10.8593 C   0  0  0  0  0  0  0  0  0  0  0  0
    2.6147    3.8828   11.6869 C   0  0  0  0  0  0  0  0  0  0  0  0
    2.6671    2.3915   11.8362 C   0  0  0  0  0  0  0  0  0  0  0  0
    3.3612    1.7759   10.6013 C   0  0  0  0  0  0  0  0  0  0  0  0
    2.6737    1.9096    9.3209 C   0  0  0  0  0  0  0  0  0  0  0  0
    1.2569    1.3919    9.3917 C   0  0  0  0  0  0  0  0  0  0  0  0
    0.9361    0.8672   10.7683 C   0  0  0  0  0  0  0  0  0  0  0  0
    1.2819    1.7775   11.9007 C   0  0  0  0  0  0  0  0  0  0  0  0
    1.0268    6.7614    9.9675 C   0  0  0  0  0  0  0  0  0  0  0  0
    0.0075    7.1290   10.6619 F   0  0  0  0  0  0  0  0  0  0  0  0
    0.7268    6.0370    8.8355 F   0  0  0  0  0  0  0  0  0  0  0  0
    1.7016    7.9143    9.4575 F   0  0  0  0  0  0  0  0  0  0  0  0
  5  6  1  0  0  0
  6  1  1  0  0  0
  1  2  2  0  0  0
  1  3  1  0  0  0
  3 20  1  0  0  0
 20 21  1  0  0  0
 21 22  2  0  0  0
 22 23  1  0  0  0
 23 24  2  0  0  0
 24 33  1  0  0  0
 33 34  1  0  0  0
 33 35  1  0  0  0
 33 36  1  0  0  0
 24 25  1  0  0  0
 25 26  2  0  0  0
 26 27  1  0  0  0
 27 28  1  0  0  0
 28 29  1  0  0  0
 29 30  1  0  0  0
 30 31  1  0  0  0
 31 32  1  0  0  0
  6  7  1  0  0  0
  7  8  2  0  0  0
  8  9  1  0  0  0
  9 10  2  0  0  0
 10 14  1  0  0  0
 14 16  1  0  0  0
 16 17  1  0  0  0
 16 18  2  0  0  0
 16 19  2  0  0  0
 10 11  1  0  0  0
 11 12  1  0  0  0
 11 13  2  0  0  0
 26 21  1  0  0  0
 32 27  1  0  0  0
 13  7  1  0  0  0
  3  4  1  0  0  0
 14 15  1  0  0  0
M  END
> <minimizedAffinity>
-7.68943

> <CNNscore>
0.2796437442

> <CNNaffinity>
6.4787545204

> <CNN_VS>
1.8117431402

> <CNNaffinity_variance>
0.1997348368

$$$$
[H]c1c([H])c(C([H])(C(=O)N([H])C([H])([H])c2c([H])c([H])c(C(F)(F)F)c([H])c2C2([H])C([H])([H])C([H])([H])C([H])([H])C([H])([H])C2([H])[H])C([H])([H])[H])c([H])c(F)c1N([H])S(=O)(=O)C([H])([H])[H]


 36 38  0  0  0  0  0  0  0  0999 V2000
    3.7535    9.2125   19.1846 C   0  0  0  0  0  0  0  0  0  0  0  0
    2.8754    9.8576   19.0795 O   0  0  0  0  0  0  0  0  0  0  0  0
    4.3383    7.9524   19.3588 N   0  0  0  0  0  0  0  0  0  0  0  0
    3.0691    7.3566   19.3016 H   0  0  0  0  0  0  0  0  0  0  0  0
    5.6885    8.9100   17.9482 C   0  0  0  0  0  0  0  0  0  0  0  0
    5.2783    9.8770   19.0839 C   0  0  0  0  0  0  0  0  0  0  0  0
    6.0012    9.5716   20.2660 C   0  0  0  0  0  0  0  0  0  0  0  0
    5.4986    9.6758   21.4997 C   0  0  0  0  0  0  0  0  0  0  0  0
    6.1165    9.2725   22.6046 C   0  0  0  0  0  0  0  0  0  0  0  0
    7.4483    8.7015   22.4786 C   0  0  0  0  0  0  0  0  0  0  0  0
    7.9455    8.6162   21.2717 C   0  0  0  0  0  0  0  0  0  0  0  0
    9.2749    8.1801   21.1700 F   0  0  0  0  0  0  0  0  0  0  0  0
    7.3224    8.9987   20.1029 C   0  0  0  0  0  0  0  0  0  0  0  0
    7.7992    8.0975   23.7014 N   0  0  0  0  0  0  0  0  0  0  0  0
    6.9159    7.4827   24.0713 H   0  0  0  0  0  0  0  0  0  0  0  0
    9.1674    7.9944   24.6116 S   0  0  0  0  0  0  0  0  0  0  0  0
   10.3934    9.1863   24.0636 C   0  0  0  0  0  0  0  0  0  0  0  0
    9.6545    6.6044   24.7291 O   0  0  0  0  0  0  0  0  0  0  0  0
    8.7854    8.4995   26.0417 O   0  0  0  0  0  0  0  0  0  0  0  0
    4.8532    6.8241   19.5147 C   0  0  0  0  0  0  0  0  0  0  0  0
    4.3479    5.5802   20.1501 C   0  0  0  0  0  0  0  0  0  0  0  0
    4.0747    5.3472   21.4727 C   0  0  0  0  0  0  0  0  0  0  0  0
    4.0699    4.0251   22.0185 C   0  0  0  0  0  0  0  0  0  0  0  0
    4.3406    3.0387   21.1866 C   0  0  0  0  0  0  0  0  0  0  0  0
    4.6325    3.2465   19.8452 C   0  0  0  0  0  0  0  0  0  0  0  0
    4.6351    4.4587   19.3299 C   0  0  0  0  0  0  0  0  0  0  0  0
    4.7051    4.8752   17.8909 C   0  0  0  0  0  0  0  0  0  0  0  0
    3.2801    5.1650   17.3704 C   0  0  0  0  0  0  0  0  0  0  0  0
    2.3608    4.0340   17.2947 C   0  0  0  0  0  0  0  0  0  0  0  0
    2.9465    2.8912   16.5001 C   0  0  0  0  0  0  0  0  0  0  0  0
    4.3243    3.2309   15.9905 C   0  0  0  0  0  0  0  0  0  0  0  0
    5.2699    3.7787   17.0085 C   0  0  0  0  0  0  0  0  0  0  0  0
    4.6859    1.6336   21.7341 C   0  0  0  0  0  0  0  0  0  0  0  0
    3.7634    1.0167   22.3859 F   0  0  0  0  0  0  0  0  0  0  0  0
    5.8808    1.7664   22.4055 F   0  0  0  0  0  0  0  0  0  0  0  0
    5.0379    0.8801   20.5710 F   0  0  0  0  0  0  0  0  0  0  0  0
  5  6  1  0  0  0
  6  1  1  0  0  0
  1  2  2  0  0  0
  1  3  1  0  0  0
  3 20  1  0  0  0
 20 21  1  0  0  0
 21 22  2  0  0  0
 22 23  1  0  0  0
 23 24  2  0  0  0
 24 33  1  0  0  0
 33 34  1  0  0  0
 33 35  1  0  0  0
 33 36  1  0  0  0
 24 25  1  0  0  0
 25 26  2  0  0  0
 26 27  1  0  0  0
 27 28  1  0  0  0
 28 29  1  0  0  0
 29 30  1  0  0  0
 30 31  1  0  0  0
 31 32  1  0  0  0
  6  7  1  0  0  0
  7  8  2  0  0  0
  8  9  1  0  0  0
  9 10  2  0  0  0
 10 14  1  0  0  0
 14 16  1  0  0  0
 16 17  1  0  0  0
 16 18  2  0  0  0
 16 19  2  0  0  0
 10 11  1  0  0  0
 11 12  1  0  0  0
 11 13  2  0  0  0
 26 21  1  0  0  0
 32 27  1  0  0  0
 13  7  1  0  0  0
  3  4  1  0  0  0
 14 15  1  0  0  0
M  END
> <minimizedAffinity>
-8.24861

> <CNNscore>
0.2750884295

> <CNNaffinity>
6.5321755409

> <CNN_VS>
1.7969259024

> <CNNaffinity_variance>
0.2406194210

$$$$
[H]c1c([H])c(C([H])(C(=O)N([H])C([H])([H])c2c([H])c([H])c(C(F)(F)F)c([H])c2C2([H])C([H])([H])C([H])([H])C([H])([H])C([H])([H])C2([H])[H])C([H])([H])[H])c([H])c(F)c1N([H])S(=O)(=O)C([H])([H])[H]


 36 38  0  0  0  0  0  0  0  0999 V2000
    4.7341   10.0610   19.1876 C   0  0  0  0  0  0  0  0  0  0  0  0
    4.3161   10.9619   18.7272 O   0  0  0  0  0  0  0  0  0  0  0  0
    4.7497    9.0918   20.1979 N   0  0  0  0  0  0  0  0  0  0  0  0
    3.6032    9.6674   20.7664 H   0  0  0  0  0  0  0  0  0  0  0  0
    6.0789   10.3280   17.3209 C   0  0  0  0  0  0  0  0  0  0  0  0
    5.9888    9.2612   18.4375 C   0  0  0  0  0  0  0  0  0  0  0  0
    5.5104    8.0374   17.9018 C   0  0  0  0  0  0  0  0  0  0  0  0
    4.3221    7.8930   17.3081 C   0  0  0  0  0  0  0  0  0  0  0  0
    3.9149    6.7900   16.6894 C   0  0  0  0  0  0  0  0  0  0  0  0
    4.8057    5.6403   16.6754 C   0  0  0  0  0  0  0  0  0  0  0  0
    5.9617    5.7782   17.2721 C   0  0  0  0  0  0  0  0  0  0  0  0
    6.7625    4.6299   17.3615 F   0  0  0  0  0  0  0  0  0  0  0  0
    6.4268    6.9146   17.8988 C   0  0  0  0  0  0  0  0  0  0  0  0
    4.3134    4.6976   15.7524 N   0  0  0  0  0  0  0  0  0  0  0  0
    4.5077    5.0823   14.6992 H   0  0  0  0  0  0  0  0  0  0  0  0
    3.6565    3.1908   15.8484 S   0  0  0  0  0  0  0  0  0  0  0  0
    4.4242    2.2392   17.1634 C   0  0  0  0  0  0  0  0  0  0  0  0
    3.6115    2.5183   14.5335 O   0  0  0  0  0  0  0  0  0  0  0  0
    2.1872    3.3807   16.3492 O   0  0  0  0  0  0  0  0  0  0  0  0
    4.7577    8.2303   21.1035 C   0  0  0  0  0  0  0  0  0  0  0  0
    5.8341    7.7466   22.0057 C   0  0  0  0  0  0  0  0  0  0  0  0
    6.7570    8.4807   22.7039 C   0  0  0  0  0  0  0  0  0  0  0  0
    8.0022    7.9179   23.1265 C   0  0  0  0  0  0  0  0  0  0  0  0
    8.2202    6.6561   22.8125 C   0  0  0  0  0  0  0  0  0  0  0  0
    7.3085    5.8924   22.0959 C   0  0  0  0  0  0  0  0  0  0  0  0
    6.1566    6.3979   21.7056 C   0  0  0  0  0  0  0  0  0  0  0  0
    4.9633    5.6977   21.1269 C   0  0  0  0  0  0  0  0  0  0  0  0
    3.9790    5.3376   22.2614 C   0  0  0  0  0  0  0  0  0  0  0  0
    4.4329    4.3600   23.2454 C   0  0  0  0  0  0  0  0  0  0  0  0
    4.9060    3.0853   22.5882 C   0  0  0  0  0  0  0  0  0  0  0  0
    4.7737    3.1633   21.0883 C   0  0  0  0  0  0  0  0  0  0  0  0
    5.3410    4.3914   20.4553 C   0  0  0  0  0  0  0  0  0  0  0  0
    9.6445    6.0628   22.9245 C   0  0  0  0  0  0  0  0  0  0  0  0
   10.6305    6.8702   22.7444 F   0  0  0  0  0  0  0  0  0  0  0  0
    9.6579    4.9430   22.1232 F   0  0  0  0  0  0  0  0  0  0  0  0
    9.6986    5.5267   24.2490 F   0  0  0  0  0  0  0  0  0  0  0  0
  5  6  1  0  0  0
  6  1  1  0  0  0
  1  2  2  0  0  0
  1  3  1  0  0  0
  3 20  1  0  0  0
 20 21  1  0  0  0
 21 22  2  0  0  0
 22 23  1  0  0  0
 23 24  2  0  0  0
 24 33  1  0  0  0
 33 34  1  0  0  0
 33 35  1  0  0  0
 33 36  1  0  0  0
 24 25  1  0  0  0
 25 26  2  0  0  0
 26 27  1  0  0  0
 27 28  1  0  0  0
 28 29  1  0  0  0
 29 30  1  0  0  0
 30 31  1  0  0  0
 31 32  1  0  0  0
  6  7  1  0  0  0
  7  8  2  0  0  0
  8  9  1  0  0  0
  9 10  2  0  0  0
 10 14  1  0  0  0
 14 16  1  0  0  0
 16 17  1  0  0  0
 16 18  2  0  0  0
 16 19  2  0  0  0
 10 11  1  0  0  0
 11 12  1  0  0  0
 11 13  2  0  0  0
 26 21  1  0  0  0
 32 27  1  0  0  0
 13  7  1  0  0  0
  3  4  1  0  0  0
 14 15  1  0  0  0
M  END
> <minimizedAffinity>
-8.01211

> <CNNscore>
0.2568446994

> <CNNaffinity>
6.3015394211

> <CNN_VS>
1.6185170412

> <CNNaffinity_variance>
0.1113375276

$$$$
[H]c1c([H])c(C([H])(C(=O)N([H])C([H])([H])c2c([H])c([H])c(C(F)(F)F)c([H])c2C2([H])C([H])([H])C([H])([H])C([H])([H])C([H])([H])C2([H])[H])C([H])([H])[H])c([H])c(F)c1N([H])S(=O)(=O)C([H])([H])[H]


 36 38  0  0  0  0  0  0  0  0999 V2000
    2.8727    4.0628   16.3839 C   0  0  0  0  0  0  0  0  0  0  0  0
    2.3201    4.3638   17.2796 O   0  0  0  0  0  0  0  0  0  0  0  0
    3.2323    4.2453   15.0431 N   0  0  0  0  0  0  0  0  0  0  0  0
    2.4909    5.4361   15.0074 H   0  0  0  0  0  0  0  0  0  0  0  0
    2.7322    1.7578   16.2055 C   0  0  0  0  0  0  0  0  0  0  0  0
    3.8946    2.7483   16.4516 C   0  0  0  0  0  0  0  0  0  0  0  0
    4.3838    2.6032   17.7756 C   0  0  0  0  0  0  0  0  0  0  0  0
    5.0260    3.5637   18.4467 C   0  0  0  0  0  0  0  0  0  0  0  0
    5.3747    3.4884   19.7266 C   0  0  0  0  0  0  0  0  0  0  0  0
    5.0666    2.2664   20.4527 C   0  0  0  0  0  0  0  0  0  0  0  0
    4.4531    1.3205   19.7892 C   0  0  0  0  0  0  0  0  0  0  0  0
    4.2700    0.1016   20.4589 F   0  0  0  0  0  0  0  0  0  0  0  0
    4.0530    1.3754   18.4711 C   0  0  0  0  0  0  0  0  0  0  0  0
    5.2622    2.4959   21.8283 N   0  0  0  0  0  0  0  0  0  0  0  0
    6.3518    2.7756   22.0001 H   0  0  0  0  0  0  0  0  0  0  0  0
    4.2944    2.5581   23.1589 S   0  0  0  0  0  0  0  0  0  0  0  0
    3.4900    4.1579   23.2924 C   0  0  0  0  0  0  0  0  0  0  0  0
    4.9951    2.1061   24.3787 O   0  0  0  0  0  0  0  0  0  0  0  0
    3.1068    1.5773   22.8873 O   0  0  0  0  0  0  0  0  0  0  0  0
    3.5486    4.4145   13.8457 C   0  0  0  0  0  0  0  0  0  0  0  0
    3.1436    3.7108   12.6018 C   0  0  0  0  0  0  0  0  0  0  0  0
    2.4453    2.5387   12.4726 C   0  0  0  0  0  0  0  0  0  0  0  0
    2.5401    1.7322   11.2951 C   0  0  0  0  0  0  0  0  0  0  0  0
    3.3324    2.1715   10.3372 C   0  0  0  0  0  0  0  0  0  0  0  0
    4.0605    3.3487   10.4458 C   0  0  0  0  0  0  0  0  0  0  0  0
    3.9778    4.1023   11.5229 C   0  0  0  0  0  0  0  0  0  0  0  0
    4.4966    5.4912   11.7484 C   0  0  0  0  0  0  0  0  0  0  0  0
    3.4482    6.5161   11.2621 C   0  0  0  0  0  0  0  0  0  0  0  0
    3.1674    6.5463    9.8302 C   0  0  0  0  0  0  0  0  0  0  0  0
    4.4288    6.7170    9.0178 C   0  0  0  0  0  0  0  0  0  0  0  0
    5.6414    6.8189    9.9080 C   0  0  0  0  0  0  0  0  0  0  0  0
    5.7610    5.7614   10.9559 C   0  0  0  0  0  0  0  0  0  0  0  0
    3.7585    1.2277    9.1879 C   0  0  0  0  0  0  0  0  0  0  0  0
    2.8765    0.9668    8.2876 F   0  0  0  0  0  0  0  0  0  0  0  0
    4.3202    0.1225    9.7872 F   0  0  0  0  0  0  0  0  0  0  0  0
    4.8765    1.8871    8.5880 F   0  0  0  0  0  0  0  0  0  0  0  0
  5  6  1  0  0  0
  6  1  1  0  0  0
  1  2  2  0  0  0
  1  3  1  0  0  0
  3 20  1  0  0  0
 20 21  1  0  0  0
 21 22  2  0  0  0
 22 23  1  0  0  0
 23 24  2  0  0  0
 24 33  1  0  0  0
 33 34  1  0  0  0
 33 35  1  0  0  0
 33 36  1  0  0  0
 24 25  1  0  0  0
 25 26  2  0  0  0
 26 27  1  0  0  0
 27 28  1  0  0  0
 28 29  1  0  0  0
 29 30  1  0  0  0
 30 31  1  0  0  0
 31 32  1  0  0  0
  6  7  1  0  0  0
  7  8  2  0  0  0
  8  9  1  0  0  0
  9 10  2  0  0  0
 10 14  1  0  0  0
 14 16  1  0  0  0
 16 17  1  0  0  0
 16 18  2  0  0  0
 16 19  2  0  0  0
 10 11  1  0  0  0
 11 12  1  0  0  0
 11 13  2  0  0  0
 26 21  1  0  0  0
 32 27  1  0  0  0
 13  7  1  0  0  0
  3  4  1  0  0  0
 14 15  1  0  0  0
M  END
> <minimizedAffinity>
-7.72120

> <CNNscore>
0.2446786165

> <CNNaffinity>
6.3287310600

> <CNN_VS>
1.5485051870

> <CNNaffinity_variance>
0.2264321148

$$$$
[H]c1c([H])c(C([H])(C(=O)N([H])C([H])([H])c2c([H])c([H])c(C(F)(F)F)c([H])c2C2([H])C([H])([H])C([H])([H])C([H])([H])C([H])([H])C2([H])[H])C([H])([H])[H])c([H])c(F)c1N([H])S(=O)(=O)C([H])([H])[H]


 36 38  0  0  0  0  0  0  0  0999 V2000
    5.6590    8.2768   21.8438 C   0  0  0  0  0  0  0  0  0  0  0  0
    5.2163    9.1031   22.4092 O   0  0  0  0  0  0  0  0  0  0  0  0
    5.8101    6.9099   21.5812 N   0  0  0  0  0  0  0  0  0  0  0  0
    4.8335    6.6177   22.5455 H   0  0  0  0  0  0  0  0  0  0  0  0
    7.1489    9.9377   21.2224 C   0  0  0  0  0  0  0  0  0  0  0  0
    6.6923    8.6071   20.5789 C   0  0  0  0  0  0  0  0  0  0  0  0
    5.9324    8.8692   19.4097 C   0  0  0  0  0  0  0  0  0  0  0  0
    6.3025    8.5057   18.1783 C   0  0  0  0  0  0  0  0  0  0  0  0
    5.5450    8.6285   17.0937 C   0  0  0  0  0  0  0  0  0  0  0  0
    4.2273    9.2269   17.2391 C   0  0  0  0  0  0  0  0  0  0  0  0
    3.8736    9.5979   18.4426 C   0  0  0  0  0  0  0  0  0  0  0  0
    2.6556   10.2845   18.5551 F   0  0  0  0  0  0  0  0  0  0  0  0
    4.6219    9.4606   19.5924 C   0  0  0  0  0  0  0  0  0  0  0  0
    3.4992    9.0116   16.0531 N   0  0  0  0  0  0  0  0  0  0  0  0
    2.7170    8.2080   16.2460 H   0  0  0  0  0  0  0  0  0  0  0  0
    3.4522    9.7049   14.5603 S   0  0  0  0  0  0  0  0  0  0  0  0
    2.5753    8.6581   13.3945 C   0  0  0  0  0  0  0  0  0  0  0  0
    4.7862   10.1576   14.1145 O   0  0  0  0  0  0  0  0  0  0  0  0
    2.5282   10.9605   14.6856 O   0  0  0  0  0  0  0  0  0  0  0  0
    5.9401    5.6879   21.3526 C   0  0  0  0  0  0  0  0  0  0  0  0
    4.9699    4.5635   21.3772 C   0  0  0  0  0  0  0  0  0  0  0  0
    4.5833    3.7924   22.4422 C   0  0  0  0  0  0  0  0  0  0  0  0
    4.0465    2.4785   22.2644 C   0  0  0  0  0  0  0  0  0  0  0  0
    3.9401    2.0438   21.0242 C   0  0  0  0  0  0  0  0  0  0  0  0
    4.3347    2.7984   19.9276 C   0  0  0  0  0  0  0  0  0  0  0  0
    4.8258    4.0113   20.0782 C   0  0  0  0  0  0  0  0  0  0  0  0
    5.1005    5.0569   19.0388 C   0  0  0  0  0  0  0  0  0  0  0  0
    3.7860    5.7864   18.6843 C   0  0  0  0  0  0  0  0  0  0  0  0
    2.7485    4.9979   18.0272 C   0  0  0  0  0  0  0  0  0  0  0  0
    3.2715    4.3080   16.7900 C   0  0  0  0  0  0  0  0  0  0  0  0
    4.7273    4.6274   16.5616 C   0  0  0  0  0  0  0  0  0  0  0  0
    5.6181    4.4529   17.7476 C   0  0  0  0  0  0  0  0  0  0  0  0
    3.6933    0.5421   20.7462 C   0  0  0  0  0  0  0  0  0  0  0  0
    4.6081   -0.2808   21.1236 F   0  0  0  0  0  0  0  0  0  0  0  0
    3.3428    0.4504   19.4177 F   0  0  0  0  0  0  0  0  0  0  0  0
    2.4738    0.2531   21.4345 F   0  0  0  0  0  0  0  0  0  0  0  0
  5  6  1  0  0  0
  6  1  1  0  0  0
  1  2  2  0  0  0
  1  3  1  0  0  0
  3 20  1  0  0  0
 20 21  1  0  0  0
 21 22  2  0  0  0
 22 23  1  0  0  0
 23 24  2  0  0  0
 24 33  1  0  0  0
 33 34  1  0  0  0
 33 35  1  0  0  0
 33 36  1  0  0  0
 24 25  1  0  0  0
 25 26  2  0  0  0
 26 27  1  0  0  0
 27 28  1  0  0  0
 28 29  1  0  0  0
 29 30  1  0  0  0
 30 31  1  0  0  0
 31 32  1  0  0  0
  6  7  1  0  0  0
  7  8  2  0  0  0
  8  9  1  0  0  0
  9 10  2  0  0  0
 10 14  1  0  0  0
 14 16  1  0  0  0
 16 17  1  0  0  0
 16 18  2  0  0  0
 16 19  2  0  0  0
 10 11  1  0  0  0
 11 12  1  0  0  0
 11 13  2  0  0  0
 26 21  1  0  0  0
 32 27  1  0  0  0
 13  7  1  0  0  0
  3  4  1  0  0  0
 14 15  1  0  0  0
M  END
> <minimizedAffinity>
-9.08212

> <CNNscore>
0.2245262563

> <CNNaffinity>
6.5635237694

> <CNN_VS>
1.4736834764

> <CNNaffinity_variance>
0.2024560720

$$$$
[H]c1c([H])c(C([H])(C(=O)N([H])C([H])([H])c2c([H])c([H])c(C(F)(F)F)c([H])c2C2([H])C([H])([H])C([H])([H])C([H])([H])C([H])([H])C2([H])[H])C([H])([H])[H])c([H])c(F)c1N([H])S(=O)(=O)C([H])([H])[H]


 36 38  0  0  0  0  0  0  0  0999 V2000
    3.8721    1.7889   21.7486 C   0  0  0  0  0  0  0  0  0  0  0  0
    3.3502    1.1927   22.5039 O   0  0  0  0  0  0  0  0  0  0  0  0
    4.2208    3.0206   21.1814 N   0  0  0  0  0  0  0  0  0  0  0  0
    3.5446    3.6869   22.2147 H   0  0  0  0  0  0  0  0  0  0  0  0
    6.0470    1.9043   20.9608 C   0  0  0  0  0  0  0  0  0  0  0  0
    4.8222    1.0263   20.6118 C   0  0  0  0  0  0  0  0  0  0  0  0
    4.3485    1.3482   19.3136 C   0  0  0  0  0  0  0  0  0  0  0  0
    4.9759    2.1729   18.4702 C   0  0  0  0  0  0  0  0  0  0  0  0
    4.6149    2.3830   17.2089 C   0  0  0  0  0  0  0  0  0  0  0  0
    3.4366    1.6938   16.7068 C   0  0  0  0  0  0  0  0  0  0  0  0
    2.8137    0.9000   17.5393 C   0  0  0  0  0  0  0  0  0  0  0  0
    1.6113    0.3359   17.0879 F   0  0  0  0  0  0  0  0  0  0  0  0
    3.1758    0.6380   18.8435 C   0  0  0  0  0  0  0  0  0  0  0  0
    3.3934    1.8331   15.3061 N   0  0  0  0  0  0  0  0  0  0  0  0
    3.8100    0.8860   14.8323 H   0  0  0  0  0  0  0  0  0  0  0  0
    2.8019    2.9529   14.2538 S   0  0  0  0  0  0  0  0  0  0  0  0
    1.4388    2.2786   13.2992 C   0  0  0  0  0  0  0  0  0  0  0  0
    3.8718    3.5867   13.4558 O   0  0  0  0  0  0  0  0  0  0  0  0
    2.1217    4.0603   15.1238 O   0  0  0  0  0  0  0  0  0  0  0  0
    4.5277    4.1238   20.6803 C   0  0  0  0  0  0  0  0  0  0  0  0
    5.5205    5.1545   21.0784 C   0  0  0  0  0  0  0  0  0  0  0  0
    6.3683    5.1525   22.1551 C   0  0  0  0  0  0  0  0  0  0  0  0
    6.9011    6.3650   22.6955 C   0  0  0  0  0  0  0  0  0  0  0  0
    6.5378    7.4872   22.1066 C   0  0  0  0  0  0  0  0  0  0  0  0
    5.6714    7.5198   21.0222 C   0  0  0  0  0  0  0  0  0  0  0  0
    5.1781    6.4098   20.5126 C   0  0  0  0  0  0  0  0  0  0  0  0
    4.4184    6.2109   19.2350 C   0  0  0  0  0  0  0  0  0  0  0  0
    5.4033    5.8392   18.1046 C   0  0  0  0  0  0  0  0  0  0  0  0
    6.3680    6.8591   17.7060 C   0  0  0  0  0  0  0  0  0  0  0  0
    5.6896    8.1610   17.3523 C   0  0  0  0  0  0  0  0  0  0  0  0
    4.1928    8.0535   17.4988 C   0  0  0  0  0  0  0  0  0  0  0  0
    3.7124    7.4773   18.7903 C   0  0  0  0  0  0  0  0  0  0  0  0
    6.7825    8.8455   22.8055 C   0  0  0  0  0  0  0  0  0  0  0  0
    7.7923    9.5358   22.4053 F   0  0  0  0  0  0  0  0  0  0  0  0
    6.7529    8.5918   24.1586 F   0  0  0  0  0  0  0  0  0  0  0  0
    5.5775    9.5804   22.5767 F   0  0  0  0  0  0  0  0  0  0  0  0
  5  6  1  0  0  0
  6  1  1  0  0  0
  1  2  2  0  0  0
  1  3  1  0  0  0
  3 20  1  0  0  0
 20 21  1  0  0  0
 21 22  2  0  0  0
 22 23  1  0  0  0
 23 24  2  0  0  0
 24 33  1  0  0  0
 33 34  1  0  0  0
 33 35  1  0  0  0
 33 36  1  0  0  0
 24 25  1  0  0  0
 25 26  2  0  0  0
 26 27  1  0  0  0
 27 28  1  0  0  0
 28 29  1  0  0  0
 29 30  1  0  0  0
 30 31  1  0  0  0
 31 32  1  0  0  0
  6  7  1  0  0  0
  7  8  2  0  0  0
  8  9  1  0  0  0
  9 10  2  0  0  0
 10 14  1  0  0  0
 14 16  1  0  0  0
 16 17  1  0  0  0
 16 18  2  0  0  0
 16 19  2  0  0  0
 10 11  1  0  0  0
 11 12  1  0  0  0
 11 13  2  0  0  0
 26 21  1  0  0  0
 32 27  1  0  0  0
 13  7  1  0  0  0
  3  4  1  0  0  0
 14 15  1  0  0  0
M  END
> <minimizedAffinity>
-8.46085

> <CNNscore>
0.2208492309

> <CNNaffinity>
6.6642861366

> <CNN_VS>
1.4718024731

> <CNNaffinity_variance>
0.2660890520

$$$$
[H]OC(=O)C([H])([H])N(C([H])([H])c1c([H])c([H])c([H])c(OC([H])([H])C([H])([H])c2nc(-c3c([H])c([H])c([H])c([H])c3[H])oc2C([H])([H])[H])c1[H])C([H])([H])c1c([H])c([H])c2c([H])c([H])c([H])c([H])c2c1[H]


 39 43  0  0  0  0  0  0  0  0999 V2000
    5.1055    5.1053   21.8319 C   0  0  0  0  0  0  0  0  0  0  0  0
    6.4428    5.3680   21.7348 C   0  0  0  0  0  0  0  0  0  0  0  0
    6.9124    6.1421   20.7005 C   0  0  0  0  0  0  0  0  0  0  0  0
    6.0872    6.6782   19.7379 C   0  0  0  0  0  0  0  0  0  0  0  0
    4.7357    6.4332   19.8065 C   0  0  0  0  0  0  0  0  0  0  0  0
    4.2796    5.6601   20.8414 C   0  0  0  0  0  0  0  0  0  0  0  0
    4.5591    4.3507   22.8169 O   0  0  0  0  0  0  0  0  0  0  0  0
    4.0558    3.0868   22.8771 C   0  0  0  0  0  0  0  0  0  0  0  0
    4.8570    1.9771   22.2815 C   0  0  0  0  0  0  0  0  0  0  0  0
    3.4592   -0.6693   21.3372 C   0  0  0  0  0  0  0  0  0  0  0  0
    3.7704    0.4789   20.4666 C   0  0  0  0  0  0  0  0  0  0  0  0
    3.5234    0.5912   19.1809 O   0  0  0  0  0  0  0  0  0  0  0  0
    3.9391    1.7520   18.7396 C   0  0  0  0  0  0  0  0  0  0  0  0
    4.4705    2.3980   19.7938 N   0  0  0  0  0  0  0  0  0  0  0  0
    4.3894    1.6461   20.8929 C   0  0  0  0  0  0  0  0  0  0  0  0
    3.8524    2.2642   17.3789 C   0  0  0  0  0  0  0  0  0  0  0  0
    3.2110    1.5430   16.3936 C   0  0  0  0  0  0  0  0  0  0  0  0
    3.1164    2.0105   15.0856 C   0  0  0  0  0  0  0  0  0  0  0  0
    3.6744    3.2238   14.7540 C   0  0  0  0  0  0  0  0  0  0  0  0
    4.3146    3.9563   15.7117 C   0  0  0  0  0  0  0  0  0  0  0  0
    4.4014    3.4740   17.0210 C   0  0  0  0  0  0  0  0  0  0  0  0
    3.8502    6.9967   18.7813 C   0  0  0  0  0  0  0  0  0  0  0  0
    4.1920    8.2905   18.2963 N   0  0  0  0  0  0  0  0  0  0  0  0
    4.0203    8.4209   16.8936 C   0  0  0  0  0  0  0  0  0  0  0  0
    4.0370    9.7944   16.3732 C   0  0  0  0  0  0  0  0  0  0  0  0
    5.0413   10.4929   16.1555 O   0  0  0  0  0  0  0  0  0  0  0  0
    2.7961   10.3965   16.0866 O   0  0  0  0  0  0  0  0  0  0  0  0
    2.4583   11.1414   16.6794 H   0  0  0  0  0  0  0  0  0  0  0  0
    3.6785    9.3614   19.0975 C   0  0  0  0  0  0  0  0  0  0  0  0
    4.6649   10.1161   19.8646 C   0  0  0  0  0  0  0  0  0  0  0  0
    5.1183   11.3813   19.5707 C   0  0  0  0  0  0  0  0  0  0  0  0
    6.0657   12.0123   20.3622 C   0  0  0  0  0  0  0  0  0  0  0  0
    6.5995   11.4083   21.4791 C   0  0  0  0  0  0  0  0  0  0  0  0
    7.5406   12.0665   22.2423 C   0  0  0  0  0  0  0  0  0  0  0  0
    8.0820   11.4686   23.3626 C   0  0  0  0  0  0  0  0  0  0  0  0
    7.6489   10.2008   23.6840 C   0  0  0  0  0  0  0  0  0  0  0  0
    6.6958    9.5365   22.9100 C   0  0  0  0  0  0  0  0  0  0  0  0
    6.1555   10.1386   21.7885 C   0  0  0  0  0  0  0  0  0  0  0  0
    5.2125    9.5149   20.9976 C   0  0  0  0  0  0  0  0  0  0  0  0
 10 11  1  0  0  0
 11 12  1  0  0  0
 12 13  1  0  0  0
 13 16  1  0  0  0
 16 17  2  0  0  0
 17 18  1  0  0  0
 18 19  2  0  0  0
 19 20  1  0  0  0
 20 21  2  0  0  0
 13 14  2  0  0  0
 14 15  1  0  0  0
 15  9  1  0  0  0
  9  8  1  0  0  0
  8  7  1  0  0  0
  7  1  1  0  0  0
  1  2  2  0  0  0
  2  3  1  0  0  0
  3  4  2  0  0  0
  4  5  1  0  0  0
  5 22  1  0  0  0
 22 23  1  0  0  0
 23 24  1  0  0  0
 24 25  1  0  0  0
 25 26  2  0  0  0
 25 27  1  0  0  0
 23 29  1  0  0  0
 29 30  1  0  0  0
 30 31  2  0  0  0
 31 32  1  0  0  0
 32 33  2  0  0  0
 33 34  1  0  0  0
 34 35  2  0  0  0
 35 36  1  0  0  0
 36 37  2  0  0  0
 37 38  1  0  0  0
 38 39  2  0  0  0
  5  6  2  0  0  0
 15 11  2  0  0  0
  6  1  1  0  0  0
 21 16  1  0  0  0
 39 30  1  0  0  0
 38 33  1  0  0  0
 27 28  1  0  0  0
M  END
> <minimizedAffinity>
-9.48584

> <CNNscore>
0.4382430911

> <CNNaffinity>
6.8117990494

> <CNN_VS>
2.9852237701

> <CNNaffinity_variance>
0.2111504078

$$$$
[H]OC(=O)C([H])([H])N(C([H])([H])c1c([H])c([H])c([H])c(OC([H])([H])C([H])([H])c2nc(-c3c([H])c([H])c([H])c([H])c3[H])oc2C([H])([H])[H])c1[H])C([H])([H])c1c([H])c([H])c2c([H])c([H])c([H])c([H])c2c1[H]


 39 43  0  0  0  0  0  0  0  0999 V2000
    3.3559    3.8011   12.7235 C   0  0  0  0  0  0  0  0  0  0  0  0
    2.7013    2.6060   12.6242 C   0  0  0  0  0  0  0  0  0  0  0  0
    2.1572    2.0310   13.7479 C   0  0  0  0  0  0  0  0  0  0  0  0
    2.2387    2.6099   14.9942 C   0  0  0  0  0  0  0  0  0  0  0  0
    2.8906    3.8133   15.1289 C   0  0  0  0  0  0  0  0  0  0  0  0
    3.4292    4.3764   14.0021 C   0  0  0  0  0  0  0  0  0  0  0  0
    3.9229    4.4356   11.6681 O   0  0  0  0  0  0  0  0  0  0  0  0
    5.2064    4.6811   11.2848 C   0  0  0  0  0  0  0  0  0  0  0  0
    5.4395    5.6443   10.1685 C   0  0  0  0  0  0  0  0  0  0  0  0
    7.0270    5.0120    7.5363 C   0  0  0  0  0  0  0  0  0  0  0  0
    7.6163    5.5793    8.7627 C   0  0  0  0  0  0  0  0  0  0  0  0
    8.8725    5.9101    8.9613 O   0  0  0  0  0  0  0  0  0  0  0  0
    9.0301    6.3834   10.1722 C   0  0  0  0  0  0  0  0  0  0  0  0
    7.8203    6.3490   10.7607 N   0  0  0  0  0  0  0  0  0  0  0  0
    6.9063    5.8559    9.9231 C   0  0  0  0  0  0  0  0  0  0  0  0
   10.2637    6.8599   10.7825 C   0  0  0  0  0  0  0  0  0  0  0  0
   11.4659    6.7587   10.1140 C   0  0  0  0  0  0  0  0  0  0  0  0
   12.6585    7.2054   10.6769 C   0  0  0  0  0  0  0  0  0  0  0  0
   12.6507    7.7648   11.9340 C   0  0  0  0  0  0  0  0  0  0  0  0
   11.4732    7.8761   12.6157 C   0  0  0  0  0  0  0  0  0  0  0  0
   10.2836    7.4232   12.0376 C   0  0  0  0  0  0  0  0  0  0  0  0
    2.9863    4.4343   16.4548 C   0  0  0  0  0  0  0  0  0  0  0  0
    4.2181    5.0787   16.7608 N   0  0  0  0  0  0  0  0  0  0  0  0
    4.0479    6.2856   17.4877 C   0  0  0  0  0  0  0  0  0  0  0  0
    4.3638    7.5205   16.7579 C   0  0  0  0  0  0  0  0  0  0  0  0
    5.2015    7.6516   15.8495 O   0  0  0  0  0  0  0  0  0  0  0  0
    3.6542    8.6848   17.1118 O   0  0  0  0  0  0  0  0  0  0  0  0
    4.1327    9.4267   17.6028 H   0  0  0  0  0  0  0  0  0  0  0  0
    5.2308    4.1880   17.2440 C   0  0  0  0  0  0  0  0  0  0  0  0
    4.8054    3.2233   18.2536 C   0  0  0  0  0  0  0  0  0  0  0  0
    4.3973    1.9317   18.0130 C   0  0  0  0  0  0  0  0  0  0  0  0
    4.0051    1.0929   19.0449 C   0  0  0  0  0  0  0  0  0  0  0  0
    4.0040    1.5069   20.3585 C   0  0  0  0  0  0  0  0  0  0  0  0
    3.6067    0.6447   21.3585 C   0  0  0  0  0  0  0  0  0  0  0  0
    3.6011    1.0512   22.6778 C   0  0  0  0  0  0  0  0  0  0  0  0
    4.0042    2.3399   22.9522 C   0  0  0  0  0  0  0  0  0  0  0  0
    4.4063    3.2109   21.9381 C   0  0  0  0  0  0  0  0  0  0  0  0
    4.4107    2.8001   20.6177 C   0  0  0  0  0  0  0  0  0  0  0  0
    4.8001    3.6310   19.5873 C   0  0  0  0  0  0  0  0  0  0  0  0
 10 11  1  0  0  0
 11 12  1  0  0  0
 12 13  1  0  0  0
 13 16  1  0  0  0
 16 17  2  0  0  0
 17 18  1  0  0  0
 18 19  2  0  0  0
 19 20  1  0  0  0
 20 21  2  0  0  0
 13 14  2  0  0  0
 14 15  1  0  0  0
 15  9  1  0  0  0
  9  8  1  0  0  0
  8  7  1  0  0  0
  7  1  1  0  0  0
  1  2  2  0  0  0
  2  3  1  0  0  0
  3  4  2  0  0  0
  4  5  1  0  0  0
  5 22  1  0  0  0
 22 23  1  0  0  0
 23 24  1  0  0  0
 24 25  1  0  0  0
 25 26  2  0  0  0
 25 27  1  0  0  0
 23 29  1  0  0  0
 29 30  1  0  0  0
 30 31  2  0  0  0
 31 32  1  0  0  0
 32 33  2  0  0  0
 33 34  1  0  0  0
 34 35  2  0  0  0
 35 36  1  0  0  0
 36 37  2  0  0  0
 37 38  1  0  0  0
 38 39  2  0  0  0
  5  6  2  0  0  0
 15 11  2  0  0  0
  6  1  1  0  0  0
 21 16  1  0  0  0
 39 30  1  0  0  0
 38 33  1  0  0  0
 27 28  1  0  0  0
M  END
> <minimizedAffinity>
-8.25708

> <CNNscore>
0.2520434260

> <CNNaffinity>
6.0224843025

> <CNN_VS>
1.5179275274

> <CNNaffinity_variance>
0.3079815805

$$$$
[H]OC(=O)C([H])([H])N(C([H])([H])c1c([H])c([H])c([H])c(OC([H])([H])C([H])([H])c2nc(-c3c([H])c([H])c([H])c([H])c3[H])oc2C([H])([H])[H])c1[H])C([H])([H])c1c([H])c([H])c2c([H])c([H])c([H])c([H])c2c1[H]


 39 43  0  0  0  0  0  0  0  0999 V2000
    4.7111    8.6589   16.5922 C   0  0  0  0  0  0  0  0  0  0  0  0
    5.9822    9.0918   16.3405 C   0  0  0  0  0  0  0  0  0  0  0  0
    6.9810    8.8410   17.2509 C   0  0  0  0  0  0  0  0  0  0  0  0
    6.7620    8.1610   18.4276 C   0  0  0  0  0  0  0  0  0  0  0  0
    5.4937    7.7112   18.7116 C   0  0  0  0  0  0  0  0  0  0  0  0
    4.5066    7.9675   17.7969 C   0  0  0  0  0  0  0  0  0  0  0  0
    3.6681    8.8652   15.7509 O   0  0  0  0  0  0  0  0  0  0  0  0
    3.5552    9.0615   14.4081 C   0  0  0  0  0  0  0  0  0  0  0  0
    3.4925    7.8629   13.5205 C   0  0  0  0  0  0  0  0  0  0  0  0
    0.5015    6.9535   13.7957 C   0  0  0  0  0  0  0  0  0  0  0  0
    1.6559    6.2506   14.3843 C   0  0  0  0  0  0  0  0  0  0  0  0
    1.6341    5.1522   15.1054 O   0  0  0  0  0  0  0  0  0  0  0  0
    2.8503    4.8177   15.4577 C   0  0  0  0  0  0  0  0  0  0  0  0
    3.6727    5.7460   14.9352 N   0  0  0  0  0  0  0  0  0  0  0  0
    2.9762    6.6602   14.2576 C   0  0  0  0  0  0  0  0  0  0  0  0
    3.2560    3.6698   16.2572 C   0  0  0  0  0  0  0  0  0  0  0  0
    3.7806    3.8411   17.5212 C   0  0  0  0  0  0  0  0  0  0  0  0
    4.1770    2.7600   18.3040 C   0  0  0  0  0  0  0  0  0  0  0  0
    4.0472    1.4807   17.8142 C   0  0  0  0  0  0  0  0  0  0  0  0
    3.5305    1.2854   16.5658 C   0  0  0  0  0  0  0  0  0  0  0  0
    3.1366    2.3807   15.7915 C   0  0  0  0  0  0  0  0  0  0  0  0
    5.2511    6.9901   19.9661 C   0  0  0  0  0  0  0  0  0  0  0  0
    5.8653    7.5296   21.1313 N   0  0  0  0  0  0  0  0  0  0  0  0
    5.1289    8.6001   21.7021 C   0  0  0  0  0  0  0  0  0  0  0  0
    5.9188    9.6016   22.4304 C   0  0  0  0  0  0  0  0  0  0  0  0
    6.6636   10.4633   21.9336 O   0  0  0  0  0  0  0  0  0  0  0  0
    5.8354    9.5988   23.8367 O   0  0  0  0  0  0  0  0  0  0  0  0
    6.6282    9.2868   24.3793 H   0  0  0  0  0  0  0  0  0  0  0  0
    6.3440    6.5349   22.0444 C   0  0  0  0  0  0  0  0  0  0  0  0
    5.5590    5.3066   22.1214 C   0  0  0  0  0  0  0  0  0  0  0  0
    4.2957    5.1895   22.6534 C   0  0  0  0  0  0  0  0  0  0  0  0
    3.6343    3.9714   22.6852 C   0  0  0  0  0  0  0  0  0  0  0  0
    4.2047    2.8206   22.1879 C   0  0  0  0  0  0  0  0  0  0  0  0
    3.5169    1.6266   22.2372 C   0  0  0  0  0  0  0  0  0  0  0  0
    4.0810    0.4679   21.7423 C   0  0  0  0  0  0  0  0  0  0  0  0
    5.3461    0.5516   21.2029 C   0  0  0  0  0  0  0  0  0  0  0  0
    6.0404    1.7616   21.1539 C   0  0  0  0  0  0  0  0  0  0  0  0
    5.4720    2.9203   21.6504 C   0  0  0  0  0  0  0  0  0  0  0  0
    6.1262    4.1349   21.6210 C   0  0  0  0  0  0  0  0  0  0  0  0
 10 11  1  0  0  0
 11 12  1  0  0  0
 12 13  1  0  0  0
 13 16  1  0  0  0
 16 17  2  0  0  0
 17 18  1  0  0  0
 18 19  2  0  0  0
 19 20  1  0  0  0
 20 21  2  0  0  0
 13 14  2  0  0  0
 14 15  1  0  0  0
 15  9  1  0  0  0
  9  8  1  0  0  0
  8  7  1  0  0  0
  7  1  1  0  0  0
  1  2  2  0  0  0
  2  3  1  0  0  0
  3  4  2  0  0  0
  4  5  1  0  0  0
  5 22  1  0  0  0
 22 23  1  0  0  0
 23 24  1  0  0  0
 24 25  1  0  0  0
 25 26  2  0  0  0
 25 27  1  0  0  0
 23 29  1  0  0  0
 29 30  1  0  0  0
 30 31  2  0  0  0
 31 32  1  0  0  0
 32 33  2  0  0  0
 33 34  1  0  0  0
 34 35  2  0  0  0
 35 36  1  0  0  0
 36 37  2  0  0  0
 37 38  1  0  0  0
 38 39  2  0  0  0
  5  6  2  0  0  0
 15 11  2  0  0  0
  6  1  1  0  0  0
 21 16  1  0  0  0
 39 30  1  0  0  0
 38 33  1  0  0  0
 27 28  1  0  0  0
M  END
> <minimizedAffinity>
-8.86606

> <CNNscore>
0.2191977948

> <CNNaffinity>
6.5171790123

> <CNN_VS>
1.4285513163

> <CNNaffinity_variance>
0.4198142588

$$$$
[H]OC(=O)C([H])([H])N(C([H])([H])c1c([H])c([H])c([H])c(OC([H])([H])C([H])([H])c2nc(-c3c([H])c([H])c([H])c([H])c3[H])oc2C([H])([H])[H])c1[H])C([H])([H])c1c([H])c([H])c2c([H])c([H])c([H])c([H])c2c1[H]


 39 43  0  0  0  0  0  0  0  0999 V2000
    4.0536    6.6331   16.4031 C   0  0  0  0  0  0  0  0  0  0  0  0
    3.8390    7.6742   15.5448 C   0  0  0  0  0  0  0  0  0  0  0  0
    3.5357    7.4212   14.2282 C   0  0  0  0  0  0  0  0  0  0  0  0
    3.4341    6.1461   13.7195 C   0  0  0  0  0  0  0  0  0  0  0  0
    3.6440    5.0755   14.5569 C   0  0  0  0  0  0  0  0  0  0  0  0
    3.9459    5.3402   15.8667 C   0  0  0  0  0  0  0  0  0  0  0  0
    4.3593    6.7930   17.7143 O   0  0  0  0  0  0  0  0  0  0  0  0
    3.6315    6.8013   18.8653 C   0  0  0  0  0  0  0  0  0  0  0  0
    3.6516    5.5805   19.7240 C   0  0  0  0  0  0  0  0  0  0  0  0
    3.5780    4.7100   22.7382 C   0  0  0  0  0  0  0  0  0  0  0  0
    4.7650    5.2347   22.0391 C   0  0  0  0  0  0  0  0  0  0  0  0
    5.9645    5.4233   22.5416 O   0  0  0  0  0  0  0  0  0  0  0  0
    6.7686    5.9032   21.6261 C   0  0  0  0  0  0  0  0  0  0  0  0
    6.0433    6.0214   20.4987 N   0  0  0  0  0  0  0  0  0  0  0  0
    4.7886    5.6177   20.7049 C   0  0  0  0  0  0  0  0  0  0  0  0
    8.1758    6.2478   21.7767 C   0  0  0  0  0  0  0  0  0  0  0  0
    9.0111    5.4756   22.5566 C   0  0  0  0  0  0  0  0  0  0  0  0
   10.3590    5.7852   22.7174 C   0  0  0  0  0  0  0  0  0  0  0  0
   10.8841    6.8895   22.0863 C   0  0  0  0  0  0  0  0  0  0  0  0
   10.0773    7.6696   21.3089 C   0  0  0  0  0  0  0  0  0  0  0  0
    8.7258    7.3460   21.1568 C   0  0  0  0  0  0  0  0  0  0  0  0
    3.5426    3.7134   14.0212 C   0  0  0  0  0  0  0  0  0  0  0  0
    2.7440    2.8013   14.7670 N   0  0  0  0  0  0  0  0  0  0  0  0
    1.4217    2.6824   14.2654 C   0  0  0  0  0  0  0  0  0  0  0  0
    1.2937    2.6574   12.8024 C   0  0  0  0  0  0  0  0  0  0  0  0
    1.6814    1.7567   12.0392 O   0  0  0  0  0  0  0  0  0  0  0  0
    0.6703    3.7595   12.1850 O   0  0  0  0  0  0  0  0  0  0  0  0
    1.2273    4.4028   11.6406 H   0  0  0  0  0  0  0  0  0  0  0  0
    3.4121    1.5742   15.0831 C   0  0  0  0  0  0  0  0  0  0  0  0
    3.3140    1.1314   16.4707 C   0  0  0  0  0  0  0  0  0  0  0  0
    2.4838    0.1418   16.9442 C   0  0  0  0  0  0  0  0  0  0  0  0
    2.4606   -0.2018   18.2872 C   0  0  0  0  0  0  0  0  0  0  0  0
    3.2639    0.4265   19.2129 C   0  0  0  0  0  0  0  0  0  0  0  0
    3.2133    0.0584   20.5407 C   0  0  0  0  0  0  0  0  0  0  0  0
    4.0138    0.6833   21.4758 C   0  0  0  0  0  0  0  0  0  0  0  0
    4.8566    1.6794   21.0335 C   0  0  0  0  0  0  0  0  0  0  0  0
    4.9064    2.0502   19.6886 C   0  0  0  0  0  0  0  0  0  0  0  0
    4.1031    1.4219   18.7547 C   0  0  0  0  0  0  0  0  0  0  0  0
    4.1225    1.7602   17.4172 C   0  0  0  0  0  0  0  0  0  0  0  0
 10 11  1  0  0  0
 11 12  1  0  0  0
 12 13  1  0  0  0
 13 16  1  0  0  0
 16 17  2  0  0  0
 17 18  1  0  0  0
 18 19  2  0  0  0
 19 20  1  0  0  0
 20 21  2  0  0  0
 13 14  2  0  0  0
 14 15  1  0  0  0
 15  9  1  0  0  0
  9  8  1  0  0  0
  8  7  1  0  0  0
  7  1  1  0  0  0
  1  2  2  0  0  0
  2  3  1  0  0  0
  3  4  2  0  0  0
  4  5  1  0  0  0
  5 22  1  0  0  0
 22 23  1  0  0  0
 23 24  1  0  0  0
 24 25  1  0  0  0
 25 26  2  0  0  0
 25 27  1  0  0  0
 23 29  1  0  0  0
 29 30  1  0  0  0
 30 31  2  0  0  0
 31 32  1  0  0  0
 32 33  2  0  0  0
 33 34  1  0  0  0
 34 35  2  0  0  0
 35 36  1  0  0  0
 36 37  2  0  0  0
 37 38  1  0  0  0
 38 39  2  0  0  0
  5  6  2  0  0  0
 15 11  2  0  0  0
  6  1  1  0  0  0
 21 16  1  0  0  0
 39 30  1  0  0  0
 38 33  1  0  0  0
 27 28  1  0  0  0
M  END
> <minimizedAffinity>
-8.63227

> <CNNscore>
0.1851010472

> <CNNaffinity>
6.5322251320

> <CNN_VS>
1.2091217041

> <CNNaffinity_variance>
0.3436578810

$$$$
[H]OC(=O)C([H])([H])N(C([H])([H])c1c([H])c([H])c([H])c(OC([H])([H])C([H])([H])c2nc(-c3c([H])c([H])c([H])c([H])c3[H])oc2C([H])([H])[H])c1[H])C([H])([H])c1c([H])c([H])c2c([H])c([H])c([H])c([H])c2c1[H]


 39 43  0  0  0  0  0  0  0  0999 V2000
    3.6616    4.3526   15.6725 C   0  0  0  0  0  0  0  0  0  0  0  0
    2.4191    4.7846   16.0417 C   0  0  0  0  0  0  0  0  0  0  0  0
    2.1328    4.9817   17.3716 C   0  0  0  0  0  0  0  0  0  0  0  0
    3.0531    4.7624   18.3716 C   0  0  0  0  0  0  0  0  0  0  0  0
    4.3134    4.3274   18.0341 C   0  0  0  0  0  0  0  0  0  0  0  0
    4.5868    4.1342   16.7057 C   0  0  0  0  0  0  0  0  0  0  0  0
    4.0269    4.1308   14.3859 O   0  0  0  0  0  0  0  0  0  0  0  0
    3.5248    4.5074   13.1774 C   0  0  0  0  0  0  0  0  0  0  0  0
    2.9246    5.8686   13.0535 C   0  0  0  0  0  0  0  0  0  0  0  0
    4.8146    7.2070   10.9357 C   0  0  0  0  0  0  0  0  0  0  0  0
    4.7842    7.5405   12.3713 C   0  0  0  0  0  0  0  0  0  0  0  0
    5.5215    8.4310   12.9960 O   0  0  0  0  0  0  0  0  0  0  0  0
    5.2199    8.4549   14.2702 C   0  0  0  0  0  0  0  0  0  0  0  0
    4.2507    7.5397   14.4549 N   0  0  0  0  0  0  0  0  0  0  0  0
    3.9446    6.9430   13.3015 C   0  0  0  0  0  0  0  0  0  0  0  0
    5.8057    9.2990   15.3026 C   0  0  0  0  0  0  0  0  0  0  0  0
    5.2669   10.5353   15.5921 C   0  0  0  0  0  0  0  0  0  0  0  0
    5.8097   11.3609   16.5730 C   0  0  0  0  0  0  0  0  0  0  0  0
    6.9140   10.9436   17.2799 C   0  0  0  0  0  0  0  0  0  0  0  0
    7.4654    9.7238   17.0117 C   0  0  0  0  0  0  0  0  0  0  0  0
    6.9092    8.9057   16.0239 C   0  0  0  0  0  0  0  0  0  0  0  0
    5.2984    4.0865   19.0945 C   0  0  0  0  0  0  0  0  0  0  0  0
    5.4848    5.1412   20.0321 N   0  0  0  0  0  0  0  0  0  0  0  0
    5.6153    4.6800   21.3678 C   0  0  0  0  0  0  0  0  0  0  0  0
    4.4420    4.8779   22.2291 C   0  0  0  0  0  0  0  0  0  0  0  0
    3.9437    4.0462   23.0063 O   0  0  0  0  0  0  0  0  0  0  0  0
    3.8042    6.1330   22.1812 O   0  0  0  0  0  0  0  0  0  0  0  0
    2.8949    6.2104   21.7480 H   0  0  0  0  0  0  0  0  0  0  0  0
    6.4332    6.1281   19.6093 C   0  0  0  0  0  0  0  0  0  0  0  0
    6.0093    7.5190   19.7380 C   0  0  0  0  0  0  0  0  0  0  0  0
    6.6381    8.4874   20.4861 C   0  0  0  0  0  0  0  0  0  0  0  0
    6.1505    9.7838   20.5482 C   0  0  0  0  0  0  0  0  0  0  0  0
    5.0167   10.1680   19.8670 C   0  0  0  0  0  0  0  0  0  0  0  0
    4.5609   11.4665   19.9530 C   0  0  0  0  0  0  0  0  0  0  0  0
    3.4248   11.8604   19.2748 C   0  0  0  0  0  0  0  0  0  0  0  0
    2.7715   10.9136   18.5165 C   0  0  0  0  0  0  0  0  0  0  0  0
    3.2350    9.5997   18.4308 C   0  0  0  0  0  0  0  0  0  0  0  0
    4.3734    9.2088   19.1114 C   0  0  0  0  0  0  0  0  0  0  0  0
    4.8626    7.9199   19.0529 C   0  0  0  0  0  0  0  0  0  0  0  0
 10 11  1  0  0  0
 11 12  1  0  0  0
 12 13  1  0  0  0
 13 16  1  0  0  0
 16 17  2  0  0  0
 17 18  1  0  0  0
 18 19  2  0  0  0
 19 20  1  0  0  0
 20 21  2  0  0  0
 13 14  2  0  0  0
 14 15  1  0  0  0
 15  9  1  0  0  0
  9  8  1  0  0  0
  8  7  1  0  0  0
  7  1  1  0  0  0
  1  2  2  0  0  0
  2  3  1  0  0  0
  3  4  2  0  0  0
  4  5  1  0  0  0
  5 22  1  0  0  0
 22 23  1  0  0  0
 23 24  1  0  0  0
 24 25  1  0  0  0
 25 26  2  0  0  0
 25 27  1  0  0  0
 23 29  1  0  0  0
 29 30  1  0  0  0
 30 31  2  0  0  0
 31 32  1  0  0  0
 32 33  2  0  0  0
 33 34  1  0  0  0
 34 35  2  0  0  0
 35 36  1  0  0  0
 36 37  2  0  0  0
 37 38  1  0  0  0
 38 39  2  0  0  0
  5  6  2  0  0  0
 15 11  2  0  0  0
  6  1  1  0  0  0
 21 16  1  0  0  0
 39 30  1  0  0  0
 38 33  1  0  0  0
 27 28  1  0  0  0
M  END
> <minimizedAffinity>
-6.53213

> <CNNscore>
0.1790967137

> <CNNaffinity>
5.6565713882

> <CNN_VS>
1.0130733252

> <CNNaffinity_variance>
1.1410350800

$$$$
[H]OC(=O)C([H])([H])N(C([H])([H])c1c([H])c([H])c([H])c(OC([H])([H])C([H])([H])c2nc(-c3c([H])c([H])c([H])c([H])c3[H])oc2C([H])([H])[H])c1[H])C([H])([H])c1c([H])c([H])c2c([H])c([H])c([H])c([H])c2c1[H]


 39 43  0  0  0  0  0  0  0  0999 V2000
    5.4428   10.5939   20.4237 C   0  0  0  0  0  0  0  0  0  0  0  0
    4.7716   11.6311   19.8404 C   0  0  0  0  0  0  0  0  0  0  0  0
    3.7815   11.3726   18.9226 C   0  0  0  0  0  0  0  0  0  0  0  0
    3.4233   10.0956   18.5539 C   0  0  0  0  0  0  0  0  0  0  0  0
    4.0790    9.0288   19.1226 C   0  0  0  0  0  0  0  0  0  0  0  0
    5.0640    9.2989   20.0355 C   0  0  0  0  0  0  0  0  0  0  0  0
    6.4327   10.7592   21.3353 O   0  0  0  0  0  0  0  0  0  0  0  0
    6.7752   10.1260   22.4912 C   0  0  0  0  0  0  0  0  0  0  0  0
    7.9296    9.1800   22.4645 C   0  0  0  0  0  0  0  0  0  0  0  0
    8.6707    7.6532   19.8248 C   0  0  0  0  0  0  0  0  0  0  0  0
    7.8205    7.1147   20.9020 C   0  0  0  0  0  0  0  0  0  0  0  0
    7.2421    5.9355   20.9435 O   0  0  0  0  0  0  0  0  0  0  0  0
    6.5639    5.8028   22.0559 C   0  0  0  0  0  0  0  0  0  0  0  0
    6.7229    6.9483   22.7441 N   0  0  0  0  0  0  0  0  0  0  0  0
    7.4976    7.7975   22.0668 C   0  0  0  0  0  0  0  0  0  0  0  0
    5.7841    4.6497   22.4847 C   0  0  0  0  0  0  0  0  0  0  0  0
    4.4898    4.8025   22.9361 C   0  0  0  0  0  0  0  0  0  0  0  0
    3.7249    3.7162   23.3528 C   0  0  0  0  0  0  0  0  0  0  0  0
    4.2638    2.4506   23.3184 C   0  0  0  0  0  0  0  0  0  0  0  0
    5.5429    2.2738   22.8756 C   0  0  0  0  0  0  0  0  0  0  0  0
    6.2988    3.3741   22.4602 C   0  0  0  0  0  0  0  0  0  0  0  0
    3.7065    7.6647   18.7311 C   0  0  0  0  0  0  0  0  0  0  0  0
    4.4401    7.0972   17.6513 N   0  0  0  0  0  0  0  0  0  0  0  0
    4.8991    8.0663   16.7218 C   0  0  0  0  0  0  0  0  0  0  0  0
    4.2472    8.0478   15.4057 C   0  0  0  0  0  0  0  0  0  0  0  0
    3.4977    8.9211   14.9368 O   0  0  0  0  0  0  0  0  0  0  0  0
    4.4849    6.9332   14.5777 O   0  0  0  0  0  0  0  0  0  0  0  0
    3.7417    6.2684   14.4165 H   0  0  0  0  0  0  0  0  0  0  0  0
    5.3956    6.1105   18.0585 C   0  0  0  0  0  0  0  0  0  0  0  0
    4.9220    4.7297   18.0742 C   0  0  0  0  0  0  0  0  0  0  0  0
    4.9890    3.8668   19.1436 C   0  0  0  0  0  0  0  0  0  0  0  0
    4.5148    2.5670   19.0551 C   0  0  0  0  0  0  0  0  0  0  0  0
    3.9542    2.0743   17.8975 C   0  0  0  0  0  0  0  0  0  0  0  0
    3.4937    0.7757   17.8463 C   0  0  0  0  0  0  0  0  0  0  0  0
    2.9315    0.2728   16.6901 C   0  0  0  0  0  0  0  0  0  0  0  0
    2.8500    1.1122   15.6005 C   0  0  0  0  0  0  0  0  0  0  0  0
    3.3167    2.4267   15.6547 C   0  0  0  0  0  0  0  0  0  0  0  0
    3.8790    2.9270   16.8147 C   0  0  0  0  0  0  0  0  0  0  0  0
    4.3524    4.2197   16.9078 C   0  0  0  0  0  0  0  0  0  0  0  0
 10 11  1  0  0  0
 11 12  1  0  0  0
 12 13  1  0  0  0
 13 16  1  0  0  0
 16 17  2  0  0  0
 17 18  1  0  0  0
 18 19  2  0  0  0
 19 20  1  0  0  0
 20 21  2  0  0  0
 13 14  2  0  0  0
 14 15  1  0  0  0
 15  9  1  0  0  0
  9  8  1  0  0  0
  8  7  1  0  0  0
  7  1  1  0  0  0
  1  2  2  0  0  0
  2  3  1  0  0  0
  3  4  2  0  0  0
  4  5  1  0  0  0
  5 22  1  0  0  0
 22 23  1  0  0  0
 23 24  1  0  0  0
 24 25  1  0  0  0
 25 26  2  0  0  0
 25 27  1  0  0  0
 23 29  1  0  0  0
 29 30  1  0  0  0
 30 31  2  0  0  0
 31 32  1  0  0  0
 32 33  2  0  0  0
 33 34  1  0  0  0
 34 35  2  0  0  0
 35 36  1  0  0  0
 36 37  2  0  0  0
 37 38  1  0  0  0
 38 39  2  0  0  0
  5  6  2  0  0  0
 15 11  2  0  0  0
  6  1  1  0  0  0
 21 16  1  0  0  0
 39 30  1  0  0  0
 38 33  1  0  0  0
 27 28  1  0  0  0
M  END
> <minimizedAffinity>
-9.72202

> <CNNscore>
0.1510574669

> <CNNaffinity>
6.1373186111

> <CNN_VS>
0.9270877838

> <CNNaffinity_variance>
0.4730281234

$$$$
[H]OC(=O)C([H])([H])N(C([H])([H])c1c([H])c([H])c([H])c(OC([H])([H])C([H])([H])c2nc(-c3c([H])c([H])c([H])c([H])c3[H])oc2C([H])([H])[H])c1[H])C([H])([H])c1c([H])c([H])c2c([H])c([H])c([H])c([H])c2c1[H]


 39 43  0  0  0  0  0  0  0  0999 V2000
    3.3536    1.0324   18.5862 C   0  0  0  0  0  0  0  0  0  0  0  0
    2.7995   -0.0235   19.2530 C   0  0  0  0  0  0  0  0  0  0  0  0
    3.2599   -0.3574   20.5044 C   0  0  0  0  0  0  0  0  0  0  0  0
    4.2711    0.3325   21.1340 C   0  0  0  0  0  0  0  0  0  0  0  0
    4.8503    1.4011   20.4905 C   0  0  0  0  0  0  0  0  0  0  0  0
    4.3835    1.7240   19.2438 C   0  0  0  0  0  0  0  0  0  0  0  0
    2.9618    1.4278   17.3500 O   0  0  0  0  0  0  0  0  0  0  0  0
    2.8605    0.8075   16.1419 C   0  0  0  0  0  0  0  0  0  0  0  0
    2.9699    1.6400   14.9077 C   0  0  0  0  0  0  0  0  0  0  0  0
    1.4634    4.1944   13.8810 C   0  0  0  0  0  0  0  0  0  0  0  0
    2.6256    4.2063   14.7876 C   0  0  0  0  0  0  0  0  0  0  0  0
    3.2158    5.2583   15.3092 O   0  0  0  0  0  0  0  0  0  0  0  0
    4.2164    4.8863   16.0679 C   0  0  0  0  0  0  0  0  0  0  0  0
    4.2571    3.5420   16.0216 N   0  0  0  0  0  0  0  0  0  0  0  0
    3.2863    3.0711   15.2369 C   0  0  0  0  0  0  0  0  0  0  0  0
    5.1203    5.7429   16.8234 C   0  0  0  0  0  0  0  0  0  0  0  0
    5.0138    7.1162   16.7528 C   0  0  0  0  0  0  0  0  0  0  0  0
    5.8668    7.9559   17.4641 C   0  0  0  0  0  0  0  0  0  0  0  0
    6.8472    7.4130   18.2625 C   0  0  0  0  0  0  0  0  0  0  0  0
    6.9725    6.0564   18.3489 C   0  0  0  0  0  0  0  0  0  0  0  0
    6.1085    5.2259   17.6289 C   0  0  0  0  0  0  0  0  0  0  0  0
    5.9323    2.1384   21.1528 C   0  0  0  0  0  0  0  0  0  0  0  0
    5.6024    3.4322   21.6460 N   0  0  0  0  0  0  0  0  0  0  0  0
    4.2854    3.5079   22.1693 C   0  0  0  0  0  0  0  0  0  0  0  0
    4.1781    3.4859   23.6340 C   0  0  0  0  0  0  0  0  0  0  0  0
    3.4448    4.2036   24.3349 O   0  0  0  0  0  0  0  0  0  0  0  0
    4.9821    2.5629   24.3314 O   0  0  0  0  0  0  0  0  0  0  0  0
    5.7624    2.8993   24.8776 H   0  0  0  0  0  0  0  0  0  0  0  0
    6.6338    4.0260   22.4435 C   0  0  0  0  0  0  0  0  0  0  0  0
    6.9425    5.4229   22.1532 C   0  0  0  0  0  0  0  0  0  0  0  0
    8.1999    5.9800   22.1181 C   0  0  0  0  0  0  0  0  0  0  0  0
    8.3877    7.3247   21.8374 C   0  0  0  0  0  0  0  0  0  0  0  0
    7.3302    8.1688   21.5800 C   0  0  0  0  0  0  0  0  0  0  0  0
    7.5554    9.5011   21.3053 C   0  0  0  0  0  0  0  0  0  0  0  0
    6.5017   10.3549   21.0474 C   0  0  0  0  0  0  0  0  0  0  0  0
    5.2291    9.8276   21.0754 C   0  0  0  0  0  0  0  0  0  0  0  0
    5.0035    8.4784   21.3536 C   0  0  0  0  0  0  0  0  0  0  0  0
    6.0616    7.6261   21.6112 C   0  0  0  0  0  0  0  0  0  0  0  0
    5.8799    6.2872   21.8911 C   0  0  0  0  0  0  0  0  0  0  0  0
 10 11  1  0  0  0
 11 12  1  0  0  0
 12 13  1  0  0  0
 13 16  1  0  0  0
 16 17  2  0  0  0
 17 18  1  0  0  0
 18 19  2  0  0  0
 19 20  1  0  0  0
 20 21  2  0  0  0
 13 14  2  0  0  0
 14 15  1  0  0  0
 15  9  1  0  0  0
  9  8  1  0  0  0
  8  7  1  0  0  0
  7  1  1  0  0  0
  1  2  2  0  0  0
  2  3  1  0  0  0
  3  4  2  0  0  0
  4  5  1  0  0  0
  5 22  1  0  0  0
 22 23  1  0  0  0
 23 24  1  0  0  0
 24 25  1  0  0  0
 25 26  2  0  0  0
 25 27  1  0  0  0
 23 29  1  0  0  0
 29 30  1  0  0  0
 30 31  2  0  0  0
 31 32  1  0  0  0
 32 33  2  0  0  0
 33 34  1  0  0  0
 34 35  2  0  0  0
 35 36  1  0  0  0
 36 37  2  0  0  0
 37 38  1  0  0  0
 38 39  2  0  0  0
  5  6  2  0  0  0
 15 11  2  0  0  0
  6  1  1  0  0  0
 21 16  1  0  0  0
 39 30  1  0  0  0
 38 33  1  0  0  0
 27 28  1  0  0  0
M  END
> <minimizedAffinity>
-8.68951

> <CNNscore>
0.1504661739

> <CNNaffinity>
6.1028299332

> <CNN_VS>
0.9182694554

> <CNNaffinity_variance>
1.0640208721

$$$$
[H]OC(=O)C([H])([H])N(C([H])([H])c1c([H])c([H])c([H])c(OC([H])([H])C([H])([H])c2nc(-c3c([H])c([H])c([H])c([H])c3[H])oc2C([H])([H])[H])c1[H])C([H])([H])c1c([H])c([H])c2c([H])c([H])c([H])c([H])c2c1[H]


 39 43  0  0  0  0  0  0  0  0999 V2000
    3.9753    1.8653   17.7588 C   0  0  0  0  0  0  0  0  0  0  0  0
    3.5774    0.6182   17.3677 C   0  0  0  0  0  0  0  0  0  0  0  0
    2.8205    0.4694   16.2299 C   0  0  0  0  0  0  0  0  0  0  0  0
    2.4354    1.5344   15.4475 C   0  0  0  0  0  0  0  0  0  0  0  0
    2.8195    2.8035   15.8129 C   0  0  0  0  0  0  0  0  0  0  0  0
    3.5732    2.9392   16.9487 C   0  0  0  0  0  0  0  0  0  0  0  0
    4.7202    2.1018   18.8667 O   0  0  0  0  0  0  0  0  0  0  0  0
    4.4390    2.2137   20.1944 C   0  0  0  0  0  0  0  0  0  0  0  0
    5.4348    2.8947   21.0736 C   0  0  0  0  0  0  0  0  0  0  0  0
    3.8621    3.8731   23.6069 C   0  0  0  0  0  0  0  0  0  0  0  0
    4.3202    4.7432   22.5086 C   0  0  0  0  0  0  0  0  0  0  0  0
    4.1550    6.0425   22.4025 O   0  0  0  0  0  0  0  0  0  0  0  0
    4.6951    6.4784   21.2919 C   0  0  0  0  0  0  0  0  0  0  0  0
    5.2231    5.4065   20.6727 N   0  0  0  0  0  0  0  0  0  0  0  0
    5.0155    4.3016   21.3911 C   0  0  0  0  0  0  0  0  0  0  0  0
    4.7298    7.8502   20.8035 C   0  0  0  0  0  0  0  0  0  0  0  0
    5.5590    8.7854   21.3866 C   0  0  0  0  0  0  0  0  0  0  0  0
    5.6087   10.1028   20.9389 C   0  0  0  0  0  0  0  0  0  0  0  0
    4.8135   10.4950   19.8867 C   0  0  0  0  0  0  0  0  0  0  0  0
    3.9843    9.5875   19.2929 C   0  0  0  0  0  0  0  0  0  0  0  0
    3.9453    8.2681   19.7534 C   0  0  0  0  0  0  0  0  0  0  0  0
    2.4087    3.9444   14.9870 C   0  0  0  0  0  0  0  0  0  0  0  0
    3.4263    4.8854   14.6624 N   0  0  0  0  0  0  0  0  0  0  0  0
    3.9567    4.7020   13.3589 C   0  0  0  0  0  0  0  0  0  0  0  0
    3.3088    5.4752   12.2913 C   0  0  0  0  0  0  0  0  0  0  0  0
    3.8116    6.4066   11.6402 O   0  0  0  0  0  0  0  0  0  0  0  0
    1.9815    5.1400   11.9591 O   0  0  0  0  0  0  0  0  0  0  0  0
    1.2340    5.7725   12.2068 H   0  0  0  0  0  0  0  0  0  0  0  0
    3.1051    6.2323   15.0297 C   0  0  0  0  0  0  0  0  0  0  0  0
    4.1773    6.9962   15.6605 C   0  0  0  0  0  0  0  0  0  0  0  0
    4.4998    8.3062   15.3911 C   0  0  0  0  0  0  0  0  0  0  0  0
    5.5449    8.9427   16.0430 C   0  0  0  0  0  0  0  0  0  0  0  0
    6.3108    8.2997   16.9901 C   0  0  0  0  0  0  0  0  0  0  0  0
    7.3429    8.9647   17.6176 C   0  0  0  0  0  0  0  0  0  0  0  0
    8.1167    8.3281   18.5672 C   0  0  0  0  0  0  0  0  0  0  0  0
    7.8194    7.0149   18.8595 C   0  0  0  0  0  0  0  0  0  0  0  0
    6.7738    6.3437   18.2231 C   0  0  0  0  0  0  0  0  0  0  0  0
    6.0008    6.9848   17.2726 C   0  0  0  0  0  0  0  0  0  0  0  0
    4.9597    6.3558   16.6211 C   0  0  0  0  0  0  0  0  0  0  0  0
 10 11  1  0  0  0
 11 12  1  0  0  0
 12 13  1  0  0  0
 13 16  1  0  0  0
 16 17  2  0  0  0
 17 18  1  0  0  0
 18 19  2  0  0  0
 19 20  1  0  0  0
 20 21  2  0  0  0
 13 14  2  0  0  0
 14 15  1  0  0  0
 15  9  1  0  0  0
  9  8  1  0  0  0
  8  7  1  0  0  0
  7  1  1  0  0  0
  1  2  2  0  0  0
  2  3  1  0  0  0
  3  4  2  0  0  0
  4  5  1  0  0  0
  5 22  1  0  0  0
 22 23  1  0  0  0
 23 24  1  0  0  0
 24 25  1  0  0  0
 25 26  2  0  0  0
 25 27  1  0  0  0
 23 29  1  0  0  0
 29 30  1  0  0  0
 30 31  2  0  0  0
 31 32  1  0  0  0
 32 33  2  0  0  0
 33 34  1  0  0  0
 34 35  2  0  0  0
 35 36  1  0  0  0
 36 37  2  0  0  0
 37 38  1  0  0  0
 38 39  2  0  0  0
  5  6  2  0  0  0
 15 11  2  0  0  0
  6  1  1  0  0  0
 21 16  1  0  0  0
 39 30  1  0  0  0
 38 33  1  0  0  0
 27 28  1  0  0  0
M  END
> <minimizedAffinity>
-8.36393

> <CNNscore>
0.1407765299

> <CNNaffinity>
6.0609574318

> <CNN_VS>
0.8532405496

> <CNNaffinity_variance>
0.6550840139

$$$$
[H]OC(=O)C([H])([H])N(C([H])([H])c1c([H])c([H])c([H])c(OC([H])([H])C([H])([H])c2nc(-c3c([H])c([H])c([H])c([H])c3[H])oc2C([H])([H])[H])c1[H])C([H])([H])c1c([H])c([H])c2c([H])c([H])c([H])c([H])c2c1[H]


 39 43  0  0  0  0  0  0  0  0999 V2000
    3.5171    5.6255   16.7918 C   0  0  0  0  0  0  0  0  0  0  0  0
    2.9061    4.5417   17.3562 C   0  0  0  0  0  0  0  0  0  0  0  0
    2.5995    3.4501   16.5792 C   0  0  0  0  0  0  0  0  0  0  0  0
    2.8831    3.3911   15.2334 C   0  0  0  0  0  0  0  0  0  0  0  0
    3.4982    4.4652   14.6340 C   0  0  0  0  0  0  0  0  0  0  0  0
    3.7985    5.5474   15.4185 C   0  0  0  0  0  0  0  0  0  0  0  0
    3.8520    6.7424   17.4835 O   0  0  0  0  0  0  0  0  0  0  0  0
    4.9399    7.5614   17.4965 C   0  0  0  0  0  0  0  0  0  0  0  0
    5.9686    7.3544   18.5583 C   0  0  0  0  0  0  0  0  0  0  0  0
    4.9228    8.2835   21.3675 C   0  0  0  0  0  0  0  0  0  0  0  0
    4.9838    6.8837   20.9093 C   0  0  0  0  0  0  0  0  0  0  0  0
    4.6208    5.8122   21.5779 O   0  0  0  0  0  0  0  0  0  0  0  0
    4.8169    4.7387   20.8538 C   0  0  0  0  0  0  0  0  0  0  0  0
    5.3252    5.1531   19.6787 N   0  0  0  0  0  0  0  0  0  0  0  0
    5.4482    6.4815   19.6644 C   0  0  0  0  0  0  0  0  0  0  0  0
    4.5446    3.3574   21.2273 C   0  0  0  0  0  0  0  0  0  0  0  0
    4.0103    3.0531   22.4619 C   0  0  0  0  0  0  0  0  0  0  0  0
    3.7426    1.7409   22.8425 C   0  0  0  0  0  0  0  0  0  0  0  0
    4.0145    0.7104   21.9721 C   0  0  0  0  0  0  0  0  0  0  0  0
    4.5435    0.9862   20.7442 C   0  0  0  0  0  0  0  0  0  0  0  0
    4.8068    2.3089   20.3760 C   0  0  0  0  0  0  0  0  0  0  0  0
    3.7992    4.4122   13.1990 C   0  0  0  0  0  0  0  0  0  0  0  0
    3.0008    5.2369   12.3573 N   0  0  0  0  0  0  0  0  0  0  0  0
    3.7394    5.8343   11.3030 C   0  0  0  0  0  0  0  0  0  0  0  0
    3.5853    7.2879   11.1592 C   0  0  0  0  0  0  0  0  0  0  0  0
    2.7351    7.8793   10.4726 O   0  0  0  0  0  0  0  0  0  0  0  0
    4.4854    8.1104   11.8647 O   0  0  0  0  0  0  0  0  0  0  0  0
    5.1917    8.6226   11.3555 H   0  0  0  0  0  0  0  0  0  0  0  0
    1.7461    4.6481   11.9947 C   0  0  0  0  0  0  0  0  0  0  0  0
    0.5533    5.3315   12.4856 C   0  0  0  0  0  0  0  0  0  0  0  0
    0.5066    6.2148   13.5394 C   0  0  0  0  0  0  0  0  0  0  0  0
   -0.6827    6.8086   13.9333 C   0  0  0  0  0  0  0  0  0  0  0  0
   -1.8737    6.5468   13.2930 C   0  0  0  0  0  0  0  0  0  0  0  0
   -3.0372    7.1558   13.7132 C   0  0  0  0  0  0  0  0  0  0  0  0
   -4.2358    6.8985   13.0783 C   0  0  0  0  0  0  0  0  0  0  0  0
   -4.2228    6.0176   12.0190 C   0  0  0  0  0  0  0  0  0  0  0  0
   -3.0435    5.4024   11.5952 C   0  0  0  0  0  0  0  0  0  0  0  0
   -1.8448    5.6627   12.2334 C   0  0  0  0  0  0  0  0  0  0  0  0
   -0.6587    5.0743   11.8452 C   0  0  0  0  0  0  0  0  0  0  0  0
 10 11  1  0  0  0
 11 12  1  0  0  0
 12 13  1  0  0  0
 13 16  1  0  0  0
 16 17  2  0  0  0
 17 18  1  0  0  0
 18 19  2  0  0  0
 19 20  1  0  0  0
 20 21  2  0  0  0
 13 14  2  0  0  0
 14 15  1  0  0  0
 15  9  1  0  0  0
  9  8  1  0  0  0
  8  7  1  0  0  0
  7  1  1  0  0  0
  1  2  2  0  0  0
  2  3  1  0  0  0
  3  4  2  0  0  0
  4  5  1  0  0  0
  5 22  1  0  0  0
 22 23  1  0  0  0
 23 24  1  0  0  0
 24 25  1  0  0  0
 25 26  2  0  0  0
 25 27  1  0  0  0
 23 29  1  0  0  0
 29 30  1  0  0  0
 30 31  2  0  0  0
 31 32  1  0  0  0
 32 33  2  0  0  0
 33 34  1  0  0  0
 34 35  2  0  0  0
 35 36  1  0  0  0
 36 37  2  0  0  0
 37 38  1  0  0  0
 38 39  2  0  0  0
  5  6  2  0  0  0
 15 11  2  0  0  0
  6  1  1  0  0  0
 21 16  1  0  0  0
 39 30  1  0  0  0
 38 33  1  0  0  0
 27 28  1  0  0  0
M  END
> <minimizedAffinity>
-8.50293

> <CNNscore>
0.1202955022

> <CNNaffinity>
5.8295798302

> <CNN_VS>
0.7012722492

> <CNNaffinity_variance>
0.5158869028

$$$$
[H]c1nc([H])c(N([H])C2([H])C([H])([H])N(C(=O)c3c(C([H])([H])[H])noc3C([H])([H])[H])C2([H])[H])c([H])c1N1C(=O)c2c([H])c([H])c(Cl)c([H])c2C([H])([H])C1([H])[H]


 33 37  0  0  0  0  0  0  0  0999 V2000
    5.2443    6.7484   19.7377 C   0  0  0  0  0  0  0  0  0  0  0  0
    4.9009    8.0799   20.0149 C   0  0  0  0  0  0  0  0  0  0  0  0
    4.1616    8.7794   19.1409 N   0  0  0  0  0  0  0  0  0  0  0  0
    3.7279    8.2323   17.9787 C   0  0  0  0  0  0  0  0  0  0  0  0
    4.0263    6.9275   17.6380 C   0  0  0  0  0  0  0  0  0  0  0  0
    4.7965    6.2075   18.5540 C   0  0  0  0  0  0  0  0  0  0  0  0
    3.5667    6.3428   16.4307 N   0  0  0  0  0  0  0  0  0  0  0  0
    3.9089    7.0046   15.1910 C   0  0  0  0  0  0  0  0  0  0  0  0
    4.1482    6.0584   14.0639 C   0  0  0  0  0  0  0  0  0  0  0  0
    3.3802    4.8020   14.1664 C   0  0  0  0  0  0  0  0  0  0  0  0
    3.3196    4.0288   13.0088 C   0  0  0  0  0  0  0  0  0  0  0  0
    2.6118    2.8223   12.9938 C   0  0  0  0  0  0  0  0  0  0  0  0
    2.5286    1.8370   11.5447 Cl  0  0  0  0  0  0  0  0  0  0  0  0
    1.9518    2.3606   14.1231 C   0  0  0  0  0  0  0  0  0  0  0  0
    2.0349    3.1583   15.2580 C   0  0  0  0  0  0  0  0  0  0  0  0
    2.7336    4.3445   15.2669 C   0  0  0  0  0  0  0  0  0  0  0  0
    2.8070    5.1371   16.4955 C   0  0  0  0  0  0  0  0  0  0  0  0
    2.2236    4.7507   17.5324 O   0  0  0  0  0  0  0  0  0  0  0  0
    6.0165    6.0422   20.6854 N   0  0  0  0  0  0  0  0  0  0  0  0
    7.0497    5.9628   20.5249 H   0  0  0  0  0  0  0  0  0  0  0  0
    5.0639    2.2233   20.6686 C   0  0  0  0  0  0  0  0  0  0  0  0
    6.2219    1.6467   21.0055 O   0  0  0  0  0  0  0  0  0  0  0  0
    4.9355    3.4676   21.2976 N   0  0  0  0  0  0  0  0  0  0  0  0
    5.9029    4.1188   22.2497 C   0  0  0  0  0  0  0  0  0  0  0  0
    5.3708    5.4526   21.8435 C   0  0  0  0  0  0  0  0  0  0  0  0
    4.1411    4.6207   21.4678 C   0  0  0  0  0  0  0  0  0  0  0  0
    5.0424    2.6708   17.6052 C   0  0  0  0  0  0  0  0  0  0  0  0
    4.2415    1.6841   18.3841 C   0  0  0  0  0  0  0  0  0  0  0  0
    3.3753    0.8162   17.8424 N   0  0  0  0  0  0  0  0  0  0  0  0
    2.8575    0.1138   18.7600 O   0  0  0  0  0  0  0  0  0  0  0  0
    3.3504    0.4753   19.9576 C   0  0  0  0  0  0  0  0  0  0  0  0
    2.9260   -0.1759   21.1986 C   0  0  0  0  0  0  0  0  0  0  0  0
    4.2421    1.4783   19.7791 C   0  0  0  0  0  0  0  0  0  0  0  0
 27 28  1  0  0  0
 28 29  2  0  0  0
 29 30  1  0  0  0
 30 31  1  0  0  0
 31 32  1  0  0  0
 31 33  2  0  0  0
 33 21  1  0  0  0
 21 22  2  0  0  0
 21 23  1  0  0  0
 23 24  1  0  0  0
 24 25  1  0  0  0
 25 19  1  0  0  0
 19  1  1  0  0  0
  1  2  2  0  0  0
  2  3  1  0  0  0
  3  4  2  0  0  0
  4  5  1  0  0  0
  5  7  1  0  0  0
  7  8  1  0  0  0
  8  9  1  0  0  0
  9 10  1  0  0  0
 10 11  2  0  0  0
 11 12  1  0  0  0
 12 13  1  0  0  0
 12 14  2  0  0  0
 14 15  1  0  0  0
 15 16  2  0  0  0
 16 17  1  0  0  0
 17 18  2  0  0  0
  5  6  2  0  0  0
 25 26  1  0  0  0
 33 28  1  0  0  0
 26 23  1  0  0  0
  6  1  1  0  0  0
 17  7  1  0  0  0
 16 10  1  0  0  0
 19 20  1  0  0  0
M  END
> <minimizedAffinity>
-8.85692

> <CNNscore>
0.6464387178

> <CNNaffinity>
7.4050431252

> <CNN_VS>
4.7869067192

> <CNNaffinity_variance>
0.1934788972

$$$$
[H]c1nc([H])c(N([H])C2([H])C([H])([H])N(C(=O)c3c(C([H])([H])[H])noc3C([H])([H])[H])C2([H])[H])c([H])c1N1C(=O)c2c([H])c([H])c(Cl)c([H])c2C([H])([H])C1([H])[H]


 33 37  0  0  0  0  0  0  0  0999 V2000
    3.5294    4.0343   13.6322 C   0  0  0  0  0  0  0  0  0  0  0  0
    2.6714    3.0305   13.1590 C   0  0  0  0  0  0  0  0  0  0  0  0
    2.3893    1.9691   13.9295 N   0  0  0  0  0  0  0  0  0  0  0  0
    2.9151    1.8324   15.1716 C   0  0  0  0  0  0  0  0  0  0  0  0
    3.7671    2.7800   15.7044 C   0  0  0  0  0  0  0  0  0  0  0  0
    4.0549    3.8811   14.8949 C   0  0  0  0  0  0  0  0  0  0  0  0
    4.3118    2.6520   17.0073 N   0  0  0  0  0  0  0  0  0  0  0  0
    5.2595    3.6550   17.4407 C   0  0  0  0  0  0  0  0  0  0  0  0
    5.1644    3.9666   18.8957 C   0  0  0  0  0  0  0  0  0  0  0  0
    4.6979    2.8339   19.7192 C   0  0  0  0  0  0  0  0  0  0  0  0
    4.8867    2.9614   21.0938 C   0  0  0  0  0  0  0  0  0  0  0  0
    4.4873    1.9430   21.9657 C   0  0  0  0  0  0  0  0  0  0  0  0
    4.7162    2.0906   23.6988 Cl  0  0  0  0  0  0  0  0  0  0  0  0
    3.8952    0.7812   21.4926 C   0  0  0  0  0  0  0  0  0  0  0  0
    3.7234    0.6901   20.1166 C   0  0  0  0  0  0  0  0  0  0  0  0
    4.1178    1.6961   19.2635 C   0  0  0  0  0  0  0  0  0  0  0  0
    3.8948    1.5586   17.8233 C   0  0  0  0  0  0  0  0  0  0  0  0
    3.3635    0.5242   17.3621 O   0  0  0  0  0  0  0  0  0  0  0  0
    3.7959    5.1400   12.7956 N   0  0  0  0  0  0  0  0  0  0  0  0
    4.5806    5.0625   12.1044 H   0  0  0  0  0  0  0  0  0  0  0  0
    3.0293    7.3019    9.5972 C   0  0  0  0  0  0  0  0  0  0  0  0
    1.9982    6.6441    9.0579 O   0  0  0  0  0  0  0  0  0  0  0  0
    2.9929    7.2088   10.9938 N   0  0  0  0  0  0  0  0  0  0  0  0
    1.9614    6.5117   11.8404 C   0  0  0  0  0  0  0  0  0  0  0  0
    2.9877    6.3397   12.9101 C   0  0  0  0  0  0  0  0  0  0  0  0
    3.6246    7.5435   12.2097 C   0  0  0  0  0  0  0  0  0  0  0  0
    2.2337    9.7822    7.9238 C   0  0  0  0  0  0  0  0  0  0  0  0
    3.5401    9.0644    7.9183 C   0  0  0  0  0  0  0  0  0  0  0  0
    4.5924    9.4138    7.1650 N   0  0  0  0  0  0  0  0  0  0  0  0
    5.5493    8.6144    7.3863 O   0  0  0  0  0  0  0  0  0  0  0  0
    5.1861    7.6936    8.2962 C   0  0  0  0  0  0  0  0  0  0  0  0
    6.1023    6.6423    8.7429 C   0  0  0  0  0  0  0  0  0  0  0  0
    3.9077    7.9316    8.6733 C   0  0  0  0  0  0  0  0  0  0  0  0
 27 28  1  0  0  0
 28 29  2  0  0  0
 29 30  1  0  0  0
 30 31  1  0  0  0
 31 32  1  0  0  0
 31 33  2  0  0  0
 33 21  1  0  0  0
 21 22  2  0  0  0
 21 23  1  0  0  0
 23 24  1  0  0  0
 24 25  1  0  0  0
 25 19  1  0  0  0
 19  1  1  0  0  0
  1  2  2  0  0  0
  2  3  1  0  0  0
  3  4  2  0  0  0
  4  5  1  0  0  0
  5  7  1  0  0  0
  7  8  1  0  0  0
  8  9  1  0  0  0
  9 10  1  0  0  0
 10 11  2  0  0  0
 11 12  1  0  0  0
 12 13  1  0  0  0
 12 14  2  0  0  0
 14 15  1  0  0  0
 15 16  2  0  0  0
 16 17  1  0  0  0
 17 18  2  0  0  0
  5  6  2  0  0  0
 25 26  1  0  0  0
 33 28  1  0  0  0
 26 23  1  0  0  0
  6  1  1  0  0  0
 17  7  1  0  0  0
 16 10  1  0  0  0
 19 20  1  0  0  0
M  END
> <minimizedAffinity>
-8.54740

> <CNNscore>
0.5291279554

> <CNNaffinity>
6.3997907639

> <CNN_VS>
3.3863081932

> <CNNaffinity_variance>
0.5187357068

$$$$
[H]c1nc([H])c(N([H])C2([H])C([H])([H])N(C(=O)c3c(C([H])([H])[H])noc3C([H])([H])[H])C2([H])[H])c([H])c1N1C(=O)c2c([H])c([H])c(Cl)c([H])c2C([H])([H])C1([H])[H]


 33 37  0  0  0  0  0  0  0  0999 V2000
    4.1248    0.9474   19.2098 C   0  0  0  0  0  0  0  0  0  0  0  0
    3.1566   -0.0535   19.3787 C   0  0  0  0  0  0  0  0  0  0  0  0
    2.1912   -0.2166   18.4616 N   0  0  0  0  0  0  0  0  0  0  0  0
    2.1192    0.5676   17.3580 C   0  0  0  0  0  0  0  0  0  0  0  0
    3.0371    1.5728   17.1241 C   0  0  0  0  0  0  0  0  0  0  0  0
    4.0381    1.7350   18.0844 C   0  0  0  0  0  0  0  0  0  0  0  0
    2.9774    2.3897   15.9666 N   0  0  0  0  0  0  0  0  0  0  0  0
    3.3309    1.7869   14.7002 C   0  0  0  0  0  0  0  0  0  0  0  0
    2.5355    2.3132   13.5541 C   0  0  0  0  0  0  0  0  0  0  0  0
    2.0879    3.7088   13.7294 C   0  0  0  0  0  0  0  0  0  0  0  0
    1.6215    4.3477   12.5823 C   0  0  0  0  0  0  0  0  0  0  0  0
    1.1796    5.6738   12.6349 C   0  0  0  0  0  0  0  0  0  0  0  0
    0.5872    6.4905   11.1996 Cl  0  0  0  0  0  0  0  0  0  0  0  0
    1.1920    6.3905   13.8225 C   0  0  0  0  0  0  0  0  0  0  0  0
    1.6637    5.7203   14.9448 C   0  0  0  0  0  0  0  0  0  0  0  0
    2.0968    4.4147   14.8870 C   0  0  0  0  0  0  0  0  0  0  0  0
    2.5649    3.7483   16.1035 C   0  0  0  0  0  0  0  0  0  0  0  0
    2.5898    4.3648   17.1919 O   0  0  0  0  0  0  0  0  0  0  0  0
    5.1297    1.0830   20.1921 N   0  0  0  0  0  0  0  0  0  0  0  0
    6.0908    0.7257   19.9725 H   0  0  0  0  0  0  0  0  0  0  0  0
    5.0960    5.0067   20.4998 C   0  0  0  0  0  0  0  0  0  0  0  0
    3.8807    5.3115   20.0340 O   0  0  0  0  0  0  0  0  0  0  0  0
    5.0718    3.7721   21.1599 N   0  0  0  0  0  0  0  0  0  0  0  0
    3.8852    2.8720   21.3795 C   0  0  0  0  0  0  0  0  0  0  0  0
    4.8130    1.7062   21.4637 C   0  0  0  0  0  0  0  0  0  0  0  0
    5.8193    2.7944   21.8490 C   0  0  0  0  0  0  0  0  0  0  0  0
    6.2492    5.5198   17.6728 C   0  0  0  0  0  0  0  0  0  0  0  0
    6.6300    6.1966   18.9451 C   0  0  0  0  0  0  0  0  0  0  0  0
    7.5536    7.1634   19.0411 N   0  0  0  0  0  0  0  0  0  0  0  0
    7.6463    7.5353   20.2480 O   0  0  0  0  0  0  0  0  0  0  0  0
    6.7916    6.8384   21.0171 C   0  0  0  0  0  0  0  0  0  0  0  0
    6.6863    7.0650   22.4600 C   0  0  0  0  0  0  0  0  0  0  0  0
    6.1132    5.9646   20.2365 C   0  0  0  0  0  0  0  0  0  0  0  0
 27 28  1  0  0  0
 28 29  2  0  0  0
 29 30  1  0  0  0
 30 31  1  0  0  0
 31 32  1  0  0  0
 31 33  2  0  0  0
 33 21  1  0  0  0
 21 22  2  0  0  0
 21 23  1  0  0  0
 23 24  1  0  0  0
 24 25  1  0  0  0
 25 19  1  0  0  0
 19  1  1  0  0  0
  1  2  2  0  0  0
  2  3  1  0  0  0
  3  4  2  0  0  0
  4  5  1  0  0  0
  5  7  1  0  0  0
  7  8  1  0  0  0
  8  9  1  0  0  0
  9 10  1  0  0  0
 10 11  2  0  0  0
 11 12  1  0  0  0
 12 13  1  0  0  0
 12 14  2  0  0  0
 14 15  1  0  0  0
 15 16  2  0  0  0
 16 17  1  0  0  0
 17 18  2  0  0  0
  5  6  2  0  0  0
 25 26  1  0  0  0
 33 28  1  0  0  0
 26 23  1  0  0  0
  6  1  1  0  0  0
 17  7  1  0  0  0
 16 10  1  0  0  0
 19 20  1  0  0  0
M  END
> <minimizedAffinity>
-8.56322

> <CNNscore>
0.4735035300

> <CNNaffinity>
6.8982267380

> <CNN_VS>
3.2663347721

> <CNNaffinity_variance>
0.2285150737

$$$$
[H]c1nc([H])c(N([H])C2([H])C([H])([H])N(C(=O)c3c(C([H])([H])[H])noc3C([H])([H])[H])C2([H])[H])c([H])c1N1C(=O)c2c([H])c([H])c(Cl)c([H])c2C([H])([H])C1([H])[H]


 33 37  0  0  0  0  0  0  0  0999 V2000
    3.7784    4.2942   13.5657 C   0  0  0  0  0  0  0  0  0  0  0  0
    2.9303    3.4476   12.8364 C   0  0  0  0  0  0  0  0  0  0  0  0
    2.5026    2.2967   13.3768 N   0  0  0  0  0  0  0  0  0  0  0  0
    2.8692    1.9183   14.6260 C   0  0  0  0  0  0  0  0  0  0  0  0
    3.7013    2.7001   15.4033 C   0  0  0  0  0  0  0  0  0  0  0  0
    4.1414    3.8962   14.8322 C   0  0  0  0  0  0  0  0  0  0  0  0
    4.0800    2.3188   16.7156 N   0  0  0  0  0  0  0  0  0  0  0  0
    5.0884    3.1136   17.3814 C   0  0  0  0  0  0  0  0  0  0  0  0
    4.8722    3.2291   18.8521 C   0  0  0  0  0  0  0  0  0  0  0  0
    4.1847    2.0663   19.4471 C   0  0  0  0  0  0  0  0  0  0  0  0
    4.2352    1.9740   20.8365 C   0  0  0  0  0  0  0  0  0  0  0  0
    3.6224    0.9075   21.5027 C   0  0  0  0  0  0  0  0  0  0  0  0
    3.6754    0.7793   23.2516 Cl  0  0  0  0  0  0  0  0  0  0  0  0
    2.9499   -0.0858   20.8060 C   0  0  0  0  0  0  0  0  0  0  0  0
    2.9207    0.0402   19.4224 C   0  0  0  0  0  0  0  0  0  0  0  0
    3.5251    1.0926   18.7723 C   0  0  0  0  0  0  0  0  0  0  0  0
    3.4469    1.1890   17.3137 C   0  0  0  0  0  0  0  0  0  0  0  0
    2.8485    0.3107   16.6537 O   0  0  0  0  0  0  0  0  0  0  0  0
    4.2008    5.5008   12.9666 N   0  0  0  0  0  0  0  0  0  0  0  0
    5.1720    5.5473   12.5739 H   0  0  0  0  0  0  0  0  0  0  0  0
    4.6952    8.5428   15.4147 C   0  0  0  0  0  0  0  0  0  0  0  0
    5.6388    9.2528   14.7884 O   0  0  0  0  0  0  0  0  0  0  0  0
    3.8687    7.8997   14.4852 N   0  0  0  0  0  0  0  0  0  0  0  0
    3.9486    7.9697   12.9835 C   0  0  0  0  0  0  0  0  0  0  0  0
    3.2929    6.6312   12.9082 C   0  0  0  0  0  0  0  0  0  0  0  0
    2.7715    7.0351   14.2904 C   0  0  0  0  0  0  0  0  0  0  0  0
    3.2075   10.6917   17.0742 C   0  0  0  0  0  0  0  0  0  0  0  0
    4.0462    9.5702   17.5847 C   0  0  0  0  0  0  0  0  0  0  0  0
    4.2724    9.3244   18.8830 N   0  0  0  0  0  0  0  0  0  0  0  0
    5.0171    8.3062   18.9926 O   0  0  0  0  0  0  0  0  0  0  0  0
    5.3249    7.8211   17.7769 C   0  0  0  0  0  0  0  0  0  0  0  0
    6.1747    6.6409   17.6060 C   0  0  0  0  0  0  0  0  0  0  0  0
    4.7307    8.5913   16.8352 C   0  0  0  0  0  0  0  0  0  0  0  0
 27 28  1  0  0  0
 28 29  2  0  0  0
 29 30  1  0  0  0
 30 31  1  0  0  0
 31 32  1  0  0  0
 31 33  2  0  0  0
 33 21  1  0  0  0
 21 22  2  0  0  0
 21 23  1  0  0  0
 23 24  1  0  0  0
 24 25  1  0  0  0
 25 19  1  0  0  0
 19  1  1  0  0  0
  1  2  2  0  0  0
  2  3  1  0  0  0
  3  4  2  0  0  0
  4  5  1  0  0  0
  5  7  1  0  0  0
  7  8  1  0  0  0
  8  9  1  0  0  0
  9 10  1  0  0  0
 10 11  2  0  0  0
 11 12  1  0  0  0
 12 13  1  0  0  0
 12 14  2  0  0  0
 14 15  1  0  0  0
 15 16  2  0  0  0
 16 17  1  0  0  0
 17 18  2  0  0  0
  5  6  2  0  0  0
 25 26  1  0  0  0
 33 28  1  0  0  0
 26 23  1  0  0  0
  6  1  1  0  0  0
 17  7  1  0  0  0
 16 10  1  0  0  0
 19 20  1  0  0  0
M  END
> <minimizedAffinity>
-9.12240

> <CNNscore>
0.4704845548

> <CNNaffinity>
6.7487592697

> <CNN_VS>
3.1751871109

> <CNNaffinity_variance>
0.3243275285

$$$$
[H]c1nc([H])c(N([H])C2([H])C([H])([H])N(C(=O)c3c(C([H])([H])[H])noc3C([H])([H])[H])C2([H])[H])c([H])c1N1C(=O)c2c([H])c([H])c(Cl)c([H])c2C([H])([H])C1([H])[H]


 33 37  0  0  0  0  0  0  0  0999 V2000
    4.6010    6.2903   21.4309 C   0  0  0  0  0  0  0  0  0  0  0  0
    5.7411    6.9102   21.9633 C   0  0  0  0  0  0  0  0  0  0  0  0
    6.5879    7.5670   21.1563 N   0  0  0  0  0  0  0  0  0  0  0  0
    6.3743    7.6529   19.8203 C   0  0  0  0  0  0  0  0  0  0  0  0
    5.2738    7.0681   19.2249 C   0  0  0  0  0  0  0  0  0  0  0  0
    4.3982    6.3865   20.0730 C   0  0  0  0  0  0  0  0  0  0  0  0
    5.0354    7.1634   17.8303 N   0  0  0  0  0  0  0  0  0  0  0  0
    5.1736    5.9589   17.0415 C   0  0  0  0  0  0  0  0  0  0  0  0
    4.2084    5.8826   15.9077 C   0  0  0  0  0  0  0  0  0  0  0  0
    3.8084    7.1998   15.3748 C   0  0  0  0  0  0  0  0  0  0  0  0
    3.1687    7.1876   14.1371 C   0  0  0  0  0  0  0  0  0  0  0  0
    2.7539    8.3814   13.5374 C   0  0  0  0  0  0  0  0  0  0  0  0
    1.9450    8.3817   11.9807 Cl  0  0  0  0  0  0  0  0  0  0  0  0
    2.9652    9.6071   14.1516 C   0  0  0  0  0  0  0  0  0  0  0  0
    3.6058    9.5793   15.3845 C   0  0  0  0  0  0  0  0  0  0  0  0
    4.0112    8.4011   15.9700 C   0  0  0  0  0  0  0  0  0  0  0  0
    4.6636    8.4260   17.2803 C   0  0  0  0  0  0  0  0  0  0  0  0
    4.8701    9.5137   17.8627 O   0  0  0  0  0  0  0  0  0  0  0  0
    3.7291    5.6155   22.3128 N   0  0  0  0  0  0  0  0  0  0  0  0
    2.7267    5.9210   22.3511 H   0  0  0  0  0  0  0  0  0  0  0  0
    4.6896    2.1817   20.6461 C   0  0  0  0  0  0  0  0  0  0  0  0
    5.9225    2.4285   20.1922 O   0  0  0  0  0  0  0  0  0  0  0  0
    4.4520    2.8925   21.8288 N   0  0  0  0  0  0  0  0  0  0  0  0
    5.4039    3.8008   22.5605 C   0  0  0  0  0  0  0  0  0  0  0  0
    4.2340    4.5298   23.1325 C   0  0  0  0  0  0  0  0  0  0  0  0
    3.5258    3.2023   22.8465 C   0  0  0  0  0  0  0  0  0  0  0  0
    4.3056    2.4993   17.5905 C   0  0  0  0  0  0  0  0  0  0  0  0
    3.7479    1.4325   18.4695 C   0  0  0  0  0  0  0  0  0  0  0  0
    2.9811    0.4209   18.0386 N   0  0  0  0  0  0  0  0  0  0  0  0
    2.6702   -0.3161   19.0202 O   0  0  0  0  0  0  0  0  0  0  0  0
    3.2122    0.1639   20.1532 C   0  0  0  0  0  0  0  0  0  0  0  0
    3.0159   -0.4954   21.4459 C   0  0  0  0  0  0  0  0  0  0  0  0
    3.9140    1.2844   19.8619 C   0  0  0  0  0  0  0  0  0  0  0  0
 27 28  1  0  0  0
 28 29  2  0  0  0
 29 30  1  0  0  0
 30 31  1  0  0  0
 31 32  1  0  0  0
 31 33  2  0  0  0
 33 21  1  0  0  0
 21 22  2  0  0  0
 21 23  1  0  0  0
 23 24  1  0  0  0
 24 25  1  0  0  0
 25 19  1  0  0  0
 19  1  1  0  0  0
  1  2  2  0  0  0
  2  3  1  0  0  0
  3  4  2  0  0  0
  4  5  1  0  0  0
  5  7  1  0  0  0
  7  8  1  0  0  0
  8  9  1  0  0  0
  9 10  1  0  0  0
 10 11  2  0  0  0
 11 12  1  0  0  0
 12 13  1  0  0  0
 12 14  2  0  0  0
 14 15  1  0  0  0
 15 16  2  0  0  0
 16 17  1  0  0  0
 17 18  2  0  0  0
  5  6  2  0  0  0
 25 26  1  0  0  0
 33 28  1  0  0  0
 26 23  1  0  0  0
  6  1  1  0  0  0
 17  7  1  0  0  0
 16 10  1  0  0  0
 19 20  1  0  0  0
M  END
> <minimizedAffinity>
-9.11925

> <CNNscore>
0.4126547873

> <CNNaffinity>
6.8479318619

> <CNN_VS>
2.8258318901

> <CNNaffinity_variance>
0.2756816745

$$$$
[H]c1nc([H])c(N([H])C2([H])C([H])([H])N(C(=O)c3c(C([H])([H])[H])noc3C([H])([H])[H])C2([H])[H])c([H])c1N1C(=O)c2c([H])c([H])c(Cl)c([H])c2C([H])([H])C1([H])[H]


 33 37  0  0  0  0  0  0  0  0999 V2000
    5.3958    6.7251   19.9604 C   0  0  0  0  0  0  0  0  0  0  0  0
    5.0096    7.9829   20.4465 C   0  0  0  0  0  0  0  0  0  0  0  0
    4.2594    8.7957   19.6874 N   0  0  0  0  0  0  0  0  0  0  0  0
    3.8552    8.4351   18.4445 C   0  0  0  0  0  0  0  0  0  0  0  0
    4.1963    7.2127   17.8994 C   0  0  0  0  0  0  0  0  0  0  0  0
    4.9775    6.3737   18.6971 C   0  0  0  0  0  0  0  0  0  0  0  0
    3.7677    6.8218   16.6055 N   0  0  0  0  0  0  0  0  0  0  0  0
    3.1788    5.5086   16.4613 C   0  0  0  0  0  0  0  0  0  0  0  0
    2.0915    5.4587   15.4423 C   0  0  0  0  0  0  0  0  0  0  0  0
    2.2537    6.4362   14.3483 C   0  0  0  0  0  0  0  0  0  0  0  0
    1.4580    6.2293   13.2233 C   0  0  0  0  0  0  0  0  0  0  0  0
    1.5373    7.0927   12.1256 C   0  0  0  0  0  0  0  0  0  0  0  0
    0.5400    6.8464   10.7034 Cl  0  0  0  0  0  0  0  0  0  0  0  0
    2.4052    8.1748   12.1218 C   0  0  0  0  0  0  0  0  0  0  0  0
    3.1822    8.3489   13.2607 C   0  0  0  0  0  0  0  0  0  0  0  0
    3.0992    7.4962   14.3384 C   0  0  0  0  0  0  0  0  0  0  0  0
    3.9256    7.7368   15.5225 C   0  0  0  0  0  0  0  0  0  0  0  0
    4.7194    8.7032   15.5532 O   0  0  0  0  0  0  0  0  0  0  0  0
    6.1783    5.8945   20.7917 N   0  0  0  0  0  0  0  0  0  0  0  0
    7.1860    5.7481   20.5410 H   0  0  0  0  0  0  0  0  0  0  0  0
    5.1760    2.0898   20.6900 C   0  0  0  0  0  0  0  0  0  0  0  0
    6.3402    1.4886   20.9542 O   0  0  0  0  0  0  0  0  0  0  0  0
    5.0924    3.3133   21.3656 N   0  0  0  0  0  0  0  0  0  0  0  0
    6.1103    3.9203   22.2941 C   0  0  0  0  0  0  0  0  0  0  0  0
    5.5779    5.2733   21.9575 C   0  0  0  0  0  0  0  0  0  0  0  0
    4.3217    4.4690   21.6105 C   0  0  0  0  0  0  0  0  0  0  0  0
    3.2733   -0.1597   21.6413 C   0  0  0  0  0  0  0  0  0  0  0  0
    3.4373    0.3651   20.2559 C   0  0  0  0  0  0  0  0  0  0  0  0
    2.7503   -0.0768   19.1930 N   0  0  0  0  0  0  0  0  0  0  0  0
    3.1118    0.5667   18.1641 O   0  0  0  0  0  0  0  0  0  0  0  0
    4.0553    1.4688   18.4864 C   0  0  0  0  0  0  0  0  0  0  0  0
    4.6537    2.3552   17.4862 C   0  0  0  0  0  0  0  0  0  0  0  0
    4.3051    1.3851   19.8144 C   0  0  0  0  0  0  0  0  0  0  0  0
 27 28  1  0  0  0
 28 29  2  0  0  0
 29 30  1  0  0  0
 30 31  1  0  0  0
 31 32  1  0  0  0
 31 33  2  0  0  0
 33 21  1  0  0  0
 21 22  2  0  0  0
 21 23  1  0  0  0
 23 24  1  0  0  0
 24 25  1  0  0  0
 25 19  1  0  0  0
 19  1  1  0  0  0
  1  2  2  0  0  0
  2  3  1  0  0  0
  3  4  2  0  0  0
  4  5  1  0  0  0
  5  7  1  0  0  0
  7  8  1  0  0  0
  8  9  1  0  0  0
  9 10  1  0  0  0
 10 11  2  0  0  0
 11 12  1  0  0  0
 12 13  1  0  0  0
 12 14  2  0  0  0
 14 15  1  0  0  0
 15 16  2  0  0  0
 16 17  1  0  0  0
 17 18  2  0  0  0
  5  6  2  0  0  0
 25 26  1  0  0  0
 33 28  1  0  0  0
 26 23  1  0  0  0
  6  1  1  0  0  0
 17  7  1  0  0  0
 16 10  1  0  0  0
 19 20  1  0  0  0
M  END
> <minimizedAffinity>
-8.94988

> <CNNscore>
0.3985664546

> <CNNaffinity>
6.7374176979

> <CNN_VS>
2.6853086948

> <CNNaffinity_variance>
0.3251308501

$$$$
[H]c1nc([H])c(N([H])C2([H])C([H])([H])N(C(=O)c3c(C([H])([H])[H])noc3C([H])([H])[H])C2([H])[H])c([H])c1N1C(=O)c2c([H])c([H])c(Cl)c([H])c2C([H])([H])C1([H])[H]


 33 37  0  0  0  0  0  0  0  0999 V2000
    5.8834    6.4286   21.2653 C   0  0  0  0  0  0  0  0  0  0  0  0
    5.7883    7.5429   22.1121 C   0  0  0  0  0  0  0  0  0  0  0  0
    5.2947    8.7004   21.6471 N   0  0  0  0  0  0  0  0  0  0  0  0
    4.8776    8.8309   20.3638 C   0  0  0  0  0  0  0  0  0  0  0  0
    4.9406    7.7778   19.4723 C   0  0  0  0  0  0  0  0  0  0  0  0
    5.4560    6.5771   19.9655 C   0  0  0  0  0  0  0  0  0  0  0  0
    4.4951    7.9012   18.1318 N   0  0  0  0  0  0  0  0  0  0  0  0
    4.8443    9.1088   17.4164 C   0  0  0  0  0  0  0  0  0  0  0  0
    5.0992    8.8816   15.9651 C   0  0  0  0  0  0  0  0  0  0  0  0
    4.3379    7.7527   15.3951 C   0  0  0  0  0  0  0  0  0  0  0  0
    4.2921    7.6893   14.0039 C   0  0  0  0  0  0  0  0  0  0  0  0
    3.5917    6.6639   13.3599 C   0  0  0  0  0  0  0  0  0  0  0  0
    3.5273    6.5695   11.6092 Cl  0  0  0  0  0  0  0  0  0  0  0  0
    2.9247    5.6844   14.0808 C   0  0  0  0  0  0  0  0  0  0  0  0
    2.9929    5.7806   15.4655 C   0  0  0  0  0  0  0  0  0  0  0  0
    3.6844    6.7918   16.0937 C   0  0  0  0  0  0  0  0  0  0  0  0
    3.7422    6.8352   17.5559 C   0  0  0  0  0  0  0  0  0  0  0  0
    3.1520    5.9679   18.2375 O   0  0  0  0  0  0  0  0  0  0  0  0
    6.4005    5.2256   21.7931 N   0  0  0  0  0  0  0  0  0  0  0  0
    7.3658    4.9319   21.5077 H   0  0  0  0  0  0  0  0  0  0  0  0
    5.0665    1.6936   20.6809 C   0  0  0  0  0  0  0  0  0  0  0  0
    6.1237    0.9104   20.9169 O   0  0  0  0  0  0  0  0  0  0  0  0
    5.0098    2.7344   21.6157 N   0  0  0  0  0  0  0  0  0  0  0  0
    5.9483    2.9873   22.7654 C   0  0  0  0  0  0  0  0  0  0  0  0
    5.5951    4.4361   22.7062 C   0  0  0  0  0  0  0  0  0  0  0  0
    4.3258    3.8907   22.0453 C   0  0  0  0  0  0  0  0  0  0  0  0
    2.9176   -0.5299   20.8342 C   0  0  0  0  0  0  0  0  0  0  0  0
    3.2763    0.3060   19.6534 C   0  0  0  0  0  0  0  0  0  0  0  0
    2.6884    0.2111   18.4524 N   0  0  0  0  0  0  0  0  0  0  0  0
    3.2096    1.0536   17.6637 O   0  0  0  0  0  0  0  0  0  0  0  0
    4.1687    1.7523   18.2959 C   0  0  0  0  0  0  0  0  0  0  0  0
    4.9379    2.7991   17.6199 C   0  0  0  0  0  0  0  0  0  0  0  0
    4.2568    1.3163   19.5746 C   0  0  0  0  0  0  0  0  0  0  0  0
 27 28  1  0  0  0
 28 29  2  0  0  0
 29 30  1  0  0  0
 30 31  1  0  0  0
 31 32  1  0  0  0
 31 33  2  0  0  0
 33 21  1  0  0  0
 21 22  2  0  0  0
 21 23  1  0  0  0
 23 24  1  0  0  0
 24 25  1  0  0  0
 25 19  1  0  0  0
 19  1  1  0  0  0
  1  2  2  0  0  0
  2  3  1  0  0  0
  3  4  2  0  0  0
  4  5  1  0  0  0
  5  7  1  0  0  0
  7  8  1  0  0  0
  8  9  1  0  0  0
  9 10  1  0  0  0
 10 11  2  0  0  0
 11 12  1  0  0  0
 12 13  1  0  0  0
 12 14  2  0  0  0
 14 15  1  0  0  0
 15 16  2  0  0  0
 16 17  1  0  0  0
 17 18  2  0  0  0
  5  6  2  0  0  0
 25 26  1  0  0  0
 33 28  1  0  0  0
 26 23  1  0  0  0
  6  1  1  0  0  0
 17  7  1  0  0  0
 16 10  1  0  0  0
 19 20  1  0  0  0
M  END
> <minimizedAffinity>
-8.52116

> <CNNscore>
0.3883636594

> <CNNaffinity>
6.7998151779

> <CNN_VS>
2.6408011913

> <CNNaffinity_variance>
0.2915595174

$$$$
[H]c1nc([H])c(N([H])C2([H])C([H])([H])N(C(=O)c3c(C([H])([H])[H])noc3C([H])([H])[H])C2([H])[H])c([H])c1N1C(=O)c2c([H])c([H])c(Cl)c([H])c2C([H])([H])C1([H])[H]


 33 37  0  0  0  0  0  0  0  0999 V2000
    5.4156    1.8593   20.6879 C   0  0  0  0  0  0  0  0  0  0  0  0
    4.7423    0.7013   21.1045 C   0  0  0  0  0  0  0  0  0  0  0  0
    3.7260    0.2157   20.3757 N   0  0  0  0  0  0  0  0  0  0  0  0
    3.3213    0.8176   19.2303 C   0  0  0  0  0  0  0  0  0  0  0  0
    3.9362    1.9606   18.7578 C   0  0  0  0  0  0  0  0  0  0  0  0
    4.9929    2.4586   19.5233 C   0  0  0  0  0  0  0  0  0  0  0  0
    3.5282    2.5899   17.5544 N   0  0  0  0  0  0  0  0  0  0  0  0
    3.5673    4.0349   17.5054 C   0  0  0  0  0  0  0  0  0  0  0  0
    3.9321    4.5697   16.1623 C   0  0  0  0  0  0  0  0  0  0  0  0
    3.5269    3.6975   15.0425 C   0  0  0  0  0  0  0  0  0  0  0  0
    3.5558    4.2784   13.7764 C   0  0  0  0  0  0  0  0  0  0  0  0
    3.1843    3.5427   12.6461 C   0  0  0  0  0  0  0  0  0  0  0  0
    3.2180    4.2598   11.0453 Cl  0  0  0  0  0  0  0  0  0  0  0  0
    2.7775    2.2206   12.7491 C   0  0  0  0  0  0  0  0  0  0  0  0
    2.7617    1.6758   14.0275 C   0  0  0  0  0  0  0  0  0  0  0  0
    3.1291    2.4046   15.1361 C   0  0  0  0  0  0  0  0  0  0  0  0
    3.1143    1.7762   16.4583 C   0  0  0  0  0  0  0  0  0  0  0  0
    2.7528    0.5856   16.5879 O   0  0  0  0  0  0  0  0  0  0  0  0
    6.4853    2.3353   21.4768 N   0  0  0  0  0  0  0  0  0  0  0  0
    7.4572    2.0236   21.2364 H   0  0  0  0  0  0  0  0  0  0  0  0
    5.1289    5.9637   20.7797 C   0  0  0  0  0  0  0  0  0  0  0  0
    3.8193    5.7456   20.6243 O   0  0  0  0  0  0  0  0  0  0  0  0
    5.6681    5.0648   21.7080 N   0  0  0  0  0  0  0  0  0  0  0  0
    4.9404    3.9977   22.4814 C   0  0  0  0  0  0  0  0  0  0  0  0
    6.2177    3.2328   22.5852 C   0  0  0  0  0  0  0  0  0  0  0  0
    6.8291    4.6211   22.3748 C   0  0  0  0  0  0  0  0  0  0  0  0
    4.9600    8.9412   21.6110 C   0  0  0  0  0  0  0  0  0  0  0  0
    5.5965    8.3748   20.3879 C   0  0  0  0  0  0  0  0  0  0  0  0
    6.2142    9.1053   19.4488 N   0  0  0  0  0  0  0  0  0  0  0  0
    6.6514    8.3374   18.5418 O   0  0  0  0  0  0  0  0  0  0  0  0
    6.3495    7.0589   18.8283 C   0  0  0  0  0  0  0  0  0  0  0  0
    6.7376    5.9551   17.9478 C   0  0  0  0  0  0  0  0  0  0  0  0
    5.6726    7.0212   20.0002 C   0  0  0  0  0  0  0  0  0  0  0  0
 27 28  1  0  0  0
 28 29  2  0  0  0
 29 30  1  0  0  0
 30 31  1  0  0  0
 31 32  1  0  0  0
 31 33  2  0  0  0
 33 21  1  0  0  0
 21 22  2  0  0  0
 21 23  1  0  0  0
 23 24  1  0  0  0
 24 25  1  0  0  0
 25 19  1  0  0  0
 19  1  1  0  0  0
  1  2  2  0  0  0
  2  3  1  0  0  0
  3  4  2  0  0  0
  4  5  1  0  0  0
  5  7  1  0  0  0
  7  8  1  0  0  0
  8  9  1  0  0  0
  9 10  1  0  0  0
 10 11  2  0  0  0
 11 12  1  0  0  0
 12 13  1  0  0  0
 12 14  2  0  0  0
 14 15  1  0  0  0
 15 16  2  0  0  0
 16 17  1  0  0  0
 17 18  2  0  0  0
  5  6  2  0  0  0
 25 26  1  0  0  0
 33 28  1  0  0  0
 26 23  1  0  0  0
  6  1  1  0  0  0
 17  7  1  0  0  0
 16 10  1  0  0  0
 19 20  1  0  0  0
M  END
> <minimizedAffinity>
-9.17405

> <CNNscore>
0.3579998910

> <CNNaffinity>
6.8495101929

> <CNN_VS>
2.4521238804

> <CNNaffinity_variance>
0.3990699947

$$$$
[H]c1nc([H])c(N([H])C2([H])C([H])([H])N(C(=O)c3c(C([H])([H])[H])noc3C([H])([H])[H])C2([H])[H])c([H])c1N1C(=O)c2c([H])c([H])c(Cl)c([H])c2C([H])([H])C1([H])[H]


 33 37  0  0  0  0  0  0  0  0999 V2000
    5.0719    2.7502   21.5133 C   0  0  0  0  0  0  0  0  0  0  0  0
    4.4851    1.7860   22.3462 C   0  0  0  0  0  0  0  0  0  0  0  0
    3.7639    0.7876   21.8144 N   0  0  0  0  0  0  0  0  0  0  0  0
    3.5806    0.6778   20.4756 C   0  0  0  0  0  0  0  0  0  0  0  0
    4.1278    1.5891   19.5937 C   0  0  0  0  0  0  0  0  0  0  0  0
    4.8766    2.6249   20.1567 C   0  0  0  0  0  0  0  0  0  0  0  0
    3.9520    1.4754   18.1913 N   0  0  0  0  0  0  0  0  0  0  0  0
    3.3355    0.2680   17.6873 C   0  0  0  0  0  0  0  0  0  0  0  0
    2.4780    0.4992   16.4897 C   0  0  0  0  0  0  0  0  0  0  0  0
    2.9121    1.6371   15.6558 C   0  0  0  0  0  0  0  0  0  0  0  0
    2.3528    1.7070   14.3815 C   0  0  0  0  0  0  0  0  0  0  0  0
    2.7006    2.7413   13.5062 C   0  0  0  0  0  0  0  0  0  0  0  0
    2.0028    2.8437   11.8998 Cl  0  0  0  0  0  0  0  0  0  0  0  0
    3.6076    3.7233   13.8763 C   0  0  0  0  0  0  0  0  0  0  0  0
    4.1441    3.6205   15.1541 C   0  0  0  0  0  0  0  0  0  0  0  0
    3.7974    2.6006   16.0114 C   0  0  0  0  0  0  0  0  0  0  0  0
    4.3764    2.5504   17.3550 C   0  0  0  0  0  0  0  0  0  0  0  0
    5.1978    3.4197   17.7219 O   0  0  0  0  0  0  0  0  0  0  0  0
    5.8305    3.7811   22.1092 N   0  0  0  0  0  0  0  0  0  0  0  0
    6.8753    3.6925   22.1100 H   0  0  0  0  0  0  0  0  0  0  0  0
    4.3688    6.6037   19.7881 C   0  0  0  0  0  0  0  0  0  0  0  0
    3.1938    6.0818   19.4222 O   0  0  0  0  0  0  0  0  0  0  0  0
    4.7007    6.1998   21.0870 N   0  0  0  0  0  0  0  0  0  0  0  0
    3.8928    5.3288   22.0117 C   0  0  0  0  0  0  0  0  0  0  0  0
    5.1551    4.9232   22.6967 C   0  0  0  0  0  0  0  0  0  0  0  0
    5.6527    6.2545   22.1263 C   0  0  0  0  0  0  0  0  0  0  0  0
    3.3850    9.4509   19.0733 C   0  0  0  0  0  0  0  0  0  0  0  0
    4.5541    8.7242   18.5015 C   0  0  0  0  0  0  0  0  0  0  0  0
    5.3761    9.2273   17.5697 N   0  0  0  0  0  0  0  0  0  0  0  0
    6.2689    8.3728   17.2939 O   0  0  0  0  0  0  0  0  0  0  0  0
    6.0898    7.2591   18.0256 C   0  0  0  0  0  0  0  0  0  0  0  0
    6.9828    6.1043   17.9105 C   0  0  0  0  0  0  0  0  0  0  0  0
    5.0048    7.4261   18.8181 C   0  0  0  0  0  0  0  0  0  0  0  0
 27 28  1  0  0  0
 28 29  2  0  0  0
 29 30  1  0  0  0
 30 31  1  0  0  0
 31 32  1  0  0  0
 31 33  2  0  0  0
 33 21  1  0  0  0
 21 22  2  0  0  0
 21 23  1  0  0  0
 23 24  1  0  0  0
 24 25  1  0  0  0
 25 19  1  0  0  0
 19  1  1  0  0  0
  1  2  2  0  0  0
  2  3  1  0  0  0
  3  4  2  0  0  0
  4  5  1  0  0  0
  5  7  1  0  0  0
  7  8  1  0  0  0
  8  9  1  0  0  0
  9 10  1  0  0  0
 10 11  2  0  0  0
 11 12  1  0  0  0
 12 13  1  0  0  0
 12 14  2  0  0  0
 14 15  1  0  0  0
 15 16  2  0  0  0
 16 17  1  0  0  0
 17 18  2  0  0  0
  5  6  2  0  0  0
 25 26  1  0  0  0
 33 28  1  0  0  0
 26 23  1  0  0  0
  6  1  1  0  0  0
 17  7  1  0  0  0
 16 10  1  0  0  0
 19 20  1  0  0  0
M  END
> <minimizedAffinity>
-10.26326

> <CNNscore>
0.3564233780

> <CNNaffinity>
6.7621102333

> <CNN_VS>
2.4101741314

> <CNNaffinity_variance>
0.3093088269

$$$$
[H]c1c([H])c([H])c2c(nc(SC([H])([H])C(=O)N3C(=O)C([H])([H])C([H])([H])C3([H])[H])n2C([H])([H])[H])c1[H]


 20 22  0  0  0  0  0  0  0  0999 V2000
    5.1056    3.2299   18.1672 C   0  0  0  0  0  0  0  0  0  0  0  0
    4.4582    2.2668   19.0621 N   0  0  0  0  0  0  0  0  0  0  0  0
    3.7009    1.2135   18.7889 C   0  0  0  0  0  0  0  0  0  0  0  0
    3.3872    0.6172   19.9762 N   0  0  0  0  0  0  0  0  0  0  0  0
    3.9434    1.2926   20.9983 C   0  0  0  0  0  0  0  0  0  0  0  0
    3.9236    1.0997   22.3678 C   0  0  0  0  0  0  0  0  0  0  0  0
    4.5981    1.9727   23.1825 C   0  0  0  0  0  0  0  0  0  0  0  0
    5.2863    3.0330   22.6038 C   0  0  0  0  0  0  0  0  0  0  0  0
    5.3040    3.2210   21.2482 C   0  0  0  0  0  0  0  0  0  0  0  0
    4.6214    2.3386   20.4135 C   0  0  0  0  0  0  0  0  0  0  0  0
    3.1106    0.6355   17.2504 S   0  0  0  0  0  0  0  0  0  0  0  0
    2.2024    1.7523   16.2338 C   0  0  0  0  0  0  0  0  0  0  0  0
    2.8101    2.3052   15.0415 C   0  0  0  0  0  0  0  0  0  0  0  0
    3.2441    1.6539   14.0922 O   0  0  0  0  0  0  0  0  0  0  0  0
    2.9096    3.7458   14.9740 N   0  0  0  0  0  0  0  0  0  0  0  0
    2.4540    4.6606   15.9827 C   0  0  0  0  0  0  0  0  0  0  0  0
    2.3815    6.0177   15.2734 C   0  0  0  0  0  0  0  0  0  0  0  0
    3.5274    5.9259   14.3019 C   0  0  0  0  0  0  0  0  0  0  0  0
    3.4734    4.5007   13.8957 C   0  0  0  0  0  0  0  0  0  0  0  0
    3.8423    3.9871   12.8089 O   0  0  0  0  0  0  0  0  0  0  0  0
  1  2  1  0  0  0
  2  3  1  0  0  0
  3 11  1  0  0  0
 11 12  1  0  0  0
 12 13  1  0  0  0
 13 14  2  0  0  0
 13 15  1  0  0  0
 15 16  1  0  0  0
 16 17  1  0  0  0
 17 18  1  0  0  0
 18 19  1  0  0  0
 19 20  2  0  0  0
  3  4  2  0  0  0
  4  5  1  0  0  0
  5  6  2  0  0  0
  6  7  1  0  0  0
  7  8  2  0  0  0
  8  9  1  0  0  0
  9 10  2  0  0  0
 10  2  1  0  0  0
 19 15  1  0  0  0
 10  5  1  0  0  0
M  END
> <minimizedAffinity>
-6.16897

> <CNNscore>
0.5919591784

> <CNNaffinity>
5.3075394630

> <CNN_VS>
3.1418466568

> <CNNaffinity_variance>
0.1753688008

$$$$
[H]c1c([H])c([H])c2c(nc(SC([H])([H])C(=O)N3C(=O)C([H])([H])C([H])([H])C3([H])[H])n2C([H])([H])[H])c1[H]


 20 22  0  0  0  0  0  0  0  0999 V2000
    5.0382    3.4180   18.1067 C   0  0  0  0  0  0  0  0  0  0  0  0
    4.1550    2.4836   17.4037 N   0  0  0  0  0  0  0  0  0  0  0  0
    3.5464    1.3870   17.8333 C   0  0  0  0  0  0  0  0  0  0  0  0
    2.7973    0.9040   16.7993 N   0  0  0  0  0  0  0  0  0  0  0  0
    2.9330    1.6922   15.7174 C   0  0  0  0  0  0  0  0  0  0  0  0
    2.3947    1.6346   14.4447 C   0  0  0  0  0  0  0  0  0  0  0  0
    2.7231    2.6006   13.5282 C   0  0  0  0  0  0  0  0  0  0  0  0
    3.5934    3.6159   13.9082 C   0  0  0  0  0  0  0  0  0  0  0  0
    4.1244    3.6702   15.1685 C   0  0  0  0  0  0  0  0  0  0  0  0
    3.7957    2.6927   16.1055 C   0  0  0  0  0  0  0  0  0  0  0  0
    3.6503    0.5908   19.3841 S   0  0  0  0  0  0  0  0  0  0  0  0
    4.6708    1.3143   20.6252 C   0  0  0  0  0  0  0  0  0  0  0  0
    4.0722    2.0633   21.7103 C   0  0  0  0  0  0  0  0  0  0  0  0
    3.1638    1.6651   22.4383 O   0  0  0  0  0  0  0  0  0  0  0  0
    4.5952    3.3900   21.9470 N   0  0  0  0  0  0  0  0  0  0  0  0
    5.6524    4.0139   21.2021 C   0  0  0  0  0  0  0  0  0  0  0  0
    6.1170    5.1774   22.0857 C   0  0  0  0  0  0  0  0  0  0  0  0
    4.8335    5.6010   22.7477 C   0  0  0  0  0  0  0  0  0  0  0  0
    4.1524    4.3007   22.9594 C   0  0  0  0  0  0  0  0  0  0  0  0
    3.3235    3.9933   23.8535 O   0  0  0  0  0  0  0  0  0  0  0  0
  1  2  1  0  0  0
  2  3  1  0  0  0
  3 11  1  0  0  0
 11 12  1  0  0  0
 12 13  1  0  0  0
 13 14  2  0  0  0
 13 15  1  0  0  0
 15 16  1  0  0  0
 16 17  1  0  0  0
 17 18  1  0  0  0
 18 19  1  0  0  0
 19 20  2  0  0  0
  3  4  2  0  0  0
  4  5  1  0  0  0
  5  6  2  0  0  0
  6  7  1  0  0  0
  7  8  2  0  0  0
  8  9  1  0  0  0
  9 10  2  0  0  0
 10  2  1  0  0  0
 19 15  1  0  0  0
 10  5  1  0  0  0
M  END
> <minimizedAffinity>
-6.96094

> <CNNscore>
0.5465729833

> <CNNaffinity>
5.6120862961

> <CNN_VS>
3.0674147606

> <CNNaffinity_variance>
0.3810612559

$$$$
[H]c1c([H])c([H])c2c(nc(SC([H])([H])C(=O)N3C(=O)C([H])([H])C([H])([H])C3([H])[H])n2C([H])([H])[H])c1[H]


 20 22  0  0  0  0  0  0  0  0999 V2000
    5.2561    5.0537   20.3804 C   0  0  0  0  0  0  0  0  0  0  0  0
    4.8470    3.7546   19.8396 N   0  0  0  0  0  0  0  0  0  0  0  0
    4.8655    3.2965   18.5958 C   0  0  0  0  0  0  0  0  0  0  0  0
    4.4252    2.0047   18.6297 N   0  0  0  0  0  0  0  0  0  0  0  0
    4.1273    1.6469   19.8920 C   0  0  0  0  0  0  0  0  0  0  0  0
    3.6518    0.4710   20.4434 C   0  0  0  0  0  0  0  0  0  0  0  0
    3.4361    0.3981   21.7958 C   0  0  0  0  0  0  0  0  0  0  0  0
    3.7035    1.5160   22.5777 C   0  0  0  0  0  0  0  0  0  0  0  0
    4.1741    2.6782   22.0291 C   0  0  0  0  0  0  0  0  0  0  0  0
    4.3961    2.7604   20.6560 C   0  0  0  0  0  0  0  0  0  0  0  0
    5.2985    4.1139   17.1145 S   0  0  0  0  0  0  0  0  0  0  0  0
    4.0146    4.5027   15.9717 C   0  0  0  0  0  0  0  0  0  0  0  0
    3.5911    3.5209   14.9954 C   0  0  0  0  0  0  0  0  0  0  0  0
    3.3689    2.3330   15.2258 O   0  0  0  0  0  0  0  0  0  0  0  0
    3.4192    3.9894   13.6387 N   0  0  0  0  0  0  0  0  0  0  0  0
    3.6285    5.3372   13.1898 C   0  0  0  0  0  0  0  0  0  0  0  0
    2.9152    5.4115   11.8349 C   0  0  0  0  0  0  0  0  0  0  0  0
    3.1230    4.0225   11.2939 C   0  0  0  0  0  0  0  0  0  0  0  0
    3.0112    3.1948   12.5194 C   0  0  0  0  0  0  0  0  0  0  0  0
    2.6307    2.0006   12.6194 O   0  0  0  0  0  0  0  0  0  0  0  0
  1  2  1  0  0  0
  2  3  1  0  0  0
  3 11  1  0  0  0
 11 12  1  0  0  0
 12 13  1  0  0  0
 13 14  2  0  0  0
 13 15  1  0  0  0
 15 16  1  0  0  0
 16 17  1  0  0  0
 17 18  1  0  0  0
 18 19  1  0  0  0
 19 20  2  0  0  0
  3  4  2  0  0  0
  4  5  1  0  0  0
  5  6  2  0  0  0
  6  7  1  0  0  0
  7  8  2  0  0  0
  8  9  1  0  0  0
  9 10  2  0  0  0
 10  2  1  0  0  0
 19 15  1  0  0  0
 10  5  1  0  0  0
M  END
> <minimizedAffinity>
-6.23870

> <CNNscore>
0.4429992437

> <CNNaffinity>
5.0328488350

> <CNN_VS>
2.2295482159

> <CNNaffinity_variance>
0.1575006843

$$$$
[H]c1c([H])c([H])c2c(nc(SC([H])([H])C(=O)N3C(=O)C([H])([H])C([H])([H])C3([H])[H])n2C([H])([H])[H])c1[H]


 20 22  0  0  0  0  0  0  0  0999 V2000
    3.1638   -0.3857   20.9576 C   0  0  0  0  0  0  0  0  0  0  0  0
    3.7432    0.6844   20.1411 N   0  0  0  0  0  0  0  0  0  0  0  0
    4.5892    1.6519   20.4660 C   0  0  0  0  0  0  0  0  0  0  0  0
    4.8570    2.3591   19.3293 N   0  0  0  0  0  0  0  0  0  0  0  0
    4.1806    1.8411   18.2879 C   0  0  0  0  0  0  0  0  0  0  0  0
    4.1114    2.1893   16.9512 C   0  0  0  0  0  0  0  0  0  0  0  0
    3.3166    1.4605   16.1038 C   0  0  0  0  0  0  0  0  0  0  0  0
    2.5991    0.3861   16.6171 C   0  0  0  0  0  0  0  0  0  0  0  0
    2.6698    0.0440   17.9404 C   0  0  0  0  0  0  0  0  0  0  0  0
    3.4750    0.7792   18.8079 C   0  0  0  0  0  0  0  0  0  0  0  0
    5.2573    2.0701   22.0243 S   0  0  0  0  0  0  0  0  0  0  0  0
    5.1182    3.7401   22.5693 C   0  0  0  0  0  0  0  0  0  0  0  0
    5.8491    4.7883   21.8883 C   0  0  0  0  0  0  0  0  0  0  0  0
    7.0350    5.0639   22.0649 O   0  0  0  0  0  0  0  0  0  0  0  0
    5.1106    5.5698   20.9221 N   0  0  0  0  0  0  0  0  0  0  0  0
    3.7267    5.3871   20.5855 C   0  0  0  0  0  0  0  0  0  0  0  0
    3.5486    6.1275   19.2550 C   0  0  0  0  0  0  0  0  0  0  0  0
    4.5057    7.2791   19.4058 C   0  0  0  0  0  0  0  0  0  0  0  0
    5.6308    6.6504   20.1397 C   0  0  0  0  0  0  0  0  0  0  0  0
    6.8475    6.9669   20.1175 O   0  0  0  0  0  0  0  0  0  0  0  0
  1  2  1  0  0  0
  2  3  1  0  0  0
  3 11  1  0  0  0
 11 12  1  0  0  0
 12 13  1  0  0  0
 13 14  2  0  0  0
 13 15  1  0  0  0
 15 16  1  0  0  0
 16 17  1  0  0  0
 17 18  1  0  0  0
 18 19  1  0  0  0
 19 20  2  0  0  0
  3  4  2  0  0  0
  4  5  1  0  0  0
  5  6  2  0  0  0
  6  7  1  0  0  0
  7  8  2  0  0  0
  8  9  1  0  0  0
  9 10  2  0  0  0
 10  2  1  0  0  0
 19 15  1  0  0  0
 10  5  1  0  0  0
M  END
> <minimizedAffinity>
-7.40585

> <CNNscore>
0.4426417649

> <CNNaffinity>
5.4171628952

> <CNN_VS>
2.3978624344

> <CNNaffinity_variance>
0.2251113355

$$$$
[H]c1c([H])c([H])c2c(nc(SC([H])([H])C(=O)N3C(=O)C([H])([H])C([H])([H])C3([H])[H])n2C([H])([H])[H])c1[H]


 20 22  0  0  0  0  0  0  0  0999 V2000
    4.9907    4.5877   17.2319 C   0  0  0  0  0  0  0  0  0  0  0  0
    4.5149    3.2828   17.6991 N   0  0  0  0  0  0  0  0  0  0  0  0
    3.8906    2.3115   17.0479 C   0  0  0  0  0  0  0  0  0  0  0  0
    3.7101    1.2816   17.9256 N   0  0  0  0  0  0  0  0  0  0  0  0
    4.2177    1.6013   19.1300 C   0  0  0  0  0  0  0  0  0  0  0  0
    4.2836    0.9154   20.3292 C   0  0  0  0  0  0  0  0  0  0  0  0
    4.8734    1.5096   21.4154 C   0  0  0  0  0  0  0  0  0  0  0  0
    5.3909    2.7926   21.2781 C   0  0  0  0  0  0  0  0  0  0  0  0
    5.3241    3.4687   20.0899 C   0  0  0  0  0  0  0  0  0  0  0  0
    4.7267    2.8720   18.9815 C   0  0  0  0  0  0  0  0  0  0  0  0
    3.3137    2.2674   15.4002 S   0  0  0  0  0  0  0  0  0  0  0  0
    2.7946    3.7794   14.6586 C   0  0  0  0  0  0  0  0  0  0  0  0
    1.8532    3.7616   13.5586 C   0  0  0  0  0  0  0  0  0  0  0  0
    1.7333    2.8560   12.7345 O   0  0  0  0  0  0  0  0  0  0  0  0
    0.9872    4.9119   13.4290 N   0  0  0  0  0  0  0  0  0  0  0  0
    0.9844    6.0548   14.2982 C   0  0  0  0  0  0  0  0  0  0  0  0
   -0.3521    6.7523   14.0199 C   0  0  0  0  0  0  0  0  0  0  0  0
   -0.5490    6.4800   12.5529 C   0  0  0  0  0  0  0  0  0  0  0  0
   -0.0103    5.1047   12.4198 C   0  0  0  0  0  0  0  0  0  0  0  0
   -0.3342    4.2195   11.5877 O   0  0  0  0  0  0  0  0  0  0  0  0
  1  2  1  0  0  0
  2  3  1  0  0  0
  3 11  1  0  0  0
 11 12  1  0  0  0
 12 13  1  0  0  0
 13 14  2  0  0  0
 13 15  1  0  0  0
 15 16  1  0  0  0
 16 17  1  0  0  0
 17 18  1  0  0  0
 18 19  1  0  0  0
 19 20  2  0  0  0
  3  4  2  0  0  0
  4  5  1  0  0  0
  5  6  2  0  0  0
  6  7  1  0  0  0
  7  8  2  0  0  0
  8  9  1  0  0  0
  9 10  2  0  0  0
 10  2  1  0  0  0
 19 15  1  0  0  0
 10  5  1  0  0  0
M  END
> <minimizedAffinity>
-6.06171

> <CNNscore>
0.4185859859

> <CNNaffinity>
4.8080434799

> <CNN_VS>
2.0125796795

> <CNNaffinity_variance>
0.2749850154

$$$$
[H]c1c([H])c([H])c2c(nc(SC([H])([H])C(=O)N3C(=O)C([H])([H])C([H])([H])C3([H])[H])n2C([H])([H])[H])c1[H]


 20 22  0  0  0  0  0  0  0  0999 V2000
    4.9776    4.3735   16.7684 C   0  0  0  0  0  0  0  0  0  0  0  0
    4.1546    3.2770   16.2509 N   0  0  0  0  0  0  0  0  0  0  0  0
    3.6735    3.0629   15.0343 C   0  0  0  0  0  0  0  0  0  0  0  0
    3.0094    1.8705   15.0617 N   0  0  0  0  0  0  0  0  0  0  0  0
    3.0687    1.3321   16.2934 C   0  0  0  0  0  0  0  0  0  0  0  0
    2.5636    0.1606   16.8274 C   0  0  0  0  0  0  0  0  0  0  0  0
    2.7873   -0.1307   18.1488 C   0  0  0  0  0  0  0  0  0  0  0  0
    3.5200    0.7665   18.9176 C   0  0  0  0  0  0  0  0  0  0  0  0
    4.0185    1.9250   18.3861 C   0  0  0  0  0  0  0  0  0  0  0  0
    3.7958    2.2283   17.0445 C   0  0  0  0  0  0  0  0  0  0  0  0
    3.7635    4.0674   13.6087 S   0  0  0  0  0  0  0  0  0  0  0  0
    2.2564    4.5541   12.8360 C   0  0  0  0  0  0  0  0  0  0  0  0
    1.2513    5.2698   13.5938 C   0  0  0  0  0  0  0  0  0  0  0  0
    1.3826    5.6813   14.7458 O   0  0  0  0  0  0  0  0  0  0  0  0
   -0.0087    5.5143   12.9288 N   0  0  0  0  0  0  0  0  0  0  0  0
   -0.3359    5.1119   11.5898 C   0  0  0  0  0  0  0  0  0  0  0  0
   -1.5589    5.9579   11.2169 C   0  0  0  0  0  0  0  0  0  0  0  0
   -2.2696    6.0818   12.5378 C   0  0  0  0  0  0  0  0  0  0  0  0
   -1.1365    6.1971   13.4876 C   0  0  0  0  0  0  0  0  0  0  0  0
   -1.1115    6.7799   14.6015 O   0  0  0  0  0  0  0  0  0  0  0  0
  1  2  1  0  0  0
  2  3  1  0  0  0
  3 11  1  0  0  0
 11 12  1  0  0  0
 12 13  1  0  0  0
 13 14  2  0  0  0
 13 15  1  0  0  0
 15 16  1  0  0  0
 16 17  1  0  0  0
 17 18  1  0  0  0
 18 19  1  0  0  0
 19 20  2  0  0  0
  3  4  2  0  0  0
  4  5  1  0  0  0
  5  6  2  0  0  0
  6  7  1  0  0  0
  7  8  2  0  0  0
  8  9  1  0  0  0
  9 10  2  0  0  0
 10  2  1  0  0  0
 19 15  1  0  0  0
 10  5  1  0  0  0
M  END
> <minimizedAffinity>
-6.50715

> <CNNscore>
0.3363553882

> <CNNaffinity>
4.5483603477

> <CNN_VS>
1.5298655033

> <CNNaffinity_variance>
0.2153186798

$$$$
[H]c1c([H])c([H])c2c(nc(SC([H])([H])C(=O)N3C(=O)C([H])([H])C([H])([H])C3([H])[H])n2C([H])([H])[H])c1[H]


 20 22  0  0  0  0  0  0  0  0999 V2000
    3.6807    1.0015   17.3350 C   0  0  0  0  0  0  0  0  0  0  0  0
    4.0884    1.8568   18.4529 N   0  0  0  0  0  0  0  0  0  0  0  0
    4.6212    3.0707   18.4572 C   0  0  0  0  0  0  0  0  0  0  0  0
    4.7689    3.4473   19.7611 N   0  0  0  0  0  0  0  0  0  0  0  0
    4.3320    2.4731   20.5799 C   0  0  0  0  0  0  0  0  0  0  0  0
    4.2694    2.3673   21.9575 C   0  0  0  0  0  0  0  0  0  0  0  0
    3.7637    1.2256   22.5247 C   0  0  0  0  0  0  0  0  0  0  0  0
    3.3262    0.2015   21.6926 C   0  0  0  0  0  0  0  0  0  0  0  0
    3.3895    0.3093   20.3297 C   0  0  0  0  0  0  0  0  0  0  0  0
    3.9017    1.4659   19.7454 C   0  0  0  0  0  0  0  0  0  0  0  0
    5.1275    4.0692   17.1170 S   0  0  0  0  0  0  0  0  0  0  0  0
    4.2727    5.5847   16.8377 C   0  0  0  0  0  0  0  0  0  0  0  0
    2.9542    5.5737   16.2393 C   0  0  0  0  0  0  0  0  0  0  0  0
    1.9675    4.9960   16.6935 O   0  0  0  0  0  0  0  0  0  0  0  0
    2.7980    6.3073   15.0035 N   0  0  0  0  0  0  0  0  0  0  0  0
    3.8346    7.0411   14.3334 C   0  0  0  0  0  0  0  0  0  0  0  0
    3.0917    7.9633   13.3598 C   0  0  0  0  0  0  0  0  0  0  0  0
    1.9071    7.1204   12.9708 C   0  0  0  0  0  0  0  0  0  0  0  0
    1.5903    6.4282   14.2436 C   0  0  0  0  0  0  0  0  0  0  0  0
    0.4763    6.0008   14.6403 O   0  0  0  0  0  0  0  0  0  0  0  0
  1  2  1  0  0  0
  2  3  1  0  0  0
  3 11  1  0  0  0
 11 12  1  0  0  0
 12 13  1  0  0  0
 13 14  2  0  0  0
 13 15  1  0  0  0
 15 16  1  0  0  0
 16 17  1  0  0  0
 17 18  1  0  0  0
 18 19  1  0  0  0
 19 20  2  0  0  0
  3  4  2  0  0  0
  4  5  1  0  0  0
  5  6  2  0  0  0
  6  7  1  0  0  0
  7  8  2  0  0  0
  8  9  1  0  0  0
  9 10  2  0  0  0
 10  2  1  0  0  0
 19 15  1  0  0  0
 10  5  1  0  0  0
M  END
> <minimizedAffinity>
-6.56706

> <CNNscore>
0.3300976753

> <CNNaffinity>
4.9786405563

> <CNN_VS>
1.6434376240

> <CNNaffinity_variance>
0.1451250166

$$$$
[H]c1c([H])c([H])c2c(nc(SC([H])([H])C(=O)N3C(=O)C([H])([H])C([H])([H])C3([H])[H])n2C([H])([H])[H])c1[H]


 20 22  0  0  0  0  0  0  0  0999 V2000
    3.2137    4.7785   17.7971 C   0  0  0  0  0  0  0  0  0  0  0  0
    3.3106    3.7508   16.7569 N   0  0  0  0  0  0  0  0  0  0  0  0
    3.5121    2.4442   16.8551 C   0  0  0  0  0  0  0  0  0  0  0  0
    3.4687    1.9282   15.5919 N   0  0  0  0  0  0  0  0  0  0  0  0
    3.2419    2.9065   14.6964 C   0  0  0  0  0  0  0  0  0  0  0  0
    3.1146    2.9027   13.3192 C   0  0  0  0  0  0  0  0  0  0  0  0
    2.8818    4.0822   12.6594 C   0  0  0  0  0  0  0  0  0  0  0  0
    2.7800    5.2547   13.3994 C   0  0  0  0  0  0  0  0  0  0  0  0
    2.9063    5.2551   14.7622 C   0  0  0  0  0  0  0  0  0  0  0  0
    3.1428    4.0610   15.4402 C   0  0  0  0  0  0  0  0  0  0  0  0
    3.8352    1.4705   18.2683 S   0  0  0  0  0  0  0  0  0  0  0  0
    4.9877    2.0797   19.4540 C   0  0  0  0  0  0  0  0  0  0  0  0
    4.8198    1.7638   20.8570 C   0  0  0  0  0  0  0  0  0  0  0  0
    4.9933    0.6575   21.3667 O   0  0  0  0  0  0  0  0  0  0  0  0
    4.4131    2.8492   21.7209 N   0  0  0  0  0  0  0  0  0  0  0  0
    4.1701    4.2011   21.3022 C   0  0  0  0  0  0  0  0  0  0  0  0
    4.2023    5.0214   22.5969 C   0  0  0  0  0  0  0  0  0  0  0  0
    3.6264    4.0542   23.5959 C   0  0  0  0  0  0  0  0  0  0  0  0
    4.1873    2.7620   23.1323 C   0  0  0  0  0  0  0  0  0  0  0  0
    4.4420    1.7357   23.8126 O   0  0  0  0  0  0  0  0  0  0  0  0
  1  2  1  0  0  0
  2  3  1  0  0  0
  3 11  1  0  0  0
 11 12  1  0  0  0
 12 13  1  0  0  0
 13 14  2  0  0  0
 13 15  1  0  0  0
 15 16  1  0  0  0
 16 17  1  0  0  0
 17 18  1  0  0  0
 18 19  1  0  0  0
 19 20  2  0  0  0
  3  4  2  0  0  0
  4  5  1  0  0  0
  5  6  2  0  0  0
  6  7  1  0  0  0
  7  8  2  0  0  0
  8  9  1  0  0  0
  9 10  2  0  0  0
 10  2  1  0  0  0
 19 15  1  0  0  0
 10  5  1  0  0  0
M  END
> <minimizedAffinity>
-6.34378

> <CNNscore>
0.3231135905

> <CNNaffinity>
5.1668806076

> <CNN_VS>
1.6694893837

> <CNNaffinity_variance>
0.3607633710

$$$$
[H]c1c([H])c([H])c2c(nc(SC([H])([H])C(=O)N3C(=O)C([H])([H])C([H])([H])C3([H])[H])n2C([H])([H])[H])c1[H]


 20 22  0  0  0  0  0  0  0  0999 V2000
    3.7549    0.6732   21.1917 C   0  0  0  0  0  0  0  0  0  0  0  0
    4.0532    1.5076   20.0246 N   0  0  0  0  0  0  0  0  0  0  0  0
    4.7611    2.6239   19.9238 C   0  0  0  0  0  0  0  0  0  0  0  0
    4.7767    2.9802   18.6060 N   0  0  0  0  0  0  0  0  0  0  0  0
    4.0788    2.0921   17.8749 C   0  0  0  0  0  0  0  0  0  0  0  0
    3.7999    2.0073   16.5229 C   0  0  0  0  0  0  0  0  0  0  0  0
    3.0429    0.9644   16.0537 C   0  0  0  0  0  0  0  0  0  0  0  0
    2.5750    0.0170   16.9571 C   0  0  0  0  0  0  0  0  0  0  0  0
    2.8528    0.1036   18.2944 C   0  0  0  0  0  0  0  0  0  0  0  0
    3.6213    1.1600   18.7792 C   0  0  0  0  0  0  0  0  0  0  0  0
    5.5268    3.5734   21.1735 S   0  0  0  0  0  0  0  0  0  0  0  0
    4.7493    5.0735   21.6743 C   0  0  0  0  0  0  0  0  0  0  0  0
    4.2797    6.0142   20.6787 C   0  0  0  0  0  0  0  0  0  0  0  0
    3.4898    5.7594   19.7705 O   0  0  0  0  0  0  0  0  0  0  0  0
    4.7907    7.3633   20.7709 N   0  0  0  0  0  0  0  0  0  0  0  0
    5.7127    7.8390   21.7635 C   0  0  0  0  0  0  0  0  0  0  0  0
    5.5966    9.3664   21.7026 C   0  0  0  0  0  0  0  0  0  0  0  0
    5.3285    9.6029   20.2407 C   0  0  0  0  0  0  0  0  0  0  0  0
    4.4644    8.4483   19.8952 C   0  0  0  0  0  0  0  0  0  0  0  0
    3.5826    8.3765   19.0017 O   0  0  0  0  0  0  0  0  0  0  0  0
  1  2  1  0  0  0
  2  3  1  0  0  0
  3 11  1  0  0  0
 11 12  1  0  0  0
 12 13  1  0  0  0
 13 14  2  0  0  0
 13 15  1  0  0  0
 15 16  1  0  0  0
 16 17  1  0  0  0
 17 18  1  0  0  0
 18 19  1  0  0  0
 19 20  2  0  0  0
  3  4  2  0  0  0
  4  5  1  0  0  0
  5  6  2  0  0  0
  6  7  1  0  0  0
  7  8  2  0  0  0
  8  9  1  0  0  0
  9 10  2  0  0  0
 10  2  1  0  0  0
 19 15  1  0  0  0
 10  5  1  0  0  0
M  END
> <minimizedAffinity>
-7.54267

> <CNNscore>
0.3068624735

> <CNNaffinity>
4.9888811111

> <CNN_VS>
1.5309003592

> <CNNaffinity_variance>
0.1937378645

$$$$
[H]c1c(C([H])([H])[H])c([H])c2c(c1C(F)(F)F)C(=O)N1C([H])([H])C([H])([H])N([H])C([H])([H])[C@@]21[H]


 20 22  0  0  0  0  0  0  0  0999 V2000
    3.4806   -0.4551   21.3736 C   0  0  0  0  0  0  0  0  0  0  0  0
    3.9156    0.7803   20.6691 C   0  0  0  0  0  0  0  0  0  0  0  0
    4.4777    1.7776   21.4349 C   0  0  0  0  0  0  0  0  0  0  0  0
    4.8978    2.9390   20.8441 C   0  0  0  0  0  0  0  0  0  0  0  0
    4.7469    3.0948   19.4612 C   0  0  0  0  0  0  0  0  0  0  0  0
    4.1922    2.1195   18.6753 C   0  0  0  0  0  0  0  0  0  0  0  0
    3.7756    0.9522   19.3021 C   0  0  0  0  0  0  0  0  0  0  0  0
    5.2587    4.4360   19.1775 C   0  0  0  0  0  0  0  0  0  0  0  0
    5.2966    4.9480   18.0446 O   0  0  0  0  0  0  0  0  0  0  0  0
    5.6969    5.0585   20.3529 N   0  0  0  0  0  0  0  0  0  0  0  0
    6.2201    6.3597   20.6848 C   0  0  0  0  0  0  0  0  0  0  0  0
    5.4836    6.9393   21.8907 C   0  0  0  0  0  0  0  0  0  0  0  0
    5.4968    5.9725   22.9411 N   0  0  0  0  0  0  0  0  0  0  0  0
    4.8354    4.7218   22.6074 C   0  0  0  0  0  0  0  0  0  0  0  0
    5.5414    4.1158   21.4367 C   0  0  0  0  0  0  0  0  0  0  0  0
    5.1099    6.3211   23.8380 H   0  0  0  0  0  0  0  0  0  0  0  0
    4.0526    2.3053   17.2147 C   0  0  0  0  0  0  0  0  0  0  0  0
    5.1979    2.6526   16.5686 F   0  0  0  0  0  0  0  0  0  0  0  0
    3.0109    3.2039   16.9428 F   0  0  0  0  0  0  0  0  0  0  0  0
    3.6238    1.1021   16.6339 F   0  0  0  0  0  0  0  0  0  0  0  0
  1  2  1  0  0  0
  2  3  2  0  0  0
  3  4  1  0  0  0
  4  5  2  0  0  0
  5  6  1  0  0  0
  6 17  1  0  0  0
 17 18  1  0  0  0
 17 19  1  0  0  0
 17 20  1  0  0  0
  6  7  2  0  0  0
  5  8  1  0  0  0
  8  9  2  0  0  0
  8 10  1  0  0  0
 10 11  1  0  0  0
 11 12  1  0  0  0
 12 13  1  0  0  0
 13 14  1  0  0  0
 14 15  1  0  0  0
  7  2  1  0  0  0
 15 10  1  0  0  0
 15  4  1  0  0  0
 13 16  1  0  0  0
M  END
> <minimizedAffinity>
-7.91129

> <CNNscore>
0.6200391650

> <CNNaffinity>
5.1443281174

> <CNN_VS>
3.1896848679

> <CNNaffinity_variance>
0.1580576450

$$$$
[H]c1c(C([H])([H])[H])c([H])c2c(c1C(F)(F)F)C(=O)N1C([H])([H])C([H])([H])N([H])C([H])([H])[C@@]21[H]


 20 22  0  0  0  0  0  0  0  0999 V2000
    2.0940    2.2172   12.8114 C   0  0  0  0  0  0  0  0  0  0  0  0
    2.4964    2.5479   14.2044 C   0  0  0  0  0  0  0  0  0  0  0  0
    2.4659    3.8752   14.5707 C   0  0  0  0  0  0  0  0  0  0  0  0
    2.8254    4.2429   15.8396 C   0  0  0  0  0  0  0  0  0  0  0  0
    3.2216    3.2561   16.7498 C   0  0  0  0  0  0  0  0  0  0  0  0
    3.2606    1.9288   16.4130 C   0  0  0  0  0  0  0  0  0  0  0  0
    2.8902    1.5856   15.1191 C   0  0  0  0  0  0  0  0  0  0  0  0
    3.5607    3.9876   17.9710 C   0  0  0  0  0  0  0  0  0  0  0  0
    3.9592    3.4540   19.0214 O   0  0  0  0  0  0  0  0  0  0  0  0
    3.3751    5.3640   17.7923 N   0  0  0  0  0  0  0  0  0  0  0  0
    3.5999    6.5375   18.5982 C   0  0  0  0  0  0  0  0  0  0  0  0
    4.3621    7.5942   17.8013 C   0  0  0  0  0  0  0  0  0  0  0  0
    3.6862    7.8060   16.5617 N   0  0  0  0  0  0  0  0  0  0  0  0
    3.6036    6.6244   15.7191 C   0  0  0  0  0  0  0  0  0  0  0  0
    2.8478    5.5700   16.4630 C   0  0  0  0  0  0  0  0  0  0  0  0
    4.0748    8.5858   15.9990 H   0  0  0  0  0  0  0  0  0  0  0  0
    3.6742    0.9047   17.3965 C   0  0  0  0  0  0  0  0  0  0  0  0
    2.8931    0.8276   18.5073 F   0  0  0  0  0  0  0  0  0  0  0  0
    5.0271    1.0734   17.7247 F   0  0  0  0  0  0  0  0  0  0  0  0
    3.6260   -0.3617   16.7942 F   0  0  0  0  0  0  0  0  0  0  0  0
  1  2  1  0  0  0
  2  3  2  0  0  0
  3  4  1  0  0  0
  4  5  2  0  0  0
  5  6  1  0  0  0
  6 17  1  0  0  0
 17 18  1  0  0  0
 17 19  1  0  0  0
 17 20  1  0  0  0
  6  7  2  0  0  0
  5  8  1  0  0  0
  8  9  2  0  0  0
  8 10  1  0  0  0
 10 11  1  0  0  0
 11 12  1  0  0  0
 12 13  1  0  0  0
 13 14  1  0  0  0
 14 15  1  0  0  0
  7  2  1  0  0  0
 15 10  1  0  0  0
 15  4  1  0  0  0
 13 16  1  0  0  0
M  END
> <minimizedAffinity>
-6.98854

> <CNNscore>
0.5743333101

> <CNNaffinity>
4.5975117683

> <CNN_VS>
2.6405041218

> <CNNaffinity_variance>
0.2198264599

$$$$
[H]c1c(C([H])([H])[H])c([H])c2c(c1C(F)(F)F)C(=O)N1C([H])([H])C([H])([H])N([H])C([H])([H])[C@@]21[H]


 20 22  0  0  0  0  0  0  0  0999 V2000
    5.3244    0.8622   21.0640 C   0  0  0  0  0  0  0  0  0  0  0  0
    4.9052    1.7972   19.9862 C   0  0  0  0  0  0  0  0  0  0  0  0
    5.1240    3.1406   20.1972 C   0  0  0  0  0  0  0  0  0  0  0  0
    4.7597    4.0512   19.2419 C   0  0  0  0  0  0  0  0  0  0  0  0
    4.1656    3.5980   18.0582 C   0  0  0  0  0  0  0  0  0  0  0  0
    3.9368    2.2682   17.8216 C   0  0  0  0  0  0  0  0  0  0  0  0
    4.3171    1.3677   18.8083 C   0  0  0  0  0  0  0  0  0  0  0  0
    3.8808    4.8126   17.2933 C   0  0  0  0  0  0  0  0  0  0  0  0
    3.3481    4.8259   16.1695 O   0  0  0  0  0  0  0  0  0  0  0  0
    4.2894    5.9506   17.9997 N   0  0  0  0  0  0  0  0  0  0  0  0
    4.2089    7.3725   17.7790 C   0  0  0  0  0  0  0  0  0  0  0  0
    3.6655    8.0755   19.0212 C   0  0  0  0  0  0  0  0  0  0  0  0
    4.4313    7.6597   20.1521 N   0  0  0  0  0  0  0  0  0  0  0  0
    4.3722    6.2320   20.4189 C   0  0  0  0  0  0  0  0  0  0  0  0
    4.9126    5.5095   19.2263 C   0  0  0  0  0  0  0  0  0  0  0  0
    4.2004    8.1683   21.0260 H   0  0  0  0  0  0  0  0  0  0  0  0
    3.3159    1.8146   16.5583 C   0  0  0  0  0  0  0  0  0  0  0  0
    3.9661    2.2016   15.4281 F   0  0  0  0  0  0  0  0  0  0  0  0
    1.9629    2.1823   16.5297 F   0  0  0  0  0  0  0  0  0  0  0  0
    3.2874    0.4119   16.5340 F   0  0  0  0  0  0  0  0  0  0  0  0
  1  2  1  0  0  0
  2  3  2  0  0  0
  3  4  1  0  0  0
  4  5  2  0  0  0
  5  6  1  0  0  0
  6 17  1  0  0  0
 17 18  1  0  0  0
 17 19  1  0  0  0
 17 20  1  0  0  0
  6  7  2  0  0  0
  5  8  1  0  0  0
  8  9  2  0  0  0
  8 10  1  0  0  0
 10 11  1  0  0  0
 11 12  1  0  0  0
 12 13  1  0  0  0
 13 14  1  0  0  0
 14 15  1  0  0  0
  7  2  1  0  0  0
 15 10  1  0  0  0
 15  4  1  0  0  0
 13 16  1  0  0  0
M  END
> <minimizedAffinity>
-7.62451

> <CNNscore>
0.5688657761

> <CNNaffinity>
4.8607788086

> <CNN_VS>
2.7651307583

> <CNNaffinity_variance>
0.1509094834

$$$$
[H]c1c(C([H])([H])[H])c([H])c2c(c1C(F)(F)F)C(=O)N1C([H])([H])C([H])([H])N([H])C([H])([H])[C@@]21[H]


 20 22  0  0  0  0  0  0  0  0999 V2000
    2.9311    0.0715   16.9473 C   0  0  0  0  0  0  0  0  0  0  0  0
    3.4575    0.9961   17.9864 C   0  0  0  0  0  0  0  0  0  0  0  0
    3.8624    2.2454   17.5714 C   0  0  0  0  0  0  0  0  0  0  0  0
    4.3564    3.1415   18.4810 C   0  0  0  0  0  0  0  0  0  0  0  0
    4.4431    2.7696   19.8277 C   0  0  0  0  0  0  0  0  0  0  0  0
    4.0471    1.5344   20.2684 C   0  0  0  0  0  0  0  0  0  0  0  0
    3.5499    0.6465   19.3232 C   0  0  0  0  0  0  0  0  0  0  0  0
    5.0325    3.9286   20.4990 C   0  0  0  0  0  0  0  0  0  0  0  0
    5.2698    3.9881   21.7185 O   0  0  0  0  0  0  0  0  0  0  0  0
    5.2904    4.9547   19.5818 N   0  0  0  0  0  0  0  0  0  0  0  0
    5.9006    6.2584   19.6536 C   0  0  0  0  0  0  0  0  0  0  0  0
    6.9369    6.4245   18.5439 C   0  0  0  0  0  0  0  0  0  0  0  0
    6.3287    6.0855   17.2976 N   0  0  0  0  0  0  0  0  0  0  0  0
    5.8496    4.7152   17.2220 C   0  0  0  0  0  0  0  0  0  0  0  0
    4.8186    4.5196   18.2874 C   0  0  0  0  0  0  0  0  0  0  0  0
    6.9294    6.2708   16.4726 H   0  0  0  0  0  0  0  0  0  0  0  0
    4.1404    1.1695   21.6986 C   0  0  0  0  0  0  0  0  0  0  0  0
    3.3827    1.9285   22.5350 F   0  0  0  0  0  0  0  0  0  0  0  0
    5.4839    1.1400   22.0996 F   0  0  0  0  0  0  0  0  0  0  0  0
    3.7061   -0.1540   21.8680 F   0  0  0  0  0  0  0  0  0  0  0  0
  1  2  1  0  0  0
  2  3  2  0  0  0
  3  4  1  0  0  0
  4  5  2  0  0  0
  5  6  1  0  0  0
  6 17  1  0  0  0
 17 18  1  0  0  0
 17 19  1  0  0  0
 17 20  1  0  0  0
  6  7  2  0  0  0
  5  8  1  0  0  0
  8  9  2  0  0  0
  8 10  1  0  0  0
 10 11  1  0  0  0
 11 12  1  0  0  0
 12 13  1  0  0  0
 13 14  1  0  0  0
 14 15  1  0  0  0
  7  2  1  0  0  0
 15 10  1  0  0  0
 15  4  1  0  0  0
 13 16  1  0  0  0
M  END
> <minimizedAffinity>
-7.80365

> <CNNscore>
0.5425384045

> <CNNaffinity>
5.1492967606

> <CNN_VS>
2.7936911583

> <CNNaffinity_variance>
0.1471173316

$$$$
[H]c1c(C([H])([H])[H])c([H])c2c(c1C(F)(F)F)C(=O)N1C([H])([H])C([H])([H])N([H])C([H])([H])[C@@]21[H]


 20 22  0  0  0  0  0  0  0  0999 V2000
    3.2573    0.8742   16.2080 C   0  0  0  0  0  0  0  0  0  0  0  0
    3.5298    1.9182   17.2314 C   0  0  0  0  0  0  0  0  0  0  0  0
    3.2661    3.2247   16.8844 C   0  0  0  0  0  0  0  0  0  0  0  0
    3.4966    4.2310   17.7836 C   0  0  0  0  0  0  0  0  0  0  0  0
    4.0010    3.9127   19.0499 C   0  0  0  0  0  0  0  0  0  0  0  0
    4.2716    2.6223   19.4221 C   0  0  0  0  0  0  0  0  0  0  0  0
    4.0277    1.6225   18.4894 C   0  0  0  0  0  0  0  0  0  0  0  0
    4.1549    5.2010   19.7265 C   0  0  0  0  0  0  0  0  0  0  0  0
    4.5810    5.3383   20.8869 O   0  0  0  0  0  0  0  0  0  0  0  0
    3.7579    6.2512   18.8894 N   0  0  0  0  0  0  0  0  0  0  0  0
    3.7485    7.6888   18.9899 C   0  0  0  0  0  0  0  0  0  0  0  0
    4.3686    8.3150   17.7425 C   0  0  0  0  0  0  0  0  0  0  0  0
    3.7309    7.7636   16.5903 N   0  0  0  0  0  0  0  0  0  0  0  0
    3.8836    6.3242   16.4568 C   0  0  0  0  0  0  0  0  0  0  0  0
    3.2720    5.6746   17.6570 C   0  0  0  0  0  0  0  0  0  0  0  0
    4.0159    8.2096   15.6984 H   0  0  0  0  0  0  0  0  0  0  0  0
    4.7954    2.3117   20.7698 C   0  0  0  0  0  0  0  0  0  0  0  0
    3.9755    2.6585   21.7980 F   0  0  0  0  0  0  0  0  0  0  0  0
    6.0784    2.8568   20.9233 F   0  0  0  0  0  0  0  0  0  0  0  0
    4.9989    0.9277   20.8798 F   0  0  0  0  0  0  0  0  0  0  0  0
  1  2  1  0  0  0
  2  3  2  0  0  0
  3  4  1  0  0  0
  4  5  2  0  0  0
  5  6  1  0  0  0
  6 17  1  0  0  0
 17 18  1  0  0  0
 17 19  1  0  0  0
 17 20  1  0  0  0
  6  7  2  0  0  0
  5  8  1  0  0  0
  8  9  2  0  0  0
  8 10  1  0  0  0
 10 11  1  0  0  0
 11 12  1  0  0  0
 12 13  1  0  0  0
 13 14  1  0  0  0
 14 15  1  0  0  0
  7  2  1  0  0  0
 15 10  1  0  0  0
 15  4  1  0  0  0
 13 16  1  0  0  0
M  END
> <minimizedAffinity>
-7.41277

> <CNNscore>
0.5174359083

> <CNNaffinity>
4.7989640236

> <CNN_VS>
2.4831562042

> <CNNaffinity_variance>
0.2041490972

$$$$
[H]c1c(C([H])([H])[H])c([H])c2c(c1C(F)(F)F)C(=O)N1C([H])([H])C([H])([H])N([H])C([H])([H])[C@@]21[H]


 20 22  0  0  0  0  0  0  0  0999 V2000
    1.3639    1.2370   10.6001 C   0  0  0  0  0  0  0  0  0  0  0  0
    2.7305    1.5097   10.0808 C   0  0  0  0  0  0  0  0  0  0  0  0
    3.1440    2.8233   10.0543 C   0  0  0  0  0  0  0  0  0  0  0  0
    4.3917    3.1382    9.5870 C   0  0  0  0  0  0  0  0  0  0  0  0
    5.2323    2.1121    9.1399 C   0  0  0  0  0  0  0  0  0  0  0  0
    4.8475    0.7974    9.1556 C   0  0  0  0  0  0  0  0  0  0  0  0
    3.5766    0.5080    9.6353 C   0  0  0  0  0  0  0  0  0  0  0  0
    6.4468    2.7926    8.6891 C   0  0  0  0  0  0  0  0  0  0  0  0
    7.4425    2.2141    8.2190 O   0  0  0  0  0  0  0  0  0  0  0  0
    6.3314    4.1777    8.8597 N   0  0  0  0  0  0  0  0  0  0  0  0
    7.1568    5.3169    8.5468 C   0  0  0  0  0  0  0  0  0  0  0  0
    6.3382    6.3880    7.8290 C   0  0  0  0  0  0  0  0  0  0  0  0
    5.1653    6.6567    8.5972 N   0  0  0  0  0  0  0  0  0  0  0  0
    4.2916    5.5081    8.7715 C   0  0  0  0  0  0  0  0  0  0  0  0
    5.0570    4.4412    9.4872 C   0  0  0  0  0  0  0  0  0  0  0  0
    4.6005    7.4493    8.2387 H   0  0  0  0  0  0  0  0  0  0  0  0
    5.7584   -0.2690    8.6861 C   0  0  0  0  0  0  0  0  0  0  0  0
    6.9198   -0.3804    9.3851 F   0  0  0  0  0  0  0  0  0  0  0  0
    5.9926   -0.1287    7.3106 F   0  0  0  0  0  0  0  0  0  0  0  0
    5.1135   -1.5103    8.7962 F   0  0  0  0  0  0  0  0  0  0  0  0
  1  2  1  0  0  0
  2  3  2  0  0  0
  3  4  1  0  0  0
  4  5  2  0  0  0
  5  6  1  0  0  0
  6 17  1  0  0  0
 17 18  1  0  0  0
 17 19  1  0  0  0
 17 20  1  0  0  0
  6  7  2  0  0  0
  5  8  1  0  0  0
  8  9  2  0  0  0
  8 10  1  0  0  0
 10 11  1  0  0  0
 11 12  1  0  0  0
 12 13  1  0  0  0
 13 14  1  0  0  0
 14 15  1  0  0  0
  7  2  1  0  0  0
 15 10  1  0  0  0
 15  4  1  0  0  0
 13 16  1  0  0  0
M  END
> <minimizedAffinity>
-4.04808

> <CNNscore>
0.5074168444

> <CNNaffinity>
3.7073109150

> <CNN_VS>
1.8811520338

> <CNNaffinity_variance>
0.1366812438

$$$$
[H]c1c(C([H])([H])[H])c([H])c2c(c1C(F)(F)F)C(=O)N1C([H])([H])C([H])([H])N([H])C([H])([H])[C@@]21[H]


 20 22  0  0  0  0  0  0  0  0999 V2000
    6.2335    5.7251   17.4873 C   0  0  0  0  0  0  0  0  0  0  0  0
    5.3601    4.5214   17.4835 C   0  0  0  0  0  0  0  0  0  0  0  0
    5.1990    3.8560   18.6787 C   0  0  0  0  0  0  0  0  0  0  0  0
    4.4072    2.7408   18.7392 C   0  0  0  0  0  0  0  0  0  0  0  0
    3.7705    2.2917   17.5763 C   0  0  0  0  0  0  0  0  0  0  0  0
    3.9123    2.9342   16.3747 C   0  0  0  0  0  0  0  0  0  0  0  0
    4.7212    4.0627   16.3437 C   0  0  0  0  0  0  0  0  0  0  0  0
    3.0489    1.0865   17.9861 C   0  0  0  0  0  0  0  0  0  0  0  0
    2.3520    0.3923   17.2249 O   0  0  0  0  0  0  0  0  0  0  0  0
    3.2519    0.8256   19.3469 N   0  0  0  0  0  0  0  0  0  0  0  0
    2.8572   -0.2211   20.2555 C   0  0  0  0  0  0  0  0  0  0  0  0
    4.0623   -0.7210   21.0496 C   0  0  0  0  0  0  0  0  0  0  0  0
    4.7198    0.4023   21.6361 N   0  0  0  0  0  0  0  0  0  0  0  0
    5.2236    1.3672   20.6726 C   0  0  0  0  0  0  0  0  0  0  0  0
    4.0657    1.8914   19.8847 C   0  0  0  0  0  0  0  0  0  0  0  0
    5.4903    0.1482   22.2821 H   0  0  0  0  0  0  0  0  0  0  0  0
    3.2210    2.4445   15.1624 C   0  0  0  0  0  0  0  0  0  0  0  0
    1.8651    2.5459   15.1946 F   0  0  0  0  0  0  0  0  0  0  0  0
    3.6363    1.1377   14.8682 F   0  0  0  0  0  0  0  0  0  0  0  0
    3.6444    3.1933   14.0538 F   0  0  0  0  0  0  0  0  0  0  0  0
  1  2  1  0  0  0
  2  3  2  0  0  0
  3  4  1  0  0  0
  4  5  2  0  0  0
  5  6  1  0  0  0
  6 17  1  0  0  0
 17 18  1  0  0  0
 17 19  1  0  0  0
 17 20  1  0  0  0
  6  7  2  0  0  0
  5  8  1  0  0  0
  8  9  2  0  0  0
  8 10  1  0  0  0
 10 11  1  0  0  0
 11 12  1  0  0  0
 12 13  1  0  0  0
 13 14  1  0  0  0
 14 15  1  0  0  0
  7  2  1  0  0  0
 15 10  1  0  0  0
 15  4  1  0  0  0
 13 16  1  0  0  0
M  END
> <minimizedAffinity>
-6.94914

> <CNNscore>
0.5009408593

> <CNNaffinity>
5.1268744469

> <CNN_VS>
2.5682609081

> <CNNaffinity_variance>
0.1657212675

$$$$
[H]c1c(C([H])([H])[H])c([H])c2c(c1C(F)(F)F)C(=O)N1C([H])([H])C([H])([H])N([H])C([H])([H])[C@@]21[H]


 20 22  0  0  0  0  0  0  0  0999 V2000
    1.3307    2.1138   12.0382 C   0  0  0  0  0  0  0  0  0  0  0  0
    2.5623    2.5863   11.3514 C   0  0  0  0  0  0  0  0  0  0  0  0
    3.1140    3.7694   11.7905 C   0  0  0  0  0  0  0  0  0  0  0  0
    4.2480    4.2566   11.1979 C   0  0  0  0  0  0  0  0  0  0  0  0
    4.8315    3.5389   10.1473 C   0  0  0  0  0  0  0  0  0  0  0  0
    4.3048    2.3595    9.6909 C   0  0  0  0  0  0  0  0  0  0  0  0
    3.1544    1.8897   10.3112 C   0  0  0  0  0  0  0  0  0  0  0  0
    5.9815    4.3452    9.7363 C   0  0  0  0  0  0  0  0  0  0  0  0
    6.7635    4.0369    8.8196 O   0  0  0  0  0  0  0  0  0  0  0  0
    6.0773    5.5053   10.5147 N   0  0  0  0  0  0  0  0  0  0  0  0
    6.9391    6.6603   10.5235 C   0  0  0  0  0  0  0  0  0  0  0  0
    6.1121    7.9429   10.5837 C   0  0  0  0  0  0  0  0  0  0  0  0
    5.1907    7.8409   11.6693 N   0  0  0  0  0  0  0  0  0  0  0  0
    4.2489    6.7401   11.5496 C   0  0  0  0  0  0  0  0  0  0  0  0
    5.0246    5.4624   11.5034 C   0  0  0  0  0  0  0  0  0  0  0  0
    4.6582    8.7120   11.8520 H   0  0  0  0  0  0  0  0  0  0  0  0
    4.9460    1.6157    8.5851 C   0  0  0  0  0  0  0  0  0  0  0  0
    6.2219    1.2124    8.8289 F   0  0  0  0  0  0  0  0  0  0  0  0
    4.8535    2.3515    7.3948 F   0  0  0  0  0  0  0  0  0  0  0  0
    4.2095    0.4506    8.3225 F   0  0  0  0  0  0  0  0  0  0  0  0
  1  2  1  0  0  0
  2  3  2  0  0  0
  3  4  1  0  0  0
  4  5  2  0  0  0
  5  6  1  0  0  0
  6 17  1  0  0  0
 17 18  1  0  0  0
 17 19  1  0  0  0
 17 20  1  0  0  0
  6  7  2  0  0  0
  5  8  1  0  0  0
  8  9  2  0  0  0
  8 10  1  0  0  0
 10 11  1  0  0  0
 11 12  1  0  0  0
 12 13  1  0  0  0
 13 14  1  0  0  0
 14 15  1  0  0  0
  7  2  1  0  0  0
 15 10  1  0  0  0
 15  4  1  0  0  0
 13 16  1  0  0  0
M  END
> <minimizedAffinity>
-4.04057

> <CNNscore>
0.4903724492

> <CNNaffinity>
3.9389419556

> <CNN_VS>
1.9315485954

> <CNNaffinity_variance>
0.2297095358

$$$$
[H]c1c(C([H])([H])[H])c([H])c2c(c1C(F)(F)F)C(=O)N1C([H])([H])C([H])([H])N([H])C([H])([H])[C@@]21[H]


 20 22  0  0  0  0  0  0  0  0999 V2000
    0.2363    0.1332   10.0007 C   0  0  0  0  0  0  0  0  0  0  0  0
    1.2227    1.1287   10.4984 C   0  0  0  0  0  0  0  0  0  0  0  0
    2.0891    1.6726    9.5762 C   0  0  0  0  0  0  0  0  0  0  0  0
    3.0202    2.5944    9.9733 C   0  0  0  0  0  0  0  0  0  0  0  0
    3.0770    2.9707   11.3203 C   0  0  0  0  0  0  0  0  0  0  0  0
    2.2275    2.4466   12.2586 C   0  0  0  0  0  0  0  0  0  0  0  0
    1.2932    1.5141   11.8267 C   0  0  0  0  0  0  0  0  0  0  0  0
    4.1835    3.9252   11.3962 C   0  0  0  0  0  0  0  0  0  0  0  0
    4.5508    4.4929   12.4401 O   0  0  0  0  0  0  0  0  0  0  0  0
    4.7675    4.1085   10.1366 N   0  0  0  0  0  0  0  0  0  0  0  0
    5.8926    4.8545    9.6320 C   0  0  0  0  0  0  0  0  0  0  0  0
    6.7719    3.9658    8.7547 C   0  0  0  0  0  0  0  0  0  0  0  0
    5.9482    3.3349    7.7740 N   0  0  0  0  0  0  0  0  0  0  0  0
    4.9103    2.4812    8.3282 C   0  0  0  0  0  0  0  0  0  0  0  0
    4.0179    3.3231    9.1833 C   0  0  0  0  0  0  0  0  0  0  0  0
    6.4779    2.7929    7.0660 H   0  0  0  0  0  0  0  0  0  0  0  0
    2.3021    2.8681   13.6743 C   0  0  0  0  0  0  0  0  0  0  0  0
    2.0549    4.1874   13.8939 F   0  0  0  0  0  0  0  0  0  0  0  0
    3.5271    2.4708   14.2293 F   0  0  0  0  0  0  0  0  0  0  0  0
    1.3462    2.1605   14.4189 F   0  0  0  0  0  0  0  0  0  0  0  0
  1  2  1  0  0  0
  2  3  2  0  0  0
  3  4  1  0  0  0
  4  5  2  0  0  0
  5  6  1  0  0  0
  6 17  1  0  0  0
 17 18  1  0  0  0
 17 19  1  0  0  0
 17 20  1  0  0  0
  6  7  2  0  0  0
  5  8  1  0  0  0
  8  9  2  0  0  0
  8 10  1  0  0  0
 10 11  1  0  0  0
 11 12  1  0  0  0
 12 13  1  0  0  0
 13 14  1  0  0  0
 14 15  1  0  0  0
  7  2  1  0  0  0
 15 10  1  0  0  0
 15  4  1  0  0  0
 13 16  1  0  0  0
M  END
> <minimizedAffinity>
-4.20250

> <CNNscore>
0.4255257547

> <CNNaffinity>
3.8903872967

> <CNN_VS>
1.6554600000

> <CNNaffinity_variance>
0.1944107711

$$$$
[H]N=C1c2c([H])nc([H])nc2C([H])([H])[C@](c2c([H])c(-c3c([H])nc([H])c(Cl)c3[H])c([H])c([H])c2F)(C([H])([H])[H])N1[H]


 28 31  0  0  0  0  0  0  0  0999 V2000
    4.3901    5.2735   22.6920 C   0  0  0  0  0  0  0  0  0  0  0  0
    5.4103    4.9237   21.6516 C   0  0  0  0  0  0  0  0  0  0  0  0
    5.1783    5.8212   20.4607 C   0  0  0  0  0  0  0  0  0  0  0  0
    5.3405    7.2407   20.8291 C   0  0  0  0  0  0  0  0  0  0  0  0
    4.6358    8.1851   20.1740 N   0  0  0  0  0  0  0  0  0  0  0  0
    4.7540    9.4937   20.4588 C   0  0  0  0  0  0  0  0  0  0  0  0
    5.6119    9.8374   21.4342 N   0  0  0  0  0  0  0  0  0  0  0  0
    6.3426    8.9219   22.1216 C   0  0  0  0  0  0  0  0  0  0  0  0
    6.2162    7.5934   21.8259 C   0  0  0  0  0  0  0  0  0  0  0  0
    6.9835    6.5673   22.5636 C   0  0  0  0  0  0  0  0  0  0  0  0
    7.8015    6.8665   23.4822 N   0  0  0  0  0  0  0  0  0  0  0  0
    6.7409    5.2256   22.1645 N   0  0  0  0  0  0  0  0  0  0  0  0
    8.0684    7.7747   23.8587 H   0  0  0  0  0  0  0  0  0  0  0  0
    7.5087    4.5270   22.2536 H   0  0  0  0  0  0  0  0  0  0  0  0
    5.3114    3.5068   21.2161 C   0  0  0  0  0  0  0  0  0  0  0  0
    4.6465    3.1279   20.0710 C   0  0  0  0  0  0  0  0  0  0  0  0
    4.5632    1.7926   19.6847 C   0  0  0  0  0  0  0  0  0  0  0  0
    5.1711    0.8468   20.4875 C   0  0  0  0  0  0  0  0  0  0  0  0
    5.8536    1.1931   21.6547 C   0  0  0  0  0  0  0  0  0  0  0  0
    5.9037    2.5320   21.9885 C   0  0  0  0  0  0  0  0  0  0  0  0
    6.5612    2.9170   23.1216 F   0  0  0  0  0  0  0  0  0  0  0  0
    3.8649    1.3665   18.4794 C   0  0  0  0  0  0  0  0  0  0  0  0
    3.0522    0.2556   18.5160 C   0  0  0  0  0  0  0  0  0  0  0  0
    2.3900   -0.1688   17.4093 N   0  0  0  0  0  0  0  0  0  0  0  0
    2.4880    0.4656   16.2229 C   0  0  0  0  0  0  0  0  0  0  0  0
    3.2893    1.5767   16.1500 C   0  0  0  0  0  0  0  0  0  0  0  0
    3.4283    2.4093   14.6232 Cl  0  0  0  0  0  0  0  0  0  0  0  0
    3.9799    2.0310   17.2763 C   0  0  0  0  0  0  0  0  0  0  0  0
  2  1  1  0  0  0
  2 15  1  0  0  0
 15 16  2  0  0  0
 16 17  1  0  0  0
 17 22  1  0  0  0
 22 23  2  0  0  0
 23 24  1  0  0  0
 24 25  2  0  0  0
 25 26  1  0  0  0
 26 27  1  0  0  0
 26 28  2  0  0  0
 17 18  2  0  0  0
 18 19  1  0  0  0
 19 20  2  0  0  0
 20 21  1  0  0  0
  2  3  1  0  0  0
  3  4  1  0  0  0
  4  5  2  0  0  0
  5  6  1  0  0  0
  6  7  2  0  0  0
  7  8  1  0  0  0
  8  9  2  0  0  0
  9 10  1  0  0  0
 10 11  2  0  0  0
 10 12  1  0  0  0
 12  2  1  0  0  0
 20 15  1  0  0  0
  9  4  1  0  0  0
 28 22  1  0  0  0
 11 13  1  0  0  0
 12 14  1  0  0  0
M  END
> <minimizedAffinity>
-10.26813

> <CNNscore>
0.5714277625

> <CNNaffinity>
6.8853483200

> <CNN_VS>
3.9344792366

> <CNNaffinity_variance>
0.4123965800

$$$$
[H]N=C1c2c([H])nc([H])nc2C([H])([H])[C@](c2c([H])c(-c3c([H])nc([H])c(Cl)c3[H])c([H])c([H])c2F)(C([H])([H])[H])N1[H]


 28 31  0  0  0  0  0  0  0  0999 V2000
    2.6639    5.3850   12.2759 C   0  0  0  0  0  0  0  0  0  0  0  0
    3.5983    4.3384   12.8023 C   0  0  0  0  0  0  0  0  0  0  0  0
    3.1226    2.9998   12.2929 C   0  0  0  0  0  0  0  0  0  0  0  0
    3.1424    2.9583   10.8181 C   0  0  0  0  0  0  0  0  0  0  0  0
    2.2544    2.1859   10.1602 N   0  0  0  0  0  0  0  0  0  0  0  0
    2.2356    2.0996    8.8186 C   0  0  0  0  0  0  0  0  0  0  0  0
    3.1458    2.8200    8.1416 N   0  0  0  0  0  0  0  0  0  0  0  0
    4.0592    3.6119    8.7607 C   0  0  0  0  0  0  0  0  0  0  0  0
    4.0712    3.6941   10.1250 C   0  0  0  0  0  0  0  0  0  0  0  0
    5.0404    4.5577   10.8326 C   0  0  0  0  0  0  0  0  0  0  0  0
    5.9107    5.2409   10.2175 N   0  0  0  0  0  0  0  0  0  0  0  0
    4.9282    4.5610   12.2488 N   0  0  0  0  0  0  0  0  0  0  0  0
    6.0997    5.3257    9.2200 H   0  0  0  0  0  0  0  0  0  0  0  0
    5.7839    4.7197   12.8214 H   0  0  0  0  0  0  0  0  0  0  0  0
    3.6331    4.3063   14.2872 C   0  0  0  0  0  0  0  0  0  0  0  0
    3.4263    3.1515   15.0088 C   0  0  0  0  0  0  0  0  0  0  0  0
    3.4596    3.1463   16.4009 C   0  0  0  0  0  0  0  0  0  0  0  0
    3.7081    4.3417   17.0475 C   0  0  0  0  0  0  0  0  0  0  0  0
    3.9225    5.5314   16.3499 C   0  0  0  0  0  0  0  0  0  0  0  0
    3.8778    5.4769   14.9709 C   0  0  0  0  0  0  0  0  0  0  0  0
    4.0823    6.6166   14.2473 F   0  0  0  0  0  0  0  0  0  0  0  0
    3.2426    1.9390   17.1865 C   0  0  0  0  0  0  0  0  0  0  0  0
    2.5107    0.9002   16.6565 C   0  0  0  0  0  0  0  0  0  0  0  0
    2.2883   -0.2371   17.3641 N   0  0  0  0  0  0  0  0  0  0  0  0
    2.7659   -0.4139   18.6133 C   0  0  0  0  0  0  0  0  0  0  0  0
    3.4998    0.6011   19.1728 C   0  0  0  0  0  0  0  0  0  0  0  0
    4.1247    0.3897   20.7879 Cl  0  0  0  0  0  0  0  0  0  0  0  0
    3.7408    1.7798   18.4627 C   0  0  0  0  0  0  0  0  0  0  0  0
  2  1  1  0  0  0
  2 15  1  0  0  0
 15 16  2  0  0  0
 16 17  1  0  0  0
 17 22  1  0  0  0
 22 23  2  0  0  0
 23 24  1  0  0  0
 24 25  2  0  0  0
 25 26  1  0  0  0
 26 27  1  0  0  0
 26 28  2  0  0  0
 17 18  2  0  0  0
 18 19  1  0  0  0
 19 20  2  0  0  0
 20 21  1  0  0  0
  2  3  1  0  0  0
  3  4  1  0  0  0
  4  5  2  0  0  0
  5  6  1  0  0  0
  6  7  2  0  0  0
  7  8  1  0  0  0
  8  9  2  0  0  0
  9 10  1  0  0  0
 10 11  2  0  0  0
 10 12  1  0  0  0
 12  2  1  0  0  0
 20 15  1  0  0  0
  9  4  1  0  0  0
 28 22  1  0  0  0
 11 13  1  0  0  0
 12 14  1  0  0  0
M  END
> <minimizedAffinity>
-6.73478

> <CNNscore>
0.5448012352

> <CNNaffinity>
6.4163041115

> <CNN_VS>
3.4956104755

> <CNNaffinity_variance>
0.6820777655

$$$$
[H]N=C1c2c([H])nc([H])nc2C([H])([H])[C@](c2c([H])c(-c3c([H])nc([H])c(Cl)c3[H])c([H])c([H])c2F)(C([H])([H])[H])N1[H]


 28 31  0  0  0  0  0  0  0  0999 V2000
    5.9292    5.7812   19.7238 C   0  0  0  0  0  0  0  0  0  0  0  0
    5.6423    5.3227   21.1213 C   0  0  0  0  0  0  0  0  0  0  0  0
    6.9547    5.2646   21.8642 C   0  0  0  0  0  0  0  0  0  0  0  0
    7.5896    6.5953   21.9201 C   0  0  0  0  0  0  0  0  0  0  0  0
    8.9337    6.6923   21.9646 N   0  0  0  0  0  0  0  0  0  0  0  0
    9.5647    7.8776   22.0299 C   0  0  0  0  0  0  0  0  0  0  0  0
    8.8005    8.9827   22.0497 N   0  0  0  0  0  0  0  0  0  0  0  0
    7.4440    8.9346   22.0063 C   0  0  0  0  0  0  0  0  0  0  0  0
    6.8103    7.7253   21.9398 C   0  0  0  0  0  0  0  0  0  0  0  0
    5.3360    7.6347   21.8752 C   0  0  0  0  0  0  0  0  0  0  0  0
    4.5948    8.6607   21.8982 N   0  0  0  0  0  0  0  0  0  0  0  0
    4.8128    6.3166   21.7912 N   0  0  0  0  0  0  0  0  0  0  0  0
    4.8363    9.6486   21.9591 H   0  0  0  0  0  0  0  0  0  0  0  0
    3.8766    6.1192   22.2032 H   0  0  0  0  0  0  0  0  0  0  0  0
    5.0065    3.9805   21.1570 C   0  0  0  0  0  0  0  0  0  0  0  0
    4.5824    3.3305   20.0192 C   0  0  0  0  0  0  0  0  0  0  0  0
    3.9849    2.0740   20.0775 C   0  0  0  0  0  0  0  0  0  0  0  0
    3.8266    1.4889   21.3189 C   0  0  0  0  0  0  0  0  0  0  0  0
    4.2440    2.1170   22.4933 C   0  0  0  0  0  0  0  0  0  0  0  0
    4.8297    3.3618   22.3751 C   0  0  0  0  0  0  0  0  0  0  0  0
    5.2538    4.0133   23.4976 F   0  0  0  0  0  0  0  0  0  0  0  0
    3.5268    1.3671   18.8890 C   0  0  0  0  0  0  0  0  0  0  0  0
    2.9546    0.1208   19.0124 C   0  0  0  0  0  0  0  0  0  0  0  0
    2.5202   -0.5650   17.9240 N   0  0  0  0  0  0  0  0  0  0  0  0
    2.6223   -0.0713   16.6727 C   0  0  0  0  0  0  0  0  0  0  0  0
    3.1875    1.1684   16.5127 C   0  0  0  0  0  0  0  0  0  0  0  0
    3.3281    1.8221   14.9014 Cl  0  0  0  0  0  0  0  0  0  0  0  0
    3.6413    1.8916   17.6186 C   0  0  0  0  0  0  0  0  0  0  0  0
  2  1  1  0  0  0
  2 15  1  0  0  0
 15 16  2  0  0  0
 16 17  1  0  0  0
 17 22  1  0  0  0
 22 23  2  0  0  0
 23 24  1  0  0  0
 24 25  2  0  0  0
 25 26  1  0  0  0
 26 27  1  0  0  0
 26 28  2  0  0  0
 17 18  2  0  0  0
 18 19  1  0  0  0
 19 20  2  0  0  0
 20 21  1  0  0  0
  2  3  1  0  0  0
  3  4  1  0  0  0
  4  5  2  0  0  0
  5  6  1  0  0  0
  6  7  2  0  0  0
  7  8  1  0  0  0
  8  9  2  0  0  0
  9 10  1  0  0  0
 10 11  2  0  0  0
 10 12  1  0  0  0
 12  2  1  0  0  0
 20 15  1  0  0  0
  9  4  1  0  0  0
 28 22  1  0  0  0
 11 13  1  0  0  0
 12 14  1  0  0  0
M  END
> <minimizedAffinity>
-9.58967

> <CNNscore>
0.4882639647

> <CNNaffinity>
6.6020202637

> <CNN_VS>
3.2235286236

> <CNNaffinity_variance>
0.3219195008

$$$$
[H]N=C1c2c([H])nc([H])nc2C([H])([H])[C@](c2c([H])c(-c3c([H])nc([H])c(Cl)c3[H])c([H])c([H])c2F)(C([H])([H])[H])N1[H]


 28 31  0  0  0  0  0  0  0  0999 V2000
    3.5977    7.3872   15.2999 C   0  0  0  0  0  0  0  0  0  0  0  0
    3.5467    5.9098   15.0540 C   0  0  0  0  0  0  0  0  0  0  0  0
    2.0983    5.5227   14.8813 C   0  0  0  0  0  0  0  0  0  0  0  0
    1.4992    6.2190   13.7267 C   0  0  0  0  0  0  0  0  0  0  0  0
    0.1832    6.5123   13.7334 N   0  0  0  0  0  0  0  0  0  0  0  0
   -0.4177    7.1333   12.7034 C   0  0  0  0  0  0  0  0  0  0  0  0
    0.3478    7.4584   11.6480 N   0  0  0  0  0  0  0  0  0  0  0  0
    1.6769    7.1838   11.5963 C   0  0  0  0  0  0  0  0  0  0  0  0
    2.2800    6.5524   12.6479 C   0  0  0  0  0  0  0  0  0  0  0  0
    3.7275    6.2515   12.6336 C   0  0  0  0  0  0  0  0  0  0  0  0
    4.4680    6.5425   11.6490 N   0  0  0  0  0  0  0  0  0  0  0  0
    4.2245    5.6090   13.7991 N   0  0  0  0  0  0  0  0  0  0  0  0
    4.2425    6.9935   10.7638 H   0  0  0  0  0  0  0  0  0  0  0  0
    5.0369    4.9629   13.7104 H   0  0  0  0  0  0  0  0  0  0  0  0
    4.1255    5.1289   16.1776 C   0  0  0  0  0  0  0  0  0  0  0  0
    3.6109    3.9165   16.5803 C   0  0  0  0  0  0  0  0  0  0  0  0
    4.1677    3.2041   17.6393 C   0  0  0  0  0  0  0  0  0  0  0  0
    5.2615    3.7497   18.2831 C   0  0  0  0  0  0  0  0  0  0  0  0
    5.8103    4.9754   17.9030 C   0  0  0  0  0  0  0  0  0  0  0  0
    5.2170    5.6375   16.8465 C   0  0  0  0  0  0  0  0  0  0  0  0
    5.7207    6.8398   16.4400 F   0  0  0  0  0  0  0  0  0  0  0  0
    3.6411    1.9211   18.0849 C   0  0  0  0  0  0  0  0  0  0  0  0
    2.9083    1.1435   17.2166 C   0  0  0  0  0  0  0  0  0  0  0  0
    2.4014   -0.0557   17.6021 N   0  0  0  0  0  0  0  0  0  0  0  0
    2.5842   -0.5499   18.8440 C   0  0  0  0  0  0  0  0  0  0  0  0
    3.3099    0.1985   19.7356 C   0  0  0  0  0  0  0  0  0  0  0  0
    3.5556   -0.4250   21.3463 Cl  0  0  0  0  0  0  0  0  0  0  0  0
    3.8406    1.4352   19.3602 C   0  0  0  0  0  0  0  0  0  0  0  0
  2  1  1  0  0  0
  2 15  1  0  0  0
 15 16  2  0  0  0
 16 17  1  0  0  0
 17 22  1  0  0  0
 22 23  2  0  0  0
 23 24  1  0  0  0
 24 25  2  0  0  0
 25 26  1  0  0  0
 26 27  1  0  0  0
 26 28  2  0  0  0
 17 18  2  0  0  0
 18 19  1  0  0  0
 19 20  2  0  0  0
 20 21  1  0  0  0
  2  3  1  0  0  0
  3  4  1  0  0  0
  4  5  2  0  0  0
  5  6  1  0  0  0
  6  7  2  0  0  0
  7  8  1  0  0  0
  8  9  2  0  0  0
  9 10  1  0  0  0
 10 11  2  0  0  0
 10 12  1  0  0  0
 12  2  1  0  0  0
 20 15  1  0  0  0
  9  4  1  0  0  0
 28 22  1  0  0  0
 11 13  1  0  0  0
 12 14  1  0  0  0
M  END
> <minimizedAffinity>
-7.88409

> <CNNscore>
0.4211412668

> <CNNaffinity>
6.1883277893

> <CNN_VS>
2.6061601639

> <CNNaffinity_variance>
0.3409895301

$$$$
[H]N=C1c2c([H])nc([H])nc2C([H])([H])[C@](c2c([H])c(-c3c([H])nc([H])c(Cl)c3[H])c([H])c([H])c2F)(C([H])([H])[H])N1[H]


 28 31  0  0  0  0  0  0  0  0999 V2000
    6.0299    1.2976   20.4683 C   0  0  0  0  0  0  0  0  0  0  0  0
    5.0620    2.4386   20.5519 C   0  0  0  0  0  0  0  0  0  0  0  0
    4.5129    2.6776   19.1667 C   0  0  0  0  0  0  0  0  0  0  0  0
    3.8019    1.4851   18.6671 C   0  0  0  0  0  0  0  0  0  0  0  0
    3.7702    1.2329   17.3429 N   0  0  0  0  0  0  0  0  0  0  0  0
    3.1264    0.1691   16.8315 C   0  0  0  0  0  0  0  0  0  0  0  0
    2.5044   -0.6496   17.6965 N   0  0  0  0  0  0  0  0  0  0  0  0
    2.5093   -0.4365   19.0378 C   0  0  0  0  0  0  0  0  0  0  0  0
    3.1664    0.6473   19.5495 C   0  0  0  0  0  0  0  0  0  0  0  0
    3.2065    0.9026   21.0053 C   0  0  0  0  0  0  0  0  0  0  0  0
    2.6238    0.1493   21.8392 N   0  0  0  0  0  0  0  0  0  0  0  0
    3.9397    2.0541   21.3988 N   0  0  0  0  0  0  0  0  0  0  0  0
    2.0697   -0.6931   21.6935 H   0  0  0  0  0  0  0  0  0  0  0  0
    3.6508    2.5653   22.2593 H   0  0  0  0  0  0  0  0  0  0  0  0
    5.7007    3.6875   21.0412 C   0  0  0  0  0  0  0  0  0  0  0  0
    5.5439    4.8989   20.4047 C   0  0  0  0  0  0  0  0  0  0  0  0
    6.1559    6.0561   20.8795 C   0  0  0  0  0  0  0  0  0  0  0  0
    6.9328    5.9579   22.0176 C   0  0  0  0  0  0  0  0  0  0  0  0
    7.1144    4.7479   22.6893 C   0  0  0  0  0  0  0  0  0  0  0  0
    6.4838    3.6333   22.1731 C   0  0  0  0  0  0  0  0  0  0  0  0
    6.6330    2.4283   22.7978 F   0  0  0  0  0  0  0  0  0  0  0  0
    6.0068    7.3483   20.2237 C   0  0  0  0  0  0  0  0  0  0  0  0
    7.1250    8.0766   19.8848 C   0  0  0  0  0  0  0  0  0  0  0  0
    7.0197    9.2854   19.2754 N   0  0  0  0  0  0  0  0  0  0  0  0
    5.8272    9.8371   18.9696 C   0  0  0  0  0  0  0  0  0  0  0  0
    4.6916    9.1387   19.2929 C   0  0  0  0  0  0  0  0  0  0  0  0
    3.1408    9.8375   18.9053 Cl  0  0  0  0  0  0  0  0  0  0  0  0
    4.7767    7.8933   19.9203 C   0  0  0  0  0  0  0  0  0  0  0  0
  2  1  1  0  0  0
  2 15  1  0  0  0
 15 16  2  0  0  0
 16 17  1  0  0  0
 17 22  1  0  0  0
 22 23  2  0  0  0
 23 24  1  0  0  0
 24 25  2  0  0  0
 25 26  1  0  0  0
 26 27  1  0  0  0
 26 28  2  0  0  0
 17 18  2  0  0  0
 18 19  1  0  0  0
 19 20  2  0  0  0
 20 21  1  0  0  0
  2  3  1  0  0  0
  3  4  1  0  0  0
  4  5  2  0  0  0
  5  6  1  0  0  0
  6  7  2  0  0  0
  7  8  1  0  0  0
  8  9  2  0  0  0
  9 10  1  0  0  0
 10 11  2  0  0  0
 10 12  1  0  0  0
 12  2  1  0  0  0
 20 15  1  0  0  0
  9  4  1  0  0  0
 28 22  1  0  0  0
 11 13  1  0  0  0
 12 14  1  0  0  0
M  END
> <minimizedAffinity>
-8.82576

> <CNNscore>
0.3921948969

> <CNNaffinity>
6.3835830688

> <CNN_VS>
2.5036087036

> <CNNaffinity_variance>
0.6888066530

$$$$
[H]N=C1c2c([H])nc([H])nc2C([H])([H])[C@](c2c([H])c(-c3c([H])nc([H])c(Cl)c3[H])c([H])c([H])c2F)(C([H])([H])[H])N1[H]


 28 31  0  0  0  0  0  0  0  0999 V2000
    4.0536    5.3034   22.0750 C   0  0  0  0  0  0  0  0  0  0  0  0
    5.0578    5.0199   20.9994 C   0  0  0  0  0  0  0  0  0  0  0  0
    4.9692    6.1324   19.9835 C   0  0  0  0  0  0  0  0  0  0  0  0
    5.2847    7.4360   20.5985 C   0  0  0  0  0  0  0  0  0  0  0  0
    4.7158    8.5580   20.1135 N   0  0  0  0  0  0  0  0  0  0  0  0
    4.9773    9.7731   20.6262 C   0  0  0  0  0  0  0  0  0  0  0  0
    5.8388    9.8357   21.6555 N   0  0  0  0  0  0  0  0  0  0  0  0
    6.4358    8.7331   22.1776 C   0  0  0  0  0  0  0  0  0  0  0  0
    6.1642    7.5016   21.6506 C   0  0  0  0  0  0  0  0  0  0  0  0
    6.7831    6.2777   22.2031 C   0  0  0  0  0  0  0  0  0  0  0  0
    7.6017    6.3116   23.1681 N   0  0  0  0  0  0  0  0  0  0  0  0
    6.3980    5.0653   21.5707 N   0  0  0  0  0  0  0  0  0  0  0  0
    7.9610    7.1015   23.7018 H   0  0  0  0  0  0  0  0  0  0  0  0
    7.0757    4.2746   21.5427 H   0  0  0  0  0  0  0  0  0  0  0  0
    4.8075    3.7229   20.3195 C   0  0  0  0  0  0  0  0  0  0  0  0
    4.3910    3.6410   19.0092 C   0  0  0  0  0  0  0  0  0  0  0  0
    4.1586    2.4137   18.3938 C   0  0  0  0  0  0  0  0  0  0  0  0
    4.3586    1.2673   19.1385 C   0  0  0  0  0  0  0  0  0  0  0  0
    4.7804    1.3112   20.4682 C   0  0  0  0  0  0  0  0  0  0  0  0
    4.9951    2.5557   21.0265 C   0  0  0  0  0  0  0  0  0  0  0  0
    5.4087    2.6465   22.3246 F   0  0  0  0  0  0  0  0  0  0  0  0
    3.7164    2.3007   17.0104 C   0  0  0  0  0  0  0  0  0  0  0  0
    2.9422    1.2294   16.6249 C   0  0  0  0  0  0  0  0  0  0  0  0
    2.5165    1.0939   15.3427 N   0  0  0  0  0  0  0  0  0  0  0  0
    2.8233    1.9905   14.3826 C   0  0  0  0  0  0  0  0  0  0  0  0
    3.5934    3.0708   14.7315 C   0  0  0  0  0  0  0  0  0  0  0  0
    4.0004    4.2400   13.5023 Cl  0  0  0  0  0  0  0  0  0  0  0  0
    4.0423    3.2301   16.0449 C   0  0  0  0  0  0  0  0  0  0  0  0
  2  1  1  0  0  0
  2 15  1  0  0  0
 15 16  2  0  0  0
 16 17  1  0  0  0
 17 22  1  0  0  0
 22 23  2  0  0  0
 23 24  1  0  0  0
 24 25  2  0  0  0
 25 26  1  0  0  0
 26 27  1  0  0  0
 26 28  2  0  0  0
 17 18  2  0  0  0
 18 19  1  0  0  0
 19 20  2  0  0  0
 20 21  1  0  0  0
  2  3  1  0  0  0
  3  4  1  0  0  0
  4  5  2  0  0  0
  5  6  1  0  0  0
  6  7  2  0  0  0
  7  8  1  0  0  0
  8  9  2  0  0  0
  9 10  1  0  0  0
 10 11  2  0  0  0
 10 12  1  0  0  0
 12  2  1  0  0  0
 20 15  1  0  0  0
  9  4  1  0  0  0
 28 22  1  0  0  0
 11 13  1  0  0  0
 12 14  1  0  0  0
M  END
> <minimizedAffinity>
-9.57365

> <CNNscore>
0.2893407941

> <CNNaffinity>
6.4633116722

> <CNN_VS>
1.8700997829

> <CNNaffinity_variance>
0.4432109296

$$$$
[H]N=C1c2c([H])nc([H])nc2C([H])([H])[C@](c2c([H])c(-c3c([H])nc([H])c(Cl)c3[H])c([H])c([H])c2F)(C([H])([H])[H])N1[H]


 28 31  0  0  0  0  0  0  0  0999 V2000
    5.4402    1.3799   17.4761 C   0  0  0  0  0  0  0  0  0  0  0  0
    4.3577    2.1382   18.1824 C   0  0  0  0  0  0  0  0  0  0  0  0
    4.0935    3.3998   17.3975 C   0  0  0  0  0  0  0  0  0  0  0  0
    3.6404    3.0857   16.0290 C   0  0  0  0  0  0  0  0  0  0  0  0
    3.9193    3.9372   15.0215 N   0  0  0  0  0  0  0  0  0  0  0  0
    3.5199    3.7081   13.7584 C   0  0  0  0  0  0  0  0  0  0  0  0
    2.8213    2.5838   13.5269 N   0  0  0  0  0  0  0  0  0  0  0  0
    2.5170    1.6967   14.5093 C   0  0  0  0  0  0  0  0  0  0  0  0
    2.9271    1.9372   15.7907 C   0  0  0  0  0  0  0  0  0  0  0  0
    2.6279    0.9864   16.8827 C   0  0  0  0  0  0  0  0  0  0  0  0
    1.9670   -0.0761   16.6908 N   0  0  0  0  0  0  0  0  0  0  0  0
    3.1297    1.3531   18.1602 N   0  0  0  0  0  0  0  0  0  0  0  0
    1.5524   -0.4511   15.8391 H   0  0  0  0  0  0  0  0  0  0  0  0
    2.6099    1.0514   19.0111 H   0  0  0  0  0  0  0  0  0  0  0  0
    4.7366    2.5032   19.5717 C   0  0  0  0  0  0  0  0  0  0  0  0
    5.1973    3.7565   19.9095 C   0  0  0  0  0  0  0  0  0  0  0  0
    5.5507    4.0746   21.2184 C   0  0  0  0  0  0  0  0  0  0  0  0
    5.4262    3.0910   22.1804 C   0  0  0  0  0  0  0  0  0  0  0  0
    4.9630    1.8101   21.8756 C   0  0  0  0  0  0  0  0  0  0  0  0
    4.6275    1.5513   20.5614 C   0  0  0  0  0  0  0  0  0  0  0  0
    4.1693    0.3119   20.2174 F   0  0  0  0  0  0  0  0  0  0  0  0
    6.0417    5.3918   21.6005 C   0  0  0  0  0  0  0  0  0  0  0  0
    7.2819    5.5165   22.1853 C   0  0  0  0  0  0  0  0  0  0  0  0
    7.7668    6.7295   22.5554 N   0  0  0  0  0  0  0  0  0  0  0  0
    7.0702    7.8704   22.3738 C   0  0  0  0  0  0  0  0  0  0  0  0
    5.8302    7.7834   21.7935 C   0  0  0  0  0  0  0  0  0  0  0  0
    4.9150    9.2488   21.5515 Cl  0  0  0  0  0  0  0  0  0  0  0  0
    5.3117    6.5456   21.4050 C   0  0  0  0  0  0  0  0  0  0  0  0
  2  1  1  0  0  0
  2 15  1  0  0  0
 15 16  2  0  0  0
 16 17  1  0  0  0
 17 22  1  0  0  0
 22 23  2  0  0  0
 23 24  1  0  0  0
 24 25  2  0  0  0
 25 26  1  0  0  0
 26 27  1  0  0  0
 26 28  2  0  0  0
 17 18  2  0  0  0
 18 19  1  0  0  0
 19 20  2  0  0  0
 20 21  1  0  0  0
  2  3  1  0  0  0
  3  4  1  0  0  0
  4  5  2  0  0  0
  5  6  1  0  0  0
  6  7  2  0  0  0
  7  8  1  0  0  0
  8  9  2  0  0  0
  9 10  1  0  0  0
 10 11  2  0  0  0
 10 12  1  0  0  0
 12  2  1  0  0  0
 20 15  1  0  0  0
  9  4  1  0  0  0
 28 22  1  0  0  0
 11 13  1  0  0  0
 12 14  1  0  0  0
M  END
> <minimizedAffinity>
-8.61058

> <CNNscore>
0.2856511176

> <CNNaffinity>
6.3103265762

> <CNN_VS>
1.8025518656

> <CNNaffinity_variance>
0.9333018064

$$$$
[H]N=C1c2c([H])nc([H])nc2C([H])([H])[C@](c2c([H])c(-c3c([H])nc([H])c(Cl)c3[H])c([H])c([H])c2F)(C([H])([H])[H])N1[H]


 28 31  0  0  0  0  0  0  0  0999 V2000
    2.2759    5.3371   15.6928 C   0  0  0  0  0  0  0  0  0  0  0  0
    3.5070    4.4987   15.8574 C   0  0  0  0  0  0  0  0  0  0  0  0
    3.1087    3.0555   15.6674 C   0  0  0  0  0  0  0  0  0  0  0  0
    2.5574    2.8328   14.3170 C   0  0  0  0  0  0  0  0  0  0  0  0
    1.6306    1.8727   14.1243 N   0  0  0  0  0  0  0  0  0  0  0  0
    1.1043    1.6176   12.9138 C   0  0  0  0  0  0  0  0  0  0  0  0
    1.5385    2.3626   11.8832 N   0  0  0  0  0  0  0  0  0  0  0  0
    2.4697    3.3405   12.0289 C   0  0  0  0  0  0  0  0  0  0  0  0
    2.9995    3.5935   13.2632 C   0  0  0  0  0  0  0  0  0  0  0  0
    4.0034    4.6604   13.4626 C   0  0  0  0  0  0  0  0  0  0  0  0
    4.4321    5.3714   12.5070 N   0  0  0  0  0  0  0  0  0  0  0  0
    4.4548    4.8258   14.7995 N   0  0  0  0  0  0  0  0  0  0  0  0
    4.1986    5.3551   11.5154 H   0  0  0  0  0  0  0  0  0  0  0  0
    5.4249    5.1676   14.9648 H   0  0  0  0  0  0  0  0  0  0  0  0
    4.1243    4.6574   17.1994 C   0  0  0  0  0  0  0  0  0  0  0  0
    3.8985    3.7708   18.2289 C   0  0  0  0  0  0  0  0  0  0  0  0
    4.4850    3.9423   19.4802 C   0  0  0  0  0  0  0  0  0  0  0  0
    5.3083    5.0362   19.6653 C   0  0  0  0  0  0  0  0  0  0  0  0
    5.5605    5.9554   18.6458 C   0  0  0  0  0  0  0  0  0  0  0  0
    4.9520    5.7350   17.4261 C   0  0  0  0  0  0  0  0  0  0  0  0
    5.1705    6.6084   16.3995 F   0  0  0  0  0  0  0  0  0  0  0  0
    4.2607    3.0198   20.5850 C   0  0  0  0  0  0  0  0  0  0  0  0
    4.2962    3.4831   21.8811 C   0  0  0  0  0  0  0  0  0  0  0  0
    4.0941    2.6483   22.9327 N   0  0  0  0  0  0  0  0  0  0  0  0
    3.8493    1.3315   22.7713 C   0  0  0  0  0  0  0  0  0  0  0  0
    3.8067    0.8355   21.4929 C   0  0  0  0  0  0  0  0  0  0  0  0
    3.4919   -0.8653   21.2655 Cl  0  0  0  0  0  0  0  0  0  0  0  0
    4.0119    1.6764   20.3963 C   0  0  0  0  0  0  0  0  0  0  0  0
  2  1  1  0  0  0
  2 15  1  0  0  0
 15 16  2  0  0  0
 16 17  1  0  0  0
 17 22  1  0  0  0
 22 23  2  0  0  0
 23 24  1  0  0  0
 24 25  2  0  0  0
 25 26  1  0  0  0
 26 27  1  0  0  0
 26 28  2  0  0  0
 17 18  2  0  0  0
 18 19  1  0  0  0
 19 20  2  0  0  0
 20 21  1  0  0  0
  2  3  1  0  0  0
  3  4  1  0  0  0
  4  5  2  0  0  0
  5  6  1  0  0  0
  6  7  2  0  0  0
  7  8  1  0  0  0
  8  9  2  0  0  0
  9 10  1  0  0  0
 10 11  2  0  0  0
 10 12  1  0  0  0
 12  2  1  0  0  0
 20 15  1  0  0  0
  9  4  1  0  0  0
 28 22  1  0  0  0
 11 13  1  0  0  0
 12 14  1  0  0  0
M  END
> <minimizedAffinity>
-7.97211

> <CNNscore>
0.2536756694

> <CNNaffinity>
6.4518103600

> <CNN_VS>
1.6366673708

> <CNNaffinity_variance>
0.5710821748

$$$$
[H]N=C1c2c([H])nc([H])nc2C([H])([H])[C@](c2c([H])c(-c3c([H])nc([H])c(Cl)c3[H])c([H])c([H])c2F)(C([H])([H])[H])N1[H]


 28 31  0  0  0  0  0  0  0  0999 V2000
    4.5832    8.1299   19.5456 C   0  0  0  0  0  0  0  0  0  0  0  0
    5.5471    7.0665   19.1144 C   0  0  0  0  0  0  0  0  0  0  0  0
    5.1765    6.6523   17.7113 C   0  0  0  0  0  0  0  0  0  0  0  0
    5.2766    7.7923   16.7800 C   0  0  0  0  0  0  0  0  0  0  0  0
    4.4704    7.8452   15.7005 N   0  0  0  0  0  0  0  0  0  0  0  0
    4.5275    8.8527   14.8122 C   0  0  0  0  0  0  0  0  0  0  0  0
    5.4294    9.8230   15.0377 N   0  0  0  0  0  0  0  0  0  0  0  0
    6.2618    9.8128   16.1107 C   0  0  0  0  0  0  0  0  0  0  0  0
    6.1970    8.7847   17.0091 C   0  0  0  0  0  0  0  0  0  0  0  0
    7.0763    8.7481   18.1972 C   0  0  0  0  0  0  0  0  0  0  0  0
    7.9372    9.6470   18.4280 N   0  0  0  0  0  0  0  0  0  0  0  0
    6.8894    7.6315   19.0554 N   0  0  0  0  0  0  0  0  0  0  0  0
    8.1735   10.4860   17.9007 H   0  0  0  0  0  0  0  0  0  0  0  0
    7.7031    7.2704   19.5965 H   0  0  0  0  0  0  0  0  0  0  0  0
    5.5052    5.8730   19.9981 C   0  0  0  0  0  0  0  0  0  0  0  0
    4.9254    4.6847   19.6121 C   0  0  0  0  0  0  0  0  0  0  0  0
    4.8942    3.5800   20.4593 C   0  0  0  0  0  0  0  0  0  0  0  0
    5.4659    3.7069   21.7106 C   0  0  0  0  0  0  0  0  0  0  0  0
    6.0625    4.8948   22.1362 C   0  0  0  0  0  0  0  0  0  0  0  0
    6.0640    5.9572   21.2543 C   0  0  0  0  0  0  0  0  0  0  0  0
    6.6370    7.1388   21.6282 F   0  0  0  0  0  0  0  0  0  0  0  0
    4.2860    2.3134   20.0751 C   0  0  0  0  0  0  0  0  0  0  0  0
    4.0502    2.0430   18.7458 C   0  0  0  0  0  0  0  0  0  0  0  0
    3.4823    0.8731   18.3555 N   0  0  0  0  0  0  0  0  0  0  0  0
    3.1202   -0.0819   19.2368 C   0  0  0  0  0  0  0  0  0  0  0  0
    3.3406    0.1540   20.5701 C   0  0  0  0  0  0  0  0  0  0  0  0
    2.8778   -1.0699   21.7240 Cl  0  0  0  0  0  0  0  0  0  0  0  0
    3.9236    1.3508   20.9940 C   0  0  0  0  0  0  0  0  0  0  0  0
  2  1  1  0  0  0
  2 15  1  0  0  0
 15 16  2  0  0  0
 16 17  1  0  0  0
 17 22  1  0  0  0
 22 23  2  0  0  0
 23 24  1  0  0  0
 24 25  2  0  0  0
 25 26  1  0  0  0
 26 27  1  0  0  0
 26 28  2  0  0  0
 17 18  2  0  0  0
 18 19  1  0  0  0
 19 20  2  0  0  0
 20 21  1  0  0  0
  2  3  1  0  0  0
  3  4  1  0  0  0
  4  5  2  0  0  0
  5  6  1  0  0  0
  6  7  2  0  0  0
  7  8  1  0  0  0
  8  9  2  0  0  0
  9 10  1  0  0  0
 10 11  2  0  0  0
 10 12  1  0  0  0
 12  2  1  0  0  0
 20 15  1  0  0  0
  9  4  1  0  0  0
 28 22  1  0  0  0
 11 13  1  0  0  0
 12 14  1  0  0  0
M  END
> <minimizedAffinity>
-7.42720

> <CNNscore>
0.2162336558

> <CNNaffinity>
5.9277515411

> <CNN_VS>
1.2817794085

> <CNNaffinity_variance>
0.4713090062

$$$$
[H]/C(C(=O)/C([H])=C(\[H])c1c([H])c([H])c(F)c([H])c1[H])=C(/[H])c1c([H])c([H])c(F)c([H])c1[H]


 20 21  0  0  0  0  0  0  0  0999 V2000
    2.3187   -0.6579   17.3281 O   0  0  0  0  0  0  0  0  0  0  0  0
    2.9851    0.4859   17.3930 C   0  0  0  0  0  0  0  0  0  0  0  0
    3.0897    1.1268   16.1402 C   0  0  0  0  0  0  0  0  0  0  0  0
    3.0848    2.3716   15.7741 C   0  0  0  0  0  0  0  0  0  0  0  0
    3.2110    2.8161   14.3705 C   0  0  0  0  0  0  0  0  0  0  0  0
    2.5732    2.0462   13.3886 C   0  0  0  0  0  0  0  0  0  0  0  0
    2.6244    2.3660   12.0565 C   0  0  0  0  0  0  0  0  0  0  0  0
    3.3198    3.4723   11.6678 C   0  0  0  0  0  0  0  0  0  0  0  0
    3.3754    3.7977   10.3412 F   0  0  0  0  0  0  0  0  0  0  0  0
    3.9518    4.2379   12.6265 C   0  0  0  0  0  0  0  0  0  0  0  0
    3.8952    3.9066   13.9778 C   0  0  0  0  0  0  0  0  0  0  0  0
    3.4319    0.7955   18.6877 C   0  0  0  0  0  0  0  0  0  0  0  0
    4.4044    1.5584   19.0773 C   0  0  0  0  0  0  0  0  0  0  0  0
    4.7039    1.7454   20.5053 C   0  0  0  0  0  0  0  0  0  0  0  0
    5.8655    2.2166   21.0110 C   0  0  0  0  0  0  0  0  0  0  0  0
    6.1016    2.3765   22.3829 C   0  0  0  0  0  0  0  0  0  0  0  0
    5.1165    2.0438   23.2755 C   0  0  0  0  0  0  0  0  0  0  0  0
    5.2736    2.1717   24.6142 F   0  0  0  0  0  0  0  0  0  0  0  0
    3.9152    1.5575   22.7708 C   0  0  0  0  0  0  0  0  0  0  0  0
    3.7021    1.4080   21.4315 C   0  0  0  0  0  0  0  0  0  0  0  0
  1  2  2  0  0  0
  2  3  1  0  0  0
  3  4  2  0  0  0
  4  5  1  0  0  0
  5  6  2  0  0  0
  6  7  1  0  0  0
  7  8  2  0  0  0
  8  9  1  0  0  0
  8 10  1  0  0  0
 10 11  2  0  0  0
  2 12  1  0  0  0
 12 13  2  0  0  0
 13 14  1  0  0  0
 14 15  2  0  0  0
 15 16  1  0  0  0
 16 17  2  0  0  0
 17 18  1  0  0  0
 17 19  1  0  0  0
 19 20  2  0  0  0
 11  5  1  0  0  0
 20 14  1  0  0  0
M  END
> <minimizedAffinity>
-7.77610

> <CNNscore>
0.8290730715

> <CNNaffinity>
5.6366224289

> <CNN_VS>
4.6731719971

> <CNNaffinity_variance>
0.1871438920

$$$$
[H]/C(C(=O)/C([H])=C(\[H])c1c([H])c([H])c(F)c([H])c1[H])=C(/[H])c1c([H])c([H])c(F)c([H])c1[H]


 20 21  0  0  0  0  0  0  0  0999 V2000
    2.3306   -0.5747   17.4293 O   0  0  0  0  0  0  0  0  0  0  0  0
    2.9839    0.5769   17.3711 C   0  0  0  0  0  0  0  0  0  0  0  0
    3.5867    0.9234   18.5991 C   0  0  0  0  0  0  0  0  0  0  0  0
    3.4911    0.4485   19.8028 C   0  0  0  0  0  0  0  0  0  0  0  0
    4.2368    0.9858   20.9600 C   0  0  0  0  0  0  0  0  0  0  0  0
    3.5085    1.2697   22.1231 C   0  0  0  0  0  0  0  0  0  0  0  0
    4.0981    1.7708   23.2547 C   0  0  0  0  0  0  0  0  0  0  0  0
    5.4415    2.0031   23.2536 C   0  0  0  0  0  0  0  0  0  0  0  0
    6.0366    2.5028   24.3784 F   0  0  0  0  0  0  0  0  0  0  0  0
    6.1685    1.7270   22.1135 C   0  0  0  0  0  0  0  0  0  0  0  0
    5.5624    1.2182   20.9677 C   0  0  0  0  0  0  0  0  0  0  0  0
    2.9263    1.1848   16.1067 C   0  0  0  0  0  0  0  0  0  0  0  0
    3.5141    2.2513   15.6632 C   0  0  0  0  0  0  0  0  0  0  0  0
    3.3110    2.7180   14.2831 C   0  0  0  0  0  0  0  0  0  0  0  0
    2.6103    2.0679   13.3273 C   0  0  0  0  0  0  0  0  0  0  0  0
    2.4458    2.5561   12.0242 C   0  0  0  0  0  0  0  0  0  0  0  0
    3.0171    3.7533   11.6802 C   0  0  0  0  0  0  0  0  0  0  0  0
    2.9002    4.2862   10.4410 F   0  0  0  0  0  0  0  0  0  0  0  0
    3.7413    4.4345   12.6526 C   0  0  0  0  0  0  0  0  0  0  0  0
    3.8915    3.9444   13.9171 C   0  0  0  0  0  0  0  0  0  0  0  0
  1  2  2  0  0  0
  2  3  1  0  0  0
  3  4  2  0  0  0
  4  5  1  0  0  0
  5  6  2  0  0  0
  6  7  1  0  0  0
  7  8  2  0  0  0
  8  9  1  0  0  0
  8 10  1  0  0  0
 10 11  2  0  0  0
  2 12  1  0  0  0
 12 13  2  0  0  0
 13 14  1  0  0  0
 14 15  2  0  0  0
 15 16  1  0  0  0
 16 17  2  0  0  0
 17 18  1  0  0  0
 17 19  1  0  0  0
 19 20  2  0  0  0
 11  5  1  0  0  0
 20 14  1  0  0  0
M  END
> <minimizedAffinity>
-7.72511

> <CNNscore>
0.8183208108

> <CNNaffinity>
5.5533871651

> <CNN_VS>
4.5444521904

> <CNNaffinity_variance>
0.1518299878

$$$$
[H]/C(C(=O)/C([H])=C(\[H])c1c([H])c([H])c(F)c([H])c1[H])=C(/[H])c1c([H])c([H])c(F)c([H])c1[H]


 20 21  0  0  0  0  0  0  0  0999 V2000
    2.3200   -0.6641   17.3601 O   0  0  0  0  0  0  0  0  0  0  0  0
    2.9732    0.4887   17.3885 C   0  0  0  0  0  0  0  0  0  0  0  0
    3.4441    0.8160   18.6778 C   0  0  0  0  0  0  0  0  0  0  0  0
    4.4311    1.5403   19.1075 C   0  0  0  0  0  0  0  0  0  0  0  0
    4.7389    1.7444   20.5384 C   0  0  0  0  0  0  0  0  0  0  0  0
    3.7327    1.4421   21.4657 C   0  0  0  0  0  0  0  0  0  0  0  0
    3.9095    1.5937   22.8167 C   0  0  0  0  0  0  0  0  0  0  0  0
    5.1058    2.0550   23.2799 C   0  0  0  0  0  0  0  0  0  0  0  0
    5.2896    2.2089   24.6258 F   0  0  0  0  0  0  0  0  0  0  0  0
    6.1039    2.3558   22.3754 C   0  0  0  0  0  0  0  0  0  0  0  0
    5.9168    2.1992   21.0045 C   0  0  0  0  0  0  0  0  0  0  0  0
    3.0462    1.1165   16.1346 C   0  0  0  0  0  0  0  0  0  0  0  0
    3.2631    2.3577   15.8314 C   0  0  0  0  0  0  0  0  0  0  0  0
    3.2986    2.8074   14.4313 C   0  0  0  0  0  0  0  0  0  0  0  0
    3.9323    3.9105   13.9746 C   0  0  0  0  0  0  0  0  0  0  0  0
    3.9361    4.2965   12.6276 C   0  0  0  0  0  0  0  0  0  0  0  0
    3.2686    3.5293   11.7090 C   0  0  0  0  0  0  0  0  0  0  0  0
    3.2291    3.8404   10.3919 F   0  0  0  0  0  0  0  0  0  0  0  0
    2.6115    2.3909   12.1633 C   0  0  0  0  0  0  0  0  0  0  0  0
    2.6180    2.0297   13.4790 C   0  0  0  0  0  0  0  0  0  0  0  0
  1  2  2  0  0  0
  2  3  1  0  0  0
  3  4  2  0  0  0
  4  5  1  0  0  0
  5  6  2  0  0  0
  6  7  1  0  0  0
  7  8  2  0  0  0
  8  9  1  0  0  0
  8 10  1  0  0  0
 10 11  2  0  0  0
  2 12  1  0  0  0
 12 13  2  0  0  0
 13 14  1  0  0  0
 14 15  2  0  0  0
 15 16  1  0  0  0
 16 17  2  0  0  0
 17 18  1  0  0  0
 17 19  1  0  0  0
 19 20  2  0  0  0
 11  5  1  0  0  0
 20 14  1  0  0  0
M  END
> <minimizedAffinity>
-7.80457

> <CNNscore>
0.8143514395

> <CNNaffinity>
5.6235842705

> <CNN_VS>
4.5795741081

> <CNNaffinity_variance>
0.1970708221

$$$$
[H]/C(C(=O)/C([H])=C(\[H])c1c([H])c([H])c(F)c([H])c1[H])=C(/[H])c1c([H])c([H])c(F)c([H])c1[H]


 20 21  0  0  0  0  0  0  0  0999 V2000
    2.3708   -0.7213   17.3101 O   0  0  0  0  0  0  0  0  0  0  0  0
    2.9263    0.4797   17.3840 C   0  0  0  0  0  0  0  0  0  0  0  0
    3.3345    0.8112   18.6935 C   0  0  0  0  0  0  0  0  0  0  0  0
    4.4394    1.2754   19.1906 C   0  0  0  0  0  0  0  0  0  0  0  0
    4.6419    1.5517   20.6281 C   0  0  0  0  0  0  0  0  0  0  0  0
    5.9508    1.8050   21.0597 C   0  0  0  0  0  0  0  0  0  0  0  0
    6.2532    2.0729   22.3698 C   0  0  0  0  0  0  0  0  0  0  0  0
    5.2474    2.0949   23.2899 C   0  0  0  0  0  0  0  0  0  0  0  0
    5.5412    2.3612   24.5982 F   0  0  0  0  0  0  0  0  0  0  0  0
    3.9545    1.8468   22.8757 C   0  0  0  0  0  0  0  0  0  0  0  0
    3.6552    1.5754   21.5432 C   0  0  0  0  0  0  0  0  0  0  0  0
    2.9805    1.1433   16.1477 C   0  0  0  0  0  0  0  0  0  0  0  0
    3.4100    2.3301   15.8529 C   0  0  0  0  0  0  0  0  0  0  0  0
    3.3745    2.8343   14.4715 C   0  0  0  0  0  0  0  0  0  0  0  0
    3.9477    3.9784   14.0361 C   0  0  0  0  0  0  0  0  0  0  0  0
    3.8850    4.4156   12.7063 C   0  0  0  0  0  0  0  0  0  0  0  0
    3.2123    3.6585   11.7831 C   0  0  0  0  0  0  0  0  0  0  0  0
    3.1105    4.0182   10.4818 F   0  0  0  0  0  0  0  0  0  0  0  0
    2.6171    2.4784   12.2155 C   0  0  0  0  0  0  0  0  0  0  0  0
    2.6879    2.0674   13.5146 C   0  0  0  0  0  0  0  0  0  0  0  0
  1  2  2  0  0  0
  2  3  1  0  0  0
  3  4  2  0  0  0
  4  5  1  0  0  0
  5  6  2  0  0  0
  6  7  1  0  0  0
  7  8  2  0  0  0
  8  9  1  0  0  0
  8 10  1  0  0  0
 10 11  2  0  0  0
  2 12  1  0  0  0
 12 13  2  0  0  0
 13 14  1  0  0  0
 14 15  2  0  0  0
 15 16  1  0  0  0
 16 17  2  0  0  0
 17 18  1  0  0  0
 17 19  1  0  0  0
 19 20  2  0  0  0
 11  5  1  0  0  0
 20 14  1  0  0  0
M  END
> <minimizedAffinity>
-7.72809

> <CNNscore>
0.7968063354

> <CNNaffinity>
5.5762643814

> <CNN_VS>
4.4432029724

> <CNNaffinity_variance>
0.2033963948

$$$$
[H]/C(C(=O)/C([H])=C(\[H])c1c([H])c([H])c(F)c([H])c1[H])=C(/[H])c1c([H])c([H])c(F)c([H])c1[H]


 20 21  0  0  0  0  0  0  0  0999 V2000
    4.2457    4.0824   13.7749 O   0  0  0  0  0  0  0  0  0  0  0  0
    3.7354    4.4585   12.6110 C   0  0  0  0  0  0  0  0  0  0  0  0
    4.6091    4.2164   11.5297 C   0  0  0  0  0  0  0  0  0  0  0  0
    5.6378    4.8506   11.0575 C   0  0  0  0  0  0  0  0  0  0  0  0
    6.4167    4.3971    9.8864 C   0  0  0  0  0  0  0  0  0  0  0  0
    6.4056    3.0266    9.5940 C   0  0  0  0  0  0  0  0  0  0  0  0
    7.0922    2.4967    8.5323 C   0  0  0  0  0  0  0  0  0  0  0  0
    7.8135    3.3290    7.7288 C   0  0  0  0  0  0  0  0  0  0  0  0
    8.5008    2.8080    6.6682 F   0  0  0  0  0  0  0  0  0  0  0  0
    7.8313    4.6806    8.0077 C   0  0  0  0  0  0  0  0  0  0  0  0
    7.1313    5.2114    9.0880 C   0  0  0  0  0  0  0  0  0  0  0  0
    2.4482    5.0089   12.7210 C   0  0  0  0  0  0  0  0  0  0  0  0
    1.3220    4.4482   13.0321 C   0  0  0  0  0  0  0  0  0  0  0  0
    0.0728    5.2229   13.0893 C   0  0  0  0  0  0  0  0  0  0  0  0
   -0.9824    5.0777   12.2571 C   0  0  0  0  0  0  0  0  0  0  0  0
   -2.1525    5.8425   12.3537 C   0  0  0  0  0  0  0  0  0  0  0  0
   -2.2528    6.7926   13.3361 C   0  0  0  0  0  0  0  0  0  0  0  0
   -3.3521    7.5680   13.4895 F   0  0  0  0  0  0  0  0  0  0  0  0
   -1.1753    6.9542   14.2005 C   0  0  0  0  0  0  0  0  0  0  0  0
   -0.0430    6.2007   14.0921 C   0  0  0  0  0  0  0  0  0  0  0  0
  1  2  2  0  0  0
  2  3  1  0  0  0
  3  4  2  0  0  0
  4  5  1  0  0  0
  5  6  2  0  0  0
  6  7  1  0  0  0
  7  8  2  0  0  0
  8  9  1  0  0  0
  8 10  1  0  0  0
 10 11  2  0  0  0
  2 12  1  0  0  0
 12 13  2  0  0  0
 13 14  1  0  0  0
 14 15  2  0  0  0
 15 16  1  0  0  0
 16 17  2  0  0  0
 17 18  1  0  0  0
 17 19  1  0  0  0
 19 20  2  0  0  0
 11  5  1  0  0  0
 20 14  1  0  0  0
M  END
> <minimizedAffinity>
-4.88983

> <CNNscore>
0.6574652791

> <CNNaffinity>
4.1397690773

> <CNN_VS>
2.7217545509

> <CNNaffinity_variance>
0.1821573973

$$$$
[H]/C(C(=O)/C([H])=C(\[H])c1c([H])c([H])c(F)c([H])c1[H])=C(/[H])c1c([H])c([H])c(F)c([H])c1[H]


 20 21  0  0  0  0  0  0  0  0999 V2000
    2.6078   -0.4231   16.8485 O   0  0  0  0  0  0  0  0  0  0  0  0
    2.8748    0.8627   16.6704 C   0  0  0  0  0  0  0  0  0  0  0  0
    3.5948    1.4234   17.7467 C   0  0  0  0  0  0  0  0  0  0  0  0
    3.7518    1.0792   18.9878 C   0  0  0  0  0  0  0  0  0  0  0  0
    4.5723    1.8389   19.9540 C   0  0  0  0  0  0  0  0  0  0  0  0
    5.3991    1.1066   20.8165 C   0  0  0  0  0  0  0  0  0  0  0  0
    6.2017    1.7082   21.7510 C   0  0  0  0  0  0  0  0  0  0  0  0
    6.1990    3.0680   21.8488 C   0  0  0  0  0  0  0  0  0  0  0  0
    6.9966    3.6751   22.7783 F   0  0  0  0  0  0  0  0  0  0  0  0
    5.3885    3.7991   21.0042 C   0  0  0  0  0  0  0  0  0  0  0  0
    4.5759    3.1808   20.0574 C   0  0  0  0  0  0  0  0  0  0  0  0
    2.3819    1.3692   15.4570 C   0  0  0  0  0  0  0  0  0  0  0  0
    3.0113    1.8833   14.4474 C   0  0  0  0  0  0  0  0  0  0  0  0
    2.2883    2.3585   13.2578 C   0  0  0  0  0  0  0  0  0  0  0  0
    1.2141    3.1790   13.2649 C   0  0  0  0  0  0  0  0  0  0  0  0
    0.5596    3.6037   12.1010 C   0  0  0  0  0  0  0  0  0  0  0  0
    1.0162    3.1765   10.8816 C   0  0  0  0  0  0  0  0  0  0  0  0
    0.4342    3.5457    9.7162 F   0  0  0  0  0  0  0  0  0  0  0  0
    2.1208    2.3318   10.8575 C   0  0  0  0  0  0  0  0  0  0  0  0
    2.7463    1.9279   12.0008 C   0  0  0  0  0  0  0  0  0  0  0  0
  1  2  2  0  0  0
  2  3  1  0  0  0
  3  4  2  0  0  0
  4  5  1  0  0  0
  5  6  2  0  0  0
  6  7  1  0  0  0
  7  8  2  0  0  0
  8  9  1  0  0  0
  8 10  1  0  0  0
 10 11  2  0  0  0
  2 12  1  0  0  0
 12 13  2  0  0  0
 13 14  1  0  0  0
 14 15  2  0  0  0
 15 16  1  0  0  0
 16 17  2  0  0  0
 17 18  1  0  0  0
 17 19  1  0  0  0
 19 20  2  0  0  0
 11  5  1  0  0  0
 20 14  1  0  0  0
M  END
> <minimizedAffinity>
-7.01105

> <CNNscore>
0.6182815433

> <CNNaffinity>
5.0751767159

> <CNN_VS>
3.1378881931

> <CNNaffinity_variance>
0.2616385520

$$$$
[H]/C(C(=O)/C([H])=C(\[H])c1c([H])c([H])c(F)c([H])c1[H])=C(/[H])c1c([H])c([H])c(F)c([H])c1[H]


 20 21  0  0  0  0  0  0  0  0999 V2000
    3.4144    3.4517    9.7521 O   0  0  0  0  0  0  0  0  0  0  0  0
    2.4375    2.7348   10.2890 C   0  0  0  0  0  0  0  0  0  0  0  0
    1.4723    3.5317   10.9406 C   0  0  0  0  0  0  0  0  0  0  0  0
    1.1818    4.7953   10.8924 C   0  0  0  0  0  0  0  0  0  0  0  0
    0.1026    5.4215   11.6843 C   0  0  0  0  0  0  0  0  0  0  0  0
    0.4775    6.1859   12.7974 C   0  0  0  0  0  0  0  0  0  0  0  0
   -0.4400    6.8110   13.6016 C   0  0  0  0  0  0  0  0  0  0  0  0
   -1.7666    6.6876   13.3122 C   0  0  0  0  0  0  0  0  0  0  0  0
   -2.6875    7.3081   14.1096 F   0  0  0  0  0  0  0  0  0  0  0  0
   -2.1469    5.9372   12.2182 C   0  0  0  0  0  0  0  0  0  0  0  0
   -1.2090    5.3051   11.4060 C   0  0  0  0  0  0  0  0  0  0  0  0
    2.5870    1.3533   10.0869 C   0  0  0  0  0  0  0  0  0  0  0  0
    1.8317    0.5140    9.4508 C   0  0  0  0  0  0  0  0  0  0  0  0
    2.1811   -0.9121    9.3607 C   0  0  0  0  0  0  0  0  0  0  0  0
    3.4320   -1.4211    9.4162 C   0  0  0  0  0  0  0  0  0  0  0  0
    3.7126   -2.7909    9.3253 C   0  0  0  0  0  0  0  0  0  0  0  0
    2.6793   -3.6778    9.1718 C   0  0  0  0  0  0  0  0  0  0  0  0
    2.8749   -5.0142    9.0770 F   0  0  0  0  0  0  0  0  0  0  0  0
    1.3861   -3.1696    9.1129 C   0  0  0  0  0  0  0  0  0  0  0  0
    1.1307   -1.8323    9.2031 C   0  0  0  0  0  0  0  0  0  0  0  0
  1  2  2  0  0  0
  2  3  1  0  0  0
  3  4  2  0  0  0
  4  5  1  0  0  0
  5  6  2  0  0  0
  6  7  1  0  0  0
  7  8  2  0  0  0
  8  9  1  0  0  0
  8 10  1  0  0  0
 10 11  2  0  0  0
  2 12  1  0  0  0
 12 13  2  0  0  0
 13 14  1  0  0  0
 14 15  2  0  0  0
 15 16  1  0  0  0
 16 17  2  0  0  0
 17 18  1  0  0  0
 17 19  1  0  0  0
 19 20  2  0  0  0
 11  5  1  0  0  0
 20 14  1  0  0  0
M  END
> <minimizedAffinity>
-4.55179

> <CNNscore>
0.5390232801

> <CNNaffinity>
4.1040725708

> <CNN_VS>
2.2121906281

> <CNNaffinity_variance>
0.0965774804

$$$$
[H]/C(C(=O)/C([H])=C(\[H])c1c([H])c([H])c(F)c([H])c1[H])=C(/[H])c1c([H])c([H])c(F)c([H])c1[H]


 20 21  0  0  0  0  0  0  0  0999 V2000
    5.2423   -3.4637    6.2551 O   0  0  0  0  0  0  0  0  0  0  0  0
    4.7089   -2.6113    7.1185 C   0  0  0  0  0  0  0  0  0  0  0  0
    3.5984   -3.1514    7.8014 C   0  0  0  0  0  0  0  0  0  0  0  0
    3.1410   -3.0113    9.0075 C   0  0  0  0  0  0  0  0  0  0  0  0
    1.9312   -3.6935    9.5122 C   0  0  0  0  0  0  0  0  0  0  0  0
    0.6954   -3.0756    9.2781 C   0  0  0  0  0  0  0  0  0  0  0  0
   -0.4895   -3.6196    9.7016 C   0  0  0  0  0  0  0  0  0  0  0  0
   -0.4703   -4.8047   10.3754 C   0  0  0  0  0  0  0  0  0  0  0  0
   -1.6479   -5.3534   10.8009 F   0  0  0  0  0  0  0  0  0  0  0  0
    0.7413   -5.4219   10.6114 C   0  0  0  0  0  0  0  0  0  0  0  0
    1.9409   -4.8631   10.1781 C   0  0  0  0  0  0  0  0  0  0  0  0
    5.3686   -1.3722    7.1550 C   0  0  0  0  0  0  0  0  0  0  0  0
    5.5308   -0.5390    8.1343 C   0  0  0  0  0  0  0  0  0  0  0  0
    6.2667    0.7214    7.9512 C   0  0  0  0  0  0  0  0  0  0  0  0
    6.8333    1.4526    8.9368 C   0  0  0  0  0  0  0  0  0  0  0  0
    7.5254    2.6496    8.7096 C   0  0  0  0  0  0  0  0  0  0  0  0
    7.6457    3.1212    7.4285 C   0  0  0  0  0  0  0  0  0  0  0  0
    8.2997    4.2694    7.1339 F   0  0  0  0  0  0  0  0  0  0  0  0
    7.0680    2.3802    6.4031 C   0  0  0  0  0  0  0  0  0  0  0  0
    6.3974    1.2163    6.6423 C   0  0  0  0  0  0  0  0  0  0  0  0
  1  2  2  0  0  0
  2  3  1  0  0  0
  3  4  2  0  0  0
  4  5  1  0  0  0
  5  6  2  0  0  0
  6  7  1  0  0  0
  7  8  2  0  0  0
  8  9  1  0  0  0
  8 10  1  0  0  0
 10 11  2  0  0  0
  2 12  1  0  0  0
 12 13  2  0  0  0
 13 14  1  0  0  0
 14 15  2  0  0  0
 15 16  1  0  0  0
 16 17  2  0  0  0
 17 18  1  0  0  0
 17 19  1  0  0  0
 19 20  2  0  0  0
 11  5  1  0  0  0
 20 14  1  0  0  0
M  END
> <minimizedAffinity>
-4.46500

> <CNNscore>
0.5169593096

> <CNNaffinity>
3.7925543785

> <CNN_VS>
1.9605963230

> <CNNaffinity_variance>
0.1839593947

$$$$
[H]/C(C(=O)/C([H])=C(\[H])c1c([H])c([H])c(F)c([H])c1[H])=C(/[H])c1c([H])c([H])c(F)c([H])c1[H]


 20 21  0  0  0  0  0  0  0  0999 V2000
    5.1761    3.7280    9.2301 O   0  0  0  0  0  0  0  0  0  0  0  0
    4.1217    4.3153    9.7777 C   0  0  0  0  0  0  0  0  0  0  0  0
    3.7854    3.7685   11.0343 C   0  0  0  0  0  0  0  0  0  0  0  0
    3.8874    4.2061   12.2515 C   0  0  0  0  0  0  0  0  0  0  0  0
    3.4588    3.4388   13.4395 C   0  0  0  0  0  0  0  0  0  0  0  0
    3.8323    3.9319   14.6969 C   0  0  0  0  0  0  0  0  0  0  0  0
    3.4891    3.3010   15.8647 C   0  0  0  0  0  0  0  0  0  0  0  0
    2.7579    2.1519   15.8058 C   0  0  0  0  0  0  0  0  0  0  0  0
    2.4119    1.5171   16.9661 F   0  0  0  0  0  0  0  0  0  0  0  0
    2.3846    1.6574   14.5726 C   0  0  0  0  0  0  0  0  0  0  0  0
    2.7370    2.3039   13.3908 C   0  0  0  0  0  0  0  0  0  0  0  0
    3.5841    5.3422    8.9850 C   0  0  0  0  0  0  0  0  0  0  0  0
    4.1774    6.2724    8.3051 C   0  0  0  0  0  0  0  0  0  0  0  0
    3.4103    7.2617    7.5327 C   0  0  0  0  0  0  0  0  0  0  0  0
    3.5494    8.6037    7.6141 C   0  0  0  0  0  0  0  0  0  0  0  0
    2.7923    9.5057    6.8546 C   0  0  0  0  0  0  0  0  0  0  0  0
    1.8567    9.0227    5.9775 C   0  0  0  0  0  0  0  0  0  0  0  0
    1.0895    9.8340    5.2118 F   0  0  0  0  0  0  0  0  0  0  0  0
    1.7016    7.6439    5.8822 C   0  0  0  0  0  0  0  0  0  0  0  0
    2.4475    6.7797    6.6295 C   0  0  0  0  0  0  0  0  0  0  0  0
  1  2  2  0  0  0
  2  3  1  0  0  0
  3  4  2  0  0  0
  4  5  1  0  0  0
  5  6  2  0  0  0
  6  7  1  0  0  0
  7  8  2  0  0  0
  8  9  1  0  0  0
  8 10  1  0  0  0
 10 11  2  0  0  0
  2 12  1  0  0  0
 12 13  2  0  0  0
 13 14  1  0  0  0
 14 15  2  0  0  0
 15 16  1  0  0  0
 16 17  2  0  0  0
 17 18  1  0  0  0
 17 19  1  0  0  0
 19 20  2  0  0  0
 11  5  1  0  0  0
 20 14  1  0  0  0
M  END
> <minimizedAffinity>
-4.38463

> <CNNscore>
0.4752902389

> <CNNaffinity>
4.2473740578

> <CNN_VS>
2.0187354088

> <CNNaffinity_variance>
0.3109957576

$$$$
[H]Oc1c([H])c([H])c(N([H])c2nc([H])c(F)c(N([H])c3c([H])c([H])c(C(=O)N([H])[H])c([H])c3[H])n2)c([H])c1[H]


 30 32  0  0  0  0  0  0  0  0999 V2000
    4.2255    1.4850   20.2748 C   0  0  0  0  0  0  0  0  0  0  0  0
    4.0637    1.4137   18.9639 N   0  0  0  0  0  0  0  0  0  0  0  0
    3.2087    0.5194   18.3883 C   0  0  0  0  0  0  0  0  0  0  0  0
    2.5275   -0.2974   19.2057 N   0  0  0  0  0  0  0  0  0  0  0  0
    2.6399   -0.2814   20.5285 C   0  0  0  0  0  0  0  0  0  0  0  0
    3.5009    0.6187   21.1154 C   0  0  0  0  0  0  0  0  0  0  0  0
    3.6568    0.6823   22.4496 F   0  0  0  0  0  0  0  0  0  0  0  0
    5.1205    2.3847   20.9084 N   0  0  0  0  0  0  0  0  0  0  0  0
    5.8930    1.9564   21.5007 H   0  0  0  0  0  0  0  0  0  0  0  0
    5.0854    6.5993   20.8935 C   0  0  0  0  0  0  0  0  0  0  0  0
    5.4431    5.8952   19.7917 C   0  0  0  0  0  0  0  0  0  0  0  0
    5.4587    4.4964   19.7558 C   0  0  0  0  0  0  0  0  0  0  0  0
    5.1081    3.7912   20.8503 C   0  0  0  0  0  0  0  0  0  0  0  0
    4.7312    4.5007   22.0103 C   0  0  0  0  0  0  0  0  0  0  0  0
    4.7236    5.8667   22.0208 C   0  0  0  0  0  0  0  0  0  0  0  0
    4.6080    8.7235   22.0845 N   0  0  0  0  0  0  0  0  0  0  0  0
    5.0675    8.0568   20.9366 C   0  0  0  0  0  0  0  0  0  0  0  0
    5.4619    8.7081   19.9497 O   0  0  0  0  0  0  0  0  0  0  0  0
    3.6238    9.0489   22.1295 H   0  0  0  0  0  0  0  0  0  0  0  0
    5.2252    8.9032   22.8964 H   0  0  0  0  0  0  0  0  0  0  0  0
    3.1194    0.4924   16.9856 N   0  0  0  0  0  0  0  0  0  0  0  0
    2.8883   -0.4386   16.5285 H   0  0  0  0  0  0  0  0  0  0  0  0
    3.3109    1.5946   16.1499 C   0  0  0  0  0  0  0  0  0  0  0  0
    2.8671    1.6786   14.8634 C   0  0  0  0  0  0  0  0  0  0  0  0
    3.1095    2.8039   14.0454 C   0  0  0  0  0  0  0  0  0  0  0  0
    3.8191    3.8641   14.5546 C   0  0  0  0  0  0  0  0  0  0  0  0
    4.0632    4.9787   13.7548 O   0  0  0  0  0  0  0  0  0  0  0  0
    4.2869    3.8214   15.8548 C   0  0  0  0  0  0  0  0  0  0  0  0
    4.0343    2.7151   16.6192 C   0  0  0  0  0  0  0  0  0  0  0  0
    4.9139    4.9643   13.2049 H   0  0  0  0  0  0  0  0  0  0  0  0
 16 17  1  0  0  0
 17 18  2  0  0  0
 17 10  1  0  0  0
 10 11  2  0  0  0
 11 12  1  0  0  0
 12 13  2  0  0  0
 13  8  1  0  0  0
  8  1  1  0  0  0
  1  2  2  0  0  0
  2  3  1  0  0  0
  3 21  1  0  0  0
 21 23  1  0  0  0
 23 24  2  0  0  0
 24 25  1  0  0  0
 25 26  2  0  0  0
 26 27  1  0  0  0
 26 28  1  0  0  0
 28 29  2  0  0  0
  3  4  2  0  0  0
  4  5  1  0  0  0
  5  6  2  0  0  0
  6  7  1  0  0  0
 13 14  1  0  0  0
 14 15  2  0  0  0
 15 10  1  0  0  0
  6  1  1  0  0  0
 29 23  1  0  0  0
 16 19  1  0  0  0
 16 20  1  0  0  0
  8  9  1  0  0  0
 21 22  1  0  0  0
 27 30  1  0  0  0
M  END
> <minimizedAffinity>
-8.82236

> <CNNscore>
0.7344885468

> <CNNaffinity>
6.6872725487

> <CNN_VS>
4.9117250443

> <CNNaffinity_variance>
0.2393957376

$$$$
[H]Oc1c([H])c([H])c(N([H])c2nc([H])c(F)c(N([H])c3c([H])c([H])c(C(=O)N([H])[H])c([H])c3[H])n2)c([H])c1[H]


 30 32  0  0  0  0  0  0  0  0999 V2000
    3.9572    1.0574   19.4696 C   0  0  0  0  0  0  0  0  0  0  0  0
    4.2168    1.5835   18.2841 N   0  0  0  0  0  0  0  0  0  0  0  0
    3.5229    1.2240   17.1656 C   0  0  0  0  0  0  0  0  0  0  0  0
    2.5548    0.3064   17.3081 N   0  0  0  0  0  0  0  0  0  0  0  0
    2.2404   -0.2628   18.4656 C   0  0  0  0  0  0  0  0  0  0  0  0
    2.9369    0.0958   19.5979 C   0  0  0  0  0  0  0  0  0  0  0  0
    2.6636   -0.4456   20.7981 F   0  0  0  0  0  0  0  0  0  0  0  0
    4.6709    1.3887   20.6498 N   0  0  0  0  0  0  0  0  0  0  0  0
    4.8631    0.5967   21.3331 H   0  0  0  0  0  0  0  0  0  0  0  0
    6.2622    5.1036   21.8462 C   0  0  0  0  0  0  0  0  0  0  0  0
    5.2375    5.0296   20.9617 C   0  0  0  0  0  0  0  0  0  0  0  0
    4.6775    3.8159   20.5475 C   0  0  0  0  0  0  0  0  0  0  0  0
    5.1580    2.6530   21.0321 C   0  0  0  0  0  0  0  0  0  0  0  0
    6.2245    2.7029   21.9547 C   0  0  0  0  0  0  0  0  0  0  0  0
    6.7544    3.9003   22.3441 C   0  0  0  0  0  0  0  0  0  0  0  0
    6.0287    7.3945   22.7714 N   0  0  0  0  0  0  0  0  0  0  0  0
    6.8497    6.3654   22.2812 C   0  0  0  0  0  0  0  0  0  0  0  0
    8.0840    6.5262   22.2158 O   0  0  0  0  0  0  0  0  0  0  0  0
    5.7177    8.1509   22.1330 H   0  0  0  0  0  0  0  0  0  0  0  0
    5.7201    7.4240   23.7594 H   0  0  0  0  0  0  0  0  0  0  0  0
    3.8837    1.8122   15.9409 N   0  0  0  0  0  0  0  0  0  0  0  0
    4.9068    1.7632   15.6578 H   0  0  0  0  0  0  0  0  0  0  0  0
    3.0008    2.4545   15.0704 C   0  0  0  0  0  0  0  0  0  0  0  0
    2.8352    3.8057   14.9914 C   0  0  0  0  0  0  0  0  0  0  0  0
    1.9081    4.4100   14.1144 C   0  0  0  0  0  0  0  0  0  0  0  0
    1.1363    3.6159   13.3016 C   0  0  0  0  0  0  0  0  0  0  0  0
    0.2187    4.2033   12.4330 O   0  0  0  0  0  0  0  0  0  0  0  0
    1.2724    2.2410   13.3484 C   0  0  0  0  0  0  0  0  0  0  0  0
    2.1802    1.6889   14.2106 C   0  0  0  0  0  0  0  0  0  0  0  0
   -0.7157    4.3532   12.7945 H   0  0  0  0  0  0  0  0  0  0  0  0
 16 17  1  0  0  0
 17 18  2  0  0  0
 17 10  1  0  0  0
 10 11  2  0  0  0
 11 12  1  0  0  0
 12 13  2  0  0  0
 13  8  1  0  0  0
  8  1  1  0  0  0
  1  2  2  0  0  0
  2  3  1  0  0  0
  3 21  1  0  0  0
 21 23  1  0  0  0
 23 24  2  0  0  0
 24 25  1  0  0  0
 25 26  2  0  0  0
 26 27  1  0  0  0
 26 28  1  0  0  0
 28 29  2  0  0  0
  3  4  2  0  0  0
  4  5  1  0  0  0
  5  6  2  0  0  0
  6  7  1  0  0  0
 13 14  1  0  0  0
 14 15  2  0  0  0
 15 10  1  0  0  0
  6  1  1  0  0  0
 29 23  1  0  0  0
 16 19  1  0  0  0
 16 20  1  0  0  0
  8  9  1  0  0  0
 21 22  1  0  0  0
 27 30  1  0  0  0
M  END
> <minimizedAffinity>
-7.54216

> <CNNscore>
0.6785418391

> <CNNaffinity>
6.6014146805

> <CNN_VS>
4.4793362617

> <CNNaffinity_variance>
0.2720926106

$$$$
[H]Oc1c([H])c([H])c(N([H])c2nc([H])c(F)c(N([H])c3c([H])c([H])c(C(=O)N([H])[H])c([H])c3[H])n2)c([H])c1[H]


 30 32  0  0  0  0  0  0  0  0999 V2000
    4.3344    2.9565   17.0589 C   0  0  0  0  0  0  0  0  0  0  0  0
    4.3266    2.3198   18.2183 N   0  0  0  0  0  0  0  0  0  0  0  0
    3.6982    1.1194   18.3801 C   0  0  0  0  0  0  0  0  0  0  0  0
    3.0793    0.5975   17.3105 N   0  0  0  0  0  0  0  0  0  0  0  0
    3.0466    1.1803   16.1180 C   0  0  0  0  0  0  0  0  0  0  0  0
    3.6789    2.3916   15.9483 C   0  0  0  0  0  0  0  0  0  0  0  0
    3.6804    3.0294   14.7644 F   0  0  0  0  0  0  0  0  0  0  0  0
    4.9567    4.2151   16.8576 N   0  0  0  0  0  0  0  0  0  0  0  0
    5.4890    4.3475   15.9464 H   0  0  0  0  0  0  0  0  0  0  0  0
    4.8068    7.4998   19.4943 C   0  0  0  0  0  0  0  0  0  0  0  0
    5.9871    6.9321   19.1446 C   0  0  0  0  0  0  0  0  0  0  0  0
    6.0774    5.8468   18.2660 C   0  0  0  0  0  0  0  0  0  0  0  0
    4.9581    5.3211   17.7285 C   0  0  0  0  0  0  0  0  0  0  0  0
    3.7166    5.8944   18.0764 C   0  0  0  0  0  0  0  0  0  0  0  0
    3.6540    6.9540   18.9363 C   0  0  0  0  0  0  0  0  0  0  0  0
    4.5701    8.4117   21.7902 N   0  0  0  0  0  0  0  0  0  0  0  0
    4.7067    8.6307   20.4094 C   0  0  0  0  0  0  0  0  0  0  0  0
    4.7429    9.7929   19.9602 O   0  0  0  0  0  0  0  0  0  0  0  0
    3.6257    8.4173   22.2198 H   0  0  0  0  0  0  0  0  0  0  0  0
    5.3893    8.2429   22.4007 H   0  0  0  0  0  0  0  0  0  0  0  0
    3.7153    0.5258   19.6543 N   0  0  0  0  0  0  0  0  0  0  0  0
    3.2226   -0.4092   19.7644 H   0  0  0  0  0  0  0  0  0  0  0  0
    4.3297    1.0713   20.7833 C   0  0  0  0  0  0  0  0  0  0  0  0
    5.6781    1.1547   20.9683 C   0  0  0  0  0  0  0  0  0  0  0  0
    6.2550    1.6894   22.1411 C   0  0  0  0  0  0  0  0  0  0  0  0
    5.4357    2.1485   23.1435 C   0  0  0  0  0  0  0  0  0  0  0  0
    5.9959    2.6777   24.3044 O   0  0  0  0  0  0  0  0  0  0  0  0
    4.0626    2.0840   22.9972 C   0  0  0  0  0  0  0  0  0  0  0  0
    3.5375    1.5593   21.8478 C   0  0  0  0  0  0  0  0  0  0  0  0
    6.1767    2.0256   25.0583 H   0  0  0  0  0  0  0  0  0  0  0  0
 16 17  1  0  0  0
 17 18  2  0  0  0
 17 10  1  0  0  0
 10 11  2  0  0  0
 11 12  1  0  0  0
 12 13  2  0  0  0
 13  8  1  0  0  0
  8  1  1  0  0  0
  1  2  2  0  0  0
  2  3  1  0  0  0
  3 21  1  0  0  0
 21 23  1  0  0  0
 23 24  2  0  0  0
 24 25  1  0  0  0
 25 26  2  0  0  0
 26 27  1  0  0  0
 26 28  1  0  0  0
 28 29  2  0  0  0
  3  4  2  0  0  0
  4  5  1  0  0  0
  5  6  2  0  0  0
  6  7  1  0  0  0
 13 14  1  0  0  0
 14 15  2  0  0  0
 15 10  1  0  0  0
  6  1  1  0  0  0
 29 23  1  0  0  0
 16 19  1  0  0  0
 16 20  1  0  0  0
  8  9  1  0  0  0
 21 22  1  0  0  0
 27 30  1  0  0  0
M  END
> <minimizedAffinity>
-8.68740

> <CNNscore>
0.6181417704

> <CNNaffinity>
6.5476503372

> <CNN_VS>
4.0473761559

> <CNNaffinity_variance>
0.1457212269

$$$$
[H]Oc1c([H])c([H])c(N([H])c2nc([H])c(F)c(N([H])c3c([H])c([H])c(C(=O)N([H])[H])c([H])c3[H])n2)c([H])c1[H]


 30 32  0  0  0  0  0  0  0  0999 V2000
    4.4507    1.5585   21.1676 C   0  0  0  0  0  0  0  0  0  0  0  0
    4.5362    1.5349   19.8479 N   0  0  0  0  0  0  0  0  0  0  0  0
    3.7129    0.7604   19.0835 C   0  0  0  0  0  0  0  0  0  0  0  0
    2.8005    0.0126   19.7219 N   0  0  0  0  0  0  0  0  0  0  0  0
    2.6583   -0.0131   21.0417 C   0  0  0  0  0  0  0  0  0  0  0  0
    3.4860    0.7662   21.8186 C   0  0  0  0  0  0  0  0  0  0  0  0
    3.3893    0.7823   23.1598 F   0  0  0  0  0  0  0  0  0  0  0  0
    5.3026    2.3325   21.9967 N   0  0  0  0  0  0  0  0  0  0  0  0
    5.8694    1.8065   22.7269 H   0  0  0  0  0  0  0  0  0  0  0  0
    5.7047    6.5278   21.9589 C   0  0  0  0  0  0  0  0  0  0  0  0
    6.7863    5.7187   22.0739 C   0  0  0  0  0  0  0  0  0  0  0  0
    6.6934    4.3225   22.0816 C   0  0  0  0  0  0  0  0  0  0  0  0
    5.4883    3.7277   21.9721 C   0  0  0  0  0  0  0  0  0  0  0  0
    4.3465    4.5478   21.8507 C   0  0  0  0  0  0  0  0  0  0  0  0
    4.4628    5.9089   21.8454 C   0  0  0  0  0  0  0  0  0  0  0  0
    4.6298    8.7629   21.8710 N   0  0  0  0  0  0  0  0  0  0  0  0
    5.7956    7.9831   21.9504 C   0  0  0  0  0  0  0  0  0  0  0  0
    6.9130    8.5319   22.0140 O   0  0  0  0  0  0  0  0  0  0  0  0
    4.3111    9.1168   20.9492 H   0  0  0  0  0  0  0  0  0  0  0  0
    4.0716    8.9990   22.7106 H   0  0  0  0  0  0  0  0  0  0  0  0
    3.8917    0.7742   17.6892 N   0  0  0  0  0  0  0  0  0  0  0  0
    3.9725   -0.1644   17.1976 H   0  0  0  0  0  0  0  0  0  0  0  0
    3.9706    1.9259   16.9036 C   0  0  0  0  0  0  0  0  0  0  0  0
    4.6974    3.0344   17.2234 C   0  0  0  0  0  0  0  0  0  0  0  0
    4.7245    4.1887   16.4105 C   0  0  0  0  0  0  0  0  0  0  0  0
    3.9943    4.2083   15.2471 C   0  0  0  0  0  0  0  0  0  0  0  0
    4.0149    5.3430   14.4387 O   0  0  0  0  0  0  0  0  0  0  0  0
    3.2440    3.1055   14.8840 C   0  0  0  0  0  0  0  0  0  0  0  0
    3.2402    2.0039   15.6955 C   0  0  0  0  0  0  0  0  0  0  0  0
    3.3110    6.0467   14.6273 H   0  0  0  0  0  0  0  0  0  0  0  0
 16 17  1  0  0  0
 17 18  2  0  0  0
 17 10  1  0  0  0
 10 11  2  0  0  0
 11 12  1  0  0  0
 12 13  2  0  0  0
 13  8  1  0  0  0
  8  1  1  0  0  0
  1  2  2  0  0  0
  2  3  1  0  0  0
  3 21  1  0  0  0
 21 23  1  0  0  0
 23 24  2  0  0  0
 24 25  1  0  0  0
 25 26  2  0  0  0
 26 27  1  0  0  0
 26 28  1  0  0  0
 28 29  2  0  0  0
  3  4  2  0  0  0
  4  5  1  0  0  0
  5  6  2  0  0  0
  6  7  1  0  0  0
 13 14  1  0  0  0
 14 15  2  0  0  0
 15 10  1  0  0  0
  6  1  1  0  0  0
 29 23  1  0  0  0
 16 19  1  0  0  0
 16 20  1  0  0  0
  8  9  1  0  0  0
 21 22  1  0  0  0
 27 30  1  0  0  0
M  END
> <minimizedAffinity>
-8.60438

> <CNNscore>
0.6052114367

> <CNNaffinity>
6.4844627380

> <CNN_VS>
3.9244709015

> <CNNaffinity_variance>
0.1921246052

$$$$
[H]Oc1c([H])c([H])c(N([H])c2nc([H])c(F)c(N([H])c3c([H])c([H])c(C(=O)N([H])[H])c([H])c3[H])n2)c([H])c1[H]


 30 32  0  0  0  0  0  0  0  0999 V2000
    3.8119    1.2717   20.3107 C   0  0  0  0  0  0  0  0  0  0  0  0
    4.0648    1.8577   19.1520 N   0  0  0  0  0  0  0  0  0  0  0  0
    3.6262    1.3392   17.9684 C   0  0  0  0  0  0  0  0  0  0  0  0
    2.9203    0.1996   18.0174 N   0  0  0  0  0  0  0  0  0  0  0  0
    2.6295   -0.4420   19.1429 C   0  0  0  0  0  0  0  0  0  0  0  0
    3.0691    0.0761   20.3405 C   0  0  0  0  0  0  0  0  0  0  0  0
    2.8054   -0.5284   21.5124 F   0  0  0  0  0  0  0  0  0  0  0  0
    4.2694    1.7675   21.5584 N   0  0  0  0  0  0  0  0  0  0  0  0
    4.2240    1.1008   22.3859 H   0  0  0  0  0  0  0  0  0  0  0  0
    5.9351    5.5595   22.3396 C   0  0  0  0  0  0  0  0  0  0  0  0
    4.5931    5.3827   22.2655 C   0  0  0  0  0  0  0  0  0  0  0  0
    4.0032    4.1384   22.0167 C   0  0  0  0  0  0  0  0  0  0  0  0
    4.7786    3.0498   21.8381 C   0  0  0  0  0  0  0  0  0  0  0  0
    6.1789    3.2072   21.9108 C   0  0  0  0  0  0  0  0  0  0  0  0
    6.7313    4.4325   22.1552 C   0  0  0  0  0  0  0  0  0  0  0  0
    7.6569    6.9480   23.4648 N   0  0  0  0  0  0  0  0  0  0  0  0
    6.5551    6.8537   22.5985 C   0  0  0  0  0  0  0  0  0  0  0  0
    6.1026    7.8759   22.0472 O   0  0  0  0  0  0  0  0  0  0  0  0
    7.5072    7.2024   24.4595 H   0  0  0  0  0  0  0  0  0  0  0  0
    8.6241    6.7702   23.1407 H   0  0  0  0  0  0  0  0  0  0  0  0
    3.9645    2.0119   16.7814 N   0  0  0  0  0  0  0  0  0  0  0  0
    4.4428    1.4471   16.0189 H   0  0  0  0  0  0  0  0  0  0  0  0
    3.7196    3.3634   16.5294 C   0  0  0  0  0  0  0  0  0  0  0  0
    2.5185    3.8731   16.1335 C   0  0  0  0  0  0  0  0  0  0  0  0
    2.3249    5.2454   15.8624 C   0  0  0  0  0  0  0  0  0  0  0  0
    3.3811    6.1128   16.0002 C   0  0  0  0  0  0  0  0  0  0  0  0
    3.1996    7.4686   15.7348 O   0  0  0  0  0  0  0  0  0  0  0  0
    4.6165    5.6387   16.4005 C   0  0  0  0  0  0  0  0  0  0  0  0
    4.7687    4.3029   16.6544 C   0  0  0  0  0  0  0  0  0  0  0  0
    3.3678    7.7704   14.7825 H   0  0  0  0  0  0  0  0  0  0  0  0
 16 17  1  0  0  0
 17 18  2  0  0  0
 17 10  1  0  0  0
 10 11  2  0  0  0
 11 12  1  0  0  0
 12 13  2  0  0  0
 13  8  1  0  0  0
  8  1  1  0  0  0
  1  2  2  0  0  0
  2  3  1  0  0  0
  3 21  1  0  0  0
 21 23  1  0  0  0
 23 24  2  0  0  0
 24 25  1  0  0  0
 25 26  2  0  0  0
 26 27  1  0  0  0
 26 28  1  0  0  0
 28 29  2  0  0  0
  3  4  2  0  0  0
  4  5  1  0  0  0
  5  6  2  0  0  0
  6  7  1  0  0  0
 13 14  1  0  0  0
 14 15  2  0  0  0
 15 10  1  0  0  0
  6  1  1  0  0  0
 29 23  1  0  0  0
 16 19  1  0  0  0
 16 20  1  0  0  0
  8  9  1  0  0  0
 21 22  1  0  0  0
 27 30  1  0  0  0
M  END
> <minimizedAffinity>
-7.68147

> <CNNscore>
0.5466038585

> <CNNaffinity>
6.3850822449

> <CNN_VS>
3.4901106358

> <CNNaffinity_variance>
0.0613392517

$$$$
[H]Oc1c([H])c([H])c(N([H])c2nc([H])c(F)c(N([H])c3c([H])c([H])c(C(=O)N([H])[H])c([H])c3[H])n2)c([H])c1[H]


 30 32  0  0  0  0  0  0  0  0999 V2000
    3.7010    1.2446   18.0316 C   0  0  0  0  0  0  0  0  0  0  0  0
    4.1055    1.5104   19.2626 N   0  0  0  0  0  0  0  0  0  0  0  0
    3.6613    0.7996   20.3393 C   0  0  0  0  0  0  0  0  0  0  0  0
    2.7883   -0.1920   20.1068 N   0  0  0  0  0  0  0  0  0  0  0  0
    2.3398   -0.5140   18.8994 C   0  0  0  0  0  0  0  0  0  0  0  0
    2.7843    0.1995   17.8089 C   0  0  0  0  0  0  0  0  0  0  0  0
    2.3663   -0.0804   16.5618 F   0  0  0  0  0  0  0  0  0  0  0  0
    4.1224    1.9748   16.8909 N   0  0  0  0  0  0  0  0  0  0  0  0
    4.2543    1.4247   15.9903 H   0  0  0  0  0  0  0  0  0  0  0  0
    4.7792    6.1284   16.6080 C   0  0  0  0  0  0  0  0  0  0  0  0
    5.6760    5.3146   17.2172 C   0  0  0  0  0  0  0  0  0  0  0  0
    5.4969    3.9308   17.3231 C   0  0  0  0  0  0  0  0  0  0  0  0
    4.3933    3.3536   16.8063 C   0  0  0  0  0  0  0  0  0  0  0  0
    3.4444    4.1790   16.1665 C   0  0  0  0  0  0  0  0  0  0  0  0
    3.6417    5.5277   16.0755 C   0  0  0  0  0  0  0  0  0  0  0  0
    6.0055    8.0919   15.7139 N   0  0  0  0  0  0  0  0  0  0  0  0
    4.9606    7.5709   16.4950 C   0  0  0  0  0  0  0  0  0  0  0  0
    4.1839    8.3392   17.0949 O   0  0  0  0  0  0  0  0  0  0  0  0
    6.9009    8.3572   16.1659 H   0  0  0  0  0  0  0  0  0  0  0  0
    5.9111    8.2217   14.6909 H   0  0  0  0  0  0  0  0  0  0  0  0
    4.1212    1.1681   21.6156 N   0  0  0  0  0  0  0  0  0  0  0  0
    4.1127    0.4220   22.3723 H   0  0  0  0  0  0  0  0  0  0  0  0
    4.5873    2.4377   21.9628 C   0  0  0  0  0  0  0  0  0  0  0  0
    5.8577    2.8833   21.7466 C   0  0  0  0  0  0  0  0  0  0  0  0
    6.2926    4.1675   22.1412 C   0  0  0  0  0  0  0  0  0  0  0  0
    5.4096    5.0124   22.7684 C   0  0  0  0  0  0  0  0  0  0  0  0
    5.8298    6.2814   23.1615 O   0  0  0  0  0  0  0  0  0  0  0  0
    4.1113    4.6016   23.0066 C   0  0  0  0  0  0  0  0  0  0  0  0
    3.7238    3.3503   22.6113 C   0  0  0  0  0  0  0  0  0  0  0  0
    6.2191    6.3615   24.0933 H   0  0  0  0  0  0  0  0  0  0  0  0
 16 17  1  0  0  0
 17 18  2  0  0  0
 17 10  1  0  0  0
 10 11  2  0  0  0
 11 12  1  0  0  0
 12 13  2  0  0  0
 13  8  1  0  0  0
  8  1  1  0  0  0
  1  2  2  0  0  0
  2  3  1  0  0  0
  3 21  1  0  0  0
 21 23  1  0  0  0
 23 24  2  0  0  0
 24 25  1  0  0  0
 25 26  2  0  0  0
 26 27  1  0  0  0
 26 28  1  0  0  0
 28 29  2  0  0  0
  3  4  2  0  0  0
  4  5  1  0  0  0
  5  6  2  0  0  0
  6  7  1  0  0  0
 13 14  1  0  0  0
 14 15  2  0  0  0
 15 10  1  0  0  0
  6  1  1  0  0  0
 29 23  1  0  0  0
 16 19  1  0  0  0
 16 20  1  0  0  0
  8  9  1  0  0  0
 21 22  1  0  0  0
 27 30  1  0  0  0
M  END
> <minimizedAffinity>
-8.18362

> <CNNscore>
0.3933058083

> <CNNaffinity>
6.1075158119

> <CNN_VS>
2.4021215439

> <CNNaffinity_variance>
0.1648406982

$$$$
[H]Oc1c([H])c([H])c(N([H])c2nc([H])c(F)c(N([H])c3c([H])c([H])c(C(=O)N([H])[H])c([H])c3[H])n2)c([H])c1[H]


 30 32  0  0  0  0  0  0  0  0999 V2000
    3.6232    1.5951   17.2951 C   0  0  0  0  0  0  0  0  0  0  0  0
    4.1777    2.7905   17.1801 N   0  0  0  0  0  0  0  0  0  0  0  0
    4.0776    3.5271   16.0358 C   0  0  0  0  0  0  0  0  0  0  0  0
    3.3892    2.9930   15.0159 N   0  0  0  0  0  0  0  0  0  0  0  0
    2.8074    1.8004   15.0610 C   0  0  0  0  0  0  0  0  0  0  0  0
    2.9047    1.0522   16.2129 C   0  0  0  0  0  0  0  0  0  0  0  0
    2.3362   -0.1619   16.3182 F   0  0  0  0  0  0  0  0  0  0  0  0
    3.7242    0.7905   18.4589 N   0  0  0  0  0  0  0  0  0  0  0  0
    3.6266   -0.2602   18.3263 H   0  0  0  0  0  0  0  0  0  0  0  0
    4.4221    2.2089   22.3659 C   0  0  0  0  0  0  0  0  0  0  0  0
    3.5548    1.1939   22.1308 C   0  0  0  0  0  0  0  0  0  0  0  0
    3.3036    0.6906   20.8495 C   0  0  0  0  0  0  0  0  0  0  0  0
    3.9370    1.2190   19.7828 C   0  0  0  0  0  0  0  0  0  0  0  0
    4.8453    2.2765   20.0010 C   0  0  0  0  0  0  0  0  0  0  0  0
    5.0741    2.7507   21.2615 C   0  0  0  0  0  0  0  0  0  0  0  0
    5.7498    2.2257   24.4625 N   0  0  0  0  0  0  0  0  0  0  0  0
    4.6876    2.7374   23.6988 C   0  0  0  0  0  0  0  0  0  0  0  0
    3.9673    3.6456   24.1571 O   0  0  0  0  0  0  0  0  0  0  0  0
    5.5664    1.4835   25.1639 H   0  0  0  0  0  0  0  0  0  0  0  0
    6.7203    2.5680   24.3479 H   0  0  0  0  0  0  0  0  0  0  0  0
    4.7217    4.7758   15.9899 N   0  0  0  0  0  0  0  0  0  0  0  0
    5.0131    5.1405   15.0353 H   0  0  0  0  0  0  0  0  0  0  0  0
    5.0066    5.5709   17.1018 C   0  0  0  0  0  0  0  0  0  0  0  0
    6.2212    5.6358   17.7181 C   0  0  0  0  0  0  0  0  0  0  0  0
    6.4554    6.4339   18.8592 C   0  0  0  0  0  0  0  0  0  0  0  0
    5.4265    7.1810   19.3790 C   0  0  0  0  0  0  0  0  0  0  0  0
    5.6481    7.9715   20.5048 O   0  0  0  0  0  0  0  0  0  0  0  0
    4.1787    7.1457   18.7850 C   0  0  0  0  0  0  0  0  0  0  0  0
    3.9869    6.3609   17.6807 C   0  0  0  0  0  0  0  0  0  0  0  0
    5.4858    7.5347   21.4044 H   0  0  0  0  0  0  0  0  0  0  0  0
 16 17  1  0  0  0
 17 18  2  0  0  0
 17 10  1  0  0  0
 10 11  2  0  0  0
 11 12  1  0  0  0
 12 13  2  0  0  0
 13  8  1  0  0  0
  8  1  1  0  0  0
  1  2  2  0  0  0
  2  3  1  0  0  0
  3 21  1  0  0  0
 21 23  1  0  0  0
 23 24  2  0  0  0
 24 25  1  0  0  0
 25 26  2  0  0  0
 26 27  1  0  0  0
 26 28  1  0  0  0
 28 29  2  0  0  0
  3  4  2  0  0  0
  4  5  1  0  0  0
  5  6  2  0  0  0
  6  7  1  0  0  0
 13 14  1  0  0  0
 14 15  2  0  0  0
 15 10  1  0  0  0
  6  1  1  0  0  0
 29 23  1  0  0  0
 16 19  1  0  0  0
 16 20  1  0  0  0
  8  9  1  0  0  0
 21 22  1  0  0  0
 27 30  1  0  0  0
M  END
> <minimizedAffinity>
-8.43642

> <CNNscore>
0.3910237551

> <CNNaffinity>
6.1668334007

> <CNN_VS>
2.4113783836

> <CNNaffinity_variance>
0.1887663007

$$$$
[H]Oc1c([H])c([H])c(N([H])c2nc([H])c(F)c(N([H])c3c([H])c([H])c(C(=O)N([H])[H])c([H])c3[H])n2)c([H])c1[H]


 30 32  0  0  0  0  0  0  0  0999 V2000
    3.7392    1.2673   18.0471 C   0  0  0  0  0  0  0  0  0  0  0  0
    4.1676    1.5417   19.2681 N   0  0  0  0  0  0  0  0  0  0  0  0
    3.7346    0.8468   20.3597 C   0  0  0  0  0  0  0  0  0  0  0  0
    2.8475   -0.1379   20.1526 N   0  0  0  0  0  0  0  0  0  0  0  0
    2.3750   -0.4678   18.9565 C   0  0  0  0  0  0  0  0  0  0  0  0
    2.8081    0.2296   17.8511 C   0  0  0  0  0  0  0  0  0  0  0  0
    2.3659   -0.0589   16.6143 F   0  0  0  0  0  0  0  0  0  0  0  0
    4.1485    1.9811   16.8917 N   0  0  0  0  0  0  0  0  0  0  0  0
    5.0782    1.7006   16.4580 H   0  0  0  0  0  0  0  0  0  0  0  0
    2.0917    5.0257   14.8266 C   0  0  0  0  0  0  0  0  0  0  0  0
    2.2307    5.0605   16.1746 C   0  0  0  0  0  0  0  0  0  0  0  0
    2.9136    4.0732   16.8938 C   0  0  0  0  0  0  0  0  0  0  0  0
    3.4675    3.0294   16.2443 C   0  0  0  0  0  0  0  0  0  0  0  0
    3.3372    2.9701   14.8406 C   0  0  0  0  0  0  0  0  0  0  0  0
    2.6659    3.9464   14.1605 C   0  0  0  0  0  0  0  0  0  0  0  0
    1.5982    7.4109   14.3515 N   0  0  0  0  0  0  0  0  0  0  0  0
    1.3811    6.0514   14.0721 C   0  0  0  0  0  0  0  0  0  0  0  0
    0.5801    5.7159   13.1780 O   0  0  0  0  0  0  0  0  0  0  0  0
    0.9517    7.9133   14.9888 H   0  0  0  0  0  0  0  0  0  0  0  0
    2.3903    7.9344   13.9384 H   0  0  0  0  0  0  0  0  0  0  0  0
    4.2201    1.2238   21.6239 N   0  0  0  0  0  0  0  0  0  0  0  0
    4.2286    0.4823   22.3851 H   0  0  0  0  0  0  0  0  0  0  0  0
    4.6910    2.4962   21.9538 C   0  0  0  0  0  0  0  0  0  0  0  0
    5.9827    2.9074   21.8062 C   0  0  0  0  0  0  0  0  0  0  0  0
    6.4197    4.1969   22.1807 C   0  0  0  0  0  0  0  0  0  0  0  0
    5.5167    5.0830   22.7158 C   0  0  0  0  0  0  0  0  0  0  0  0
    5.9388    6.3576   23.0884 O   0  0  0  0  0  0  0  0  0  0  0  0
    4.1966    4.7080   22.8822 C   0  0  0  0  0  0  0  0  0  0  0  0
    3.8076    3.4504   22.5089 C   0  0  0  0  0  0  0  0  0  0  0  0
    6.2677    6.4658   24.0405 H   0  0  0  0  0  0  0  0  0  0  0  0
 16 17  1  0  0  0
 17 18  2  0  0  0
 17 10  1  0  0  0
 10 11  2  0  0  0
 11 12  1  0  0  0
 12 13  2  0  0  0
 13  8  1  0  0  0
  8  1  1  0  0  0
  1  2  2  0  0  0
  2  3  1  0  0  0
  3 21  1  0  0  0
 21 23  1  0  0  0
 23 24  2  0  0  0
 24 25  1  0  0  0
 25 26  2  0  0  0
 26 27  1  0  0  0
 26 28  1  0  0  0
 28 29  2  0  0  0
  3  4  2  0  0  0
  4  5  1  0  0  0
  5  6  2  0  0  0
  6  7  1  0  0  0
 13 14  1  0  0  0
 14 15  2  0  0  0
 15 10  1  0  0  0
  6  1  1  0  0  0
 29 23  1  0  0  0
 16 19  1  0  0  0
 16 20  1  0  0  0
  8  9  1  0  0  0
 21 22  1  0  0  0
 27 30  1  0  0  0
M  END
> <minimizedAffinity>
-8.27154

> <CNNscore>
0.3864805102

> <CNNaffinity>
6.1411523819

> <CNN_VS>
2.3734357357

> <CNNaffinity_variance>
0.1943954825

$$$$
[H]Oc1c([H])c([H])c(N([H])c2nc([H])c(F)c(N([H])c3c([H])c([H])c(C(=O)N([H])[H])c([H])c3[H])n2)c([H])c1[H]


 30 32  0  0  0  0  0  0  0  0999 V2000
    3.9375    1.8692   16.7990 C   0  0  0  0  0  0  0  0  0  0  0  0
    4.2937    3.0562   16.3366 N   0  0  0  0  0  0  0  0  0  0  0  0
    3.7030    3.6119   15.2392 C   0  0  0  0  0  0  0  0  0  0  0  0
    2.7354    2.9061   14.6349 N   0  0  0  0  0  0  0  0  0  0  0  0
    2.3275    1.7106   15.0435 C   0  0  0  0  0  0  0  0  0  0  0  0
    2.9195    1.1445   16.1504 C   0  0  0  0  0  0  0  0  0  0  0  0
    2.5485   -0.0630   16.6116 F   0  0  0  0  0  0  0  0  0  0  0  0
    4.5427    1.2493   17.9221 N   0  0  0  0  0  0  0  0  0  0  0  0
    5.1543    0.4005   17.7306 H   0  0  0  0  0  0  0  0  0  0  0  0
    4.2427    2.5169   21.9305 C   0  0  0  0  0  0  0  0  0  0  0  0
    3.6419    1.3781   21.5063 C   0  0  0  0  0  0  0  0  0  0  0  0
    3.7261    0.9209   20.1864 C   0  0  0  0  0  0  0  0  0  0  0  0
    4.4281    1.6234   19.2744 C   0  0  0  0  0  0  0  0  0  0  0  0
    5.0634    2.8124   19.6910 C   0  0  0  0  0  0  0  0  0  0  0  0
    4.9670    3.2383   20.9854 C   0  0  0  0  0  0  0  0  0  0  0  0
    3.4992    4.2052   23.5905 N   0  0  0  0  0  0  0  0  0  0  0  0
    4.1583    2.9981   23.3045 C   0  0  0  0  0  0  0  0  0  0  0  0
    4.6740    2.3329   24.2239 O   0  0  0  0  0  0  0  0  0  0  0  0
    4.0480    5.0815   23.6768 H   0  0  0  0  0  0  0  0  0  0  0  0
    2.4728    4.2504   23.7196 H   0  0  0  0  0  0  0  0  0  0  0  0
    4.1628    4.8653   14.7991 N   0  0  0  0  0  0  0  0  0  0  0  0
    5.1628    5.1315   15.0409 H   0  0  0  0  0  0  0  0  0  0  0  0
    3.4061    5.7846   14.0696 C   0  0  0  0  0  0  0  0  0  0  0  0
    2.2747    6.3935   14.5262 C   0  0  0  0  0  0  0  0  0  0  0  0
    1.5250    7.2965   13.7410 C   0  0  0  0  0  0  0  0  0  0  0  0
    1.9422    7.5825   12.4638 C   0  0  0  0  0  0  0  0  0  0  0  0
    1.2088    8.4722   11.6815 O   0  0  0  0  0  0  0  0  0  0  0  0
    3.0847    6.9883   11.9610 C   0  0  0  0  0  0  0  0  0  0  0  0
    3.7866    6.1176   12.7493 C   0  0  0  0  0  0  0  0  0  0  0  0
    0.4731    8.0735   11.1105 H   0  0  0  0  0  0  0  0  0  0  0  0
 16 17  1  0  0  0
 17 18  2  0  0  0
 17 10  1  0  0  0
 10 11  2  0  0  0
 11 12  1  0  0  0
 12 13  2  0  0  0
 13  8  1  0  0  0
  8  1  1  0  0  0
  1  2  2  0  0  0
  2  3  1  0  0  0
  3 21  1  0  0  0
 21 23  1  0  0  0
 23 24  2  0  0  0
 24 25  1  0  0  0
 25 26  2  0  0  0
 26 27  1  0  0  0
 26 28  1  0  0  0
 28 29  2  0  0  0
  3  4  2  0  0  0
  4  5  1  0  0  0
  5  6  2  0  0  0
  6  7  1  0  0  0
 13 14  1  0  0  0
 14 15  2  0  0  0
 15 10  1  0  0  0
  6  1  1  0  0  0
 29 23  1  0  0  0
 16 19  1  0  0  0
 16 20  1  0  0  0
  8  9  1  0  0  0
 21 22  1  0  0  0
 27 30  1  0  0  0
M  END
> <minimizedAffinity>
-7.87532

> <CNNscore>
0.3189207315

> <CNNaffinity>
5.9818239212

> <CNN_VS>
1.9077277184

> <CNNaffinity_variance>
0.0616009459

$$$$
[H]OC(=O)[C@@]1([H])N(C(=O)[C@@]([H])(N([H])[C@]([H])(C(=O)O[H])C([H])([H])C([H])([H])c2c([H])c([H])c([H])c([H])c2[H])C([H])([H])[H])C([H])([H])c2c([H])c([H])c([H])c([H])c2C1([H])[H]


 33 35  0  0  0  0  0  0  0  0999 V2000
    2.6002    5.1509   17.4952 C   0  0  0  0  0  0  0  0  0  0  0  0
    3.7182    5.7501   18.3630 C   0  0  0  0  0  0  0  0  0  0  0  0
    4.5640    4.6297   18.7838 C   0  0  0  0  0  0  0  0  0  0  0  0
    5.1620    3.9924   17.8482 O   0  0  0  0  0  0  0  0  0  0  0  0
    4.7876    4.1815   20.1030 N   0  0  0  0  0  0  0  0  0  0  0  0
    5.6529    2.9925   20.2832 C   0  0  0  0  0  0  0  0  0  0  0  0
    4.8026    1.9529   20.9732 C   0  0  0  0  0  0  0  0  0  0  0  0
    4.7008    0.6536   20.5543 C   0  0  0  0  0  0  0  0  0  0  0  0
    3.8556   -0.2301   21.2449 C   0  0  0  0  0  0  0  0  0  0  0  0
    3.1534    0.2501   22.3296 C   0  0  0  0  0  0  0  0  0  0  0  0
    3.2799    1.5856   22.7337 C   0  0  0  0  0  0  0  0  0  0  0  0
    4.1062    2.4588   22.0636 C   0  0  0  0  0  0  0  0  0  0  0  0
    4.3106    3.8516   22.4576 C   0  0  0  0  0  0  0  0  0  0  0  0
    4.2533    4.7849   21.2909 C   0  0  0  0  0  0  0  0  0  0  0  0
    4.9386    6.0730   21.6026 C   0  0  0  0  0  0  0  0  0  0  0  0
    6.1732    6.0930   21.7304 O   0  0  0  0  0  0  0  0  0  0  0  0
    4.1956    7.2095   21.7416 O   0  0  0  0  0  0  0  0  0  0  0  0
    3.7010    7.5505   20.9190 H   0  0  0  0  0  0  0  0  0  0  0  0
    4.4197    6.6649   17.4690 N   0  0  0  0  0  0  0  0  0  0  0  0
    5.2344    6.1236   17.0821 H   0  0  0  0  0  0  0  0  0  0  0  0
    4.9694    7.7479   18.2512 C   0  0  0  0  0  0  0  0  0  0  0  0
    3.9657    8.8334   18.4556 C   0  0  0  0  0  0  0  0  0  0  0  0
    3.6225    9.6081   17.5281 O   0  0  0  0  0  0  0  0  0  0  0  0
    3.3598    9.0395   19.6873 O   0  0  0  0  0  0  0  0  0  0  0  0
    3.8504    9.0106   20.5692 H   0  0  0  0  0  0  0  0  0  0  0  0
    6.2461    8.2849   17.6561 C   0  0  0  0  0  0  0  0  0  0  0  0
    6.9120    9.2946   18.5610 C   0  0  0  0  0  0  0  0  0  0  0  0
    7.8008    8.6426   19.5546 C   0  0  0  0  0  0  0  0  0  0  0  0
    7.9573    9.1458   20.8400 C   0  0  0  0  0  0  0  0  0  0  0  0
    8.7759    8.5666   21.7842 C   0  0  0  0  0  0  0  0  0  0  0  0
    9.4866    7.4276   21.4596 C   0  0  0  0  0  0  0  0  0  0  0  0
    9.3519    6.8972   20.1785 C   0  0  0  0  0  0  0  0  0  0  0  0
    8.5251    7.5020   19.2606 C   0  0  0  0  0  0  0  0  0  0  0  0
  1  2  1  0  0  0
  2 19  1  0  0  0
 19 21  1  0  0  0
 21 26  1  0  0  0
 26 27  1  0  0  0
 27 28  1  0  0  0
 28 29  2  0  0  0
 29 30  1  0  0  0
 30 31  2  0  0  0
 31 32  1  0  0  0
 32 33  2  0  0  0
 21 22  1  0  0  0
 22 23  2  0  0  0
 22 24  1  0  0  0
  2  3  1  0  0  0
  3  4  2  0  0  0
  3  5  1  0  0  0
  5  6  1  0  0  0
  6  7  1  0  0  0
  7  8  2  0  0  0
  8  9  1  0  0  0
  9 10  2  0  0  0
 10 11  1  0  0  0
 11 12  2  0  0  0
 12 13  1  0  0  0
 13 14  1  0  0  0
 14 15  1  0  0  0
 15 16  2  0  0  0
 15 17  1  0  0  0
 33 28  1  0  0  0
 14  5  1  0  0  0
 12  7  1  0  0  0
 19 20  1  0  0  0
 24 25  1  0  0  0
 17 18  1  0  0  0
M  END
> <minimizedAffinity>
-7.91482

> <CNNscore>
0.3054884970

> <CNNaffinity>
5.5091943741

> <CNN_VS>
1.6829955578

> <CNNaffinity_variance>
0.4303091466

$$$$
[H]OC(=O)[C@@]1([H])N(C(=O)[C@@]([H])(N([H])[C@]([H])(C(=O)O[H])C([H])([H])C([H])([H])c2c([H])c([H])c([H])c([H])c2[H])C([H])([H])[H])C([H])([H])c2c([H])c([H])c([H])c([H])c2C1([H])[H]


 33 35  0  0  0  0  0  0  0  0999 V2000
    2.8730    5.9797   18.7761 C   0  0  0  0  0  0  0  0  0  0  0  0
    3.4579    4.5588   18.7427 C   0  0  0  0  0  0  0  0  0  0  0  0
    4.0239    4.3733   17.4037 C   0  0  0  0  0  0  0  0  0  0  0  0
    4.8480    5.2707   17.0107 O   0  0  0  0  0  0  0  0  0  0  0  0
    3.7582    3.3166   16.5070 N   0  0  0  0  0  0  0  0  0  0  0  0
    4.4175    3.3637   15.1810 C   0  0  0  0  0  0  0  0  0  0  0  0
    3.3067    3.3882   14.1585 C   0  0  0  0  0  0  0  0  0  0  0  0
    3.2489    4.2779   13.1196 C   0  0  0  0  0  0  0  0  0  0  0  0
    2.1550    4.2415   12.2397 C   0  0  0  0  0  0  0  0  0  0  0  0
    1.1709    3.3013   12.4585 C   0  0  0  0  0  0  0  0  0  0  0  0
    1.2596    2.4041   13.5309 C   0  0  0  0  0  0  0  0  0  0  0  0
    2.3282    2.4317   14.3980 C   0  0  0  0  0  0  0  0  0  0  0  0
    2.4979    1.4998   15.5113 C   0  0  0  0  0  0  0  0  0  0  0  0
    2.9070    2.1915   16.7721 C   0  0  0  0  0  0  0  0  0  0  0  0
    3.5478    1.2362   17.7223 C   0  0  0  0  0  0  0  0  0  0  0  0
    2.8553    0.3660   18.2738 O   0  0  0  0  0  0  0  0  0  0  0  0
    4.8866    1.3350   17.9690 O   0  0  0  0  0  0  0  0  0  0  0  0
    5.5215    1.1529   17.1935 H   0  0  0  0  0  0  0  0  0  0  0  0
    4.4847    4.5653   19.7790 N   0  0  0  0  0  0  0  0  0  0  0  0
    4.3997    3.6424   20.2764 H   0  0  0  0  0  0  0  0  0  0  0  0
    4.1646    5.5923   20.7432 C   0  0  0  0  0  0  0  0  0  0  0  0
    5.2044    6.6627   20.7610 C   0  0  0  0  0  0  0  0  0  0  0  0
    5.3338    7.4511   21.7306 O   0  0  0  0  0  0  0  0  0  0  0  0
    6.0833    6.8390   19.7013 O   0  0  0  0  0  0  0  0  0  0  0  0
    5.8112    6.7987   18.7299 H   0  0  0  0  0  0  0  0  0  0  0  0
    3.9368    5.0243   22.1209 C   0  0  0  0  0  0  0  0  0  0  0  0
    5.0809    4.1447   22.5671 C   0  0  0  0  0  0  0  0  0  0  0  0
    4.8788    2.7308   22.1643 C   0  0  0  0  0  0  0  0  0  0  0  0
    5.8917    1.9839   21.5760 C   0  0  0  0  0  0  0  0  0  0  0  0
    5.7357    0.6714   21.1884 C   0  0  0  0  0  0  0  0  0  0  0  0
    4.5201    0.0456   21.3846 C   0  0  0  0  0  0  0  0  0  0  0  0
    3.4833    0.7668   21.9723 C   0  0  0  0  0  0  0  0  0  0  0  0
    3.6745    2.0763   22.3472 C   0  0  0  0  0  0  0  0  0  0  0  0
  1  2  1  0  0  0
  2 19  1  0  0  0
 19 21  1  0  0  0
 21 26  1  0  0  0
 26 27  1  0  0  0
 27 28  1  0  0  0
 28 29  2  0  0  0
 29 30  1  0  0  0
 30 31  2  0  0  0
 31 32  1  0  0  0
 32 33  2  0  0  0
 21 22  1  0  0  0
 22 23  2  0  0  0
 22 24  1  0  0  0
  2  3  1  0  0  0
  3  4  2  0  0  0
  3  5  1  0  0  0
  5  6  1  0  0  0
  6  7  1  0  0  0
  7  8  2  0  0  0
  8  9  1  0  0  0
  9 10  2  0  0  0
 10 11  1  0  0  0
 11 12  2  0  0  0
 12 13  1  0  0  0
 13 14  1  0  0  0
 14 15  1  0  0  0
 15 16  2  0  0  0
 15 17  1  0  0  0
 33 28  1  0  0  0
 14  5  1  0  0  0
 12  7  1  0  0  0
 19 20  1  0  0  0
 24 25  1  0  0  0
 17 18  1  0  0  0
M  END
> <minimizedAffinity>
-7.65249

> <CNNscore>
0.2991043031

> <CNNaffinity>
5.6411819458

> <CNN_VS>
1.6873017550

> <CNNaffinity_variance>
0.1411179006

$$$$
[H]OC(=O)[C@@]1([H])N(C(=O)[C@@]([H])(N([H])[C@]([H])(C(=O)O[H])C([H])([H])C([H])([H])c2c([H])c([H])c([H])c([H])c2[H])C([H])([H])[H])C([H])([H])c2c([H])c([H])c([H])c([H])c2C1([H])[H]


 33 35  0  0  0  0  0  0  0  0999 V2000
    4.8092    7.4427   20.7049 C   0  0  0  0  0  0  0  0  0  0  0  0
    4.5500    5.9287   20.7571 C   0  0  0  0  0  0  0  0  0  0  0  0
    3.7237    5.6077   19.5900 C   0  0  0  0  0  0  0  0  0  0  0  0
    2.4719    5.8521   19.7011 O   0  0  0  0  0  0  0  0  0  0  0  0
    4.1591    5.0609   18.3642 N   0  0  0  0  0  0  0  0  0  0  0  0
    3.1287    4.7776   17.3380 C   0  0  0  0  0  0  0  0  0  0  0  0
    3.2073    3.2956   17.0594 C   0  0  0  0  0  0  0  0  0  0  0  0
    2.1176    2.4674   17.0362 C   0  0  0  0  0  0  0  0  0  0  0  0
    2.2987    1.0948   16.8008 C   0  0  0  0  0  0  0  0  0  0  0  0
    3.5807    0.6295   16.6000 C   0  0  0  0  0  0  0  0  0  0  0  0
    4.6754    1.5033   16.6293 C   0  0  0  0  0  0  0  0  0  0  0  0
    4.5076    2.8500   16.8587 C   0  0  0  0  0  0  0  0  0  0  0  0
    5.6029    3.8180   16.8638 C   0  0  0  0  0  0  0  0  0  0  0  0
    5.5204    4.7612   18.0210 C   0  0  0  0  0  0  0  0  0  0  0  0
    6.3007    6.0045   17.7541 C   0  0  0  0  0  0  0  0  0  0  0  0
    5.8842    6.8190   16.9150 O   0  0  0  0  0  0  0  0  0  0  0  0
    7.4608    6.2260   18.4383 O   0  0  0  0  0  0  0  0  0  0  0  0
    7.3934    6.3591   19.4460 H   0  0  0  0  0  0  0  0  0  0  0  0
    5.8779    5.3307   20.6736 N   0  0  0  0  0  0  0  0  0  0  0  0
    5.7364    4.3652   20.2809 H   0  0  0  0  0  0  0  0  0  0  0  0
    6.3983    5.1672   22.0113 C   0  0  0  0  0  0  0  0  0  0  0  0
    7.6733    5.9211   22.1933 C   0  0  0  0  0  0  0  0  0  0  0  0
    8.2538    6.4913   21.2362 O   0  0  0  0  0  0  0  0  0  0  0  0
    8.2819    6.0291   23.4362 O   0  0  0  0  0  0  0  0  0  0  0  0
    8.3717    5.2640   24.0887 H   0  0  0  0  0  0  0  0  0  0  0  0
    6.5607    3.7150   22.3820 C   0  0  0  0  0  0  0  0  0  0  0  0
    5.3156    3.1522   23.0259 C   0  0  0  0  0  0  0  0  0  0  0  0
    4.6318    2.1750   22.1429 C   0  0  0  0  0  0  0  0  0  0  0  0
    3.5326    1.4422   22.5726 C   0  0  0  0  0  0  0  0  0  0  0  0
    2.8777    0.5261   21.7795 C   0  0  0  0  0  0  0  0  0  0  0  0
    3.3180    0.3084   20.4886 C   0  0  0  0  0  0  0  0  0  0  0  0
    4.4182    1.0272   20.0266 C   0  0  0  0  0  0  0  0  0  0  0  0
    5.0481    1.9345   20.8464 C   0  0  0  0  0  0  0  0  0  0  0  0
  1  2  1  0  0  0
  2 19  1  0  0  0
 19 21  1  0  0  0
 21 26  1  0  0  0
 26 27  1  0  0  0
 27 28  1  0  0  0
 28 29  2  0  0  0
 29 30  1  0  0  0
 30 31  2  0  0  0
 31 32  1  0  0  0
 32 33  2  0  0  0
 21 22  1  0  0  0
 22 23  2  0  0  0
 22 24  1  0  0  0
  2  3  1  0  0  0
  3  4  2  0  0  0
  3  5  1  0  0  0
  5  6  1  0  0  0
  6  7  1  0  0  0
  7  8  2  0  0  0
  8  9  1  0  0  0
  9 10  2  0  0  0
 10 11  1  0  0  0
 11 12  2  0  0  0
 12 13  1  0  0  0
 13 14  1  0  0  0
 14 15  1  0  0  0
 15 16  2  0  0  0
 15 17  1  0  0  0
 33 28  1  0  0  0
 14  5  1  0  0  0
 12  7  1  0  0  0
 19 20  1  0  0  0
 24 25  1  0  0  0
 17 18  1  0  0  0
M  END
> <minimizedAffinity>
-7.20719

> <CNNscore>
0.2988606989

> <CNNaffinity>
5.6873698235

> <CNN_VS>
1.6997313499

> <CNNaffinity_variance>
0.1205491275

$$$$
[H]OC(=O)[C@@]1([H])N(C(=O)[C@@]([H])(N([H])[C@]([H])(C(=O)O[H])C([H])([H])C([H])([H])c2c([H])c([H])c([H])c([H])c2[H])C([H])([H])[H])C([H])([H])c2c([H])c([H])c([H])c([H])c2C1([H])[H]


 33 35  0  0  0  0  0  0  0  0999 V2000
    6.4366    5.6719   17.6926 C   0  0  0  0  0  0  0  0  0  0  0  0
    5.2727    6.2224   18.5318 C   0  0  0  0  0  0  0  0  0  0  0  0
    4.0464    5.6522   17.9670 C   0  0  0  0  0  0  0  0  0  0  0  0
    3.3721    4.8871   18.7410 O   0  0  0  0  0  0  0  0  0  0  0  0
    3.5333    5.8558   16.6684 N   0  0  0  0  0  0  0  0  0  0  0  0
    2.2919    5.1343   16.3033 C   0  0  0  0  0  0  0  0  0  0  0  0
    2.6409    4.2686   15.1164 C   0  0  0  0  0  0  0  0  0  0  0  0
    2.3274    2.9391   15.0265 C   0  0  0  0  0  0  0  0  0  0  0  0
    2.7263    2.2109   13.8938 C   0  0  0  0  0  0  0  0  0  0  0  0
    3.4257    2.8702   12.9056 C   0  0  0  0  0  0  0  0  0  0  0  0
    3.7306    4.2322   13.0273 C   0  0  0  0  0  0  0  0  0  0  0  0
    3.3433    4.9542   14.1333 C   0  0  0  0  0  0  0  0  0  0  0  0
    3.5970    6.3837   14.3025 C   0  0  0  0  0  0  0  0  0  0  0  0
    4.1082    6.7109   15.6689 C   0  0  0  0  0  0  0  0  0  0  0  0
    3.8872    8.1507   15.9919 C   0  0  0  0  0  0  0  0  0  0  0  0
    4.7056    8.7487   16.7085 O   0  0  0  0  0  0  0  0  0  0  0  0
    2.7877    8.7871   15.4928 O   0  0  0  0  0  0  0  0  0  0  0  0
    2.7270    8.8961   14.4818 H   0  0  0  0  0  0  0  0  0  0  0  0
    5.5366    5.7349   19.8812 N   0  0  0  0  0  0  0  0  0  0  0  0
    5.2748    4.7162   19.8773 H   0  0  0  0  0  0  0  0  0  0  0  0
    4.6366    6.3956   20.7978 C   0  0  0  0  0  0  0  0  0  0  0  0
    5.2208    7.6710   21.3071 C   0  0  0  0  0  0  0  0  0  0  0  0
    6.4111    7.9992   21.0754 O   0  0  0  0  0  0  0  0  0  0  0  0
    4.4723    8.5607   22.0653 O   0  0  0  0  0  0  0  0  0  0  0  0
    3.8459    8.2823   22.8065 H   0  0  0  0  0  0  0  0  0  0  0  0
    4.2176    5.4924   21.9297 C   0  0  0  0  0  0  0  0  0  0  0  0
    5.2403    4.4149   22.2027 C   0  0  0  0  0  0  0  0  0  0  0  0
    4.7012    3.0602   21.9257 C   0  0  0  0  0  0  0  0  0  0  0  0
    3.8065    2.4369   22.7866 C   0  0  0  0  0  0  0  0  0  0  0  0
    3.2902    1.1803   22.5601 C   0  0  0  0  0  0  0  0  0  0  0  0
    3.6664    0.4858   21.4270 C   0  0  0  0  0  0  0  0  0  0  0  0
    4.5623    1.0828   20.5430 C   0  0  0  0  0  0  0  0  0  0  0  0
    5.0581    2.3397   20.8008 C   0  0  0  0  0  0  0  0  0  0  0  0
  1  2  1  0  0  0
  2 19  1  0  0  0
 19 21  1  0  0  0
 21 26  1  0  0  0
 26 27  1  0  0  0
 27 28  1  0  0  0
 28 29  2  0  0  0
 29 30  1  0  0  0
 30 31  2  0  0  0
 31 32  1  0  0  0
 32 33  2  0  0  0
 21 22  1  0  0  0
 22 23  2  0  0  0
 22 24  1  0  0  0
  2  3  1  0  0  0
  3  4  2  0  0  0
  3  5  1  0  0  0
  5  6  1  0  0  0
  6  7  1  0  0  0
  7  8  2  0  0  0
  8  9  1  0  0  0
  9 10  2  0  0  0
 10 11  1  0  0  0
 11 12  2  0  0  0
 12 13  1  0  0  0
 13 14  1  0  0  0
 14 15  1  0  0  0
 15 16  2  0  0  0
 15 17  1  0  0  0
 33 28  1  0  0  0
 14  5  1  0  0  0
 12  7  1  0  0  0
 19 20  1  0  0  0
 24 25  1  0  0  0
 17 18  1  0  0  0
M  END
> <minimizedAffinity>
-8.35618

> <CNNscore>
0.2790538371

> <CNNaffinity>
5.6807775497

> <CNN_VS>
1.5852427483

> <CNNaffinity_variance>
0.1973709464

$$$$
[H]OC(=O)[C@@]1([H])N(C(=O)[C@@]([H])(N([H])[C@]([H])(C(=O)O[H])C([H])([H])C([H])([H])c2c([H])c([H])c([H])c([H])c2[H])C([H])([H])[H])C([H])([H])c2c([H])c([H])c([H])c([H])c2C1([H])[H]


 33 35  0  0  0  0  0  0  0  0999 V2000
    4.9729    4.4819   17.6226 C   0  0  0  0  0  0  0  0  0  0  0  0
    3.9289    5.5930   17.8167 C   0  0  0  0  0  0  0  0  0  0  0  0
    2.9257    5.4097   16.7641 C   0  0  0  0  0  0  0  0  0  0  0  0
    1.9292    4.6620   17.0592 O   0  0  0  0  0  0  0  0  0  0  0  0
    2.9416    5.9666   15.4677 N   0  0  0  0  0  0  0  0  0  0  0  0
    1.8340    5.6020   14.5538 C   0  0  0  0  0  0  0  0  0  0  0  0
    2.4746    4.9349   13.3602 C   0  0  0  0  0  0  0  0  0  0  0  0
    2.0513    3.7426   12.8375 C   0  0  0  0  0  0  0  0  0  0  0  0
    2.7356    3.1863   11.7445 C   0  0  0  0  0  0  0  0  0  0  0  0
    3.8188    3.8697   11.2348 C   0  0  0  0  0  0  0  0  0  0  0  0
    4.2268    5.0886   11.7921 C   0  0  0  0  0  0  0  0  0  0  0  0
    3.5620    5.6419   12.8628 C   0  0  0  0  0  0  0  0  0  0  0  0
    3.9140    6.9267   13.4644 C   0  0  0  0  0  0  0  0  0  0  0  0
    3.9381    6.8656   14.9581 C   0  0  0  0  0  0  0  0  0  0  0  0
    3.7970    8.2273   15.5513 C   0  0  0  0  0  0  0  0  0  0  0  0
    4.6996    8.6742   16.2770 O   0  0  0  0  0  0  0  0  0  0  0  0
    2.6766    8.9600   15.2853 O   0  0  0  0  0  0  0  0  0  0  0  0
    2.5231    9.2496   14.3209 H   0  0  0  0  0  0  0  0  0  0  0  0
    3.3828    5.3485   19.1472 N   0  0  0  0  0  0  0  0  0  0  0  0
    2.3788    5.6599   19.1097 H   0  0  0  0  0  0  0  0  0  0  0  0
    4.0546    6.2120   20.0905 C   0  0  0  0  0  0  0  0  0  0  0  0
    4.2824    7.5703   19.5157 C   0  0  0  0  0  0  0  0  0  0  0  0
    5.4344    8.0529   19.3802 O   0  0  0  0  0  0  0  0  0  0  0  0
    3.2262    8.3696   19.1007 O   0  0  0  0  0  0  0  0  0  0  0  0
    2.3652    8.4794   19.6164 H   0  0  0  0  0  0  0  0  0  0  0  0
    5.3393    5.6068   20.5965 C   0  0  0  0  0  0  0  0  0  0  0  0
    5.1173    4.7456   21.8174 C   0  0  0  0  0  0  0  0  0  0  0  0
    5.3946    3.3143   21.5401 C   0  0  0  0  0  0  0  0  0  0  0  0
    4.5421    2.5391   20.7641 C   0  0  0  0  0  0  0  0  0  0  0  0
    4.7690    1.2084   20.4906 C   0  0  0  0  0  0  0  0  0  0  0  0
    5.8943    0.5924   21.0026 C   0  0  0  0  0  0  0  0  0  0  0  0
    6.7699    1.3419   21.7850 C   0  0  0  0  0  0  0  0  0  0  0  0
    6.5117    2.6691   22.0379 C   0  0  0  0  0  0  0  0  0  0  0  0
  1  2  1  0  0  0
  2 19  1  0  0  0
 19 21  1  0  0  0
 21 26  1  0  0  0
 26 27  1  0  0  0
 27 28  1  0  0  0
 28 29  2  0  0  0
 29 30  1  0  0  0
 30 31  2  0  0  0
 31 32  1  0  0  0
 32 33  2  0  0  0
 21 22  1  0  0  0
 22 23  2  0  0  0
 22 24  1  0  0  0
  2  3  1  0  0  0
  3  4  2  0  0  0
  3  5  1  0  0  0
  5  6  1  0  0  0
  6  7  1  0  0  0
  7  8  2  0  0  0
  8  9  1  0  0  0
  9 10  2  0  0  0
 10 11  1  0  0  0
 11 12  2  0  0  0
 12 13  1  0  0  0
 13 14  1  0  0  0
 14 15  1  0  0  0
 15 16  2  0  0  0
 15 17  1  0  0  0
 33 28  1  0  0  0
 14  5  1  0  0  0
 12  7  1  0  0  0
 19 20  1  0  0  0
 24 25  1  0  0  0
 17 18  1  0  0  0
M  END
> <minimizedAffinity>
-7.81601

> <CNNscore>
0.2655895650

> <CNNaffinity>
5.4798784256

> <CNN_VS>
1.4553985596

> <CNNaffinity_variance>
0.1985906512

$$$$
[H]OC(=O)[C@@]1([H])N(C(=O)[C@@]([H])(N([H])[C@]([H])(C(=O)O[H])C([H])([H])C([H])([H])c2c([H])c([H])c([H])c([H])c2[H])C([H])([H])[H])C([H])([H])c2c([H])c([H])c([H])c([H])c2C1([H])[H]


 33 35  0  0  0  0  0  0  0  0999 V2000
    2.1514    3.4649   16.1040 C   0  0  0  0  0  0  0  0  0  0  0  0
    2.5428    4.6555   16.9936 C   0  0  0  0  0  0  0  0  0  0  0  0
    3.7899    4.2803   17.6658 C   0  0  0  0  0  0  0  0  0  0  0  0
    4.4834    3.3661   17.0980 O   0  0  0  0  0  0  0  0  0  0  0  0
    4.3043    4.8167   18.8653 N   0  0  0  0  0  0  0  0  0  0  0  0
    5.5700    4.2457   19.3817 C   0  0  0  0  0  0  0  0  0  0  0  0
    5.2558    3.6941   20.7518 C   0  0  0  0  0  0  0  0  0  0  0  0
    5.6117    2.4389   21.1662 C   0  0  0  0  0  0  0  0  0  0  0  0
    5.2431    2.0055   22.4501 C   0  0  0  0  0  0  0  0  0  0  0  0
    4.5292    2.8701   23.2522 C   0  0  0  0  0  0  0  0  0  0  0  0
    4.1807    4.1490   22.7988 C   0  0  0  0  0  0  0  0  0  0  0  0
    4.5381    4.5828   21.5424 C   0  0  0  0  0  0  0  0  0  0  0  0
    4.2384    5.9168   21.0254 C   0  0  0  0  0  0  0  0  0  0  0  0
    3.7088    5.8773   19.6278 C   0  0  0  0  0  0  0  0  0  0  0  0
    3.8821    7.1965   18.9528 C   0  0  0  0  0  0  0  0  0  0  0  0
    4.7130    7.3101   18.0376 O   0  0  0  0  0  0  0  0  0  0  0  0
    3.1228    8.2577   19.3532 O   0  0  0  0  0  0  0  0  0  0  0  0
    2.1166    8.1967   19.2068 H   0  0  0  0  0  0  0  0  0  0  0  0
    2.7311    5.7596   16.0589 N   0  0  0  0  0  0  0  0  0  0  0  0
    2.0410    6.5006   16.3435 H   0  0  0  0  0  0  0  0  0  0  0  0
    2.3513    5.3184   14.7368 C   0  0  0  0  0  0  0  0  0  0  0  0
    3.5143    5.3426   13.8018 C   0  0  0  0  0  0  0  0  0  0  0  0
    3.8895    4.3193   13.1770 O   0  0  0  0  0  0  0  0  0  0  0  0
    4.2407    6.5037   13.5764 O   0  0  0  0  0  0  0  0  0  0  0  0
    4.5171    7.1465   14.3042 H   0  0  0  0  0  0  0  0  0  0  0  0
    1.1891    6.1070   14.1889 C   0  0  0  0  0  0  0  0  0  0  0  0
    0.5392    5.4154   13.0139 C   0  0  0  0  0  0  0  0  0  0  0  0
   -0.8930    5.7814   12.8820 C   0  0  0  0  0  0  0  0  0  0  0  0
   -1.4852    6.7332   13.7027 C   0  0  0  0  0  0  0  0  0  0  0  0
   -2.8113    7.0932   13.6081 C   0  0  0  0  0  0  0  0  0  0  0  0
   -3.6119    6.4912   12.6571 C   0  0  0  0  0  0  0  0  0  0  0  0
   -3.0488    5.5323   11.8181 C   0  0  0  0  0  0  0  0  0  0  0  0
   -1.7204    5.1972   11.9407 C   0  0  0  0  0  0  0  0  0  0  0  0
  1  2  1  0  0  0
  2 19  1  0  0  0
 19 21  1  0  0  0
 21 26  1  0  0  0
 26 27  1  0  0  0
 27 28  1  0  0  0
 28 29  2  0  0  0
 29 30  1  0  0  0
 30 31  2  0  0  0
 31 32  1  0  0  0
 32 33  2  0  0  0
 21 22  1  0  0  0
 22 23  2  0  0  0
 22 24  1  0  0  0
  2  3  1  0  0  0
  3  4  2  0  0  0
  3  5  1  0  0  0
  5  6  1  0  0  0
  6  7  1  0  0  0
  7  8  2  0  0  0
  8  9  1  0  0  0
  9 10  2  0  0  0
 10 11  1  0  0  0
 11 12  2  0  0  0
 12 13  1  0  0  0
 13 14  1  0  0  0
 14 15  1  0  0  0
 15 16  2  0  0  0
 15 17  1  0  0  0
 33 28  1  0  0  0
 14  5  1  0  0  0
 12  7  1  0  0  0
 19 20  1  0  0  0
 24 25  1  0  0  0
 17 18  1  0  0  0
M  END
> <minimizedAffinity>
-8.10504

> <CNNscore>
0.2608046830

> <CNNaffinity>
5.2538833618

> <CNN_VS>
1.3702373505

> <CNNaffinity_variance>
0.4224899709

$$$$
[H]OC(=O)[C@@]1([H])N(C(=O)[C@@]([H])(N([H])[C@]([H])(C(=O)O[H])C([H])([H])C([H])([H])c2c([H])c([H])c([H])c([H])c2[H])C([H])([H])[H])C([H])([H])c2c([H])c([H])c([H])c([H])c2C1([H])[H]


 33 35  0  0  0  0  0  0  0  0999 V2000
    3.8235    3.8658   14.6756 C   0  0  0  0  0  0  0  0  0  0  0  0
    3.6755    5.3202   15.1500 C   0  0  0  0  0  0  0  0  0  0  0  0
    2.2496    5.6455   15.0556 C   0  0  0  0  0  0  0  0  0  0  0  0
    1.4750    5.0239   15.8636 O   0  0  0  0  0  0  0  0  0  0  0  0
    1.6437    6.5655   14.1739 N   0  0  0  0  0  0  0  0  0  0  0  0
    0.1689    6.6959   14.2301 C   0  0  0  0  0  0  0  0  0  0  0  0
   -0.3391    6.3329   12.8553 C   0  0  0  0  0  0  0  0  0  0  0  0
   -1.3623    5.4515   12.6309 C   0  0  0  0  0  0  0  0  0  0  0  0
   -1.7398    5.1536   11.3115 C   0  0  0  0  0  0  0  0  0  0  0  0
   -1.0581    5.7667   10.2820 C   0  0  0  0  0  0  0  0  0  0  0  0
   -0.0155    6.6649   10.5449 C   0  0  0  0  0  0  0  0  0  0  0  0
    0.3611    6.9636   11.8346 C   0  0  0  0  0  0  0  0  0  0  0  0
    1.4134    7.9192   12.1752 C   0  0  0  0  0  0  0  0  0  0  0  0
    2.3359    7.3950   13.2287 C   0  0  0  0  0  0  0  0  0  0  0  0
    3.0586    8.5090   13.9089 C   0  0  0  0  0  0  0  0  0  0  0  0
    4.1968    8.8230   13.5256 O   0  0  0  0  0  0  0  0  0  0  0  0
    2.4552    9.1653   14.9424 O   0  0  0  0  0  0  0  0  0  0  0  0
    1.6139    9.6997   14.7318 H   0  0  0  0  0  0  0  0  0  0  0  0
    4.1462    5.3006   16.5306 N   0  0  0  0  0  0  0  0  0  0  0  0
    3.3885    4.8300   17.0881 H   0  0  0  0  0  0  0  0  0  0  0  0
    4.2362    6.6604   17.0097 C   0  0  0  0  0  0  0  0  0  0  0  0
    5.6217    7.1960   16.8652 C   0  0  0  0  0  0  0  0  0  0  0  0
    6.4897    7.0520   17.7619 O   0  0  0  0  0  0  0  0  0  0  0  0
    6.0197    7.8824   15.7263 O   0  0  0  0  0  0  0  0  0  0  0  0
    5.4547    8.5770   15.2599 H   0  0  0  0  0  0  0  0  0  0  0  0
    3.7398    6.7955   18.4267 C   0  0  0  0  0  0  0  0  0  0  0  0
    3.2128    5.4880   18.9692 C   0  0  0  0  0  0  0  0  0  0  0  0
    4.0423    4.9822   20.0910 C   0  0  0  0  0  0  0  0  0  0  0  0
    4.7191    3.7714   20.0147 C   0  0  0  0  0  0  0  0  0  0  0  0
    5.4943    3.2728   21.0382 C   0  0  0  0  0  0  0  0  0  0  0  0
    5.6198    3.9953   22.2087 C   0  0  0  0  0  0  0  0  0  0  0  0
    4.9537    5.2139   22.3174 C   0  0  0  0  0  0  0  0  0  0  0  0
    4.1879    5.6815   21.2749 C   0  0  0  0  0  0  0  0  0  0  0  0
  1  2  1  0  0  0
  2 19  1  0  0  0
 19 21  1  0  0  0
 21 26  1  0  0  0
 26 27  1  0  0  0
 27 28  1  0  0  0
 28 29  2  0  0  0
 29 30  1  0  0  0
 30 31  2  0  0  0
 31 32  1  0  0  0
 32 33  2  0  0  0
 21 22  1  0  0  0
 22 23  2  0  0  0
 22 24  1  0  0  0
  2  3  1  0  0  0
  3  4  2  0  0  0
  3  5  1  0  0  0
  5  6  1  0  0  0
  6  7  1  0  0  0
  7  8  2  0  0  0
  8  9  1  0  0  0
  9 10  2  0  0  0
 10 11  1  0  0  0
 11 12  2  0  0  0
 12 13  1  0  0  0
 13 14  1  0  0  0
 14 15  1  0  0  0
 15 16  2  0  0  0
 15 17  1  0  0  0
 33 28  1  0  0  0
 14  5  1  0  0  0
 12  7  1  0  0  0
 19 20  1  0  0  0
 24 25  1  0  0  0
 17 18  1  0  0  0
M  END
> <minimizedAffinity>
-7.35404

> <CNNscore>
0.2297044694

> <CNNaffinity>
4.9529261589

> <CNN_VS>
1.1377092600

> <CNNaffinity_variance>
0.2771454453

$$$$
[H]OC(=O)[C@@]1([H])N(C(=O)[C@@]([H])(N([H])[C@]([H])(C(=O)O[H])C([H])([H])C([H])([H])c2c([H])c([H])c([H])c([H])c2[H])C([H])([H])[H])C([H])([H])c2c([H])c([H])c([H])c([H])c2C1([H])[H]


 33 35  0  0  0  0  0  0  0  0999 V2000
    7.1311    7.9586   18.0629 C   0  0  0  0  0  0  0  0  0  0  0  0
    6.2261    6.9750   18.8217 C   0  0  0  0  0  0  0  0  0  0  0  0
    6.0068    5.8358   17.9262 C   0  0  0  0  0  0  0  0  0  0  0  0
    7.0446    5.3770   17.3332 O   0  0  0  0  0  0  0  0  0  0  0  0
    4.7804    5.1949   17.6499 N   0  0  0  0  0  0  0  0  0  0  0  0
    4.7955    4.0844   16.6693 C   0  0  0  0  0  0  0  0  0  0  0  0
    3.8654    4.4950   15.5530 C   0  0  0  0  0  0  0  0  0  0  0  0
    4.1941    4.4275   14.2258 C   0  0  0  0  0  0  0  0  0  0  0  0
    3.2705    4.8656   13.2628 C   0  0  0  0  0  0  0  0  0  0  0  0
    2.0555    5.3520   13.6959 C   0  0  0  0  0  0  0  0  0  0  0  0
    1.7490    5.4075   15.0618 C   0  0  0  0  0  0  0  0  0  0  0  0
    2.6475    4.9798   16.0127 C   0  0  0  0  0  0  0  0  0  0  0  0
    2.3738    4.9763   17.4486 C   0  0  0  0  0  0  0  0  0  0  0  0
    3.5156    5.5221   18.2447 C   0  0  0  0  0  0  0  0  0  0  0  0
    3.4462    5.0636   19.6628 C   0  0  0  0  0  0  0  0  0  0  0  0
    3.7683    3.8984   19.9447 O   0  0  0  0  0  0  0  0  0  0  0  0
    3.0296    5.9345   20.6277 O   0  0  0  0  0  0  0  0  0  0  0  0
    3.6143    6.7485   20.8095 H   0  0  0  0  0  0  0  0  0  0  0  0
    7.0004    6.6071   20.0021 N   0  0  0  0  0  0  0  0  0  0  0  0
    7.2433    5.5906   19.8837 H   0  0  0  0  0  0  0  0  0  0  0  0
    6.1480    6.7020   21.1645 C   0  0  0  0  0  0  0  0  0  0  0  0
    5.7611    8.1169   21.4396 C   0  0  0  0  0  0  0  0  0  0  0  0
    6.6012    9.0510   21.4366 O   0  0  0  0  0  0  0  0  0  0  0  0
    4.4470    8.4702   21.7132 O   0  0  0  0  0  0  0  0  0  0  0  0
    3.8352    7.9425   22.3186 H   0  0  0  0  0  0  0  0  0  0  0  0
    6.7698    6.0565   22.3767 C   0  0  0  0  0  0  0  0  0  0  0  0
    7.2616    4.6586   22.0844 C   0  0  0  0  0  0  0  0  0  0  0  0
    6.2110    3.6409   22.3353 C   0  0  0  0  0  0  0  0  0  0  0  0
    6.2909    2.3587   21.8066 C   0  0  0  0  0  0  0  0  0  0  0  0
    5.3322    1.3926   22.0180 C   0  0  0  0  0  0  0  0  0  0  0  0
    4.2271    1.6906   22.7911 C   0  0  0  0  0  0  0  0  0  0  0  0
    4.1165    2.9678   23.3362 C   0  0  0  0  0  0  0  0  0  0  0  0
    5.0933    3.9081   23.1043 C   0  0  0  0  0  0  0  0  0  0  0  0
  1  2  1  0  0  0
  2 19  1  0  0  0
 19 21  1  0  0  0
 21 26  1  0  0  0
 26 27  1  0  0  0
 27 28  1  0  0  0
 28 29  2  0  0  0
 29 30  1  0  0  0
 30 31  2  0  0  0
 31 32  1  0  0  0
 32 33  2  0  0  0
 21 22  1  0  0  0
 22 23  2  0  0  0
 22 24  1  0  0  0
  2  3  1  0  0  0
  3  4  2  0  0  0
  3  5  1  0  0  0
  5  6  1  0  0  0
  6  7  1  0  0  0
  7  8  2  0  0  0
  8  9  1  0  0  0
  9 10  2  0  0  0
 10 11  1  0  0  0
 11 12  2  0  0  0
 12 13  1  0  0  0
 13 14  1  0  0  0
 14 15  1  0  0  0
 15 16  2  0  0  0
 15 17  1  0  0  0
 33 28  1  0  0  0
 14  5  1  0  0  0
 12  7  1  0  0  0
 19 20  1  0  0  0
 24 25  1  0  0  0
 17 18  1  0  0  0
M  END
> <minimizedAffinity>
-7.70932

> <CNNscore>
0.2225566804

> <CNNaffinity>
5.3201284409

> <CNN_VS>
1.1840301752

> <CNNaffinity_variance>
0.2256636322

$$$$
[H]OC(=O)[C@@]1([H])N(C(=O)[C@@]([H])(N([H])[C@]([H])(C(=O)O[H])C([H])([H])C([H])([H])c2c([H])c([H])c([H])c([H])c2[H])C([H])([H])[H])C([H])([H])c2c([H])c([H])c([H])c([H])c2C1([H])[H]


 33 35  0  0  0  0  0  0  0  0999 V2000
    4.5301    8.2201   16.3994 C   0  0  0  0  0  0  0  0  0  0  0  0
    5.3164    7.0320   16.9759 C   0  0  0  0  0  0  0  0  0  0  0  0
    6.4278    7.6017   17.7429 C   0  0  0  0  0  0  0  0  0  0  0  0
    7.4775    7.9034   17.0748 O   0  0  0  0  0  0  0  0  0  0  0  0
    6.4634    7.8513   19.1312 N   0  0  0  0  0  0  0  0  0  0  0  0
    7.7209    8.3943   19.6958 C   0  0  0  0  0  0  0  0  0  0  0  0
    8.1926    7.3888   20.7188 C   0  0  0  0  0  0  0  0  0  0  0  0
    9.4726    6.9071   20.7776 C   0  0  0  0  0  0  0  0  0  0  0  0
    9.8050    5.9469   21.7470 C   0  0  0  0  0  0  0  0  0  0  0  0
    8.8187    5.5218   22.6112 C   0  0  0  0  0  0  0  0  0  0  0  0
    7.5178    6.0348   22.5256 C   0  0  0  0  0  0  0  0  0  0  0  0
    7.1829    6.9766   21.5793 C   0  0  0  0  0  0  0  0  0  0  0  0
    5.8557    7.5780   21.4628 C   0  0  0  0  0  0  0  0  0  0  0  0
    5.3797    7.6309   20.0465 C   0  0  0  0  0  0  0  0  0  0  0  0
    4.3095    8.6571   19.8801 C   0  0  0  0  0  0  0  0  0  0  0  0
    4.5420    9.8375   20.1861 O   0  0  0  0  0  0  0  0  0  0  0  0
    3.0914    8.2804   19.3930 O   0  0  0  0  0  0  0  0  0  0  0  0
    3.0551    7.9352   18.4353 H   0  0  0  0  0  0  0  0  0  0  0  0
    4.3554    6.3410   17.8286 N   0  0  0  0  0  0  0  0  0  0  0  0
    4.7449    6.3922   18.8043 H   0  0  0  0  0  0  0  0  0  0  0  0
    4.3285    4.9444   17.4606 C   0  0  0  0  0  0  0  0  0  0  0  0
    3.2623    4.6692   16.4532 C   0  0  0  0  0  0  0  0  0  0  0  0
    3.5173    4.5416   15.2296 O   0  0  0  0  0  0  0  0  0  0  0  0
    1.9305    4.5400   16.8223 O   0  0  0  0  0  0  0  0  0  0  0  0
    1.4685    5.1426   17.4876 H   0  0  0  0  0  0  0  0  0  0  0  0
    4.1942    4.0447   18.6627 C   0  0  0  0  0  0  0  0  0  0  0  0
    5.4622    4.0016   19.4824 C   0  0  0  0  0  0  0  0  0  0  0  0
    5.1853    3.7110   20.9111 C   0  0  0  0  0  0  0  0  0  0  0  0
    4.1946    4.3817   21.6173 C   0  0  0  0  0  0  0  0  0  0  0  0
    3.9148    4.1378   22.9437 C   0  0  0  0  0  0  0  0  0  0  0  0
    4.6426    3.1830   23.6266 C   0  0  0  0  0  0  0  0  0  0  0  0
    5.6436    2.4922   22.9473 C   0  0  0  0  0  0  0  0  0  0  0  0
    5.8959    2.7617   21.6223 C   0  0  0  0  0  0  0  0  0  0  0  0
  1  2  1  0  0  0
  2 19  1  0  0  0
 19 21  1  0  0  0
 21 26  1  0  0  0
 26 27  1  0  0  0
 27 28  1  0  0  0
 28 29  2  0  0  0
 29 30  1  0  0  0
 30 31  2  0  0  0
 31 32  1  0  0  0
 32 33  2  0  0  0
 21 22  1  0  0  0
 22 23  2  0  0  0
 22 24  1  0  0  0
  2  3  1  0  0  0
  3  4  2  0  0  0
  3  5  1  0  0  0
  5  6  1  0  0  0
  6  7  1  0  0  0
  7  8  2  0  0  0
  8  9  1  0  0  0
  9 10  2  0  0  0
 10 11  1  0  0  0
 11 12  2  0  0  0
 12 13  1  0  0  0
 13 14  1  0  0  0
 14 15  1  0  0  0
 15 16  2  0  0  0
 15 17  1  0  0  0
 33 28  1  0  0  0
 14  5  1  0  0  0
 12  7  1  0  0  0
 19 20  1  0  0  0
 24 25  1  0  0  0
 17 18  1  0  0  0
M  END
> <minimizedAffinity>
-7.30154

> <CNNscore>
0.1977313310

> <CNNaffinity>
5.1754212379

> <CNN_VS>
1.0233429670

> <CNNaffinity_variance>
0.2968669236

$$$$
[H]OC(=O)[C@@]1([H])N(c2nc(C#N)nc([H])c2[H])C([H])([H])[C@@]([H])(S(=O)(=O)c2c([H])c([H])c([H])c([H])c2C(F)(F)F)C1([H])[H]


 30 32  0  0  0  0  0  0  0  0999 V2000
    3.4759    4.0895   14.4074 N   0  0  0  0  0  0  0  0  0  0  0  0
    2.9997    3.4035   13.2254 C   0  0  0  0  0  0  0  0  0  0  0  0
    3.8178    4.1504   12.1360 C   0  0  0  0  0  0  0  0  0  0  0  0
    3.5781    5.5446   12.5422 C   0  0  0  0  0  0  0  0  0  0  0  0
    3.5468    5.4763   14.0813 C   0  0  0  0  0  0  0  0  0  0  0  0
    3.5269    1.6842   17.1675 C   0  0  0  0  0  0  0  0  0  0  0  0
    4.4240    2.2278   18.0090 N   0  0  0  0  0  0  0  0  0  0  0  0
    5.0506    3.3964   17.7186 C   0  0  0  0  0  0  0  0  0  0  0  0
    4.7137    3.9867   16.5181 C   0  0  0  0  0  0  0  0  0  0  0  0
    3.7982    3.4531   15.6355 C   0  0  0  0  0  0  0  0  0  0  0  0
    3.2222    2.2876   16.0042 N   0  0  0  0  0  0  0  0  0  0  0  0
    2.3814   -0.5597   17.8382 N   0  0  0  0  0  0  0  0  0  0  0  0
    2.8978    0.4473   17.5300 C   0  0  0  0  0  0  0  0  0  0  0  0
    2.4300    6.2716   14.6122 C   0  0  0  0  0  0  0  0  0  0  0  0
    2.2722    7.4500   14.2355 O   0  0  0  0  0  0  0  0  0  0  0  0
    1.5523    5.7286   15.5243 O   0  0  0  0  0  0  0  0  0  0  0  0
    1.3355    6.1538   16.4221 H   0  0  0  0  0  0  0  0  0  0  0  0
    3.1038    3.7149   10.5317 S   0  0  0  0  0  0  0  0  0  0  0  0
    1.6438    3.5195   10.8168 O   0  0  0  0  0  0  0  0  0  0  0  0
    3.3456    4.9249    9.6985 O   0  0  0  0  0  0  0  0  0  0  0  0
    3.8099    2.2513    9.9326 C   0  0  0  0  0  0  0  0  0  0  0  0
    3.0610    1.1104   10.0085 C   0  0  0  0  0  0  0  0  0  0  0  0
    3.5759   -0.0718    9.5231 C   0  0  0  0  0  0  0  0  0  0  0  0
    4.8261   -0.1321    8.9627 C   0  0  0  0  0  0  0  0  0  0  0  0
    5.5454    1.0347    8.9048 C   0  0  0  0  0  0  0  0  0  0  0  0
    5.0700    2.2644    9.3840 C   0  0  0  0  0  0  0  0  0  0  0  0
    5.9231    3.4476    9.2736 C   0  0  0  0  0  0  0  0  0  0  0  0
    6.2534    4.0625   10.4593 F   0  0  0  0  0  0  0  0  0  0  0  0
    5.5160    4.3494    8.3112 F   0  0  0  0  0  0  0  0  0  0  0  0
    7.1698    3.0189    8.7856 F   0  0  0  0  0  0  0  0  0  0  0  0
 12 13  3  0  0  0
 13  6  1  0  0  0
  6  7  2  0  0  0
  7  8  1  0  0  0
  8  9  2  0  0  0
  9 10  1  0  0  0
 10  1  1  0  0  0
  1  2  1  0  0  0
  2  3  1  0  0  0
  3 18  1  0  0  0
 18 19  2  0  0  0
 18 20  2  0  0  0
 18 21  1  0  0  0
 21 22  2  0  0  0
 22 23  1  0  0  0
 23 24  2  0  0  0
 24 25  1  0  0  0
 25 26  2  0  0  0
 26 27  1  0  0  0
 27 28  1  0  0  0
 27 29  1  0  0  0
 27 30  1  0  0  0
  3  4  1  0  0  0
  4  5  1  0  0  0
  5 14  1  0  0  0
 14 15  2  0  0  0
 14 16  1  0  0  0
 10 11  2  0  0  0
 11  6  1  0  0  0
  5  1  1  0  0  0
 26 21  1  0  0  0
 16 17  1  0  0  0
M  END
> <minimizedAffinity>
-6.27505

> <CNNscore>
0.3592878878

> <CNNaffinity>
5.6046700478

> <CNN_VS>
2.0136899948

> <CNNaffinity_variance>
0.2370357811

$$$$
[H]OC(=O)[C@@]1([H])N(c2nc(C#N)nc([H])c2[H])C([H])([H])[C@@]([H])(S(=O)(=O)c2c([H])c([H])c([H])c([H])c2C(F)(F)F)C1([H])[H]


 30 32  0  0  0  0  0  0  0  0999 V2000
    3.7252    5.1414   17.0102 N   0  0  0  0  0  0  0  0  0  0  0  0
    2.6317    5.2772   16.0720 C   0  0  0  0  0  0  0  0  0  0  0  0
    3.3543    6.0434   14.9297 C   0  0  0  0  0  0  0  0  0  0  0  0
    4.0263    7.0963   15.7084 C   0  0  0  0  0  0  0  0  0  0  0  0
    4.4221    6.3859   17.0173 C   0  0  0  0  0  0  0  0  0  0  0  0
    3.6946    1.6686   18.1700 C   0  0  0  0  0  0  0  0  0  0  0  0
    4.5547    1.7006   19.2032 N   0  0  0  0  0  0  0  0  0  0  0  0
    5.1813    2.8480   19.5684 C   0  0  0  0  0  0  0  0  0  0  0  0
    4.8843    3.9691   18.8214 C   0  0  0  0  0  0  0  0  0  0  0  0
    4.0071    3.9668   17.7572 C   0  0  0  0  0  0  0  0  0  0  0  0
    3.4281    2.7818   17.4628 N   0  0  0  0  0  0  0  0  0  0  0  0
    2.5436   -0.5856   17.5449 N   0  0  0  0  0  0  0  0  0  0  0  0
    3.0634    0.4258   17.8322 C   0  0  0  0  0  0  0  0  0  0  0  0
    4.1170    7.2337   18.1791 C   0  0  0  0  0  0  0  0  0  0  0  0
    3.2737    6.8583   19.0178 O   0  0  0  0  0  0  0  0  0  0  0  0
    4.7541    8.4424   18.3531 O   0  0  0  0  0  0  0  0  0  0  0  0
    4.2661    9.3236   18.4918 H   0  0  0  0  0  0  0  0  0  0  0  0
    2.0800    6.6578   13.8018 S   0  0  0  0  0  0  0  0  0  0  0  0
    0.8365    5.9266   14.2143 O   0  0  0  0  0  0  0  0  0  0  0  0
    1.9974    8.1097   14.1212 O   0  0  0  0  0  0  0  0  0  0  0  0
    2.4923    6.2836   12.1619 C   0  0  0  0  0  0  0  0  0  0  0  0
    3.7879    5.9365   11.8988 C   0  0  0  0  0  0  0  0  0  0  0  0
    4.1539    5.6095   10.6113 C   0  0  0  0  0  0  0  0  0  0  0  0
    3.2464    5.6233    9.5832 C   0  0  0  0  0  0  0  0  0  0  0  0
    1.9564    5.9765    9.8887 C   0  0  0  0  0  0  0  0  0  0  0  0
    1.5304    6.3186   11.1808 C   0  0  0  0  0  0  0  0  0  0  0  0
    0.1296    6.6821   11.3939 C   0  0  0  0  0  0  0  0  0  0  0  0
   -0.0896    7.8917   12.0120 F   0  0  0  0  0  0  0  0  0  0  0  0
   -0.6404    5.6712   11.9328 F   0  0  0  0  0  0  0  0  0  0  0  0
   -0.4505    6.8684   10.1271 F   0  0  0  0  0  0  0  0  0  0  0  0
 12 13  3  0  0  0
 13  6  1  0  0  0
  6  7  2  0  0  0
  7  8  1  0  0  0
  8  9  2  0  0  0
  9 10  1  0  0  0
 10  1  1  0  0  0
  1  2  1  0  0  0
  2  3  1  0  0  0
  3 18  1  0  0  0
 18 19  2  0  0  0
 18 20  2  0  0  0
 18 21  1  0  0  0
 21 22  2  0  0  0
 22 23  1  0  0  0
 23 24  2  0  0  0
 24 25  1  0  0  0
 25 26  2  0  0  0
 26 27  1  0  0  0
 27 28  1  0  0  0
 27 29  1  0  0  0
 27 30  1  0  0  0
  3  4  1  0  0  0
  4  5  1  0  0  0
  5 14  1  0  0  0
 14 15  2  0  0  0
 14 16  1  0  0  0
 10 11  2  0  0  0
 11  6  1  0  0  0
  5  1  1  0  0  0
 26 21  1  0  0  0
 16 17  1  0  0  0
M  END
> <minimizedAffinity>
-6.35317

> <CNNscore>
0.3332456946

> <CNNaffinity>
5.4597082138

> <CNN_VS>
1.8194242716

> <CNNaffinity_variance>
0.5225120187

$$$$
[H]OC(=O)[C@@]1([H])N(c2nc(C#N)nc([H])c2[H])C([H])([H])[C@@]([H])(S(=O)(=O)c2c([H])c([H])c([H])c([H])c2C(F)(F)F)C1([H])[H]


 30 32  0  0  0  0  0  0  0  0999 V2000
    3.0318    2.9624   15.4306 N   0  0  0  0  0  0  0  0  0  0  0  0
    2.6307    2.5429   14.1049 C   0  0  0  0  0  0  0  0  0  0  0  0
    3.6185    3.3832   13.2493 C   0  0  0  0  0  0  0  0  0  0  0  0
    3.4505    4.7024   13.8802 C   0  0  0  0  0  0  0  0  0  0  0  0
    3.2493    4.3708   15.3715 C   0  0  0  0  0  0  0  0  0  0  0  0
    3.9842    1.6359   18.7078 C   0  0  0  0  0  0  0  0  0  0  0  0
    3.4286    0.4113   18.6972 N   0  0  0  0  0  0  0  0  0  0  0  0
    2.7220   -0.0372   17.6286 C   0  0  0  0  0  0  0  0  0  0  0  0
    2.6097    0.8326   16.5637 C   0  0  0  0  0  0  0  0  0  0  0  0
    3.1681    2.0934   16.5458 C   0  0  0  0  0  0  0  0  0  0  0  0
    3.8546    2.4585   17.6510 N   0  0  0  0  0  0  0  0  0  0  0  0
    5.3301    2.3983   20.8064 N   0  0  0  0  0  0  0  0  0  0  0  0
    4.7194    2.0531   19.8664 C   0  0  0  0  0  0  0  0  0  0  0  0
    2.1503    5.1682   15.9354 C   0  0  0  0  0  0  0  0  0  0  0  0
    1.3331    5.7250   15.1753 O   0  0  0  0  0  0  0  0  0  0  0  0
    2.0117    5.3082   17.2987 O   0  0  0  0  0  0  0  0  0  0  0  0
    1.9436    6.2063   17.7704 H   0  0  0  0  0  0  0  0  0  0  0  0
    3.0473    3.3061   11.5343 S   0  0  0  0  0  0  0  0  0  0  0  0
    2.7116    1.8595   11.3204 O   0  0  0  0  0  0  0  0  0  0  0  0
    1.8285    4.1613   11.5304 O   0  0  0  0  0  0  0  0  0  0  0  0
    4.3055    3.8067   10.4547 C   0  0  0  0  0  0  0  0  0  0  0  0
    5.4225    4.3717   11.0036 C   0  0  0  0  0  0  0  0  0  0  0  0
    6.4571    4.7639   10.1824 C   0  0  0  0  0  0  0  0  0  0  0  0
    6.3937    4.6001    8.8223 C   0  0  0  0  0  0  0  0  0  0  0  0
    5.2561    4.0288    8.3108 C   0  0  0  0  0  0  0  0  0  0  0  0
    4.1739    3.6122    9.1004 C   0  0  0  0  0  0  0  0  0  0  0  0
    3.0074    3.0163    8.4494 C   0  0  0  0  0  0  0  0  0  0  0  0
    1.7986    3.6169    8.7163 F   0  0  0  0  0  0  0  0  0  0  0  0
    2.9438    1.6414    8.5533 F   0  0  0  0  0  0  0  0  0  0  0  0
    3.1559    3.2135    7.0655 F   0  0  0  0  0  0  0  0  0  0  0  0
 12 13  3  0  0  0
 13  6  1  0  0  0
  6  7  2  0  0  0
  7  8  1  0  0  0
  8  9  2  0  0  0
  9 10  1  0  0  0
 10  1  1  0  0  0
  1  2  1  0  0  0
  2  3  1  0  0  0
  3 18  1  0  0  0
 18 19  2  0  0  0
 18 20  2  0  0  0
 18 21  1  0  0  0
 21 22  2  0  0  0
 22 23  1  0  0  0
 23 24  2  0  0  0
 24 25  1  0  0  0
 25 26  2  0  0  0
 26 27  1  0  0  0
 27 28  1  0  0  0
 27 29  1  0  0  0
 27 30  1  0  0  0
  3  4  1  0  0  0
  4  5  1  0  0  0
  5 14  1  0  0  0
 14 15  2  0  0  0
 14 16  1  0  0  0
 10 11  2  0  0  0
 11  6  1  0  0  0
  5  1  1  0  0  0
 26 21  1  0  0  0
 16 17  1  0  0  0
M  END
> <minimizedAffinity>
-6.09710

> <CNNscore>
0.3019010127

> <CNNaffinity>
5.3316631317

> <CNN_VS>
1.6096345186

> <CNNaffinity_variance>
0.1985242367

$$$$
[H]OC(=O)[C@@]1([H])N(c2nc(C#N)nc([H])c2[H])C([H])([H])[C@@]([H])(S(=O)(=O)c2c([H])c([H])c([H])c([H])c2C(F)(F)F)C1([H])[H]


 30 32  0  0  0  0  0  0  0  0999 V2000
    3.0330    2.9928   15.8412 N   0  0  0  0  0  0  0  0  0  0  0  0
    2.2951    2.7505   14.6201 C   0  0  0  0  0  0  0  0  0  0  0  0
    3.2811    3.3624   13.5870 C   0  0  0  0  0  0  0  0  0  0  0  0
    3.5729    4.6497   14.2382 C   0  0  0  0  0  0  0  0  0  0  0  0
    3.5820    4.3054   15.7401 C   0  0  0  0  0  0  0  0  0  0  0  0
    4.0664    1.4275   18.9858 C   0  0  0  0  0  0  0  0  0  0  0  0
    3.3901    0.2653   18.9668 N   0  0  0  0  0  0  0  0  0  0  0  0
    2.5707   -0.0611   17.9351 C   0  0  0  0  0  0  0  0  0  0  0  0
    2.4751    0.8643   16.9164 C   0  0  0  0  0  0  0  0  0  0  0  0
    3.1559    2.0636   16.9082 C   0  0  0  0  0  0  0  0  0  0  0  0
    3.9494    2.3073   17.9746 N   0  0  0  0  0  0  0  0  0  0  0  0
    5.6079    1.9634   21.0188 N   0  0  0  0  0  0  0  0  0  0  0  0
    4.9171    1.7159   20.1039 C   0  0  0  0  0  0  0  0  0  0  0  0
    2.8463    5.3204   16.5084 C   0  0  0  0  0  0  0  0  0  0  0  0
    1.8299    4.9951   17.1538 O   0  0  0  0  0  0  0  0  0  0  0  0
    3.2680    6.6315   16.5240 O   0  0  0  0  0  0  0  0  0  0  0  0
    2.6712    7.4198   16.2869 H   0  0  0  0  0  0  0  0  0  0  0  0
    2.3939    3.5125   12.0174 S   0  0  0  0  0  0  0  0  0  0  0  0
    3.1083    2.5678   11.0963 O   0  0  0  0  0  0  0  0  0  0  0  0
    1.0217    3.0341   12.3415 O   0  0  0  0  0  0  0  0  0  0  0  0
    2.4897    5.1356   11.4212 C   0  0  0  0  0  0  0  0  0  0  0  0
    1.4105    5.9492   11.6253 C   0  0  0  0  0  0  0  0  0  0  0  0
    1.4534    7.2547   11.1867 C   0  0  0  0  0  0  0  0  0  0  0  0
    2.5569    7.7601   10.5484 C   0  0  0  0  0  0  0  0  0  0  0  0
    3.6192    6.9117   10.3636 C   0  0  0  0  0  0  0  0  0  0  0  0
    3.6284    5.5751   10.7892 C   0  0  0  0  0  0  0  0  0  0  0  0
    4.8153    4.7578   10.5381 C   0  0  0  0  0  0  0  0  0  0  0  0
    4.6648    3.7476    9.6161 F   0  0  0  0  0  0  0  0  0  0  0  0
    5.4597    4.3316   11.6819 F   0  0  0  0  0  0  0  0  0  0  0  0
    5.7752    5.5900    9.9364 F   0  0  0  0  0  0  0  0  0  0  0  0
 12 13  3  0  0  0
 13  6  1  0  0  0
  6  7  2  0  0  0
  7  8  1  0  0  0
  8  9  2  0  0  0
  9 10  1  0  0  0
 10  1  1  0  0  0
  1  2  1  0  0  0
  2  3  1  0  0  0
  3 18  1  0  0  0
 18 19  2  0  0  0
 18 20  2  0  0  0
 18 21  1  0  0  0
 21 22  2  0  0  0
 22 23  1  0  0  0
 23 24  2  0  0  0
 24 25  1  0  0  0
 25 26  2  0  0  0
 26 27  1  0  0  0
 27 28  1  0  0  0
 27 29  1  0  0  0
 27 30  1  0  0  0
  3  4  1  0  0  0
  4  5  1  0  0  0
  5 14  1  0  0  0
 14 15  2  0  0  0
 14 16  1  0  0  0
 10 11  2  0  0  0
 11  6  1  0  0  0
  5  1  1  0  0  0
 26 21  1  0  0  0
 16 17  1  0  0  0
M  END
> <minimizedAffinity>
-6.43227

> <CNNscore>
0.2897114456

> <CNNaffinity>
5.4069714546

> <CNN_VS>
1.5664615631

> <CNNaffinity_variance>
0.2654156387

$$$$
[H]OC(=O)[C@@]1([H])N(c2nc(C#N)nc([H])c2[H])C([H])([H])[C@@]([H])(S(=O)(=O)c2c([H])c([H])c([H])c([H])c2C(F)(F)F)C1([H])[H]


 30 32  0  0  0  0  0  0  0  0999 V2000
    3.0480    3.0901   15.8801 N   0  0  0  0  0  0  0  0  0  0  0  0
    2.1462    2.9459   14.7574 C   0  0  0  0  0  0  0  0  0  0  0  0
    3.0665    3.4472   13.6103 C   0  0  0  0  0  0  0  0  0  0  0  0
    3.5825    4.6861   14.2147 C   0  0  0  0  0  0  0  0  0  0  0  0
    3.7306    4.3304   15.7067 C   0  0  0  0  0  0  0  0  0  0  0  0
    4.0996    1.4923   19.0022 C   0  0  0  0  0  0  0  0  0  0  0  0
    3.4553    0.3128   18.9553 N   0  0  0  0  0  0  0  0  0  0  0  0
    2.6529   -0.0154   17.9108 C   0  0  0  0  0  0  0  0  0  0  0  0
    2.5400    0.9267   16.9095 C   0  0  0  0  0  0  0  0  0  0  0  0
    3.1880    2.1439   16.9300 C   0  0  0  0  0  0  0  0  0  0  0  0
    3.9664    2.3881   18.0073 N   0  0  0  0  0  0  0  0  0  0  0  0
    5.6157    2.0060   21.0599 N   0  0  0  0  0  0  0  0  0  0  0  0
    4.9336    1.7816   20.1325 C   0  0  0  0  0  0  0  0  0  0  0  0
    3.2158    5.4178   16.5517 C   0  0  0  0  0  0  0  0  0  0  0  0
    3.9233    6.4209   16.7729 O   0  0  0  0  0  0  0  0  0  0  0  0
    1.9564    5.3418   17.1041 O   0  0  0  0  0  0  0  0  0  0  0  0
    1.7673    5.4528   18.0970 H   0  0  0  0  0  0  0  0  0  0  0  0
    2.0218    3.7131   12.1574 S   0  0  0  0  0  0  0  0  0  0  0  0
    2.5831    2.7830   11.1224 O   0  0  0  0  0  0  0  0  0  0  0  0
    0.6709    3.2819   12.6114 O   0  0  0  0  0  0  0  0  0  0  0  0
    2.1332    5.3573   11.6250 C   0  0  0  0  0  0  0  0  0  0  0  0
    3.0979    5.6604   10.7053 C   0  0  0  0  0  0  0  0  0  0  0  0
    3.2069    6.9521   10.2381 C   0  0  0  0  0  0  0  0  0  0  0  0
    2.3675    7.9449   10.6744 C   0  0  0  0  0  0  0  0  0  0  0  0
    1.4126    7.5997   11.5970 C   0  0  0  0  0  0  0  0  0  0  0  0
    1.2580    6.3017   12.1059 C   0  0  0  0  0  0  0  0  0  0  0  0
    0.2062    6.0449   13.0895 C   0  0  0  0  0  0  0  0  0  0  0  0
    0.6344    5.6852   14.3467 F   0  0  0  0  0  0  0  0  0  0  0  0
   -0.8105    5.2323   12.6299 F   0  0  0  0  0  0  0  0  0  0  0  0
   -0.4551    7.2636   13.3211 F   0  0  0  0  0  0  0  0  0  0  0  0
 12 13  3  0  0  0
 13  6  1  0  0  0
  6  7  2  0  0  0
  7  8  1  0  0  0
  8  9  2  0  0  0
  9 10  1  0  0  0
 10  1  1  0  0  0
  1  2  1  0  0  0
  2  3  1  0  0  0
  3 18  1  0  0  0
 18 19  2  0  0  0
 18 20  2  0  0  0
 18 21  1  0  0  0
 21 22  2  0  0  0
 22 23  1  0  0  0
 23 24  2  0  0  0
 24 25  1  0  0  0
 25 26  2  0  0  0
 26 27  1  0  0  0
 27 28  1  0  0  0
 27 29  1  0  0  0
 27 30  1  0  0  0
  3  4  1  0  0  0
  4  5  1  0  0  0
  5 14  1  0  0  0
 14 15  2  0  0  0
 14 16  1  0  0  0
 10 11  2  0  0  0
 11  6  1  0  0  0
  5  1  1  0  0  0
 26 21  1  0  0  0
 16 17  1  0  0  0
M  END
> <minimizedAffinity>
-6.68746

> <CNNscore>
0.2354153246

> <CNNaffinity>
5.2678308487

> <CNN_VS>
1.2401281595

> <CNNaffinity_variance>
0.2338283509

$$$$
[H]OC(=O)[C@@]1([H])N(c2nc(C#N)nc([H])c2[H])C([H])([H])[C@@]([H])(S(=O)(=O)c2c([H])c([H])c([H])c([H])c2C(F)(F)F)C1([H])[H]


 30 32  0  0  0  0  0  0  0  0999 V2000
    5.4576    6.7314   19.0500 N   0  0  0  0  0  0  0  0  0  0  0  0
    5.7452    5.3196   19.1853 C   0  0  0  0  0  0  0  0  0  0  0  0
    4.3202    4.7863   19.4998 C   0  0  0  0  0  0  0  0  0  0  0  0
    3.9113    5.7397   20.5439 C   0  0  0  0  0  0  0  0  0  0  0  0
    4.5440    7.0699   20.0918 C   0  0  0  0  0  0  0  0  0  0  0  0
    5.9657    8.4877   15.8777 C   0  0  0  0  0  0  0  0  0  0  0  0
    7.0760    9.2069   16.1192 N   0  0  0  0  0  0  0  0  0  0  0  0
    7.7076    9.1537   17.3196 C   0  0  0  0  0  0  0  0  0  0  0  0
    7.1455    8.3243   18.2678 C   0  0  0  0  0  0  0  0  0  0  0  0
    6.0083    7.5754   18.0492 C   0  0  0  0  0  0  0  0  0  0  0  0
    5.4446    7.6885   16.8263 N   0  0  0  0  0  0  0  0  0  0  0  0
    4.8230    8.6661   13.5411 N   0  0  0  0  0  0  0  0  0  0  0  0
    5.3433    8.5860   14.5892 C   0  0  0  0  0  0  0  0  0  0  0  0
    5.1672    7.7602   21.2305 C   0  0  0  0  0  0  0  0  0  0  0  0
    6.3366    7.4807   21.5622 O   0  0  0  0  0  0  0  0  0  0  0  0
    4.4723    8.7160   21.9382 O   0  0  0  0  0  0  0  0  0  0  0  0
    4.3493    8.6936   22.9473 H   0  0  0  0  0  0  0  0  0  0  0  0
    4.4980    3.0829   20.0831 S   0  0  0  0  0  0  0  0  0  0  0  0
    5.9797    2.8922   20.2232 O   0  0  0  0  0  0  0  0  0  0  0  0
    3.8157    3.0908   21.4065 O   0  0  0  0  0  0  0  0  0  0  0  0
    3.8472    1.9749   18.9221 C   0  0  0  0  0  0  0  0  0  0  0  0
    3.7635    2.3954   17.6242 C   0  0  0  0  0  0  0  0  0  0  0  0
    3.2724    1.5376   16.6642 C   0  0  0  0  0  0  0  0  0  0  0  0
    2.8644    0.2670   16.9801 C   0  0  0  0  0  0  0  0  0  0  0  0
    2.9651   -0.1168   18.2934 C   0  0  0  0  0  0  0  0  0  0  0  0
    3.4567    0.7155   19.3100 C   0  0  0  0  0  0  0  0  0  0  0  0
    3.5185    0.2041   20.6790 C   0  0  0  0  0  0  0  0  0  0  0  0
    2.5519    0.6722   21.5392 F   0  0  0  0  0  0  0  0  0  0  0  0
    4.7797    0.2396   21.2388 F   0  0  0  0  0  0  0  0  0  0  0  0
    3.2459   -1.1739   20.6224 F   0  0  0  0  0  0  0  0  0  0  0  0
 12 13  3  0  0  0
 13  6  1  0  0  0
  6  7  2  0  0  0
  7  8  1  0  0  0
  8  9  2  0  0  0
  9 10  1  0  0  0
 10  1  1  0  0  0
  1  2  1  0  0  0
  2  3  1  0  0  0
  3 18  1  0  0  0
 18 19  2  0  0  0
 18 20  2  0  0  0
 18 21  1  0  0  0
 21 22  2  0  0  0
 22 23  1  0  0  0
 23 24  2  0  0  0
 24 25  1  0  0  0
 25 26  2  0  0  0
 26 27  1  0  0  0
 27 28  1  0  0  0
 27 29  1  0  0  0
 27 30  1  0  0  0
  3  4  1  0  0  0
  4  5  1  0  0  0
  5 14  1  0  0  0
 14 15  2  0  0  0
 14 16  1  0  0  0
 10 11  2  0  0  0
 11  6  1  0  0  0
  5  1  1  0  0  0
 26 21  1  0  0  0
 16 17  1  0  0  0
M  END
> <minimizedAffinity>
-8.37603

> <CNNscore>
0.2303302735

> <CNNaffinity>
5.8174920082

> <CNN_VS>
1.3399444818

> <CNNaffinity_variance>
0.0478965603

$$$$
[H]OC(=O)[C@@]1([H])N(c2nc(C#N)nc([H])c2[H])C([H])([H])[C@@]([H])(S(=O)(=O)c2c([H])c([H])c([H])c([H])c2C(F)(F)F)C1([H])[H]


 30 32  0  0  0  0  0  0  0  0999 V2000
    3.3768    3.4200   15.9350 N   0  0  0  0  0  0  0  0  0  0  0  0
    3.2054    4.1550   17.1698 C   0  0  0  0  0  0  0  0  0  0  0  0
    4.5470    3.8101   17.8736 C   0  0  0  0  0  0  0  0  0  0  0  0
    4.5767    2.3520   17.6746 C   0  0  0  0  0  0  0  0  0  0  0  0
    3.9531    2.1613   16.2785 C   0  0  0  0  0  0  0  0  0  0  0  0
    1.3938    4.4785   13.0447 C   0  0  0  0  0  0  0  0  0  0  0  0
    2.3402    4.8499   12.1644 N   0  0  0  0  0  0  0  0  0  0  0  0
    3.6608    4.7734   12.4692 C   0  0  0  0  0  0  0  0  0  0  0  0
    3.9695    4.2957   13.7260 C   0  0  0  0  0  0  0  0  0  0  0  0
    3.0215    3.9075   14.6492 C   0  0  0  0  0  0  0  0  0  0  0  0
    1.7313    4.0167   14.2625 N   0  0  0  0  0  0  0  0  0  0  0  0
   -1.1094    4.6740   12.3431 N   0  0  0  0  0  0  0  0  0  0  0  0
    0.0149    4.5823   12.6644 C   0  0  0  0  0  0  0  0  0  0  0  0
    2.9924    1.0483   16.2883 C   0  0  0  0  0  0  0  0  0  0  0  0
    3.2104    0.0457   16.9975 O   0  0  0  0  0  0  0  0  0  0  0  0
    1.8499    1.0999   15.5207 O   0  0  0  0  0  0  0  0  0  0  0  0
    1.5809    0.3765   14.8588 H   0  0  0  0  0  0  0  0  0  0  0  0
    4.3948    4.3169   19.6037 S   0  0  0  0  0  0  0  0  0  0  0  0
    5.7185    4.9469   19.9229 O   0  0  0  0  0  0  0  0  0  0  0  0
    3.2970    5.3226   19.5806 O   0  0  0  0  0  0  0  0  0  0  0  0
    4.1147    2.9393   20.6151 C   0  0  0  0  0  0  0  0  0  0  0  0
    4.0364    1.7160   20.0104 C   0  0  0  0  0  0  0  0  0  0  0  0
    3.8367    0.5909   20.7804 C   0  0  0  0  0  0  0  0  0  0  0  0
    3.7147    0.6685   22.1441 C   0  0  0  0  0  0  0  0  0  0  0  0
    3.7996    1.9143   22.7125 C   0  0  0  0  0  0  0  0  0  0  0  0
    4.0014    3.0914   21.9765 C   0  0  0  0  0  0  0  0  0  0  0  0
    4.0741    4.3688   22.6854 C   0  0  0  0  0  0  0  0  0  0  0  0
    3.1603    5.3226   22.2997 F   0  0  0  0  0  0  0  0  0  0  0  0
    5.3509    4.8811   22.7964 F   0  0  0  0  0  0  0  0  0  0  0  0
    3.7237    4.1234   24.0245 F   0  0  0  0  0  0  0  0  0  0  0  0
 12 13  3  0  0  0
 13  6  1  0  0  0
  6  7  2  0  0  0
  7  8  1  0  0  0
  8  9  2  0  0  0
  9 10  1  0  0  0
 10  1  1  0  0  0
  1  2  1  0  0  0
  2  3  1  0  0  0
  3 18  1  0  0  0
 18 19  2  0  0  0
 18 20  2  0  0  0
 18 21  1  0  0  0
 21 22  2  0  0  0
 22 23  1  0  0  0
 23 24  2  0  0  0
 24 25  1  0  0  0
 25 26  2  0  0  0
 26 27  1  0  0  0
 27 28  1  0  0  0
 27 29  1  0  0  0
 27 30  1  0  0  0
  3  4  1  0  0  0
  4  5  1  0  0  0
  5 14  1  0  0  0
 14 15  2  0  0  0
 14 16  1  0  0  0
 10 11  2  0  0  0
 11  6  1  0  0  0
  5  1  1  0  0  0
 26 21  1  0  0  0
 16 17  1  0  0  0
M  END
> <minimizedAffinity>
-8.48703

> <CNNscore>
0.2170273513

> <CNNaffinity>
5.4667930603

> <CNN_VS>
1.1864435673

> <CNNaffinity_variance>
0.3059830070

$$$$
[H]OC(=O)[C@@]1([H])N(c2nc(C#N)nc([H])c2[H])C([H])([H])[C@@]([H])(S(=O)(=O)c2c([H])c([H])c([H])c([H])c2C(F)(F)F)C1([H])[H]


 30 32  0  0  0  0  0  0  0  0999 V2000
    2.9086    3.2299   15.4301 N   0  0  0  0  0  0  0  0  0  0  0  0
    1.9583    3.0438   14.3546 C   0  0  0  0  0  0  0  0  0  0  0  0
    2.8176    3.5262   13.1534 C   0  0  0  0  0  0  0  0  0  0  0  0
    3.3430    4.7876   13.7006 C   0  0  0  0  0  0  0  0  0  0  0  0
    3.5647    4.4739   15.1928 C   0  0  0  0  0  0  0  0  0  0  0  0
    4.0131    1.7821   18.6067 C   0  0  0  0  0  0  0  0  0  0  0  0
    3.4974    0.5413   18.5544 N   0  0  0  0  0  0  0  0  0  0  0  0
    2.7701    0.1204   17.4884 C   0  0  0  0  0  0  0  0  0  0  0  0
    2.5940    1.0355   16.4712 C   0  0  0  0  0  0  0  0  0  0  0  0
    3.1104    2.3140   16.4968 C   0  0  0  0  0  0  0  0  0  0  0  0
    3.8215    2.6492   17.5959 N   0  0  0  0  0  0  0  0  0  0  0  0
    5.4029    2.4757   20.7005 N   0  0  0  0  0  0  0  0  0  0  0  0
    4.7729    2.1685   19.7601 C   0  0  0  0  0  0  0  0  0  0  0  0
    3.0737    5.5767   16.0321 C   0  0  0  0  0  0  0  0  0  0  0  0
    3.5933    6.7068   15.9395 O   0  0  0  0  0  0  0  0  0  0  0  0
    2.0425    5.3760   16.9229 O   0  0  0  0  0  0  0  0  0  0  0  0
    2.0972    5.6063   17.9117 H   0  0  0  0  0  0  0  0  0  0  0  0
    1.7034    3.7393   11.7440 S   0  0  0  0  0  0  0  0  0  0  0  0
    0.3298    3.6605   12.3425 O   0  0  0  0  0  0  0  0  0  0  0  0
    2.0133    5.1108   11.2544 O   0  0  0  0  0  0  0  0  0  0  0  0
    1.9395    2.4707   10.5890 C   0  0  0  0  0  0  0  0  0  0  0  0
    2.9322    1.5648   10.8385 C   0  0  0  0  0  0  0  0  0  0  0  0
    3.1396    0.5266    9.9566 C   0  0  0  0  0  0  0  0  0  0  0  0
    2.3711    0.3789    8.8305 C   0  0  0  0  0  0  0  0  0  0  0  0
    1.3850    1.3085    8.6166 C   0  0  0  0  0  0  0  0  0  0  0  0
    1.1313    2.3841    9.4806 C   0  0  0  0  0  0  0  0  0  0  0  0
    0.0546    3.3188    9.1542 C   0  0  0  0  0  0  0  0  0  0  0  0
    0.4351    4.6249    8.9476 F   0  0  0  0  0  0  0  0  0  0  0  0
   -1.0491    3.2185    9.9771 F   0  0  0  0  0  0  0  0  0  0  0  0
   -0.4604    2.9412    7.9019 F   0  0  0  0  0  0  0  0  0  0  0  0
 12 13  3  0  0  0
 13  6  1  0  0  0
  6  7  2  0  0  0
  7  8  1  0  0  0
  8  9  2  0  0  0
  9 10  1  0  0  0
 10  1  1  0  0  0
  1  2  1  0  0  0
  2  3  1  0  0  0
  3 18  1  0  0  0
 18 19  2  0  0  0
 18 20  2  0  0  0
 18 21  1  0  0  0
 21 22  2  0  0  0
 22 23  1  0  0  0
 23 24  2  0  0  0
 24 25  1  0  0  0
 25 26  2  0  0  0
 26 27  1  0  0  0
 27 28  1  0  0  0
 27 29  1  0  0  0
 27 30  1  0  0  0
  3  4  1  0  0  0
  4  5  1  0  0  0
  5 14  1  0  0  0
 14 15  2  0  0  0
 14 16  1  0  0  0
 10 11  2  0  0  0
 11  6  1  0  0  0
  5  1  1  0  0  0
 26 21  1  0  0  0
 16 17  1  0  0  0
M  END
> <minimizedAffinity>
-6.06208

> <CNNscore>
0.2105587870

> <CNNaffinity>
5.4866895676

> <CNN_VS>
1.1552706957

> <CNNaffinity_variance>
0.2414842546

$$$$
[H]OC(=O)[C@@]1([H])N(c2nc(C#N)nc([H])c2[H])C([H])([H])[C@@]([H])(S(=O)(=O)c2c([H])c([H])c([H])c([H])c2C(F)(F)F)C1([H])[H]


 30 32  0  0  0  0  0  0  0  0999 V2000
    4.6922    3.7489   18.9367 N   0  0  0  0  0  0  0  0  0  0  0  0
    4.9312    5.0513   18.3528 C   0  0  0  0  0  0  0  0  0  0  0  0
    6.3552    5.3343   18.9061 C   0  0  0  0  0  0  0  0  0  0  0  0
    6.1554    4.9909   20.3234 C   0  0  0  0  0  0  0  0  0  0  0  0
    5.1791    3.7998   20.2764 C   0  0  0  0  0  0  0  0  0  0  0  0
    3.1359    1.7160   16.3191 C   0  0  0  0  0  0  0  0  0  0  0  0
    2.9094    0.5517   16.9528 N   0  0  0  0  0  0  0  0  0  0  0  0
    3.2509    0.3752   18.2547 C   0  0  0  0  0  0  0  0  0  0  0  0
    3.8393    1.4538   18.8820 C   0  0  0  0  0  0  0  0  0  0  0  0
    4.0840    2.6593   18.2585 C   0  0  0  0  0  0  0  0  0  0  0  0
    3.7121    2.7477   16.9623 N   0  0  0  0  0  0  0  0  0  0  0  0
    2.4285    1.9502   13.8208 N   0  0  0  0  0  0  0  0  0  0  0  0
    2.7526    1.8416   14.9428 C   0  0  0  0  0  0  0  0  0  0  0  0
    4.1242    3.9548   21.2888 C   0  0  0  0  0  0  0  0  0  0  0  0
    3.5939    5.0693   21.4678 O   0  0  0  0  0  0  0  0  0  0  0  0
    3.7129    2.8794   22.0448 O   0  0  0  0  0  0  0  0  0  0  0  0
    3.6865    2.8804   23.0612 H   0  0  0  0  0  0  0  0  0  0  0  0
    6.7105    7.0838   18.6125 S   0  0  0  0  0  0  0  0  0  0  0  0
    8.1927    7.1273   18.3835 O   0  0  0  0  0  0  0  0  0  0  0  0
    5.9514    7.3935   17.3696 O   0  0  0  0  0  0  0  0  0  0  0  0
    6.2789    8.0294   19.9977 C   0  0  0  0  0  0  0  0  0  0  0  0
    7.2043    8.1466   20.9968 C   0  0  0  0  0  0  0  0  0  0  0  0
    6.9103    8.9082   22.1069 C   0  0  0  0  0  0  0  0  0  0  0  0
    5.7075    9.5545   22.2342 C   0  0  0  0  0  0  0  0  0  0  0  0
    4.8064    9.4121   21.2095 C   0  0  0  0  0  0  0  0  0  0  0  0
    5.0537    8.6494   20.0585 C   0  0  0  0  0  0  0  0  0  0  0  0
    4.0199    8.5640   19.0272 C   0  0  0  0  0  0  0  0  0  0  0  0
    3.3980    7.3432   18.8998 F   0  0  0  0  0  0  0  0  0  0  0  0
    4.3939    9.0913   17.8077 F   0  0  0  0  0  0  0  0  0  0  0  0
    2.9687    9.4111   19.4191 F   0  0  0  0  0  0  0  0  0  0  0  0
 12 13  3  0  0  0
 13  6  1  0  0  0
  6  7  2  0  0  0
  7  8  1  0  0  0
  8  9  2  0  0  0
  9 10  1  0  0  0
 10  1  1  0  0  0
  1  2  1  0  0  0
  2  3  1  0  0  0
  3 18  1  0  0  0
 18 19  2  0  0  0
 18 20  2  0  0  0
 18 21  1  0  0  0
 21 22  2  0  0  0
 22 23  1  0  0  0
 23 24  2  0  0  0
 24 25  1  0  0  0
 25 26  2  0  0  0
 26 27  1  0  0  0
 27 28  1  0  0  0
 27 29  1  0  0  0
 27 30  1  0  0  0
  3  4  1  0  0  0
  4  5  1  0  0  0
  5 14  1  0  0  0
 14 15  2  0  0  0
 14 16  1  0  0  0
 10 11  2  0  0  0
 11  6  1  0  0  0
  5  1  1  0  0  0
 26 21  1  0  0  0
 16 17  1  0  0  0
M  END
> <minimizedAffinity>
-7.23730

> <CNNscore>
0.2012418509

> <CNNaffinity>
5.3398585320

> <CNN_VS>
1.0746029615

> <CNNaffinity_variance>
0.6563811898

$$$$
[H]c1c([H])c([H])c(C([H])([H])n2c([H])nc(-c3c([H])c([H])c(F)c([H])c3[H])c2-c2nn3c([H])c(N([H])C(=O)C(C([H])([H])[H])(C([H])([H])[H])C([H])([H])[H])nc3c([H])c2[H])c([H])c1[H]


 36 40  0  0  0  0  0  0  0  0999 V2000
    3.0315    4.5591   11.7138 C   0  0  0  0  0  0  0  0  0  0  0  0
    3.4813    4.0970   10.4956 C   0  0  0  0  0  0  0  0  0  0  0  0
    3.4303    5.1676    9.6497 N   0  0  0  0  0  0  0  0  0  0  0  0
    2.9819    6.2345   10.2774 C   0  0  0  0  0  0  0  0  0  0  0  0
    2.7358    5.8445   11.5645 N   0  0  0  0  0  0  0  0  0  0  0  0
    3.9532    2.0152   16.9736 C   0  0  0  0  0  0  0  0  0  0  0  0
    4.4677    2.9760   16.1333 C   0  0  0  0  0  0  0  0  0  0  0  0
    3.6962    3.0394   15.0061 N   0  0  0  0  0  0  0  0  0  0  0  0
    3.7901    3.7937   13.9322 N   0  0  0  0  0  0  0  0  0  0  0  0
    2.9291    3.7187   12.9038 C   0  0  0  0  0  0  0  0  0  0  0  0
    1.9190    2.7938   13.0276 C   0  0  0  0  0  0  0  0  0  0  0  0
    1.8003    1.9856   14.1546 C   0  0  0  0  0  0  0  0  0  0  0  0
    2.7226    2.1327   15.1497 C   0  0  0  0  0  0  0  0  0  0  0  0
    2.8773    1.5184   16.3305 N   0  0  0  0  0  0  0  0  0  0  0  0
    4.3629    2.5010   19.3548 C   0  0  0  0  0  0  0  0  0  0  0  0
    3.8236    3.6482   19.1924 O   0  0  0  0  0  0  0  0  0  0  0  0
    4.4454    1.6345   18.2363 N   0  0  0  0  0  0  0  0  0  0  0  0
    4.8796    0.7045   18.3584 H   0  0  0  0  0  0  0  0  0  0  0  0
    3.6639    1.7669   21.5335 C   0  0  0  0  0  0  0  0  0  0  0  0
    4.8575    2.1677   20.6920 C   0  0  0  0  0  0  0  0  0  0  0  0
    5.7931    0.9991   20.6185 C   0  0  0  0  0  0  0  0  0  0  0  0
    5.5041    3.3540   21.3728 C   0  0  0  0  0  0  0  0  0  0  0  0
    3.9305    2.7878   10.0650 C   0  0  0  0  0  0  0  0  0  0  0  0
    5.1625    2.6493    9.4716 C   0  0  0  0  0  0  0  0  0  0  0  0
    5.6398    1.4112    9.0465 C   0  0  0  0  0  0  0  0  0  0  0  0
    4.8714    0.2771    9.2155 C   0  0  0  0  0  0  0  0  0  0  0  0
    5.3406   -0.9316    8.7987 F   0  0  0  0  0  0  0  0  0  0  0  0
    3.6383    0.4073    9.8080 C   0  0  0  0  0  0  0  0  0  0  0  0
    3.1789    1.6495   10.2255 C   0  0  0  0  0  0  0  0  0  0  0  0
    2.2253    6.7368   12.5928 C   0  0  0  0  0  0  0  0  0  0  0  0
    0.7619    6.6379   12.7303 C   0  0  0  0  0  0  0  0  0  0  0  0
   -0.0672    6.3798   11.6697 C   0  0  0  0  0  0  0  0  0  0  0  0
   -1.4285    6.2807   11.7781 C   0  0  0  0  0  0  0  0  0  0  0  0
   -1.9960    6.4505   13.0263 C   0  0  0  0  0  0  0  0  0  0  0  0
   -1.1830    6.7122   14.1142 C   0  0  0  0  0  0  0  0  0  0  0  0
    0.1759    6.8069   13.9815 C   0  0  0  0  0  0  0  0  0  0  0  0
 19 20  1  0  0  0
 20 21  1  0  0  0
 20 22  1  0  0  0
 20 15  1  0  0  0
 15 16  2  0  0  0
 15 17  1  0  0  0
 17  6  1  0  0  0
  6  7  2  0  0  0
  7  8  1  0  0  0
  8  9  1  0  0  0
  9 10  2  0  0  0
 10  1  1  0  0  0
  1  2  2  0  0  0
  2 23  1  0  0  0
 23 24  2  0  0  0
 24 25  1  0  0  0
 25 26  2  0  0  0
 26 27  1  0  0  0
 26 28  1  0  0  0
 28 29  2  0  0  0
  2  3  1  0  0  0
  3  4  2  0  0  0
  4  5  1  0  0  0
  5 30  1  0  0  0
 30 31  1  0  0  0
 31 32  2  0  0  0
 32 33  1  0  0  0
 33 34  2  0  0  0
 34 35  1  0  0  0
 35 36  2  0  0  0
 10 11  1  0  0  0
 11 12  2  0  0  0
 12 13  1  0  0  0
 13 14  2  0  0  0
 14  6  1  0  0  0
 13  8  1  0  0  0
  5  1  1  0  0  0
 36 31  1  0  0  0
 29 23  1  0  0  0
 17 18  1  0  0  0
M  END
> <minimizedAffinity>
-8.12932

> <CNNscore>
0.3072549999

> <CNNaffinity>
6.7597336769

> <CNN_VS>
2.0769619942

> <CNNaffinity_variance>
0.1679811180

$$$$
[H]c1c([H])c([H])c(C([H])([H])n2c([H])nc(-c3c([H])c([H])c(F)c([H])c3[H])c2-c2nn3c([H])c(N([H])C(=O)C(C([H])([H])[H])(C([H])([H])[H])C([H])([H])[H])nc3c([H])c2[H])c([H])c1[H]


 36 40  0  0  0  0  0  0  0  0999 V2000
    1.7242    2.8921   11.5930 C   0  0  0  0  0  0  0  0  0  0  0  0
    0.6377    3.6923   11.3112 C   0  0  0  0  0  0  0  0  0  0  0  0
    0.3051    3.4249   10.0143 N   0  0  0  0  0  0  0  0  0  0  0  0
    1.1163    2.5226    9.5032 C   0  0  0  0  0  0  0  0  0  0  0  0
    1.9981    2.1967   10.4960 N   0  0  0  0  0  0  0  0  0  0  0  0
    3.4964    1.4836   17.0575 C   0  0  0  0  0  0  0  0  0  0  0  0
    2.6406    1.0746   16.0603 C   0  0  0  0  0  0  0  0  0  0  0  0
    2.7575    1.9271   14.9976 N   0  0  0  0  0  0  0  0  0  0  0  0
    2.1515    1.9455   13.8298 N   0  0  0  0  0  0  0  0  0  0  0  0
    2.3942    2.8746   12.8905 C   0  0  0  0  0  0  0  0  0  0  0  0
    3.3286    3.8305   13.2131 C   0  0  0  0  0  0  0  0  0  0  0  0
    3.9820    3.8303   14.4422 C   0  0  0  0  0  0  0  0  0  0  0  0
    3.6700    2.8459   15.3345 C   0  0  0  0  0  0  0  0  0  0  0  0
    4.1132    2.5793   16.5707 N   0  0  0  0  0  0  0  0  0  0  0  0
    4.0271    1.6515   19.4583 C   0  0  0  0  0  0  0  0  0  0  0  0
    4.1557    2.9155   19.3205 O   0  0  0  0  0  0  0  0  0  0  0  0
    3.6873    0.8836   18.3166 N   0  0  0  0  0  0  0  0  0  0  0  0
    3.5807   -0.1393   18.4188 H   0  0  0  0  0  0  0  0  0  0  0  0
    3.8123    2.1340   21.8025 C   0  0  0  0  0  0  0  0  0  0  0  0
    4.2422    1.0900   20.7933 C   0  0  0  0  0  0  0  0  0  0  0  0
    3.3875   -0.1264   20.9840 C   0  0  0  0  0  0  0  0  0  0  0  0
    5.7013    0.7897   21.0574 C   0  0  0  0  0  0  0  0  0  0  0  0
   -0.0863    4.6566   12.1157 C   0  0  0  0  0  0  0  0  0  0  0  0
    0.5846    5.4056   13.0527 C   0  0  0  0  0  0  0  0  0  0  0  0
   -0.0667    6.3484   13.8452 C   0  0  0  0  0  0  0  0  0  0  0  0
   -1.4243    6.5539   13.7033 C   0  0  0  0  0  0  0  0  0  0  0  0
   -2.0582    7.4761   14.4796 F   0  0  0  0  0  0  0  0  0  0  0  0
   -2.1023    5.8089   12.7685 C   0  0  0  0  0  0  0  0  0  0  0  0
   -1.4365    4.8735   11.9874 C   0  0  0  0  0  0  0  0  0  0  0  0
    3.0672    1.2242   10.3363 C   0  0  0  0  0  0  0  0  0  0  0  0
    4.1302    1.7167    9.4431 C   0  0  0  0  0  0  0  0  0  0  0  0
    4.5944    0.9951    8.3741 C   0  0  0  0  0  0  0  0  0  0  0  0
    5.5786    1.4370    7.5311 C   0  0  0  0  0  0  0  0  0  0  0  0
    6.1333    2.6791    7.7728 C   0  0  0  0  0  0  0  0  0  0  0  0
    5.6839    3.4287    8.8448 C   0  0  0  0  0  0  0  0  0  0  0  0
    4.6986    2.9661    9.6743 C   0  0  0  0  0  0  0  0  0  0  0  0
 19 20  1  0  0  0
 20 21  1  0  0  0
 20 22  1  0  0  0
 20 15  1  0  0  0
 15 16  2  0  0  0
 15 17  1  0  0  0
 17  6  1  0  0  0
  6  7  2  0  0  0
  7  8  1  0  0  0
  8  9  1  0  0  0
  9 10  2  0  0  0
 10  1  1  0  0  0
  1  2  2  0  0  0
  2 23  1  0  0  0
 23 24  2  0  0  0
 24 25  1  0  0  0
 25 26  2  0  0  0
 26 27  1  0  0  0
 26 28  1  0  0  0
 28 29  2  0  0  0
  2  3  1  0  0  0
  3  4  2  0  0  0
  4  5  1  0  0  0
  5 30  1  0  0  0
 30 31  1  0  0  0
 31 32  2  0  0  0
 32 33  1  0  0  0
 33 34  2  0  0  0
 34 35  1  0  0  0
 35 36  2  0  0  0
 10 11  1  0  0  0
 11 12  2  0  0  0
 12 13  1  0  0  0
 13 14  2  0  0  0
 14  6  1  0  0  0
 13  8  1  0  0  0
  5  1  1  0  0  0
 36 31  1  0  0  0
 29 23  1  0  0  0
 17 18  1  0  0  0
M  END
> <minimizedAffinity>
-8.24891

> <CNNscore>
0.2772726417

> <CNNaffinity>
6.8331847191

> <CNN_VS>
1.8946552277

> <CNNaffinity_variance>
0.1716684103

$$$$
[H]c1c([H])c([H])c(C([H])([H])n2c([H])nc(-c3c([H])c([H])c(F)c([H])c3[H])c2-c2nn3c([H])c(N([H])C(=O)C(C([H])([H])[H])(C([H])([H])[H])C([H])([H])[H])nc3c([H])c2[H])c([H])c1[H]


 36 40  0  0  0  0  0  0  0  0999 V2000
    3.3487    5.0547   12.0616 C   0  0  0  0  0  0  0  0  0  0  0  0
    2.3676    5.9937   11.8254 C   0  0  0  0  0  0  0  0  0  0  0  0
    2.8275    6.7609   10.7939 N   0  0  0  0  0  0  0  0  0  0  0  0
    4.0129    6.3460   10.3989 C   0  0  0  0  0  0  0  0  0  0  0  0
    4.3293    5.2812   11.1962 N   0  0  0  0  0  0  0  0  0  0  0  0
    3.9292    1.9524   17.0641 C   0  0  0  0  0  0  0  0  0  0  0  0
    4.3328    3.1249   16.4670 C   0  0  0  0  0  0  0  0  0  0  0  0
    3.7782    3.2017   15.2196 N   0  0  0  0  0  0  0  0  0  0  0  0
    3.8715    4.1223   14.2841 N   0  0  0  0  0  0  0  0  0  0  0  0
    3.2479    4.0306   13.0979 C   0  0  0  0  0  0  0  0  0  0  0  0
    2.4880    2.9018   12.9003 C   0  0  0  0  0  0  0  0  0  0  0  0
    2.3748    1.9153   13.8758 C   0  0  0  0  0  0  0  0  0  0  0  0
    3.0452    2.0950   15.0509 C   0  0  0  0  0  0  0  0  0  0  0  0
    3.1361    1.3457   16.1581 N   0  0  0  0  0  0  0  0  0  0  0  0
    4.1832    2.3270   19.4867 C   0  0  0  0  0  0  0  0  0  0  0  0
    3.7798    3.5286   19.3224 O   0  0  0  0  0  0  0  0  0  0  0  0
    4.2711    1.4876   18.3481 N   0  0  0  0  0  0  0  0  0  0  0  0
    4.5959    0.5142   18.4716 H   0  0  0  0  0  0  0  0  0  0  0  0
    5.8199    1.1240   20.7705 C   0  0  0  0  0  0  0  0  0  0  0  0
    4.5260    1.9072   20.8468 C   0  0  0  0  0  0  0  0  0  0  0  0
    4.7551    3.1080   21.7140 C   0  0  0  0  0  0  0  0  0  0  0  0
    3.4823    0.9861   21.4394 C   0  0  0  0  0  0  0  0  0  0  0  0
    1.0875    6.2342   12.4615 C   0  0  0  0  0  0  0  0  0  0  0  0
   -0.0746    6.0329   11.7558 C   0  0  0  0  0  0  0  0  0  0  0  0
   -1.3282    6.2451   12.3257 C   0  0  0  0  0  0  0  0  0  0  0  0
   -1.4312    6.6698   13.6351 C   0  0  0  0  0  0  0  0  0  0  0  0
   -2.6579    6.8766   14.1893 F   0  0  0  0  0  0  0  0  0  0  0  0
   -0.2738    6.8734   14.3474 C   0  0  0  0  0  0  0  0  0  0  0  0
    0.9671    6.6568   13.7628 C   0  0  0  0  0  0  0  0  0  0  0  0
    5.5692    4.5302   11.0822 C   0  0  0  0  0  0  0  0  0  0  0  0
    5.5406    3.5895    9.9488 C   0  0  0  0  0  0  0  0  0  0  0  0
    4.4270    2.8629    9.6156 C   0  0  0  0  0  0  0  0  0  0  0  0
    4.3799    1.9868    8.5644 C   0  0  0  0  0  0  0  0  0  0  0  0
    5.5187    1.8276    7.7984 C   0  0  0  0  0  0  0  0  0  0  0  0
    6.6568    2.5482    8.1122 C   0  0  0  0  0  0  0  0  0  0  0  0
    6.6803    3.4185    9.1682 C   0  0  0  0  0  0  0  0  0  0  0  0
 19 20  1  0  0  0
 20 21  1  0  0  0
 20 22  1  0  0  0
 20 15  1  0  0  0
 15 16  2  0  0  0
 15 17  1  0  0  0
 17  6  1  0  0  0
  6  7  2  0  0  0
  7  8  1  0  0  0
  8  9  1  0  0  0
  9 10  2  0  0  0
 10  1  1  0  0  0
  1  2  2  0  0  0
  2 23  1  0  0  0
 23 24  2  0  0  0
 24 25  1  0  0  0
 25 26  2  0  0  0
 26 27  1  0  0  0
 26 28  1  0  0  0
 28 29  2  0  0  0
  2  3  1  0  0  0
  3  4  2  0  0  0
  4  5  1  0  0  0
  5 30  1  0  0  0
 30 31  1  0  0  0
 31 32  2  0  0  0
 32 33  1  0  0  0
 33 34  2  0  0  0
 34 35  1  0  0  0
 35 36  2  0  0  0
 10 11  1  0  0  0
 11 12  2  0  0  0
 12 13  1  0  0  0
 13 14  2  0  0  0
 14  6  1  0  0  0
 13  8  1  0  0  0
  5  1  1  0  0  0
 36 31  1  0  0  0
 29 23  1  0  0  0
 17 18  1  0  0  0
M  END
> <minimizedAffinity>
-8.39584

> <CNNscore>
0.2503497005

> <CNNaffinity>
6.7471990585

> <CNN_VS>
1.6891592741

> <CNNaffinity_variance>
0.1505403221

$$$$
[H]c1c([H])c([H])c(C([H])([H])n2c([H])nc(-c3c([H])c([H])c(F)c([H])c3[H])c2-c2nn3c([H])c(N([H])C(=O)C(C([H])([H])[H])(C([H])([H])[H])C([H])([H])[H])nc3c([H])c2[H])c([H])c1[H]


 36 40  0  0  0  0  0  0  0  0999 V2000
    2.5105    5.3005   12.4076 C   0  0  0  0  0  0  0  0  0  0  0  0
    3.2047    5.3766   11.2192 C   0  0  0  0  0  0  0  0  0  0  0  0
    2.7457    6.4989   10.5914 N   0  0  0  0  0  0  0  0  0  0  0  0
    1.8271    7.0965   11.3211 C   0  0  0  0  0  0  0  0  0  0  0  0
    1.6875    6.3410   12.4521 N   0  0  0  0  0  0  0  0  0  0  0  0
    4.0893    2.1788   17.1772 C   0  0  0  0  0  0  0  0  0  0  0  0
    4.1858    3.4377   16.6294 C   0  0  0  0  0  0  0  0  0  0  0  0
    3.5454    3.4465   15.4213 N   0  0  0  0  0  0  0  0  0  0  0  0
    3.3723    4.4066   14.5385 N   0  0  0  0  0  0  0  0  0  0  0  0
    2.7057    4.2332   13.3852 C   0  0  0  0  0  0  0  0  0  0  0  0
    2.1995    2.9741   13.1632 C   0  0  0  0  0  0  0  0  0  0  0  0
    2.3704    1.9435   14.0832 C   0  0  0  0  0  0  0  0  0  0  0  0
    3.0625    2.2137   15.2280 C   0  0  0  0  0  0  0  0  0  0  0  0
    3.3891    1.4533   16.2820 N   0  0  0  0  0  0  0  0  0  0  0  0
    4.4295    2.4966   19.5973 C   0  0  0  0  0  0  0  0  0  0  0  0
    3.7746    3.5917   19.5248 O   0  0  0  0  0  0  0  0  0  0  0  0
    4.6098    1.7433   18.4104 N   0  0  0  0  0  0  0  0  0  0  0  0
    5.1378    0.8561   18.4597 H   0  0  0  0  0  0  0  0  0  0  0  0
    5.8656    0.9164   20.6995 C   0  0  0  0  0  0  0  0  0  0  0  0
    4.9469    2.1020   20.9089 C   0  0  0  0  0  0  0  0  0  0  0  0
    5.7508    3.2190   21.5027 C   0  0  0  0  0  0  0  0  0  0  0  0
    3.8462    1.6525   21.8444 C   0  0  0  0  0  0  0  0  0  0  0  0
    4.2172    4.5193   10.6353 C   0  0  0  0  0  0  0  0  0  0  0  0
    3.8412    3.4095    9.9168 C   0  0  0  0  0  0  0  0  0  0  0  0
    4.7774    2.5590    9.3323 C   0  0  0  0  0  0  0  0  0  0  0  0
    6.1267    2.8180    9.4649 C   0  0  0  0  0  0  0  0  0  0  0  0
    7.0393    1.9846    8.8925 F   0  0  0  0  0  0  0  0  0  0  0  0
    6.5107    3.9256   10.1818 C   0  0  0  0  0  0  0  0  0  0  0  0
    5.5635    4.7622   10.7575 C   0  0  0  0  0  0  0  0  0  0  0  0
    0.7620    6.6628   13.5264 C   0  0  0  0  0  0  0  0  0  0  0  0
   -0.6413    6.4806   13.1169 C   0  0  0  0  0  0  0  0  0  0  0  0
   -1.0038    5.7497   12.0154 C   0  0  0  0  0  0  0  0  0  0  0  0
   -2.3021    5.5662   11.6210 C   0  0  0  0  0  0  0  0  0  0  0  0
   -3.3005    6.1507   12.3762 C   0  0  0  0  0  0  0  0  0  0  0  0
   -2.9632    6.8939   13.4929 C   0  0  0  0  0  0  0  0  0  0  0  0
   -1.6580    7.0637   13.8679 C   0  0  0  0  0  0  0  0  0  0  0  0
 19 20  1  0  0  0
 20 21  1  0  0  0
 20 22  1  0  0  0
 20 15  1  0  0  0
 15 16  2  0  0  0
 15 17  1  0  0  0
 17  6  1  0  0  0
  6  7  2  0  0  0
  7  8  1  0  0  0
  8  9  1  0  0  0
  9 10  2  0  0  0
 10  1  1  0  0  0
  1  2  2  0  0  0
  2 23  1  0  0  0
 23 24  2  0  0  0
 24 25  1  0  0  0
 25 26  2  0  0  0
 26 27  1  0  0  0
 26 28  1  0  0  0
 28 29  2  0  0  0
  2  3  1  0  0  0
  3  4  2  0  0  0
  4  5  1  0  0  0
  5 30  1  0  0  0
 30 31  1  0  0  0
 31 32  2  0  0  0
 32 33  1  0  0  0
 33 34  2  0  0  0
 34 35  1  0  0  0
 35 36  2  0  0  0
 10 11  1  0  0  0
 11 12  2  0  0  0
 12 13  1  0  0  0
 13 14  2  0  0  0
 14  6  1  0  0  0
 13  8  1  0  0  0
  5  1  1  0  0  0
 36 31  1  0  0  0
 29 23  1  0  0  0
 17 18  1  0  0  0
M  END
> <minimizedAffinity>
-8.33441

> <CNNscore>
0.2309782207

> <CNNaffinity>
6.7341675758

> <CNN_VS>
1.5554460287

> <CNNaffinity_variance>
0.2581053376

$$$$
[H]c1c([H])c([H])c(C([H])([H])n2c([H])nc(-c3c([H])c([H])c(F)c([H])c3[H])c2-c2nn3c([H])c(N([H])C(=O)C(C([H])([H])[H])(C([H])([H])[H])C([H])([H])[H])nc3c([H])c2[H])c([H])c1[H]


 36 40  0  0  0  0  0  0  0  0999 V2000
    4.1721    5.0656   19.8217 C   0  0  0  0  0  0  0  0  0  0  0  0
    4.5891    6.3787   19.7789 C   0  0  0  0  0  0  0  0  0  0  0  0
    4.6241    6.8005   21.0770 N   0  0  0  0  0  0  0  0  0  0  0  0
    4.2574    5.8322   21.8901 C   0  0  0  0  0  0  0  0  0  0  0  0
    3.9773    4.7540   21.0972 N   0  0  0  0  0  0  0  0  0  0  0  0
    2.2809    2.8047   14.6936 C   0  0  0  0  0  0  0  0  0  0  0  0
    2.0352    3.8300   15.5782 C   0  0  0  0  0  0  0  0  0  0  0  0
    2.9154    3.7376   16.6205 N   0  0  0  0  0  0  0  0  0  0  0  0
    3.0679    4.4809   17.6954 N   0  0  0  0  0  0  0  0  0  0  0  0
    4.0008    4.2378   18.6308 C   0  0  0  0  0  0  0  0  0  0  0  0
    4.8102    3.1486   18.4083 C   0  0  0  0  0  0  0  0  0  0  0  0
    4.6670    2.3486   17.2783 C   0  0  0  0  0  0  0  0  0  0  0  0
    3.6904    2.6731   16.3819 C   0  0  0  0  0  0  0  0  0  0  0  0
    3.3092    2.1137   15.2255 N   0  0  0  0  0  0  0  0  0  0  0  0
    2.1074    2.9811   12.2415 C   0  0  0  0  0  0  0  0  0  0  0  0
    3.2049    3.6359   12.2315 O   0  0  0  0  0  0  0  0  0  0  0  0
    1.6030    2.5368   13.4892 N   0  0  0  0  0  0  0  0  0  0  0  0
    0.7163    2.0061   13.5068 H   0  0  0  0  0  0  0  0  0  0  0  0
    2.4765    2.9784    9.8670 C   0  0  0  0  0  0  0  0  0  0  0  0
    1.4510    2.7389   10.9553 C   0  0  0  0  0  0  0  0  0  0  0  0
    0.9994    1.3124   10.8683 C   0  0  0  0  0  0  0  0  0  0  0  0
    0.3078    3.6987   10.7089 C   0  0  0  0  0  0  0  0  0  0  0  0
    4.9372    7.2461   18.6709 C   0  0  0  0  0  0  0  0  0  0  0  0
    6.1931    7.1760   18.1168 C   0  0  0  0  0  0  0  0  0  0  0  0
    6.5722    7.9848   17.0475 C   0  0  0  0  0  0  0  0  0  0  0  0
    5.6779    8.8900   16.5123 C   0  0  0  0  0  0  0  0  0  0  0  0
    6.0515    9.6794   15.4672 F   0  0  0  0  0  0  0  0  0  0  0  0
    4.4203    8.9662   17.0608 C   0  0  0  0  0  0  0  0  0  0  0  0
    4.0600    8.1520   18.1265 C   0  0  0  0  0  0  0  0  0  0  0  0
    3.5337    3.4688   21.6127 C   0  0  0  0  0  0  0  0  0  0  0  0
    4.6205    2.7443   22.2939 C   0  0  0  0  0  0  0  0  0  0  0  0
    5.6466    2.1382   21.6165 C   0  0  0  0  0  0  0  0  0  0  0  0
    6.6670    1.4635   22.2317 C   0  0  0  0  0  0  0  0  0  0  0  0
    6.6603    1.3907   23.6114 C   0  0  0  0  0  0  0  0  0  0  0  0
    5.6368    1.9932   24.3203 C   0  0  0  0  0  0  0  0  0  0  0  0
    4.6270    2.6623   23.6834 C   0  0  0  0  0  0  0  0  0  0  0  0
 19 20  1  0  0  0
 20 21  1  0  0  0
 20 22  1  0  0  0
 20 15  1  0  0  0
 15 16  2  0  0  0
 15 17  1  0  0  0
 17  6  1  0  0  0
  6  7  2  0  0  0
  7  8  1  0  0  0
  8  9  1  0  0  0
  9 10  2  0  0  0
 10  1  1  0  0  0
  1  2  2  0  0  0
  2 23  1  0  0  0
 23 24  2  0  0  0
 24 25  1  0  0  0
 25 26  2  0  0  0
 26 27  1  0  0  0
 26 28  1  0  0  0
 28 29  2  0  0  0
  2  3  1  0  0  0
  3  4  2  0  0  0
  4  5  1  0  0  0
  5 30  1  0  0  0
 30 31  1  0  0  0
 31 32  2  0  0  0
 32 33  1  0  0  0
 33 34  2  0  0  0
 34 35  1  0  0  0
 35 36  2  0  0  0
 10 11  1  0  0  0
 11 12  2  0  0  0
 12 13  1  0  0  0
 13 14  2  0  0  0
 14  6  1  0  0  0
 13  8  1  0  0  0
  5  1  1  0  0  0
 36 31  1  0  0  0
 29 23  1  0  0  0
 17 18  1  0  0  0
M  END
> <minimizedAffinity>
-7.48363

> <CNNscore>
0.2201767117

> <CNNaffinity>
6.6031355858

> <CNN_VS>
1.4538567066

> <CNNaffinity_variance>
0.4486314654

$$$$
[H]c1c([H])c([H])c(C([H])([H])n2c([H])nc(-c3c([H])c([H])c(F)c([H])c3[H])c2-c2nn3c([H])c(N([H])C(=O)C(C([H])([H])[H])(C([H])([H])[H])C([H])([H])[H])nc3c([H])c2[H])c([H])c1[H]


 36 40  0  0  0  0  0  0  0  0999 V2000
    3.0607    3.9878   11.6083 C   0  0  0  0  0  0  0  0  0  0  0  0
    3.0234    5.3418   11.3526 C   0  0  0  0  0  0  0  0  0  0  0  0
    3.0177    5.4636    9.9926 N   0  0  0  0  0  0  0  0  0  0  0  0
    3.0492    4.2785    9.4200 C   0  0  0  0  0  0  0  0  0  0  0  0
    3.0759    3.3644   10.4365 N   0  0  0  0  0  0  0  0  0  0  0  0
    4.2600    2.8897   17.2953 C   0  0  0  0  0  0  0  0  0  0  0  0
    4.6096    3.7256   16.2594 C   0  0  0  0  0  0  0  0  0  0  0  0
    3.8834    3.3872   15.1513 N   0  0  0  0  0  0  0  0  0  0  0  0
    3.8694    3.8915   13.9362 N   0  0  0  0  0  0  0  0  0  0  0  0
    3.0786    3.4248   12.9557 C   0  0  0  0  0  0  0  0  0  0  0  0
    2.2633    2.3686   13.2881 C   0  0  0  0  0  0  0  0  0  0  0  0
    2.2615    1.8193   14.5671 C   0  0  0  0  0  0  0  0  0  0  0  0
    3.0996    2.3598   15.4988 C   0  0  0  0  0  0  0  0  0  0  0  0
    3.3260    2.0616   16.7854 N   0  0  0  0  0  0  0  0  0  0  0  0
    4.4489    1.8747   19.5331 C   0  0  0  0  0  0  0  0  0  0  0  0
    3.6813    0.9288   19.1464 O   0  0  0  0  0  0  0  0  0  0  0  0
    4.7690    2.8993   18.6077 N   0  0  0  0  0  0  0  0  0  0  0  0
    5.3894    3.6680   18.9116 H   0  0  0  0  0  0  0  0  0  0  0  0
    5.5213    3.1880   21.2358 C   0  0  0  0  0  0  0  0  0  0  0  0
    4.9415    1.8272   20.9110 C   0  0  0  0  0  0  0  0  0  0  0  0
    3.8072    1.5635   21.8546 C   0  0  0  0  0  0  0  0  0  0  0  0
    6.0538    0.8164   21.0845 C   0  0  0  0  0  0  0  0  0  0  0  0
    3.0020    6.4914   12.2353 C   0  0  0  0  0  0  0  0  0  0  0  0
    1.8145    6.9041   12.7908 C   0  0  0  0  0  0  0  0  0  0  0  0
    1.7448    7.9995   13.6491 C   0  0  0  0  0  0  0  0  0  0  0  0
    2.8878    8.7060   13.9654 C   0  0  0  0  0  0  0  0  0  0  0  0
    2.8163    9.7763   14.8045 F   0  0  0  0  0  0  0  0  0  0  0  0
    4.0790    8.2995   13.4139 C   0  0  0  0  0  0  0  0  0  0  0  0
    4.1295    7.2053   12.5603 C   0  0  0  0  0  0  0  0  0  0  0  0
    3.1144    1.9263   10.2255 C   0  0  0  0  0  0  0  0  0  0  0  0
    4.1983    1.5334    9.3084 C   0  0  0  0  0  0  0  0  0  0  0  0
    4.1053    0.4532    8.4696 C   0  0  0  0  0  0  0  0  0  0  0  0
    5.0999    0.0746    7.6081 C   0  0  0  0  0  0  0  0  0  0  0  0
    6.2605    0.8238    7.5843 C   0  0  0  0  0  0  0  0  0  0  0  0
    6.3814    1.9190    8.4203 C   0  0  0  0  0  0  0  0  0  0  0  0
    5.3735    2.2785    9.2735 C   0  0  0  0  0  0  0  0  0  0  0  0
 19 20  1  0  0  0
 20 21  1  0  0  0
 20 22  1  0  0  0
 20 15  1  0  0  0
 15 16  2  0  0  0
 15 17  1  0  0  0
 17  6  1  0  0  0
  6  7  2  0  0  0
  7  8  1  0  0  0
  8  9  1  0  0  0
  9 10  2  0  0  0
 10  1  1  0  0  0
  1  2  2  0  0  0
  2 23  1  0  0  0
 23 24  2  0  0  0
 24 25  1  0  0  0
 25 26  2  0  0  0
 26 27  1  0  0  0
 26 28  1  0  0  0
 28 29  2  0  0  0
  2  3  1  0  0  0
  3  4  2  0  0  0
  4  5  1  0  0  0
  5 30  1  0  0  0
 30 31  1  0  0  0
 31 32  2  0  0  0
 32 33  1  0  0  0
 33 34  2  0  0  0
 34 35  1  0  0  0
 35 36  2  0  0  0
 10 11  1  0  0  0
 11 12  2  0  0  0
 12 13  1  0  0  0
 13 14  2  0  0  0
 14  6  1  0  0  0
 13  8  1  0  0  0
  5  1  1  0  0  0
 36 31  1  0  0  0
 29 23  1  0  0  0
 17 18  1  0  0  0
M  END
> <minimizedAffinity>
-7.93802

> <CNNscore>
0.2153976262

> <CNNaffinity>
6.6458559036

> <CNN_VS>
1.4315016270

> <CNNaffinity_variance>
0.1816957146

$$$$
[H]c1c([H])c([H])c(C([H])([H])n2c([H])nc(-c3c([H])c([H])c(F)c([H])c3[H])c2-c2nn3c([H])c(N([H])C(=O)C(C([H])([H])[H])(C([H])([H])[H])C([H])([H])[H])nc3c([H])c2[H])c([H])c1[H]


 36 40  0  0  0  0  0  0  0  0999 V2000
    4.5680    6.2837   20.2493 C   0  0  0  0  0  0  0  0  0  0  0  0
    4.9042    5.3258   21.1817 C   0  0  0  0  0  0  0  0  0  0  0  0
    5.4613    6.0040   22.2276 N   0  0  0  0  0  0  0  0  0  0  0  0
    5.4813    7.2978   21.9844 C   0  0  0  0  0  0  0  0  0  0  0  0
    4.9219    7.4620   20.7476 N   0  0  0  0  0  0  0  0  0  0  0  0
    3.2587    5.9521   14.4906 C   0  0  0  0  0  0  0  0  0  0  0  0
    4.1666    6.5097   15.3617 C   0  0  0  0  0  0  0  0  0  0  0  0
    3.8403    6.1433   16.6380 N   0  0  0  0  0  0  0  0  0  0  0  0
    4.4041    6.4264   17.7926 N   0  0  0  0  0  0  0  0  0  0  0  0
    3.9393    5.9724   18.9683 C   0  0  0  0  0  0  0  0  0  0  0  0
    2.8185    5.1780   18.9090 C   0  0  0  0  0  0  0  0  0  0  0  0
    2.2058    4.8654   17.6989 C   0  0  0  0  0  0  0  0  0  0  0  0
    2.7495    5.3727   16.5545 C   0  0  0  0  0  0  0  0  0  0  0  0
    2.4009    5.2583   15.2657 N   0  0  0  0  0  0  0  0  0  0  0  0
    3.8429    5.1145   12.2476 C   0  0  0  0  0  0  0  0  0  0  0  0
    4.4211    4.1143   12.7942 O   0  0  0  0  0  0  0  0  0  0  0  0
    3.2333    6.0786   13.0888 N   0  0  0  0  0  0  0  0  0  0  0  0
    2.7629    6.8905   12.6556 H   0  0  0  0  0  0  0  0  0  0  0  0
    2.4881    4.7577   10.2953 C   0  0  0  0  0  0  0  0  0  0  0  0
    3.8548    5.1884   10.7854 C   0  0  0  0  0  0  0  0  0  0  0  0
    4.0878    6.6014   10.3431 C   0  0  0  0  0  0  0  0  0  0  0  0
    4.8652    4.2422   10.1748 C   0  0  0  0  0  0  0  0  0  0  0  0
    4.7635    3.8831   21.1783 C   0  0  0  0  0  0  0  0  0  0  0  0
    5.3895    3.1379   20.2079 C   0  0  0  0  0  0  0  0  0  0  0  0
    5.2884    1.7489   20.1667 C   0  0  0  0  0  0  0  0  0  0  0  0
    4.5439    1.0798   21.1172 C   0  0  0  0  0  0  0  0  0  0  0  0
    4.4469   -0.2780   21.0742 F   0  0  0  0  0  0  0  0  0  0  0  0
    3.9148    1.8178   22.0908 C   0  0  0  0  0  0  0  0  0  0  0  0
    4.0268    3.2018   22.1161 C   0  0  0  0  0  0  0  0  0  0  0  0
    4.7549    8.7554   20.1046 C   0  0  0  0  0  0  0  0  0  0  0  0
    5.7570    8.9782   19.0481 C   0  0  0  0  0  0  0  0  0  0  0  0
    7.0604    8.5700   19.1638 C   0  0  0  0  0  0  0  0  0  0  0  0
    8.0050    8.7648   18.1920 C   0  0  0  0  0  0  0  0  0  0  0  0
    7.6214    9.4085   17.0312 C   0  0  0  0  0  0  0  0  0  0  0  0
    6.3123    9.8314   16.8877 C   0  0  0  0  0  0  0  0  0  0  0  0
    5.3852    9.6256   17.8732 C   0  0  0  0  0  0  0  0  0  0  0  0
 19 20  1  0  0  0
 20 21  1  0  0  0
 20 22  1  0  0  0
 20 15  1  0  0  0
 15 16  2  0  0  0
 15 17  1  0  0  0
 17  6  1  0  0  0
  6  7  2  0  0  0
  7  8  1  0  0  0
  8  9  1  0  0  0
  9 10  2  0  0  0
 10  1  1  0  0  0
  1  2  2  0  0  0
  2 23  1  0  0  0
 23 24  2  0  0  0
 24 25  1  0  0  0
 25 26  2  0  0  0
 26 27  1  0  0  0
 26 28  1  0  0  0
 28 29  2  0  0  0
  2  3  1  0  0  0
  3  4  2  0  0  0
  4  5  1  0  0  0
  5 30  1  0  0  0
 30 31  1  0  0  0
 31 32  2  0  0  0
 32 33  1  0  0  0
 33 34  2  0  0  0
 34 35  1  0  0  0
 35 36  2  0  0  0
 10 11  1  0  0  0
 11 12  2  0  0  0
 12 13  1  0  0  0
 13 14  2  0  0  0
 14  6  1  0  0  0
 13  8  1  0  0  0
  5  1  1  0  0  0
 36 31  1  0  0  0
 29 23  1  0  0  0
 17 18  1  0  0  0
M  END
> <minimizedAffinity>
-7.56600

> <CNNscore>
0.1903412640

> <CNNaffinity>
6.2917432785

> <CNN_VS>
1.1975783110

> <CNNaffinity_variance>
0.2847589254

$$$$
[H]c1c([H])c([H])c(C([H])([H])n2c([H])nc(-c3c([H])c([H])c(F)c([H])c3[H])c2-c2nn3c([H])c(N([H])C(=O)C(C([H])([H])[H])(C([H])([H])[H])C([H])([H])[H])nc3c([H])c2[H])c([H])c1[H]


 36 40  0  0  0  0  0  0  0  0999 V2000
    2.4907    3.6565   11.2685 C   0  0  0  0  0  0  0  0  0  0  0  0
    1.3719    4.3576   10.8727 C   0  0  0  0  0  0  0  0  0  0  0  0
    1.2902    4.1947    9.5195 N   0  0  0  0  0  0  0  0  0  0  0  0
    2.2809    3.4467    9.0810 C   0  0  0  0  0  0  0  0  0  0  0  0
    3.0244    3.1161   10.1799 N   0  0  0  0  0  0  0  0  0  0  0  0
    3.5657    1.8545   16.7987 C   0  0  0  0  0  0  0  0  0  0  0  0
    2.9563    1.4545   15.6314 C   0  0  0  0  0  0  0  0  0  0  0  0
    3.1053    2.4379   14.6931 N   0  0  0  0  0  0  0  0  0  0  0  0
    2.6990    2.5136   13.4440 N   0  0  0  0  0  0  0  0  0  0  0  0
    2.9385    3.5749   12.6562 C   0  0  0  0  0  0  0  0  0  0  0  0
    3.6459    4.6055   13.2292 C   0  0  0  0  0  0  0  0  0  0  0  0
    4.0857    4.5470   14.5486 C   0  0  0  0  0  0  0  0  0  0  0  0
    3.7949    3.4273   15.2728 C   0  0  0  0  0  0  0  0  0  0  0  0
    4.0709    3.0768   16.5363 N   0  0  0  0  0  0  0  0  0  0  0  0
    4.0038    1.7745   19.2227 C   0  0  0  0  0  0  0  0  0  0  0  0
    4.2541    3.0275   19.1980 O   0  0  0  0  0  0  0  0  0  0  0  0
    3.6452    1.1383   18.0080 N   0  0  0  0  0  0  0  0  0  0  0  0
    3.4405    0.1253   18.0186 H   0  0  0  0  0  0  0  0  0  0  0  0
    3.2252   -0.1412   20.4466 C   0  0  0  0  0  0  0  0  0  0  0  0
    4.1075    1.0879   20.5117 C   0  0  0  0  0  0  0  0  0  0  0  0
    5.5188    0.6403   20.7445 C   0  0  0  0  0  0  0  0  0  0  0  0
    3.6002    1.9401   21.6542 C   0  0  0  0  0  0  0  0  0  0  0  0
    0.4112    5.1453   11.6195 C   0  0  0  0  0  0  0  0  0  0  0  0
   -0.8477    4.6456   11.8533 C   0  0  0  0  0  0  0  0  0  0  0  0
   -1.8030    5.3629   12.5704 C   0  0  0  0  0  0  0  0  0  0  0  0
   -1.4995    6.6133   13.0703 C   0  0  0  0  0  0  0  0  0  0  0  0
   -2.4355    7.3120   13.7707 F   0  0  0  0  0  0  0  0  0  0  0  0
   -0.2429    7.1199   12.8407 C   0  0  0  0  0  0  0  0  0  0  0  0
    0.6965    6.3906   12.1237 C   0  0  0  0  0  0  0  0  0  0  0  0
    4.2194    2.2897   10.1247 C   0  0  0  0  0  0  0  0  0  0  0  0
    3.9943    1.0463    9.3674 C   0  0  0  0  0  0  0  0  0  0  0  0
    3.1245    0.0717    9.7829 C   0  0  0  0  0  0  0  0  0  0  0  0
    2.8993   -1.0884    9.0914 C   0  0  0  0  0  0  0  0  0  0  0  0
    3.5876   -1.2858    7.9099 C   0  0  0  0  0  0  0  0  0  0  0  0
    4.4718   -0.3189    7.4670 C   0  0  0  0  0  0  0  0  0  0  0  0
    4.6808    0.8333    8.1754 C   0  0  0  0  0  0  0  0  0  0  0  0
 19 20  1  0  0  0
 20 21  1  0  0  0
 20 22  1  0  0  0
 20 15  1  0  0  0
 15 16  2  0  0  0
 15 17  1  0  0  0
 17  6  1  0  0  0
  6  7  2  0  0  0
  7  8  1  0  0  0
  8  9  1  0  0  0
  9 10  2  0  0  0
 10  1  1  0  0  0
  1  2  2  0  0  0
  2 23  1  0  0  0
 23 24  2  0  0  0
 24 25  1  0  0  0
 25 26  2  0  0  0
 26 27  1  0  0  0
 26 28  1  0  0  0
 28 29  2  0  0  0
  2  3  1  0  0  0
  3  4  2  0  0  0
  4  5  1  0  0  0
  5 30  1  0  0  0
 30 31  1  0  0  0
 31 32  2  0  0  0
 32 33  1  0  0  0
 33 34  2  0  0  0
 34 35  1  0  0  0
 35 36  2  0  0  0
 10 11  1  0  0  0
 11 12  2  0  0  0
 12 13  1  0  0  0
 13 14  2  0  0  0
 14  6  1  0  0  0
 13  8  1  0  0  0
  5  1  1  0  0  0
 36 31  1  0  0  0
 29 23  1  0  0  0
 17 18  1  0  0  0
M  END
> <minimizedAffinity>
-7.60816

> <CNNscore>
0.1801289916

> <CNNaffinity>
6.6894097328

> <CNN_VS>
1.2049566507

> <CNNaffinity_variance>
0.2004246265

$$$$
[H]c1c([H])c([H])c(C([H])([H])n2c([H])nc(-c3c([H])c([H])c(F)c([H])c3[H])c2-c2nn3c([H])c(N([H])C(=O)C(C([H])([H])[H])(C([H])([H])[H])C([H])([H])[H])nc3c([H])c2[H])c([H])c1[H]


 36 40  0  0  0  0  0  0  0  0999 V2000
    1.3253    3.5156   11.9862 C   0  0  0  0  0  0  0  0  0  0  0  0
    1.0025    4.7881   11.5659 C   0  0  0  0  0  0  0  0  0  0  0  0
    0.2298    4.6271   10.4517 N   0  0  0  0  0  0  0  0  0  0  0  0
    0.0695    3.3493   10.1783 C   0  0  0  0  0  0  0  0  0  0  0  0
    0.7569    2.6640   11.1413 N   0  0  0  0  0  0  0  0  0  0  0  0
    3.3699    1.4735   17.1471 C   0  0  0  0  0  0  0  0  0  0  0  0
    2.2756    1.4047   16.3153 C   0  0  0  0  0  0  0  0  0  0  0  0
    2.5036    2.1856   15.2162 N   0  0  0  0  0  0  0  0  0  0  0  0
    1.7594    2.4352   14.1603 N   0  0  0  0  0  0  0  0  0  0  0  0
    2.1501    3.2422   13.1600 C   0  0  0  0  0  0  0  0  0  0  0  0
    3.3952    3.8104   13.2931 C   0  0  0  0  0  0  0  0  0  0  0  0
    4.1995    3.5603   14.4014 C   0  0  0  0  0  0  0  0  0  0  0  0
    3.7181    2.7263   15.3684 C   0  0  0  0  0  0  0  0  0  0  0  0
    4.2375    2.2987   16.5273 N   0  0  0  0  0  0  0  0  0  0  0  0
    3.9158    1.5309   19.5497 C   0  0  0  0  0  0  0  0  0  0  0  0
    4.0871    2.7942   19.4596 O   0  0  0  0  0  0  0  0  0  0  0  0
    3.5453    0.8195   18.3813 N   0  0  0  0  0  0  0  0  0  0  0  0
    3.4042   -0.2024   18.4449 H   0  0  0  0  0  0  0  0  0  0  0  0
    3.8245    1.9621   21.9119 C   0  0  0  0  0  0  0  0  0  0  0  0
    4.1170    0.9116   20.8611 C   0  0  0  0  0  0  0  0  0  0  0  0
    3.1531   -0.2207   21.0490 C   0  0  0  0  0  0  0  0  0  0  0  0
    5.5471    0.4626   21.0663 C   0  0  0  0  0  0  0  0  0  0  0  0
    1.3472    6.0949   12.0897 C   0  0  0  0  0  0  0  0  0  0  0  0
    0.9614    6.4445   13.3618 C   0  0  0  0  0  0  0  0  0  0  0  0
    1.2739    7.6865   13.9107 C   0  0  0  0  0  0  0  0  0  0  0  0
    1.9907    8.6086   13.1750 C   0  0  0  0  0  0  0  0  0  0  0  0
    2.2945    9.8218   13.7143 F   0  0  0  0  0  0  0  0  0  0  0  0
    2.3801    8.2666   11.9023 C   0  0  0  0  0  0  0  0  0  0  0  0
    2.0595    7.0240   11.3715 C   0  0  0  0  0  0  0  0  0  0  0  0
    0.8311    1.2131   11.1994 C   0  0  0  0  0  0  0  0  0  0  0  0
    1.7368    0.6668   10.1739 C   0  0  0  0  0  0  0  0  0  0  0  0
    1.2960   -0.1023    9.1285 C   0  0  0  0  0  0  0  0  0  0  0  0
    2.1213   -0.6158    8.1642 C   0  0  0  0  0  0  0  0  0  0  0  0
    3.4728   -0.3425    8.2514 C   0  0  0  0  0  0  0  0  0  0  0  0
    3.9453    0.4309    9.2962 C   0  0  0  0  0  0  0  0  0  0  0  0
    3.1009    0.9335   10.2488 C   0  0  0  0  0  0  0  0  0  0  0  0
 19 20  1  0  0  0
 20 21  1  0  0  0
 20 22  1  0  0  0
 20 15  1  0  0  0
 15 16  2  0  0  0
 15 17  1  0  0  0
 17  6  1  0  0  0
  6  7  2  0  0  0
  7  8  1  0  0  0
  8  9  1  0  0  0
  9 10  2  0  0  0
 10  1  1  0  0  0
  1  2  2  0  0  0
  2 23  1  0  0  0
 23 24  2  0  0  0
 24 25  1  0  0  0
 25 26  2  0  0  0
 26 27  1  0  0  0
 26 28  1  0  0  0
 28 29  2  0  0  0
  2  3  1  0  0  0
  3  4  2  0  0  0
  4  5  1  0  0  0
  5 30  1  0  0  0
 30 31  1  0  0  0
 31 32  2  0  0  0
 32 33  1  0  0  0
 33 34  2  0  0  0
 34 35  1  0  0  0
 35 36  2  0  0  0
 10 11  1  0  0  0
 11 12  2  0  0  0
 12 13  1  0  0  0
 13 14  2  0  0  0
 14  6  1  0  0  0
 13  8  1  0  0  0
  5  1  1  0  0  0
 36 31  1  0  0  0
 29 23  1  0  0  0
 17 18  1  0  0  0
M  END
> <minimizedAffinity>
-7.62039

> <CNNscore>
0.1787058711

> <CNNaffinity>
6.7063417435

> <CNN_VS>
1.1984626055

> <CNNaffinity_variance>
0.2151581794

$$$$
[H]c1nc(N([H])[H])c(OC([H])([H])C([H])([H])[H])c(N2C([H])([H])C([H])([H])N(C([H])(c3c([H])c([H])c(C(F)(F)F)c([H])c3[H])C([H])([H])N([H])[H])C([H])([H])C2([H])[H])n1


 33 35  0  0  0  0  0  0  0  0999 V2000
    2.9832    3.9415   14.7493 N   0  0  0  0  0  0  0  0  0  0  0  0
    1.9878    4.9604   14.5013 C   0  0  0  0  0  0  0  0  0  0  0  0
    2.7868    6.1172   13.9514 C   0  0  0  0  0  0  0  0  0  0  0  0
    3.0052    5.8851   12.4997 N   0  0  0  0  0  0  0  0  0  0  0  0
    3.3303    4.4604   12.3857 C   0  0  0  0  0  0  0  0  0  0  0  0
    3.9601    3.8795   13.6022 C   0  0  0  0  0  0  0  0  0  0  0  0
    3.6846    3.2067   17.0387 C   0  0  0  0  0  0  0  0  0  0  0  0
    3.8548    2.1323   17.9388 C   0  0  0  0  0  0  0  0  0  0  0  0
    4.4225    2.3420   19.2168 N   0  0  0  0  0  0  0  0  0  0  0  0
    3.4811    0.9121   17.5877 N   0  0  0  0  0  0  0  0  0  0  0  0
    2.9392    0.7271   16.3657 C   0  0  0  0  0  0  0  0  0  0  0  0
    2.7805    1.7392   15.5138 N   0  0  0  0  0  0  0  0  0  0  0  0
    3.1508    3.0457   15.8086 C   0  0  0  0  0  0  0  0  0  0  0  0
    3.9682    1.8846   20.0521 H   0  0  0  0  0  0  0  0  0  0  0  0
    5.2861    2.9294   19.3739 H   0  0  0  0  0  0  0  0  0  0  0  0
    4.1102    4.4311   17.5298 O   0  0  0  0  0  0  0  0  0  0  0  0
    3.3108    5.7141   19.3850 C   0  0  0  0  0  0  0  0  0  0  0  0
    3.1770    5.4338   17.9050 C   0  0  0  0  0  0  0  0  0  0  0  0
    4.1693    6.6466   12.0923 C   0  0  0  0  0  0  0  0  0  0  0  0
    3.9674    7.3340   10.8058 C   0  0  0  0  0  0  0  0  0  0  0  0
    2.6994    7.7740   10.4756 C   0  0  0  0  0  0  0  0  0  0  0  0
    2.4253    8.3279    9.2330 C   0  0  0  0  0  0  0  0  0  0  0  0
    3.4241    8.4457    8.2922 C   0  0  0  0  0  0  0  0  0  0  0  0
    4.6979    8.0232    8.5868 C   0  0  0  0  0  0  0  0  0  0  0  0
    4.9313    7.4740    9.8509 C   0  0  0  0  0  0  0  0  0  0  0  0
    3.1167    8.9823    6.9439 C   0  0  0  0  0  0  0  0  0  0  0  0
    1.9627    9.7862    7.0875 F   0  0  0  0  0  0  0  0  0  0  0  0
    2.8051    8.0099    6.0258 F   0  0  0  0  0  0  0  0  0  0  0  0
    4.0977    9.8362    6.4987 F   0  0  0  0  0  0  0  0  0  0  0  0
    4.3283    7.7854   13.1244 C   0  0  0  0  0  0  0  0  0  0  0  0
    5.6763    8.1750   13.3380 N   0  0  0  0  0  0  0  0  0  0  0  0
    6.0865    7.7255   14.1645 H   0  0  0  0  0  0  0  0  0  0  0  0
    5.8501    9.1807   13.2363 H   0  0  0  0  0  0  0  0  0  0  0  0
 17 18  1  0  0  0
 18 16  1  0  0  0
 16  7  1  0  0  0
  7  8  2  0  0  0
  8  9  1  0  0  0
  8 10  1  0  0  0
 10 11  2  0  0  0
 11 12  1  0  0  0
 12 13  2  0  0  0
 13  1  1  0  0  0
  1  2  1  0  0  0
  2  3  1  0  0  0
  3  4  1  0  0  0
  4 19  1  0  0  0
 19 30  1  0  0  0
 30 31  1  0  0  0
 19 20  1  0  0  0
 20 21  2  0  0  0
 21 22  1  0  0  0
 22 23  2  0  0  0
 23 26  1  0  0  0
 26 27  1  0  0  0
 26 28  1  0  0  0
 26 29  1  0  0  0
 23 24  1  0  0  0
 24 25  2  0  0  0
  4  5  1  0  0  0
  5  6  1  0  0  0
 13  7  1  0  0  0
  6  1  1  0  0  0
 25 20  1  0  0  0
  9 14  1  0  0  0
  9 15  1  0  0  0
 31 32  1  0  0  0
 31 33  1  0  0  0
M  END
> <minimizedAffinity>
-5.94369

> <CNNscore>
0.1659354866

> <CNNaffinity>
5.1420063972

> <CNN_VS>
0.8532413244

> <CNNaffinity_variance>
0.6510001421

$$$$
[H]c1nc(N([H])[H])c(OC([H])([H])C([H])([H])[H])c(N2C([H])([H])C([H])([H])N(C([H])(c3c([H])c([H])c(C(F)(F)F)c([H])c3[H])C([H])([H])N([H])[H])C([H])([H])C2([H])[H])n1


 33 35  0  0  0  0  0  0  0  0999 V2000
    2.2243    5.0721   13.6145 N   0  0  0  0  0  0  0  0  0  0  0  0
    3.6209    4.7734   13.8396 C   0  0  0  0  0  0  0  0  0  0  0  0
    4.0227    5.7353   14.9315 C   0  0  0  0  0  0  0  0  0  0  0  0
    3.6202    5.1524   16.2381 N   0  0  0  0  0  0  0  0  0  0  0  0
    2.2858    4.5903   16.0104 C   0  0  0  0  0  0  0  0  0  0  0  0
    1.5156    5.2659   14.9314 C   0  0  0  0  0  0  0  0  0  0  0  0
    1.3829    6.1618   11.5221 C   0  0  0  0  0  0  0  0  0  0  0  0
    0.4755    6.1116   10.4417 C   0  0  0  0  0  0  0  0  0  0  0  0
    0.4071    7.1683    9.5044 N   0  0  0  0  0  0  0  0  0  0  0  0
   -0.3236    5.0661   10.2994 N   0  0  0  0  0  0  0  0  0  0  0  0
   -0.2462    4.0643   11.2002 C   0  0  0  0  0  0  0  0  0  0  0  0
    0.6075    4.1112   12.2222 N   0  0  0  0  0  0  0  0  0  0  0  0
    1.4746    5.1750   12.4397 C   0  0  0  0  0  0  0  0  0  0  0  0
    0.3579    6.9299    8.4777 H   0  0  0  0  0  0  0  0  0  0  0  0
    0.3948    8.1865    9.7847 H   0  0  0  0  0  0  0  0  0  0  0  0
    2.1652    7.3057   11.5534 O   0  0  0  0  0  0  0  0  0  0  0  0
    2.7316    8.7103   13.4063 C   0  0  0  0  0  0  0  0  0  0  0  0
    1.7542    8.4540   12.2812 C   0  0  0  0  0  0  0  0  0  0  0  0
    3.4957    6.2346   17.1945 C   0  0  0  0  0  0  0  0  0  0  0  0
    4.1124    5.9100   18.4917 C   0  0  0  0  0  0  0  0  0  0  0  0
    3.2937    5.6014   19.5616 C   0  0  0  0  0  0  0  0  0  0  0  0
    3.8099    5.3960   20.8334 C   0  0  0  0  0  0  0  0  0  0  0  0
    5.1648    5.5027   21.0559 C   0  0  0  0  0  0  0  0  0  0  0  0
    6.0098    5.8035   20.0151 C   0  0  0  0  0  0  0  0  0  0  0  0
    5.4488    5.9998   18.7499 C   0  0  0  0  0  0  0  0  0  0  0  0
    5.7085    5.3422   22.4267 C   0  0  0  0  0  0  0  0  0  0  0  0
    4.6111    5.0162   23.2562 F   0  0  0  0  0  0  0  0  0  0  0  0
    6.2565    6.4935   22.9364 F   0  0  0  0  0  0  0  0  0  0  0  0
    6.5596    4.2662   22.5153 F   0  0  0  0  0  0  0  0  0  0  0  0
    4.3397    7.4045   16.6411 C   0  0  0  0  0  0  0  0  0  0  0  0
    3.7913    8.6834   16.9211 N   0  0  0  0  0  0  0  0  0  0  0  0
    3.2440    9.0542   16.1359 H   0  0  0  0  0  0  0  0  0  0  0  0
    4.4428    9.3375   17.3679 H   0  0  0  0  0  0  0  0  0  0  0  0
 17 18  1  0  0  0
 18 16  1  0  0  0
 16  7  1  0  0  0
  7  8  2  0  0  0
  8  9  1  0  0  0
  8 10  1  0  0  0
 10 11  2  0  0  0
 11 12  1  0  0  0
 12 13  2  0  0  0
 13  1  1  0  0  0
  1  2  1  0  0  0
  2  3  1  0  0  0
  3  4  1  0  0  0
  4 19  1  0  0  0
 19 30  1  0  0  0
 30 31  1  0  0  0
 19 20  1  0  0  0
 20 21  2  0  0  0
 21 22  1  0  0  0
 22 23  2  0  0  0
 23 26  1  0  0  0
 26 27  1  0  0  0
 26 28  1  0  0  0
 26 29  1  0  0  0
 23 24  1  0  0  0
 24 25  2  0  0  0
  4  5  1  0  0  0
  5  6  1  0  0  0
 13  7  1  0  0  0
  6  1  1  0  0  0
 25 20  1  0  0  0
  9 14  1  0  0  0
  9 15  1  0  0  0
 31 32  1  0  0  0
 31 33  1  0  0  0
M  END
> <minimizedAffinity>
-6.19542

> <CNNscore>
0.1433569640

> <CNNaffinity>
4.9829239845

> <CNN_VS>
0.7143368721

> <CNNaffinity_variance>
0.8734292984

$$$$
[H]c1nc(N([H])[H])c(OC([H])([H])C([H])([H])[H])c(N2C([H])([H])C([H])([H])N(C([H])(c3c([H])c([H])c(C(F)(F)F)c([H])c3[H])C([H])([H])N([H])[H])C([H])([H])C2([H])[H])n1


 33 35  0  0  0  0  0  0  0  0999 V2000
    4.2273    4.0831   18.8006 N   0  0  0  0  0  0  0  0  0  0  0  0
    3.0746    4.9207   18.5553 C   0  0  0  0  0  0  0  0  0  0  0  0
    3.2946    5.4329   17.1523 C   0  0  0  0  0  0  0  0  0  0  0  0
    2.8250    4.3950   16.1978 N   0  0  0  0  0  0  0  0  0  0  0  0
    3.2987    3.1237   16.7528 C   0  0  0  0  0  0  0  0  0  0  0  0
    4.5262    3.2417   17.5854 C   0  0  0  0  0  0  0  0  0  0  0  0
    5.3724    2.8284   20.6412 C   0  0  0  0  0  0  0  0  0  0  0  0
    6.1344    2.8977   21.8277 C   0  0  0  0  0  0  0  0  0  0  0  0
    6.4607    1.7251   22.5478 N   0  0  0  0  0  0  0  0  0  0  0  0
    6.5506    4.0711   22.2768 N   0  0  0  0  0  0  0  0  0  0  0  0
    6.2334    5.1814   21.5785 C   0  0  0  0  0  0  0  0  0  0  0  0
    5.5119    5.1184   20.4601 N   0  0  0  0  0  0  0  0  0  0  0  0
    5.0371    3.9254   19.9285 C   0  0  0  0  0  0  0  0  0  0  0  0
    7.4472    1.6095   22.9036 H   0  0  0  0  0  0  0  0  0  0  0  0
    5.7600    0.9621   22.7534 H   0  0  0  0  0  0  0  0  0  0  0  0
    5.0050    1.5423   20.2772 O   0  0  0  0  0  0  0  0  0  0  0  0
    3.6588   -0.1129   21.3613 C   0  0  0  0  0  0  0  0  0  0  0  0
    3.6694    1.0881   20.4423 C   0  0  0  0  0  0  0  0  0  0  0  0
    3.4964    4.6114   14.9314 C   0  0  0  0  0  0  0  0  0  0  0  0
    2.9879    3.7274   13.8692 C   0  0  0  0  0  0  0  0  0  0  0  0
    3.7134    3.6037   12.6993 C   0  0  0  0  0  0  0  0  0  0  0  0
    3.2312    2.8746   11.6213 C   0  0  0  0  0  0  0  0  0  0  0  0
    2.0023    2.2576   11.6973 C   0  0  0  0  0  0  0  0  0  0  0  0
    1.2552    2.3550   12.8462 C   0  0  0  0  0  0  0  0  0  0  0  0
    1.7793    3.0964   13.9091 C   0  0  0  0  0  0  0  0  0  0  0  0
    1.4618    1.5291   10.5236 C   0  0  0  0  0  0  0  0  0  0  0  0
    0.4814    0.6406   11.0216 F   0  0  0  0  0  0  0  0  0  0  0  0
    2.3979    0.7584    9.8792 F   0  0  0  0  0  0  0  0  0  0  0  0
    0.7871    2.3680    9.6687 F   0  0  0  0  0  0  0  0  0  0  0  0
    3.1127    6.0361   14.4727 C   0  0  0  0  0  0  0  0  0  0  0  0
    4.2123    6.7940   13.9918 N   0  0  0  0  0  0  0  0  0  0  0  0
    4.6022    7.4153   14.7097 H   0  0  0  0  0  0  0  0  0  0  0  0
    4.0715    7.2068   13.0635 H   0  0  0  0  0  0  0  0  0  0  0  0
 17 18  1  0  0  0
 18 16  1  0  0  0
 16  7  1  0  0  0
  7  8  2  0  0  0
  8  9  1  0  0  0
  8 10  1  0  0  0
 10 11  2  0  0  0
 11 12  1  0  0  0
 12 13  2  0  0  0
 13  1  1  0  0  0
  1  2  1  0  0  0
  2  3  1  0  0  0
  3  4  1  0  0  0
  4 19  1  0  0  0
 19 30  1  0  0  0
 30 31  1  0  0  0
 19 20  1  0  0  0
 20 21  2  0  0  0
 21 22  1  0  0  0
 22 23  2  0  0  0
 23 26  1  0  0  0
 26 27  1  0  0  0
 26 28  1  0  0  0
 26 29  1  0  0  0
 23 24  1  0  0  0
 24 25  2  0  0  0
  4  5  1  0  0  0
  5  6  1  0  0  0
 13  7  1  0  0  0
  6  1  1  0  0  0
 25 20  1  0  0  0
  9 14  1  0  0  0
  9 15  1  0  0  0
 31 32  1  0  0  0
 31 33  1  0  0  0
M  END
> <minimizedAffinity>
-6.74286

> <CNNscore>
0.1339071393

> <CNNaffinity>
5.3679056168

> <CNN_VS>
0.7188009024

> <CNNaffinity_variance>
0.4575053155

$$$$
[H]c1nc(N([H])[H])c(OC([H])([H])C([H])([H])[H])c(N2C([H])([H])C([H])([H])N(C([H])(c3c([H])c([H])c(C(F)(F)F)c([H])c3[H])C([H])([H])N([H])[H])C([H])([H])C2([H])[H])n1


 33 35  0  0  0  0  0  0  0  0999 V2000
    3.9726    4.5048   19.8176 N   0  0  0  0  0  0  0  0  0  0  0  0
    3.8867    5.9476   19.8533 C   0  0  0  0  0  0  0  0  0  0  0  0
    4.5531    6.3791   18.5693 C   0  0  0  0  0  0  0  0  0  0  0  0
    3.5567    6.2820   17.4709 N   0  0  0  0  0  0  0  0  0  0  0  0
    2.8456    5.0228   17.7110 C   0  0  0  0  0  0  0  0  0  0  0  0
    3.6465    3.9989   18.4349 C   0  0  0  0  0  0  0  0  0  0  0  0
    4.8919    3.6937   22.0018 C   0  0  0  0  0  0  0  0  0  0  0  0
    5.1831    2.5862   22.8275 C   0  0  0  0  0  0  0  0  0  0  0  0
    5.8442    2.7605   24.0654 N   0  0  0  0  0  0  0  0  0  0  0  0
    4.8363    1.3679   22.4437 N   0  0  0  0  0  0  0  0  0  0  0  0
    4.2045    1.2168   21.2609 C   0  0  0  0  0  0  0  0  0  0  0  0
    3.9314    2.2604   20.4788 N   0  0  0  0  0  0  0  0  0  0  0  0
    4.2663    3.5674   20.8115 C   0  0  0  0  0  0  0  0  0  0  0  0
    5.4809    2.2413   24.9090 H   0  0  0  0  0  0  0  0  0  0  0  0
    6.6908    3.3807   24.1836 H   0  0  0  0  0  0  0  0  0  0  0  0
    5.3017    4.9119   22.5210 O   0  0  0  0  0  0  0  0  0  0  0  0
    6.4898    6.9815   22.3409 C   0  0  0  0  0  0  0  0  0  0  0  0
    6.5493    5.4822   22.1529 C   0  0  0  0  0  0  0  0  0  0  0  0
    4.2772    6.1604   16.2190 C   0  0  0  0  0  0  0  0  0  0  0  0
    3.5333    5.3778   15.2177 C   0  0  0  0  0  0  0  0  0  0  0  0
    2.3223    5.8602   14.7584 C   0  0  0  0  0  0  0  0  0  0  0  0
    1.5244    5.1164   13.9005 C   0  0  0  0  0  0  0  0  0  0  0  0
    1.9280    3.8652   13.4903 C   0  0  0  0  0  0  0  0  0  0  0  0
    3.1282    3.3550   13.9229 C   0  0  0  0  0  0  0  0  0  0  0  0
    3.9022    4.1384   14.7838 C   0  0  0  0  0  0  0  0  0  0  0  0
    1.0470    3.0468   12.6217 C   0  0  0  0  0  0  0  0  0  0  0  0
   -0.2255    3.6620   12.6505 F   0  0  0  0  0  0  0  0  0  0  0  0
    0.8718    1.7625   13.0749 F   0  0  0  0  0  0  0  0  0  0  0  0
    1.4409    3.0949   11.3055 F   0  0  0  0  0  0  0  0  0  0  0  0
    4.3581    7.5837   15.6229 C   0  0  0  0  0  0  0  0  0  0  0  0
    3.5975    8.5442   16.3394 N   0  0  0  0  0  0  0  0  0  0  0  0
    2.6756    8.7057   15.9181 H   0  0  0  0  0  0  0  0  0  0  0  0
    4.1214    9.3811   16.6172 H   0  0  0  0  0  0  0  0  0  0  0  0
 17 18  1  0  0  0
 18 16  1  0  0  0
 16  7  1  0  0  0
  7  8  2  0  0  0
  8  9  1  0  0  0
  8 10  1  0  0  0
 10 11  2  0  0  0
 11 12  1  0  0  0
 12 13  2  0  0  0
 13  1  1  0  0  0
  1  2  1  0  0  0
  2  3  1  0  0  0
  3  4  1  0  0  0
  4 19  1  0  0  0
 19 30  1  0  0  0
 30 31  1  0  0  0
 19 20  1  0  0  0
 20 21  2  0  0  0
 21 22  1  0  0  0
 22 23  2  0  0  0
 23 26  1  0  0  0
 26 27  1  0  0  0
 26 28  1  0  0  0
 26 29  1  0  0  0
 23 24  1  0  0  0
 24 25  2  0  0  0
  4  5  1  0  0  0
  5  6  1  0  0  0
 13  7  1  0  0  0
  6  1  1  0  0  0
 25 20  1  0  0  0
  9 14  1  0  0  0
  9 15  1  0  0  0
 31 32  1  0  0  0
 31 33  1  0  0  0
M  END
> <minimizedAffinity>
-7.07707

> <CNNscore>
0.1264676899

> <CNNaffinity>
5.8839378357

> <CNN_VS>
0.7441280484

> <CNNaffinity_variance>
0.6042894721

$$$$
[H]c1nc(N([H])[H])c(OC([H])([H])C([H])([H])[H])c(N2C([H])([H])C([H])([H])N(C([H])(c3c([H])c([H])c(C(F)(F)F)c([H])c3[H])C([H])([H])N([H])[H])C([H])([H])C2([H])[H])n1


 33 35  0  0  0  0  0  0  0  0999 V2000
    4.0529    2.3513   18.7819 N   0  0  0  0  0  0  0  0  0  0  0  0
    4.4956    1.4198   17.7686 C   0  0  0  0  0  0  0  0  0  0  0  0
    3.4271    1.5101   16.7060 C   0  0  0  0  0  0  0  0  0  0  0  0
    3.7222    2.6861   15.8464 N   0  0  0  0  0  0  0  0  0  0  0  0
    4.1289    3.7449   16.7749 C   0  0  0  0  0  0  0  0  0  0  0  0
    3.5464    3.6174   18.1381 C   0  0  0  0  0  0  0  0  0  0  0  0
    4.5180    3.1164   21.1211 C   0  0  0  0  0  0  0  0  0  0  0  0
    4.5057    2.7991   22.4968 C   0  0  0  0  0  0  0  0  0  0  0  0
    5.0114    3.7091   23.4538 N   0  0  0  0  0  0  0  0  0  0  0  0
    4.0170    1.6376   22.9015 N   0  0  0  0  0  0  0  0  0  0  0  0
    3.5361    0.7799   21.9774 C   0  0  0  0  0  0  0  0  0  0  0  0
    3.5495    1.0762   20.6784 N   0  0  0  0  0  0  0  0  0  0  0  0
    4.0484    2.2724   20.1771 C   0  0  0  0  0  0  0  0  0  0  0  0
    4.4553    3.8759   24.3348 H   0  0  0  0  0  0  0  0  0  0  0  0
    5.9253    4.2244   23.3316 H   0  0  0  0  0  0  0  0  0  0  0  0
    5.0498    4.3632   20.8311 O   0  0  0  0  0  0  0  0  0  0  0  0
    5.0892    6.7053   21.3212 C   0  0  0  0  0  0  0  0  0  0  0  0
    4.2441    5.5319   20.8786 C   0  0  0  0  0  0  0  0  0  0  0  0
    2.4879    3.0975   15.2072 C   0  0  0  0  0  0  0  0  0  0  0  0
    2.6357    4.3594   14.4629 C   0  0  0  0  0  0  0  0  0  0  0  0
    1.8072    5.4204   14.7763 C   0  0  0  0  0  0  0  0  0  0  0  0
    1.8234    6.5952   14.0377 C   0  0  0  0  0  0  0  0  0  0  0  0
    2.6729    6.7244   12.9614 C   0  0  0  0  0  0  0  0  0  0  0  0
    3.5141    5.6920   12.6231 C   0  0  0  0  0  0  0  0  0  0  0  0
    3.4678    4.5277   13.3953 C   0  0  0  0  0  0  0  0  0  0  0  0
    2.6465    7.9570   12.1366 C   0  0  0  0  0  0  0  0  0  0  0  0
    3.0971    9.0056   12.9707 F   0  0  0  0  0  0  0  0  0  0  0  0
    1.3874    8.3059   11.7140 F   0  0  0  0  0  0  0  0  0  0  0  0
    3.5544    7.9007   11.1059 F   0  0  0  0  0  0  0  0  0  0  0  0
    2.1833    2.0375   14.1251 C   0  0  0  0  0  0  0  0  0  0  0  0
    0.8056    1.9379   13.7986 N   0  0  0  0  0  0  0  0  0  0  0  0
    0.3391    1.1748   14.3019 H   0  0  0  0  0  0  0  0  0  0  0  0
    0.5989    2.0127   12.7968 H   0  0  0  0  0  0  0  0  0  0  0  0
 17 18  1  0  0  0
 18 16  1  0  0  0
 16  7  1  0  0  0
  7  8  2  0  0  0
  8  9  1  0  0  0
  8 10  1  0  0  0
 10 11  2  0  0  0
 11 12  1  0  0  0
 12 13  2  0  0  0
 13  1  1  0  0  0
  1  2  1  0  0  0
  2  3  1  0  0  0
  3  4  1  0  0  0
  4 19  1  0  0  0
 19 30  1  0  0  0
 30 31  1  0  0  0
 19 20  1  0  0  0
 20 21  2  0  0  0
 21 22  1  0  0  0
 22 23  2  0  0  0
 23 26  1  0  0  0
 26 27  1  0  0  0
 26 28  1  0  0  0
 26 29  1  0  0  0
 23 24  1  0  0  0
 24 25  2  0  0  0
  4  5  1  0  0  0
  5  6  1  0  0  0
 13  7  1  0  0  0
  6  1  1  0  0  0
 25 20  1  0  0  0
  9 14  1  0  0  0
  9 15  1  0  0  0
 31 32  1  0  0  0
 31 33  1  0  0  0
M  END
> <minimizedAffinity>
-7.38330

> <CNNscore>
0.1194909289

> <CNNaffinity>
5.7969417572

> <CNN_VS>
0.6926819682

> <CNNaffinity_variance>
1.0052832365

$$$$
[H]c1nc(N([H])[H])c(OC([H])([H])C([H])([H])[H])c(N2C([H])([H])C([H])([H])N(C([H])(c3c([H])c([H])c(C(F)(F)F)c([H])c3[H])C([H])([H])N([H])[H])C([H])([H])C2([H])[H])n1


 33 35  0  0  0  0  0  0  0  0999 V2000
    2.7135    5.9036   11.6708 N   0  0  0  0  0  0  0  0  0  0  0  0
    2.9878    6.3141   13.0297 C   0  0  0  0  0  0  0  0  0  0  0  0
    2.5785    5.1186   13.8558 C   0  0  0  0  0  0  0  0  0  0  0  0
    3.7008    4.1443   13.8545 N   0  0  0  0  0  0  0  0  0  0  0  0
    4.1926    4.1306   12.4738 C   0  0  0  0  0  0  0  0  0  0  0  0
    3.1645    4.4806   11.4568 C   0  0  0  0  0  0  0  0  0  0  0  0
    0.9379    6.5048   10.0097 C   0  0  0  0  0  0  0  0  0  0  0  0
    0.6007    7.2251    8.8432 C   0  0  0  0  0  0  0  0  0  0  0  0
   -0.6842    7.1054    8.2649 N   0  0  0  0  0  0  0  0  0  0  0  0
    1.4936    8.0229    8.2793 N   0  0  0  0  0  0  0  0  0  0  0  0
    2.7151    8.1287    8.8430 C   0  0  0  0  0  0  0  0  0  0  0  0
    3.0363    7.4475    9.9422 N   0  0  0  0  0  0  0  0  0  0  0  0
    2.1551    6.5892   10.5887 C   0  0  0  0  0  0  0  0  0  0  0  0
   -1.1796    7.9821    7.9500 H   0  0  0  0  0  0  0  0  0  0  0  0
   -1.1688    6.1773    8.1257 H   0  0  0  0  0  0  0  0  0  0  0  0
   -0.0864    5.7115   10.5027 O   0  0  0  0  0  0  0  0  0  0  0  0
   -1.2460    4.7881   12.3815 C   0  0  0  0  0  0  0  0  0  0  0  0
   -0.7612    6.0510   11.7054 C   0  0  0  0  0  0  0  0  0  0  0  0
    3.1589    2.8332   14.1525 C   0  0  0  0  0  0  0  0  0  0  0  0
    3.5097    2.3765   15.5078 C   0  0  0  0  0  0  0  0  0  0  0  0
    2.9878    1.1815   15.9657 C   0  0  0  0  0  0  0  0  0  0  0  0
    3.1919    0.7541   17.2701 C   0  0  0  0  0  0  0  0  0  0  0  0
    3.9235    1.5262   18.1450 C   0  0  0  0  0  0  0  0  0  0  0  0
    4.4616    2.7181   17.7236 C   0  0  0  0  0  0  0  0  0  0  0  0
    4.2344    3.1097   16.4010 C   0  0  0  0  0  0  0  0  0  0  0  0
    4.0903    1.0974   19.5552 C   0  0  0  0  0  0  0  0  0  0  0  0
    3.6397    2.1721   20.3555 F   0  0  0  0  0  0  0  0  0  0  0  0
    5.3979    0.8686   19.9065 F   0  0  0  0  0  0  0  0  0  0  0  0
    3.2653    0.0435   19.8690 F   0  0  0  0  0  0  0  0  0  0  0  0
    1.6222    2.9924   14.1780 C   0  0  0  0  0  0  0  0  0  0  0  0
    0.9341    1.9835   13.4545 N   0  0  0  0  0  0  0  0  0  0  0  0
    0.6851    2.2844   12.5054 H   0  0  0  0  0  0  0  0  0  0  0  0
    0.1985    1.5052   13.9856 H   0  0  0  0  0  0  0  0  0  0  0  0
 17 18  1  0  0  0
 18 16  1  0  0  0
 16  7  1  0  0  0
  7  8  2  0  0  0
  8  9  1  0  0  0
  8 10  1  0  0  0
 10 11  2  0  0  0
 11 12  1  0  0  0
 12 13  2  0  0  0
 13  1  1  0  0  0
  1  2  1  0  0  0
  2  3  1  0  0  0
  3  4  1  0  0  0
  4 19  1  0  0  0
 19 30  1  0  0  0
 30 31  1  0  0  0
 19 20  1  0  0  0
 20 21  2  0  0  0
 21 22  1  0  0  0
 22 23  2  0  0  0
 23 26  1  0  0  0
 26 27  1  0  0  0
 26 28  1  0  0  0
 26 29  1  0  0  0
 23 24  1  0  0  0
 24 25  2  0  0  0
  4  5  1  0  0  0
  5  6  1  0  0  0
 13  7  1  0  0  0
  6  1  1  0  0  0
 25 20  1  0  0  0
  9 14  1  0  0  0
  9 15  1  0  0  0
 31 32  1  0  0  0
 31 33  1  0  0  0
M  END
> <minimizedAffinity>
-6.87240

> <CNNscore>
0.1021442115

> <CNNaffinity>
4.9035682678

> <CNN_VS>
0.5008711219

> <CNNaffinity_variance>
0.3293855190

$$$$
[H]c1nc(N([H])[H])c(OC([H])([H])C([H])([H])[H])c(N2C([H])([H])C([H])([H])N(C([H])(c3c([H])c([H])c(C(F)(F)F)c([H])c3[H])C([H])([H])N([H])[H])C([H])([H])C2([H])[H])n1


 33 35  0  0  0  0  0  0  0  0999 V2000
    3.8338    4.4069   19.1161 N   0  0  0  0  0  0  0  0  0  0  0  0
    2.8100    5.4218   19.0064 C   0  0  0  0  0  0  0  0  0  0  0  0
    3.0649    6.0448   17.6551 C   0  0  0  0  0  0  0  0  0  0  0  0
    2.4231    5.1929   16.6201 N   0  0  0  0  0  0  0  0  0  0  0  0
    2.7205    3.8149   17.0218 C   0  0  0  0  0  0  0  0  0  0  0  0
    3.9738    3.6666   17.8098 C   0  0  0  0  0  0  0  0  0  0  0  0
    5.5821    4.6848   20.8880 C   0  0  0  0  0  0  0  0  0  0  0  0
    6.3699    4.0671   21.8836 C   0  0  0  0  0  0  0  0  0  0  0  0
    7.3479    4.8025   22.5924 N   0  0  0  0  0  0  0  0  0  0  0  0
    6.1960    2.7846   22.1609 N   0  0  0  0  0  0  0  0  0  0  0  0
    5.2579    2.0957   21.4779 C   0  0  0  0  0  0  0  0  0  0  0  0
    4.5155    2.6762   20.5360 N   0  0  0  0  0  0  0  0  0  0  0  0
    4.6418    4.0153   20.1870 C   0  0  0  0  0  0  0  0  0  0  0  0
    7.4106    4.6813   23.6386 H   0  0  0  0  0  0  0  0  0  0  0  0
    8.0251    5.4625   22.1218 H   0  0  0  0  0  0  0  0  0  0  0  0
    5.8588    6.0299   20.6992 O   0  0  0  0  0  0  0  0  0  0  0  0
    5.9592    8.1298   21.8426 C   0  0  0  0  0  0  0  0  0  0  0  0
    5.0625    7.0341   21.3113 C   0  0  0  0  0  0  0  0  0  0  0  0
    3.0847    5.4458   15.3553 C   0  0  0  0  0  0  0  0  0  0  0  0
    2.1626    5.3499   14.2113 C   0  0  0  0  0  0  0  0  0  0  0  0
    2.5088    4.5482   13.1400 C   0  0  0  0  0  0  0  0  0  0  0  0
    1.7357    4.5041   11.9883 C   0  0  0  0  0  0  0  0  0  0  0  0
    0.5973    5.2728   11.8890 C   0  0  0  0  0  0  0  0  0  0  0  0
    0.2196    6.0784   12.9360 C   0  0  0  0  0  0  0  0  0  0  0  0
    1.0250    6.0908   14.0784 C   0  0  0  0  0  0  0  0  0  0  0  0
   -0.1950    5.2703   10.6350 C   0  0  0  0  0  0  0  0  0  0  0  0
   -1.2113    6.2386   10.8027 F   0  0  0  0  0  0  0  0  0  0  0  0
   -0.8278    4.0765   10.3899 F   0  0  0  0  0  0  0  0  0  0  0  0
    0.5457    5.7071    9.5625 F   0  0  0  0  0  0  0  0  0  0  0  0
    3.5237    6.9270   15.3818 C   0  0  0  0  0  0  0  0  0  0  0  0
    4.6860    7.1894   14.6104 N   0  0  0  0  0  0  0  0  0  0  0  0
    5.5391    7.2007   15.1810 H   0  0  0  0  0  0  0  0  0  0  0  0
    4.5841    7.9527   13.9329 H   0  0  0  0  0  0  0  0  0  0  0  0
 17 18  1  0  0  0
 18 16  1  0  0  0
 16  7  1  0  0  0
  7  8  2  0  0  0
  8  9  1  0  0  0
  8 10  1  0  0  0
 10 11  2  0  0  0
 11 12  1  0  0  0
 12 13  2  0  0  0
 13  1  1  0  0  0
  1  2  1  0  0  0
  2  3  1  0  0  0
  3  4  1  0  0  0
  4 19  1  0  0  0
 19 30  1  0  0  0
 30 31  1  0  0  0
 19 20  1  0  0  0
 20 21  2  0  0  0
 21 22  1  0  0  0
 22 23  2  0  0  0
 23 26  1  0  0  0
 26 27  1  0  0  0
 26 28  1  0  0  0
 26 29  1  0  0  0
 23 24  1  0  0  0
 24 25  2  0  0  0
  4  5  1  0  0  0
  5  6  1  0  0  0
 13  7  1  0  0  0
  6  1  1  0  0  0
 25 20  1  0  0  0
  9 14  1  0  0  0
  9 15  1  0  0  0
 31 32  1  0  0  0
 31 33  1  0  0  0
M  END
> <minimizedAffinity>
-6.16224

> <CNNscore>
0.0915235654

> <CNNaffinity>
5.2345752716

> <CNN_VS>
0.4790869951

> <CNNaffinity_variance>
0.7484368682

$$$$
[H]c1nc(N([H])[H])c(OC([H])([H])C([H])([H])[H])c(N2C([H])([H])C([H])([H])N(C([H])(c3c([H])c([H])c(C(F)(F)F)c([H])c3[H])C([H])([H])N([H])[H])C([H])([H])C2([H])[H])n1


 33 35  0  0  0  0  0  0  0  0999 V2000
    4.4878    4.1777   18.7762 N   0  0  0  0  0  0  0  0  0  0  0  0
    5.3977    3.7397   17.7416 C   0  0  0  0  0  0  0  0  0  0  0  0
    4.5951    2.7259   16.9625 C   0  0  0  0  0  0  0  0  0  0  0  0
    3.7388    3.4555   15.9913 N   0  0  0  0  0  0  0  0  0  0  0  0
    3.2162    4.6068   16.7329 C   0  0  0  0  0  0  0  0  0  0  0  0
    3.1100    4.3892   18.2009 C   0  0  0  0  0  0  0  0  0  0  0  0
    4.8680    3.6192   21.1880 C   0  0  0  0  0  0  0  0  0  0  0  0
    4.9482    4.0918   22.5160 C   0  0  0  0  0  0  0  0  0  0  0  0
    5.1365    3.1950   23.5931 N   0  0  0  0  0  0  0  0  0  0  0  0
    4.8462    5.3882   22.7622 N   0  0  0  0  0  0  0  0  0  0  0  0
    4.6686    6.2325   21.7245 C   0  0  0  0  0  0  0  0  0  0  0  0
    4.5897    5.7882   20.4708 N   0  0  0  0  0  0  0  0  0  0  0  0
    4.6845    4.4433   20.1340 C   0  0  0  0  0  0  0  0  0  0  0  0
    5.8389    3.4437   24.3401 H   0  0  0  0  0  0  0  0  0  0  0  0
    4.6002    2.2902   23.6894 H   0  0  0  0  0  0  0  0  0  0  0  0
    4.9955    2.2443   21.0664 O   0  0  0  0  0  0  0  0  0  0  0  0
    3.2672    0.7552   21.7894 C   0  0  0  0  0  0  0  0  0  0  0  0
    3.9131    1.4462   20.6095 C   0  0  0  0  0  0  0  0  0  0  0  0
    2.6219    2.5992   15.6439 C   0  0  0  0  0  0  0  0  0  0  0  0
    2.4334    2.4867   14.1879 C   0  0  0  0  0  0  0  0  0  0  0  0
    3.2939    3.1689   13.3485 C   0  0  0  0  0  0  0  0  0  0  0  0
    3.0998    3.1913   11.9746 C   0  0  0  0  0  0  0  0  0  0  0  0
    2.0289    2.5297   11.4160 C   0  0  0  0  0  0  0  0  0  0  0  0
    1.1553    1.8370   12.2190 C   0  0  0  0  0  0  0  0  0  0  0  0
    1.3891    1.8378   13.5971 C   0  0  0  0  0  0  0  0  0  0  0  0
    1.7886    2.6042    9.9541 C   0  0  0  0  0  0  0  0  0  0  0  0
    1.9584    1.2929    9.4540 F   0  0  0  0  0  0  0  0  0  0  0  0
    2.6927    3.3967    9.2906 F   0  0  0  0  0  0  0  0  0  0  0  0
    0.4851    2.9335    9.6673 F   0  0  0  0  0  0  0  0  0  0  0  0
    3.0070    1.1742   16.1005 C   0  0  0  0  0  0  0  0  0  0  0  0
    1.9473    0.4747   16.7351 N   0  0  0  0  0  0  0  0  0  0  0  0
    1.9995    0.5316   17.7585 H   0  0  0  0  0  0  0  0  0  0  0  0
    1.7540   -0.4528   16.3422 H   0  0  0  0  0  0  0  0  0  0  0  0
 17 18  1  0  0  0
 18 16  1  0  0  0
 16  7  1  0  0  0
  7  8  2  0  0  0
  8  9  1  0  0  0
  8 10  1  0  0  0
 10 11  2  0  0  0
 11 12  1  0  0  0
 12 13  2  0  0  0
 13  1  1  0  0  0
  1  2  1  0  0  0
  2  3  1  0  0  0
  3  4  1  0  0  0
  4 19  1  0  0  0
 19 30  1  0  0  0
 30 31  1  0  0  0
 19 20  1  0  0  0
 20 21  2  0  0  0
 21 22  1  0  0  0
 22 23  2  0  0  0
 23 26  1  0  0  0
 26 27  1  0  0  0
 26 28  1  0  0  0
 26 29  1  0  0  0
 23 24  1  0  0  0
 24 25  2  0  0  0
  4  5  1  0  0  0
  5  6  1  0  0  0
 13  7  1  0  0  0
  6  1  1  0  0  0
 25 20  1  0  0  0
  9 14  1  0  0  0
  9 15  1  0  0  0
 31 32  1  0  0  0
 31 33  1  0  0  0
M  END
> <minimizedAffinity>
-7.15282

> <CNNscore>
0.0861330777

> <CNNaffinity>
5.6741213799

> <CNN_VS>
0.4887295365

> <CNNaffinity_variance>
0.3826956153

$$$$
[H]c1nc(N([H])[H])c(OC([H])([H])C([H])([H])[H])c(N2C([H])([H])C([H])([H])N(C([H])(c3c([H])c([H])c(C(F)(F)F)c([H])c3[H])C([H])([H])N([H])[H])C([H])([H])C2([H])[H])n1


 33 35  0  0  0  0  0  0  0  0999 V2000
    4.3437    7.5528   14.6491 N   0  0  0  0  0  0  0  0  0  0  0  0
    5.2561    8.4231   15.3565 C   0  0  0  0  0  0  0  0  0  0  0  0
    4.7011    8.4612   16.7599 C   0  0  0  0  0  0  0  0  0  0  0  0
    5.1840    7.2573   17.4855 N   0  0  0  0  0  0  0  0  0  0  0  0
    5.0637    6.1581   16.5232 C   0  0  0  0  0  0  0  0  0  0  0  0
    4.0012    6.3564   15.5007 C   0  0  0  0  0  0  0  0  0  0  0  0
    2.5113    7.7855   12.9575 C   0  0  0  0  0  0  0  0  0  0  0  0
    2.1423    7.7401   11.5954 C   0  0  0  0  0  0  0  0  0  0  0  0
    0.7924    7.8996   11.2056 N   0  0  0  0  0  0  0  0  0  0  0  0
    3.0663    7.5457   10.6678 N   0  0  0  0  0  0  0  0  0  0  0  0
    4.3506    7.3969   11.0542 C   0  0  0  0  0  0  0  0  0  0  0  0
    4.7004    7.4364   12.3393 N   0  0  0  0  0  0  0  0  0  0  0  0
    3.7885    7.6331   13.3692 C   0  0  0  0  0  0  0  0  0  0  0  0
    0.5743    8.5294   10.3877 H   0  0  0  0  0  0  0  0  0  0  0  0
   -0.0085    7.4106   11.6905 H   0  0  0  0  0  0  0  0  0  0  0  0
    1.4520    8.0006   13.8253 O   0  0  0  0  0  0  0  0  0  0  0  0
    0.9780    5.6776   14.1510 C   0  0  0  0  0  0  0  0  0  0  0  0
    0.3963    7.0574   13.9398 C   0  0  0  0  0  0  0  0  0  0  0  0
    4.2727    6.9973   18.5823 C   0  0  0  0  0  0  0  0  0  0  0  0
    4.6636    5.8144   19.3674 C   0  0  0  0  0  0  0  0  0  0  0  0
    3.8886    4.6729   19.2859 C   0  0  0  0  0  0  0  0  0  0  0  0
    4.1420    3.5665   20.0845 C   0  0  0  0  0  0  0  0  0  0  0  0
    5.1809    3.5886   20.9883 C   0  0  0  0  0  0  0  0  0  0  0  0
    5.9754    4.7046   21.0937 C   0  0  0  0  0  0  0  0  0  0  0  0
    5.6873    5.7957   20.2687 C   0  0  0  0  0  0  0  0  0  0  0  0
    5.4134    2.4285   21.8831 C   0  0  0  0  0  0  0  0  0  0  0  0
    6.7128    2.5892   22.4161 F   0  0  0  0  0  0  0  0  0  0  0  0
    5.4051    1.2218   21.2278 F   0  0  0  0  0  0  0  0  0  0  0  0
    4.5728    2.4465   22.9706 F   0  0  0  0  0  0  0  0  0  0  0  0
    4.4194    8.1835   19.5614 C   0  0  0  0  0  0  0  0  0  0  0  0
    3.2779    9.0258   19.6092 N   0  0  0  0  0  0  0  0  0  0  0  0
    3.3767    9.8520   19.0083 H   0  0  0  0  0  0  0  0  0  0  0  0
    2.9112    9.1929   20.5523 H   0  0  0  0  0  0  0  0  0  0  0  0
 17 18  1  0  0  0
 18 16  1  0  0  0
 16  7  1  0  0  0
  7  8  2  0  0  0
  8  9  1  0  0  0
  8 10  1  0  0  0
 10 11  2  0  0  0
 11 12  1  0  0  0
 12 13  2  0  0  0
 13  1  1  0  0  0
  1  2  1  0  0  0
  2  3  1  0  0  0
  3  4  1  0  0  0
  4 19  1  0  0  0
 19 30  1  0  0  0
 30 31  1  0  0  0
 19 20  1  0  0  0
 20 21  2  0  0  0
 21 22  1  0  0  0
 22 23  2  0  0  0
 23 26  1  0  0  0
 26 27  1  0  0  0
 26 28  1  0  0  0
 26 29  1  0  0  0
 23 24  1  0  0  0
 24 25  2  0  0  0
  4  5  1  0  0  0
  5  6  1  0  0  0
 13  7  1  0  0  0
  6  1  1  0  0  0
 25 20  1  0  0  0
  9 14  1  0  0  0
  9 15  1  0  0  0
 31 32  1  0  0  0
 31 33  1  0  0  0
M  END
> <minimizedAffinity>
-6.92943

> <CNNscore>
0.0844486952

> <CNNaffinity>
5.1617269516

> <CNN_VS>
0.4359011054

> <CNNaffinity_variance>
0.8740648031

$$$$
[H]OC(=O)[C@@]([H])(Oc1c(Br)c([H])c(-c2c([H])c([H])c(-c3c(C([H])([H])c4c([H])c([H])c([H])c([H])c4[H])oc4c([H])c([H])c([H])c([H])c34)c([H])c2[H])c([H])c1Br)C([H])([H])c1c([H])c([H])c([H])c([H])c1[H]


 43 48  0  0  0  0  0  0  0  0999 V2000
    3.4487    3.5237   14.9868 C   0  0  0  0  0  0  0  0  0  0  0  0
    2.3841    2.6438   14.9683 C   0  0  0  0  0  0  0  0  0  0  0  0
    1.7985    2.3549   13.7630 C   0  0  0  0  0  0  0  0  0  0  0  0
    2.1905    2.8773   12.5539 C   0  0  0  0  0  0  0  0  0  0  0  0
    3.2758    3.7657   12.6164 C   0  0  0  0  0  0  0  0  0  0  0  0
    3.8786    4.0724   13.8016 C   0  0  0  0  0  0  0  0  0  0  0  0
    1.5570    2.6004   11.2790 C   0  0  0  0  0  0  0  0  0  0  0  0
    0.4330    3.0867   10.7202 C   0  0  0  0  0  0  0  0  0  0  0  0
    0.2421    2.4921    9.5399 O   0  0  0  0  0  0  0  0  0  0  0  0
    1.1927    1.6303    9.2873 C   0  0  0  0  0  0  0  0  0  0  0  0
    1.4413    0.7859    8.2279 C   0  0  0  0  0  0  0  0  0  0  0  0
    2.5447   -0.0404    8.2131 C   0  0  0  0  0  0  0  0  0  0  0  0
    3.3929    0.0090    9.2989 C   0  0  0  0  0  0  0  0  0  0  0  0
    3.1509    0.8586   10.3753 C   0  0  0  0  0  0  0  0  0  0  0  0
    2.0560    1.6567   10.3560 C   0  0  0  0  0  0  0  0  0  0  0  0
   -0.5159    4.1070   11.2129 C   0  0  0  0  0  0  0  0  0  0  0  0
    0.1951    5.3066   11.6941 C   0  0  0  0  0  0  0  0  0  0  0  0
    0.9578    6.1436   10.9406 C   0  0  0  0  0  0  0  0  0  0  0  0
    1.5955    7.2642   11.4965 C   0  0  0  0  0  0  0  0  0  0  0  0
    1.4697    7.5547   12.8325 C   0  0  0  0  0  0  0  0  0  0  0  0
    0.7021    6.7206   13.6143 C   0  0  0  0  0  0  0  0  0  0  0  0
    0.0786    5.6213   13.0556 C   0  0  0  0  0  0  0  0  0  0  0  0
    5.4888    4.6783   18.5877 C   0  0  0  0  0  0  0  0  0  0  0  0
    4.7507    3.4893   18.5150 C   0  0  0  0  0  0  0  0  0  0  0  0
    4.6893    2.3769   20.0553 Br  0  0  0  0  0  0  0  0  0  0  0  0
    4.0948    3.1223   17.3565 C   0  0  0  0  0  0  0  0  0  0  0  0
    4.1310    3.8960   16.2208 C   0  0  0  0  0  0  0  0  0  0  0  0
    4.8585    5.0751   16.2798 C   0  0  0  0  0  0  0  0  0  0  0  0
    5.5203    5.4446   17.4588 C   0  0  0  0  0  0  0  0  0  0  0  0
    6.4040    7.1581   17.4104 Br  0  0  0  0  0  0  0  0  0  0  0  0
    6.1360    5.0513   19.7355 O   0  0  0  0  0  0  0  0  0  0  0  0
    5.6050    5.8189   20.8067 C   0  0  0  0  0  0  0  0  0  0  0  0
    4.1239    7.3627   19.6609 O   0  0  0  0  0  0  0  0  0  0  0  0
    4.2907    6.3099   20.3375 C   0  0  0  0  0  0  0  0  0  0  0  0
    3.1250    5.6094   20.6239 O   0  0  0  0  0  0  0  0  0  0  0  0
    2.6970    5.5028   21.5064 H   0  0  0  0  0  0  0  0  0  0  0  0
    6.4975    6.9891   21.1854 C   0  0  0  0  0  0  0  0  0  0  0  0
    7.9245    6.6407   21.3164 C   0  0  0  0  0  0  0  0  0  0  0  0
    8.3285    5.8251   22.3909 C   0  0  0  0  0  0  0  0  0  0  0  0
    9.6600    5.4724   22.4935 C   0  0  0  0  0  0  0  0  0  0  0  0
   10.6059    5.8956   21.5754 C   0  0  0  0  0  0  0  0  0  0  0  0
   10.1610    6.6947   20.5378 C   0  0  0  0  0  0  0  0  0  0  0  0
    8.8471    7.0679   20.3985 C   0  0  0  0  0  0  0  0  0  0  0  0
 33 34  2  0  0  0
 34 35  1  0  0  0
 34 32  1  0  0  0
 32 37  1  0  0  0
 37 38  1  0  0  0
 38 39  2  0  0  0
 39 40  1  0  0  0
 40 41  2  0  0  0
 41 42  1  0  0  0
 42 43  2  0  0  0
 32 31  1  0  0  0
 31 23  1  0  0  0
 23 24  2  0  0  0
 24 25  1  0  0  0
 24 26  1  0  0  0
 26 27  2  0  0  0
 27  1  1  0  0  0
  1  2  2  0  0  0
  2  3  1  0  0  0
  3  4  2  0  0  0
  4  7  1  0  0  0
  7  8  2  0  0  0
  8 16  1  0  0  0
 16 17  1  0  0  0
 17 18  2  0  0  0
 18 19  1  0  0  0
 19 20  2  0  0  0
 20 21  1  0  0  0
 21 22  2  0  0  0
  8  9  1  0  0  0
  9 10  1  0  0  0
 10 11  2  0  0  0
 11 12  1  0  0  0
 12 13  2  0  0  0
 13 14  1  0  0  0
 14 15  2  0  0  0
  4  5  1  0  0  0
  5  6  2  0  0  0
 27 28  1  0  0  0
 28 29  2  0  0  0
 29 30  1  0  0  0
 43 38  1  0  0  0
 29 23  1  0  0  0
  6  1  1  0  0  0
 15  7  1  0  0  0
 22 17  1  0  0  0
 15 10  1  0  0  0
 35 36  1  0  0  0
M  END
> <minimizedAffinity>
-8.38262

> <CNNscore>
0.1165956333

> <CNNaffinity>
6.3975281715

> <CNN_VS>
0.7459238768

> <CNNaffinity_variance>
0.3356644213

$$$$
[H]OC(=O)[C@@]([H])(Oc1c(Br)c([H])c(-c2c([H])c([H])c(-c3c(C([H])([H])c4c([H])c([H])c([H])c([H])c4[H])oc4c([H])c([H])c([H])c([H])c34)c([H])c2[H])c([H])c1Br)C([H])([H])c1c([H])c([H])c([H])c([H])c1[H]


 43 48  0  0  0  0  0  0  0  0999 V2000
    3.5007    3.4837   14.3296 C   0  0  0  0  0  0  0  0  0  0  0  0
    2.7414    2.3298   14.3234 C   0  0  0  0  0  0  0  0  0  0  0  0
    2.2463    1.8821   13.1261 C   0  0  0  0  0  0  0  0  0  0  0  0
    2.4472    2.4970   11.9137 C   0  0  0  0  0  0  0  0  0  0  0  0
    3.2245    3.6651   11.9636 C   0  0  0  0  0  0  0  0  0  0  0  0
    3.7304    4.1349   13.1406 C   0  0  0  0  0  0  0  0  0  0  0  0
    1.9017    2.0467   10.6476 C   0  0  0  0  0  0  0  0  0  0  0  0
    2.3591    1.1547    9.7490 C   0  0  0  0  0  0  0  0  0  0  0  0
    1.5168    1.1098    8.7139 O   0  0  0  0  0  0  0  0  0  0  0  0
    0.5158    1.9337    8.8848 C   0  0  0  0  0  0  0  0  0  0  0  0
   -0.5878    2.2461    8.1221 C   0  0  0  0  0  0  0  0  0  0  0  0
   -1.5137    3.1748    8.5472 C   0  0  0  0  0  0  0  0  0  0  0  0
   -1.2955    3.7809    9.7662 C   0  0  0  0  0  0  0  0  0  0  0  0
   -0.1831    3.4728   10.5451 C   0  0  0  0  0  0  0  0  0  0  0  0
    0.7068    2.5552   10.0954 C   0  0  0  0  0  0  0  0  0  0  0  0
    3.5644    0.2999    9.7783 C   0  0  0  0  0  0  0  0  0  0  0  0
    4.6222    0.8416    8.9042 C   0  0  0  0  0  0  0  0  0  0  0  0
    5.3138    1.9959    9.1022 C   0  0  0  0  0  0  0  0  0  0  0  0
    6.3066    2.4256    8.2071 C   0  0  0  0  0  0  0  0  0  0  0  0
    6.6146    1.6879    7.0908 C   0  0  0  0  0  0  0  0  0  0  0  0
    5.9266    0.5156    6.8706 C   0  0  0  0  0  0  0  0  0  0  0  0
    4.9524    0.1026    7.7592 C   0  0  0  0  0  0  0  0  0  0  0  0
    5.1411    5.0601   17.9745 C   0  0  0  0  0  0  0  0  0  0  0  0
    5.0849    5.8302   16.8051 C   0  0  0  0  0  0  0  0  0  0  0  0
    5.7386    7.6140   16.8744 Br  0  0  0  0  0  0  0  0  0  0  0  0
    4.5586    5.3196   15.6349 C   0  0  0  0  0  0  0  0  0  0  0  0
    4.0641    4.0395   15.5545 C   0  0  0  0  0  0  0  0  0  0  0  0
    4.1138    3.2672   16.7052 C   0  0  0  0  0  0  0  0  0  0  0  0
    4.6513    3.7890   17.8897 C   0  0  0  0  0  0  0  0  0  0  0  0
    4.7395    2.5583   19.3719 Br  0  0  0  0  0  0  0  0  0  0  0  0
    5.6679    5.5582   19.1363 O   0  0  0  0  0  0  0  0  0  0  0  0
    4.9552    5.9415   20.3041 C   0  0  0  0  0  0  0  0  0  0  0  0
    5.3198    8.3381   20.4198 O   0  0  0  0  0  0  0  0  0  0  0  0
    4.5865    7.3602   20.1035 C   0  0  0  0  0  0  0  0  0  0  0  0
    3.3684    7.7053   19.5303 O   0  0  0  0  0  0  0  0  0  0  0  0
    2.4721    7.5964   19.9280 H   0  0  0  0  0  0  0  0  0  0  0  0
    5.7822    5.7883   21.5698 C   0  0  0  0  0  0  0  0  0  0  0  0
    5.4373    4.6019   22.3750 C   0  0  0  0  0  0  0  0  0  0  0  0
    4.1867    4.5598   23.0210 C   0  0  0  0  0  0  0  0  0  0  0  0
    3.8515    3.4340   23.7475 C   0  0  0  0  0  0  0  0  0  0  0  0
    4.7052    2.3498   23.8597 C   0  0  0  0  0  0  0  0  0  0  0  0
    5.9219    2.4379   23.2077 C   0  0  0  0  0  0  0  0  0  0  0  0
    6.2939    3.5378   22.4750 C   0  0  0  0  0  0  0  0  0  0  0  0
 33 34  2  0  0  0
 34 35  1  0  0  0
 34 32  1  0  0  0
 32 37  1  0  0  0
 37 38  1  0  0  0
 38 39  2  0  0  0
 39 40  1  0  0  0
 40 41  2  0  0  0
 41 42  1  0  0  0
 42 43  2  0  0  0
 32 31  1  0  0  0
 31 23  1  0  0  0
 23 24  2  0  0  0
 24 25  1  0  0  0
 24 26  1  0  0  0
 26 27  2  0  0  0
 27  1  1  0  0  0
  1  2  2  0  0  0
  2  3  1  0  0  0
  3  4  2  0  0  0
  4  7  1  0  0  0
  7  8  2  0  0  0
  8 16  1  0  0  0
 16 17  1  0  0  0
 17 18  2  0  0  0
 18 19  1  0  0  0
 19 20  2  0  0  0
 20 21  1  0  0  0
 21 22  2  0  0  0
  8  9  1  0  0  0
  9 10  1  0  0  0
 10 11  2  0  0  0
 11 12  1  0  0  0
 12 13  2  0  0  0
 13 14  1  0  0  0
 14 15  2  0  0  0
  4  5  1  0  0  0
  5  6  2  0  0  0
 27 28  1  0  0  0
 28 29  2  0  0  0
 29 30  1  0  0  0
 43 38  1  0  0  0
 29 23  1  0  0  0
  6  1  1  0  0  0
 15  7  1  0  0  0
 22 17  1  0  0  0
 15 10  1  0  0  0
 35 36  1  0  0  0
M  END
> <minimizedAffinity>
-8.78351

> <CNNscore>
0.1145052910

> <CNNaffinity>
6.4236154556

> <CNN_VS>
0.7355379462

> <CNNaffinity_variance>
0.3227019906

$$$$
[H]OC(=O)[C@@]([H])(Oc1c(Br)c([H])c(-c2c([H])c([H])c(-c3c(C([H])([H])c4c([H])c([H])c([H])c([H])c4[H])oc4c([H])c([H])c([H])c([H])c34)c([H])c2[H])c([H])c1Br)C([H])([H])c1c([H])c([H])c([H])c([H])c1[H]


 43 48  0  0  0  0  0  0  0  0999 V2000
    3.2247    2.8645   14.7195 C   0  0  0  0  0  0  0  0  0  0  0  0
    3.6531    3.6054   13.6353 C   0  0  0  0  0  0  0  0  0  0  0  0
    3.0286    3.4169   12.4297 C   0  0  0  0  0  0  0  0  0  0  0  0
    1.9956    2.5380   12.2090 C   0  0  0  0  0  0  0  0  0  0  0  0
    1.5898    1.8058   13.3361 C   0  0  0  0  0  0  0  0  0  0  0  0
    2.1929    1.9718   14.5489 C   0  0  0  0  0  0  0  0  0  0  0  0
    1.3502    2.3108   10.9302 C   0  0  0  0  0  0  0  0  0  0  0  0
    1.5995    1.4176    9.9544 C   0  0  0  0  0  0  0  0  0  0  0  0
    0.7513    1.6287    8.9450 O   0  0  0  0  0  0  0  0  0  0  0  0
   -0.0544    2.6248    9.2071 C   0  0  0  0  0  0  0  0  0  0  0  0
   -1.0802    3.2167    8.5037 C   0  0  0  0  0  0  0  0  0  0  0  0
   -1.7870    4.2795    9.0247 C   0  0  0  0  0  0  0  0  0  0  0  0
   -1.4302    4.7296   10.2780 C   0  0  0  0  0  0  0  0  0  0  0  0
   -0.3947    4.1389   10.9976 C   0  0  0  0  0  0  0  0  0  0  0  0
    0.2789    3.0962   10.4540 C   0  0  0  0  0  0  0  0  0  0  0  0
    2.6015    0.3336    9.8833 C   0  0  0  0  0  0  0  0  0  0  0  0
    3.7287    0.7074    9.0081 C   0  0  0  0  0  0  0  0  0  0  0  0
    4.0696    0.1049    7.8373 C   0  0  0  0  0  0  0  0  0  0  0  0
    5.1657    0.5387    7.0744 C   0  0  0  0  0  0  0  0  0  0  0  0
    5.9378    1.5954    7.4896 C   0  0  0  0  0  0  0  0  0  0  0  0
    5.6107    2.2203    8.6722 C   0  0  0  0  0  0  0  0  0  0  0  0
    4.5291    1.7849    9.4137 C   0  0  0  0  0  0  0  0  0  0  0  0
    5.0569    3.2923   18.5823 C   0  0  0  0  0  0  0  0  0  0  0  0
    4.1137    2.2876   18.3280 C   0  0  0  0  0  0  0  0  0  0  0  0
    3.6744    1.0926   19.7397 Br  0  0  0  0  0  0  0  0  0  0  0  0
    3.5255    2.1542   17.0857 C   0  0  0  0  0  0  0  0  0  0  0  0
    3.8316    2.9917   16.0394 C   0  0  0  0  0  0  0  0  0  0  0  0
    4.7639    3.9900   16.2783 C   0  0  0  0  0  0  0  0  0  0  0  0
    5.3562    4.1230   17.5416 C   0  0  0  0  0  0  0  0  0  0  0  0
    6.5561    5.6198   17.7405 Br  0  0  0  0  0  0  0  0  0  0  0  0
    5.6388    3.4342   19.8139 O   0  0  0  0  0  0  0  0  0  0  0  0
    5.5695    4.5675   20.6680 C   0  0  0  0  0  0  0  0  0  0  0  0
    6.9293    4.0040   22.5976 O   0  0  0  0  0  0  0  0  0  0  0  0
    5.7993    4.0550   22.0366 C   0  0  0  0  0  0  0  0  0  0  0  0
    4.7426    3.5883   22.8092 O   0  0  0  0  0  0  0  0  0  0  0  0
    4.2146    2.7681   22.6611 H   0  0  0  0  0  0  0  0  0  0  0  0
    4.2269    5.2754   20.5914 C   0  0  0  0  0  0  0  0  0  0  0  0
    4.3249    6.7325   20.3866 C   0  0  0  0  0  0  0  0  0  0  0  0
    3.7702    7.2930   19.2199 C   0  0  0  0  0  0  0  0  0  0  0  0
    3.8335    8.6617   19.0452 C   0  0  0  0  0  0  0  0  0  0  0  0
    4.4242    9.4959   19.9791 C   0  0  0  0  0  0  0  0  0  0  0  0
    4.9548    8.8990   21.1083 C   0  0  0  0  0  0  0  0  0  0  0  0
    4.9126    7.5432   21.3212 C   0  0  0  0  0  0  0  0  0  0  0  0
 33 34  2  0  0  0
 34 35  1  0  0  0
 34 32  1  0  0  0
 32 37  1  0  0  0
 37 38  1  0  0  0
 38 39  2  0  0  0
 39 40  1  0  0  0
 40 41  2  0  0  0
 41 42  1  0  0  0
 42 43  2  0  0  0
 32 31  1  0  0  0
 31 23  1  0  0  0
 23 24  2  0  0  0
 24 25  1  0  0  0
 24 26  1  0  0  0
 26 27  2  0  0  0
 27  1  1  0  0  0
  1  2  2  0  0  0
  2  3  1  0  0  0
  3  4  2  0  0  0
  4  7  1  0  0  0
  7  8  2  0  0  0
  8 16  1  0  0  0
 16 17  1  0  0  0
 17 18  2  0  0  0
 18 19  1  0  0  0
 19 20  2  0  0  0
 20 21  1  0  0  0
 21 22  2  0  0  0
  8  9  1  0  0  0
  9 10  1  0  0  0
 10 11  2  0  0  0
 11 12  1  0  0  0
 12 13  2  0  0  0
 13 14  1  0  0  0
 14 15  2  0  0  0
  4  5  1  0  0  0
  5  6  2  0  0  0
 27 28  1  0  0  0
 28 29  2  0  0  0
 29 30  1  0  0  0
 43 38  1  0  0  0
 29 23  1  0  0  0
  6  1  1  0  0  0
 15  7  1  0  0  0
 22 17  1  0  0  0
 15 10  1  0  0  0
 35 36  1  0  0  0
M  END
> <minimizedAffinity>
-8.77028

> <CNNscore>
0.0851692036

> <CNNaffinity>
6.3172636032

> <CNN_VS>
0.5380362868

> <CNNaffinity_variance>
0.3607242405

$$$$
[H]OC(=O)[C@@]([H])(Oc1c(Br)c([H])c(-c2c([H])c([H])c(-c3c(C([H])([H])c4c([H])c([H])c([H])c([H])c4[H])oc4c([H])c([H])c([H])c([H])c34)c([H])c2[H])c([H])c1Br)C([H])([H])c1c([H])c([H])c([H])c([H])c1[H]


 43 48  0  0  0  0  0  0  0  0999 V2000
    2.8949    3.0881   13.9010 C   0  0  0  0  0  0  0  0  0  0  0  0
    1.7983    2.2496   13.9496 C   0  0  0  0  0  0  0  0  0  0  0  0
    1.2339    1.8461   12.7673 C   0  0  0  0  0  0  0  0  0  0  0  0
    1.6771    2.2133   11.5195 C   0  0  0  0  0  0  0  0  0  0  0  0
    2.7936    3.0645   11.5143 C   0  0  0  0  0  0  0  0  0  0  0  0
    3.3764    3.4829   12.6751 C   0  0  0  0  0  0  0  0  0  0  0  0
    1.0673    1.8153   10.2653 C   0  0  0  0  0  0  0  0  0  0  0  0
   -0.0048    2.2937    9.6064 C   0  0  0  0  0  0  0  0  0  0  0  0
   -0.1969    1.5666    8.5031 O   0  0  0  0  0  0  0  0  0  0  0  0
    0.7031    0.6237    8.3977 C   0  0  0  0  0  0  0  0  0  0  0  0
    0.9293   -0.3622    7.4626 C   0  0  0  0  0  0  0  0  0  0  0  0
    1.9766   -1.2489    7.5946 C   0  0  0  0  0  0  0  0  0  0  0  0
    2.7919   -1.1132    8.6982 C   0  0  0  0  0  0  0  0  0  0  0  0
    2.5720   -0.1205    9.6496 C   0  0  0  0  0  0  0  0  0  0  0  0
    1.5324    0.7334    9.4878 C   0  0  0  0  0  0  0  0  0  0  0  0
   -0.9003    3.4240    9.9301 C   0  0  0  0  0  0  0  0  0  0  0  0
   -0.1282    4.6309   10.2816 C   0  0  0  0  0  0  0  0  0  0  0  0
    0.7037    5.3202    9.4553 C   0  0  0  0  0  0  0  0  0  0  0  0
    1.3959    6.4625    9.8883 C   0  0  0  0  0  0  0  0  0  0  0  0
    1.2551    6.9257   11.1731 C   0  0  0  0  0  0  0  0  0  0  0  0
    0.4178    6.2430   12.0269 C   0  0  0  0  0  0  0  0  0  0  0  0
   -0.2588    5.1207   11.5890 C   0  0  0  0  0  0  0  0  0  0  0  0
    4.8607    4.5857   17.4159 C   0  0  0  0  0  0  0  0  0  0  0  0
    4.4469    3.2500   17.3229 C   0  0  0  0  0  0  0  0  0  0  0  0
    4.7978    2.0986   18.7943 Br  0  0  0  0  0  0  0  0  0  0  0  0
    3.8138    2.7726   16.1923 C   0  0  0  0  0  0  0  0  0  0  0  0
    3.5583    3.5744   15.1052 C   0  0  0  0  0  0  0  0  0  0  0  0
    3.9631    4.8983   15.1848 C   0  0  0  0  0  0  0  0  0  0  0  0
    4.6030    5.3788   16.3355 C   0  0  0  0  0  0  0  0  0  0  0  0
    5.0132    7.2633   16.3294 Br  0  0  0  0  0  0  0  0  0  0  0  0
    5.4830    5.0670   18.5368 O   0  0  0  0  0  0  0  0  0  0  0  0
    4.8976    5.2891   19.8122 C   0  0  0  0  0  0  0  0  0  0  0  0
    5.0353    7.7029   20.0235 O   0  0  0  0  0  0  0  0  0  0  0  0
    4.3589    6.6665   19.7738 C   0  0  0  0  0  0  0  0  0  0  0  0
    3.0297    6.9025   19.4439 O   0  0  0  0  0  0  0  0  0  0  0  0
    2.2343    6.6764   19.9821 H   0  0  0  0  0  0  0  0  0  0  0  0
    5.8986    5.1488   20.9470 C   0  0  0  0  0  0  0  0  0  0  0  0
    5.5095    4.1663   21.9756 C   0  0  0  0  0  0  0  0  0  0  0  0
    4.3625    4.4157   22.7535 C   0  0  0  0  0  0  0  0  0  0  0  0
    3.9805    3.4788   23.6937 C   0  0  0  0  0  0  0  0  0  0  0  0
    4.6891    2.3064   23.8939 C   0  0  0  0  0  0  0  0  0  0  0  0
    5.8081    2.1062   23.1061 C   0  0  0  0  0  0  0  0  0  0  0  0
    6.2221    3.0111   22.1601 C   0  0  0  0  0  0  0  0  0  0  0  0
 33 34  2  0  0  0
 34 35  1  0  0  0
 34 32  1  0  0  0
 32 37  1  0  0  0
 37 38  1  0  0  0
 38 39  2  0  0  0
 39 40  1  0  0  0
 40 41  2  0  0  0
 41 42  1  0  0  0
 42 43  2  0  0  0
 32 31  1  0  0  0
 31 23  1  0  0  0
 23 24  2  0  0  0
 24 25  1  0  0  0
 24 26  1  0  0  0
 26 27  2  0  0  0
 27  1  1  0  0  0
  1  2  2  0  0  0
  2  3  1  0  0  0
  3  4  2  0  0  0
  4  7  1  0  0  0
  7  8  2  0  0  0
  8 16  1  0  0  0
 16 17  1  0  0  0
 17 18  2  0  0  0
 18 19  1  0  0  0
 19 20  2  0  0  0
 20 21  1  0  0  0
 21 22  2  0  0  0
  8  9  1  0  0  0
  9 10  1  0  0  0
 10 11  2  0  0  0
 11 12  1  0  0  0
 12 13  2  0  0  0
 13 14  1  0  0  0
 14 15  2  0  0  0
  4  5  1  0  0  0
  5  6  2  0  0  0
 27 28  1  0  0  0
 28 29  2  0  0  0
 29 30  1  0  0  0
 43 38  1  0  0  0
 29 23  1  0  0  0
  6  1  1  0  0  0
 15  7  1  0  0  0
 22 17  1  0  0  0
 15 10  1  0  0  0
 35 36  1  0  0  0
M  END
> <minimizedAffinity>
-8.48690

> <CNNscore>
0.0789351240

> <CNNaffinity>
6.2801256180

> <CNN_VS>
0.4957225025

> <CNNaffinity_variance>
0.4082117081

$$$$
[H]OC(=O)[C@@]([H])(Oc1c(Br)c([H])c(-c2c([H])c([H])c(-c3c(C([H])([H])c4c([H])c([H])c([H])c([H])c4[H])oc4c([H])c([H])c([H])c([H])c34)c([H])c2[H])c([H])c1Br)C([H])([H])c1c([H])c([H])c([H])c([H])c1[H]


 43 48  0  0  0  0  0  0  0  0999 V2000
    3.6397    6.6282   17.7661 C   0  0  0  0  0  0  0  0  0  0  0  0
    4.0020    7.0934   16.5170 C   0  0  0  0  0  0  0  0  0  0  0  0
    3.4382    6.5060   15.4142 C   0  0  0  0  0  0  0  0  0  0  0  0
    2.5284    5.4767   15.4511 C   0  0  0  0  0  0  0  0  0  0  0  0
    2.1865    5.0343   16.7389 C   0  0  0  0  0  0  0  0  0  0  0  0
    2.7315    5.5996   17.8549 C   0  0  0  0  0  0  0  0  0  0  0  0
    1.9508    4.8298   14.2887 C   0  0  0  0  0  0  0  0  0  0  0  0
    2.3426    3.7515   13.5845 C   0  0  0  0  0  0  0  0  0  0  0  0
    1.4980    3.5666   12.5670 O   0  0  0  0  0  0  0  0  0  0  0  0
    0.5582    4.4759   12.5636 C   0  0  0  0  0  0  0  0  0  0  0  0
   -0.5215    4.7115   11.7413 C   0  0  0  0  0  0  0  0  0  0  0  0
   -1.3786    5.7672   11.9681 C   0  0  0  0  0  0  0  0  0  0  0  0
   -1.1165    6.5804   13.0502 C   0  0  0  0  0  0  0  0  0  0  0  0
   -0.0277    6.3515   13.8876 C   0  0  0  0  0  0  0  0  0  0  0  0
    0.7942    5.3044   13.6341 C   0  0  0  0  0  0  0  0  0  0  0  0
    3.4843    2.8364   13.7928 C   0  0  0  0  0  0  0  0  0  0  0  0
    3.3921    2.1596   15.1004 C   0  0  0  0  0  0  0  0  0  0  0  0
    2.5056    1.1852   15.4388 C   0  0  0  0  0  0  0  0  0  0  0  0
    2.5001    0.6019   16.7161 C   0  0  0  0  0  0  0  0  0  0  0  0
    3.3979    1.0005   17.6754 C   0  0  0  0  0  0  0  0  0  0  0  0
    4.3046    1.9858   17.3543 C   0  0  0  0  0  0  0  0  0  0  0  0
    4.3009    2.5515   16.0937 C   0  0  0  0  0  0  0  0  0  0  0  0
    5.2508    8.2076   21.4227 C   0  0  0  0  0  0  0  0  0  0  0  0
    5.0671    9.0184   20.2946 C   0  0  0  0  0  0  0  0  0  0  0  0
    5.5320   10.8570   20.4270 Br  0  0  0  0  0  0  0  0  0  0  0  0
    4.5507    8.5069   19.1204 C   0  0  0  0  0  0  0  0  0  0  0  0
    4.1905    7.1861   18.9957 C   0  0  0  0  0  0  0  0  0  0  0  0
    4.3673    6.3734   20.1053 C   0  0  0  0  0  0  0  0  0  0  0  0
    4.8942    6.8966   21.2940 C   0  0  0  0  0  0  0  0  0  0  0  0
    5.1708    5.6178   22.7109 Br  0  0  0  0  0  0  0  0  0  0  0  0
    5.7688    8.7072   22.5879 O   0  0  0  0  0  0  0  0  0  0  0  0
    7.0277    8.3954   23.1681 C   0  0  0  0  0  0  0  0  0  0  0  0
    7.7396   10.3582   24.4053 O   0  0  0  0  0  0  0  0  0  0  0  0
    7.1387    9.2483   24.3718 C   0  0  0  0  0  0  0  0  0  0  0  0
    6.5617    8.8604   25.5752 O   0  0  0  0  0  0  0  0  0  0  0  0
    6.8440    8.1153   26.1570 H   0  0  0  0  0  0  0  0  0  0  0  0
    8.1884    8.6653   22.2250 C   0  0  0  0  0  0  0  0  0  0  0  0
    9.1402    7.5452   22.1051 C   0  0  0  0  0  0  0  0  0  0  0  0
    9.2287    6.6137   23.1573 C   0  0  0  0  0  0  0  0  0  0  0  0
   10.0965    5.5468   23.0293 C   0  0  0  0  0  0  0  0  0  0  0  0
   10.8794    5.3667   21.9016 C   0  0  0  0  0  0  0  0  0  0  0  0
   10.7574    6.3075   20.8952 C   0  0  0  0  0  0  0  0  0  0  0  0
    9.9070    7.3820   20.9819 C   0  0  0  0  0  0  0  0  0  0  0  0
 33 34  2  0  0  0
 34 35  1  0  0  0
 34 32  1  0  0  0
 32 37  1  0  0  0
 37 38  1  0  0  0
 38 39  2  0  0  0
 39 40  1  0  0  0
 40 41  2  0  0  0
 41 42  1  0  0  0
 42 43  2  0  0  0
 32 31  1  0  0  0
 31 23  1  0  0  0
 23 24  2  0  0  0
 24 25  1  0  0  0
 24 26  1  0  0  0
 26 27  2  0  0  0
 27  1  1  0  0  0
  1  2  2  0  0  0
  2  3  1  0  0  0
  3  4  2  0  0  0
  4  7  1  0  0  0
  7  8  2  0  0  0
  8 16  1  0  0  0
 16 17  1  0  0  0
 17 18  2  0  0  0
 18 19  1  0  0  0
 19 20  2  0  0  0
 20 21  1  0  0  0
 21 22  2  0  0  0
  8  9  1  0  0  0
  9 10  1  0  0  0
 10 11  2  0  0  0
 11 12  1  0  0  0
 12 13  2  0  0  0
 13 14  1  0  0  0
 14 15  2  0  0  0
  4  5  1  0  0  0
  5  6  2  0  0  0
 27 28  1  0  0  0
 28 29  2  0  0  0
 29 30  1  0  0  0
 43 38  1  0  0  0
 29 23  1  0  0  0
  6  1  1  0  0  0
 15  7  1  0  0  0
 22 17  1  0  0  0
 15 10  1  0  0  0
 35 36  1  0  0  0
M  END
> <minimizedAffinity>
-10.43255

> <CNNscore>
0.0666153580

> <CNNaffinity>
6.3811941147

> <CNN_VS>
0.4250855446

> <CNNaffinity_variance>
0.3434031606

$$$$
[H]OC(=O)[C@@]([H])(Oc1c(Br)c([H])c(-c2c([H])c([H])c(-c3c(C([H])([H])c4c([H])c([H])c([H])c([H])c4[H])oc4c([H])c([H])c([H])c([H])c34)c([H])c2[H])c([H])c1Br)C([H])([H])c1c([H])c([H])c([H])c([H])c1[H]


 43 48  0  0  0  0  0  0  0  0999 V2000
    3.3825    3.0339   15.0037 C   0  0  0  0  0  0  0  0  0  0  0  0
    2.3386    2.1407   14.8608 C   0  0  0  0  0  0  0  0  0  0  0  0
    1.7996    1.9627   13.6130 C   0  0  0  0  0  0  0  0  0  0  0  0
    2.2198    2.6102   12.4761 C   0  0  0  0  0  0  0  0  0  0  0  0
    3.2828    3.5079   12.6643 C   0  0  0  0  0  0  0  0  0  0  0  0
    3.8392    3.7059   13.8945 C   0  0  0  0  0  0  0  0  0  0  0  0
    1.6351    2.4503   11.1586 C   0  0  0  0  0  0  0  0  0  0  0  0
    0.5392    2.9970   10.5996 C   0  0  0  0  0  0  0  0  0  0  0  0
    0.3897    2.5066    9.3666 O   0  0  0  0  0  0  0  0  0  0  0  0
    1.3407    1.6564    9.0793 C   0  0  0  0  0  0  0  0  0  0  0  0
    1.6229    0.9008    7.9626 C   0  0  0  0  0  0  0  0  0  0  0  0
    2.7176    0.0639    7.9210 C   0  0  0  0  0  0  0  0  0  0  0  0
    3.5222    0.0102    9.0393 C   0  0  0  0  0  0  0  0  0  0  0  0
    3.2460    0.7694   10.1735 C   0  0  0  0  0  0  0  0  0  0  0  0
    2.1609    1.5810   10.1792 C   0  0  0  0  0  0  0  0  0  0  0  0
   -0.4181    3.9850   11.1395 C   0  0  0  0  0  0  0  0  0  0  0  0
    0.2832    5.1633   11.6837 C   0  0  0  0  0  0  0  0  0  0  0  0
    1.0519    6.0361   10.9785 C   0  0  0  0  0  0  0  0  0  0  0  0
    1.6793    7.1318   11.5927 C   0  0  0  0  0  0  0  0  0  0  0  0
    1.5368    7.3602   12.9390 C   0  0  0  0  0  0  0  0  0  0  0  0
    0.7629    6.4890   13.6725 C   0  0  0  0  0  0  0  0  0  0  0  0
    0.1497    5.4148   13.0567 C   0  0  0  0  0  0  0  0  0  0  0  0
    5.2054    3.7466   18.8286 C   0  0  0  0  0  0  0  0  0  0  0  0
    5.4913    4.5555   17.7206 C   0  0  0  0  0  0  0  0  0  0  0  0
    6.7006    6.0033   17.9561 Br  0  0  0  0  0  0  0  0  0  0  0  0
    4.9049    4.3223   16.4923 C   0  0  0  0  0  0  0  0  0  0  0  0
    4.0153    3.2937   16.2916 C   0  0  0  0  0  0  0  0  0  0  0  0
    3.7239    2.4861   17.3806 C   0  0  0  0  0  0  0  0  0  0  0  0
    4.3236    2.7251   18.6246 C   0  0  0  0  0  0  0  0  0  0  0  0
    3.8915    1.4551   20.0102 Br  0  0  0  0  0  0  0  0  0  0  0  0
    5.7887    3.9684   20.0477 O   0  0  0  0  0  0  0  0  0  0  0  0
    5.4973    5.0201   20.9574 C   0  0  0  0  0  0  0  0  0  0  0  0
    5.8602    3.2351   22.5613 O   0  0  0  0  0  0  0  0  0  0  0  0
    5.4207    4.3878   22.2928 C   0  0  0  0  0  0  0  0  0  0  0  0
    4.8423    5.0564   23.3652 O   0  0  0  0  0  0  0  0  0  0  0  0
    3.8875    5.2736   23.4853 H   0  0  0  0  0  0  0  0  0  0  0  0
    4.1906    5.7258   20.6353 C   0  0  0  0  0  0  0  0  0  0  0  0
    4.3362    7.1674   20.3605 C   0  0  0  0  0  0  0  0  0  0  0  0
    3.7694    7.6952   19.1845 C   0  0  0  0  0  0  0  0  0  0  0  0
    3.8780    9.0511   18.9448 C   0  0  0  0  0  0  0  0  0  0  0  0
    4.5253    9.9037   19.8228 C   0  0  0  0  0  0  0  0  0  0  0  0
    5.0656    9.3388   20.9639 C   0  0  0  0  0  0  0  0  0  0  0  0
    4.9798    7.9967   21.2404 C   0  0  0  0  0  0  0  0  0  0  0  0
 33 34  2  0  0  0
 34 35  1  0  0  0
 34 32  1  0  0  0
 32 37  1  0  0  0
 37 38  1  0  0  0
 38 39  2  0  0  0
 39 40  1  0  0  0
 40 41  2  0  0  0
 41 42  1  0  0  0
 42 43  2  0  0  0
 32 31  1  0  0  0
 31 23  1  0  0  0
 23 24  2  0  0  0
 24 25  1  0  0  0
 24 26  1  0  0  0
 26 27  2  0  0  0
 27  1  1  0  0  0
  1  2  2  0  0  0
  2  3  1  0  0  0
  3  4  2  0  0  0
  4  7  1  0  0  0
  7  8  2  0  0  0
  8 16  1  0  0  0
 16 17  1  0  0  0
 17 18  2  0  0  0
 18 19  1  0  0  0
 19 20  2  0  0  0
 20 21  1  0  0  0
 21 22  2  0  0  0
  8  9  1  0  0  0
  9 10  1  0  0  0
 10 11  2  0  0  0
 11 12  1  0  0  0
 12 13  2  0  0  0
 13 14  1  0  0  0
 14 15  2  0  0  0
  4  5  1  0  0  0
  5  6  2  0  0  0
 27 28  1  0  0  0
 28 29  2  0  0  0
 29 30  1  0  0  0
 43 38  1  0  0  0
 29 23  1  0  0  0
  6  1  1  0  0  0
 15  7  1  0  0  0
 22 17  1  0  0  0
 15 10  1  0  0  0
 35 36  1  0  0  0
M  END
> <minimizedAffinity>
-9.37941

> <CNNscore>
0.0642969459

> <CNNaffinity>
6.2408723831

> <CNN_VS>
0.4012690485

> <CNNaffinity_variance>
0.6099808812

$$$$
[H]OC(=O)[C@@]([H])(Oc1c(Br)c([H])c(-c2c([H])c([H])c(-c3c(C([H])([H])c4c([H])c([H])c([H])c([H])c4[H])oc4c([H])c([H])c([H])c([H])c34)c([H])c2[H])c([H])c1Br)C([H])([H])c1c([H])c([H])c([H])c([H])c1[H]


 43 48  0  0  0  0  0  0  0  0999 V2000
    3.6832    4.9633   15.9642 C   0  0  0  0  0  0  0  0  0  0  0  0
    4.8725    4.4154   16.4039 C   0  0  0  0  0  0  0  0  0  0  0  0
    4.9961    4.1089   17.7343 C   0  0  0  0  0  0  0  0  0  0  0  0
    4.0184    4.3053   18.6798 C   0  0  0  0  0  0  0  0  0  0  0  0
    2.8258    4.8626   18.1917 C   0  0  0  0  0  0  0  0  0  0  0  0
    2.6739    5.1782   16.8728 C   0  0  0  0  0  0  0  0  0  0  0  0
    4.1523    4.0121   20.0938 C   0  0  0  0  0  0  0  0  0  0  0  0
    4.3688    4.8155   21.1521 C   0  0  0  0  0  0  0  0  0  0  0  0
    4.4546    4.0678   22.2550 O   0  0  0  0  0  0  0  0  0  0  0  0
    4.3030    2.7990   21.9770 C   0  0  0  0  0  0  0  0  0  0  0  0
    4.3078    1.6584   22.7492 C   0  0  0  0  0  0  0  0  0  0  0  0
    4.1190    0.4127   22.1896 C   0  0  0  0  0  0  0  0  0  0  0  0
    3.9242    0.3490   20.8262 C   0  0  0  0  0  0  0  0  0  0  0  0
    3.9179    1.4956   20.0361 C   0  0  0  0  0  0  0  0  0  0  0  0
    4.1073    2.7036   20.6202 C   0  0  0  0  0  0  0  0  0  0  0  0
    4.5027    6.2855   21.2252 C   0  0  0  0  0  0  0  0  0  0  0  0
    5.3115    6.8026   20.1050 C   0  0  0  0  0  0  0  0  0  0  0  0
    4.8681    7.5998   19.0962 C   0  0  0  0  0  0  0  0  0  0  0  0
    5.7220    8.0404   18.0724 C   0  0  0  0  0  0  0  0  0  0  0  0
    7.0458    7.6768   18.0552 C   0  0  0  0  0  0  0  0  0  0  0  0
    7.5163    6.8699   19.0669 C   0  0  0  0  0  0  0  0  0  0  0  0
    6.6664    6.4435   20.0696 C   0  0  0  0  0  0  0  0  0  0  0  0
    3.0610    5.9723   11.8343 C   0  0  0  0  0  0  0  0  0  0  0  0
    2.7465    6.8718   12.8618 C   0  0  0  0  0  0  0  0  0  0  0  0
    2.0508    8.5743   12.3809 Br  0  0  0  0  0  0  0  0  0  0  0  0
    2.9462    6.5434   14.1882 C   0  0  0  0  0  0  0  0  0  0  0  0
    3.4612    5.3272   14.5695 C   0  0  0  0  0  0  0  0  0  0  0  0
    3.7767    4.4283   13.5619 C   0  0  0  0  0  0  0  0  0  0  0  0
    3.5698    4.7652   12.2172 C   0  0  0  0  0  0  0  0  0  0  0  0
    3.9649    3.3717   10.9439 Br  0  0  0  0  0  0  0  0  0  0  0  0
    2.8591    6.2893   10.5174 O   0  0  0  0  0  0  0  0  0  0  0  0
    3.8196    6.7981    9.6024 C   0  0  0  0  0  0  0  0  0  0  0  0
    5.3020    7.9756   11.1210 O   0  0  0  0  0  0  0  0  0  0  0  0
    5.0631    6.9793   10.3832 C   0  0  0  0  0  0  0  0  0  0  0  0
    6.0717    6.0238   10.3481 O   0  0  0  0  0  0  0  0  0  0  0  0
    6.6593    5.8073    9.5858 H   0  0  0  0  0  0  0  0  0  0  0  0
    3.3931    8.1179    8.9814 C   0  0  0  0  0  0  0  0  0  0  0  0
    4.1360    8.4766    7.7590 C   0  0  0  0  0  0  0  0  0  0  0  0
    4.9268    9.6418    7.7623 C   0  0  0  0  0  0  0  0  0  0  0  0
    5.6480    9.9586    6.6277 C   0  0  0  0  0  0  0  0  0  0  0  0
    5.6166    9.1682    5.4915 C   0  0  0  0  0  0  0  0  0  0  0  0
    4.8257    8.0344    5.5365 C   0  0  0  0  0  0  0  0  0  0  0  0
    4.0937    7.6828    6.6436 C   0  0  0  0  0  0  0  0  0  0  0  0
 33 34  2  0  0  0
 34 35  1  0  0  0
 34 32  1  0  0  0
 32 37  1  0  0  0
 37 38  1  0  0  0
 38 39  2  0  0  0
 39 40  1  0  0  0
 40 41  2  0  0  0
 41 42  1  0  0  0
 42 43  2  0  0  0
 32 31  1  0  0  0
 31 23  1  0  0  0
 23 24  2  0  0  0
 24 25  1  0  0  0
 24 26  1  0  0  0
 26 27  2  0  0  0
 27  1  1  0  0  0
  1  2  2  0  0  0
  2  3  1  0  0  0
  3  4  2  0  0  0
  4  7  1  0  0  0
  7  8  2  0  0  0
  8 16  1  0  0  0
 16 17  1  0  0  0
 17 18  2  0  0  0
 18 19  1  0  0  0
 19 20  2  0  0  0
 20 21  1  0  0  0
 21 22  2  0  0  0
  8  9  1  0  0  0
  9 10  1  0  0  0
 10 11  2  0  0  0
 11 12  1  0  0  0
 12 13  2  0  0  0
 13 14  1  0  0  0
 14 15  2  0  0  0
  4  5  1  0  0  0
  5  6  2  0  0  0
 27 28  1  0  0  0
 28 29  2  0  0  0
 29 30  1  0  0  0
 43 38  1  0  0  0
 29 23  1  0  0  0
  6  1  1  0  0  0
 15  7  1  0  0  0
 22 17  1  0  0  0
 15 10  1  0  0  0
 35 36  1  0  0  0
M  END
> <minimizedAffinity>
-8.51703

> <CNNscore>
0.0640729517

> <CNNaffinity>
6.1372556686

> <CNN_VS>
0.3932320774

> <CNNaffinity_variance>
0.4169545770

$$$$
[H]OC(=O)[C@@]([H])(Oc1c(Br)c([H])c(-c2c([H])c([H])c(-c3c(C([H])([H])c4c([H])c([H])c([H])c([H])c4[H])oc4c([H])c([H])c([H])c([H])c34)c([H])c2[H])c([H])c1Br)C([H])([H])c1c([H])c([H])c([H])c([H])c1[H]


 43 48  0  0  0  0  0  0  0  0999 V2000
    2.7553    6.1287   14.7688 C   0  0  0  0  0  0  0  0  0  0  0  0
    2.6590    5.0089   13.9659 C   0  0  0  0  0  0  0  0  0  0  0  0
    1.8899    5.0832   12.8337 C   0  0  0  0  0  0  0  0  0  0  0  0
    1.1967    6.1977   12.4265 C   0  0  0  0  0  0  0  0  0  0  0  0
    1.3219    7.3137   13.2692 C   0  0  0  0  0  0  0  0  0  0  0  0
    2.0802    7.2693   14.4029 C   0  0  0  0  0  0  0  0  0  0  0  0
    0.3568    6.2749   11.2468 C   0  0  0  0  0  0  0  0  0  0  0  0
   -0.9645    6.0770   11.0812 C   0  0  0  0  0  0  0  0  0  0  0  0
   -1.2679    6.2272    9.7896 O   0  0  0  0  0  0  0  0  0  0  0  0
   -0.2044    6.5183    9.0866 C   0  0  0  0  0  0  0  0  0  0  0  0
    0.0010    6.7631    7.7467 C   0  0  0  0  0  0  0  0  0  0  0  0
    1.2557    7.0541    7.2551 C   0  0  0  0  0  0  0  0  0  0  0  0
    2.3000    7.0921    8.1545 C   0  0  0  0  0  0  0  0  0  0  0  0
    2.1036    6.8459    9.5109 C   0  0  0  0  0  0  0  0  0  0  0  0
    0.8565    6.5625    9.9588 C   0  0  0  0  0  0  0  0  0  0  0  0
   -2.0139    5.7511   12.0695 C   0  0  0  0  0  0  0  0  0  0  0  0
   -3.1871    5.1387   11.4176 C   0  0  0  0  0  0  0  0  0  0  0  0
   -3.2463    3.8902   10.8812 C   0  0  0  0  0  0  0  0  0  0  0  0
   -4.4163    3.3984   10.2806 C   0  0  0  0  0  0  0  0  0  0  0  0
   -5.5504    4.1694   10.2137 C   0  0  0  0  0  0  0  0  0  0  0  0
   -5.5129    5.4368   10.7506 C   0  0  0  0  0  0  0  0  0  0  0  0
   -4.3559    5.9094   11.3398 C   0  0  0  0  0  0  0  0  0  0  0  0
    5.1141    6.2326   18.3586 C   0  0  0  0  0  0  0  0  0  0  0  0
    4.2502    5.1643   18.0823 C   0  0  0  0  0  0  0  0  0  0  0  0
    4.1607    3.7372   19.3349 Br  0  0  0  0  0  0  0  0  0  0  0  0
    3.4923    5.1352   16.9283 C   0  0  0  0  0  0  0  0  0  0  0  0
    3.5444    6.1432   15.9951 C   0  0  0  0  0  0  0  0  0  0  0  0
    4.3957    7.2060   16.2568 C   0  0  0  0  0  0  0  0  0  0  0  0
    5.1611    7.2324   17.4307 C   0  0  0  0  0  0  0  0  0  0  0  0
    6.2182    8.8237   17.6948 Br  0  0  0  0  0  0  0  0  0  0  0  0
    5.8633    6.2708   19.5043 O   0  0  0  0  0  0  0  0  0  0  0  0
    5.3974    6.5152   20.8241 C   0  0  0  0  0  0  0  0  0  0  0  0
    6.3744    8.6734   21.3511 O   0  0  0  0  0  0  0  0  0  0  0  0
    5.3823    7.9864   20.9799 C   0  0  0  0  0  0  0  0  0  0  0  0
    4.2324    8.7193   20.7116 O   0  0  0  0  0  0  0  0  0  0  0  0
    3.3937    8.7210   21.2312 H   0  0  0  0  0  0  0  0  0  0  0  0
    6.2859    5.8845   21.8834 C   0  0  0  0  0  0  0  0  0  0  0  0
    5.7445    4.6403   22.4610 C   0  0  0  0  0  0  0  0  0  0  0  0
    4.5319    4.6944   23.1748 C   0  0  0  0  0  0  0  0  0  0  0  0
    4.0091    3.5229   23.6868 C   0  0  0  0  0  0  0  0  0  0  0  0
    4.6396    2.3016   23.5201 C   0  0  0  0  0  0  0  0  0  0  0  0
    5.8276    2.2991   22.8120 C   0  0  0  0  0  0  0  0  0  0  0  0
    6.3813    3.4402   22.2862 C   0  0  0  0  0  0  0  0  0  0  0  0
 33 34  2  0  0  0
 34 35  1  0  0  0
 34 32  1  0  0  0
 32 37  1  0  0  0
 37 38  1  0  0  0
 38 39  2  0  0  0
 39 40  1  0  0  0
 40 41  2  0  0  0
 41 42  1  0  0  0
 42 43  2  0  0  0
 32 31  1  0  0  0
 31 23  1  0  0  0
 23 24  2  0  0  0
 24 25  1  0  0  0
 24 26  1  0  0  0
 26 27  2  0  0  0
 27  1  1  0  0  0
  1  2  2  0  0  0
  2  3  1  0  0  0
  3  4  2  0  0  0
  4  7  1  0  0  0
  7  8  2  0  0  0
  8 16  1  0  0  0
 16 17  1  0  0  0
 17 18  2  0  0  0
 18 19  1  0  0  0
 19 20  2  0  0  0
 20 21  1  0  0  0
 21 22  2  0  0  0
  8  9  1  0  0  0
  9 10  1  0  0  0
 10 11  2  0  0  0
 11 12  1  0  0  0
 12 13  2  0  0  0
 13 14  1  0  0  0
 14 15  2  0  0  0
  4  5  1  0  0  0
  5  6  2  0  0  0
 27 28  1  0  0  0
 28 29  2  0  0  0
 29 30  1  0  0  0
 43 38  1  0  0  0
 29 23  1  0  0  0
  6  1  1  0  0  0
 15  7  1  0  0  0
 22 17  1  0  0  0
 15 10  1  0  0  0
 35 36  1  0  0  0
M  END
> <minimizedAffinity>
-8.78406

> <CNNscore>
0.0621331818

> <CNNaffinity>
5.9966993332

> <CNN_VS>
0.3725939989

> <CNNaffinity_variance>
0.3972876370

$$$$
[H]OC(=O)[C@@]([H])(Oc1c(Br)c([H])c(-c2c([H])c([H])c(-c3c(C([H])([H])c4c([H])c([H])c([H])c([H])c4[H])oc4c([H])c([H])c([H])c([H])c34)c([H])c2[H])c([H])c1Br)C([H])([H])c1c([H])c([H])c([H])c([H])c1[H]


 43 48  0  0  0  0  0  0  0  0999 V2000
    1.9158    6.1921   14.3079 C   0  0  0  0  0  0  0  0  0  0  0  0
    1.3740    7.3211   13.7250 C   0  0  0  0  0  0  0  0  0  0  0  0
    0.4971    7.1597   12.6838 C   0  0  0  0  0  0  0  0  0  0  0  0
    0.1074    5.9481   12.1655 C   0  0  0  0  0  0  0  0  0  0  0  0
    0.6798    4.8265   12.7865 C   0  0  0  0  0  0  0  0  0  0  0  0
    1.5558    4.9562   13.8247 C   0  0  0  0  0  0  0  0  0  0  0  0
   -0.7959    5.7700   11.0449 C   0  0  0  0  0  0  0  0  0  0  0  0
   -0.5592    5.5642    9.7357 C   0  0  0  0  0  0  0  0  0  0  0  0
   -1.7251    5.5005    9.0881 O   0  0  0  0  0  0  0  0  0  0  0  0
   -2.7300    5.6540    9.9108 C   0  0  0  0  0  0  0  0  0  0  0  0
   -4.0963    5.6673    9.7365 C   0  0  0  0  0  0  0  0  0  0  0  0
   -4.9531    5.8525   10.8006 C   0  0  0  0  0  0  0  0  0  0  0  0
   -4.3924    6.0238   12.0485 C   0  0  0  0  0  0  0  0  0  0  0  0
   -3.0126    6.0124   12.2358 C   0  0  0  0  0  0  0  0  0  0  0  0
   -2.2006    5.8283   11.1667 C   0  0  0  0  0  0  0  0  0  0  0  0
    0.7175    5.4098    9.0075 C   0  0  0  0  0  0  0  0  0  0  0  0
    1.2530    6.7191    8.5887 C   0  0  0  0  0  0  0  0  0  0  0  0
    0.8771    7.4251    7.4886 C   0  0  0  0  0  0  0  0  0  0  0  0
    1.4503    8.6683    7.1767 C   0  0  0  0  0  0  0  0  0  0  0  0
    2.4193    9.2176    7.9794 C   0  0  0  0  0  0  0  0  0  0  0  0
    2.8151    8.5199    9.0986 C   0  0  0  0  0  0  0  0  0  0  0  0
    2.2430    7.2977    9.3957 C   0  0  0  0  0  0  0  0  0  0  0  0
    4.6731    6.3421   17.5998 C   0  0  0  0  0  0  0  0  0  0  0  0
    4.5909    7.3848   16.6671 C   0  0  0  0  0  0  0  0  0  0  0  0
    5.7242    8.8923   16.9059 Br  0  0  0  0  0  0  0  0  0  0  0  0
    3.7048    7.3323   15.6093 C   0  0  0  0  0  0  0  0  0  0  0  0
    2.8612    6.2642   15.4160 C   0  0  0  0  0  0  0  0  0  0  0  0
    2.9327    5.2260   16.3324 C   0  0  0  0  0  0  0  0  0  0  0  0
    3.8356    5.2826   17.4029 C   0  0  0  0  0  0  0  0  0  0  0  0
    3.8832    3.7184   18.5301 Br  0  0  0  0  0  0  0  0  0  0  0  0
    5.5544    6.3849   18.6471 O   0  0  0  0  0  0  0  0  0  0  0  0
    5.2383    6.4950   20.0279 C   0  0  0  0  0  0  0  0  0  0  0  0
    6.3012    8.6131   20.5510 O   0  0  0  0  0  0  0  0  0  0  0  0
    5.2541    7.9430   20.3306 C   0  0  0  0  0  0  0  0  0  0  0  0
    4.0721    8.6719   20.3864 O   0  0  0  0  0  0  0  0  0  0  0  0
    3.3631    8.6035   21.0690 H   0  0  0  0  0  0  0  0  0  0  0  0
    6.2317    5.7628   20.9148 C   0  0  0  0  0  0  0  0  0  0  0  0
    5.6126    4.8050   21.8498 C   0  0  0  0  0  0  0  0  0  0  0  0
    6.2825    3.5980   22.1280 C   0  0  0  0  0  0  0  0  0  0  0  0
    5.7177    2.7168   23.0292 C   0  0  0  0  0  0  0  0  0  0  0  0
    4.5168    2.9834   23.6646 C   0  0  0  0  0  0  0  0  0  0  0  0
    3.8966    4.1813   23.3590 C   0  0  0  0  0  0  0  0  0  0  0  0
    4.4238    5.0850   22.4699 C   0  0  0  0  0  0  0  0  0  0  0  0
 33 34  2  0  0  0
 34 35  1  0  0  0
 34 32  1  0  0  0
 32 37  1  0  0  0
 37 38  1  0  0  0
 38 39  2  0  0  0
 39 40  1  0  0  0
 40 41  2  0  0  0
 41 42  1  0  0  0
 42 43  2  0  0  0
 32 31  1  0  0  0
 31 23  1  0  0  0
 23 24  2  0  0  0
 24 25  1  0  0  0
 24 26  1  0  0  0
 26 27  2  0  0  0
 27  1  1  0  0  0
  1  2  2  0  0  0
  2  3  1  0  0  0
  3  4  2  0  0  0
  4  7  1  0  0  0
  7  8  2  0  0  0
  8 16  1  0  0  0
 16 17  1  0  0  0
 17 18  2  0  0  0
 18 19  1  0  0  0
 19 20  2  0  0  0
 20 21  1  0  0  0
 21 22  2  0  0  0
  8  9  1  0  0  0
  9 10  1  0  0  0
 10 11  2  0  0  0
 11 12  1  0  0  0
 12 13  2  0  0  0
 13 14  1  0  0  0
 14 15  2  0  0  0
  4  5  1  0  0  0
  5  6  2  0  0  0
 27 28  1  0  0  0
 28 29  2  0  0  0
 29 30  1  0  0  0
 43 38  1  0  0  0
 29 23  1  0  0  0
  6  1  1  0  0  0
 15  7  1  0  0  0
 22 17  1  0  0  0
 15 10  1  0  0  0
 35 36  1  0  0  0
M  END
> <minimizedAffinity>
-8.87840

> <CNNscore>
0.0567298457

> <CNNaffinity>
5.9831137657

> <CNN_VS>
0.3394211233

> <CNNaffinity_variance>
0.4177036881

$$$$
[H]c1c(F)c(C(=O)N([H])S(=O)(=O)C2([H])C([H])([H])C2([H])[H])c([H])c(C2([H])C([H])([H])C2([H])[H])c1OC([H])([H])C1([H])C([H])([H])C([H])([H])C([H])(C(F)(F)F)C([H])([H])C1([H])[H]


 32 35  0  0  0  0  0  0  0  0999 V2000
    3.0011    3.2577   14.4637 C   0  0  0  0  0  0  0  0  0  0  0  0
    3.9489    3.7707   15.3563 C   0  0  0  0  0  0  0  0  0  0  0  0
    4.3540    3.1210   16.4779 C   0  0  0  0  0  0  0  0  0  0  0  0
    3.8182    1.8473   16.8119 C   0  0  0  0  0  0  0  0  0  0  0  0
    2.8854    1.3567   15.9196 C   0  0  0  0  0  0  0  0  0  0  0  0
    2.4867    2.0439   14.7755 C   0  0  0  0  0  0  0  0  0  0  0  0
    1.5664    1.4768   13.9898 F   0  0  0  0  0  0  0  0  0  0  0  0
    3.6304    4.2972   12.4657 O   0  0  0  0  0  0  0  0  0  0  0  0
    2.6842    4.0661   13.3065 C   0  0  0  0  0  0  0  0  0  0  0  0
    1.4521    4.6368   12.9815 N   0  0  0  0  0  0  0  0  0  0  0  0
    0.6185    4.5150   13.5622 H   0  0  0  0  0  0  0  0  0  0  0  0
    1.2559    5.5802   11.5536 S   0  0  0  0  0  0  0  0  0  0  0  0
    1.5163    4.7353   10.3297 O   0  0  0  0  0  0  0  0  0  0  0  0
    2.2145    6.7315   11.5162 O   0  0  0  0  0  0  0  0  0  0  0  0
   -0.4298    6.2029   11.4524 C   0  0  0  0  0  0  0  0  0  0  0  0
   -1.4743    5.6058   12.3381 C   0  0  0  0  0  0  0  0  0  0  0  0
   -0.8699    6.8963   12.7294 C   0  0  0  0  0  0  0  0  0  0  0  0
    5.3582    3.6951   17.4307 C   0  0  0  0  0  0  0  0  0  0  0  0
    5.8324    5.0783   17.3178 C   0  0  0  0  0  0  0  0  0  0  0  0
    4.7922    4.7948   18.3364 C   0  0  0  0  0  0  0  0  0  0  0  0
    4.2540    1.2582   17.9146 O   0  0  0  0  0  0  0  0  0  0  0  0
    3.9197    0.8372   19.1070 C   0  0  0  0  0  0  0  0  0  0  0  0
    4.2025    1.5546   20.3696 C   0  0  0  0  0  0  0  0  0  0  0  0
    3.7487    0.8226   21.6183 C   0  0  0  0  0  0  0  0  0  0  0  0
    3.3822    1.8848   22.6163 C   0  0  0  0  0  0  0  0  0  0  0  0
    4.4970    2.8185   22.8753 C   0  0  0  0  0  0  0  0  0  0  0  0
    5.6122    2.9171   21.9187 C   0  0  0  0  0  0  0  0  0  0  0  0
    5.5188    2.1384   20.6384 C   0  0  0  0  0  0  0  0  0  0  0  0
    3.9613    4.2297   23.2278 C   0  0  0  0  0  0  0  0  0  0  0  0
    3.2367    4.2273   24.3789 F   0  0  0  0  0  0  0  0  0  0  0  0
    5.0348    5.0898   23.4159 F   0  0  0  0  0  0  0  0  0  0  0  0
    3.2379    4.7356   22.1780 F   0  0  0  0  0  0  0  0  0  0  0  0
  8  9  2  0  0  0
  9 10  1  0  0  0
 10 12  1  0  0  0
 12 13  2  0  0  0
 12 14  2  0  0  0
 12 15  1  0  0  0
 15 16  1  0  0  0
 16 17  1  0  0  0
  9  1  1  0  0  0
  1  2  2  0  0  0
  2  3  1  0  0  0
  3 18  1  0  0  0
 18 19  1  0  0  0
 19 20  1  0  0  0
  3  4  2  0  0  0
  4 21  1  0  0  0
 21 22  1  0  0  0
 22 23  1  0  0  0
 23 24  1  0  0  0
 24 25  1  0  0  0
 25 26  1  0  0  0
 26 29  1  0  0  0
 29 30  1  0  0  0
 29 31  1  0  0  0
 29 32  1  0  0  0
 26 27  1  0  0  0
 27 28  1  0  0  0
  4  5  1  0  0  0
  5  6  2  0  0  0
  6  7  1  0  0  0
 17 15  1  0  0  0
  6  1  1  0  0  0
 20 18  1  0  0  0
 28 23  1  0  0  0
 10 11  1  0  0  0
M  END
> <minimizedAffinity>
-8.45075

> <CNNscore>
0.3037276566

> <CNNaffinity>
6.2860889435

> <CNN_VS>
1.9092590809

> <CNNaffinity_variance>
0.1797702163

$$$$
[H]c1c(F)c(C(=O)N([H])S(=O)(=O)C2([H])C([H])([H])C2([H])[H])c([H])c(C2([H])C([H])([H])C2([H])[H])c1OC([H])([H])C1([H])C([H])([H])C([H])([H])C([H])(C(F)(F)F)C([H])([H])C1([H])[H]


 32 35  0  0  0  0  0  0  0  0999 V2000
    3.5641    3.5445   13.9850 C   0  0  0  0  0  0  0  0  0  0  0  0
    3.8456    4.1234   15.2275 C   0  0  0  0  0  0  0  0  0  0  0  0
    3.6425    3.4936   16.4134 C   0  0  0  0  0  0  0  0  0  0  0  0
    3.1171    2.1733   16.4530 C   0  0  0  0  0  0  0  0  0  0  0  0
    2.8464    1.6180   15.2179 C   0  0  0  0  0  0  0  0  0  0  0  0
    3.0637    2.2860   14.0152 C   0  0  0  0  0  0  0  0  0  0  0  0
    2.7530    1.6539   12.8796 F   0  0  0  0  0  0  0  0  0  0  0  0
    2.8697    4.9884   12.2815 O   0  0  0  0  0  0  0  0  0  0  0  0
    3.8475    4.3405   12.8107 C   0  0  0  0  0  0  0  0  0  0  0  0
    5.0770    4.4973   12.1681 N   0  0  0  0  0  0  0  0  0  0  0  0
    5.9331    4.0454   12.4994 H   0  0  0  0  0  0  0  0  0  0  0  0
    5.2308    5.4892   10.7681 S   0  0  0  0  0  0  0  0  0  0  0  0
    6.6799    5.5900   10.3562 O   0  0  0  0  0  0  0  0  0  0  0  0
    4.7384    6.8817   11.0210 O   0  0  0  0  0  0  0  0  0  0  0  0
    4.3111    4.7698    9.3984 C   0  0  0  0  0  0  0  0  0  0  0  0
    5.0660    4.2090    8.2374 C   0  0  0  0  0  0  0  0  0  0  0  0
    4.5487    3.2766    9.2605 C   0  0  0  0  0  0  0  0  0  0  0  0
    3.9344    4.1374   17.7348 C   0  0  0  0  0  0  0  0  0  0  0  0
    4.4498    5.5069   17.8338 C   0  0  0  0  0  0  0  0  0  0  0  0
    3.0001    5.3047   18.0733 C   0  0  0  0  0  0  0  0  0  0  0  0
    2.9451    1.6068   17.6372 O   0  0  0  0  0  0  0  0  0  0  0  0
    3.4162    0.7250   18.4805 C   0  0  0  0  0  0  0  0  0  0  0  0
    3.9002    1.0307   19.8448 C   0  0  0  0  0  0  0  0  0  0  0  0
    3.2663    0.1879   20.9352 C   0  0  0  0  0  0  0  0  0  0  0  0
    3.2237    1.0543   22.1624 C   0  0  0  0  0  0  0  0  0  0  0  0
    4.5596    1.5614   22.5367 C   0  0  0  0  0  0  0  0  0  0  0  0
    5.6499    1.5642   21.5469 C   0  0  0  0  0  0  0  0  0  0  0  0
    5.3301    1.1532   20.1387 C   0  0  0  0  0  0  0  0  0  0  0  0
    4.4492    2.9470   23.2227 C   0  0  0  0  0  0  0  0  0  0  0  0
    3.1656    3.3954   23.2628 F   0  0  0  0  0  0  0  0  0  0  0  0
    4.8924    2.8418   24.5341 F   0  0  0  0  0  0  0  0  0  0  0  0
    5.2785    3.8474   22.6038 F   0  0  0  0  0  0  0  0  0  0  0  0
  8  9  2  0  0  0
  9 10  1  0  0  0
 10 12  1  0  0  0
 12 13  2  0  0  0
 12 14  2  0  0  0
 12 15  1  0  0  0
 15 16  1  0  0  0
 16 17  1  0  0  0
  9  1  1  0  0  0
  1  2  2  0  0  0
  2  3  1  0  0  0
  3 18  1  0  0  0
 18 19  1  0  0  0
 19 20  1  0  0  0
  3  4  2  0  0  0
  4 21  1  0  0  0
 21 22  1  0  0  0
 22 23  1  0  0  0
 23 24  1  0  0  0
 24 25  1  0  0  0
 25 26  1  0  0  0
 26 29  1  0  0  0
 29 30  1  0  0  0
 29 31  1  0  0  0
 29 32  1  0  0  0
 26 27  1  0  0  0
 27 28  1  0  0  0
  4  5  1  0  0  0
  5  6  2  0  0  0
  6  7  1  0  0  0
 17 15  1  0  0  0
  6  1  1  0  0  0
 20 18  1  0  0  0
 28 23  1  0  0  0
 10 11  1  0  0  0
M  END
> <minimizedAffinity>
-7.71474

> <CNNscore>
0.2937900424

> <CNNaffinity>
6.3979573250

> <CNN_VS>
1.8796561956

> <CNNaffinity_variance>
0.2678920329

$$$$
[H]c1c(F)c(C(=O)N([H])S(=O)(=O)C2([H])C([H])([H])C2([H])[H])c([H])c(C2([H])C([H])([H])C2([H])[H])c1OC([H])([H])C1([H])C([H])([H])C([H])([H])C([H])(C(F)(F)F)C([H])([H])C1([H])[H]


 32 35  0  0  0  0  0  0  0  0999 V2000
    3.5047    3.5170   14.2948 C   0  0  0  0  0  0  0  0  0  0  0  0
    3.7212    4.0207   15.5823 C   0  0  0  0  0  0  0  0  0  0  0  0
    3.5463    3.2909   16.7141 C   0  0  0  0  0  0  0  0  0  0  0  0
    3.1210    1.9362   16.6453 C   0  0  0  0  0  0  0  0  0  0  0  0
    2.9133    1.4562   15.3672 C   0  0  0  0  0  0  0  0  0  0  0  0
    3.0998    2.2263   14.2217 C   0  0  0  0  0  0  0  0  0  0  0  0
    2.8563    1.6595   13.0362 F   0  0  0  0  0  0  0  0  0  0  0  0
    4.7061    4.1238   12.3825 O   0  0  0  0  0  0  0  0  0  0  0  0
    3.7469    4.4171   13.1885 C   0  0  0  0  0  0  0  0  0  0  0  0
    3.0526    5.5884   12.8796 N   0  0  0  0  0  0  0  0  0  0  0  0
    2.2610    5.9221   13.4353 H   0  0  0  0  0  0  0  0  0  0  0  0
    3.4839    6.5464   11.5144 S   0  0  0  0  0  0  0  0  0  0  0  0
    3.4301    5.7151   10.2551 O   0  0  0  0  0  0  0  0  0  0  0  0
    4.8764    7.0864   11.6364 O   0  0  0  0  0  0  0  0  0  0  0  0
    2.3273    7.9130   11.3295 C   0  0  0  0  0  0  0  0  0  0  0  0
    0.9784    7.8079   11.9632 C   0  0  0  0  0  0  0  0  0  0  0  0
    2.0218    8.5974   12.6499 C   0  0  0  0  0  0  0  0  0  0  0  0
    3.7671    3.8540   18.0852 C   0  0  0  0  0  0  0  0  0  0  0  0
    5.0907    4.2916   18.5405 C   0  0  0  0  0  0  0  0  0  0  0  0
    4.1434    5.3401   18.0897 C   0  0  0  0  0  0  0  0  0  0  0  0
    2.9724    1.2718   17.7808 O   0  0  0  0  0  0  0  0  0  0  0  0
    3.5778    0.5391   18.6794 C   0  0  0  0  0  0  0  0  0  0  0  0
    4.0322    1.0228   20.0017 C   0  0  0  0  0  0  0  0  0  0  0  0
    3.3199    0.3835   21.1785 C   0  0  0  0  0  0  0  0  0  0  0  0
    3.2825    1.4250   22.2613 C   0  0  0  0  0  0  0  0  0  0  0  0
    4.6301    1.9194   22.6096 C   0  0  0  0  0  0  0  0  0  0  0  0
    5.7508    1.7229   21.6748 C   0  0  0  0  0  0  0  0  0  0  0  0
    5.4561    1.1210   20.3313 C   0  0  0  0  0  0  0  0  0  0  0  0
    4.5698    3.3958   23.0780 C   0  0  0  0  0  0  0  0  0  0  0  0
    4.0707    3.5111   24.3380 F   0  0  0  0  0  0  0  0  0  0  0  0
    5.8546    3.9215   23.0916 F   0  0  0  0  0  0  0  0  0  0  0  0
    3.8528    4.1464   22.1813 F   0  0  0  0  0  0  0  0  0  0  0  0
  8  9  2  0  0  0
  9 10  1  0  0  0
 10 12  1  0  0  0
 12 13  2  0  0  0
 12 14  2  0  0  0
 12 15  1  0  0  0
 15 16  1  0  0  0
 16 17  1  0  0  0
  9  1  1  0  0  0
  1  2  2  0  0  0
  2  3  1  0  0  0
  3 18  1  0  0  0
 18 19  1  0  0  0
 19 20  1  0  0  0
  3  4  2  0  0  0
  4 21  1  0  0  0
 21 22  1  0  0  0
 22 23  1  0  0  0
 23 24  1  0  0  0
 24 25  1  0  0  0
 25 26  1  0  0  0
 26 29  1  0  0  0
 29 30  1  0  0  0
 29 31  1  0  0  0
 29 32  1  0  0  0
 26 27  1  0  0  0
 27 28  1  0  0  0
  4  5  1  0  0  0
  5  6  2  0  0  0
  6  7  1  0  0  0
 17 15  1  0  0  0
  6  1  1  0  0  0
 20 18  1  0  0  0
 28 23  1  0  0  0
 10 11  1  0  0  0
M  END
> <minimizedAffinity>
-7.82035

> <CNNscore>
0.2886203825

> <CNNaffinity>
6.3262572289

> <CNN_VS>
1.8258867264

> <CNNaffinity_variance>
0.2360798419

$$$$
[H]c1c(F)c(C(=O)N([H])S(=O)(=O)C2([H])C([H])([H])C2([H])[H])c([H])c(C2([H])C([H])([H])C2([H])[H])c1OC([H])([H])C1([H])C([H])([H])C([H])([H])C([H])(C(F)(F)F)C([H])([H])C1([H])[H]


 32 35  0  0  0  0  0  0  0  0999 V2000
    2.9570    3.3783   14.4930 C   0  0  0  0  0  0  0  0  0  0  0  0
    3.9133    3.8947   15.3746 C   0  0  0  0  0  0  0  0  0  0  0  0
    4.3572    3.2324   16.4739 C   0  0  0  0  0  0  0  0  0  0  0  0
    3.8569    1.9409   16.7943 C   0  0  0  0  0  0  0  0  0  0  0  0
    2.9152    1.4473   15.9130 C   0  0  0  0  0  0  0  0  0  0  0  0
    2.4762    2.1475   14.7917 C   0  0  0  0  0  0  0  0  0  0  0  0
    1.5512    1.5755   14.0153 F   0  0  0  0  0  0  0  0  0  0  0  0
    3.0076    3.8276   12.1986 O   0  0  0  0  0  0  0  0  0  0  0  0
    2.5970    4.2016   13.3593 C   0  0  0  0  0  0  0  0  0  0  0  0
    1.8414    5.3757   13.3689 N   0  0  0  0  0  0  0  0  0  0  0  0
    1.4463    5.7692   14.2268 H   0  0  0  0  0  0  0  0  0  0  0  0
    1.5109    6.2348   11.9128 S   0  0  0  0  0  0  0  0  0  0  0  0
    0.4387    7.2711   12.1499 O   0  0  0  0  0  0  0  0  0  0  0  0
    1.0202    5.3207   10.8316 O   0  0  0  0  0  0  0  0  0  0  0  0
    2.9931    7.0858   11.3487 C   0  0  0  0  0  0  0  0  0  0  0  0
    3.6629    6.6171   10.0981 C   0  0  0  0  0  0  0  0  0  0  0  0
    2.7833    7.8024   10.0268 C   0  0  0  0  0  0  0  0  0  0  0  0
    5.3698    3.8101   17.4157 C   0  0  0  0  0  0  0  0  0  0  0  0
    5.7426    5.2280   17.3798 C   0  0  0  0  0  0  0  0  0  0  0  0
    4.7799    4.8021   18.4247 C   0  0  0  0  0  0  0  0  0  0  0  0
    4.3298    1.3404   17.8752 O   0  0  0  0  0  0  0  0  0  0  0  0
    4.0276    0.8736   19.0590 C   0  0  0  0  0  0  0  0  0  0  0  0
    4.2834    1.5736   20.3371 C   0  0  0  0  0  0  0  0  0  0  0  0
    3.7233    0.8683   21.5578 C   0  0  0  0  0  0  0  0  0  0  0  0
    3.3653    1.9494   22.5383 C   0  0  0  0  0  0  0  0  0  0  0  0
    4.5158    2.8184   22.8588 C   0  0  0  0  0  0  0  0  0  0  0  0
    5.6839    2.8537   21.9628 C   0  0  0  0  0  0  0  0  0  0  0  0
    5.6146    2.0818   20.6769 C   0  0  0  0  0  0  0  0  0  0  0  0
    4.0430    4.2576   23.1870 C   0  0  0  0  0  0  0  0  0  0  0  0
    5.0837    5.1292   23.2731 F   0  0  0  0  0  0  0  0  0  0  0  0
    3.2104    4.7057   22.1705 F   0  0  0  0  0  0  0  0  0  0  0  0
    3.2900    4.2570   24.3335 F   0  0  0  0  0  0  0  0  0  0  0  0
  8  9  2  0  0  0
  9 10  1  0  0  0
 10 12  1  0  0  0
 12 13  2  0  0  0
 12 14  2  0  0  0
 12 15  1  0  0  0
 15 16  1  0  0  0
 16 17  1  0  0  0
  9  1  1  0  0  0
  1  2  2  0  0  0
  2  3  1  0  0  0
  3 18  1  0  0  0
 18 19  1  0  0  0
 19 20  1  0  0  0
  3  4  2  0  0  0
  4 21  1  0  0  0
 21 22  1  0  0  0
 22 23  1  0  0  0
 23 24  1  0  0  0
 24 25  1  0  0  0
 25 26  1  0  0  0
 26 29  1  0  0  0
 29 30  1  0  0  0
 29 31  1  0  0  0
 29 32  1  0  0  0
 26 27  1  0  0  0
 27 28  1  0  0  0
  4  5  1  0  0  0
  5  6  2  0  0  0
  6  7  1  0  0  0
 17 15  1  0  0  0
  6  1  1  0  0  0
 20 18  1  0  0  0
 28 23  1  0  0  0
 10 11  1  0  0  0
M  END
> <minimizedAffinity>
-8.14383

> <CNNscore>
0.2877376676

> <CNNaffinity>
6.1999425888

> <CNN_VS>
1.7839570045

> <CNNaffinity_variance>
0.2104718983

$$$$
[H]c1c(F)c(C(=O)N([H])S(=O)(=O)C2([H])C([H])([H])C2([H])[H])c([H])c(C2([H])C([H])([H])C2([H])[H])c1OC([H])([H])C1([H])C([H])([H])C([H])([H])C([H])(C(F)(F)F)C([H])([H])C1([H])[H]


 32 35  0  0  0  0  0  0  0  0999 V2000
    1.6051    3.4924   13.5600 C   0  0  0  0  0  0  0  0  0  0  0  0
    2.4238    4.3620   14.2893 C   0  0  0  0  0  0  0  0  0  0  0  0
    3.2503    3.9561   15.2875 C   0  0  0  0  0  0  0  0  0  0  0  0
    3.3274    2.5845   15.6530 C   0  0  0  0  0  0  0  0  0  0  0  0
    2.5135    1.7414   14.9222 C   0  0  0  0  0  0  0  0  0  0  0  0
    1.6739    2.1836   13.9025 C   0  0  0  0  0  0  0  0  0  0  0  0
    0.9210    1.2782   13.2707 F   0  0  0  0  0  0  0  0  0  0  0  0
    1.3883    4.7631   11.6088 O   0  0  0  0  0  0  0  0  0  0  0  0
    0.7894    4.0777   12.5183 C   0  0  0  0  0  0  0  0  0  0  0  0
   -0.5963    3.9872   12.3738 N   0  0  0  0  0  0  0  0  0  0  0  0
   -1.1844    3.4593   13.0238 H   0  0  0  0  0  0  0  0  0  0  0  0
   -1.4079    4.7568   11.0637 S   0  0  0  0  0  0  0  0  0  0  0  0
   -1.0870    4.0548    9.7660 O   0  0  0  0  0  0  0  0  0  0  0  0
   -0.9860    6.1871   10.9163 O   0  0  0  0  0  0  0  0  0  0  0  0
   -3.1890    4.6818   11.3119 C   0  0  0  0  0  0  0  0  0  0  0  0
   -3.9004    5.8976   11.8097 C   0  0  0  0  0  0  0  0  0  0  0  0
   -3.9460    5.5949   10.3641 C   0  0  0  0  0  0  0  0  0  0  0  0
    4.1069    4.9058   16.0686 C   0  0  0  0  0  0  0  0  0  0  0  0
    3.9962    6.3597   15.9111 C   0  0  0  0  0  0  0  0  0  0  0  0
    3.3274    5.7478   17.0852 C   0  0  0  0  0  0  0  0  0  0  0  0
    4.1544    2.2459   16.6298 O   0  0  0  0  0  0  0  0  0  0  0  0
    4.3869    1.3825   17.5844 C   0  0  0  0  0  0  0  0  0  0  0  0
    4.5274    1.7208   19.0178 C   0  0  0  0  0  0  0  0  0  0  0  0
    4.2754    3.1812   19.3420 C   0  0  0  0  0  0  0  0  0  0  0  0
    5.1534    3.5066   20.5175 C   0  0  0  0  0  0  0  0  0  0  0  0
    4.9023    2.6148   21.6679 C   0  0  0  0  0  0  0  0  0  0  0  0
    4.2168    1.3274   21.4656 C   0  0  0  0  0  0  0  0  0  0  0  0
    3.8954    0.9085   20.0602 C   0  0  0  0  0  0  0  0  0  0  0  0
    6.1947    2.4138   22.4997 C   0  0  0  0  0  0  0  0  0  0  0  0
    6.9554    1.3926   22.0215 F   0  0  0  0  0  0  0  0  0  0  0  0
    6.9626    3.5686   22.4334 F   0  0  0  0  0  0  0  0  0  0  0  0
    5.8810    2.2318   23.8225 F   0  0  0  0  0  0  0  0  0  0  0  0
  8  9  2  0  0  0
  9 10  1  0  0  0
 10 12  1  0  0  0
 12 13  2  0  0  0
 12 14  2  0  0  0
 12 15  1  0  0  0
 15 16  1  0  0  0
 16 17  1  0  0  0
  9  1  1  0  0  0
  1  2  2  0  0  0
  2  3  1  0  0  0
  3 18  1  0  0  0
 18 19  1  0  0  0
 19 20  1  0  0  0
  3  4  2  0  0  0
  4 21  1  0  0  0
 21 22  1  0  0  0
 22 23  1  0  0  0
 23 24  1  0  0  0
 24 25  1  0  0  0
 25 26  1  0  0  0
 26 29  1  0  0  0
 29 30  1  0  0  0
 29 31  1  0  0  0
 29 32  1  0  0  0
 26 27  1  0  0  0
 27 28  1  0  0  0
  4  5  1  0  0  0
  5  6  2  0  0  0
  6  7  1  0  0  0
 17 15  1  0  0  0
  6  1  1  0  0  0
 20 18  1  0  0  0
 28 23  1  0  0  0
 10 11  1  0  0  0
M  END
> <minimizedAffinity>
-8.20415

> <CNNscore>
0.2871065140

> <CNNaffinity>
6.1054229736

> <CNN_VS>
1.7529066801

> <CNNaffinity_variance>
0.2265713662

$$$$
[H]c1c(F)c(C(=O)N([H])S(=O)(=O)C2([H])C([H])([H])C2([H])[H])c([H])c(C2([H])C([H])([H])C2([H])[H])c1OC([H])([H])C1([H])C([H])([H])C([H])([H])C([H])(C(F)(F)F)C([H])([H])C1([H])[H]


 32 35  0  0  0  0  0  0  0  0999 V2000
    3.2040    3.6821   12.9931 C   0  0  0  0  0  0  0  0  0  0  0  0
    3.6930    4.4467   14.0583 C   0  0  0  0  0  0  0  0  0  0  0  0
    3.8166    3.9767   15.3263 C   0  0  0  0  0  0  0  0  0  0  0  0
    3.4436    2.6425   15.6451 C   0  0  0  0  0  0  0  0  0  0  0  0
    2.9644    1.9029   14.5818 C   0  0  0  0  0  0  0  0  0  0  0  0
    2.8471    2.4094   13.2895 C   0  0  0  0  0  0  0  0  0  0  0  0
    2.3584    1.6051   12.3408 F   0  0  0  0  0  0  0  0  0  0  0  0
    2.0246    4.2838   11.0655 O   0  0  0  0  0  0  0  0  0  0  0  0
    3.1446    4.3233   11.6977 C   0  0  0  0  0  0  0  0  0  0  0  0
    4.1737    4.9956   11.0355 N   0  0  0  0  0  0  0  0  0  0  0  0
    5.1072    5.1077   11.4389 H   0  0  0  0  0  0  0  0  0  0  0  0
    3.9236    5.7010    9.4839 S   0  0  0  0  0  0  0  0  0  0  0  0
    2.7527    6.6534    9.5259 O   0  0  0  0  0  0  0  0  0  0  0  0
    3.6200    4.6622    8.4474 O   0  0  0  0  0  0  0  0  0  0  0  0
    5.3816    6.6322    8.9874 C   0  0  0  0  0  0  0  0  0  0  0  0
    5.2267    8.0702    8.6126 C   0  0  0  0  0  0  0  0  0  0  0  0
    5.7222    7.7423    9.9656 C   0  0  0  0  0  0  0  0  0  0  0  0
    4.3267    4.8171   16.4574 C   0  0  0  0  0  0  0  0  0  0  0  0
    4.4481    6.2746   16.3478 C   0  0  0  0  0  0  0  0  0  0  0  0
    3.2663    5.7407   17.0679 C   0  0  0  0  0  0  0  0  0  0  0  0
    3.5909    2.2369   16.8967 O   0  0  0  0  0  0  0  0  0  0  0  0
    4.3170    1.5132   17.7090 C   0  0  0  0  0  0  0  0  0  0  0  0
    4.4768    1.7671   19.1577 C   0  0  0  0  0  0  0  0  0  0  0  0
    4.1117    3.1751   19.5884 C   0  0  0  0  0  0  0  0  0  0  0  0
    4.9982    3.4981   20.7582 C   0  0  0  0  0  0  0  0  0  0  0  0
    4.8639    2.5138   21.8512 C   0  0  0  0  0  0  0  0  0  0  0  0
    4.2848    1.1873   21.5805 C   0  0  0  0  0  0  0  0  0  0  0  0
    3.9527    0.8354   20.1592 C   0  0  0  0  0  0  0  0  0  0  0  0
    6.1964    2.3727   22.6304 C   0  0  0  0  0  0  0  0  0  0  0  0
    6.9812    3.4763   22.5029 F   0  0  0  0  0  0  0  0  0  0  0  0
    5.9188    2.2157   23.9816 F   0  0  0  0  0  0  0  0  0  0  0  0
    6.8561    1.2368   22.2352 F   0  0  0  0  0  0  0  0  0  0  0  0
  8  9  2  0  0  0
  9 10  1  0  0  0
 10 12  1  0  0  0
 12 13  2  0  0  0
 12 14  2  0  0  0
 12 15  1  0  0  0
 15 16  1  0  0  0
 16 17  1  0  0  0
  9  1  1  0  0  0
  1  2  2  0  0  0
  2  3  1  0  0  0
  3 18  1  0  0  0
 18 19  1  0  0  0
 19 20  1  0  0  0
  3  4  2  0  0  0
  4 21  1  0  0  0
 21 22  1  0  0  0
 22 23  1  0  0  0
 23 24  1  0  0  0
 24 25  1  0  0  0
 25 26  1  0  0  0
 26 29  1  0  0  0
 29 30  1  0  0  0
 29 31  1  0  0  0
 29 32  1  0  0  0
 26 27  1  0  0  0
 27 28  1  0  0  0
  4  5  1  0  0  0
  5  6  2  0  0  0
  6  7  1  0  0  0
 17 15  1  0  0  0
  6  1  1  0  0  0
 20 18  1  0  0  0
 28 23  1  0  0  0
 10 11  1  0  0  0
M  END
> <minimizedAffinity>
-7.28033

> <CNNscore>
0.2694747746

> <CNNaffinity>
6.1435375214

> <CNN_VS>
1.6555284262

> <CNNaffinity_variance>
0.2057635784

$$$$
[H]c1c(F)c(C(=O)N([H])S(=O)(=O)C2([H])C([H])([H])C2([H])[H])c([H])c(C2([H])C([H])([H])C2([H])[H])c1OC([H])([H])C1([H])C([H])([H])C([H])([H])C([H])(C(F)(F)F)C([H])([H])C1([H])[H]


 32 35  0  0  0  0  0  0  0  0999 V2000
    3.6876    1.3165   18.4511 C   0  0  0  0  0  0  0  0  0  0  0  0
    4.0497    2.4639   17.7365 C   0  0  0  0  0  0  0  0  0  0  0  0
    3.7558    2.6564   16.4248 C   0  0  0  0  0  0  0  0  0  0  0  0
    3.0432    1.6709   15.6887 C   0  0  0  0  0  0  0  0  0  0  0  0
    2.6935    0.5464   16.4101 C   0  0  0  0  0  0  0  0  0  0  0  0
    3.0076    0.3732   17.7560 C   0  0  0  0  0  0  0  0  0  0  0  0
    2.6284   -0.7626   18.3493 F   0  0  0  0  0  0  0  0  0  0  0  0
    4.1368    0.1079   20.4020 O   0  0  0  0  0  0  0  0  0  0  0  0
    4.0635    1.2666   19.8471 C   0  0  0  0  0  0  0  0  0  0  0  0
    4.3649    2.3428   20.6839 N   0  0  0  0  0  0  0  0  0  0  0  0
    4.3558    3.3128   20.3585 H   0  0  0  0  0  0  0  0  0  0  0  0
    4.7926    2.0960   22.3343 S   0  0  0  0  0  0  0  0  0  0  0  0
    6.1840    1.5180   22.4323 O   0  0  0  0  0  0  0  0  0  0  0  0
    3.8598    1.1368   23.0090 O   0  0  0  0  0  0  0  0  0  0  0  0
    4.7775    3.6646   23.2167 C   0  0  0  0  0  0  0  0  0  0  0  0
    4.1650    4.8576   22.5580 C   0  0  0  0  0  0  0  0  0  0  0  0
    3.3719    4.1214   23.5643 C   0  0  0  0  0  0  0  0  0  0  0  0
    4.1677    3.8854   15.6726 C   0  0  0  0  0  0  0  0  0  0  0  0
    3.4210    5.1437   15.7736 C   0  0  0  0  0  0  0  0  0  0  0  0
    4.6651    5.0227   16.5721 C   0  0  0  0  0  0  0  0  0  0  0  0
    2.7799    1.9148   14.4144 O   0  0  0  0  0  0  0  0  0  0  0  0
    1.8333    2.1507   13.5431 C   0  0  0  0  0  0  0  0  0  0  0  0
    1.5266    3.4764   12.9624 C   0  0  0  0  0  0  0  0  0  0  0  0
    2.6760    4.1031   12.1961 C   0  0  0  0  0  0  0  0  0  0  0  0
    2.5294    5.5894   12.3632 C   0  0  0  0  0  0  0  0  0  0  0  0
    1.2098    6.0763   11.9123 C   0  0  0  0  0  0  0  0  0  0  0  0
    0.0866    5.1346   11.7708 C   0  0  0  0  0  0  0  0  0  0  0  0
    0.2942    3.7130   12.2067 C   0  0  0  0  0  0  0  0  0  0  0  0
    0.7736    7.3186   12.7301 C   0  0  0  0  0  0  0  0  0  0  0  0
    1.3289    7.3327   13.9717 F   0  0  0  0  0  0  0  0  0  0  0  0
    1.1967    8.4667   12.0740 F   0  0  0  0  0  0  0  0  0  0  0  0
   -0.5951    7.3877   12.7895 F   0  0  0  0  0  0  0  0  0  0  0  0
  8  9  2  0  0  0
  9 10  1  0  0  0
 10 12  1  0  0  0
 12 13  2  0  0  0
 12 14  2  0  0  0
 12 15  1  0  0  0
 15 16  1  0  0  0
 16 17  1  0  0  0
  9  1  1  0  0  0
  1  2  2  0  0  0
  2  3  1  0  0  0
  3 18  1  0  0  0
 18 19  1  0  0  0
 19 20  1  0  0  0
  3  4  2  0  0  0
  4 21  1  0  0  0
 21 22  1  0  0  0
 22 23  1  0  0  0
 23 24  1  0  0  0
 24 25  1  0  0  0
 25 26  1  0  0  0
 26 29  1  0  0  0
 29 30  1  0  0  0
 29 31  1  0  0  0
 29 32  1  0  0  0
 26 27  1  0  0  0
 27 28  1  0  0  0
  4  5  1  0  0  0
  5  6  2  0  0  0
  6  7  1  0  0  0
 17 15  1  0  0  0
  6  1  1  0  0  0
 20 18  1  0  0  0
 28 23  1  0  0  0
 10 11  1  0  0  0
M  END
> <minimizedAffinity>
-8.00768

> <CNNscore>
0.2287023365

> <CNNaffinity>
6.3337230682

> <CNN_VS>
1.4485372305

> <CNNaffinity_variance>
0.1575563252

$$$$
[H]c1c(F)c(C(=O)N([H])S(=O)(=O)C2([H])C([H])([H])C2([H])[H])c([H])c(C2([H])C([H])([H])C2([H])[H])c1OC([H])([H])C1([H])C([H])([H])C([H])([H])C([H])(C(F)(F)F)C([H])([H])C1([H])[H]


 32 35  0  0  0  0  0  0  0  0999 V2000
    2.9405    2.8026   13.9262 C   0  0  0  0  0  0  0  0  0  0  0  0
    3.0685    1.7792   14.8719 C   0  0  0  0  0  0  0  0  0  0  0  0
    3.5512    1.9714   16.1266 C   0  0  0  0  0  0  0  0  0  0  0  0
    3.9638    3.2624   16.5554 C   0  0  0  0  0  0  0  0  0  0  0  0
    3.8295    4.2597   15.6095 C   0  0  0  0  0  0  0  0  0  0  0  0
    3.3313    4.0359   14.3282 C   0  0  0  0  0  0  0  0  0  0  0  0
    3.2575    5.0754   13.4916 F   0  0  0  0  0  0  0  0  0  0  0  0
    1.3078    1.7547   12.6206 O   0  0  0  0  0  0  0  0  0  0  0  0
    2.3970    2.4396   12.6356 C   0  0  0  0  0  0  0  0  0  0  0  0
    2.9183    2.7486   11.3777 N   0  0  0  0  0  0  0  0  0  0  0  0
    3.7718    3.2994   11.2556 H   0  0  0  0  0  0  0  0  0  0  0  0
    2.1341    2.2269    9.9354 S   0  0  0  0  0  0  0  0  0  0  0  0
    2.7215    2.9331    8.7370 O   0  0  0  0  0  0  0  0  0  0  0  0
    0.6675    2.5333    9.9623 O   0  0  0  0  0  0  0  0  0  0  0  0
    2.3707    0.4570    9.7102 C   0  0  0  0  0  0  0  0  0  0  0  0
    3.0943   -0.0260    8.4956 C   0  0  0  0  0  0  0  0  0  0  0  0
    3.8332    0.0543    9.7728 C   0  0  0  0  0  0  0  0  0  0  0  0
    3.6966    0.8585   17.1197 C   0  0  0  0  0  0  0  0  0  0  0  0
    2.6579    0.5635   18.1121 C   0  0  0  0  0  0  0  0  0  0  0  0
    2.7104   -0.2951   16.9038 C   0  0  0  0  0  0  0  0  0  0  0  0
    4.4213    3.3915   17.7910 O   0  0  0  0  0  0  0  0  0  0  0  0
    4.2110    3.9434   18.9581 C   0  0  0  0  0  0  0  0  0  0  0  0
    4.7823    3.4665   20.2368 C   0  0  0  0  0  0  0  0  0  0  0  0
    5.3310    2.0531   20.1865 C   0  0  0  0  0  0  0  0  0  0  0  0
    5.1330    1.4781   21.5608 C   0  0  0  0  0  0  0  0  0  0  0  0
    5.7698    2.3009   22.6092 C   0  0  0  0  0  0  0  0  0  0  0  0
    6.1244    3.7028   22.3311 C   0  0  0  0  0  0  0  0  0  0  0  0
    5.7153    4.2888   21.0107 C   0  0  0  0  0  0  0  0  0  0  0  0
    4.9854    2.1963   23.9420 C   0  0  0  0  0  0  0  0  0  0  0  0
    4.2703    3.3236   24.2028 F   0  0  0  0  0  0  0  0  0  0  0  0
    4.0838    1.1439   23.8578 F   0  0  0  0  0  0  0  0  0  0  0  0
    5.8408    1.8930   24.9705 F   0  0  0  0  0  0  0  0  0  0  0  0
  8  9  2  0  0  0
  9 10  1  0  0  0
 10 12  1  0  0  0
 12 13  2  0  0  0
 12 14  2  0  0  0
 12 15  1  0  0  0
 15 16  1  0  0  0
 16 17  1  0  0  0
  9  1  1  0  0  0
  1  2  2  0  0  0
  2  3  1  0  0  0
  3 18  1  0  0  0
 18 19  1  0  0  0
 19 20  1  0  0  0
  3  4  2  0  0  0
  4 21  1  0  0  0
 21 22  1  0  0  0
 22 23  1  0  0  0
 23 24  1  0  0  0
 24 25  1  0  0  0
 25 26  1  0  0  0
 26 29  1  0  0  0
 29 30  1  0  0  0
 29 31  1  0  0  0
 29 32  1  0  0  0
 26 27  1  0  0  0
 27 28  1  0  0  0
  4  5  1  0  0  0
  5  6  2  0  0  0
  6  7  1  0  0  0
 17 15  1  0  0  0
  6  1  1  0  0  0
 20 18  1  0  0  0
 28 23  1  0  0  0
 10 11  1  0  0  0
M  END
> <minimizedAffinity>
-8.06956

> <CNNscore>
0.2160370946

> <CNNaffinity>
6.3039283752

> <CNN_VS>
1.3618823290

> <CNNaffinity_variance>
0.1419491917

$$$$
[H]c1c(F)c(C(=O)N([H])S(=O)(=O)C2([H])C([H])([H])C2([H])[H])c([H])c(C2([H])C([H])([H])C2([H])[H])c1OC([H])([H])C1([H])C([H])([H])C([H])([H])C([H])(C(F)(F)F)C([H])([H])C1([H])[H]


 32 35  0  0  0  0  0  0  0  0999 V2000
    3.6537    1.9328   17.3440 C   0  0  0  0  0  0  0  0  0  0  0  0
    3.8921    3.1199   16.6424 C   0  0  0  0  0  0  0  0  0  0  0  0
    3.5717    3.2974   15.3348 C   0  0  0  0  0  0  0  0  0  0  0  0
    2.9590    2.2532   14.5897 C   0  0  0  0  0  0  0  0  0  0  0  0
    2.7307    1.0901   15.2984 C   0  0  0  0  0  0  0  0  0  0  0  0
    3.0694    0.9335   16.6404 C   0  0  0  0  0  0  0  0  0  0  0  0
    2.8121   -0.2423   17.2209 F   0  0  0  0  0  0  0  0  0  0  0  0
    4.1042    0.7559   19.3139 O   0  0  0  0  0  0  0  0  0  0  0  0
    4.0416    1.9046   18.7374 C   0  0  0  0  0  0  0  0  0  0  0  0
    4.3652    2.9924   19.5506 N   0  0  0  0  0  0  0  0  0  0  0  0
    4.3663    3.9560   19.2065 H   0  0  0  0  0  0  0  0  0  0  0  0
    4.8045    2.7716   21.2015 S   0  0  0  0  0  0  0  0  0  0  0  0
    6.0740    1.9603   21.3000 O   0  0  0  0  0  0  0  0  0  0  0  0
    3.7425    2.0371   21.9620 O   0  0  0  0  0  0  0  0  0  0  0  0
    5.1012    4.3671   21.9797 C   0  0  0  0  0  0  0  0  0  0  0  0
    4.7154    5.6106   21.2470 C   0  0  0  0  0  0  0  0  0  0  0  0
    3.8135    5.1040   22.3022 C   0  0  0  0  0  0  0  0  0  0  0  0
    3.8510    4.5712   14.5963 C   0  0  0  0  0  0  0  0  0  0  0  0
    2.8043    5.5667   14.3430 C   0  0  0  0  0  0  0  0  0  0  0  0
    3.7365    5.8279   15.4667 C   0  0  0  0  0  0  0  0  0  0  0  0
    2.6641    2.4845   13.3200 O   0  0  0  0  0  0  0  0  0  0  0  0
    2.3309    1.9343   12.1811 C   0  0  0  0  0  0  0  0  0  0  0  0
    3.2058    1.8526   10.9908 C   0  0  0  0  0  0  0  0  0  0  0  0
    2.7877    0.8017    9.9800 C   0  0  0  0  0  0  0  0  0  0  0  0
    4.0541    0.3166    9.3323 C   0  0  0  0  0  0  0  0  0  0  0  0
    4.8294    1.4170    8.7244 C   0  0  0  0  0  0  0  0  0  0  0  0
    4.5787    2.8087    9.1350 C   0  0  0  0  0  0  0  0  0  0  0  0
    3.6110    3.0536   10.2564 C   0  0  0  0  0  0  0  0  0  0  0  0
    6.3476    1.1071    8.7644 C   0  0  0  0  0  0  0  0  0  0  0  0
    6.9064    1.1332    7.5246 F   0  0  0  0  0  0  0  0  0  0  0  0
    6.9890    2.0727    9.5283 F   0  0  0  0  0  0  0  0  0  0  0  0
    6.5679   -0.0930    9.3912 F   0  0  0  0  0  0  0  0  0  0  0  0
  8  9  2  0  0  0
  9 10  1  0  0  0
 10 12  1  0  0  0
 12 13  2  0  0  0
 12 14  2  0  0  0
 12 15  1  0  0  0
 15 16  1  0  0  0
 16 17  1  0  0  0
  9  1  1  0  0  0
  1  2  2  0  0  0
  2  3  1  0  0  0
  3 18  1  0  0  0
 18 19  1  0  0  0
 19 20  1  0  0  0
  3  4  2  0  0  0
  4 21  1  0  0  0
 21 22  1  0  0  0
 22 23  1  0  0  0
 23 24  1  0  0  0
 24 25  1  0  0  0
 25 26  1  0  0  0
 26 29  1  0  0  0
 29 30  1  0  0  0
 29 31  1  0  0  0
 29 32  1  0  0  0
 26 27  1  0  0  0
 27 28  1  0  0  0
  4  5  1  0  0  0
  5  6  2  0  0  0
  6  7  1  0  0  0
 17 15  1  0  0  0
  6  1  1  0  0  0
 20 18  1  0  0  0
 28 23  1  0  0  0
 10 11  1  0  0  0
M  END
> <minimizedAffinity>
-7.59049

> <CNNscore>
0.1911996752

> <CNNaffinity>
6.0675468445

> <CNN_VS>
1.1601129770

> <CNNaffinity_variance>
0.0723692700

$$$$
[H]OC(=O)C1=C([H])[C@@]([H])(O[C@@]([H])(C([H])([H])C([H])([H])[H])C([H])([H])C([H])([H])C([H])([H])C([H])([H])C([H])([H])C([H])([H])C([H])([H])[H])[C@]([H])(N([H])C(=O)C([H])([H])[H])[C@@]([H])(N([H])[H])C1([H])[H]


 29 29  0  0  0  0  0  0  0  0999 V2000
    5.5224    4.7581   18.2593 C   0  0  0  0  0  0  0  0  0  0  0  0
    5.4945    4.9431   19.7643 C   0  0  0  0  0  0  0  0  0  0  0  0
    5.5437    6.1898   20.2347 C   0  0  0  0  0  0  0  0  0  0  0  0
    5.6017    7.2347   19.1437 C   0  0  0  0  0  0  0  0  0  0  0  0
    4.3604    6.9929   18.3241 C   0  0  0  0  0  0  0  0  0  0  0  0
    3.1759    7.2984   19.1205 N   0  0  0  0  0  0  0  0  0  0  0  0
    4.3328    5.5788   17.8130 C   0  0  0  0  0  0  0  0  0  0  0  0
    3.4297    7.8088   19.9948 H   0  0  0  0  0  0  0  0  0  0  0  0
    2.5331    7.9226   18.5459 H   0  0  0  0  0  0  0  0  0  0  0  0
    4.1855    5.6815   16.3794 N   0  0  0  0  0  0  0  0  0  0  0  0
    2.9493    5.5090   15.7213 C   0  0  0  0  0  0  0  0  0  0  0  0
    2.7893    5.6125   14.2520 C   0  0  0  0  0  0  0  0  0  0  0  0
    1.9314    5.2551   16.4105 O   0  0  0  0  0  0  0  0  0  0  0  0
    5.0347    5.8921   15.8160 H   0  0  0  0  0  0  0  0  0  0  0  0
    5.5304    6.5777   21.6125 C   0  0  0  0  0  0  0  0  0  0  0  0
    6.4673    6.3142   22.4176 O   0  0  0  0  0  0  0  0  0  0  0  0
    4.4266    7.2847   22.0964 O   0  0  0  0  0  0  0  0  0  0  0  0
    4.6323    8.0208   22.7784 H   0  0  0  0  0  0  0  0  0  0  0  0
    5.4204    3.4351   17.9962 O   0  0  0  0  0  0  0  0  0  0  0  0
    4.1629    2.8358   18.1217 C   0  0  0  0  0  0  0  0  0  0  0  0
    3.6399    2.1713   16.9108 C   0  0  0  0  0  0  0  0  0  0  0  0
    3.3879    0.6844   17.1683 C   0  0  0  0  0  0  0  0  0  0  0  0
    4.0180    2.0424   19.3451 C   0  0  0  0  0  0  0  0  0  0  0  0
    5.1230    1.4538   20.1025 C   0  0  0  0  0  0  0  0  0  0  0  0
    4.7794    0.6407   21.2761 C   0  0  0  0  0  0  0  0  0  0  0  0
    3.6927    1.3895   22.1246 C   0  0  0  0  0  0  0  0  0  0  0  0
    4.4253    1.8110   23.3824 C   0  0  0  0  0  0  0  0  0  0  0  0
    3.4682    4.0475   23.3198 C   0  0  0  0  0  0  0  0  0  0  0  0
    4.7498    3.2751   23.3850 C   0  0  0  0  0  0  0  0  0  0  0  0
 28 29  1  0  0  0
 29 27  1  0  0  0
 27 26  1  0  0  0
 26 25  1  0  0  0
 25 24  1  0  0  0
 24 23  1  0  0  0
 23 20  1  0  0  0
 20 21  1  0  0  0
 21 22  1  0  0  0
 20 19  1  0  0  0
 19  1  1  0  0  0
  1  2  1  0  0  0
  2  3  2  0  0  0
  3 15  1  0  0  0
 15 16  2  0  0  0
 15 17  1  0  0  0
  3  4  1  0  0  0
  4  5  1  0  0  0
  5  6  1  0  0  0
  5  7  1  0  0  0
  7 10  1  0  0  0
 10 11  1  0  0  0
 11 12  1  0  0  0
 11 13  2  0  0  0
  7  1  1  0  0  0
 17 18  1  0  0  0
  6  8  1  0  0  0
  6  9  1  0  0  0
 10 14  1  0  0  0
M  END
> <minimizedAffinity>
-7.02612

> <CNNscore>
0.5894099474

> <CNNaffinity>
6.0792307854

> <CNN_VS>
3.5831592083

> <CNNaffinity_variance>
0.1360720545

$$$$
[H]OC(=O)C1=C([H])[C@@]([H])(O[C@@]([H])(C([H])([H])C([H])([H])[H])C([H])([H])C([H])([H])C([H])([H])C([H])([H])C([H])([H])C([H])([H])C([H])([H])[H])[C@]([H])(N([H])C(=O)C([H])([H])[H])[C@@]([H])(N([H])[H])C1([H])[H]


 29 29  0  0  0  0  0  0  0  0999 V2000
    4.6276    4.7879   19.8739 C   0  0  0  0  0  0  0  0  0  0  0  0
    4.8183    3.8856   18.6700 C   0  0  0  0  0  0  0  0  0  0  0  0
    3.9180    3.9646   17.6896 C   0  0  0  0  0  0  0  0  0  0  0  0
    2.8394    4.9903   17.9546 C   0  0  0  0  0  0  0  0  0  0  0  0
    3.5877    6.2859   18.1350 C   0  0  0  0  0  0  0  0  0  0  0  0
    4.2181    6.6711   16.8760 N   0  0  0  0  0  0  0  0  0  0  0  0
    4.5970    6.1624   19.2430 C   0  0  0  0  0  0  0  0  0  0  0  0
    3.8556    6.0996   16.0815 H   0  0  0  0  0  0  0  0  0  0  0  0
    3.9903    7.6926   16.6818 H   0  0  0  0  0  0  0  0  0  0  0  0
    4.3009    7.2338   20.1660 N   0  0  0  0  0  0  0  0  0  0  0  0
    5.3002    8.0416   20.7491 C   0  0  0  0  0  0  0  0  0  0  0  0
    5.0055    9.1420   21.6964 C   0  0  0  0  0  0  0  0  0  0  0  0
    6.5000    7.8211   20.4538 O   0  0  0  0  0  0  0  0  0  0  0  0
    3.3035    7.4094   20.4052 H   0  0  0  0  0  0  0  0  0  0  0  0
    3.9151    3.2038   16.4771 C   0  0  0  0  0  0  0  0  0  0  0  0
    3.7894    1.9474   16.4455 O   0  0  0  0  0  0  0  0  0  0  0  0
    4.0582    3.8813   15.2635 O   0  0  0  0  0  0  0  0  0  0  0  0
    3.5015    3.5206   14.4829 H   0  0  0  0  0  0  0  0  0  0  0  0
    5.6623    4.5835   20.7208 O   0  0  0  0  0  0  0  0  0  0  0  0
    5.3699    4.3153   22.0620 C   0  0  0  0  0  0  0  0  0  0  0  0
    4.0271    4.7210   22.5243 C   0  0  0  0  0  0  0  0  0  0  0  0
    3.5829    3.8784   23.7216 C   0  0  0  0  0  0  0  0  0  0  0  0
    5.7616    2.9674   22.4827 C   0  0  0  0  0  0  0  0  0  0  0  0
    6.3263    1.9422   21.6045 C   0  0  0  0  0  0  0  0  0  0  0  0
    5.3981    0.9607   21.0285 C   0  0  0  0  0  0  0  0  0  0  0  0
    4.1918    0.7511   22.0096 C   0  0  0  0  0  0  0  0  0  0  0  0
    3.0041    0.5184   21.0976 C   0  0  0  0  0  0  0  0  0  0  0  0
    2.4961   -0.3370   18.8768 C   0  0  0  0  0  0  0  0  0  0  0  0
    3.3800    0.5944   19.6478 C   0  0  0  0  0  0  0  0  0  0  0  0
 28 29  1  0  0  0
 29 27  1  0  0  0
 27 26  1  0  0  0
 26 25  1  0  0  0
 25 24  1  0  0  0
 24 23  1  0  0  0
 23 20  1  0  0  0
 20 21  1  0  0  0
 21 22  1  0  0  0
 20 19  1  0  0  0
 19  1  1  0  0  0
  1  2  1  0  0  0
  2  3  2  0  0  0
  3 15  1  0  0  0
 15 16  2  0  0  0
 15 17  1  0  0  0
  3  4  1  0  0  0
  4  5  1  0  0  0
  5  6  1  0  0  0
  5  7  1  0  0  0
  7 10  1  0  0  0
 10 11  1  0  0  0
 11 12  1  0  0  0
 11 13  2  0  0  0
  7  1  1  0  0  0
 17 18  1  0  0  0
  6  8  1  0  0  0
  6  9  1  0  0  0
 10 14  1  0  0  0
M  END
> <minimizedAffinity>
-6.86795

> <CNNscore>
0.4750320911

> <CNNaffinity>
5.7501153946

> <CNN_VS>
2.7314894199

> <CNNaffinity_variance>
0.1419403106

$$$$
[H]OC(=O)C1=C([H])[C@@]([H])(O[C@@]([H])(C([H])([H])C([H])([H])[H])C([H])([H])C([H])([H])C([H])([H])C([H])([H])C([H])([H])C([H])([H])C([H])([H])[H])[C@]([H])(N([H])C(=O)C([H])([H])[H])[C@@]([H])(N([H])[H])C1([H])[H]


 29 29  0  0  0  0  0  0  0  0999 V2000
    5.5379    7.0184   20.9462 C   0  0  0  0  0  0  0  0  0  0  0  0
    6.8771    7.5052   20.4269 C   0  0  0  0  0  0  0  0  0  0  0  0
    7.6634    8.1708   21.2736 C   0  0  0  0  0  0  0  0  0  0  0  0
    7.0656    8.3099   22.6552 C   0  0  0  0  0  0  0  0  0  0  0  0
    6.8276    6.8921   23.1071 C   0  0  0  0  0  0  0  0  0  0  0  0
    8.1055    6.2085   23.2813 N   0  0  0  0  0  0  0  0  0  0  0  0
    5.9427    6.1683   22.1301 C   0  0  0  0  0  0  0  0  0  0  0  0
    8.9009    6.8840   23.2637 H   0  0  0  0  0  0  0  0  0  0  0  0
    8.1033    5.7223   24.2281 H   0  0  0  0  0  0  0  0  0  0  0  0
    4.8335    5.6613   22.9048 N   0  0  0  0  0  0  0  0  0  0  0  0
    4.4043    4.3186   22.8414 C   0  0  0  0  0  0  0  0  0  0  0  0
    3.2680    3.7904   23.6321 C   0  0  0  0  0  0  0  0  0  0  0  0
    5.0119    3.5283   22.0787 O   0  0  0  0  0  0  0  0  0  0  0  0
    4.3354    6.3236   23.5343 H   0  0  0  0  0  0  0  0  0  0  0  0
    8.9562    8.7123   20.9833 C   0  0  0  0  0  0  0  0  0  0  0  0
   10.0308    8.2253   21.4344 O   0  0  0  0  0  0  0  0  0  0  0  0
    9.0390    9.8374   20.1589 O   0  0  0  0  0  0  0  0  0  0  0  0
    9.8305    9.8569   19.5090 H   0  0  0  0  0  0  0  0  0  0  0  0
    4.9236    6.3375   19.9519 O   0  0  0  0  0  0  0  0  0  0  0  0
    3.7842    6.9060   19.3733 C   0  0  0  0  0  0  0  0  0  0  0  0
    3.8475    8.3586   19.1137 C   0  0  0  0  0  0  0  0  0  0  0  0
    4.4659    8.6431   17.7435 C   0  0  0  0  0  0  0  0  0  0  0  0
    3.2505    6.1247   18.2544 C   0  0  0  0  0  0  0  0  0  0  0  0
    3.6868    4.7779   17.8843 C   0  0  0  0  0  0  0  0  0  0  0  0
    2.9047    4.0722   16.8610 C   0  0  0  0  0  0  0  0  0  0  0  0
    3.8269    3.0362   16.1277 C   0  0  0  0  0  0  0  0  0  0  0  0
    4.7648    2.5392   17.2093 C   0  0  0  0  0  0  0  0  0  0  0  0
    4.0548    1.3609   19.2166 C   0  0  0  0  0  0  0  0  0  0  0  0
    4.3445    1.2072   17.7551 C   0  0  0  0  0  0  0  0  0  0  0  0
 28 29  1  0  0  0
 29 27  1  0  0  0
 27 26  1  0  0  0
 26 25  1  0  0  0
 25 24  1  0  0  0
 24 23  1  0  0  0
 23 20  1  0  0  0
 20 21  1  0  0  0
 21 22  1  0  0  0
 20 19  1  0  0  0
 19  1  1  0  0  0
  1  2  1  0  0  0
  2  3  2  0  0  0
  3 15  1  0  0  0
 15 16  2  0  0  0
 15 17  1  0  0  0
  3  4  1  0  0  0
  4  5  1  0  0  0
  5  6  1  0  0  0
  5  7  1  0  0  0
  7 10  1  0  0  0
 10 11  1  0  0  0
 11 12  1  0  0  0
 11 13  2  0  0  0
  7  1  1  0  0  0
 17 18  1  0  0  0
  6  8  1  0  0  0
  6  9  1  0  0  0
 10 14  1  0  0  0
M  END
> <minimizedAffinity>
-6.04760

> <CNNscore>
0.4510881007

> <CNNaffinity>
5.4314370155

> <CNN_VS>
2.4500565529

> <CNNaffinity_variance>
0.4145208299

$$$$
[H]OC(=O)C1=C([H])[C@@]([H])(O[C@@]([H])(C([H])([H])C([H])([H])[H])C([H])([H])C([H])([H])C([H])([H])C([H])([H])C([H])([H])C([H])([H])C([H])([H])[H])[C@]([H])(N([H])C(=O)C([H])([H])[H])[C@@]([H])(N([H])[H])C1([H])[H]


 29 29  0  0  0  0  0  0  0  0999 V2000
    4.9494    5.1113   19.6516 C   0  0  0  0  0  0  0  0  0  0  0  0
    5.0497    4.0670   18.5565 C   0  0  0  0  0  0  0  0  0  0  0  0
    3.9589    3.8292   17.8274 C   0  0  0  0  0  0  0  0  0  0  0  0
    2.7797    4.6877   18.2250 C   0  0  0  0  0  0  0  0  0  0  0  0
    3.2700    6.1026   18.0561 C   0  0  0  0  0  0  0  0  0  0  0  0
    3.5159    6.3744   16.6432 N   0  0  0  0  0  0  0  0  0  0  0  0
    4.5019    6.3368   18.8863 C   0  0  0  0  0  0  0  0  0  0  0  0
    3.1114    5.6262   16.0385 H   0  0  0  0  0  0  0  0  0  0  0  0
    3.0482    7.2962   16.3892 H   0  0  0  0  0  0  0  0  0  0  0  0
    4.2047    7.4810   19.7170 N   0  0  0  0  0  0  0  0  0  0  0  0
    5.1345    8.5143   19.9598 C   0  0  0  0  0  0  0  0  0  0  0  0
    4.8382    9.6908   20.8103 C   0  0  0  0  0  0  0  0  0  0  0  0
    6.2704    8.4378   19.4313 O   0  0  0  0  0  0  0  0  0  0  0  0
    3.2607    7.5361   20.1512 H   0  0  0  0  0  0  0  0  0  0  0  0
    3.8439    2.8883   16.7548 C   0  0  0  0  0  0  0  0  0  0  0  0
    3.7746    3.2252   15.5395 O   0  0  0  0  0  0  0  0  0  0  0  0
    3.8061    1.5260   17.0630 O   0  0  0  0  0  0  0  0  0  0  0  0
    4.3001    0.9076   16.4127 H   0  0  0  0  0  0  0  0  0  0  0  0
    6.1646    5.2278   20.2343 O   0  0  0  0  0  0  0  0  0  0  0  0
    6.2374    5.1250   21.6273 C   0  0  0  0  0  0  0  0  0  0  0  0
    7.3277    5.8819   22.2751 C   0  0  0  0  0  0  0  0  0  0  0  0
    6.7985    7.1708   22.9071 C   0  0  0  0  0  0  0  0  0  0  0  0
    4.9378    5.2708   22.2883 C   0  0  0  0  0  0  0  0  0  0  0  0
    4.3229    4.2741   23.1655 C   0  0  0  0  0  0  0  0  0  0  0  0
    4.8297    2.8982   23.0837 C   0  0  0  0  0  0  0  0  0  0  0  0
    3.9875    2.0981   22.0291 C   0  0  0  0  0  0  0  0  0  0  0  0
    5.0250    1.4733   21.1182 C   0  0  0  0  0  0  0  0  0  0  0  0
    7.1315    0.2641   21.2673 C   0  0  0  0  0  0  0  0  0  0  0  0
    6.3945    1.4835   21.7290 C   0  0  0  0  0  0  0  0  0  0  0  0
 28 29  1  0  0  0
 29 27  1  0  0  0
 27 26  1  0  0  0
 26 25  1  0  0  0
 25 24  1  0  0  0
 24 23  1  0  0  0
 23 20  1  0  0  0
 20 21  1  0  0  0
 21 22  1  0  0  0
 20 19  1  0  0  0
 19  1  1  0  0  0
  1  2  1  0  0  0
  2  3  2  0  0  0
  3 15  1  0  0  0
 15 16  2  0  0  0
 15 17  1  0  0  0
  3  4  1  0  0  0
  4  5  1  0  0  0
  5  6  1  0  0  0
  5  7  1  0  0  0
  7 10  1  0  0  0
 10 11  1  0  0  0
 11 12  1  0  0  0
 11 13  2  0  0  0
  7  1  1  0  0  0
 17 18  1  0  0  0
  6  8  1  0  0  0
  6  9  1  0  0  0
 10 14  1  0  0  0
M  END
> <minimizedAffinity>
-6.43132

> <CNNscore>
0.4387493134

> <CNNaffinity>
5.5098056793

> <CNN_VS>
2.4174234867

> <CNNaffinity_variance>
0.1633625180

$$$$
[H]OC(=O)C1=C([H])[C@@]([H])(O[C@@]([H])(C([H])([H])C([H])([H])[H])C([H])([H])C([H])([H])C([H])([H])C([H])([H])C([H])([H])C([H])([H])C([H])([H])[H])[C@]([H])(N([H])C(=O)C([H])([H])[H])[C@@]([H])(N([H])[H])C1([H])[H]


 29 29  0  0  0  0  0  0  0  0999 V2000
    5.0366    5.0935   20.5630 C   0  0  0  0  0  0  0  0  0  0  0  0
    4.9069    6.3321   21.4284 C   0  0  0  0  0  0  0  0  0  0  0  0
    5.2470    7.5024   20.8875 C   0  0  0  0  0  0  0  0  0  0  0  0
    5.6998    7.3834   19.4500 C   0  0  0  0  0  0  0  0  0  0  0  0
    4.5301    6.7548   18.7375 C   0  0  0  0  0  0  0  0  0  0  0  0
    3.3995    7.6781   18.7351 N   0  0  0  0  0  0  0  0  0  0  0  0
    4.1690    5.4409   19.3736 C   0  0  0  0  0  0  0  0  0  0  0  0
    3.6926    8.6352   19.0305 H   0  0  0  0  0  0  0  0  0  0  0  0
    3.0142    7.7393   17.7448 H   0  0  0  0  0  0  0  0  0  0  0  0
    4.2026    4.4656   18.3081 N   0  0  0  0  0  0  0  0  0  0  0  0
    3.1356    4.2817   17.4032 C   0  0  0  0  0  0  0  0  0  0  0  0
    3.1616    3.2841   16.3080 C   0  0  0  0  0  0  0  0  0  0  0  0
    2.1113    4.9962   17.5279 O   0  0  0  0  0  0  0  0  0  0  0  0
    5.0556    3.8775   18.2123 H   0  0  0  0  0  0  0  0  0  0  0  0
    5.1999    8.7801   21.5311 C   0  0  0  0  0  0  0  0  0  0  0  0
    4.8236    9.8370   20.9507 O   0  0  0  0  0  0  0  0  0  0  0  0
    5.5890    8.8679   22.8702 O   0  0  0  0  0  0  0  0  0  0  0  0
    5.0443    9.5116   23.4517 H   0  0  0  0  0  0  0  0  0  0  0  0
    4.6039    4.0317   21.2807 O   0  0  0  0  0  0  0  0  0  0  0  0
    5.3376    3.6611   22.4123 C   0  0  0  0  0  0  0  0  0  0  0  0
    4.5543    3.1205   23.5418 C   0  0  0  0  0  0  0  0  0  0  0  0
    3.2541    3.9043   23.7308 C   0  0  0  0  0  0  0  0  0  0  0  0
    6.5390    2.8842   22.0959 C   0  0  0  0  0  0  0  0  0  0  0  0
    6.5607    1.4521   21.7964 C   0  0  0  0  0  0  0  0  0  0  0  0
    5.7006    0.9774   20.7048 C   0  0  0  0  0  0  0  0  0  0  0  0
    4.5373    0.1103   21.3021 C   0  0  0  0  0  0  0  0  0  0  0  0
    3.2817    0.6940   20.6863 C   0  0  0  0  0  0  0  0  0  0  0  0
    2.8644    0.1392   18.3539 C   0  0  0  0  0  0  0  0  0  0  0  0
    2.5980   -0.2750   19.7684 C   0  0  0  0  0  0  0  0  0  0  0  0
 28 29  1  0  0  0
 29 27  1  0  0  0
 27 26  1  0  0  0
 26 25  1  0  0  0
 25 24  1  0  0  0
 24 23  1  0  0  0
 23 20  1  0  0  0
 20 21  1  0  0  0
 21 22  1  0  0  0
 20 19  1  0  0  0
 19  1  1  0  0  0
  1  2  1  0  0  0
  2  3  2  0  0  0
  3 15  1  0  0  0
 15 16  2  0  0  0
 15 17  1  0  0  0
  3  4  1  0  0  0
  4  5  1  0  0  0
  5  6  1  0  0  0
  5  7  1  0  0  0
  7 10  1  0  0  0
 10 11  1  0  0  0
 11 12  1  0  0  0
 11 13  2  0  0  0
  7  1  1  0  0  0
 17 18  1  0  0  0
  6  8  1  0  0  0
  6  9  1  0  0  0
 10 14  1  0  0  0
M  END
> <minimizedAffinity>
-6.88860

> <CNNscore>
0.4385415018

> <CNNaffinity>
6.0289068222

> <CNN_VS>
2.6439259052

> <CNNaffinity_variance>
0.0713012069

$$$$
[H]OC(=O)C1=C([H])[C@@]([H])(O[C@@]([H])(C([H])([H])C([H])([H])[H])C([H])([H])C([H])([H])C([H])([H])C([H])([H])C([H])([H])C([H])([H])C([H])([H])[H])[C@]([H])(N([H])C(=O)C([H])([H])[H])[C@@]([H])(N([H])[H])C1([H])[H]


 29 29  0  0  0  0  0  0  0  0999 V2000
    4.3630    5.2959   18.4543 C   0  0  0  0  0  0  0  0  0  0  0  0
    4.0457    6.3137   19.5329 C   0  0  0  0  0  0  0  0  0  0  0  0
    4.7249    7.4611   19.5190 C   0  0  0  0  0  0  0  0  0  0  0  0
    5.7124    7.5532   18.3780 C   0  0  0  0  0  0  0  0  0  0  0  0
    4.8726    7.3833   17.1383 C   0  0  0  0  0  0  0  0  0  0  0  0
    3.9716    8.5226   16.9925 N   0  0  0  0  0  0  0  0  0  0  0  0
    4.1168    6.0841   17.1869 C   0  0  0  0  0  0  0  0  0  0  0  0
    4.2355    9.2981   17.6391 H   0  0  0  0  0  0  0  0  0  0  0  0
    4.0416    8.8841   15.9939 H   0  0  0  0  0  0  0  0  0  0  0  0
    4.4637    5.3816   15.9730 N   0  0  0  0  0  0  0  0  0  0  0  0
    3.5023    4.7758   15.1364 C   0  0  0  0  0  0  0  0  0  0  0  0
    3.8491    4.0534   13.8901 C   0  0  0  0  0  0  0  0  0  0  0  0
    2.2917    4.8497   15.4595 O   0  0  0  0  0  0  0  0  0  0  0  0
    5.4696    5.3251   15.7130 H   0  0  0  0  0  0  0  0  0  0  0  0
    4.5787    8.5447   20.4427 C   0  0  0  0  0  0  0  0  0  0  0  0
    4.5223    9.7561   20.0896 O   0  0  0  0  0  0  0  0  0  0  0  0
    4.4935    8.2524   21.8065 O   0  0  0  0  0  0  0  0  0  0  0  0
    3.8447    8.8321   22.3472 H   0  0  0  0  0  0  0  0  0  0  0  0
    3.5410    4.2348   18.6223 O   0  0  0  0  0  0  0  0  0  0  0  0
    4.1213    2.9690   18.7532 C   0  0  0  0  0  0  0  0  0  0  0  0
    4.5833    2.3372   17.5006 C   0  0  0  0  0  0  0  0  0  0  0  0
    3.7020    1.1418   17.1334 C   0  0  0  0  0  0  0  0  0  0  0  0
    5.0859    2.8840   19.8530 C   0  0  0  0  0  0  0  0  0  0  0  0
    5.3369    1.6911   20.6623 C   0  0  0  0  0  0  0  0  0  0  0  0
    6.3820    1.7801   21.6902 C   0  0  0  0  0  0  0  0  0  0  0  0
    6.1620    3.0800   22.5409 C   0  0  0  0  0  0  0  0  0  0  0  0
    5.1694    2.6648   23.6081 C   0  0  0  0  0  0  0  0  0  0  0  0
    4.2726    4.8194   22.9190 C   0  0  0  0  0  0  0  0  0  0  0  0
    3.9464    3.5325   23.6123 C   0  0  0  0  0  0  0  0  0  0  0  0
 28 29  1  0  0  0
 29 27  1  0  0  0
 27 26  1  0  0  0
 26 25  1  0  0  0
 25 24  1  0  0  0
 24 23  1  0  0  0
 23 20  1  0  0  0
 20 21  1  0  0  0
 21 22  1  0  0  0
 20 19  1  0  0  0
 19  1  1  0  0  0
  1  2  1  0  0  0
  2  3  2  0  0  0
  3 15  1  0  0  0
 15 16  2  0  0  0
 15 17  1  0  0  0
  3  4  1  0  0  0
  4  5  1  0  0  0
  5  6  1  0  0  0
  5  7  1  0  0  0
  7 10  1  0  0  0
 10 11  1  0  0  0
 11 12  1  0  0  0
 11 13  2  0  0  0
  7  1  1  0  0  0
 17 18  1  0  0  0
  6  8  1  0  0  0
  6  9  1  0  0  0
 10 14  1  0  0  0
M  END
> <minimizedAffinity>
-7.10648

> <CNNscore>
0.4342083037

> <CNNaffinity>
5.6530036926

> <CNN_VS>
2.4545812607

> <CNNaffinity_variance>
0.1687143743

$$$$
[H]OC(=O)C1=C([H])[C@@]([H])(O[C@@]([H])(C([H])([H])C([H])([H])[H])C([H])([H])C([H])([H])C([H])([H])C([H])([H])C([H])([H])C([H])([H])C([H])([H])[H])[C@]([H])(N([H])C(=O)C([H])([H])[H])[C@@]([H])(N([H])[H])C1([H])[H]


 29 29  0  0  0  0  0  0  0  0999 V2000
    5.2138    5.2345   17.2427 C   0  0  0  0  0  0  0  0  0  0  0  0
    6.2502    5.7596   18.2175 C   0  0  0  0  0  0  0  0  0  0  0  0
    6.3271    7.0800   18.3861 C   0  0  0  0  0  0  0  0  0  0  0  0
    5.3181    7.8443   17.5594 C   0  0  0  0  0  0  0  0  0  0  0  0
    3.9828    7.2996   17.9968 C   0  0  0  0  0  0  0  0  0  0  0  0
    3.7325    7.6646   19.3878 N   0  0  0  0  0  0  0  0  0  0  0  0
    3.9301    5.8098   17.7986 C   0  0  0  0  0  0  0  0  0  0  0  0
    4.4111    8.3859   19.7171 H   0  0  0  0  0  0  0  0  0  0  0  0
    2.7523    8.0732   19.4597 H   0  0  0  0  0  0  0  0  0  0  0  0
    2.7648    5.5628   16.9809 N   0  0  0  0  0  0  0  0  0  0  0  0
    2.7507    5.7668   15.5847 C   0  0  0  0  0  0  0  0  0  0  0  0
    1.5604    5.5162   14.7387 C   0  0  0  0  0  0  0  0  0  0  0  0
    3.7960    6.1810   15.0268 O   0  0  0  0  0  0  0  0  0  0  0  0
    1.9026    5.2197   17.4518 H   0  0  0  0  0  0  0  0  0  0  0  0
    7.2315    7.7734   19.2521 C   0  0  0  0  0  0  0  0  0  0  0  0
    6.8873    8.2730   20.3600 O   0  0  0  0  0  0  0  0  0  0  0  0
    8.5648    7.9071   18.8562 O   0  0  0  0  0  0  0  0  0  0  0  0
    9.2619    7.8285   19.6027 H   0  0  0  0  0  0  0  0  0  0  0  0
    5.2727    3.8831   17.2536 O   0  0  0  0  0  0  0  0  0  0  0  0
    4.1217    3.1788   17.6216 C   0  0  0  0  0  0  0  0  0  0  0  0
    3.6141    2.2075   16.6314 C   0  0  0  0  0  0  0  0  0  0  0  0
    3.5124    0.8078   17.2404 C   0  0  0  0  0  0  0  0  0  0  0  0
    4.1720    2.6604   18.9913 C   0  0  0  0  0  0  0  0  0  0  0  0
    5.3253    2.7581   19.8865 C   0  0  0  0  0  0  0  0  0  0  0  0
    5.3741    1.8353   21.0279 C   0  0  0  0  0  0  0  0  0  0  0  0
    3.9117    1.4423   21.4387 C   0  0  0  0  0  0  0  0  0  0  0  0
    3.8932    1.5945   22.9464 C   0  0  0  0  0  0  0  0  0  0  0  0
    3.6399    3.9523   23.4931 C   0  0  0  0  0  0  0  0  0  0  0  0
    4.6212    2.8245   23.4003 C   0  0  0  0  0  0  0  0  0  0  0  0
 28 29  1  0  0  0
 29 27  1  0  0  0
 27 26  1  0  0  0
 26 25  1  0  0  0
 25 24  1  0  0  0
 24 23  1  0  0  0
 23 20  1  0  0  0
 20 21  1  0  0  0
 21 22  1  0  0  0
 20 19  1  0  0  0
 19  1  1  0  0  0
  1  2  1  0  0  0
  2  3  2  0  0  0
  3 15  1  0  0  0
 15 16  2  0  0  0
 15 17  1  0  0  0
  3  4  1  0  0  0
  4  5  1  0  0  0
  5  6  1  0  0  0
  5  7  1  0  0  0
  7 10  1  0  0  0
 10 11  1  0  0  0
 11 12  1  0  0  0
 11 13  2  0  0  0
  7  1  1  0  0  0
 17 18  1  0  0  0
  6  8  1  0  0  0
  6  9  1  0  0  0
 10 14  1  0  0  0
M  END
> <minimizedAffinity>
-6.44871

> <CNNscore>
0.4340085983

> <CNNaffinity>
5.5884313583

> <CNN_VS>
2.4254271984

> <CNNaffinity_variance>
0.2900251150

$$$$
[H]OC(=O)C1=C([H])[C@@]([H])(O[C@@]([H])(C([H])([H])C([H])([H])[H])C([H])([H])C([H])([H])C([H])([H])C([H])([H])C([H])([H])C([H])([H])C([H])([H])[H])[C@]([H])(N([H])C(=O)C([H])([H])[H])[C@@]([H])(N([H])[H])C1([H])[H]


 29 29  0  0  0  0  0  0  0  0999 V2000
    4.2173    5.6140   18.9989 C   0  0  0  0  0  0  0  0  0  0  0  0
    3.8381    7.0778   18.8833 C   0  0  0  0  0  0  0  0  0  0  0  0
    4.2563    7.7414   17.8050 C   0  0  0  0  0  0  0  0  0  0  0  0
    5.0465    6.8797   16.8466 C   0  0  0  0  0  0  0  0  0  0  0  0
    4.1068    5.7582   16.4858 C   0  0  0  0  0  0  0  0  0  0  0  0
    2.9776    6.2858   15.7258 N   0  0  0  0  0  0  0  0  0  0  0  0
    3.6503    5.0339   17.7222 C   0  0  0  0  0  0  0  0  0  0  0  0
    3.1561    7.2660   15.4152 H   0  0  0  0  0  0  0  0  0  0  0  0
    2.8407    5.6823   14.8598 H   0  0  0  0  0  0  0  0  0  0  0  0
    3.9751    3.6429   17.5055 N   0  0  0  0  0  0  0  0  0  0  0  0
    3.1411    2.7646   16.7815 C   0  0  0  0  0  0  0  0  0  0  0  0
    3.4663    1.3370   16.5547 C   0  0  0  0  0  0  0  0  0  0  0  0
    2.0693    3.2100   16.3036 O   0  0  0  0  0  0  0  0  0  0  0  0
    4.8655    3.2822   17.9054 H   0  0  0  0  0  0  0  0  0  0  0  0
    4.0093    9.1197   17.5084 C   0  0  0  0  0  0  0  0  0  0  0  0
    3.2013    9.8372   18.1624 O   0  0  0  0  0  0  0  0  0  0  0  0
    4.6949    9.7063   16.4415 O   0  0  0  0  0  0  0  0  0  0  0  0
    4.9919   10.6765   16.5815 H   0  0  0  0  0  0  0  0  0  0  0  0
    3.6627    5.1239   20.1312 O   0  0  0  0  0  0  0  0  0  0  0  0
    4.5185    4.7433   21.1700 C   0  0  0  0  0  0  0  0  0  0  0  0
    5.9326    5.1431   21.0217 C   0  0  0  0  0  0  0  0  0  0  0  0
    6.3092    6.2129   22.0485 C   0  0  0  0  0  0  0  0  0  0  0  0
    3.9642    5.0006   22.5018 C   0  0  0  0  0  0  0  0  0  0  0  0
    3.7355    3.9843   23.5293 C   0  0  0  0  0  0  0  0  0  0  0  0
    3.5257    2.6028   23.0775 C   0  0  0  0  0  0  0  0  0  0  0  0
    4.8443    1.7809   23.2955 C   0  0  0  0  0  0  0  0  0  0  0  0
    5.2283    1.3145   21.9057 C   0  0  0  0  0  0  0  0  0  0  0  0
    7.2359    0.1129   21.2369 C   0  0  0  0  0  0  0  0  0  0  0  0
    6.6997    1.4492   21.6495 C   0  0  0  0  0  0  0  0  0  0  0  0
 28 29  1  0  0  0
 29 27  1  0  0  0
 27 26  1  0  0  0
 26 25  1  0  0  0
 25 24  1  0  0  0
 24 23  1  0  0  0
 23 20  1  0  0  0
 20 21  1  0  0  0
 21 22  1  0  0  0
 20 19  1  0  0  0
 19  1  1  0  0  0
  1  2  1  0  0  0
  2  3  2  0  0  0
  3 15  1  0  0  0
 15 16  2  0  0  0
 15 17  1  0  0  0
  3  4  1  0  0  0
  4  5  1  0  0  0
  5  6  1  0  0  0
  5  7  1  0  0  0
  7 10  1  0  0  0
 10 11  1  0  0  0
 11 12  1  0  0  0
 11 13  2  0  0  0
  7  1  1  0  0  0
 17 18  1  0  0  0
  6  8  1  0  0  0
  6  9  1  0  0  0
 10 14  1  0  0  0
M  END
> <minimizedAffinity>
-6.29897

> <CNNscore>
0.4324624836

> <CNNaffinity>
5.5260057449

> <CNN_VS>
2.3897900581

> <CNNaffinity_variance>
0.5401027799

$$$$
[H]OC(=O)C1=C([H])[C@@]([H])(O[C@@]([H])(C([H])([H])C([H])([H])[H])C([H])([H])C([H])([H])C([H])([H])C([H])([H])C([H])([H])C([H])([H])C([H])([H])[H])[C@]([H])(N([H])C(=O)C([H])([H])[H])[C@@]([H])(N([H])[H])C1([H])[H]


 29 29  0  0  0  0  0  0  0  0999 V2000
    4.0293    5.4523   17.5947 C   0  0  0  0  0  0  0  0  0  0  0  0
    3.5488    6.4934   18.5873 C   0  0  0  0  0  0  0  0  0  0  0  0
    4.0705    7.7174   18.5003 C   0  0  0  0  0  0  0  0  0  0  0  0
    5.0702    7.8586   17.3751 C   0  0  0  0  0  0  0  0  0  0  0  0
    4.2969    7.4890   16.1355 C   0  0  0  0  0  0  0  0  0  0  0  0
    3.2580    8.4839   15.8870 N   0  0  0  0  0  0  0  0  0  0  0  0
    3.7183    6.1072   16.2671 C   0  0  0  0  0  0  0  0  0  0  0  0
    3.3980    9.3323   16.4785 H   0  0  0  0  0  0  0  0  0  0  0  0
    3.3088    8.7787   14.8656 H   0  0  0  0  0  0  0  0  0  0  0  0
    4.1904    5.3719   15.1164 N   0  0  0  0  0  0  0  0  0  0  0  0
    3.3292    4.6562   14.2577 C   0  0  0  0  0  0  0  0  0  0  0  0
    3.8048    3.8996   13.0759 C   0  0  0  0  0  0  0  0  0  0  0  0
    2.0983    4.6574   14.5029 O   0  0  0  0  0  0  0  0  0  0  0  0
    5.2124    5.3763   14.9208 H   0  0  0  0  0  0  0  0  0  0  0  0
    3.7555    8.8352   19.3370 C   0  0  0  0  0  0  0  0  0  0  0  0
    4.5008    9.2320   20.2764 O   0  0  0  0  0  0  0  0  0  0  0  0
    2.5632    9.5265   19.1066 O   0  0  0  0  0  0  0  0  0  0  0  0
    2.6066   10.5429   19.2260 H   0  0  0  0  0  0  0  0  0  0  0  0
    3.3502    4.3055   17.8260 O   0  0  0  0  0  0  0  0  0  0  0  0
    4.0703    3.1966   18.2821 C   0  0  0  0  0  0  0  0  0  0  0  0
    4.3000    2.1239   17.2931 C   0  0  0  0  0  0  0  0  0  0  0  0
    3.4059    0.9158   17.5787 C   0  0  0  0  0  0  0  0  0  0  0  0
    5.2611    3.5568   19.0563 C   0  0  0  0  0  0  0  0  0  0  0  0
    5.3373    3.5899   20.5171 C   0  0  0  0  0  0  0  0  0  0  0  0
    4.2191    3.0009   21.2651 C   0  0  0  0  0  0  0  0  0  0  0  0
    4.7841    2.0400   22.3693 C   0  0  0  0  0  0  0  0  0  0  0  0
    3.6335    1.1015   22.6726 C   0  0  0  0  0  0  0  0  0  0  0  0
    3.4238   -0.7368   21.0919 C   0  0  0  0  0  0  0  0  0  0  0  0
    2.9367    0.6392   21.4278 C   0  0  0  0  0  0  0  0  0  0  0  0
 28 29  1  0  0  0
 29 27  1  0  0  0
 27 26  1  0  0  0
 26 25  1  0  0  0
 25 24  1  0  0  0
 24 23  1  0  0  0
 23 20  1  0  0  0
 20 21  1  0  0  0
 21 22  1  0  0  0
 20 19  1  0  0  0
 19  1  1  0  0  0
  1  2  1  0  0  0
  2  3  2  0  0  0
  3 15  1  0  0  0
 15 16  2  0  0  0
 15 17  1  0  0  0
  3  4  1  0  0  0
  4  5  1  0  0  0
  5  6  1  0  0  0
  5  7  1  0  0  0
  7 10  1  0  0  0
 10 11  1  0  0  0
 11 12  1  0  0  0
 11 13  2  0  0  0
  7  1  1  0  0  0
 17 18  1  0  0  0
  6  8  1  0  0  0
  6  9  1  0  0  0
 10 14  1  0  0  0
M  END
> <minimizedAffinity>
-6.58806

> <CNNscore>
0.3990114331

> <CNNaffinity>
5.6868877411

> <CNN_VS>
2.2691333294

> <CNNaffinity_variance>
0.1603391618

$$$$
[H]c1c([H])c(-c2c([H])c([H])c(C([H])(C(=O)N([H])C([H])([H])C([H])([H])C([H])([H])C([H])([H])C([H])([H])C([H])([H])N([H])c3c4c(nc5c([H])c([H])c([H])c([H])c35)C([H])([H])C([H])([H])C([H])([H])C4([H])[H])C([H])([H])[H])c([H])c2F)c([H])c([H])c1OC([H])([H])C([H])([H])C([H])([H])C([H])([H])C([H])([H])C([H])([H])O[N+](=O)[O-]


 52 56  0  0  0  0  0  0  0  0999 V2000
    6.2417    0.4731   20.8835 C   0  0  0  0  0  0  0  0  0  0  0  0
    4.7202    0.5817   20.9106 C   0  0  0  0  0  0  0  0  0  0  0  0
    4.2938    1.0681   19.5841 C   0  0  0  0  0  0  0  0  0  0  0  0
    4.7258    2.2983   19.1476 C   0  0  0  0  0  0  0  0  0  0  0  0
    4.3378    2.8123   17.9093 C   0  0  0  0  0  0  0  0  0  0  0  0
    3.5131    2.0780   17.1161 C   0  0  0  0  0  0  0  0  0  0  0  0
    3.0700    0.8466   17.5329 C   0  0  0  0  0  0  0  0  0  0  0  0
    2.2431    0.1053   16.7578 F   0  0  0  0  0  0  0  0  0  0  0  0
    3.4643    0.3381   18.7779 C   0  0  0  0  0  0  0  0  0  0  0  0
    3.0980    2.5847   15.8211 C   0  0  0  0  0  0  0  0  0  0  0  0
    2.9841    1.7664   14.7198 C   0  0  0  0  0  0  0  0  0  0  0  0
    2.5757    2.2797   13.4845 C   0  0  0  0  0  0  0  0  0  0  0  0
    2.2700    3.6061   13.2977 C   0  0  0  0  0  0  0  0  0  0  0  0
    2.3910    4.4303   14.4351 C   0  0  0  0  0  0  0  0  0  0  0  0
    2.7908    3.9133   15.6347 C   0  0  0  0  0  0  0  0  0  0  0  0
    1.8686    4.1887   12.1226 O   0  0  0  0  0  0  0  0  0  0  0  0
    1.5480    5.5269   11.9114 C   0  0  0  0  0  0  0  0  0  0  0  0
    0.2067    5.6462   11.2614 C   0  0  0  0  0  0  0  0  0  0  0  0
   -0.7437    4.6296   11.8221 C   0  0  0  0  0  0  0  0  0  0  0  0
   -2.1444    5.1352   11.7731 C   0  0  0  0  0  0  0  0  0  0  0  0
   -3.0227    4.3675   10.8184 C   0  0  0  0  0  0  0  0  0  0  0  0
   -3.9515    5.3137   10.1145 C   0  0  0  0  0  0  0  0  0  0  0  0
   -5.2592    4.7151   10.0801 O   0  0  0  0  0  0  0  0  0  0  0  0
   -6.2364    5.3563   10.8025 N   0  0  0  0  0  0  0  0  0  0  0  0
   -7.3069    4.8031   11.1157 O   0  0  0  0  0  0  0  0  0  0  0  0
   -5.9638    6.6619   11.1661 O   0  0  0  0  0  0  0  0  0  0  0  0
    4.2280    1.3483   22.0533 C   0  0  0  0  0  0  0  0  0  0  0  0
    3.0719    1.0984   22.5465 O   0  0  0  0  0  0  0  0  0  0  0  0
    4.9430    2.3859   22.6940 N   0  0  0  0  0  0  0  0  0  0  0  0
    5.8878    2.6243   22.3287 H   0  0  0  0  0  0  0  0  0  0  0  0
    4.4466    3.1282   23.8206 C   0  0  0  0  0  0  0  0  0  0  0  0
    3.8801    4.4700   23.4233 C   0  0  0  0  0  0  0  0  0  0  0  0
    4.7727    5.1170   22.3830 C   0  0  0  0  0  0  0  0  0  0  0  0
    3.8895    5.4171   21.1703 C   0  0  0  0  0  0  0  0  0  0  0  0
    4.6937    5.9006   20.0247 C   0  0  0  0  0  0  0  0  0  0  0  0
    4.1420    7.0467   19.2886 C   0  0  0  0  0  0  0  0  0  0  0  0
    3.8552    8.2277   19.9851 N   0  0  0  0  0  0  0  0  0  0  0  0
    2.9441    8.2074   20.5807 H   0  0  0  0  0  0  0  0  0  0  0  0
    4.5151    9.4549   20.0718 C   0  0  0  0  0  0  0  0  0  0  0  0
    4.1621   10.4814   19.2185 C   0  0  0  0  0  0  0  0  0  0  0  0
    4.7802   11.7043   19.3368 C   0  0  0  0  0  0  0  0  0  0  0  0
    5.7317   11.8821   20.2973 N   0  0  0  0  0  0  0  0  0  0  0  0
    6.1026   10.9118   21.1458 C   0  0  0  0  0  0  0  0  0  0  0  0
    7.0620   11.1171   22.1081 C   0  0  0  0  0  0  0  0  0  0  0  0
    7.4267   10.1203   22.9681 C   0  0  0  0  0  0  0  0  0  0  0  0
    6.8063    8.8942   22.8484 C   0  0  0  0  0  0  0  0  0  0  0  0
    5.8509    8.6657   21.9010 C   0  0  0  0  0  0  0  0  0  0  0  0
    5.4876    9.6827   21.0330 C   0  0  0  0  0  0  0  0  0  0  0  0
    4.4158   12.7927   18.4237 C   0  0  0  0  0  0  0  0  0  0  0  0
    3.0184   12.7677   17.9103 C   0  0  0  0  0  0  0  0  0  0  0  0
    2.2215   11.5545   18.3014 C   0  0  0  0  0  0  0  0  0  0  0  0
    3.1205   10.3218   18.1749 C   0  0  0  0  0  0  0  0  0  0  0  0
  1  2  1  0  0  0
  2 27  1  0  0  0
 27 28  2  0  0  0
 27 29  1  0  0  0
 29 31  1  0  0  0
 31 32  1  0  0  0
 32 33  1  0  0  0
 33 34  1  0  0  0
 34 35  1  0  0  0
 35 36  1  0  0  0
 36 37  1  0  0  0
 37 39  1  0  0  0
 39 40  2  0  0  0
 40 41  1  0  0  0
 41 42  2  0  0  0
 42 43  1  0  0  0
 43 44  2  0  0  0
 44 45  1  0  0  0
 45 46  2  0  0  0
 46 47  1  0  0  0
 47 48  2  0  0  0
 41 49  1  0  0  0
 49 50  1  0  0  0
 50 51  1  0  0  0
 51 52  1  0  0  0
  2  3  1  0  0  0
  3  4  2  0  0  0
  4  5  1  0  0  0
  5  6  2  0  0  0
  6 10  1  0  0  0
 10 11  2  0  0  0
 11 12  1  0  0  0
 12 13  2  0  0  0
 13 16  1  0  0  0
 16 17  1  0  0  0
 17 18  1  0  0  0
 18 19  1  0  0  0
 19 20  1  0  0  0
 20 21  1  0  0  0
 21 22  1  0  0  0
 22 23  1  0  0  0
 23 24  1  0  0  0
 24 25  2  0  0  0
 24 26  1  0  0  0
 13 14  1  0  0  0
 14 15  2  0  0  0
  6  7  1  0  0  0
  7  8  1  0  0  0
  7  9  2  0  0  0
 48 39  1  0  0  0
  9  3  1  0  0  0
 52 40  1  0  0  0
 15 10  1  0  0  0
 48 43  1  0  0  0
 29 30  1  0  0  0
 37 38  1  0  0  0
M  CHG 1  24   1
M  CHG 1  26  -1
M  END
> <minimizedAffinity>
-9.10581

> <CNNscore>
0.3540348113

> <CNNaffinity>
7.4720468521

> <CNN_VS>
2.6453647614

> <CNNaffinity_variance>
0.2854148746

$$$$
[H]c1c([H])c(-c2c([H])c([H])c(C([H])(C(=O)N([H])C([H])([H])C([H])([H])C([H])([H])C([H])([H])C([H])([H])C([H])([H])N([H])c3c4c(nc5c([H])c([H])c([H])c([H])c35)C([H])([H])C([H])([H])C([H])([H])C4([H])[H])C([H])([H])[H])c([H])c2F)c([H])c([H])c1OC([H])([H])C([H])([H])C([H])([H])C([H])([H])C([H])([H])C([H])([H])O[N+](=O)[O-]


 52 56  0  0  0  0  0  0  0  0999 V2000
    5.1681    3.1230   17.9452 C   0  0  0  0  0  0  0  0  0  0  0  0
    4.4042    2.0335   17.1989 C   0  0  0  0  0  0  0  0  0  0  0  0
    3.5755    2.7030   16.1777 C   0  0  0  0  0  0  0  0  0  0  0  0
    3.4718    2.1468   14.9246 C   0  0  0  0  0  0  0  0  0  0  0  0
    2.7154    2.7487   13.9178 C   0  0  0  0  0  0  0  0  0  0  0  0
    2.0657    3.9131   14.1835 C   0  0  0  0  0  0  0  0  0  0  0  0
    2.1559    4.4857   15.4287 C   0  0  0  0  0  0  0  0  0  0  0  0
    1.5201    5.6484   15.7080 F   0  0  0  0  0  0  0  0  0  0  0  0
    2.9177    3.8746   16.4339 C   0  0  0  0  0  0  0  0  0  0  0  0
    1.2673    4.5584   13.1577 C   0  0  0  0  0  0  0  0  0  0  0  0
    1.6087    5.7836   12.6305 C   0  0  0  0  0  0  0  0  0  0  0  0
    0.8248    6.3803   11.6378 C   0  0  0  0  0  0  0  0  0  0  0  0
   -0.3121    5.7926   11.1382 C   0  0  0  0  0  0  0  0  0  0  0  0
   -0.6474    4.5383   11.6879 C   0  0  0  0  0  0  0  0  0  0  0  0
    0.1291    3.9687   12.6567 C   0  0  0  0  0  0  0  0  0  0  0  0
   -1.1365    6.3111   10.1723 O   0  0  0  0  0  0  0  0  0  0  0  0
   -1.6114    5.6657    9.0338 C   0  0  0  0  0  0  0  0  0  0  0  0
   -3.0971    5.5122    9.1021 C   0  0  0  0  0  0  0  0  0  0  0  0
   -3.4726    4.0658    9.2353 C   0  0  0  0  0  0  0  0  0  0  0  0
   -3.9636    3.7740   10.6115 C   0  0  0  0  0  0  0  0  0  0  0  0
   -4.5909    4.9668   11.2865 C   0  0  0  0  0  0  0  0  0  0  0  0
   -6.0321    4.6758   11.5893 C   0  0  0  0  0  0  0  0  0  0  0  0
   -6.8278    5.7481   11.0539 O   0  0  0  0  0  0  0  0  0  0  0  0
   -7.8194    5.3842   10.1753 N   0  0  0  0  0  0  0  0  0  0  0  0
   -9.0232    5.3759   10.4929 O   0  0  0  0  0  0  0  0  0  0  0  0
   -7.4039    5.0239    8.9069 O   0  0  0  0  0  0  0  0  0  0  0  0
    3.6916    1.1262   18.0961 C   0  0  0  0  0  0  0  0  0  0  0  0
    2.9138    0.2270   17.6179 O   0  0  0  0  0  0  0  0  0  0  0  0
    3.7873    1.1500   19.5063 N   0  0  0  0  0  0  0  0  0  0  0  0
    4.4082    1.8632   19.9406 H   0  0  0  0  0  0  0  0  0  0  0  0
    3.0828    0.2473   20.3755 C   0  0  0  0  0  0  0  0  0  0  0  0
    3.3762    0.5037   21.8341 C   0  0  0  0  0  0  0  0  0  0  0  0
    4.4859    1.5282   21.9627 C   0  0  0  0  0  0  0  0  0  0  0  0
    3.8920    2.7304   22.6992 C   0  0  0  0  0  0  0  0  0  0  0  0
    4.6139    3.9788   22.3624 C   0  0  0  0  0  0  0  0  0  0  0  0
    3.8142    5.2116   22.3863 C   0  0  0  0  0  0  0  0  0  0  0  0
    4.3556    6.3837   21.8428 N   0  0  0  0  0  0  0  0  0  0  0  0
    3.8703    7.3078   22.1520 H   0  0  0  0  0  0  0  0  0  0  0  0
    5.4155    6.6129   20.9634 C   0  0  0  0  0  0  0  0  0  0  0  0
    5.1929    6.5732   19.6013 C   0  0  0  0  0  0  0  0  0  0  0  0
    6.2273    6.8460   18.7371 C   0  0  0  0  0  0  0  0  0  0  0  0
    7.4565    7.1526   19.2415 N   0  0  0  0  0  0  0  0  0  0  0  0
    7.7139    7.2026   20.5569 C   0  0  0  0  0  0  0  0  0  0  0  0
    8.9610    7.5179   21.0407 C   0  0  0  0  0  0  0  0  0  0  0  0
    9.2074    7.5689   22.3834 C   0  0  0  0  0  0  0  0  0  0  0  0
    8.1692    7.2949   23.2493 C   0  0  0  0  0  0  0  0  0  0  0  0
    6.9222    6.9792   22.7934 C   0  0  0  0  0  0  0  0  0  0  0  0
    6.6818    6.9298   21.4297 C   0  0  0  0  0  0  0  0  0  0  0  0
    5.9967    6.7925   17.2896 C   0  0  0  0  0  0  0  0  0  0  0  0
    4.6138    7.1146   16.8412 C   0  0  0  0  0  0  0  0  0  0  0  0
    3.6203    7.3213   17.9503 C   0  0  0  0  0  0  0  0  0  0  0  0
    3.8636    6.2578   19.0243 C   0  0  0  0  0  0  0  0  0  0  0  0
  1  2  1  0  0  0
  2 27  1  0  0  0
 27 28  2  0  0  0
 27 29  1  0  0  0
 29 31  1  0  0  0
 31 32  1  0  0  0
 32 33  1  0  0  0
 33 34  1  0  0  0
 34 35  1  0  0  0
 35 36  1  0  0  0
 36 37  1  0  0  0
 37 39  1  0  0  0
 39 40  2  0  0  0
 40 41  1  0  0  0
 41 42  2  0  0  0
 42 43  1  0  0  0
 43 44  2  0  0  0
 44 45  1  0  0  0
 45 46  2  0  0  0
 46 47  1  0  0  0
 47 48  2  0  0  0
 41 49  1  0  0  0
 49 50  1  0  0  0
 50 51  1  0  0  0
 51 52  1  0  0  0
  2  3  1  0  0  0
  3  4  2  0  0  0
  4  5  1  0  0  0
  5  6  2  0  0  0
  6 10  1  0  0  0
 10 11  2  0  0  0
 11 12  1  0  0  0
 12 13  2  0  0  0
 13 16  1  0  0  0
 16 17  1  0  0  0
 17 18  1  0  0  0
 18 19  1  0  0  0
 19 20  1  0  0  0
 20 21  1  0  0  0
 21 22  1  0  0  0
 22 23  1  0  0  0
 23 24  1  0  0  0
 24 25  2  0  0  0
 24 26  1  0  0  0
 13 14  1  0  0  0
 14 15  2  0  0  0
  6  7  1  0  0  0
  7  8  1  0  0  0
  7  9  2  0  0  0
 48 39  1  0  0  0
  9  3  1  0  0  0
 52 40  1  0  0  0
 15 10  1  0  0  0
 48 43  1  0  0  0
 29 30  1  0  0  0
 37 38  1  0  0  0
M  CHG 1  24   1
M  CHG 1  26  -1
M  END
> <minimizedAffinity>
-8.11970

> <CNNscore>
0.2668086588

> <CNNaffinity>
7.4820861816

> <CNN_VS>
1.9962854385

> <CNNaffinity_variance>
0.2996253669

$$$$
[H]c1c([H])c(-c2c([H])c([H])c(C([H])(C(=O)N([H])C([H])([H])C([H])([H])C([H])([H])C([H])([H])C([H])([H])C([H])([H])N([H])c3c4c(nc5c([H])c([H])c([H])c([H])c35)C([H])([H])C([H])([H])C([H])([H])C4([H])[H])C([H])([H])[H])c([H])c2F)c([H])c([H])c1OC([H])([H])C([H])([H])C([H])([H])C([H])([H])C([H])([H])C([H])([H])O[N+](=O)[O-]


 52 56  0  0  0  0  0  0  0  0999 V2000
    3.7501   11.3398   14.5093 C   0  0  0  0  0  0  0  0  0  0  0  0
    3.4059   10.5921   15.7939 C   0  0  0  0  0  0  0  0  0  0  0  0
    3.9518   11.3793   16.9165 C   0  0  0  0  0  0  0  0  0  0  0  0
    3.1567   11.6344   18.0089 C   0  0  0  0  0  0  0  0  0  0  0  0
    3.6184   12.3882   19.0890 C   0  0  0  0  0  0  0  0  0  0  0  0
    4.8850   12.8817   19.0595 C   0  0  0  0  0  0  0  0  0  0  0  0
    5.6958   12.6386   17.9779 C   0  0  0  0  0  0  0  0  0  0  0  0
    6.9577   13.1279   17.9299 F   0  0  0  0  0  0  0  0  0  0  0  0
    5.2242   11.8807   16.8975 C   0  0  0  0  0  0  0  0  0  0  0  0
    5.3936   13.6639   20.1710 C   0  0  0  0  0  0  0  0  0  0  0  0
    6.3828   13.1910   21.0038 C   0  0  0  0  0  0  0  0  0  0  0  0
    6.8594   13.9685   22.0642 C   0  0  0  0  0  0  0  0  0  0  0  0
    6.3788   15.2267   22.3351 C   0  0  0  0  0  0  0  0  0  0  0  0
    5.3671   15.6965   21.4729 C   0  0  0  0  0  0  0  0  0  0  0  0
    4.9126   14.9248   20.4414 C   0  0  0  0  0  0  0  0  0  0  0  0
    6.7866   16.0492   23.3542 O   0  0  0  0  0  0  0  0  0  0  0  0
    6.8157   15.7554   24.7147 C   0  0  0  0  0  0  0  0  0  0  0  0
    8.1800   15.2982   25.1211 C   0  0  0  0  0  0  0  0  0  0  0  0
    8.1240   13.9110   25.6900 C   0  0  0  0  0  0  0  0  0  0  0  0
    9.4966   13.3591   25.8675 C   0  0  0  0  0  0  0  0  0  0  0  0
    9.5329   11.8528   25.9109 C   0  0  0  0  0  0  0  0  0  0  0  0
    8.6770   11.2950   24.8109 C   0  0  0  0  0  0  0  0  0  0  0  0
    7.8935   10.2182   25.3552 O   0  0  0  0  0  0  0  0  0  0  0  0
    7.1948    9.4603   24.4468 N   0  0  0  0  0  0  0  0  0  0  0  0
    6.3861    9.9592   23.6424 O   0  0  0  0  0  0  0  0  0  0  0  0
    7.4408    8.1003   24.4749 O   0  0  0  0  0  0  0  0  0  0  0  0
    3.8043    9.1866   15.7545 C   0  0  0  0  0  0  0  0  0  0  0  0
    4.1841    8.6556   14.6517 O   0  0  0  0  0  0  0  0  0  0  0  0
    3.8106    8.3207   16.8719 N   0  0  0  0  0  0  0  0  0  0  0  0
    3.5106    8.7078   17.7900 H   0  0  0  0  0  0  0  0  0  0  0  0
    4.2097    6.9407   16.8177 C   0  0  0  0  0  0  0  0  0  0  0  0
    5.6424    6.7368   17.2478 C   0  0  0  0  0  0  0  0  0  0  0  0
    5.9593    7.6392   18.4238 C   0  0  0  0  0  0  0  0  0  0  0  0
    5.2382    7.0501   19.6376 C   0  0  0  0  0  0  0  0  0  0  0  0
    6.0422    5.9829   20.2762 C   0  0  0  0  0  0  0  0  0  0  0  0
    6.0045    4.6683   19.6204 C   0  0  0  0  0  0  0  0  0  0  0  0
    4.7710    4.1517   19.2037 N   0  0  0  0  0  0  0  0  0  0  0  0
    4.0218    4.8944   18.9352 H   0  0  0  0  0  0  0  0  0  0  0  0
    4.2955    2.8468   19.0604 C   0  0  0  0  0  0  0  0  0  0  0  0
    4.2038    2.0283   20.1686 C   0  0  0  0  0  0  0  0  0  0  0  0
    3.6908    0.7595   20.0337 C   0  0  0  0  0  0  0  0  0  0  0  0
    3.2799    0.3317   18.8058 N   0  0  0  0  0  0  0  0  0  0  0  0
    3.3511    1.0952   17.7054 C   0  0  0  0  0  0  0  0  0  0  0  0
    2.9268    0.6422   16.4793 C   0  0  0  0  0  0  0  0  0  0  0  0
    3.0019    1.4328   15.3677 C   0  0  0  0  0  0  0  0  0  0  0  0
    3.5168    2.7052   15.5042 C   0  0  0  0  0  0  0  0  0  0  0  0
    3.9448    3.1778   16.7108 C   0  0  0  0  0  0  0  0  0  0  0  0
    3.8649    2.3686   17.8327 C   0  0  0  0  0  0  0  0  0  0  0  0
    3.6036   -0.1164   21.2070 C   0  0  0  0  0  0  0  0  0  0  0  0
    3.4241    0.5698   22.5162 C   0  0  0  0  0  0  0  0  0  0  0  0
    3.4889    2.0705   22.4590 C   0  0  0  0  0  0  0  0  0  0  0  0
    4.6286    2.4716   21.5186 C   0  0  0  0  0  0  0  0  0  0  0  0
  1  2  1  0  0  0
  2 27  1  0  0  0
 27 28  2  0  0  0
 27 29  1  0  0  0
 29 31  1  0  0  0
 31 32  1  0  0  0
 32 33  1  0  0  0
 33 34  1  0  0  0
 34 35  1  0  0  0
 35 36  1  0  0  0
 36 37  1  0  0  0
 37 39  1  0  0  0
 39 40  2  0  0  0
 40 41  1  0  0  0
 41 42  2  0  0  0
 42 43  1  0  0  0
 43 44  2  0  0  0
 44 45  1  0  0  0
 45 46  2  0  0  0
 46 47  1  0  0  0
 47 48  2  0  0  0
 41 49  1  0  0  0
 49 50  1  0  0  0
 50 51  1  0  0  0
 51 52  1  0  0  0
  2  3  1  0  0  0
  3  4  2  0  0  0
  4  5  1  0  0  0
  5  6  2  0  0  0
  6 10  1  0  0  0
 10 11  2  0  0  0
 11 12  1  0  0  0
 12 13  2  0  0  0
 13 16  1  0  0  0
 16 17  1  0  0  0
 17 18  1  0  0  0
 18 19  1  0  0  0
 19 20  1  0  0  0
 20 21  1  0  0  0
 21 22  1  0  0  0
 22 23  1  0  0  0
 23 24  1  0  0  0
 24 25  2  0  0  0
 24 26  1  0  0  0
 13 14  1  0  0  0
 14 15  2  0  0  0
  6  7  1  0  0  0
  7  8  1  0  0  0
  7  9  2  0  0  0
 48 39  1  0  0  0
  9  3  1  0  0  0
 52 40  1  0  0  0
 15 10  1  0  0  0
 48 43  1  0  0  0
 29 30  1  0  0  0
 37 38  1  0  0  0
M  CHG 1  24   1
M  CHG 1  26  -1
M  END
> <minimizedAffinity>
-7.86222

> <CNNscore>
0.2458595932

> <CNNaffinity>
7.0692873001

> <CNN_VS>
1.7380521297

> <CNNaffinity_variance>
0.2016834468

$$$$
[H]c1c([H])c(-c2c([H])c([H])c(C([H])(C(=O)N([H])C([H])([H])C([H])([H])C([H])([H])C([H])([H])C([H])([H])C([H])([H])N([H])c3c4c(nc5c([H])c([H])c([H])c([H])c35)C([H])([H])C([H])([H])C([H])([H])C4([H])[H])C([H])([H])[H])c([H])c2F)c([H])c([H])c1OC([H])([H])C([H])([H])C([H])([H])C([H])([H])C([H])([H])C([H])([H])O[N+](=O)[O-]


 52 56  0  0  0  0  0  0  0  0999 V2000
    6.3863    0.1601   21.1076 C   0  0  0  0  0  0  0  0  0  0  0  0
    4.9911    0.7545   21.2746 C   0  0  0  0  0  0  0  0  0  0  0  0
    4.5275    1.1627   19.9344 C   0  0  0  0  0  0  0  0  0  0  0  0
    5.1884    2.1698   19.2715 C   0  0  0  0  0  0  0  0  0  0  0  0
    4.7800    2.6055   18.0099 C   0  0  0  0  0  0  0  0  0  0  0  0
    3.7027    2.0194   17.4231 C   0  0  0  0  0  0  0  0  0  0  0  0
    3.0282    1.0116   18.0680 C   0  0  0  0  0  0  0  0  0  0  0  0
    1.9495    0.4215   17.5002 F   0  0  0  0  0  0  0  0  0  0  0  0
    3.4449    0.5802   19.3346 C   0  0  0  0  0  0  0  0  0  0  0  0
    3.2591    2.4481   16.1096 C   0  0  0  0  0  0  0  0  0  0  0  0
    3.1868    1.5790   15.0442 C   0  0  0  0  0  0  0  0  0  0  0  0
    2.7496    2.0172   13.7901 C   0  0  0  0  0  0  0  0  0  0  0  0
    2.3735    3.3164   13.5487 C   0  0  0  0  0  0  0  0  0  0  0  0
    2.4525    4.1933   14.6498 C   0  0  0  0  0  0  0  0  0  0  0  0
    2.8813    3.7495   15.8685 C   0  0  0  0  0  0  0  0  0  0  0  0
    1.9396    3.8267   12.3517 O   0  0  0  0  0  0  0  0  0  0  0  0
    1.1408    3.1920   11.4044 C   0  0  0  0  0  0  0  0  0  0  0  0
   -0.0684    4.0183   11.1032 C   0  0  0  0  0  0  0  0  0  0  0  0
   -0.7802    4.3933   12.3695 C   0  0  0  0  0  0  0  0  0  0  0  0
   -1.4990    5.6881   12.2058 C   0  0  0  0  0  0  0  0  0  0  0  0
   -1.4180    6.5735   13.4230 C   0  0  0  0  0  0  0  0  0  0  0  0
   -0.0128    6.5788   13.9511 C   0  0  0  0  0  0  0  0  0  0  0  0
    0.5475    7.8836   13.7204 O   0  0  0  0  0  0  0  0  0  0  0  0
    1.9180    7.9481   13.6471 N   0  0  0  0  0  0  0  0  0  0  0  0
    2.5925    7.1193   13.0081 O   0  0  0  0  0  0  0  0  0  0  0  0
    2.5134    8.9935   14.3281 O   0  0  0  0  0  0  0  0  0  0  0  0
    4.9368    1.7895   22.3049 C   0  0  0  0  0  0  0  0  0  0  0  0
    5.8611    1.8670   23.1892 O   0  0  0  0  0  0  0  0  0  0  0  0
    3.9129    2.7574   22.4195 N   0  0  0  0  0  0  0  0  0  0  0  0
    3.1405    2.7346   21.7226 H   0  0  0  0  0  0  0  0  0  0  0  0
    3.8759    3.7725   23.4368 C   0  0  0  0  0  0  0  0  0  0  0  0
    4.4196    5.0951   22.9525 C   0  0  0  0  0  0  0  0  0  0  0  0
    4.7509    5.0048   21.4761 C   0  0  0  0  0  0  0  0  0  0  0  0
    3.5374    5.5474   20.7187 C   0  0  0  0  0  0  0  0  0  0  0  0
    3.8414    5.7407   19.2823 C   0  0  0  0  0  0  0  0  0  0  0  0
    3.8486    7.1313   18.8069 C   0  0  0  0  0  0  0  0  0  0  0  0
    3.6942    8.1681   19.7361 N   0  0  0  0  0  0  0  0  0  0  0  0
    2.8964    8.0268   20.4632 H   0  0  0  0  0  0  0  0  0  0  0  0
    4.3707    9.3751   19.9228 C   0  0  0  0  0  0  0  0  0  0  0  0
    4.0099   10.4817   19.1801 C   0  0  0  0  0  0  0  0  0  0  0  0
    4.6452   11.6816   19.3988 C   0  0  0  0  0  0  0  0  0  0  0  0
    5.6212   11.7578   20.3480 N   0  0  0  0  0  0  0  0  0  0  0  0
    6.0004   10.7074   21.0909 C   0  0  0  0  0  0  0  0  0  0  0  0
    6.9847   10.8107   22.0444 C   0  0  0  0  0  0  0  0  0  0  0  0
    7.3578    9.7329   22.7964 C   0  0  0  0  0  0  0  0  0  0  0  0
    6.7200    8.5299   22.5760 C   0  0  0  0  0  0  0  0  0  0  0  0
    5.7399    8.4021   21.6350 C   0  0  0  0  0  0  0  0  0  0  0  0
    5.3683    9.5007   20.8769 C   0  0  0  0  0  0  0  0  0  0  0  0
    4.2723   12.8557   18.6027 C   0  0  0  0  0  0  0  0  0  0  0  0
    2.8629   12.8933   18.1240 C   0  0  0  0  0  0  0  0  0  0  0  0
    2.0610   11.6561   18.4175 C   0  0  0  0  0  0  0  0  0  0  0  0
    2.9420   10.4324   18.1521 C   0  0  0  0  0  0  0  0  0  0  0  0
  1  2  1  0  0  0
  2 27  1  0  0  0
 27 28  2  0  0  0
 27 29  1  0  0  0
 29 31  1  0  0  0
 31 32  1  0  0  0
 32 33  1  0  0  0
 33 34  1  0  0  0
 34 35  1  0  0  0
 35 36  1  0  0  0
 36 37  1  0  0  0
 37 39  1  0  0  0
 39 40  2  0  0  0
 40 41  1  0  0  0
 41 42  2  0  0  0
 42 43  1  0  0  0
 43 44  2  0  0  0
 44 45  1  0  0  0
 45 46  2  0  0  0
 46 47  1  0  0  0
 47 48  2  0  0  0
 41 49  1  0  0  0
 49 50  1  0  0  0
 50 51  1  0  0  0
 51 52  1  0  0  0
  2  3  1  0  0  0
  3  4  2  0  0  0
  4  5  1  0  0  0
  5  6  2  0  0  0
  6 10  1  0  0  0
 10 11  2  0  0  0
 11 12  1  0  0  0
 12 13  2  0  0  0
 13 16  1  0  0  0
 16 17  1  0  0  0
 17 18  1  0  0  0
 18 19  1  0  0  0
 19 20  1  0  0  0
 20 21  1  0  0  0
 21 22  1  0  0  0
 22 23  1  0  0  0
 23 24  1  0  0  0
 24 25  2  0  0  0
 24 26  1  0  0  0
 13 14  1  0  0  0
 14 15  2  0  0  0
  6  7  1  0  0  0
  7  8  1  0  0  0
  7  9  2  0  0  0
 48 39  1  0  0  0
  9  3  1  0  0  0
 52 40  1  0  0  0
 15 10  1  0  0  0
 48 43  1  0  0  0
 29 30  1  0  0  0
 37 38  1  0  0  0
M  CHG 1  24   1
M  CHG 1  26  -1
M  END
> <minimizedAffinity>
-8.97425

> <CNNscore>
0.2322878540

> <CNNaffinity>
7.6798911095

> <CNN_VS>
1.7839454412

> <CNNaffinity_variance>
0.2652417719

$$$$
[H]c1c([H])c(-c2c([H])c([H])c(C([H])(C(=O)N([H])C([H])([H])C([H])([H])C([H])([H])C([H])([H])C([H])([H])C([H])([H])N([H])c3c4c(nc5c([H])c([H])c([H])c([H])c35)C([H])([H])C([H])([H])C([H])([H])C4([H])[H])C([H])([H])[H])c([H])c2F)c([H])c([H])c1OC([H])([H])C([H])([H])C([H])([H])C([H])([H])C([H])([H])C([H])([H])O[N+](=O)[O-]


 52 56  0  0  0  0  0  0  0  0999 V2000
    1.2338    7.5379   12.9316 C   0  0  0  0  0  0  0  0  0  0  0  0
    0.9410    6.0423   12.8592 C   0  0  0  0  0  0  0  0  0  0  0  0
   -0.4679    5.8930   12.4462 C   0  0  0  0  0  0  0  0  0  0  0  0
   -1.4387    6.6245   13.0888 C   0  0  0  0  0  0  0  0  0  0  0  0
   -2.7873    6.5076   12.7487 C   0  0  0  0  0  0  0  0  0  0  0  0
   -3.1489    5.6495   11.7580 C   0  0  0  0  0  0  0  0  0  0  0  0
   -2.1950    4.9093   11.1033 C   0  0  0  0  0  0  0  0  0  0  0  0
   -2.5389    4.0455   10.1185 F   0  0  0  0  0  0  0  0  0  0  0  0
   -0.8430    5.0328   11.4511 C   0  0  0  0  0  0  0  0  0  0  0  0
   -4.5430    5.5116   11.3794 C   0  0  0  0  0  0  0  0  0  0  0  0
   -5.3600    4.5552   11.9393 C   0  0  0  0  0  0  0  0  0  0  0  0
   -6.7021    4.4482   11.5608 C   0  0  0  0  0  0  0  0  0  0  0  0
   -7.2763    5.2740   10.6249 C   0  0  0  0  0  0  0  0  0  0  0  0
   -6.4267    6.2483   10.0619 C   0  0  0  0  0  0  0  0  0  0  0  0
   -5.1181    6.3399   10.4426 C   0  0  0  0  0  0  0  0  0  0  0  0
   -8.5783    5.2324   10.1954 O   0  0  0  0  0  0  0  0  0  0  0  0
   -9.0530    4.7200    8.9912 C   0  0  0  0  0  0  0  0  0  0  0  0
   -8.1081    3.6945    8.4514 C   0  0  0  0  0  0  0  0  0  0  0  0
   -8.1221    3.7019    6.9512 C   0  0  0  0  0  0  0  0  0  0  0  0
   -8.4634    5.0571    6.4345 C   0  0  0  0  0  0  0  0  0  0  0  0
   -7.2742    5.8035    5.8862 C   0  0  0  0  0  0  0  0  0  0  0  0
   -7.0988    7.0933    6.6339 C   0  0  0  0  0  0  0  0  0  0  0  0
   -5.6976    7.4192    6.6423 O   0  0  0  0  0  0  0  0  0  0  0  0
   -5.2843    8.3332    5.7034 N   0  0  0  0  0  0  0  0  0  0  0  0
   -6.0069    9.2728    5.3225 O   0  0  0  0  0  0  0  0  0  0  0  0
   -4.0100    8.1510    5.1994 O   0  0  0  0  0  0  0  0  0  0  0  0
    1.3212    5.3318   14.0784 C   0  0  0  0  0  0  0  0  0  0  0  0
    1.0643    5.8400   15.2265 O   0  0  0  0  0  0  0  0  0  0  0  0
    1.9742    4.0784   14.1086 N   0  0  0  0  0  0  0  0  0  0  0  0
    2.2028    3.6260   13.1998 H   0  0  0  0  0  0  0  0  0  0  0  0
    2.3379    3.3899   15.3170 C   0  0  0  0  0  0  0  0  0  0  0  0
    3.2927    2.2478   15.0655 C   0  0  0  0  0  0  0  0  0  0  0  0
    3.3640    1.3583   16.2909 C   0  0  0  0  0  0  0  0  0  0  0  0
    3.9688    2.2034   17.4137 C   0  0  0  0  0  0  0  0  0  0  0  0
    5.0971    3.0261   16.9206 C   0  0  0  0  0  0  0  0  0  0  0  0
    5.2874    4.3229   17.5854 C   0  0  0  0  0  0  0  0  0  0  0  0
    5.7550    4.3478   18.9056 N   0  0  0  0  0  0  0  0  0  0  0  0
    6.6437    3.7486   19.0962 H   0  0  0  0  0  0  0  0  0  0  0  0
    5.3016    4.9995   20.0540 C   0  0  0  0  0  0  0  0  0  0  0  0
    4.8631    4.2566   21.1321 C   0  0  0  0  0  0  0  0  0  0  0  0
    4.4616    4.8991   22.2799 C   0  0  0  0  0  0  0  0  0  0  0  0
    4.5047    6.2610   22.3334 N   0  0  0  0  0  0  0  0  0  0  0  0
    4.9244    7.0188   21.3095 C   0  0  0  0  0  0  0  0  0  0  0  0
    4.9620    8.3902   21.3895 C   0  0  0  0  0  0  0  0  0  0  0  0
    5.3958    9.1490   20.3395 C   0  0  0  0  0  0  0  0  0  0  0  0
    5.7981    8.5035   19.1888 C   0  0  0  0  0  0  0  0  0  0  0  0
    5.7698    7.1430   19.0850 C   0  0  0  0  0  0  0  0  0  0  0  0
    5.3282    6.3817   20.1550 C   0  0  0  0  0  0  0  0  0  0  0  0
    3.9838    4.1129   23.4222 C   0  0  0  0  0  0  0  0  0  0  0  0
    4.5625    2.7476   23.5568 C   0  0  0  0  0  0  0  0  0  0  0  0
    5.4572    2.3244   22.4253 C   0  0  0  0  0  0  0  0  0  0  0  0
    4.8197    2.7744   21.1082 C   0  0  0  0  0  0  0  0  0  0  0  0
  1  2  1  0  0  0
  2 27  1  0  0  0
 27 28  2  0  0  0
 27 29  1  0  0  0
 29 31  1  0  0  0
 31 32  1  0  0  0
 32 33  1  0  0  0
 33 34  1  0  0  0
 34 35  1  0  0  0
 35 36  1  0  0  0
 36 37  1  0  0  0
 37 39  1  0  0  0
 39 40  2  0  0  0
 40 41  1  0  0  0
 41 42  2  0  0  0
 42 43  1  0  0  0
 43 44  2  0  0  0
 44 45  1  0  0  0
 45 46  2  0  0  0
 46 47  1  0  0  0
 47 48  2  0  0  0
 41 49  1  0  0  0
 49 50  1  0  0  0
 50 51  1  0  0  0
 51 52  1  0  0  0
  2  3  1  0  0  0
  3  4  2  0  0  0
  4  5  1  0  0  0
  5  6  2  0  0  0
  6 10  1  0  0  0
 10 11  2  0  0  0
 11 12  1  0  0  0
 12 13  2  0  0  0
 13 16  1  0  0  0
 16 17  1  0  0  0
 17 18  1  0  0  0
 18 19  1  0  0  0
 19 20  1  0  0  0
 20 21  1  0  0  0
 21 22  1  0  0  0
 22 23  1  0  0  0
 23 24  1  0  0  0
 24 25  2  0  0  0
 24 26  1  0  0  0
 13 14  1  0  0  0
 14 15  2  0  0  0
  6  7  1  0  0  0
  7  8  1  0  0  0
  7  9  2  0  0  0
 48 39  1  0  0  0
  9  3  1  0  0  0
 52 40  1  0  0  0
 15 10  1  0  0  0
 48 43  1  0  0  0
 29 30  1  0  0  0
 37 38  1  0  0  0
M  CHG 1  24   1
M  CHG 1  26  -1
M  END
> <minimizedAffinity>
-8.18618

> <CNNscore>
0.2031797767

> <CNNaffinity>
6.5731554031

> <CNN_VS>
1.3355321884

> <CNNaffinity_variance>
0.2525247037

$$$$
[H]c1c([H])c(-c2c([H])c([H])c(C([H])(C(=O)N([H])C([H])([H])C([H])([H])C([H])([H])C([H])([H])C([H])([H])C([H])([H])N([H])c3c4c(nc5c([H])c([H])c([H])c([H])c35)C([H])([H])C([H])([H])C([H])([H])C4([H])[H])C([H])([H])[H])c([H])c2F)c([H])c([H])c1OC([H])([H])C([H])([H])C([H])([H])C([H])([H])C([H])([H])C([H])([H])O[N+](=O)[O-]


 52 56  0  0  0  0  0  0  0  0999 V2000
    6.3660    0.0607   21.0911 C   0  0  0  0  0  0  0  0  0  0  0  0
    5.0197    0.7692   21.2063 C   0  0  0  0  0  0  0  0  0  0  0  0
    4.5936    1.1215   19.8380 C   0  0  0  0  0  0  0  0  0  0  0  0
    5.2371    2.1390   19.1738 C   0  0  0  0  0  0  0  0  0  0  0  0
    4.8618    2.5233   17.8855 C   0  0  0  0  0  0  0  0  0  0  0  0
    3.8352    1.8753   17.2734 C   0  0  0  0  0  0  0  0  0  0  0  0
    3.1790    0.8560   17.9190 C   0  0  0  0  0  0  0  0  0  0  0  0
    2.1504    0.2045   17.3260 F   0  0  0  0  0  0  0  0  0  0  0  0
    3.5622    0.4766   19.2126 C   0  0  0  0  0  0  0  0  0  0  0  0
    3.4272    2.2496   15.9320 C   0  0  0  0  0  0  0  0  0  0  0  0
    2.5012    1.5201   15.2207 C   0  0  0  0  0  0  0  0  0  0  0  0
    2.1209    1.9069   13.9316 C   0  0  0  0  0  0  0  0  0  0  0  0
    2.6384    3.0162   13.3078 C   0  0  0  0  0  0  0  0  0  0  0  0
    3.5844    3.7526   14.0496 C   0  0  0  0  0  0  0  0  0  0  0  0
    3.9450    3.3617   15.3079 C   0  0  0  0  0  0  0  0  0  0  0  0
    2.3240    3.4599   12.0485 O   0  0  0  0  0  0  0  0  0  0  0  0
    2.1468    2.6892   10.9027 C   0  0  0  0  0  0  0  0  0  0  0  0
    1.7589    3.5542    9.7465 C   0  0  0  0  0  0  0  0  0  0  0  0
    0.8903    4.6887   10.2042 C   0  0  0  0  0  0  0  0  0  0  0  0
   -0.4531    4.1911   10.6140 C   0  0  0  0  0  0  0  0  0  0  0  0
   -0.8475    4.6153   12.0055 C   0  0  0  0  0  0  0  0  0  0  0  0
   -2.0289    5.5389   11.9362 C   0  0  0  0  0  0  0  0  0  0  0  0
   -1.6463    6.7999   12.5132 O   0  0  0  0  0  0  0  0  0  0  0  0
   -1.8967    6.9508   13.8557 N   0  0  0  0  0  0  0  0  0  0  0  0
   -1.0454    6.6932   14.7270 O   0  0  0  0  0  0  0  0  0  0  0  0
   -3.1576    7.4084   14.1900 O   0  0  0  0  0  0  0  0  0  0  0  0
    5.0408    1.8716   22.1655 C   0  0  0  0  0  0  0  0  0  0  0  0
    6.0756    2.0707   22.8949 O   0  0  0  0  0  0  0  0  0  0  0  0
    3.9772    2.7799   22.3705 N   0  0  0  0  0  0  0  0  0  0  0  0
    3.1156    2.6583   21.7999 H   0  0  0  0  0  0  0  0  0  0  0  0
    4.0151    3.8626   23.3156 C   0  0  0  0  0  0  0  0  0  0  0  0
    4.1710    5.2072   22.6470 C   0  0  0  0  0  0  0  0  0  0  0  0
    4.6126    5.0180   21.2093 C   0  0  0  0  0  0  0  0  0  0  0  0
    3.4518    5.4823   20.3275 C   0  0  0  0  0  0  0  0  0  0  0  0
    3.9167    5.8336   18.9661 C   0  0  0  0  0  0  0  0  0  0  0  0
    3.9313    7.2666   18.6404 C   0  0  0  0  0  0  0  0  0  0  0  0
    3.7751    8.2001   19.6730 N   0  0  0  0  0  0  0  0  0  0  0  0
    3.0500    7.9304   20.4389 H   0  0  0  0  0  0  0  0  0  0  0  0
    4.3738    9.4359   19.9250 C   0  0  0  0  0  0  0  0  0  0  0  0
    5.4864    9.5018   20.7401 C   0  0  0  0  0  0  0  0  0  0  0  0
    6.1030   10.7132   20.9490 C   0  0  0  0  0  0  0  0  0  0  0  0
    5.6045   11.8298   20.3455 N   0  0  0  0  0  0  0  0  0  0  0  0
    4.5274   11.8085   19.5466 C   0  0  0  0  0  0  0  0  0  0  0  0
    4.0464   12.9476   18.9467 C   0  0  0  0  0  0  0  0  0  0  0  0
    2.9503   12.9098   18.1321 C   0  0  0  0  0  0  0  0  0  0  0  0
    2.3326   11.6943   17.9234 C   0  0  0  0  0  0  0  0  0  0  0  0
    2.7912   10.5495   18.5079 C   0  0  0  0  0  0  0  0  0  0  0  0
    3.9034   10.5975   19.3327 C   0  0  0  0  0  0  0  0  0  0  0  0
    7.2777   10.7880   21.8241 C   0  0  0  0  0  0  0  0  0  0  0  0
    8.1186    9.5608   21.8867 C   0  0  0  0  0  0  0  0  0  0  0  0
    7.5674    8.3766   21.1425 C   0  0  0  0  0  0  0  0  0  0  0  0
    6.0596    8.3022   21.3972 C   0  0  0  0  0  0  0  0  0  0  0  0
  1  2  1  0  0  0
  2 27  1  0  0  0
 27 28  2  0  0  0
 27 29  1  0  0  0
 29 31  1  0  0  0
 31 32  1  0  0  0
 32 33  1  0  0  0
 33 34  1  0  0  0
 34 35  1  0  0  0
 35 36  1  0  0  0
 36 37  1  0  0  0
 37 39  1  0  0  0
 39 40  2  0  0  0
 40 41  1  0  0  0
 41 42  2  0  0  0
 42 43  1  0  0  0
 43 44  2  0  0  0
 44 45  1  0  0  0
 45 46  2  0  0  0
 46 47  1  0  0  0
 47 48  2  0  0  0
 41 49  1  0  0  0
 49 50  1  0  0  0
 50 51  1  0  0  0
 51 52  1  0  0  0
  2  3  1  0  0  0
  3  4  2  0  0  0
  4  5  1  0  0  0
  5  6  2  0  0  0
  6 10  1  0  0  0
 10 11  2  0  0  0
 11 12  1  0  0  0
 12 13  2  0  0  0
 13 16  1  0  0  0
 16 17  1  0  0  0
 17 18  1  0  0  0
 18 19  1  0  0  0
 19 20  1  0  0  0
 20 21  1  0  0  0
 21 22  1  0  0  0
 22 23  1  0  0  0
 23 24  1  0  0  0
 24 25  2  0  0  0
 24 26  1  0  0  0
 13 14  1  0  0  0
 14 15  2  0  0  0
  6  7  1  0  0  0
  7  8  1  0  0  0
  7  9  2  0  0  0
 48 39  1  0  0  0
  9  3  1  0  0  0
 52 40  1  0  0  0
 15 10  1  0  0  0
 48 43  1  0  0  0
 29 30  1  0  0  0
 37 38  1  0  0  0
M  CHG 1  24   1
M  CHG 1  26  -1
M  END
> <minimizedAffinity>
-9.15553

> <CNNscore>
0.2027439326

> <CNNaffinity>
7.4855637550

> <CNN_VS>
1.5176526308

> <CNNaffinity_variance>
0.4429949820

$$$$
[H]c1c([H])c(-c2c([H])c([H])c(C([H])(C(=O)N([H])C([H])([H])C([H])([H])C([H])([H])C([H])([H])C([H])([H])C([H])([H])N([H])c3c4c(nc5c([H])c([H])c([H])c([H])c35)C([H])([H])C([H])([H])C([H])([H])C4([H])[H])C([H])([H])[H])c([H])c2F)c([H])c([H])c1OC([H])([H])C([H])([H])C([H])([H])C([H])([H])C([H])([H])C([H])([H])O[N+](=O)[O-]


 52 56  0  0  0  0  0  0  0  0999 V2000
    6.3204    0.4149   20.9249 C   0  0  0  0  0  0  0  0  0  0  0  0
    4.8021    0.5548   20.8721 C   0  0  0  0  0  0  0  0  0  0  0  0
    4.4576    1.0689   19.5324 C   0  0  0  0  0  0  0  0  0  0  0  0
    3.4375    0.4763   18.8261 C   0  0  0  0  0  0  0  0  0  0  0  0
    3.0834    0.9125   17.5484 C   0  0  0  0  0  0  0  0  0  0  0  0
    3.7640    1.9483   16.9895 C   0  0  0  0  0  0  0  0  0  0  0  0
    4.7864    2.5544   17.6779 C   0  0  0  0  0  0  0  0  0  0  0  0
    5.4785    3.5832   17.1332 F   0  0  0  0  0  0  0  0  0  0  0  0
    5.1356    2.1101   18.9604 C   0  0  0  0  0  0  0  0  0  0  0  0
    3.4139    2.4267   15.6650 C   0  0  0  0  0  0  0  0  0  0  0  0
    2.5928    1.7098   14.8238 C   0  0  0  0  0  0  0  0  0  0  0  0
    2.2660    2.1972   13.5542 C   0  0  0  0  0  0  0  0  0  0  0  0
    2.7358    3.3970   13.0775 C   0  0  0  0  0  0  0  0  0  0  0  0
    3.5744    4.1190   13.9511 C   0  0  0  0  0  0  0  0  0  0  0  0
    3.8838    3.6293   15.1882 C   0  0  0  0  0  0  0  0  0  0  0  0
    2.4684    3.9424   11.8477 O   0  0  0  0  0  0  0  0  0  0  0  0
    2.5519    5.2836   11.4838 C   0  0  0  0  0  0  0  0  0  0  0  0
    1.2162    5.9433   11.6111 C   0  0  0  0  0  0  0  0  0  0  0  0
    0.2506    5.0460   12.3277 C   0  0  0  0  0  0  0  0  0  0  0  0
   -0.8987    4.6979   11.4456 C   0  0  0  0  0  0  0  0  0  0  0  0
   -2.2042    5.2971   11.9025 C   0  0  0  0  0  0  0  0  0  0  0  0
   -3.2335    5.1507   10.8196 C   0  0  0  0  0  0  0  0  0  0  0  0
   -3.9523    3.9256   11.0474 O   0  0  0  0  0  0  0  0  0  0  0  0
   -5.2978    4.0518   11.2957 N   0  0  0  0  0  0  0  0  0  0  0  0
   -5.7389    4.6001   12.3227 O   0  0  0  0  0  0  0  0  0  0  0  0
   -6.1435    3.5315   10.3339 O   0  0  0  0  0  0  0  0  0  0  0  0
    4.2646    1.3151   21.9985 C   0  0  0  0  0  0  0  0  0  0  0  0
    3.0565    1.1287   22.3833 O   0  0  0  0  0  0  0  0  0  0  0  0
    4.9882    2.2795   22.7365 N   0  0  0  0  0  0  0  0  0  0  0  0
    5.9744    2.4646   22.4611 H   0  0  0  0  0  0  0  0  0  0  0  0
    4.4462    3.0164   23.8456 C   0  0  0  0  0  0  0  0  0  0  0  0
    3.9070    4.3652   23.4340 C   0  0  0  0  0  0  0  0  0  0  0  0
    4.6256    4.8481   22.1898 C   0  0  0  0  0  0  0  0  0  0  0  0
    3.5444    5.2189   21.1729 C   0  0  0  0  0  0  0  0  0  0  0  0
    4.1152    5.3867   19.8168 C   0  0  0  0  0  0  0  0  0  0  0  0
    4.6997    6.7025   19.5223 C   0  0  0  0  0  0  0  0  0  0  0  0
    4.2217    7.8273   20.2068 N   0  0  0  0  0  0  0  0  0  0  0  0
    3.2760    7.6882   20.7278 H   0  0  0  0  0  0  0  0  0  0  0  0
    4.7228    9.1214   20.3593 C   0  0  0  0  0  0  0  0  0  0  0  0
    5.7766    9.3479   21.2222 C   0  0  0  0  0  0  0  0  0  0  0  0
    6.2999   10.6147   21.3355 C   0  0  0  0  0  0  0  0  0  0  0  0
    5.7686   11.6263   20.5913 N   0  0  0  0  0  0  0  0  0  0  0  0
    4.7464   11.4482   19.7415 C   0  0  0  0  0  0  0  0  0  0  0  0
    4.2308   12.4836   18.9995 C   0  0  0  0  0  0  0  0  0  0  0  0
    3.1917   12.2862   18.1348 C   0  0  0  0  0  0  0  0  0  0  0  0
    2.6675   11.0153   18.0222 C   0  0  0  0  0  0  0  0  0  0  0  0
    3.1620    9.9710   18.7483 C   0  0  0  0  0  0  0  0  0  0  0  0
    4.2160   10.1807   19.6229 C   0  0  0  0  0  0  0  0  0  0  0  0
    7.4113   10.8606   22.2606 C   0  0  0  0  0  0  0  0  0  0  0  0
    8.3240    9.7083   22.4980 C   0  0  0  0  0  0  0  0  0  0  0  0
    7.8971    8.4189   21.8540 C   0  0  0  0  0  0  0  0  0  0  0  0
    6.3844    8.2647   22.0325 C   0  0  0  0  0  0  0  0  0  0  0  0
  1  2  1  0  0  0
  2 27  1  0  0  0
 27 28  2  0  0  0
 27 29  1  0  0  0
 29 31  1  0  0  0
 31 32  1  0  0  0
 32 33  1  0  0  0
 33 34  1  0  0  0
 34 35  1  0  0  0
 35 36  1  0  0  0
 36 37  1  0  0  0
 37 39  1  0  0  0
 39 40  2  0  0  0
 40 41  1  0  0  0
 41 42  2  0  0  0
 42 43  1  0  0  0
 43 44  2  0  0  0
 44 45  1  0  0  0
 45 46  2  0  0  0
 46 47  1  0  0  0
 47 48  2  0  0  0
 41 49  1  0  0  0
 49 50  1  0  0  0
 50 51  1  0  0  0
 51 52  1  0  0  0
  2  3  1  0  0  0
  3  4  2  0  0  0
  4  5  1  0  0  0
  5  6  2  0  0  0
  6 10  1  0  0  0
 10 11  2  0  0  0
 11 12  1  0  0  0
 12 13  2  0  0  0
 13 16  1  0  0  0
 16 17  1  0  0  0
 17 18  1  0  0  0
 18 19  1  0  0  0
 19 20  1  0  0  0
 20 21  1  0  0  0
 21 22  1  0  0  0
 22 23  1  0  0  0
 23 24  1  0  0  0
 24 25  2  0  0  0
 24 26  1  0  0  0
 13 14  1  0  0  0
 14 15  2  0  0  0
  6  7  1  0  0  0
  7  8  1  0  0  0
  7  9  2  0  0  0
 48 39  1  0  0  0
  9  3  1  0  0  0
 52 40  1  0  0  0
 15 10  1  0  0  0
 48 43  1  0  0  0
 29 30  1  0  0  0
 37 38  1  0  0  0
M  CHG 1  24   1
M  CHG 1  26  -1
M  END
> <minimizedAffinity>
-9.00142

> <CNNscore>
0.2019402236

> <CNNaffinity>
7.2938818932

> <CNN_VS>
1.4729281664

> <CNNaffinity_variance>
0.4070126116

$$$$
[H]c1c([H])c(-c2c([H])c([H])c(C([H])(C(=O)N([H])C([H])([H])C([H])([H])C([H])([H])C([H])([H])C([H])([H])C([H])([H])N([H])c3c4c(nc5c([H])c([H])c([H])c([H])c35)C([H])([H])C([H])([H])C([H])([H])C4([H])[H])C([H])([H])[H])c([H])c2F)c([H])c([H])c1OC([H])([H])C([H])([H])C([H])([H])C([H])([H])C([H])([H])C([H])([H])O[N+](=O)[O-]


 52 56  0  0  0  0  0  0  0  0999 V2000
    3.8124   -0.2103   17.4484 C   0  0  0  0  0  0  0  0  0  0  0  0
    3.1626    1.0944   17.8990 C   0  0  0  0  0  0  0  0  0  0  0  0
    3.2701    2.0459   16.7762 C   0  0  0  0  0  0  0  0  0  0  0  0
    4.3495    2.8955   16.7149 C   0  0  0  0  0  0  0  0  0  0  0  0
    4.4899    3.8259   15.6840 C   0  0  0  0  0  0  0  0  0  0  0  0
    3.5360    3.8931   14.7175 C   0  0  0  0  0  0  0  0  0  0  0  0
    2.4497    3.0537   14.7598 C   0  0  0  0  0  0  0  0  0  0  0  0
    1.4875    3.1119   13.8086 F   0  0  0  0  0  0  0  0  0  0  0  0
    2.3164    2.1224   15.7986 C   0  0  0  0  0  0  0  0  0  0  0  0
    3.6588    4.8468   13.6306 C   0  0  0  0  0  0  0  0  0  0  0  0
    4.2226    4.5064   12.4215 C   0  0  0  0  0  0  0  0  0  0  0  0
    4.3228    5.4436   11.3882 C   0  0  0  0  0  0  0  0  0  0  0  0
    3.8745    6.7362   11.5140 C   0  0  0  0  0  0  0  0  0  0  0  0
    3.2993    7.0684   12.7576 C   0  0  0  0  0  0  0  0  0  0  0  0
    3.2085    6.1413   13.7567 C   0  0  0  0  0  0  0  0  0  0  0  0
    3.9396    7.7148   10.5551 O   0  0  0  0  0  0  0  0  0  0  0  0
    3.8442    7.5515    9.1758 C   0  0  0  0  0  0  0  0  0  0  0  0
    5.1640    7.8184    8.5259 C   0  0  0  0  0  0  0  0  0  0  0  0
    5.0188    7.8581    7.0332 C   0  0  0  0  0  0  0  0  0  0  0  0
    4.4242    9.1526    6.5964 C   0  0  0  0  0  0  0  0  0  0  0  0
    3.1246    8.9906    5.8502 C   0  0  0  0  0  0  0  0  0  0  0  0
    3.2373    7.8495    4.8814 C   0  0  0  0  0  0  0  0  0  0  0  0
    3.1586    8.3843    3.5482 O   0  0  0  0  0  0  0  0  0  0  0  0
    4.1896    8.0529    2.7026 N   0  0  0  0  0  0  0  0  0  0  0  0
    3.9990    7.5178    1.5947 O   0  0  0  0  0  0  0  0  0  0  0  0
    5.4627    8.3486    3.1531 O   0  0  0  0  0  0  0  0  0  0  0  0
    3.6775    1.5693   19.1817 C   0  0  0  0  0  0  0  0  0  0  0  0
    3.7847    2.8263   19.4069 O   0  0  0  0  0  0  0  0  0  0  0  0
    4.0849    0.7315   20.2449 N   0  0  0  0  0  0  0  0  0  0  0  0
    4.0152   -0.2978   20.1084 H   0  0  0  0  0  0  0  0  0  0  0  0
    4.5855    1.2144   21.5030 C   0  0  0  0  0  0  0  0  0  0  0  0
    5.9516    1.8445   21.3771 C   0  0  0  0  0  0  0  0  0  0  0  0
    5.9833    3.1578   22.1334 C   0  0  0  0  0  0  0  0  0  0  0  0
    4.8699    3.0899   23.1804 C   0  0  0  0  0  0  0  0  0  0  0  0
    4.2089    4.4043   23.3497 C   0  0  0  0  0  0  0  0  0  0  0  0
    3.7703    5.0685   22.1143 C   0  0  0  0  0  0  0  0  0  0  0  0
    4.3341    6.3036   21.7696 N   0  0  0  0  0  0  0  0  0  0  0  0
    3.8475    7.1751   22.2041 H   0  0  0  0  0  0  0  0  0  0  0  0
    5.4183    6.6523   20.9620 C   0  0  0  0  0  0  0  0  0  0  0  0
    5.2785    6.6382   19.5884 C   0  0  0  0  0  0  0  0  0  0  0  0
    6.3326    7.0276   18.7956 C   0  0  0  0  0  0  0  0  0  0  0  0
    7.4990    7.4227   19.3811 N   0  0  0  0  0  0  0  0  0  0  0  0
    7.6752    7.4517   20.7104 C   0  0  0  0  0  0  0  0  0  0  0  0
    8.8598    7.8576   21.2766 C   0  0  0  0  0  0  0  0  0  0  0  0
    9.0234    7.8856   22.6326 C   0  0  0  0  0  0  0  0  0  0  0  0
    7.9655    7.4946   23.4268 C   0  0  0  0  0  0  0  0  0  0  0  0
    6.7794    7.0874   22.8884 C   0  0  0  0  0  0  0  0  0  0  0  0
    6.6228    7.0621   21.5120 C   0  0  0  0  0  0  0  0  0  0  0  0
    6.1908    7.0019   17.3359 C   0  0  0  0  0  0  0  0  0  0  0  0
    4.8129    7.2177   16.8146 C   0  0  0  0  0  0  0  0  0  0  0  0
    3.7431    7.3012   17.8674 C   0  0  0  0  0  0  0  0  0  0  0  0
    4.0175    6.2281   18.9243 C   0  0  0  0  0  0  0  0  0  0  0  0
  1  2  1  0  0  0
  2 27  1  0  0  0
 27 28  2  0  0  0
 27 29  1  0  0  0
 29 31  1  0  0  0
 31 32  1  0  0  0
 32 33  1  0  0  0
 33 34  1  0  0  0
 34 35  1  0  0  0
 35 36  1  0  0  0
 36 37  1  0  0  0
 37 39  1  0  0  0
 39 40  2  0  0  0
 40 41  1  0  0  0
 41 42  2  0  0  0
 42 43  1  0  0  0
 43 44  2  0  0  0
 44 45  1  0  0  0
 45 46  2  0  0  0
 46 47  1  0  0  0
 47 48  2  0  0  0
 41 49  1  0  0  0
 49 50  1  0  0  0
 50 51  1  0  0  0
 51 52  1  0  0  0
  2  3  1  0  0  0
  3  4  2  0  0  0
  4  5  1  0  0  0
  5  6  2  0  0  0
  6 10  1  0  0  0
 10 11  2  0  0  0
 11 12  1  0  0  0
 12 13  2  0  0  0
 13 16  1  0  0  0
 16 17  1  0  0  0
 17 18  1  0  0  0
 18 19  1  0  0  0
 19 20  1  0  0  0
 20 21  1  0  0  0
 21 22  1  0  0  0
 22 23  1  0  0  0
 23 24  1  0  0  0
 24 25  2  0  0  0
 24 26  1  0  0  0
 13 14  1  0  0  0
 14 15  2  0  0  0
  6  7  1  0  0  0
  7  8  1  0  0  0
  7  9  2  0  0  0
 48 39  1  0  0  0
  9  3  1  0  0  0
 52 40  1  0  0  0
 15 10  1  0  0  0
 48 43  1  0  0  0
 29 30  1  0  0  0
 37 38  1  0  0  0
M  CHG 1  24   1
M  CHG 1  26  -1
M  END
> <minimizedAffinity>
-7.51822

> <CNNscore>
0.1805253178

> <CNNaffinity>
7.1995606422

> <CNN_VS>
1.2997030020

> <CNNaffinity_variance>
0.3233660161

$$$$
[H]c1c([H])c(-c2c([H])c([H])c(C([H])(C(=O)N([H])C([H])([H])C([H])([H])C([H])([H])C([H])([H])C([H])([H])C([H])([H])N([H])c3c4c(nc5c([H])c([H])c([H])c([H])c35)C([H])([H])C([H])([H])C([H])([H])C4([H])[H])C([H])([H])[H])c([H])c2F)c([H])c([H])c1OC([H])([H])C([H])([H])C([H])([H])C([H])([H])C([H])([H])C([H])([H])O[N+](=O)[O-]


 52 56  0  0  0  0  0  0  0  0999 V2000
    5.9766    0.3322   20.8672 C   0  0  0  0  0  0  0  0  0  0  0  0
    4.4741    0.5770   20.7661 C   0  0  0  0  0  0  0  0  0  0  0  0
    4.1987    1.0385   19.3917 C   0  0  0  0  0  0  0  0  0  0  0  0
    4.7255    2.2348   18.9652 C   0  0  0  0  0  0  0  0  0  0  0  0
    4.4812    2.7250   17.6814 C   0  0  0  0  0  0  0  0  0  0  0  0
    3.7035    2.0015   16.8327 C   0  0  0  0  0  0  0  0  0  0  0  0
    3.1674    0.8039   17.2386 C   0  0  0  0  0  0  0  0  0  0  0  0
    2.3856    0.0739   16.4079 F   0  0  0  0  0  0  0  0  0  0  0  0
    3.4177    0.3190   18.5295 C   0  0  0  0  0  0  0  0  0  0  0  0
    3.4373    2.4839   15.4902 C   0  0  0  0  0  0  0  0  0  0  0  0
    3.9591    3.6697   15.0241 C   0  0  0  0  0  0  0  0  0  0  0  0
    3.6918    4.1082   13.7232 C   0  0  0  0  0  0  0  0  0  0  0  0
    2.9068    3.3972   12.8481 C   0  0  0  0  0  0  0  0  0  0  0  0
    2.3810    2.1852   13.3403 C   0  0  0  0  0  0  0  0  0  0  0  0
    2.6518    1.7707   14.6134 C   0  0  0  0  0  0  0  0  0  0  0  0
    2.5926    3.7580   11.5626 O   0  0  0  0  0  0  0  0  0  0  0  0
    2.6628    5.0308   11.0030 C   0  0  0  0  0  0  0  0  0  0  0  0
    1.2947    5.5256   10.6578 C   0  0  0  0  0  0  0  0  0  0  0  0
    0.9951    6.8014   11.3883 C   0  0  0  0  0  0  0  0  0  0  0  0
    0.7787    6.5390   12.8390 C   0  0  0  0  0  0  0  0  0  0  0  0
    1.2635    7.6570   13.7262 C   0  0  0  0  0  0  0  0  0  0  0  0
    2.3390    8.4313   13.0210 C   0  0  0  0  0  0  0  0  0  0  0  0
    3.1182    9.1218   14.0138 O   0  0  0  0  0  0  0  0  0  0  0  0
    4.4640    9.2287   13.7586 N   0  0  0  0  0  0  0  0  0  0  0  0
    5.1375    8.2792   13.3171 O   0  0  0  0  0  0  0  0  0  0  0  0
    5.0354   10.4598   14.0213 O   0  0  0  0  0  0  0  0  0  0  0  0
    3.9676    1.4355   21.8347 C   0  0  0  0  0  0  0  0  0  0  0  0
    2.7922    1.2472   22.3095 O   0  0  0  0  0  0  0  0  0  0  0  0
    4.6884    2.5016   22.4199 N   0  0  0  0  0  0  0  0  0  0  0  0
    5.6486    2.6922   22.0672 H   0  0  0  0  0  0  0  0  0  0  0  0
    4.1775    3.3348   23.4741 C   0  0  0  0  0  0  0  0  0  0  0  0
    3.9775    4.7650   23.0339 C   0  0  0  0  0  0  0  0  0  0  0  0
    4.7718    5.0295   21.7703 C   0  0  0  0  0  0  0  0  0  0  0  0
    3.7648    5.4443   20.6959 C   0  0  0  0  0  0  0  0  0  0  0  0
    4.4477    5.9725   19.4927 C   0  0  0  0  0  0  0  0  0  0  0  0
    3.8722    7.1922   18.9088 C   0  0  0  0  0  0  0  0  0  0  0  0
    3.6608    8.3056   19.7321 N   0  0  0  0  0  0  0  0  0  0  0  0
    2.7910    8.2444   20.3839 H   0  0  0  0  0  0  0  0  0  0  0  0
    4.3546    9.5069   19.8894 C   0  0  0  0  0  0  0  0  0  0  0  0
    4.0246   10.5935   19.1040 C   0  0  0  0  0  0  0  0  0  0  0  0
    4.6766   11.7896   19.2928 C   0  0  0  0  0  0  0  0  0  0  0  0
    5.6384   11.8818   20.2551 N   0  0  0  0  0  0  0  0  0  0  0  0
    5.9877   10.8512   21.0391 C   0  0  0  0  0  0  0  0  0  0  0  0
    6.9581   10.9705   22.0048 C   0  0  0  0  0  0  0  0  0  0  0  0
    7.3007    9.9128   22.7987 C   0  0  0  0  0  0  0  0  0  0  0  0
    6.6463    8.7136   22.6082 C   0  0  0  0  0  0  0  0  0  0  0  0
    5.6793    8.5701   21.6558 C   0  0  0  0  0  0  0  0  0  0  0  0
    5.3387    9.6484   20.8552 C   0  0  0  0  0  0  0  0  0  0  0  0
    4.3366   12.9420   18.4516 C   0  0  0  0  0  0  0  0  0  0  0  0
    2.9359   12.9865   17.9485 C   0  0  0  0  0  0  0  0  0  0  0  0
    2.1085   11.7733   18.2700 C   0  0  0  0  0  0  0  0  0  0  0  0
    2.9727   10.5270   18.0606 C   0  0  0  0  0  0  0  0  0  0  0  0
  1  2  1  0  0  0
  2 27  1  0  0  0
 27 28  2  0  0  0
 27 29  1  0  0  0
 29 31  1  0  0  0
 31 32  1  0  0  0
 32 33  1  0  0  0
 33 34  1  0  0  0
 34 35  1  0  0  0
 35 36  1  0  0  0
 36 37  1  0  0  0
 37 39  1  0  0  0
 39 40  2  0  0  0
 40 41  1  0  0  0
 41 42  2  0  0  0
 42 43  1  0  0  0
 43 44  2  0  0  0
 44 45  1  0  0  0
 45 46  2  0  0  0
 46 47  1  0  0  0
 47 48  2  0  0  0
 41 49  1  0  0  0
 49 50  1  0  0  0
 50 51  1  0  0  0
 51 52  1  0  0  0
  2  3  1  0  0  0
  3  4  2  0  0  0
  4  5  1  0  0  0
  5  6  2  0  0  0
  6 10  1  0  0  0
 10 11  2  0  0  0
 11 12  1  0  0  0
 12 13  2  0  0  0
 13 16  1  0  0  0
 16 17  1  0  0  0
 17 18  1  0  0  0
 18 19  1  0  0  0
 19 20  1  0  0  0
 20 21  1  0  0  0
 21 22  1  0  0  0
 22 23  1  0  0  0
 23 24  1  0  0  0
 24 25  2  0  0  0
 24 26  1  0  0  0
 13 14  1  0  0  0
 14 15  2  0  0  0
  6  7  1  0  0  0
  7  8  1  0  0  0
  7  9  2  0  0  0
 48 39  1  0  0  0
  9  3  1  0  0  0
 52 40  1  0  0  0
 15 10  1  0  0  0
 48 43  1  0  0  0
 29 30  1  0  0  0
 37 38  1  0  0  0
M  CHG 1  24   1
M  CHG 1  26  -1
M  END
> <minimizedAffinity>
-9.29233

> <CNNscore>
0.1771000177

> <CNNaffinity>
7.3040146828

> <CNN_VS>
1.2935410738

> <CNNaffinity_variance>
0.7792730927

$$$$
[H]OC(=O)[C@@]([H])(N([H])[H])C([H])([H])OP(=O)(O[H])O[C@]1([H])C([H])([H])C([H])([H])C([H])([H])O[C@]1([H])C([H])([H])OC(=O)C([H])([H])C([H])([H])c1c([H])c([H])c([H])c([H])c1OC([H])([H])c1c([H])c([H])c([H])c(Oc2c([H])c([H])c(C([H])([H])[H])c([H])c2[H])c1[H]


 49 52  0  0  0  0  0  0  0  0999 V2000
    3.0653    5.5523   17.2771 C   0  0  0  0  0  0  0  0  0  0  0  0
    1.9772    4.9542   17.2461 O   0  0  0  0  0  0  0  0  0  0  0  0
    3.2815    6.5492   16.2961 O   0  0  0  0  0  0  0  0  0  0  0  0
    3.6970    6.3287   15.0211 C   0  0  0  0  0  0  0  0  0  0  0  0
    2.7747    6.6362   13.8804 C   0  0  0  0  0  0  0  0  0  0  0  0
    1.4724    6.2790   14.1099 O   0  0  0  0  0  0  0  0  0  0  0  0
    0.5097    7.0876   13.5592 C   0  0  0  0  0  0  0  0  0  0  0  0
    0.8466    7.6899   12.2323 C   0  0  0  0  0  0  0  0  0  0  0  0
    2.2329    8.2184   12.1260 C   0  0  0  0  0  0  0  0  0  0  0  0
    2.9003    8.1135   13.4862 C   0  0  0  0  0  0  0  0  0  0  0  0
    2.3865    8.9831   14.4013 O   0  0  0  0  0  0  0  0  0  0  0  0
    3.4343   10.1439   14.9805 P   0  0  0  0  0  0  0  0  0  0  0  0
    4.7497   10.2071   14.2776 O   0  0  0  0  0  0  0  0  0  0  0  0
    2.7523   11.7108   14.8631 O   0  0  0  0  0  0  0  0  0  0  0  0
    2.2522   11.9025   15.6712 H   0  0  0  0  0  0  0  0  0  0  0  0
    3.6391    9.8534   16.6481 O   0  0  0  0  0  0  0  0  0  0  0  0
    3.1578   10.9024   17.4268 C   0  0  0  0  0  0  0  0  0  0  0  0
    4.0810   10.9878   18.6324 C   0  0  0  0  0  0  0  0  0  0  0  0
    5.4155   11.2247   18.1593 N   0  0  0  0  0  0  0  0  0  0  0  0
    5.6057   12.2078   17.9538 H   0  0  0  0  0  0  0  0  0  0  0  0
    6.1490   10.7127   18.6663 H   0  0  0  0  0  0  0  0  0  0  0  0
    3.9604    9.8475   19.5454 C   0  0  0  0  0  0  0  0  0  0  0  0
    4.6924    9.7407   20.5532 O   0  0  0  0  0  0  0  0  0  0  0  0
    3.0252    8.8593   19.3045 O   0  0  0  0  0  0  0  0  0  0  0  0
    2.0375    8.9468   19.3462 H   0  0  0  0  0  0  0  0  0  0  0  0
    4.1219    5.2857   18.2473 C   0  0  0  0  0  0  0  0  0  0  0  0
    3.8982    5.5770   19.6731 C   0  0  0  0  0  0  0  0  0  0  0  0
    5.1991    5.9541   21.8094 C   0  0  0  0  0  0  0  0  0  0  0  0
    6.3570    6.3852   22.3974 C   0  0  0  0  0  0  0  0  0  0  0  0
    7.3885    7.0013   21.6769 C   0  0  0  0  0  0  0  0  0  0  0  0
    7.2071    7.1684   20.3253 C   0  0  0  0  0  0  0  0  0  0  0  0
    6.0594    6.7434   19.7119 C   0  0  0  0  0  0  0  0  0  0  0  0
    5.0493    6.1346   20.4348 C   0  0  0  0  0  0  0  0  0  0  0  0
    4.2121    5.3761   22.5292 O   0  0  0  0  0  0  0  0  0  0  0  0
    4.0914    4.1768   23.1759 C   0  0  0  0  0  0  0  0  0  0  0  0
    4.4948    1.1931   20.8737 C   0  0  0  0  0  0  0  0  0  0  0  0
    5.8242    0.8195   21.0875 C   0  0  0  0  0  0  0  0  0  0  0  0
    6.5312    1.5735   21.9920 C   0  0  0  0  0  0  0  0  0  0  0  0
    5.9703    2.6394   22.6549 C   0  0  0  0  0  0  0  0  0  0  0  0
    4.6492    2.9908   22.4244 C   0  0  0  0  0  0  0  0  0  0  0  0
    3.9273    2.2564   21.5310 C   0  0  0  0  0  0  0  0  0  0  0  0
    3.7923    0.4214   19.9630 O   0  0  0  0  0  0  0  0  0  0  0  0
    2.9523    1.7479   14.5802 C   0  0  0  0  0  0  0  0  0  0  0  0
    3.1696    1.3909   15.9961 C   0  0  0  0  0  0  0  0  0  0  0  0
    2.3933    0.4041   16.5888 C   0  0  0  0  0  0  0  0  0  0  0  0
    2.6241    0.0950   17.9269 C   0  0  0  0  0  0  0  0  0  0  0  0
    3.5874    0.7363   18.6614 C   0  0  0  0  0  0  0  0  0  0  0  0
    4.3536    1.7237   18.0421 C   0  0  0  0  0  0  0  0  0  0  0  0
    4.1546    2.0549   16.7234 C   0  0  0  0  0  0  0  0  0  0  0  0
 43 44  1  0  0  0
 44 45  2  0  0  0
 45 46  1  0  0  0
 46 47  2  0  0  0
 47 42  1  0  0  0
 42 36  1  0  0  0
 36 37  2  0  0  0
 37 38  1  0  0  0
 38 39  2  0  0  0
 39 40  1  0  0  0
 40 35  1  0  0  0
 35 34  1  0  0  0
 34 28  1  0  0  0
 28 29  2  0  0  0
 29 30  1  0  0  0
 30 31  2  0  0  0
 31 32  1  0  0  0
 32 33  2  0  0  0
 33 27  1  0  0  0
 27 26  1  0  0  0
 26  1  1  0  0  0
  1  2  2  0  0  0
  1  3  1  0  0  0
  3  4  1  0  0  0
  4  5  1  0  0  0
  5  6  1  0  0  0
  6  7  1  0  0  0
  7  8  1  0  0  0
  8  9  1  0  0  0
  9 10  1  0  0  0
 10 11  1  0  0  0
 11 12  1  0  0  0
 12 13  2  0  0  0
 12 14  1  0  0  0
 12 16  1  0  0  0
 16 17  1  0  0  0
 17 18  1  0  0  0
 18 19  1  0  0  0
 18 22  1  0  0  0
 22 23  2  0  0  0
 22 24  1  0  0  0
 40 41  2  0  0  0
 47 48  1  0  0  0
 48 49  2  0  0  0
 49 44  1  0  0  0
 41 36  1  0  0  0
 33 28  1  0  0  0
 10  5  1  0  0  0
 14 15  1  0  0  0
 19 20  1  0  0  0
 19 21  1  0  0  0
 24 25  1  0  0  0
M  END
> <minimizedAffinity>
-9.64616

> <CNNscore>
0.3855626583

> <CNNaffinity>
6.6624197960

> <CNN_VS>
2.5687801838

> <CNNaffinity_variance>
0.3379902244

$$$$
[H]OC(=O)[C@@]([H])(N([H])[H])C([H])([H])OP(=O)(O[H])O[C@]1([H])C([H])([H])C([H])([H])C([H])([H])O[C@]1([H])C([H])([H])OC(=O)C([H])([H])C([H])([H])c1c([H])c([H])c([H])c([H])c1OC([H])([H])c1c([H])c([H])c([H])c(Oc2c([H])c([H])c(C([H])([H])[H])c([H])c2[H])c1[H]


 49 52  0  0  0  0  0  0  0  0999 V2000
    3.1375    5.5184   16.4397 C   0  0  0  0  0  0  0  0  0  0  0  0
    1.9685    5.2593   16.7694 O   0  0  0  0  0  0  0  0  0  0  0  0
    3.5076    5.2388   15.1026 O   0  0  0  0  0  0  0  0  0  0  0  0
    3.7027    6.1626   14.1252 C   0  0  0  0  0  0  0  0  0  0  0  0
    2.5784    6.5000   13.1932 C   0  0  0  0  0  0  0  0  0  0  0  0
    1.3578    6.0370   13.6080 O   0  0  0  0  0  0  0  0  0  0  0  0
    0.2717    6.8209   13.3085 C   0  0  0  0  0  0  0  0  0  0  0  0
    0.3365    7.5527   12.0057 C   0  0  0  0  0  0  0  0  0  0  0  0
    1.6525    8.1815   11.7134 C   0  0  0  0  0  0  0  0  0  0  0  0
    2.5543    8.0100   12.9233 C   0  0  0  0  0  0  0  0  0  0  0  0
    2.1651    8.7637   13.9902 O   0  0  0  0  0  0  0  0  0  0  0  0
    3.3207    9.7806   14.6316 P   0  0  0  0  0  0  0  0  0  0  0  0
    3.9537    9.2931   15.8925 O   0  0  0  0  0  0  0  0  0  0  0  0
    4.6001   10.0444   13.5237 O   0  0  0  0  0  0  0  0  0  0  0  0
    4.3853   10.8058   12.9634 H   0  0  0  0  0  0  0  0  0  0  0  0
    2.5855   11.3021   14.8584 O   0  0  0  0  0  0  0  0  0  0  0  0
    3.5224   12.3238   14.9889 C   0  0  0  0  0  0  0  0  0  0  0  0
    3.4415   12.7850   16.4359 C   0  0  0  0  0  0  0  0  0  0  0  0
    4.4768   12.1210   17.1765 N   0  0  0  0  0  0  0  0  0  0  0  0
    5.3904   12.5717   17.0920 H   0  0  0  0  0  0  0  0  0  0  0  0
    4.2026   11.8147   18.1190 H   0  0  0  0  0  0  0  0  0  0  0  0
    2.1040   12.6512   17.0203 C   0  0  0  0  0  0  0  0  0  0  0  0
    1.9412   12.2091   18.1782 O   0  0  0  0  0  0  0  0  0  0  0  0
    0.9874   13.0152   16.2925 O   0  0  0  0  0  0  0  0  0  0  0  0
    0.7293   13.9309   16.0097 H   0  0  0  0  0  0  0  0  0  0  0  0
    4.1398    6.0792   17.3395 C   0  0  0  0  0  0  0  0  0  0  0  0
    3.9864    5.9238   18.7957 C   0  0  0  0  0  0  0  0  0  0  0  0
    4.9533    7.0569   20.8399 C   0  0  0  0  0  0  0  0  0  0  0  0
    5.2735    8.2288   21.4697 C   0  0  0  0  0  0  0  0  0  0  0  0
    4.9276    9.4848   20.9543 C   0  0  0  0  0  0  0  0  0  0  0  0
    4.2389    9.5157   19.7659 C   0  0  0  0  0  0  0  0  0  0  0  0
    3.9089    8.3579   19.1140 C   0  0  0  0  0  0  0  0  0  0  0  0
    4.2582    7.1243   19.6329 C   0  0  0  0  0  0  0  0  0  0  0  0
    5.2852    5.8570   21.3656 O   0  0  0  0  0  0  0  0  0  0  0  0
    4.8019    5.1155   22.4086 C   0  0  0  0  0  0  0  0  0  0  0  0
    4.4927    1.7709   20.6526 C   0  0  0  0  0  0  0  0  0  0  0  0
    3.7647    1.0097   21.5707 C   0  0  0  0  0  0  0  0  0  0  0  0
    3.4032    1.6416   22.7354 C   0  0  0  0  0  0  0  0  0  0  0  0
    3.7353    2.9507   22.9926 C   0  0  0  0  0  0  0  0  0  0  0  0
    4.4593    3.6845   22.0658 C   0  0  0  0  0  0  0  0  0  0  0  0
    4.8290    3.0784   20.9019 C   0  0  0  0  0  0  0  0  0  0  0  0
    4.8466    1.1230   19.4807 O   0  0  0  0  0  0  0  0  0  0  0  0
    2.2241    1.6778   14.5558 C   0  0  0  0  0  0  0  0  0  0  0  0
    2.9114    1.5236   15.8531 C   0  0  0  0  0  0  0  0  0  0  0  0
    2.4757    0.5652   16.7584 C   0  0  0  0  0  0  0  0  0  0  0  0
    3.1460    0.4494   17.9735 C   0  0  0  0  0  0  0  0  0  0  0  0
    4.2114    1.2512   18.2910 C   0  0  0  0  0  0  0  0  0  0  0  0
    4.6292    2.2060   17.3638 C   0  0  0  0  0  0  0  0  0  0  0  0
    3.9925    2.3485   16.1545 C   0  0  0  0  0  0  0  0  0  0  0  0
 43 44  1  0  0  0
 44 45  2  0  0  0
 45 46  1  0  0  0
 46 47  2  0  0  0
 47 42  1  0  0  0
 42 36  1  0  0  0
 36 37  2  0  0  0
 37 38  1  0  0  0
 38 39  2  0  0  0
 39 40  1  0  0  0
 40 35  1  0  0  0
 35 34  1  0  0  0
 34 28  1  0  0  0
 28 29  2  0  0  0
 29 30  1  0  0  0
 30 31  2  0  0  0
 31 32  1  0  0  0
 32 33  2  0  0  0
 33 27  1  0  0  0
 27 26  1  0  0  0
 26  1  1  0  0  0
  1  2  2  0  0  0
  1  3  1  0  0  0
  3  4  1  0  0  0
  4  5  1  0  0  0
  5  6  1  0  0  0
  6  7  1  0  0  0
  7  8  1  0  0  0
  8  9  1  0  0  0
  9 10  1  0  0  0
 10 11  1  0  0  0
 11 12  1  0  0  0
 12 13  2  0  0  0
 12 14  1  0  0  0
 12 16  1  0  0  0
 16 17  1  0  0  0
 17 18  1  0  0  0
 18 19  1  0  0  0
 18 22  1  0  0  0
 22 23  2  0  0  0
 22 24  1  0  0  0
 40 41  2  0  0  0
 47 48  1  0  0  0
 48 49  2  0  0  0
 49 44  1  0  0  0
 41 36  1  0  0  0
 33 28  1  0  0  0
 10  5  1  0  0  0
 14 15  1  0  0  0
 19 20  1  0  0  0
 19 21  1  0  0  0
 24 25  1  0  0  0
M  END
> <minimizedAffinity>
-9.60727

> <CNNscore>
0.3181642890

> <CNNaffinity>
6.5022950172

> <CNN_VS>
2.0687980652

> <CNNaffinity_variance>
0.0983593315

$$$$
[H]OC(=O)[C@@]([H])(N([H])[H])C([H])([H])OP(=O)(O[H])O[C@]1([H])C([H])([H])C([H])([H])C([H])([H])O[C@]1([H])C([H])([H])OC(=O)C([H])([H])C([H])([H])c1c([H])c([H])c([H])c([H])c1OC([H])([H])c1c([H])c([H])c([H])c(Oc2c([H])c([H])c(C([H])([H])[H])c([H])c2[H])c1[H]


 49 52  0  0  0  0  0  0  0  0999 V2000
    3.7655    6.2054   18.5678 C   0  0  0  0  0  0  0  0  0  0  0  0
    2.8273    5.3960   18.6517 O   0  0  0  0  0  0  0  0  0  0  0  0
    3.4370    7.5811   18.6182 O   0  0  0  0  0  0  0  0  0  0  0  0
    4.2388    8.5698   19.0939 C   0  0  0  0  0  0  0  0  0  0  0  0
    3.6856    9.9527   19.2613 C   0  0  0  0  0  0  0  0  0  0  0  0
    4.5652   10.8357   19.8295 O   0  0  0  0  0  0  0  0  0  0  0  0
    4.4937   12.1358   19.3954 C   0  0  0  0  0  0  0  0  0  0  0  0
    3.1254   12.6336   19.0535 C   0  0  0  0  0  0  0  0  0  0  0  0
    2.2942   11.6756   18.2764 C   0  0  0  0  0  0  0  0  0  0  0  0
    3.1446   10.4684   17.9216 C   0  0  0  0  0  0  0  0  0  0  0  0
    4.1078   10.7468   16.9983 O   0  0  0  0  0  0  0  0  0  0  0  0
    3.8001   10.2394   15.4399 P   0  0  0  0  0  0  0  0  0  0  0  0
    2.5477   10.7860   14.8390 O   0  0  0  0  0  0  0  0  0  0  0  0
    5.0720   10.6797   14.3805 O   0  0  0  0  0  0  0  0  0  0  0  0
    5.7381    9.9754   14.3714 H   0  0  0  0  0  0  0  0  0  0  0  0
    3.7832    8.5345   15.4573 O   0  0  0  0  0  0  0  0  0  0  0  0
    3.7632    7.9965   14.1732 C   0  0  0  0  0  0  0  0  0  0  0  0
    2.5672    7.0580   14.1301 C   0  0  0  0  0  0  0  0  0  0  0  0
    1.3769    7.8403   14.3094 N   0  0  0  0  0  0  0  0  0  0  0  0
    1.0491    8.2851   13.4494 H   0  0  0  0  0  0  0  0  0  0  0  0
    0.6589    7.4018   14.9006 H   0  0  0  0  0  0  0  0  0  0  0  0
    2.6819    5.9193   15.0458 C   0  0  0  0  0  0  0  0  0  0  0  0
    3.7275    5.2369   15.1077 O   0  0  0  0  0  0  0  0  0  0  0  0
    1.6236    5.5764   15.8653 O   0  0  0  0  0  0  0  0  0  0  0  0
    1.2608    6.1009   16.6257 H   0  0  0  0  0  0  0  0  0  0  0  0
    5.1662    5.8265   18.4148 C   0  0  0  0  0  0  0  0  0  0  0  0
    5.8934    5.2341   19.5497 C   0  0  0  0  0  0  0  0  0  0  0  0
    5.9433    6.2927   21.8465 C   0  0  0  0  0  0  0  0  0  0  0  0
    6.6109    7.0849   22.7404 C   0  0  0  0  0  0  0  0  0  0  0  0
    7.7789    7.7836   22.4082 C   0  0  0  0  0  0  0  0  0  0  0  0
    8.2545    7.6522   21.1260 C   0  0  0  0  0  0  0  0  0  0  0  0
    7.6072    6.8636   20.2131 C   0  0  0  0  0  0  0  0  0  0  0  0
    6.4558    6.1774   20.5547 C   0  0  0  0  0  0  0  0  0  0  0  0
    4.8096    5.6407   22.1872 O   0  0  0  0  0  0  0  0  0  0  0  0
    4.5504    4.5122   22.9156 C   0  0  0  0  0  0  0  0  0  0  0  0
    4.5554    1.3695   20.7970 C   0  0  0  0  0  0  0  0  0  0  0  0
    5.8178    0.8290   21.0548 C   0  0  0  0  0  0  0  0  0  0  0  0
    6.6147    1.5305   21.9261 C   0  0  0  0  0  0  0  0  0  0  0  0
    6.2017    2.7014   22.5166 C   0  0  0  0  0  0  0  0  0  0  0  0
    4.9445    3.2178   22.2436 C   0  0  0  0  0  0  0  0  0  0  0  0
    4.1354    2.5384   21.3819 C   0  0  0  0  0  0  0  0  0  0  0  0
    3.7605    0.6495   19.9205 O   0  0  0  0  0  0  0  0  0  0  0  0
    3.0026    1.8736   14.5013 C   0  0  0  0  0  0  0  0  0  0  0  0
    3.1995    1.5431   15.9266 C   0  0  0  0  0  0  0  0  0  0  0  0
    2.5403    0.4551   16.4830 C   0  0  0  0  0  0  0  0  0  0  0  0
    2.7476    0.1744   17.8312 C   0  0  0  0  0  0  0  0  0  0  0  0
    3.5762    0.9395   18.6100 C   0  0  0  0  0  0  0  0  0  0  0  0
    4.2266    2.0268   18.0265 C   0  0  0  0  0  0  0  0  0  0  0  0
    4.0468    2.3337   16.6992 C   0  0  0  0  0  0  0  0  0  0  0  0
 43 44  1  0  0  0
 44 45  2  0  0  0
 45 46  1  0  0  0
 46 47  2  0  0  0
 47 42  1  0  0  0
 42 36  1  0  0  0
 36 37  2  0  0  0
 37 38  1  0  0  0
 38 39  2  0  0  0
 39 40  1  0  0  0
 40 35  1  0  0  0
 35 34  1  0  0  0
 34 28  1  0  0  0
 28 29  2  0  0  0
 29 30  1  0  0  0
 30 31  2  0  0  0
 31 32  1  0  0  0
 32 33  2  0  0  0
 33 27  1  0  0  0
 27 26  1  0  0  0
 26  1  1  0  0  0
  1  2  2  0  0  0
  1  3  1  0  0  0
  3  4  1  0  0  0
  4  5  1  0  0  0
  5  6  1  0  0  0
  6  7  1  0  0  0
  7  8  1  0  0  0
  8  9  1  0  0  0
  9 10  1  0  0  0
 10 11  1  0  0  0
 11 12  1  0  0  0
 12 13  2  0  0  0
 12 14  1  0  0  0
 12 16  1  0  0  0
 16 17  1  0  0  0
 17 18  1  0  0  0
 18 19  1  0  0  0
 18 22  1  0  0  0
 22 23  2  0  0  0
 22 24  1  0  0  0
 40 41  2  0  0  0
 47 48  1  0  0  0
 48 49  2  0  0  0
 49 44  1  0  0  0
 41 36  1  0  0  0
 33 28  1  0  0  0
 10  5  1  0  0  0
 14 15  1  0  0  0
 19 20  1  0  0  0
 19 21  1  0  0  0
 24 25  1  0  0  0
M  END
> <minimizedAffinity>
-9.71925

> <CNNscore>
0.1970354915

> <CNNaffinity>
6.2903842926

> <CNN_VS>
1.2394289970

> <CNNaffinity_variance>
0.3907999396

$$$$
[H]OC(=O)[C@@]([H])(N([H])[H])C([H])([H])OP(=O)(O[H])O[C@]1([H])C([H])([H])C([H])([H])C([H])([H])O[C@]1([H])C([H])([H])OC(=O)C([H])([H])C([H])([H])c1c([H])c([H])c([H])c([H])c1OC([H])([H])c1c([H])c([H])c([H])c(Oc2c([H])c([H])c(C([H])([H])[H])c([H])c2[H])c1[H]


 49 52  0  0  0  0  0  0  0  0999 V2000
    4.4495    7.1224   18.6789 C   0  0  0  0  0  0  0  0  0  0  0  0
    3.3333    6.8067   19.1226 O   0  0  0  0  0  0  0  0  0  0  0  0
    4.7900    8.4958   18.7071 O   0  0  0  0  0  0  0  0  0  0  0  0
    3.9942    9.4998   19.1604 C   0  0  0  0  0  0  0  0  0  0  0  0
    4.6187   10.7241   19.7585 C   0  0  0  0  0  0  0  0  0  0  0  0
    5.9725   10.6220   19.9409 O   0  0  0  0  0  0  0  0  0  0  0  0
    6.7011   11.7732   19.7744 C   0  0  0  0  0  0  0  0  0  0  0  0
    6.0299   13.0370   20.2093 C   0  0  0  0  0  0  0  0  0  0  0  0
    4.6004   13.1471   19.8129 C   0  0  0  0  0  0  0  0  0  0  0  0
    4.2459   11.9617   18.9322 C   0  0  0  0  0  0  0  0  0  0  0  0
    4.8353   12.0139   17.7043 O   0  0  0  0  0  0  0  0  0  0  0  0
    3.8112   12.2348   16.4069 P   0  0  0  0  0  0  0  0  0  0  0  0
    2.4408   11.6710   16.5875 O   0  0  0  0  0  0  0  0  0  0  0  0
    3.6028   13.8984   16.0562 O   0  0  0  0  0  0  0  0  0  0  0  0
    4.2898   14.1819   15.4338 H   0  0  0  0  0  0  0  0  0  0  0  0
    4.5778   11.5671   15.0382 O   0  0  0  0  0  0  0  0  0  0  0  0
    3.7655   10.6501   14.3764 C   0  0  0  0  0  0  0  0  0  0  0  0
    4.2992    9.2744   14.7447 C   0  0  0  0  0  0  0  0  0  0  0  0
    3.4598    8.7286   15.7736 N   0  0  0  0  0  0  0  0  0  0  0  0
    2.6073    8.2933   15.4147 H   0  0  0  0  0  0  0  0  0  0  0  0
    3.9608    8.2155   16.5104 H   0  0  0  0  0  0  0  0  0  0  0  0
    5.7287    9.2673   15.0684 C   0  0  0  0  0  0  0  0  0  0  0  0
    6.5873    8.9534   14.2157 O   0  0  0  0  0  0  0  0  0  0  0  0
    6.1566    9.6107   16.3365 O   0  0  0  0  0  0  0  0  0  0  0  0
    6.1044   10.5046   16.7644 H   0  0  0  0  0  0  0  0  0  0  0  0
    5.4139    6.1744   18.1309 C   0  0  0  0  0  0  0  0  0  0  0  0
    5.0520    4.7530   18.0017 C   0  0  0  0  0  0  0  0  0  0  0  0
    4.2290    2.9780   16.3987 C   0  0  0  0  0  0  0  0  0  0  0  0
    3.6101    2.6876   15.2133 C   0  0  0  0  0  0  0  0  0  0  0  0
    3.2590    3.6727   14.2810 C   0  0  0  0  0  0  0  0  0  0  0  0
    3.5584    4.9770   14.5920 C   0  0  0  0  0  0  0  0  0  0  0  0
    4.1745    5.2948   15.7726 C   0  0  0  0  0  0  0  0  0  0  0  0
    4.5141    4.3126   16.6854 C   0  0  0  0  0  0  0  0  0  0  0  0
    4.5712    2.0078   17.2749 O   0  0  0  0  0  0  0  0  0  0  0  0
    3.9262    0.9052   17.7642 C   0  0  0  0  0  0  0  0  0  0  0  0
    4.3793    1.5389   21.4734 C   0  0  0  0  0  0  0  0  0  0  0  0
    3.4352    0.6835   22.0473 C   0  0  0  0  0  0  0  0  0  0  0  0
    2.6887   -0.0722   21.1766 C   0  0  0  0  0  0  0  0  0  0  0  0
    2.8539    0.0026   19.8138 C   0  0  0  0  0  0  0  0  0  0  0  0
    3.7969    0.8603   19.2688 C   0  0  0  0  0  0  0  0  0  0  0  0
    4.5502    1.6202   20.1137 C   0  0  0  0  0  0  0  0  0  0  0  0
    5.1283    2.2914   22.3629 O   0  0  0  0  0  0  0  0  0  0  0  0
    6.1225    7.7943   21.9513 C   0  0  0  0  0  0  0  0  0  0  0  0
    5.8525    6.3468   22.0572 C   0  0  0  0  0  0  0  0  0  0  0  0
    4.5480    5.8943   22.2035 C   0  0  0  0  0  0  0  0  0  0  0  0
    4.3306    4.5224   22.3029 C   0  0  0  0  0  0  0  0  0  0  0  0
    5.3630    3.6218   22.2611 C   0  0  0  0  0  0  0  0  0  0  0  0
    6.6641    4.1026   22.1134 C   0  0  0  0  0  0  0  0  0  0  0  0
    6.9167    5.4494   22.0115 C   0  0  0  0  0  0  0  0  0  0  0  0
 43 44  1  0  0  0
 44 45  2  0  0  0
 45 46  1  0  0  0
 46 47  2  0  0  0
 47 42  1  0  0  0
 42 36  1  0  0  0
 36 37  2  0  0  0
 37 38  1  0  0  0
 38 39  2  0  0  0
 39 40  1  0  0  0
 40 35  1  0  0  0
 35 34  1  0  0  0
 34 28  1  0  0  0
 28 29  2  0  0  0
 29 30  1  0  0  0
 30 31  2  0  0  0
 31 32  1  0  0  0
 32 33  2  0  0  0
 33 27  1  0  0  0
 27 26  1  0  0  0
 26  1  1  0  0  0
  1  2  2  0  0  0
  1  3  1  0  0  0
  3  4  1  0  0  0
  4  5  1  0  0  0
  5  6  1  0  0  0
  6  7  1  0  0  0
  7  8  1  0  0  0
  8  9  1  0  0  0
  9 10  1  0  0  0
 10 11  1  0  0  0
 11 12  1  0  0  0
 12 13  2  0  0  0
 12 14  1  0  0  0
 12 16  1  0  0  0
 16 17  1  0  0  0
 17 18  1  0  0  0
 18 19  1  0  0  0
 18 22  1  0  0  0
 22 23  2  0  0  0
 22 24  1  0  0  0
 40 41  2  0  0  0
 47 48  1  0  0  0
 48 49  2  0  0  0
 49 44  1  0  0  0
 41 36  1  0  0  0
 33 28  1  0  0  0
 10  5  1  0  0  0
 14 15  1  0  0  0
 19 20  1  0  0  0
 19 21  1  0  0  0
 24 25  1  0  0  0
M  END
> <minimizedAffinity>
-8.26362

> <CNNscore>
0.1922872812

> <CNNaffinity>
6.1967387199

> <CNN_VS>
1.1915540695

> <CNNaffinity_variance>
0.2674043477

$$$$
[H]OC(=O)[C@@]([H])(N([H])[H])C([H])([H])OP(=O)(O[H])O[C@]1([H])C([H])([H])C([H])([H])C([H])([H])O[C@]1([H])C([H])([H])OC(=O)C([H])([H])C([H])([H])c1c([H])c([H])c([H])c([H])c1OC([H])([H])c1c([H])c([H])c([H])c(Oc2c([H])c([H])c(C([H])([H])[H])c([H])c2[H])c1[H]


 49 52  0  0  0  0  0  0  0  0999 V2000
    3.9894    5.0611   17.2950 C   0  0  0  0  0  0  0  0  0  0  0  0
    2.9180    5.6839   17.3779 O   0  0  0  0  0  0  0  0  0  0  0  0
    4.2284    4.3455   16.0976 O   0  0  0  0  0  0  0  0  0  0  0  0
    3.2987    3.6495   15.3920 C   0  0  0  0  0  0  0  0  0  0  0  0
    3.5474    3.3414   13.9464 C   0  0  0  0  0  0  0  0  0  0  0  0
    2.9130    2.2107   13.5043 O   0  0  0  0  0  0  0  0  0  0  0  0
    2.4719    2.2247   12.2047 C   0  0  0  0  0  0  0  0  0  0  0  0
    3.3314    2.9697   11.2335 C   0  0  0  0  0  0  0  0  0  0  0  0
    3.8353    4.2783   11.7296 C   0  0  0  0  0  0  0  0  0  0  0  0
    3.2058    4.5622   13.0822 C   0  0  0  0  0  0  0  0  0  0  0  0
    1.8733    4.8377   13.0036 O   0  0  0  0  0  0  0  0  0  0  0  0
    1.3869    6.3003   13.6400 P   0  0  0  0  0  0  0  0  0  0  0  0
    0.2475    6.9469   12.9244 O   0  0  0  0  0  0  0  0  0  0  0  0
    0.8958    6.1348   15.2727 O   0  0  0  0  0  0  0  0  0  0  0  0
    1.6649    6.2530   15.8509 H   0  0  0  0  0  0  0  0  0  0  0  0
    2.7542    7.3184   13.6702 O   0  0  0  0  0  0  0  0  0  0  0  0
    2.4627    8.6026   13.2179 C   0  0  0  0  0  0  0  0  0  0  0  0
    3.4252    9.5310   13.9422 C   0  0  0  0  0  0  0  0  0  0  0  0
    4.7427    9.3096   13.4166 N   0  0  0  0  0  0  0  0  0  0  0  0
    4.9234    9.8139   12.5461 H   0  0  0  0  0  0  0  0  0  0  0  0
    5.4938    9.3239   14.1186 H   0  0  0  0  0  0  0  0  0  0  0  0
    3.3379    9.4430   15.4026 C   0  0  0  0  0  0  0  0  0  0  0  0
    2.9853   10.4233   16.0936 O   0  0  0  0  0  0  0  0  0  0  0  0
    3.6480    8.2614   16.0481 O   0  0  0  0  0  0  0  0  0  0  0  0
    3.1458    7.4064   16.0059 H   0  0  0  0  0  0  0  0  0  0  0  0
    4.9985    5.0185   18.3480 C   0  0  0  0  0  0  0  0  0  0  0  0
    5.9251    6.1495   18.5213 C   0  0  0  0  0  0  0  0  0  0  0  0
    6.2418    7.1821   20.8085 C   0  0  0  0  0  0  0  0  0  0  0  0
    5.9563    8.2135   21.6612 C   0  0  0  0  0  0  0  0  0  0  0  0
    5.0332    9.2203   21.3498 C   0  0  0  0  0  0  0  0  0  0  0  0
    4.4012    9.1478   20.1320 C   0  0  0  0  0  0  0  0  0  0  0  0
    4.6710    8.1280   19.2593 C   0  0  0  0  0  0  0  0  0  0  0  0
    5.5862    7.1413   19.5784 C   0  0  0  0  0  0  0  0  0  0  0  0
    7.1254    6.2144   21.1387 O   0  0  0  0  0  0  0  0  0  0  0  0
    7.2034    5.3164   22.1677 C   0  0  0  0  0  0  0  0  0  0  0  0
    4.7332    2.4470   21.9952 C   0  0  0  0  0  0  0  0  0  0  0  0
    3.6633    2.9183   22.7604 C   0  0  0  0  0  0  0  0  0  0  0  0
    3.8059    4.1734   23.2996 C   0  0  0  0  0  0  0  0  0  0  0  0
    4.9359    4.9315   23.1032 C   0  0  0  0  0  0  0  0  0  0  0  0
    5.9845    4.4408   22.3406 C   0  0  0  0  0  0  0  0  0  0  0  0
    5.8653    3.1972   21.7946 C   0  0  0  0  0  0  0  0  0  0  0  0
    4.5741    1.1822   21.4536 O   0  0  0  0  0  0  0  0  0  0  0  0
    2.3932    0.0387   16.4161 C   0  0  0  0  0  0  0  0  0  0  0  0
    2.9705    0.3473   17.7393 C   0  0  0  0  0  0  0  0  0  0  0  0
    4.0044    1.2678   17.8465 C   0  0  0  0  0  0  0  0  0  0  0  0
    4.5265    1.5325   19.1101 C   0  0  0  0  0  0  0  0  0  0  0  0
    4.0487    0.9114   20.2346 C   0  0  0  0  0  0  0  0  0  0  0  0
    3.0094   -0.0091   20.0994 C   0  0  0  0  0  0  0  0  0  0  0  0
    2.4689   -0.2950   18.8688 C   0  0  0  0  0  0  0  0  0  0  0  0
 43 44  1  0  0  0
 44 45  2  0  0  0
 45 46  1  0  0  0
 46 47  2  0  0  0
 47 42  1  0  0  0
 42 36  1  0  0  0
 36 37  2  0  0  0
 37 38  1  0  0  0
 38 39  2  0  0  0
 39 40  1  0  0  0
 40 35  1  0  0  0
 35 34  1  0  0  0
 34 28  1  0  0  0
 28 29  2  0  0  0
 29 30  1  0  0  0
 30 31  2  0  0  0
 31 32  1  0  0  0
 32 33  2  0  0  0
 33 27  1  0  0  0
 27 26  1  0  0  0
 26  1  1  0  0  0
  1  2  2  0  0  0
  1  3  1  0  0  0
  3  4  1  0  0  0
  4  5  1  0  0  0
  5  6  1  0  0  0
  6  7  1  0  0  0
  7  8  1  0  0  0
  8  9  1  0  0  0
  9 10  1  0  0  0
 10 11  1  0  0  0
 11 12  1  0  0  0
 12 13  2  0  0  0
 12 14  1  0  0  0
 12 16  1  0  0  0
 16 17  1  0  0  0
 17 18  1  0  0  0
 18 19  1  0  0  0
 18 22  1  0  0  0
 22 23  2  0  0  0
 22 24  1  0  0  0
 40 41  2  0  0  0
 47 48  1  0  0  0
 48 49  2  0  0  0
 49 44  1  0  0  0
 41 36  1  0  0  0
 33 28  1  0  0  0
 10  5  1  0  0  0
 14 15  1  0  0  0
 19 20  1  0  0  0
 19 21  1  0  0  0
 24 25  1  0  0  0
M  END
> <minimizedAffinity>
-8.67532

> <CNNscore>
0.1713434011

> <CNNaffinity>
6.1625280380

> <CNN_VS>
1.0559085608

> <CNNaffinity_variance>
0.5824571848

$$$$
[H]OC(=O)[C@@]([H])(N([H])[H])C([H])([H])OP(=O)(O[H])O[C@]1([H])C([H])([H])C([H])([H])C([H])([H])O[C@]1([H])C([H])([H])OC(=O)C([H])([H])C([H])([H])c1c([H])c([H])c([H])c([H])c1OC([H])([H])c1c([H])c([H])c([H])c(Oc2c([H])c([H])c(C([H])([H])[H])c([H])c2[H])c1[H]


 49 52  0  0  0  0  0  0  0  0999 V2000
    3.8921    5.5413   18.6191 C   0  0  0  0  0  0  0  0  0  0  0  0
    3.1124    5.3963   19.5748 O   0  0  0  0  0  0  0  0  0  0  0  0
    3.3169    5.7657   17.3456 O   0  0  0  0  0  0  0  0  0  0  0  0
    2.3590    4.9977   16.7629 C   0  0  0  0  0  0  0  0  0  0  0  0
    2.7223    4.1149   15.6074 C   0  0  0  0  0  0  0  0  0  0  0  0
    1.6664    3.4055   15.0995 O   0  0  0  0  0  0  0  0  0  0  0  0
    1.6738    3.1820   13.7453 C   0  0  0  0  0  0  0  0  0  0  0  0
    3.0196    2.9718   13.1276 C   0  0  0  0  0  0  0  0  0  0  0  0
    4.0733    3.9065   13.6059 C   0  0  0  0  0  0  0  0  0  0  0  0
    3.4337    4.9343   14.5229 C   0  0  0  0  0  0  0  0  0  0  0  0
    2.6252    5.8099   13.8616 O   0  0  0  0  0  0  0  0  0  0  0  0
    3.0800    7.4133   13.9147 P   0  0  0  0  0  0  0  0  0  0  0  0
    1.9804    8.3655   14.2508 O   0  0  0  0  0  0  0  0  0  0  0  0
    4.3104    7.6720   15.0780 O   0  0  0  0  0  0  0  0  0  0  0  0
    5.1760    7.5442   14.6608 H   0  0  0  0  0  0  0  0  0  0  0  0
    3.7831    7.7897   12.4077 O   0  0  0  0  0  0  0  0  0  0  0  0
    3.6734    6.7395   11.5002 C   0  0  0  0  0  0  0  0  0  0  0  0
    3.5231    7.3828   10.1303 C   0  0  0  0  0  0  0  0  0  0  0  0
    4.7115    8.1409    9.8583 N   0  0  0  0  0  0  0  0  0  0  0  0
    5.4823    7.5738    9.4989 H   0  0  0  0  0  0  0  0  0  0  0  0
    4.5492    9.0422    9.3907 H   0  0  0  0  0  0  0  0  0  0  0  0
    2.2778    8.1393    9.9710 C   0  0  0  0  0  0  0  0  0  0  0  0
    2.1432    8.9868    9.0619 O   0  0  0  0  0  0  0  0  0  0  0  0
    1.2194    7.9265   10.8333 O   0  0  0  0  0  0  0  0  0  0  0  0
    0.6654    7.1067   10.9103 H   0  0  0  0  0  0  0  0  0  0  0  0
    5.3460    5.4871   18.7294 C   0  0  0  0  0  0  0  0  0  0  0  0
    6.1300    6.7331   18.7033 C   0  0  0  0  0  0  0  0  0  0  0  0
    6.6231    7.5718   21.0380 C   0  0  0  0  0  0  0  0  0  0  0  0
    6.4711    8.5662   21.9657 C   0  0  0  0  0  0  0  0  0  0  0  0
    5.6451    9.6781   21.7557 C   0  0  0  0  0  0  0  0  0  0  0  0
    4.9701    9.7512   20.5613 C   0  0  0  0  0  0  0  0  0  0  0  0
    5.1070    8.7713   19.6150 C   0  0  0  0  0  0  0  0  0  0  0  0
    5.9275    7.6795   19.8343 C   0  0  0  0  0  0  0  0  0  0  0  0
    7.4144    6.5014   21.2709 O   0  0  0  0  0  0  0  0  0  0  0  0
    7.4155    5.5145   22.2182 C   0  0  0  0  0  0  0  0  0  0  0  0
    4.8916    2.7151   21.8204 C   0  0  0  0  0  0  0  0  0  0  0  0
    3.7563    3.2357   22.4468 C   0  0  0  0  0  0  0  0  0  0  0  0
    3.8758    4.4988   22.9730 C   0  0  0  0  0  0  0  0  0  0  0  0
    5.0443    5.2186   22.8929 C   0  0  0  0  0  0  0  0  0  0  0  0
    6.1575    4.6793   22.2670 C   0  0  0  0  0  0  0  0  0  0  0  0
    6.0625    3.4270   21.7366 C   0  0  0  0  0  0  0  0  0  0  0  0
    4.7557    1.4428   21.2901 O   0  0  0  0  0  0  0  0  0  0  0  0
    2.4048    0.1966   16.3545 C   0  0  0  0  0  0  0  0  0  0  0  0
    3.0262    0.5325   17.6508 C   0  0  0  0  0  0  0  0  0  0  0  0
    4.0119    1.5082   17.7144 C   0  0  0  0  0  0  0  0  0  0  0  0
    4.5780    1.7974   18.9535 C   0  0  0  0  0  0  0  0  0  0  0  0
    4.1888    1.1473   20.0957 C   0  0  0  0  0  0  0  0  0  0  0  0
    3.1964    0.1713   20.0044 C   0  0  0  0  0  0  0  0  0  0  0  0
    2.6148   -0.1402   18.7990 C   0  0  0  0  0  0  0  0  0  0  0  0
 43 44  1  0  0  0
 44 45  2  0  0  0
 45 46  1  0  0  0
 46 47  2  0  0  0
 47 42  1  0  0  0
 42 36  1  0  0  0
 36 37  2  0  0  0
 37 38  1  0  0  0
 38 39  2  0  0  0
 39 40  1  0  0  0
 40 35  1  0  0  0
 35 34  1  0  0  0
 34 28  1  0  0  0
 28 29  2  0  0  0
 29 30  1  0  0  0
 30 31  2  0  0  0
 31 32  1  0  0  0
 32 33  2  0  0  0
 33 27  1  0  0  0
 27 26  1  0  0  0
 26  1  1  0  0  0
  1  2  2  0  0  0
  1  3  1  0  0  0
  3  4  1  0  0  0
  4  5  1  0  0  0
  5  6  1  0  0  0
  6  7  1  0  0  0
  7  8  1  0  0  0
  8  9  1  0  0  0
  9 10  1  0  0  0
 10 11  1  0  0  0
 11 12  1  0  0  0
 12 13  2  0  0  0
 12 14  1  0  0  0
 12 16  1  0  0  0
 16 17  1  0  0  0
 17 18  1  0  0  0
 18 19  1  0  0  0
 18 22  1  0  0  0
 22 23  2  0  0  0
 22 24  1  0  0  0
 40 41  2  0  0  0
 47 48  1  0  0  0
 48 49  2  0  0  0
 49 44  1  0  0  0
 41 36  1  0  0  0
 33 28  1  0  0  0
 10  5  1  0  0  0
 14 15  1  0  0  0
 19 20  1  0  0  0
 19 21  1  0  0  0
 24 25  1  0  0  0
M  END
> <minimizedAffinity>
-8.27138

> <CNNscore>
0.1627268344

> <CNNaffinity>
6.1689014435

> <CNN_VS>
1.0038458109

> <CNNaffinity_variance>
0.3413717747

$$$$
[H]OC(=O)[C@@]([H])(N([H])[H])C([H])([H])OP(=O)(O[H])O[C@]1([H])C([H])([H])C([H])([H])C([H])([H])O[C@]1([H])C([H])([H])OC(=O)C([H])([H])C([H])([H])c1c([H])c([H])c([H])c([H])c1OC([H])([H])c1c([H])c([H])c([H])c(Oc2c([H])c([H])c(C([H])([H])[H])c([H])c2[H])c1[H]


 49 52  0  0  0  0  0  0  0  0999 V2000
    4.5852    6.0286   17.3108 C   0  0  0  0  0  0  0  0  0  0  0  0
    5.3817    6.9312   17.6161 O   0  0  0  0  0  0  0  0  0  0  0  0
    3.7453    6.2595   16.1954 O   0  0  0  0  0  0  0  0  0  0  0  0
    4.1547    6.3619   14.9036 C   0  0  0  0  0  0  0  0  0  0  0  0
    3.1496    6.6581   13.8319 C   0  0  0  0  0  0  0  0  0  0  0  0
    1.8530    6.6573   14.2735 O   0  0  0  0  0  0  0  0  0  0  0  0
    1.0010    7.5499   13.6726 C   0  0  0  0  0  0  0  0  0  0  0  0
    1.2449    7.8050   12.2192 C   0  0  0  0  0  0  0  0  0  0  0  0
    2.6764    7.9730   11.8515 C   0  0  0  0  0  0  0  0  0  0  0  0
    3.5096    7.9693   13.1212 C   0  0  0  0  0  0  0  0  0  0  0  0
    3.3293    9.0862   13.8813 O   0  0  0  0  0  0  0  0  0  0  0  0
    4.7145    9.8898   14.3461 P   0  0  0  0  0  0  0  0  0  0  0  0
    5.9854    9.2900   13.8425 O   0  0  0  0  0  0  0  0  0  0  0  0
    4.7026   11.5141   13.8025 O   0  0  0  0  0  0  0  0  0  0  0  0
    4.2753   12.0712   14.4710 H   0  0  0  0  0  0  0  0  0  0  0  0
    4.7037    9.9729   16.0490 O   0  0  0  0  0  0  0  0  0  0  0  0
    3.4245    9.8109   16.5745 C   0  0  0  0  0  0  0  0  0  0  0  0
    3.1827   11.0168   17.4691 C   0  0  0  0  0  0  0  0  0  0  0  0
    2.2688   10.6294   18.5063 N   0  0  0  0  0  0  0  0  0  0  0  0
    2.7204   10.1498   19.2880 H   0  0  0  0  0  0  0  0  0  0  0  0
    1.5671   11.3407   18.7492 H   0  0  0  0  0  0  0  0  0  0  0  0
    2.7834   12.2210   16.7350 C   0  0  0  0  0  0  0  0  0  0  0  0
    2.2442   12.1480   15.6095 O   0  0  0  0  0  0  0  0  0  0  0  0
    2.9992   13.4719   17.2806 O   0  0  0  0  0  0  0  0  0  0  0  0
    2.5580   13.8607   18.0801 H   0  0  0  0  0  0  0  0  0  0  0  0
    4.4609    4.7648   18.0294 C   0  0  0  0  0  0  0  0  0  0  0  0
    5.1575    3.5670   17.5313 C   0  0  0  0  0  0  0  0  0  0  0  0
    3.9118    1.3686   17.6455 C   0  0  0  0  0  0  0  0  0  0  0  0
    3.0251    0.5099   17.0549 C   0  0  0  0  0  0  0  0  0  0  0  0
    2.5121    0.7177   15.7679 C   0  0  0  0  0  0  0  0  0  0  0  0
    2.9313    1.8371   15.0904 C   0  0  0  0  0  0  0  0  0  0  0  0
    3.8154    2.7137   15.6596 C   0  0  0  0  0  0  0  0  0  0  0  0
    4.3128    2.4977   16.9321 C   0  0  0  0  0  0  0  0  0  0  0  0
    4.4039    1.1377   18.8827 O   0  0  0  0  0  0  0  0  0  0  0  0
    3.8309    0.8267   20.0854 C   0  0  0  0  0  0  0  0  0  0  0  0
    5.7539    3.2555   22.2690 C   0  0  0  0  0  0  0  0  0  0  0  0
    5.2785    2.9582   23.5488 C   0  0  0  0  0  0  0  0  0  0  0  0
    4.3400    1.9590   23.6335 C   0  0  0  0  0  0  0  0  0  0  0  0
    3.8868    1.2833   22.5253 C   0  0  0  0  0  0  0  0  0  0  0  0
    4.3734    1.5977   21.2659 C   0  0  0  0  0  0  0  0  0  0  0  0
    5.3062    2.5860   21.1572 C   0  0  0  0  0  0  0  0  0  0  0  0
    6.7032    4.2616   22.1987 O   0  0  0  0  0  0  0  0  0  0  0  0
    5.6199    9.7221   21.5287 C   0  0  0  0  0  0  0  0  0  0  0  0
    5.8997    8.2826   21.6986 C   0  0  0  0  0  0  0  0  0  0  0  0
    4.9972    7.3407   21.2230 C   0  0  0  0  0  0  0  0  0  0  0  0
    5.2922    5.9916   21.4030 C   0  0  0  0  0  0  0  0  0  0  0  0
    6.4383    5.5797   22.0319 C   0  0  0  0  0  0  0  0  0  0  0  0
    7.3283    6.5462   22.5002 C   0  0  0  0  0  0  0  0  0  0  0  0
    7.0709    7.8865   22.3400 C   0  0  0  0  0  0  0  0  0  0  0  0
 43 44  1  0  0  0
 44 45  2  0  0  0
 45 46  1  0  0  0
 46 47  2  0  0  0
 47 42  1  0  0  0
 42 36  1  0  0  0
 36 37  2  0  0  0
 37 38  1  0  0  0
 38 39  2  0  0  0
 39 40  1  0  0  0
 40 35  1  0  0  0
 35 34  1  0  0  0
 34 28  1  0  0  0
 28 29  2  0  0  0
 29 30  1  0  0  0
 30 31  2  0  0  0
 31 32  1  0  0  0
 32 33  2  0  0  0
 33 27  1  0  0  0
 27 26  1  0  0  0
 26  1  1  0  0  0
  1  2  2  0  0  0
  1  3  1  0  0  0
  3  4  1  0  0  0
  4  5  1  0  0  0
  5  6  1  0  0  0
  6  7  1  0  0  0
  7  8  1  0  0  0
  8  9  1  0  0  0
  9 10  1  0  0  0
 10 11  1  0  0  0
 11 12  1  0  0  0
 12 13  2  0  0  0
 12 14  1  0  0  0
 12 16  1  0  0  0
 16 17  1  0  0  0
 17 18  1  0  0  0
 18 19  1  0  0  0
 18 22  1  0  0  0
 22 23  2  0  0  0
 22 24  1  0  0  0
 40 41  2  0  0  0
 47 48  1  0  0  0
 48 49  2  0  0  0
 49 44  1  0  0  0
 41 36  1  0  0  0
 33 28  1  0  0  0
 10  5  1  0  0  0
 14 15  1  0  0  0
 19 20  1  0  0  0
 19 21  1  0  0  0
 24 25  1  0  0  0
M  END
> <minimizedAffinity>
-8.75269

> <CNNscore>
0.1595534086

> <CNNaffinity>
6.4375123978

> <CNN_VS>
1.0271270275

> <CNNaffinity_variance>
0.1655089557

$$$$
[H]OC(=O)[C@@]([H])(N([H])[H])C([H])([H])OP(=O)(O[H])O[C@]1([H])C([H])([H])C([H])([H])C([H])([H])O[C@]1([H])C([H])([H])OC(=O)C([H])([H])C([H])([H])c1c([H])c([H])c([H])c([H])c1OC([H])([H])c1c([H])c([H])c([H])c(Oc2c([H])c([H])c(C([H])([H])[H])c([H])c2[H])c1[H]


 49 52  0  0  0  0  0  0  0  0999 V2000
    4.7238    5.9359   17.8171 C   0  0  0  0  0  0  0  0  0  0  0  0
    3.5906    5.9143   18.3249 O   0  0  0  0  0  0  0  0  0  0  0  0
    5.4316    7.1602   17.8708 O   0  0  0  0  0  0  0  0  0  0  0  0
    4.9273    8.3811   17.5515 C   0  0  0  0  0  0  0  0  0  0  0  0
    4.6624    8.7178   16.1152 C   0  0  0  0  0  0  0  0  0  0  0  0
    3.8290    7.8328   15.4839 O   0  0  0  0  0  0  0  0  0  0  0  0
    2.9887    8.3551   14.5327 C   0  0  0  0  0  0  0  0  0  0  0  0
    3.5393    9.4914   13.7310 C   0  0  0  0  0  0  0  0  0  0  0  0
    4.2819   10.5067   14.5248 C   0  0  0  0  0  0  0  0  0  0  0  0
    4.1560   10.1613   15.9982 C   0  0  0  0  0  0  0  0  0  0  0  0
    2.8982   10.3550   16.4863 O   0  0  0  0  0  0  0  0  0  0  0  0
    2.7192   11.5990   17.5823 P   0  0  0  0  0  0  0  0  0  0  0  0
    3.0027   12.9596   17.0372 O   0  0  0  0  0  0  0  0  0  0  0  0
    1.1242   11.6545   18.2042 O   0  0  0  0  0  0  0  0  0  0  0  0
    1.0679   11.0886   18.9893 H   0  0  0  0  0  0  0  0  0  0  0  0
    3.7224   11.2470   18.9152 O   0  0  0  0  0  0  0  0  0  0  0  0
    4.5566   12.3131   19.2407 C   0  0  0  0  0  0  0  0  0  0  0  0
    5.9763   11.7727   19.1672 C   0  0  0  0  0  0  0  0  0  0  0  0
    6.7304   12.3453   20.2463 N   0  0  0  0  0  0  0  0  0  0  0  0
    6.5998   11.8597   21.1363 H   0  0  0  0  0  0  0  0  0  0  0  0
    7.6947   12.6082   20.0053 H   0  0  0  0  0  0  0  0  0  0  0  0
    6.5971   11.9321   17.8490 C   0  0  0  0  0  0  0  0  0  0  0  0
    6.3867   12.9464   17.1492 O   0  0  0  0  0  0  0  0  0  0  0  0
    7.4347   10.9523   17.3515 O   0  0  0  0  0  0  0  0  0  0  0  0
    8.3288   10.6963   17.6981 H   0  0  0  0  0  0  0  0  0  0  0  0
    5.3562    4.7909   17.1705 C   0  0  0  0  0  0  0  0  0  0  0  0
    5.3782    3.4851   17.8504 C   0  0  0  0  0  0  0  0  0  0  0  0
    4.0346    1.3546   18.0818 C   0  0  0  0  0  0  0  0  0  0  0  0
    3.0995    0.5130   17.5436 C   0  0  0  0  0  0  0  0  0  0  0  0
    2.5753    0.6873   16.2561 C   0  0  0  0  0  0  0  0  0  0  0  0
    3.0342    1.7547   15.5228 C   0  0  0  0  0  0  0  0  0  0  0  0
    3.9672    2.6134   16.0389 C   0  0  0  0  0  0  0  0  0  0  0  0
    4.4753    2.4309   17.3125 C   0  0  0  0  0  0  0  0  0  0  0  0
    4.5362    1.1560   19.3209 O   0  0  0  0  0  0  0  0  0  0  0  0
    3.9691    0.9583   20.5499 C   0  0  0  0  0  0  0  0  0  0  0  0
    4.1339    4.4431   22.0312 C   0  0  0  0  0  0  0  0  0  0  0  0
    4.3333    4.1883   23.3905 C   0  0  0  0  0  0  0  0  0  0  0  0
    4.4085    2.8672   23.7584 C   0  0  0  0  0  0  0  0  0  0  0  0
    4.2944    1.8448   22.8463 C   0  0  0  0  0  0  0  0  0  0  0  0
    4.0958    2.1237   21.5030 C   0  0  0  0  0  0  0  0  0  0  0  0
    4.0183    3.4281   21.1141 C   0  0  0  0  0  0  0  0  0  0  0  0
    4.0648    5.7794   21.6736 O   0  0  0  0  0  0  0  0  0  0  0  0
    8.4489    9.0951   20.5663 C   0  0  0  0  0  0  0  0  0  0  0  0
    7.3001    8.2156   20.8597 C   0  0  0  0  0  0  0  0  0  0  0  0
    7.4524    6.8365   20.8077 C   0  0  0  0  0  0  0  0  0  0  0  0
    6.3467    6.0375   21.0876 C   0  0  0  0  0  0  0  0  0  0  0  0
    5.1278    6.5762   21.4080 C   0  0  0  0  0  0  0  0  0  0  0  0
    5.0016    7.9646   21.4534 C   0  0  0  0  0  0  0  0  0  0  0  0
    6.0708    8.7846   21.1838 C   0  0  0  0  0  0  0  0  0  0  0  0
 43 44  1  0  0  0
 44 45  2  0  0  0
 45 46  1  0  0  0
 46 47  2  0  0  0
 47 42  1  0  0  0
 42 36  1  0  0  0
 36 37  2  0  0  0
 37 38  1  0  0  0
 38 39  2  0  0  0
 39 40  1  0  0  0
 40 35  1  0  0  0
 35 34  1  0  0  0
 34 28  1  0  0  0
 28 29  2  0  0  0
 29 30  1  0  0  0
 30 31  2  0  0  0
 31 32  1  0  0  0
 32 33  2  0  0  0
 33 27  1  0  0  0
 27 26  1  0  0  0
 26  1  1  0  0  0
  1  2  2  0  0  0
  1  3  1  0  0  0
  3  4  1  0  0  0
  4  5  1  0  0  0
  5  6  1  0  0  0
  6  7  1  0  0  0
  7  8  1  0  0  0
  8  9  1  0  0  0
  9 10  1  0  0  0
 10 11  1  0  0  0
 11 12  1  0  0  0
 12 13  2  0  0  0
 12 14  1  0  0  0
 12 16  1  0  0  0
 16 17  1  0  0  0
 17 18  1  0  0  0
 18 19  1  0  0  0
 18 22  1  0  0  0
 22 23  2  0  0  0
 22 24  1  0  0  0
 40 41  2  0  0  0
 47 48  1  0  0  0
 48 49  2  0  0  0
 49 44  1  0  0  0
 41 36  1  0  0  0
 33 28  1  0  0  0
 10  5  1  0  0  0
 14 15  1  0  0  0
 19 20  1  0  0  0
 19 21  1  0  0  0
 24 25  1  0  0  0
M  END
> <minimizedAffinity>
-8.79951

> <CNNscore>
0.1566741914

> <CNNaffinity>
6.1014389992

> <CNN_VS>
0.9559380412

> <CNNaffinity_variance>
0.4452011585

$$$$
[H]OC(=O)[C@@]([H])(N([H])[H])C([H])([H])OP(=O)(O[H])O[C@]1([H])C([H])([H])C([H])([H])C([H])([H])O[C@]1([H])C([H])([H])OC(=O)C([H])([H])C([H])([H])c1c([H])c([H])c([H])c([H])c1OC([H])([H])c1c([H])c([H])c([H])c(Oc2c([H])c([H])c(C([H])([H])[H])c([H])c2[H])c1[H]


 49 52  0  0  0  0  0  0  0  0999 V2000
    3.8832    6.2171   18.1762 C   0  0  0  0  0  0  0  0  0  0  0  0
    3.2008    5.6526   19.0469 O   0  0  0  0  0  0  0  0  0  0  0  0
    3.6821    7.6068   17.9996 O   0  0  0  0  0  0  0  0  0  0  0  0
    4.4161    8.5930   18.5788 C   0  0  0  0  0  0  0  0  0  0  0  0
    3.7694    9.9087   18.8904 C   0  0  0  0  0  0  0  0  0  0  0  0
    4.6148   10.8177   19.4696 O   0  0  0  0  0  0  0  0  0  0  0  0
    4.4116   12.1358   19.1454 C   0  0  0  0  0  0  0  0  0  0  0  0
    2.9879   12.5416   18.9319 C   0  0  0  0  0  0  0  0  0  0  0  0
    2.1819   11.5776   18.1358 C   0  0  0  0  0  0  0  0  0  0  0  0
    3.0973   10.4751   17.6329 C   0  0  0  0  0  0  0  0  0  0  0  0
    3.9689   10.9003   16.6752 O   0  0  0  0  0  0  0  0  0  0  0  0
    3.4161   10.8462   15.1028 P   0  0  0  0  0  0  0  0  0  0  0  0
    2.4972   11.9598   14.7232 O   0  0  0  0  0  0  0  0  0  0  0  0
    4.7139   10.8937   13.9859 O   0  0  0  0  0  0  0  0  0  0  0  0
    5.0133    9.9894   13.8058 H   0  0  0  0  0  0  0  0  0  0  0  0
    2.6712    9.3286   14.8806 O   0  0  0  0  0  0  0  0  0  0  0  0
    3.5988    8.3188   14.6387 C   0  0  0  0  0  0  0  0  0  0  0  0
    3.1132    7.5926   13.3939 C   0  0  0  0  0  0  0  0  0  0  0  0
    3.3716    8.4301   12.2568 N   0  0  0  0  0  0  0  0  0  0  0  0
    4.3316    8.3631   11.9121 H   0  0  0  0  0  0  0  0  0  0  0  0
    2.6287    8.4315   11.5459 H   0  0  0  0  0  0  0  0  0  0  0  0
    1.7285    7.1222   13.4918 C   0  0  0  0  0  0  0  0  0  0  0  0
    1.3894    6.2701   14.3413 O   0  0  0  0  0  0  0  0  0  0  0  0
    0.7633    7.6181   12.6365 O   0  0  0  0  0  0  0  0  0  0  0  0
    0.4056    8.5434   12.6094 H   0  0  0  0  0  0  0  0  0  0  0  0
    4.8608    5.5395   17.3312 C   0  0  0  0  0  0  0  0  0  0  0  0
    5.1717    4.1193   17.5642 C   0  0  0  0  0  0  0  0  0  0  0  0
    4.0535    1.8725   17.2491 C   0  0  0  0  0  0  0  0  0  0  0  0
    3.2456    1.0807   16.4792 C   0  0  0  0  0  0  0  0  0  0  0  0
    2.7785    1.4743   15.2184 C   0  0  0  0  0  0  0  0  0  0  0  0
    3.1606    2.7109   14.7573 C   0  0  0  0  0  0  0  0  0  0  0  0
    3.9658    3.5238   15.5091 C   0  0  0  0  0  0  0  0  0  0  0  0
    4.4185    3.1237   16.7534 C   0  0  0  0  0  0  0  0  0  0  0  0
    4.5033    1.4634   18.4560 O   0  0  0  0  0  0  0  0  0  0  0  0
    3.8861    1.0478   19.6039 C   0  0  0  0  0  0  0  0  0  0  0  0
    5.8683    3.1158   22.0858 C   0  0  0  0  0  0  0  0  0  0  0  0
    5.3134    2.7374   23.3111 C   0  0  0  0  0  0  0  0  0  0  0  0
    4.3046    1.8067   23.2618 C   0  0  0  0  0  0  0  0  0  0  0  0
    3.8583    1.2715   22.0766 C   0  0  0  0  0  0  0  0  0  0  0  0
    4.4246    1.6643   20.8738 C   0  0  0  0  0  0  0  0  0  0  0  0
    5.4281    2.5868   20.8979 C   0  0  0  0  0  0  0  0  0  0  0  0
    6.8877    4.0512   22.1505 O   0  0  0  0  0  0  0  0  0  0  0  0
    6.2089    9.6171   22.1789 C   0  0  0  0  0  0  0  0  0  0  0  0
    6.3810    8.1509   22.1658 C   0  0  0  0  0  0  0  0  0  0  0  0
    5.3291    7.3334   21.7747 C   0  0  0  0  0  0  0  0  0  0  0  0
    5.5261    5.9548   21.7769 C   0  0  0  0  0  0  0  0  0  0  0  0
    6.7196    5.3955   22.1530 C   0  0  0  0  0  0  0  0  0  0  0  0
    7.7603    6.2391   22.5415 C   0  0  0  0  0  0  0  0  0  0  0  0
    7.6027    7.6042   22.5511 C   0  0  0  0  0  0  0  0  0  0  0  0
 43 44  1  0  0  0
 44 45  2  0  0  0
 45 46  1  0  0  0
 46 47  2  0  0  0
 47 42  1  0  0  0
 42 36  1  0  0  0
 36 37  2  0  0  0
 37 38  1  0  0  0
 38 39  2  0  0  0
 39 40  1  0  0  0
 40 35  1  0  0  0
 35 34  1  0  0  0
 34 28  1  0  0  0
 28 29  2  0  0  0
 29 30  1  0  0  0
 30 31  2  0  0  0
 31 32  1  0  0  0
 32 33  2  0  0  0
 33 27  1  0  0  0
 27 26  1  0  0  0
 26  1  1  0  0  0
  1  2  2  0  0  0
  1  3  1  0  0  0
  3  4  1  0  0  0
  4  5  1  0  0  0
  5  6  1  0  0  0
  6  7  1  0  0  0
  7  8  1  0  0  0
  8  9  1  0  0  0
  9 10  1  0  0  0
 10 11  1  0  0  0
 11 12  1  0  0  0
 12 13  2  0  0  0
 12 14  1  0  0  0
 12 16  1  0  0  0
 16 17  1  0  0  0
 17 18  1  0  0  0
 18 19  1  0  0  0
 18 22  1  0  0  0
 22 23  2  0  0  0
 22 24  1  0  0  0
 40 41  2  0  0  0
 47 48  1  0  0  0
 48 49  2  0  0  0
 49 44  1  0  0  0
 41 36  1  0  0  0
 33 28  1  0  0  0
 10  5  1  0  0  0
 14 15  1  0  0  0
 19 20  1  0  0  0
 19 21  1  0  0  0
 24 25  1  0  0  0
M  END
> <minimizedAffinity>
-9.32153

> <CNNscore>
0.1425664723

> <CNNaffinity>
6.0666885376

> <CNN_VS>
0.8649063706

> <CNNaffinity_variance>
0.5164682269

$$$$
[H]C([H])([H])C1([H])OC([H])(C([H])([H])[N+](C([H])([H])[H])(C([H])([H])[H])C([H])([H])[H])C([H])([H])OC1([H])[H].[I-]


 12 12  0  0  0  0  0  0  0  0999 V2000
    6.3915    1.4265   21.7955 C   0  0  0  0  0  0  0  0  0  0  0  0
    5.1934    2.3718   21.6568 C   0  0  0  0  0  0  0  0  0  0  0  0
    4.2995    2.0849   22.8510 C   0  0  0  0  0  0  0  0  0  0  0  0
    4.6134    3.0818   23.8052 O   0  0  0  0  0  0  0  0  0  0  0  0
    4.0634    4.2676   23.2789 C   0  0  0  0  0  0  0  0  0  0  0  0
    4.7104    4.6186   21.9440 C   0  0  0  0  0  0  0  0  0  0  0  0
    5.6569    3.6612   21.6254 O   0  0  0  0  0  0  0  0  0  0  0  0
    5.3467    5.9625   22.0911 C   0  0  0  0  0  0  0  0  0  0  0  0
    5.3145    6.7899   20.9456 N   0  0  0  0  0  0  0  0  0  0  0  0
    6.6220    6.7455   20.2710 C   0  0  0  0  0  0  0  0  0  0  0  0
    5.0954    8.1822   21.3677 C   0  0  0  0  0  0  0  0  0  0  0  0
    4.3231    6.4828   19.9721 C   0  0  0  0  0  0  0  0  0  0  0  0
  1  2  1  0  0  0
  2  3  1  0  0  0
  3  4  1  0  0  0
  4  5  1  0  0  0
  5  6  1  0  0  0
  6  8  1  0  0  0
  8  9  1  0  0  0
  9 10  1  0  0  0
  9 11  1  0  0  0
  9 12  1  0  0  0
  6  7  1  0  0  0
  7  2  1  0  0  0
M  CHG 1   9   1
M  END
> <minimizedAffinity>
-4.42691

> <CNNscore>
0.6075229645

> <CNNaffinity>
3.6838295460

> <CNN_VS>
2.2380111217

> <CNNaffinity_variance>
0.2359267771

$$$$
[H]C([H])([H])C1([H])OC([H])(C([H])([H])[N+](C([H])([H])[H])(C([H])([H])[H])C([H])([H])[H])C([H])([H])OC1([H])[H].[I-]


 12 12  0  0  0  0  0  0  0  0999 V2000
    3.6489    4.2069   23.3383 C   0  0  0  0  0  0  0  0  0  0  0  0
    4.8015    4.9166   22.6197 C   0  0  0  0  0  0  0  0  0  0  0  0
    5.5214    3.8388   21.8276 C   0  0  0  0  0  0  0  0  0  0  0  0
    5.0154    3.9378   20.5096 O   0  0  0  0  0  0  0  0  0  0  0  0
    5.5728    5.1274   20.0000 C   0  0  0  0  0  0  0  0  0  0  0  0
    5.1141    6.3322   20.8135 C   0  0  0  0  0  0  0  0  0  0  0  0
    4.2787    5.9089   21.8319 O   0  0  0  0  0  0  0  0  0  0  0  0
    4.3912    7.2538   19.8858 C   0  0  0  0  0  0  0  0  0  0  0  0
    4.7723    8.6136   19.9448 N   0  0  0  0  0  0  0  0  0  0  0  0
    3.7620    9.4367   19.2605 C   0  0  0  0  0  0  0  0  0  0  0  0
    6.0366    8.7878   19.2125 C   0  0  0  0  0  0  0  0  0  0  0  0
    4.9582    9.1618   21.2446 C   0  0  0  0  0  0  0  0  0  0  0  0
  1  2  1  0  0  0
  2  3  1  0  0  0
  3  4  1  0  0  0
  4  5  1  0  0  0
  5  6  1  0  0  0
  6  8  1  0  0  0
  8  9  1  0  0  0
  9 10  1  0  0  0
  9 11  1  0  0  0
  9 12  1  0  0  0
  6  7  1  0  0  0
  7  2  1  0  0  0
M  CHG 1   9   1
M  END
> <minimizedAffinity>
-4.50183

> <CNNscore>
0.5350078344

> <CNNaffinity>
3.3556437492

> <CNN_VS>
1.7952957153

> <CNNaffinity_variance>
0.2403934896

$$$$
[H]C([H])([H])C1([H])OC([H])(C([H])([H])[N+](C([H])([H])[H])(C([H])([H])[H])C([H])([H])[H])C([H])([H])OC1([H])[H].[I-]


 12 12  0  0  0  0  0  0  0  0999 V2000
    2.4130    2.8389    9.4469 C   0  0  0  0  0  0  0  0  0  0  0  0
    1.2286    2.7648   10.4164 C   0  0  0  0  0  0  0  0  0  0  0  0
    1.4932    1.5590   11.3016 C   0  0  0  0  0  0  0  0  0  0  0  0
    2.0645    2.0795   12.4871 O   0  0  0  0  0  0  0  0  0  0  0  0
    0.9986    2.7246   13.1454 C   0  0  0  0  0  0  0  0  0  0  0  0
    0.4520    3.8683   12.2987 C   0  0  0  0  0  0  0  0  0  0  0  0
    1.1613    3.9431   11.1132 O   0  0  0  0  0  0  0  0  0  0  0  0
    0.6075    5.1276   13.0878 C   0  0  0  0  0  0  0  0  0  0  0  0
   -0.4011    6.1005   12.9034 N   0  0  0  0  0  0  0  0  0  0  0  0
    0.0937    7.1565   12.0053 C   0  0  0  0  0  0  0  0  0  0  0  0
   -0.6925    6.7379   14.1972 C   0  0  0  0  0  0  0  0  0  0  0  0
   -1.6374    5.6363   12.3735 C   0  0  0  0  0  0  0  0  0  0  0  0
  1  2  1  0  0  0
  2  3  1  0  0  0
  3  4  1  0  0  0
  4  5  1  0  0  0
  5  6  1  0  0  0
  6  8  1  0  0  0
  8  9  1  0  0  0
  9 10  1  0  0  0
  9 11  1  0  0  0
  9 12  1  0  0  0
  6  7  1  0  0  0
  7  2  1  0  0  0
M  CHG 1   9   1
M  END
> <minimizedAffinity>
-2.69792

> <CNNscore>
0.5031758547

> <CNNaffinity>
2.8547167778

> <CNN_VS>
1.4364246130

> <CNNaffinity_variance>
0.2535548806

$$$$
[H]C([H])([H])C1([H])OC([H])(C([H])([H])[N+](C([H])([H])[H])(C([H])([H])[H])C([H])([H])[H])C([H])([H])OC1([H])[H].[I-]


 12 12  0  0  0  0  0  0  0  0999 V2000
    7.1771    7.1806   19.8344 C   0  0  0  0  0  0  0  0  0  0  0  0
    5.7767    7.0871   19.2192 C   0  0  0  0  0  0  0  0  0  0  0  0
    4.8112    7.4676   20.3285 C   0  0  0  0  0  0  0  0  0  0  0  0
    4.5057    8.8322   20.1108 O   0  0  0  0  0  0  0  0  0  0  0  0
    3.6855    8.8377   18.9650 C   0  0  0  0  0  0  0  0  0  0  0  0
    4.4367    8.2854   17.7589 C   0  0  0  0  0  0  0  0  0  0  0  0
    5.7182    7.9284   18.1388 O   0  0  0  0  0  0  0  0  0  0  0  0
    4.4731    9.3589   16.7203 C   0  0  0  0  0  0  0  0  0  0  0  0
    4.3882    8.9231   15.3784 N   0  0  0  0  0  0  0  0  0  0  0  0
    3.5184    9.8367   14.6198 C   0  0  0  0  0  0  0  0  0  0  0  0
    3.7514    7.5971   15.3459 C   0  0  0  0  0  0  0  0  0  0  0  0
    5.6172    8.8189   14.6690 C   0  0  0  0  0  0  0  0  0  0  0  0
  1  2  1  0  0  0
  2  3  1  0  0  0
  3  4  1  0  0  0
  4  5  1  0  0  0
  5  6  1  0  0  0
  6  8  1  0  0  0
  8  9  1  0  0  0
  9 10  1  0  0  0
  9 11  1  0  0  0
  9 12  1  0  0  0
  6  7  1  0  0  0
  7  2  1  0  0  0
M  CHG 1   9   1
M  END
> <minimizedAffinity>
-3.30201

> <CNNscore>
0.4991690218

> <CNNaffinity>
3.0972294807

> <CNN_VS>
1.5460410118

> <CNNaffinity_variance>
0.2622869015

$$$$
[H]C([H])([H])C1([H])OC([H])(C([H])([H])[N+](C([H])([H])[H])(C([H])([H])[H])C([H])([H])[H])C([H])([H])OC1([H])[H].[I-]


 12 12  0  0  0  0  0  0  0  0999 V2000
    3.3029    0.9044   22.1904 C   0  0  0  0  0  0  0  0  0  0  0  0
    3.7976    2.3033   22.5734 C   0  0  0  0  0  0  0  0  0  0  0  0
    5.0091    2.0845   23.4633 C   0  0  0  0  0  0  0  0  0  0  0  0
    6.1320    2.2302   22.6143 O   0  0  0  0  0  0  0  0  0  0  0  0
    6.1931    3.6098   22.3342 C   0  0  0  0  0  0  0  0  0  0  0  0
    4.9377    4.0697   21.6017 C   0  0  0  0  0  0  0  0  0  0  0  0
    4.0875    2.9927   21.4248 O   0  0  0  0  0  0  0  0  0  0  0  0
    5.3643    4.6283   20.2833 C   0  0  0  0  0  0  0  0  0  0  0  0
    4.9250    5.9410   19.9974 N   0  0  0  0  0  0  0  0  0  0  0  0
    3.5452    5.8966   19.4869 C   0  0  0  0  0  0  0  0  0  0  0  0
    5.7622    6.5023   18.9255 C   0  0  0  0  0  0  0  0  0  0  0  0
    4.9487    6.8649   21.0793 C   0  0  0  0  0  0  0  0  0  0  0  0
  1  2  1  0  0  0
  2  3  1  0  0  0
  3  4  1  0  0  0
  4  5  1  0  0  0
  5  6  1  0  0  0
  6  8  1  0  0  0
  8  9  1  0  0  0
  9 10  1  0  0  0
  9 11  1  0  0  0
  9 12  1  0  0  0
  6  7  1  0  0  0
  7  2  1  0  0  0
M  CHG 1   9   1
M  END
> <minimizedAffinity>
-4.30289

> <CNNscore>
0.4961211681

> <CNNaffinity>
3.6787495613

> <CNN_VS>
1.8251055479

> <CNNaffinity_variance>
0.2136528194

$$$$
[H]C([H])([H])C1([H])OC([H])(C([H])([H])[N+](C([H])([H])[H])(C([H])([H])[H])C([H])([H])[H])C([H])([H])OC1([H])[H].[I-]


 12 12  0  0  0  0  0  0  0  0999 V2000
    4.1223    3.8354   19.1753 C   0  0  0  0  0  0  0  0  0  0  0  0
    4.0176    4.8565   20.3132 C   0  0  0  0  0  0  0  0  0  0  0  0
    4.3449    4.0934   21.5852 C   0  0  0  0  0  0  0  0  0  0  0  0
    5.7087    4.3656   21.8479 O   0  0  0  0  0  0  0  0  0  0  0  0
    5.7308    5.7089   22.2730 C   0  0  0  0  0  0  0  0  0  0  0  0
    5.2301    6.6341   21.1697 C   0  0  0  0  0  0  0  0  0  0  0  0
    4.8891    5.8833   20.0588 O   0  0  0  0  0  0  0  0  0  0  0  0
    6.3344    7.5868   20.8448 C   0  0  0  0  0  0  0  0  0  0  0  0
    6.0548    8.9547   21.0652 N   0  0  0  0  0  0  0  0  0  0  0  0
    4.6990    9.2626   20.5818 C   0  0  0  0  0  0  0  0  0  0  0  0
    6.9894    9.7675   20.2709 C   0  0  0  0  0  0  0  0  0  0  0  0
    6.1396    9.4081   22.4113 C   0  0  0  0  0  0  0  0  0  0  0  0
  1  2  1  0  0  0
  2  3  1  0  0  0
  3  4  1  0  0  0
  4  5  1  0  0  0
  5  6  1  0  0  0
  6  8  1  0  0  0
  8  9  1  0  0  0
  9 10  1  0  0  0
  9 11  1  0  0  0
  9 12  1  0  0  0
  6  7  1  0  0  0
  7  2  1  0  0  0
M  CHG 1   9   1
M  END
> <minimizedAffinity>
-3.76836

> <CNNscore>
0.4866761267

> <CNNaffinity>
3.2934765816

> <CNN_VS>
1.6028563976

> <CNNaffinity_variance>
0.2149925530

$$$$
[H]C([H])([H])C1([H])OC([H])(C([H])([H])[N+](C([H])([H])[H])(C([H])([H])[H])C([H])([H])[H])C([H])([H])OC1([H])[H].[I-]


 12 12  0  0  0  0  0  0  0  0999 V2000
    5.9349    1.9253   21.6286 C   0  0  0  0  0  0  0  0  0  0  0  0
    4.6790    2.7590   21.3526 C   0  0  0  0  0  0  0  0  0  0  0  0
    4.0551    3.0293   22.7109 C   0  0  0  0  0  0  0  0  0  0  0  0
    4.4904    4.3259   23.0746 O   0  0  0  0  0  0  0  0  0  0  0  0
    3.7787    5.1948   22.2235 C   0  0  0  0  0  0  0  0  0  0  0  0
    4.1297    4.9305   20.7638 C   0  0  0  0  0  0  0  0  0  0  0  0
    5.0504    3.9004   20.6910 O   0  0  0  0  0  0  0  0  0  0  0  0
    4.7019    6.1914   20.2024 C   0  0  0  0  0  0  0  0  0  0  0  0
    4.2870    6.5291   18.8941 N   0  0  0  0  0  0  0  0  0  0  0  0
    3.8435    7.9324   18.8667 C   0  0  0  0  0  0  0  0  0  0  0  0
    3.1239    5.7033   18.5335 C   0  0  0  0  0  0  0  0  0  0  0  0
    5.2547    6.3687   17.8632 C   0  0  0  0  0  0  0  0  0  0  0  0
  1  2  1  0  0  0
  2  3  1  0  0  0
  3  4  1  0  0  0
  4  5  1  0  0  0
  5  6  1  0  0  0
  6  8  1  0  0  0
  8  9  1  0  0  0
  9 10  1  0  0  0
  9 11  1  0  0  0
  9 12  1  0  0  0
  6  7  1  0  0  0
  7  2  1  0  0  0
M  CHG 1   9   1
M  END
> <minimizedAffinity>
-4.33941

> <CNNscore>
0.4541420043

> <CNNaffinity>
3.5884406567

> <CNN_VS>
1.6296616793

> <CNNaffinity_variance>
0.1348042041

$$$$
[H]C([H])([H])C1([H])OC([H])(C([H])([H])[N+](C([H])([H])[H])(C([H])([H])[H])C([H])([H])[H])C([H])([H])OC1([H])[H].[I-]


 12 12  0  0  0  0  0  0  0  0999 V2000
    4.3500    2.2432   21.9913 C   0  0  0  0  0  0  0  0  0  0  0  0
    5.2248    3.1944   21.1677 C   0  0  0  0  0  0  0  0  0  0  0  0
    4.8568    2.9422   19.7156 C   0  0  0  0  0  0  0  0  0  0  0  0
    3.9312    3.9585   19.3792 O   0  0  0  0  0  0  0  0  0  0  0  0
    4.7019    5.1361   19.3079 C   0  0  0  0  0  0  0  0  0  0  0  0
    5.3355    5.4510   20.6582 C   0  0  0  0  0  0  0  0  0  0  0  0
    4.9740    4.4791   21.5741 O   0  0  0  0  0  0  0  0  0  0  0  0
    4.8380    6.7928   21.0876 C   0  0  0  0  0  0  0  0  0  0  0  0
    5.8288    7.7741   21.3185 N   0  0  0  0  0  0  0  0  0  0  0  0
    6.6388    7.3886   22.4855 C   0  0  0  0  0  0  0  0  0  0  0  0
    5.1717    9.0474   21.6527 C   0  0  0  0  0  0  0  0  0  0  0  0
    6.7259    8.0311   20.2443 C   0  0  0  0  0  0  0  0  0  0  0  0
  1  2  1  0  0  0
  2  3  1  0  0  0
  3  4  1  0  0  0
  4  5  1  0  0  0
  5  6  1  0  0  0
  6  8  1  0  0  0
  8  9  1  0  0  0
  9 10  1  0  0  0
  9 11  1  0  0  0
  9 12  1  0  0  0
  6  7  1  0  0  0
  7  2  1  0  0  0
M  CHG 1   9   1
M  END
> <minimizedAffinity>
-4.01204

> <CNNscore>
0.4094364345

> <CNNaffinity>
3.3850638866

> <CNN_VS>
1.3859684467

> <CNNaffinity_variance>
0.1314273179

$$$$
[H]C([H])([H])C1([H])OC([H])(C([H])([H])[N+](C([H])([H])[H])(C([H])([H])[H])C([H])([H])[H])C([H])([H])OC1([H])[H].[I-]


 12 12  0  0  0  0  0  0  0  0999 V2000
    4.5173    1.6144   18.8644 C   0  0  0  0  0  0  0  0  0  0  0  0
    4.1478    2.4518   20.0934 C   0  0  0  0  0  0  0  0  0  0  0  0
    4.0328    1.4680   21.2451 C   0  0  0  0  0  0  0  0  0  0  0  0
    5.2725    1.5360   21.9245 O   0  0  0  0  0  0  0  0  0  0  0  0
    5.2561    2.7854   22.5759 C   0  0  0  0  0  0  0  0  0  0  0  0
    5.1666    3.9223   21.5643 C   0  0  0  0  0  0  0  0  0  0  0  0
    5.1211    3.3976   20.2850 O   0  0  0  0  0  0  0  0  0  0  0  0
    6.3777    4.7793   21.7412 C   0  0  0  0  0  0  0  0  0  0  0  0
    6.1905    6.1644   21.5302 N   0  0  0  0  0  0  0  0  0  0  0  0
    6.7847    6.5490   20.2397 C   0  0  0  0  0  0  0  0  0  0  0  0
    6.9118    6.9087   22.5746 C   0  0  0  0  0  0  0  0  0  0  0  0
    4.8452    6.6279   21.5341 C   0  0  0  0  0  0  0  0  0  0  0  0
  1  2  1  0  0  0
  2  3  1  0  0  0
  3  4  1  0  0  0
  4  5  1  0  0  0
  5  6  1  0  0  0
  6  8  1  0  0  0
  8  9  1  0  0  0
  9 10  1  0  0  0
  9 11  1  0  0  0
  9 12  1  0  0  0
  6  7  1  0  0  0
  7  2  1  0  0  0
M  CHG 1   9   1
M  END
> <minimizedAffinity>
-4.17476

> <CNNscore>
0.4094100296

> <CNNaffinity>
3.5593903065

> <CNN_VS>
1.4572501183

> <CNNaffinity_variance>
0.1865582317

$$$$
[H]Sc1nnc(N([H])C(=O)N([H])N=C([H])c2c([H])c([H])c([H])c(OC([H])([H])[H])c2[H])s1


 23 24  0  0  0  0  0  0  0  0999 V2000
    3.0875    2.6013   13.8370 N   0  0  0  0  0  0  0  0  0  0  0  0
    2.8810    2.2417   15.1873 C   0  0  0  0  0  0  0  0  0  0  0  0
    2.3687    3.0684   15.9820 O   0  0  0  0  0  0  0  0  0  0  0  0
    3.2371    0.9687   15.6737 N   0  0  0  0  0  0  0  0  0  0  0  0
    3.5158    1.8974   13.1914 H   0  0  0  0  0  0  0  0  0  0  0  0
    3.6597    0.2720   15.0403 H   0  0  0  0  0  0  0  0  0  0  0  0
    3.0280    0.6047   17.0406 C   0  0  0  0  0  0  0  0  0  0  0  0
    2.1349   -0.2264   17.5702 N   0  0  0  0  0  0  0  0  0  0  0  0
    2.1085   -0.4188   18.8184 N   0  0  0  0  0  0  0  0  0  0  0  0
    2.9747    0.2106   19.6022 C   0  0  0  0  0  0  0  0  0  0  0  0
    3.0689    0.0490   21.3756 S   0  0  0  0  0  0  0  0  0  0  0  0
    3.8568    1.1160   18.4575 S   0  0  0  0  0  0  0  0  0  0  0  0
    2.9424   -1.3075   21.7826 H   0  0  0  0  0  0  0  0  0  0  0  0
    3.1857    4.2546   12.1597 C   0  0  0  0  0  0  0  0  0  0  0  0
    2.7627    3.8274   13.2971 N   0  0  0  0  0  0  0  0  0  0  0  0
    1.2709    6.9785   10.4438 C   0  0  0  0  0  0  0  0  0  0  0  0
    2.1003    8.0503   10.6978 C   0  0  0  0  0  0  0  0  0  0  0  0
    3.2613    7.8664   11.4193 C   0  0  0  0  0  0  0  0  0  0  0  0
    3.6243    6.6272   11.9017 C   0  0  0  0  0  0  0  0  0  0  0  0
    2.8016    5.5626   11.6501 C   0  0  0  0  0  0  0  0  0  0  0  0
    1.6453    5.7490   10.9308 C   0  0  0  0  0  0  0  0  0  0  0  0
   -0.8937    6.1372    9.7374 C   0  0  0  0  0  0  0  0  0  0  0  0
    0.1055    7.1286    9.7270 O   0  0  0  0  0  0  0  0  0  0  0  0
 22 23  1  0  0  0
 23 16  1  0  0  0
 16 17  2  0  0  0
 17 18  1  0  0  0
 18 19  2  0  0  0
 19 20  1  0  0  0
 20 14  1  0  0  0
 14 15  2  0  0  0
 15  1  1  0  0  0
  1  2  1  0  0  0
  2  3  2  0  0  0
  2  4  1  0  0  0
  4  7  1  0  0  0
  7  8  2  0  0  0
  8  9  1  0  0  0
  9 10  2  0  0  0
 10 11  1  0  0  0
 10 12  1  0  0  0
 20 21  2  0  0  0
 21 16  1  0  0  0
 12  7  1  0  0  0
  1  5  1  0  0  0
  4  6  1  0  0  0
 11 13  1  0  0  0
M  END
> <minimizedAffinity>
-5.17856

> <CNNscore>
0.8041180968

> <CNNaffinity>
5.0380911827

> <CNN_VS>
4.0512204170

> <CNNaffinity_variance>
0.0622865930

$$$$
[H]Sc1nnc(N([H])C(=O)N([H])N=C([H])c2c([H])c([H])c([H])c(OC([H])([H])[H])c2[H])s1


 23 24  0  0  0  0  0  0  0  0999 V2000
    3.1539    0.6191   16.7112 N   0  0  0  0  0  0  0  0  0  0  0  0
    3.4960    1.0493   18.0124 C   0  0  0  0  0  0  0  0  0  0  0  0
    4.0653    2.1572   18.1740 O   0  0  0  0  0  0  0  0  0  0  0  0
    3.2143    0.2630   19.1465 N   0  0  0  0  0  0  0  0  0  0  0  0
    2.6800   -0.3073   16.5988 H   0  0  0  0  0  0  0  0  0  0  0  0
    2.7472   -0.6512   19.0397 H   0  0  0  0  0  0  0  0  0  0  0  0
    3.5607    0.6985   20.4637 C   0  0  0  0  0  0  0  0  0  0  0  0
    2.8221    0.7273   21.5695 N   0  0  0  0  0  0  0  0  0  0  0  0
    3.3153    1.1535   22.6515 N   0  0  0  0  0  0  0  0  0  0  0  0
    4.5735    1.5734   22.6838 C   0  0  0  0  0  0  0  0  0  0  0  0
    5.4157    2.2015   24.1246 S   0  0  0  0  0  0  0  0  0  0  0  0
    5.0433    1.3305   21.0625 S   0  0  0  0  0  0  0  0  0  0  0  0
    5.1368    1.4145   25.2755 H   0  0  0  0  0  0  0  0  0  0  0  0
    2.4861    1.7778   14.7701 C   0  0  0  0  0  0  0  0  0  0  0  0
    3.4005    1.3381   15.5612 N   0  0  0  0  0  0  0  0  0  0  0  0
    2.6476    2.8749   11.1923 C   0  0  0  0  0  0  0  0  0  0  0  0
    3.4660    3.9775   11.3170 C   0  0  0  0  0  0  0  0  0  0  0  0
    3.9472    4.3407   12.5575 C   0  0  0  0  0  0  0  0  0  0  0  0
    3.6315    3.6263   13.6933 C   0  0  0  0  0  0  0  0  0  0  0  0
    2.8190    2.5316   13.5705 C   0  0  0  0  0  0  0  0  0  0  0  0
    2.3410    2.1721   12.3329 C   0  0  0  0  0  0  0  0  0  0  0  0
    1.0119    1.6652    9.8681 C   0  0  0  0  0  0  0  0  0  0  0  0
    2.1510    2.4860    9.9689 O   0  0  0  0  0  0  0  0  0  0  0  0
 22 23  1  0  0  0
 23 16  1  0  0  0
 16 17  2  0  0  0
 17 18  1  0  0  0
 18 19  2  0  0  0
 19 20  1  0  0  0
 20 14  1  0  0  0
 14 15  2  0  0  0
 15  1  1  0  0  0
  1  2  1  0  0  0
  2  3  2  0  0  0
  2  4  1  0  0  0
  4  7  1  0  0  0
  7  8  2  0  0  0
  8  9  1  0  0  0
  9 10  2  0  0  0
 10 11  1  0  0  0
 10 12  1  0  0  0
 20 21  2  0  0  0
 21 16  1  0  0  0
 12  7  1  0  0  0
  1  5  1  0  0  0
  4  6  1  0  0  0
 11 13  1  0  0  0
M  END
> <minimizedAffinity>
-5.84422

> <CNNscore>
0.6853543520

> <CNNaffinity>
5.2925734520

> <CNN_VS>
3.6272883415

> <CNNaffinity_variance>
0.0872242823

$$$$
[H]Sc1nnc(N([H])C(=O)N([H])N=C([H])c2c([H])c([H])c([H])c(OC([H])([H])[H])c2[H])s1


 23 24  0  0  0  0  0  0  0  0999 V2000
    3.2065    0.8646   16.5427 N   0  0  0  0  0  0  0  0  0  0  0  0
    3.4917    1.2687   17.8658 C   0  0  0  0  0  0  0  0  0  0  0  0
    3.8590    2.4483   18.0926 O   0  0  0  0  0  0  0  0  0  0  0  0
    3.3750    0.3774   18.9500 N   0  0  0  0  0  0  0  0  0  0  0  0
    2.9019   -0.1227   16.3755 H   0  0  0  0  0  0  0  0  0  0  0  0
    3.0750   -0.5971   18.7892 H   0  0  0  0  0  0  0  0  0  0  0  0
    3.6637    0.7865   20.2893 C   0  0  0  0  0  0  0  0  0  0  0  0
    2.8776    0.7944   21.3622 N   0  0  0  0  0  0  0  0  0  0  0  0
    3.3233    1.1987   22.4729 N   0  0  0  0  0  0  0  0  0  0  0  0
    4.5791    1.6163   22.5683 C   0  0  0  0  0  0  0  0  0  0  0  0
    5.3578    2.2150   24.0566 S   0  0  0  0  0  0  0  0  0  0  0  0
    5.1190    1.4047   20.9646 S   0  0  0  0  0  0  0  0  0  0  0  0
    5.0286    1.4058   25.1785 H   0  0  0  0  0  0  0  0  0  0  0  0
    2.4274    1.7335   14.4946 C   0  0  0  0  0  0  0  0  0  0  0  0
    3.3002    1.6846   15.4385 N   0  0  0  0  0  0  0  0  0  0  0  0
    2.9828    4.8220   12.4493 C   0  0  0  0  0  0  0  0  0  0  0  0
    2.8956    4.2878   11.1812 C   0  0  0  0  0  0  0  0  0  0  0  0
    2.6588    2.9390   11.0172 C   0  0  0  0  0  0  0  0  0  0  0  0
    2.5043    2.0954   12.0964 C   0  0  0  0  0  0  0  0  0  0  0  0
    2.5907    2.6248   13.3557 C   0  0  0  0  0  0  0  0  0  0  0  0
    2.8268    3.9694   13.5159 C   0  0  0  0  0  0  0  0  0  0  0  0
    3.6408    6.6571   13.8956 C   0  0  0  0  0  0  0  0  0  0  0  0
    3.2181    6.1637   12.6469 O   0  0  0  0  0  0  0  0  0  0  0  0
 22 23  1  0  0  0
 23 16  1  0  0  0
 16 17  2  0  0  0
 17 18  1  0  0  0
 18 19  2  0  0  0
 19 20  1  0  0  0
 20 14  1  0  0  0
 14 15  2  0  0  0
 15  1  1  0  0  0
  1  2  1  0  0  0
  2  3  2  0  0  0
  2  4  1  0  0  0
  4  7  1  0  0  0
  7  8  2  0  0  0
  8  9  1  0  0  0
  9 10  2  0  0  0
 10 11  1  0  0  0
 10 12  1  0  0  0
 20 21  2  0  0  0
 21 16  1  0  0  0
 12  7  1  0  0  0
  1  5  1  0  0  0
  4  6  1  0  0  0
 11 13  1  0  0  0
M  END
> <minimizedAffinity>
-5.71743

> <CNNscore>
0.5911859870

> <CNNaffinity>
5.2219009399

> <CNN_VS>
3.0871145725

> <CNNaffinity_variance>
0.1114706025

$$$$
[H]Sc1nnc(N([H])C(=O)N([H])N=C([H])c2c([H])c([H])c([H])c(OC([H])([H])[H])c2[H])s1


 23 24  0  0  0  0  0  0  0  0999 V2000
    2.9389    1.3198   16.9567 N   0  0  0  0  0  0  0  0  0  0  0  0
    2.6303    2.0222   15.7707 C   0  0  0  0  0  0  0  0  0  0  0  0
    3.0492    3.1959   15.6135 O   0  0  0  0  0  0  0  0  0  0  0  0
    1.8579    1.4381   14.7479 N   0  0  0  0  0  0  0  0  0  0  0  0
    2.5800    0.3428   17.0675 H   0  0  0  0  0  0  0  0  0  0  0  0
    1.5022    0.4750   14.8535 H   0  0  0  0  0  0  0  0  0  0  0  0
    1.5457    2.1492   13.5473 C   0  0  0  0  0  0  0  0  0  0  0  0
    0.5567    3.0035   13.3000 N   0  0  0  0  0  0  0  0  0  0  0  0
    0.4475    3.5354   12.1594 N   0  0  0  0  0  0  0  0  0  0  0  0
    1.3222    3.2402   11.2064 C   0  0  0  0  0  0  0  0  0  0  0  0
    1.3077    3.9022    9.5507 S   0  0  0  0  0  0  0  0  0  0  0  0
    2.3393    2.1411   12.0222 S   0  0  0  0  0  0  0  0  0  0  0  0
    1.0422    5.2991    9.5504 H   0  0  0  0  0  0  0  0  0  0  0  0
    4.0378    1.1618   19.0360 C   0  0  0  0  0  0  0  0  0  0  0  0
    3.6881    1.8313   17.9946 N   0  0  0  0  0  0  0  0  0  0  0  0
    5.5444    3.7028   21.3391 C   0  0  0  0  0  0  0  0  0  0  0  0
    6.3431    2.8839   22.1089 C   0  0  0  0  0  0  0  0  0  0  0  0
    6.3757    1.5269   21.8645 C   0  0  0  0  0  0  0  0  0  0  0  0
    5.6242    0.9547   20.8605 C   0  0  0  0  0  0  0  0  0  0  0  0
    4.8309    1.7668   20.0958 C   0  0  0  0  0  0  0  0  0  0  0  0
    4.8006    3.1188   20.3418 C   0  0  0  0  0  0  0  0  0  0  0  0
    4.3240    5.6768   22.0508 C   0  0  0  0  0  0  0  0  0  0  0  0
    5.4895    5.0607   21.5573 O   0  0  0  0  0  0  0  0  0  0  0  0
 22 23  1  0  0  0
 23 16  1  0  0  0
 16 17  2  0  0  0
 17 18  1  0  0  0
 18 19  2  0  0  0
 19 20  1  0  0  0
 20 14  1  0  0  0
 14 15  2  0  0  0
 15  1  1  0  0  0
  1  2  1  0  0  0
  2  3  2  0  0  0
  2  4  1  0  0  0
  4  7  1  0  0  0
  7  8  2  0  0  0
  8  9  1  0  0  0
  9 10  2  0  0  0
 10 11  1  0  0  0
 10 12  1  0  0  0
 20 21  2  0  0  0
 21 16  1  0  0  0
 12  7  1  0  0  0
  1  5  1  0  0  0
  4  6  1  0  0  0
 11 13  1  0  0  0
M  END
> <minimizedAffinity>
-6.34207

> <CNNscore>
0.4063762426

> <CNNaffinity>
5.1953763962

> <CNN_VS>
2.1112775803

> <CNNaffinity_variance>
0.2662480772

$$$$
[H]Sc1nnc(N([H])C(=O)N([H])N=C([H])c2c([H])c([H])c([H])c(OC([H])([H])[H])c2[H])s1


 23 24  0  0  0  0  0  0  0  0999 V2000
    2.8217    1.4020   16.5130 N   0  0  0  0  0  0  0  0  0  0  0  0
    2.6574    2.0552   15.2714 C   0  0  0  0  0  0  0  0  0  0  0  0
    3.2959    3.1099   15.0317 O   0  0  0  0  0  0  0  0  0  0  0  0
    1.7885    1.5524   14.2835 N   0  0  0  0  0  0  0  0  0  0  0  0
    2.2802    0.5244   16.6924 H   0  0  0  0  0  0  0  0  0  0  0  0
    1.2528    0.6874   14.4566 H   0  0  0  0  0  0  0  0  0  0  0  0
    1.6222    2.2137   13.0266 C   0  0  0  0  0  0  0  0  0  0  0  0
    2.1344    1.9144   11.8361 N   0  0  0  0  0  0  0  0  0  0  0  0
    1.8657    2.6309   10.8310 N   0  0  0  0  0  0  0  0  0  0  0  0
    1.0705    3.6846   10.9646 C   0  0  0  0  0  0  0  0  0  0  0  0
    0.5953    4.7926    9.6506 S   0  0  0  0  0  0  0  0  0  0  0  0
    0.7077    3.6144   12.6294 S   0  0  0  0  0  0  0  0  0  0  0  0
    0.2650    4.0821    8.4640 H   0  0  0  0  0  0  0  0  0  0  0  0
    3.4019    1.7126   18.7764 C   0  0  0  0  0  0  0  0  0  0  0  0
    3.6538    1.8394   17.5212 N   0  0  0  0  0  0  0  0  0  0  0  0
    6.1330    1.8191   21.3377 C   0  0  0  0  0  0  0  0  0  0  0  0
    6.0667    3.1469   21.7028 C   0  0  0  0  0  0  0  0  0  0  0  0
    5.1387    3.9780   21.1110 C   0  0  0  0  0  0  0  0  0  0  0  0
    4.2624    3.5168   20.1521 C   0  0  0  0  0  0  0  0  0  0  0  0
    4.3274    2.1987   19.7890 C   0  0  0  0  0  0  0  0  0  0  0  0
    5.2534    1.3730   20.3805 C   0  0  0  0  0  0  0  0  0  0  0  0
    7.4339   -0.2293   21.2697 C   0  0  0  0  0  0  0  0  0  0  0  0
    7.0475    0.9637   21.9092 O   0  0  0  0  0  0  0  0  0  0  0  0
 22 23  1  0  0  0
 23 16  1  0  0  0
 16 17  2  0  0  0
 17 18  1  0  0  0
 18 19  2  0  0  0
 19 20  1  0  0  0
 20 14  1  0  0  0
 14 15  2  0  0  0
 15  1  1  0  0  0
  1  2  1  0  0  0
  2  3  2  0  0  0
  2  4  1  0  0  0
  4  7  1  0  0  0
  7  8  2  0  0  0
  8  9  1  0  0  0
  9 10  2  0  0  0
 10 11  1  0  0  0
 10 12  1  0  0  0
 20 21  2  0  0  0
 21 16  1  0  0  0
 12  7  1  0  0  0
  1  5  1  0  0  0
  4  6  1  0  0  0
 11 13  1  0  0  0
M  END
> <minimizedAffinity>
-5.40048

> <CNNscore>
0.3700887263

> <CNNaffinity>
4.9824371338

> <CNN_VS>
1.8439438343

> <CNNaffinity_variance>
0.4184623361

$$$$
[H]Sc1nnc(N([H])C(=O)N([H])N=C([H])c2c([H])c([H])c([H])c(OC([H])([H])[H])c2[H])s1


 23 24  0  0  0  0  0  0  0  0999 V2000
    2.7327    4.3784   16.1090 N   0  0  0  0  0  0  0  0  0  0  0  0
    2.2393    5.0080   14.9447 C   0  0  0  0  0  0  0  0  0  0  0  0
    2.3684    6.2494   14.8042 O   0  0  0  0  0  0  0  0  0  0  0  0
    1.5997    4.2757   13.9257 N   0  0  0  0  0  0  0  0  0  0  0  0
    2.6149    3.3429   16.2062 H   0  0  0  0  0  0  0  0  0  0  0  0
    1.4816    3.2545   14.0179 H   0  0  0  0  0  0  0  0  0  0  0  0
    1.1004    4.9131   12.7471 C   0  0  0  0  0  0  0  0  0  0  0  0
   -0.0998    5.4342   12.5080 N   0  0  0  0  0  0  0  0  0  0  0  0
   -0.3517    5.9605   11.3876 N   0  0  0  0  0  0  0  0  0  0  0  0
    0.5842    5.9928   10.4476 C   0  0  0  0  0  0  0  0  0  0  0  0
    0.3894    6.6962    8.8205 S   0  0  0  0  0  0  0  0  0  0  0  0
    1.8787    5.2206   11.2452 S   0  0  0  0  0  0  0  0  0  0  0  0
   -0.2923    7.9430    8.8702 H   0  0  0  0  0  0  0  0  0  0  0  0
    2.8745    5.1778   18.3219 C   0  0  0  0  0  0  0  0  0  0  0  0
    3.3671    5.0345   17.1421 N   0  0  0  0  0  0  0  0  0  0  0  0
    4.5561    5.9559   21.5773 C   0  0  0  0  0  0  0  0  0  0  0  0
    4.9787    7.2441   21.3262 C   0  0  0  0  0  0  0  0  0  0  0  0
    4.7094    7.8316   20.1078 C   0  0  0  0  0  0  0  0  0  0  0  0
    4.0211    7.1625   19.1185 C   0  0  0  0  0  0  0  0  0  0  0  0
    3.6011    5.8836   19.3669 C   0  0  0  0  0  0  0  0  0  0  0  0
    3.8711    5.3007   20.5821 C   0  0  0  0  0  0  0  0  0  0  0  0
    3.9805    4.3115   23.2675 C   0  0  0  0  0  0  0  0  0  0  0  0
    4.8088    5.3412   22.7826 O   0  0  0  0  0  0  0  0  0  0  0  0
 22 23  1  0  0  0
 23 16  1  0  0  0
 16 17  2  0  0  0
 17 18  1  0  0  0
 18 19  2  0  0  0
 19 20  1  0  0  0
 20 14  1  0  0  0
 14 15  2  0  0  0
 15  1  1  0  0  0
  1  2  1  0  0  0
  2  3  2  0  0  0
  2  4  1  0  0  0
  4  7  1  0  0  0
  7  8  2  0  0  0
  8  9  1  0  0  0
  9 10  2  0  0  0
 10 11  1  0  0  0
 10 12  1  0  0  0
 20 21  2  0  0  0
 21 16  1  0  0  0
 12  7  1  0  0  0
  1  5  1  0  0  0
  4  6  1  0  0  0
 11 13  1  0  0  0
M  END
> <minimizedAffinity>
-5.28811

> <CNNscore>
0.3600985706

> <CNNaffinity>
4.4641160965

> <CNN_VS>
1.6075217724

> <CNNaffinity_variance>
1.1582539082

$$$$
[H]Sc1nnc(N([H])C(=O)N([H])N=C([H])c2c([H])c([H])c([H])c(OC([H])([H])[H])c2[H])s1


 23 24  0  0  0  0  0  0  0  0999 V2000
    3.3702    1.8416   16.3082 N   0  0  0  0  0  0  0  0  0  0  0  0
    3.5588    2.0599   17.6910 C   0  0  0  0  0  0  0  0  0  0  0  0
    3.4616    3.2217   18.1584 O   0  0  0  0  0  0  0  0  0  0  0  0
    3.8560    1.0008   18.5705 N   0  0  0  0  0  0  0  0  0  0  0  0
    3.4555    0.8658   15.9393 H   0  0  0  0  0  0  0  0  0  0  0  0
    3.9410    0.0371   18.2106 H   0  0  0  0  0  0  0  0  0  0  0  0
    4.0468    1.2218   19.9703 C   0  0  0  0  0  0  0  0  0  0  0  0
    3.2478    0.9283   20.9923 N   0  0  0  0  0  0  0  0  0  0  0  0
    3.5990    1.2072   22.1733 N   0  0  0  0  0  0  0  0  0  0  0  0
    4.7683    1.7943   22.3934 C   0  0  0  0  0  0  0  0  0  0  0  0
    5.4088    2.2518   23.9936 S   0  0  0  0  0  0  0  0  0  0  0  0
    5.3685    1.9391   20.8038 S   0  0  0  0  0  0  0  0  0  0  0  0
    5.1919    1.2261   24.9542 H   0  0  0  0  0  0  0  0  0  0  0  0
    3.6750    2.9747   14.2638 C   0  0  0  0  0  0  0  0  0  0  0  0
    3.0778    2.8313   15.3943 N   0  0  0  0  0  0  0  0  0  0  0  0
    1.7336    5.6727   12.5369 C   0  0  0  0  0  0  0  0  0  0  0  0
    2.6591    6.0672   11.5942 C   0  0  0  0  0  0  0  0  0  0  0  0
    3.8914    5.4502   11.5392 C   0  0  0  0  0  0  0  0  0  0  0  0
    4.2324    4.4370   12.4093 C   0  0  0  0  0  0  0  0  0  0  0  0
    3.3142    4.0446   13.3455 C   0  0  0  0  0  0  0  0  0  0  0  0
    2.0870    4.6614   13.3979 C   0  0  0  0  0  0  0  0  0  0  0  0
    0.0873    6.9552   13.7768 C   0  0  0  0  0  0  0  0  0  0  0  0
    0.4952    6.2680   12.6180 O   0  0  0  0  0  0  0  0  0  0  0  0
 22 23  1  0  0  0
 23 16  1  0  0  0
 16 17  2  0  0  0
 17 18  1  0  0  0
 18 19  2  0  0  0
 19 20  1  0  0  0
 20 14  1  0  0  0
 14 15  2  0  0  0
 15  1  1  0  0  0
  1  2  1  0  0  0
  2  3  2  0  0  0
  2  4  1  0  0  0
  4  7  1  0  0  0
  7  8  2  0  0  0
  8  9  1  0  0  0
  9 10  2  0  0  0
 10 11  1  0  0  0
 10 12  1  0  0  0
 20 21  2  0  0  0
 21 16  1  0  0  0
 12  7  1  0  0  0
  1  5  1  0  0  0
  4  6  1  0  0  0
 11 13  1  0  0  0
M  END
> <minimizedAffinity>
-5.42202

> <CNNscore>
0.3549515903

> <CNNaffinity>
4.8695993423

> <CNN_VS>
1.7284719944

> <CNNaffinity_variance>
0.1541941464

$$$$
[H]Sc1nnc(N([H])C(=O)N([H])N=C([H])c2c([H])c([H])c([H])c(OC([H])([H])[H])c2[H])s1


 23 24  0  0  0  0  0  0  0  0999 V2000
    4.4279    6.1787   15.8074 N   0  0  0  0  0  0  0  0  0  0  0  0
    4.1492    5.6302   17.0789 C   0  0  0  0  0  0  0  0  0  0  0  0
    2.9600    5.4039   17.4138 O   0  0  0  0  0  0  0  0  0  0  0  0
    5.1775    5.3266   17.9921 N   0  0  0  0  0  0  0  0  0  0  0  0
    5.4257    6.3596   15.5481 H   0  0  0  0  0  0  0  0  0  0  0  0
    6.1627    5.5035   17.7402 H   0  0  0  0  0  0  0  0  0  0  0  0
    4.8953    4.7713   19.2792 C   0  0  0  0  0  0  0  0  0  0  0  0
    4.9716    3.5100   19.6944 N   0  0  0  0  0  0  0  0  0  0  0  0
    4.6761    3.2150   20.8866 N   0  0  0  0  0  0  0  0  0  0  0  0
    4.2886    4.1669   21.7260 C   0  0  0  0  0  0  0  0  0  0  0  0
    3.8388    3.9173   23.4334 S   0  0  0  0  0  0  0  0  0  0  0  0
    4.3635    5.5425   20.7209 S   0  0  0  0  0  0  0  0  0  0  0  0
    4.7404    3.0321   24.0856 H   0  0  0  0  0  0  0  0  0  0  0  0
    2.9725    5.6630   14.0264 C   0  0  0  0  0  0  0  0  0  0  0  0
    3.4709    6.4985   14.8682 N   0  0  0  0  0  0  0  0  0  0  0  0
    1.1843    6.2503   10.7878 C   0  0  0  0  0  0  0  0  0  0  0  0
    0.0350    6.8517   11.2550 C   0  0  0  0  0  0  0  0  0  0  0  0
   -0.1350    7.0534   12.6088 C   0  0  0  0  0  0  0  0  0  0  0  0
    0.8216    6.6673   13.5231 C   0  0  0  0  0  0  0  0  0  0  0  0
    1.9630    6.0703   13.0604 C   0  0  0  0  0  0  0  0  0  0  0  0
    2.1294    5.8705   11.7106 C   0  0  0  0  0  0  0  0  0  0  0  0
    0.6475    6.7371    8.4711 C   0  0  0  0  0  0  0  0  0  0  0  0
    1.3845    6.0347    9.4432 O   0  0  0  0  0  0  0  0  0  0  0  0
 22 23  1  0  0  0
 23 16  1  0  0  0
 16 17  2  0  0  0
 17 18  1  0  0  0
 18 19  2  0  0  0
 19 20  1  0  0  0
 20 14  1  0  0  0
 14 15  2  0  0  0
 15  1  1  0  0  0
  1  2  1  0  0  0
  2  3  2  0  0  0
  2  4  1  0  0  0
  4  7  1  0  0  0
  7  8  2  0  0  0
  8  9  1  0  0  0
  9 10  2  0  0  0
 10 11  1  0  0  0
 10 12  1  0  0  0
 20 21  2  0  0  0
 21 16  1  0  0  0
 12  7  1  0  0  0
  1  5  1  0  0  0
  4  6  1  0  0  0
 11 13  1  0  0  0
M  END
> <minimizedAffinity>
-4.89017

> <CNNscore>
0.3456165493

> <CNNaffinity>
4.3724956512

> <CNN_VS>
1.5112068653

> <CNNaffinity_variance>
0.6576441526

$$$$
[H]Sc1nnc(N([H])C(=O)N([H])N=C([H])c2c([H])c([H])c([H])c(OC([H])([H])[H])c2[H])s1


 23 24  0  0  0  0  0  0  0  0999 V2000
    3.1692    1.2406   15.8144 N   0  0  0  0  0  0  0  0  0  0  0  0
    3.3615    2.0365   16.9654 C   0  0  0  0  0  0  0  0  0  0  0  0
    2.7890    3.1508   17.0564 O   0  0  0  0  0  0  0  0  0  0  0  0
    4.1859    1.6122   18.0256 N   0  0  0  0  0  0  0  0  0  0  0  0
    3.6555    0.3154   15.7587 H   0  0  0  0  0  0  0  0  0  0  0  0
    4.6673    0.7006   17.9744 H   0  0  0  0  0  0  0  0  0  0  0  0
    4.3806    2.4180   19.1907 C   0  0  0  0  0  0  0  0  0  0  0  0
    4.0032    2.1982   20.4470 N   0  0  0  0  0  0  0  0  0  0  0  0
    4.2726    3.0419   21.3477 N   0  0  0  0  0  0  0  0  0  0  0  0
    4.9338    4.1499   21.0384 C   0  0  0  0  0  0  0  0  0  0  0  0
    5.3900    5.4349   22.1877 S   0  0  0  0  0  0  0  0  0  0  0  0
    5.1650    3.9382   19.3622 S   0  0  0  0  0  0  0  0  0  0  0  0
    5.8920    4.8929   23.4027 H   0  0  0  0  0  0  0  0  0  0  0  0
    2.7987    2.2370   13.7106 C   0  0  0  0  0  0  0  0  0  0  0  0
    2.3776    1.5954   14.7432 N   0  0  0  0  0  0  0  0  0  0  0  0
    1.0164    2.1453   10.4173 C   0  0  0  0  0  0  0  0  0  0  0  0
    0.2047    3.2514   10.5539 C   0  0  0  0  0  0  0  0  0  0  0  0
    0.2530    4.0021   11.7099 C   0  0  0  0  0  0  0  0  0  0  0  0
    1.0992    3.6772   12.7484 C   0  0  0  0  0  0  0  0  0  0  0  0
    1.9055    2.5794   12.6138 C   0  0  0  0  0  0  0  0  0  0  0  0
    1.8551    1.8332   11.4605 C   0  0  0  0  0  0  0  0  0  0  0  0
    1.3437    0.0127    9.3051 C   0  0  0  0  0  0  0  0  0  0  0  0
    0.9923    1.3754    9.2766 O   0  0  0  0  0  0  0  0  0  0  0  0
 22 23  1  0  0  0
 23 16  1  0  0  0
 16 17  2  0  0  0
 17 18  1  0  0  0
 18 19  2  0  0  0
 19 20  1  0  0  0
 20 14  1  0  0  0
 14 15  2  0  0  0
 15  1  1  0  0  0
  1  2  1  0  0  0
  2  3  2  0  0  0
  2  4  1  0  0  0
  4  7  1  0  0  0
  7  8  2  0  0  0
  8  9  1  0  0  0
  9 10  2  0  0  0
 10 11  1  0  0  0
 10 12  1  0  0  0
 20 21  2  0  0  0
 21 16  1  0  0  0
 12  7  1  0  0  0
  1  5  1  0  0  0
  4  6  1  0  0  0
 11 13  1  0  0  0
M  END
> <minimizedAffinity>
-5.01089

> <CNNscore>
0.3441035151

> <CNNaffinity>
4.7027902603

> <CNN_VS>
1.6182466745

> <CNNaffinity_variance>
0.3515311182

$$$$
[H]c1c([H])c(-c2c([H])c(SC([H])([H])[H])n([H])c2-c2c([H])c([H])c(S(=O)(=O)C([H])([H])[H])c([H])c2[H])c([H])c([H])c1F


 25 27  0  0  0  0  0  0  0  0999 V2000
    1.5455    5.5099   11.4315 C   0  0  0  0  0  0  0  0  0  0  0  0
    2.3720    4.3846   11.2945 C   0  0  0  0  0  0  0  0  0  0  0  0
    3.2785    4.6327   10.2938 C   0  0  0  0  0  0  0  0  0  0  0  0
    3.0102    5.8914    9.8256 C   0  0  0  0  0  0  0  0  0  0  0  0
    1.9679    6.4007   10.5206 N   0  0  0  0  0  0  0  0  0  0  0  0
    1.5352    7.3351   10.3947 H   0  0  0  0  0  0  0  0  0  0  0  0
    4.3193    3.7366    9.8234 C   0  0  0  0  0  0  0  0  0  0  0  0
    4.0059    2.6449    9.0398 C   0  0  0  0  0  0  0  0  0  0  0  0
    4.9462    1.7825    8.5821 C   0  0  0  0  0  0  0  0  0  0  0  0
    6.2680    1.9779    8.8942 C   0  0  0  0  0  0  0  0  0  0  0  0
    7.1628    1.0959    8.4180 F   0  0  0  0  0  0  0  0  0  0  0  0
    6.6143    3.0674    9.6807 C   0  0  0  0  0  0  0  0  0  0  0  0
    5.6523    3.9326   10.1373 C   0  0  0  0  0  0  0  0  0  0  0  0
    3.7391    6.5427    8.7547 C   0  0  0  0  0  0  0  0  0  0  0  0
    4.7535    7.4547    9.0653 C   0  0  0  0  0  0  0  0  0  0  0  0
    5.4042    8.0304    7.9955 C   0  0  0  0  0  0  0  0  0  0  0  0
    5.1136    7.7602    6.6813 C   0  0  0  0  0  0  0  0  0  0  0  0
    4.1109    6.8591    6.3860 C   0  0  0  0  0  0  0  0  0  0  0  0
    3.4486    6.2727    7.4207 C   0  0  0  0  0  0  0  0  0  0  0  0
    5.9620    8.5045    5.3522 S   0  0  0  0  0  0  0  0  0  0  0  0
    7.3259    7.4513    4.8957 C   0  0  0  0  0  0  0  0  0  0  0  0
    6.5318    9.8287    5.8179 O   0  0  0  0  0  0  0  0  0  0  0  0
    5.0501    8.7934    4.2140 O   0  0  0  0  0  0  0  0  0  0  0  0
    0.5740    6.9613   13.8533 C   0  0  0  0  0  0  0  0  0  0  0  0
    0.1964    5.7599   12.5596 S   0  0  0  0  0  0  0  0  0  0  0  0
 24 25  1  0  0  0
 25  1  1  0  0  0
  1  2  2  0  0  0
  2  3  1  0  0  0
  3  7  1  0  0  0
  7  8  2  0  0  0
  8  9  1  0  0  0
  9 10  2  0  0  0
 10 11  1  0  0  0
 10 12  1  0  0  0
 12 13  2  0  0  0
  3  4  2  0  0  0
  4 14  1  0  0  0
 14 15  2  0  0  0
 15 16  1  0  0  0
 16 17  2  0  0  0
 17 20  1  0  0  0
 20 21  1  0  0  0
 20 22  2  0  0  0
 20 23  2  0  0  0
 17 18  1  0  0  0
 18 19  2  0  0  0
  4  5  1  0  0  0
  5  1  1  0  0  0
 13  7  1  0  0  0
 19 14  1  0  0  0
  5  6  1  0  0  0
M  END
> <minimizedAffinity>
-3.89993

> <CNNscore>
0.5538802743

> <CNNaffinity>
5.0575423241

> <CNN_VS>
2.8012728691

> <CNNaffinity_variance>
0.3576712608

$$$$
[H]c1c([H])c(-c2c([H])c(SC([H])([H])[H])n([H])c2-c2c([H])c([H])c(S(=O)(=O)C([H])([H])[H])c([H])c2[H])c([H])c([H])c1F


 25 27  0  0  0  0  0  0  0  0999 V2000
    5.0080    5.5267   11.2037 C   0  0  0  0  0  0  0  0  0  0  0  0
    3.7360    6.1025   11.3404 C   0  0  0  0  0  0  0  0  0  0  0  0
    3.0676    5.4425   12.3415 C   0  0  0  0  0  0  0  0  0  0  0  0
    3.9184    4.4772   12.8102 C   0  0  0  0  0  0  0  0  0  0  0  0
    5.0767    4.5439   12.1153 N   0  0  0  0  0  0  0  0  0  0  0  0
    5.9121    3.9421   12.2420 H   0  0  0  0  0  0  0  0  0  0  0  0
    1.7216    5.7145   12.8127 C   0  0  0  0  0  0  0  0  0  0  0  0
    1.5029    6.6179   13.8325 C   0  0  0  0  0  0  0  0  0  0  0  0
    0.2634    6.8987   14.3038 C   0  0  0  0  0  0  0  0  0  0  0  0
   -0.8341    6.2759   13.7650 C   0  0  0  0  0  0  0  0  0  0  0  0
   -2.0415    6.5866   14.2658 F   0  0  0  0  0  0  0  0  0  0  0  0
   -0.6460    5.3621   12.7378 C   0  0  0  0  0  0  0  0  0  0  0  0
    0.6143    5.0871   12.2702 C   0  0  0  0  0  0  0  0  0  0  0  0
    3.5990    3.5467   13.8753 C   0  0  0  0  0  0  0  0  0  0  0  0
    2.8673    2.3902   13.5851 C   0  0  0  0  0  0  0  0  0  0  0  0
    2.6055    1.5518   14.6472 C   0  0  0  0  0  0  0  0  0  0  0  0
    3.0154    1.7901   15.9355 C   0  0  0  0  0  0  0  0  0  0  0  0
    3.7363    2.9342   16.2110 C   0  0  0  0  0  0  0  0  0  0  0  0
    4.0117    3.7833   15.1832 C   0  0  0  0  0  0  0  0  0  0  0  0
    2.6699    0.7036   17.2547 S   0  0  0  0  0  0  0  0  0  0  0  0
    3.6561    1.1911   18.6574 C   0  0  0  0  0  0  0  0  0  0  0  0
    3.0882   -0.6966   16.8555 O   0  0  0  0  0  0  0  0  0  0  0  0
    1.2154    0.6584   17.5600 O   0  0  0  0  0  0  0  0  0  0  0  0
    7.7018    6.7727   10.8769 C   0  0  0  0  0  0  0  0  0  0  0  0
    6.3035    5.9644   10.0700 S   0  0  0  0  0  0  0  0  0  0  0  0
 24 25  1  0  0  0
 25  1  1  0  0  0
  1  2  2  0  0  0
  2  3  1  0  0  0
  3  7  1  0  0  0
  7  8  2  0  0  0
  8  9  1  0  0  0
  9 10  2  0  0  0
 10 11  1  0  0  0
 10 12  1  0  0  0
 12 13  2  0  0  0
  3  4  2  0  0  0
  4 14  1  0  0  0
 14 15  2  0  0  0
 15 16  1  0  0  0
 16 17  2  0  0  0
 17 20  1  0  0  0
 20 21  1  0  0  0
 20 22  2  0  0  0
 20 23  2  0  0  0
 17 18  1  0  0  0
 18 19  2  0  0  0
  4  5  1  0  0  0
  5  1  1  0  0  0
 13  7  1  0  0  0
 19 14  1  0  0  0
  5  6  1  0  0  0
M  END
> <minimizedAffinity>
-6.14103

> <CNNscore>
0.4995559454

> <CNNaffinity>
5.2952804565

> <CNN_VS>
2.6452889442

> <CNNaffinity_variance>
0.1555818766

$$$$
[H]c1c([H])c(-c2c([H])c(SC([H])([H])[H])n([H])c2-c2c([H])c([H])c(S(=O)(=O)C([H])([H])[H])c([H])c2[H])c([H])c([H])c1F


 25 27  0  0  0  0  0  0  0  0999 V2000
    0.6131    3.3278    9.3105 C   0  0  0  0  0  0  0  0  0  0  0  0
    1.9126    3.2787    8.7842 C   0  0  0  0  0  0  0  0  0  0  0  0
    2.7000    4.1515    9.4935 C   0  0  0  0  0  0  0  0  0  0  0  0
    1.8937    4.7258   10.4397 C   0  0  0  0  0  0  0  0  0  0  0  0
    0.6463    4.2188   10.3138 N   0  0  0  0  0  0  0  0  0  0  0  0
   -0.1826    4.4599   10.8891 H   0  0  0  0  0  0  0  0  0  0  0  0
    4.1121    4.4143    9.2829 C   0  0  0  0  0  0  0  0  0  0  0  0
    5.0702    3.7148    9.9876 C   0  0  0  0  0  0  0  0  0  0  0  0
    6.3983    3.9309    9.8234 C   0  0  0  0  0  0  0  0  0  0  0  0
    6.8354    4.8751    8.9289 C   0  0  0  0  0  0  0  0  0  0  0  0
    8.1610    5.0536    8.8017 F   0  0  0  0  0  0  0  0  0  0  0  0
    5.8954    5.5949    8.2052 C   0  0  0  0  0  0  0  0  0  0  0  0
    4.5540    5.3661    8.3813 C   0  0  0  0  0  0  0  0  0  0  0  0
    2.3335    5.7169   11.4023 C   0  0  0  0  0  0  0  0  0  0  0  0
    2.9020    5.3006   12.6109 C   0  0  0  0  0  0  0  0  0  0  0  0
    3.2995    6.2992   13.4737 C   0  0  0  0  0  0  0  0  0  0  0  0
    3.1682    7.6403   13.2120 C   0  0  0  0  0  0  0  0  0  0  0  0
    2.6057    8.0402   12.0168 C   0  0  0  0  0  0  0  0  0  0  0  0
    2.2026    7.0779   11.1424 C   0  0  0  0  0  0  0  0  0  0  0  0
    3.6873    8.8771   14.3259 S   0  0  0  0  0  0  0  0  0  0  0  0
    4.0799    8.1025   15.8828 C   0  0  0  0  0  0  0  0  0  0  0  0
    2.5381    9.8362   14.5597 O   0  0  0  0  0  0  0  0  0  0  0  0
    4.8177    9.6704   13.7750 O   0  0  0  0  0  0  0  0  0  0  0  0
   -2.3695    3.1892    9.3246 C   0  0  0  0  0  0  0  0  0  0  0  0
   -0.8243    2.4219    8.7925 S   0  0  0  0  0  0  0  0  0  0  0  0
 24 25  1  0  0  0
 25  1  1  0  0  0
  1  2  2  0  0  0
  2  3  1  0  0  0
  3  7  1  0  0  0
  7  8  2  0  0  0
  8  9  1  0  0  0
  9 10  2  0  0  0
 10 11  1  0  0  0
 10 12  1  0  0  0
 12 13  2  0  0  0
  3  4  2  0  0  0
  4 14  1  0  0  0
 14 15  2  0  0  0
 15 16  1  0  0  0
 16 17  2  0  0  0
 17 20  1  0  0  0
 20 21  1  0  0  0
 20 22  2  0  0  0
 20 23  2  0  0  0
 17 18  1  0  0  0
 18 19  2  0  0  0
  4  5  1  0  0  0
  5  1  1  0  0  0
 13  7  1  0  0  0
 19 14  1  0  0  0
  5  6  1  0  0  0
M  END
> <minimizedAffinity>
-3.87341

> <CNNscore>
0.4687052667

> <CNNaffinity>
5.1542391777

> <CNN_VS>
2.4158189297

> <CNNaffinity_variance>
1.0606464148

$$$$
[H]c1c([H])c(-c2c([H])c(SC([H])([H])[H])n([H])c2-c2c([H])c([H])c(S(=O)(=O)C([H])([H])[H])c([H])c2[H])c([H])c([H])c1F


 25 27  0  0  0  0  0  0  0  0999 V2000
    4.1898    1.0134    8.6102 C   0  0  0  0  0  0  0  0  0  0  0  0
    4.6218    2.1477    7.9067 C   0  0  0  0  0  0  0  0  0  0  0  0
    4.3891    3.2543    8.6850 C   0  0  0  0  0  0  0  0  0  0  0  0
    3.8230    2.8034    9.8476 C   0  0  0  0  0  0  0  0  0  0  0  0
    3.7119    1.4571    9.7834 N   0  0  0  0  0  0  0  0  0  0  0  0
    3.3215    0.8311   10.5127 H   0  0  0  0  0  0  0  0  0  0  0  0
    4.6857    4.6339    8.3436 C   0  0  0  0  0  0  0  0  0  0  0  0
    5.9514    5.1489    8.5350 C   0  0  0  0  0  0  0  0  0  0  0  0
    6.2697    6.4313    8.2323 C   0  0  0  0  0  0  0  0  0  0  0  0
    5.3168    7.2720    7.7143 C   0  0  0  0  0  0  0  0  0  0  0  0
    5.6800    8.5341    7.4309 F   0  0  0  0  0  0  0  0  0  0  0  0
    4.0344    6.7826    7.5105 C   0  0  0  0  0  0  0  0  0  0  0  0
    3.7259    5.4823    7.8214 C   0  0  0  0  0  0  0  0  0  0  0  0
    3.4149    3.6554   10.9475 C   0  0  0  0  0  0  0  0  0  0  0  0
    4.3648    4.0744   11.8852 C   0  0  0  0  0  0  0  0  0  0  0  0
    3.9037    4.8852   12.8997 C   0  0  0  0  0  0  0  0  0  0  0  0
    2.5979    5.2885   13.0299 C   0  0  0  0  0  0  0  0  0  0  0  0
    1.6688    4.8692   12.0996 C   0  0  0  0  0  0  0  0  0  0  0  0
    2.0925    4.0671   11.0846 C   0  0  0  0  0  0  0  0  0  0  0  0
    2.0506    6.3198   14.3249 S   0  0  0  0  0  0  0  0  0  0  0  0
    3.4429    7.2599   14.9214 C   0  0  0  0  0  0  0  0  0  0  0  0
    1.5532    5.4517   15.4624 O   0  0  0  0  0  0  0  0  0  0  0  0
    0.9150    7.1791   13.8975 O   0  0  0  0  0  0  0  0  0  0  0  0
    5.4577   -1.0023    6.8090 C   0  0  0  0  0  0  0  0  0  0  0  0
    4.2363   -0.6875    8.1007 S   0  0  0  0  0  0  0  0  0  0  0  0
 24 25  1  0  0  0
 25  1  1  0  0  0
  1  2  2  0  0  0
  2  3  1  0  0  0
  3  7  1  0  0  0
  7  8  2  0  0  0
  8  9  1  0  0  0
  9 10  2  0  0  0
 10 11  1  0  0  0
 10 12  1  0  0  0
 12 13  2  0  0  0
  3  4  2  0  0  0
  4 14  1  0  0  0
 14 15  2  0  0  0
 15 16  1  0  0  0
 16 17  2  0  0  0
 17 20  1  0  0  0
 20 21  1  0  0  0
 20 22  2  0  0  0
 20 23  2  0  0  0
 17 18  1  0  0  0
 18 19  2  0  0  0
  4  5  1  0  0  0
  5  1  1  0  0  0
 13  7  1  0  0  0
 19 14  1  0  0  0
  5  6  1  0  0  0
M  END
> <minimizedAffinity>
-3.76848

> <CNNscore>
0.4630855322

> <CNNaffinity>
5.1485376358

> <CNN_VS>
2.3842132092

> <CNNaffinity_variance>
0.7368200421

$$$$
[H]c1c([H])c(-c2c([H])c(SC([H])([H])[H])n([H])c2-c2c([H])c([H])c(S(=O)(=O)C([H])([H])[H])c([H])c2[H])c([H])c([H])c1F


 25 27  0  0  0  0  0  0  0  0999 V2000
    3.2060    2.9295   13.7716 C   0  0  0  0  0  0  0  0  0  0  0  0
    3.0464    1.8608   14.6664 C   0  0  0  0  0  0  0  0  0  0  0  0
    3.3439    2.3066   15.9303 C   0  0  0  0  0  0  0  0  0  0  0  0
    3.6805    3.6285   15.8102 C   0  0  0  0  0  0  0  0  0  0  0  0
    3.5916    3.9833   14.5082 N   0  0  0  0  0  0  0  0  0  0  0  0
    3.7849    4.9195   14.1054 H   0  0  0  0  0  0  0  0  0  0  0  0
    3.3081    1.5293   17.1559 C   0  0  0  0  0  0  0  0  0  0  0  0
    4.1534    1.8302   18.2042 C   0  0  0  0  0  0  0  0  0  0  0  0
    4.1543    1.1285   19.3640 C   0  0  0  0  0  0  0  0  0  0  0  0
    3.2923    0.0739   19.5298 C   0  0  0  0  0  0  0  0  0  0  0  0
    3.3309   -0.5913   20.6966 F   0  0  0  0  0  0  0  0  0  0  0  0
    2.4299   -0.2529   18.4931 C   0  0  0  0  0  0  0  0  0  0  0  0
    2.4395    0.4658   17.3243 C   0  0  0  0  0  0  0  0  0  0  0  0
    4.0696    4.4814   16.9163 C   0  0  0  0  0  0  0  0  0  0  0  0
    5.4256    4.6392   17.2224 C   0  0  0  0  0  0  0  0  0  0  0  0
    5.7185    5.4680   18.2839 C   0  0  0  0  0  0  0  0  0  0  0  0
    4.7731    6.1250   19.0316 C   0  0  0  0  0  0  0  0  0  0  0  0
    3.4383    5.9622   18.7213 C   0  0  0  0  0  0  0  0  0  0  0  0
    3.1155    5.1498   17.6778 C   0  0  0  0  0  0  0  0  0  0  0  0
    5.1811    7.1707   20.3659 S   0  0  0  0  0  0  0  0  0  0  0  0
    4.5843    8.8098   19.9984 C   0  0  0  0  0  0  0  0  0  0  0  0
    6.6895    7.2406   20.4871 O   0  0  0  0  0  0  0  0  0  0  0  0
    4.6599    6.6424   21.6543 O   0  0  0  0  0  0  0  0  0  0  0  0
    1.5426    1.9629   11.4882 C   0  0  0  0  0  0  0  0  0  0  0  0
    2.9655    2.9431   12.0118 S   0  0  0  0  0  0  0  0  0  0  0  0
 24 25  1  0  0  0
 25  1  1  0  0  0
  1  2  2  0  0  0
  2  3  1  0  0  0
  3  7  1  0  0  0
  7  8  2  0  0  0
  8  9  1  0  0  0
  9 10  2  0  0  0
 10 11  1  0  0  0
 10 12  1  0  0  0
 12 13  2  0  0  0
  3  4  2  0  0  0
  4 14  1  0  0  0
 14 15  2  0  0  0
 15 16  1  0  0  0
 16 17  2  0  0  0
 17 20  1  0  0  0
 20 21  1  0  0  0
 20 22  2  0  0  0
 20 23  2  0  0  0
 17 18  1  0  0  0
 18 19  2  0  0  0
  4  5  1  0  0  0
  5  1  1  0  0  0
 13  7  1  0  0  0
 19 14  1  0  0  0
  5  6  1  0  0  0
M  END
> <minimizedAffinity>
-7.79910

> <CNNscore>
0.4591849744

> <CNNaffinity>
5.8114576340

> <CNN_VS>
2.6685340405

> <CNNaffinity_variance>
0.1516896486

$$$$
[H]c1c([H])c(-c2c([H])c(SC([H])([H])[H])n([H])c2-c2c([H])c([H])c(S(=O)(=O)C([H])([H])[H])c([H])c2[H])c([H])c([H])c1F


 25 27  0  0  0  0  0  0  0  0999 V2000
    3.8141   -0.6229    9.0075 C   0  0  0  0  0  0  0  0  0  0  0  0
    4.7675    0.3846    8.7975 C   0  0  0  0  0  0  0  0  0  0  0  0
    4.1990    1.5922    9.1189 C   0  0  0  0  0  0  0  0  0  0  0  0
    2.9166    1.3270    9.5196 C   0  0  0  0  0  0  0  0  0  0  0  0
    2.7051   -0.0067    9.4459 N   0  0  0  0  0  0  0  0  0  0  0  0
    1.8303   -0.5106    9.6846 H   0  0  0  0  0  0  0  0  0  0  0  0
    4.8329    2.8963    9.0488 C   0  0  0  0  0  0  0  0  0  0  0  0
    4.7804    3.6421    7.8890 C   0  0  0  0  0  0  0  0  0  0  0  0
    5.3607    4.8623    7.7804 C   0  0  0  0  0  0  0  0  0  0  0  0
    6.0325    5.4012    8.8486 C   0  0  0  0  0  0  0  0  0  0  0  0
    6.5916    6.6130    8.6923 F   0  0  0  0  0  0  0  0  0  0  0  0
    6.1024    4.6749   10.0288 C   0  0  0  0  0  0  0  0  0  0  0  0
    5.5104    3.4408   10.1251 C   0  0  0  0  0  0  0  0  0  0  0  0
    1.9630    2.3337    9.9432 C   0  0  0  0  0  0  0  0  0  0  0  0
    1.8719    2.6716   11.2977 C   0  0  0  0  0  0  0  0  0  0  0  0
    0.9461    3.6390   11.6238 C   0  0  0  0  0  0  0  0  0  0  0  0
    0.1347    4.2669   10.7118 C   0  0  0  0  0  0  0  0  0  0  0  0
    0.2324    3.9259    9.3781 C   0  0  0  0  0  0  0  0  0  0  0  0
    1.1378    2.9733    9.0230 C   0  0  0  0  0  0  0  0  0  0  0  0
   -1.0230    5.4912   11.1603 S   0  0  0  0  0  0  0  0  0  0  0  0
   -0.1644    6.7802   12.0430 C   0  0  0  0  0  0  0  0  0  0  0  0
   -2.0395    4.8793   12.1022 O   0  0  0  0  0  0  0  0  0  0  0  0
   -1.7680    5.9992    9.9781 O   0  0  0  0  0  0  0  0  0  0  0  0
    2.6119   -3.3191    9.4554 C   0  0  0  0  0  0  0  0  0  0  0  0
    3.9822   -2.3734    8.7572 S   0  0  0  0  0  0  0  0  0  0  0  0
 24 25  1  0  0  0
 25  1  1  0  0  0
  1  2  2  0  0  0
  2  3  1  0  0  0
  3  7  1  0  0  0
  7  8  2  0  0  0
  8  9  1  0  0  0
  9 10  2  0  0  0
 10 11  1  0  0  0
 10 12  1  0  0  0
 12 13  2  0  0  0
  3  4  2  0  0  0
  4 14  1  0  0  0
 14 15  2  0  0  0
 15 16  1  0  0  0
 16 17  2  0  0  0
 17 20  1  0  0  0
 20 21  1  0  0  0
 20 22  2  0  0  0
 20 23  2  0  0  0
 17 18  1  0  0  0
 18 19  2  0  0  0
  4  5  1  0  0  0
  5  1  1  0  0  0
 13  7  1  0  0  0
 19 14  1  0  0  0
  5  6  1  0  0  0
M  END
> <minimizedAffinity>
-3.63858

> <CNNscore>
0.4468176663

> <CNNaffinity>
4.8223824501

> <CNN_VS>
2.1547257900

> <CNNaffinity_variance>
0.1915462464

$$$$
[H]c1c([H])c(-c2c([H])c(SC([H])([H])[H])n([H])c2-c2c([H])c([H])c(S(=O)(=O)C([H])([H])[H])c([H])c2[H])c([H])c([H])c1F


 25 27  0  0  0  0  0  0  0  0999 V2000
    3.8384    0.1115    9.4407 C   0  0  0  0  0  0  0  0  0  0  0  0
    4.7533    0.8972    8.7237 C   0  0  0  0  0  0  0  0  0  0  0  0
    4.5753    2.2090    9.0873 C   0  0  0  0  0  0  0  0  0  0  0  0
    3.5663    2.2253   10.0130 C   0  0  0  0  0  0  0  0  0  0  0  0
    3.1377    0.9580   10.2115 N   0  0  0  0  0  0  0  0  0  0  0  0
    2.3839    0.6513   10.8547 H   0  0  0  0  0  0  0  0  0  0  0  0
    5.3128    3.3558    8.5889 C   0  0  0  0  0  0  0  0  0  0  0  0
    4.9290    3.9858    7.4228 C   0  0  0  0  0  0  0  0  0  0  0  0
    5.5910    5.0572    6.9215 C   0  0  0  0  0  0  0  0  0  0  0  0
    6.6881    5.5557    7.5777 C   0  0  0  0  0  0  0  0  0  0  0  0
    7.3113    6.6185    7.0415 F   0  0  0  0  0  0  0  0  0  0  0  0
    7.0984    4.9433    8.7533 C   0  0  0  0  0  0  0  0  0  0  0  0
    6.4191    3.8594    9.2496 C   0  0  0  0  0  0  0  0  0  0  0  0
    3.0585    3.4224   10.6543 C   0  0  0  0  0  0  0  0  0  0  0  0
    3.6031    3.8355   11.8750 C   0  0  0  0  0  0  0  0  0  0  0  0
    3.0726    4.9840   12.4218 C   0  0  0  0  0  0  0  0  0  0  0  0
    2.0670    5.7186   11.8441 C   0  0  0  0  0  0  0  0  0  0  0  0
    1.5366    5.3021   10.6400 C   0  0  0  0  0  0  0  0  0  0  0  0
    2.0391    4.1709   10.0733 C   0  0  0  0  0  0  0  0  0  0  0  0
    1.4232    7.1709   12.5628 S   0  0  0  0  0  0  0  0  0  0  0  0
    2.7783    8.2778   12.9037 C   0  0  0  0  0  0  0  0  0  0  0  0
    0.7704    6.8138   13.8824 O   0  0  0  0  0  0  0  0  0  0  0  0
    0.3761    7.7876   11.7062 O   0  0  0  0  0  0  0  0  0  0  0  0
    1.9077   -2.1208    8.9884 C   0  0  0  0  0  0  0  0  0  0  0  0
    3.6060   -1.6484    9.3787 S   0  0  0  0  0  0  0  0  0  0  0  0
 24 25  1  0  0  0
 25  1  1  0  0  0
  1  2  2  0  0  0
  2  3  1  0  0  0
  3  7  1  0  0  0
  7  8  2  0  0  0
  8  9  1  0  0  0
  9 10  2  0  0  0
 10 11  1  0  0  0
 10 12  1  0  0  0
 12 13  2  0  0  0
  3  4  2  0  0  0
  4 14  1  0  0  0
 14 15  2  0  0  0
 15 16  1  0  0  0
 16 17  2  0  0  0
 17 20  1  0  0  0
 20 21  1  0  0  0
 20 22  2  0  0  0
 20 23  2  0  0  0
 17 18  1  0  0  0
 18 19  2  0  0  0
  4  5  1  0  0  0
  5  1  1  0  0  0
 13  7  1  0  0  0
 19 14  1  0  0  0
  5  6  1  0  0  0
M  END
> <minimizedAffinity>
-4.00082

> <CNNscore>
0.4385846555

> <CNNaffinity>
4.9537630081

> <CNN_VS>
2.1726443768

> <CNNaffinity_variance>
0.3413228095

$$$$
[H]c1c([H])c(-c2c([H])c(SC([H])([H])[H])n([H])c2-c2c([H])c([H])c(S(=O)(=O)C([H])([H])[H])c([H])c2[H])c([H])c([H])c1F


 25 27  0  0  0  0  0  0  0  0999 V2000
   -0.2362    3.6683    9.1967 C   0  0  0  0  0  0  0  0  0  0  0  0
    0.8364    2.9445    8.6545 C   0  0  0  0  0  0  0  0  0  0  0  0
    1.6988    2.6211    9.6725 C   0  0  0  0  0  0  0  0  0  0  0  0
    1.1615    3.1394   10.8205 C   0  0  0  0  0  0  0  0  0  0  0  0
    0.0014    3.7634   10.5144 N   0  0  0  0  0  0  0  0  0  0  0  0
   -0.6335    4.2516   11.1737 H   0  0  0  0  0  0  0  0  0  0  0  0
    2.9384    1.8745    9.5559 C   0  0  0  0  0  0  0  0  0  0  0  0
    2.9688    0.5184    9.8092 C   0  0  0  0  0  0  0  0  0  0  0  0
    4.1047   -0.2152    9.7146 C   0  0  0  0  0  0  0  0  0  0  0  0
    5.2840    0.3873    9.3553 C   0  0  0  0  0  0  0  0  0  0  0  0
    6.3832   -0.3813    9.2758 F   0  0  0  0  0  0  0  0  0  0  0  0
    5.2851    1.7501    9.0942 C   0  0  0  0  0  0  0  0  0  0  0  0
    4.1280    2.4808    9.1937 C   0  0  0  0  0  0  0  0  0  0  0  0
    1.7642    3.0260   12.1343 C   0  0  0  0  0  0  0  0  0  0  0  0
    2.7123    3.9702   12.5426 C   0  0  0  0  0  0  0  0  0  0  0  0
    3.2382    3.7996   13.8051 C   0  0  0  0  0  0  0  0  0  0  0  0
    2.8871    2.7796   14.6541 C   0  0  0  0  0  0  0  0  0  0  0  0
    1.9511    1.8533   14.2413 C   0  0  0  0  0  0  0  0  0  0  0  0
    1.4123    1.9938   12.9990 C   0  0  0  0  0  0  0  0  0  0  0  0
    3.5701    2.5976   16.2480 S   0  0  0  0  0  0  0  0  0  0  0  0
    3.3305    0.9110   16.7730 C   0  0  0  0  0  0  0  0  0  0  0  0
    2.8158    3.4955   17.2070 O   0  0  0  0  0  0  0  0  0  0  0  0
    4.9966    3.0156   16.2831 O   0  0  0  0  0  0  0  0  0  0  0  0
   -2.2113    3.3233    6.9843 C   0  0  0  0  0  0  0  0  0  0  0  0
   -1.6466    4.3489    8.3586 S   0  0  0  0  0  0  0  0  0  0  0  0
 24 25  1  0  0  0
 25  1  1  0  0  0
  1  2  2  0  0  0
  2  3  1  0  0  0
  3  7  1  0  0  0
  7  8  2  0  0  0
  8  9  1  0  0  0
  9 10  2  0  0  0
 10 11  1  0  0  0
 10 12  1  0  0  0
 12 13  2  0  0  0
  3  4  2  0  0  0
  4 14  1  0  0  0
 14 15  2  0  0  0
 15 16  1  0  0  0
 16 17  2  0  0  0
 17 20  1  0  0  0
 20 21  1  0  0  0
 20 22  2  0  0  0
 20 23  2  0  0  0
 17 18  1  0  0  0
 18 19  2  0  0  0
  4  5  1  0  0  0
  5  1  1  0  0  0
 13  7  1  0  0  0
 19 14  1  0  0  0
  5  6  1  0  0  0
M  END
> <minimizedAffinity>
-4.65073

> <CNNscore>
0.4349942803

> <CNNaffinity>
5.1774764061

> <CNN_VS>
2.2521727085

> <CNNaffinity_variance>
0.4520651698

$$$$
[H]c1c([H])c(-c2c([H])c(SC([H])([H])[H])n([H])c2-c2c([H])c([H])c(S(=O)(=O)C([H])([H])[H])c([H])c2[H])c([H])c([H])c1F


 25 27  0  0  0  0  0  0  0  0999 V2000
    0.7908    1.1921   10.1333 C   0  0  0  0  0  0  0  0  0  0  0  0
    1.1857    1.6443   11.4013 C   0  0  0  0  0  0  0  0  0  0  0  0
    1.5629    2.9599   11.2934 C   0  0  0  0  0  0  0  0  0  0  0  0
    1.4011    3.3072    9.9787 C   0  0  0  0  0  0  0  0  0  0  0  0
    0.9372    2.2337    9.2994 N   0  0  0  0  0  0  0  0  0  0  0  0
    0.7171    2.1877    8.2867 H   0  0  0  0  0  0  0  0  0  0  0  0
    2.0397    3.8169   12.3638 C   0  0  0  0  0  0  0  0  0  0  0  0
    1.1634    4.6200   13.0647 C   0  0  0  0  0  0  0  0  0  0  0  0
    1.5672    5.4363   14.0687 C   0  0  0  0  0  0  0  0  0  0  0  0
    2.8918    5.4864   14.4231 C   0  0  0  0  0  0  0  0  0  0  0  0
    3.2434    6.3112   15.4238 F   0  0  0  0  0  0  0  0  0  0  0  0
    3.7972    4.6900   13.7365 C   0  0  0  0  0  0  0  0  0  0  0  0
    3.3750    3.8682   12.7221 C   0  0  0  0  0  0  0  0  0  0  0  0
    1.6930    4.6183    9.4329 C   0  0  0  0  0  0  0  0  0  0  0  0
    0.6943    5.5978    9.4182 C   0  0  0  0  0  0  0  0  0  0  0  0
    1.0468    6.8202    8.8880 C   0  0  0  0  0  0  0  0  0  0  0  0
    2.2918    7.1130    8.3893 C   0  0  0  0  0  0  0  0  0  0  0  0
    3.2698    6.1394    8.4084 C   0  0  0  0  0  0  0  0  0  0  0  0
    2.9534    4.9207    8.9259 C   0  0  0  0  0  0  0  0  0  0  0  0
    2.7041    8.6736    7.7300 S   0  0  0  0  0  0  0  0  0  0  0  0
    4.4533    8.9343    7.9544 C   0  0  0  0  0  0  0  0  0  0  0  0
    1.9698    9.7429    8.5126 O   0  0  0  0  0  0  0  0  0  0  0  0
    2.2799    8.7974    6.3104 O   0  0  0  0  0  0  0  0  0  0  0  0
    1.5234   -1.4826    9.0268 C   0  0  0  0  0  0  0  0  0  0  0  0
    0.2108   -0.4204    9.6659 S   0  0  0  0  0  0  0  0  0  0  0  0
 24 25  1  0  0  0
 25  1  1  0  0  0
  1  2  2  0  0  0
  2  3  1  0  0  0
  3  7  1  0  0  0
  7  8  2  0  0  0
  8  9  1  0  0  0
  9 10  2  0  0  0
 10 11  1  0  0  0
 10 12  1  0  0  0
 12 13  2  0  0  0
  3  4  2  0  0  0
  4 14  1  0  0  0
 14 15  2  0  0  0
 15 16  1  0  0  0
 16 17  2  0  0  0
 17 20  1  0  0  0
 20 21  1  0  0  0
 20 22  2  0  0  0
 20 23  2  0  0  0
 17 18  1  0  0  0
 18 19  2  0  0  0
  4  5  1  0  0  0
  5  1  1  0  0  0
 13  7  1  0  0  0
 19 14  1  0  0  0
  5  6  1  0  0  0
M  END
> <minimizedAffinity>
-4.10736

> <CNNscore>
0.4172863960

> <CNNaffinity>
5.1181321144

> <CNN_VS>
2.1357269287

> <CNNaffinity_variance>
0.4270455241

$$$$
[H]OC([H])([H])C([H])([H])N([H])C(=O)[C@@]1([H])O[C@@]([H])(n2c([H])nc3c(N([H])C([H])([H])c4c([H])c([H])c([H])c([H])c4C([H])([H])[H])nc([H])nc32)[C@]([H])(O[H])[C@]1([H])O[H]


 36 39  0  0  0  0  0  0  0  0999 V2000
    4.1183    2.2127   17.7019 C   0  0  0  0  0  0  0  0  0  0  0  0
    3.6314    0.9999   18.0454 N   0  0  0  0  0  0  0  0  0  0  0  0
    2.8411    0.2887   17.2296 C   0  0  0  0  0  0  0  0  0  0  0  0
    2.5230    0.7985   16.0320 N   0  0  0  0  0  0  0  0  0  0  0  0
    2.9727    1.9906   15.6363 C   0  0  0  0  0  0  0  0  0  0  0  0
    3.7761    2.7171   16.4616 C   0  0  0  0  0  0  0  0  0  0  0  0
    4.0865    3.8657   15.8319 N   0  0  0  0  0  0  0  0  0  0  0  0
    3.4964    3.8820   14.6249 C   0  0  0  0  0  0  0  0  0  0  0  0
    2.8159    2.7314   14.5109 N   0  0  0  0  0  0  0  0  0  0  0  0
    2.0446    2.3519   13.3727 C   0  0  0  0  0  0  0  0  0  0  0  0
    2.8051    1.7739   12.3592 O   0  0  0  0  0  0  0  0  0  0  0  0
    1.9178    1.7830   11.2659 C   0  0  0  0  0  0  0  0  0  0  0  0
    1.5062    3.2509   11.2703 C   0  0  0  0  0  0  0  0  0  0  0  0
    0.4050    3.5002   10.4941 O   0  0  0  0  0  0  0  0  0  0  0  0
    1.2351    3.4426   12.7577 C   0  0  0  0  0  0  0  0  0  0  0  0
   -0.1432    3.2352   12.9344 O   0  0  0  0  0  0  0  0  0  0  0  0
    0.4031    4.4682   10.2441 H   0  0  0  0  0  0  0  0  0  0  0  0
   -0.5496    3.9916   13.4376 H   0  0  0  0  0  0  0  0  0  0  0  0
    2.5501    1.3652   10.0255 C   0  0  0  0  0  0  0  0  0  0  0  0
    3.6044    0.6928   10.0429 O   0  0  0  0  0  0  0  0  0  0  0  0
    1.9863    1.7101    8.7748 N   0  0  0  0  0  0  0  0  0  0  0  0
    1.1109    2.2680    8.7364 H   0  0  0  0  0  0  0  0  0  0  0  0
    2.5989    1.3045    7.5187 C   0  0  0  0  0  0  0  0  0  0  0  0
    3.5508    2.3526    7.0477 C   0  0  0  0  0  0  0  0  0  0  0  0
    4.8335    2.0531    7.5107 O   0  0  0  0  0  0  0  0  0  0  0  0
    5.5413    2.4147    6.8979 H   0  0  0  0  0  0  0  0  0  0  0  0
    4.9395    2.9559   18.5902 N   0  0  0  0  0  0  0  0  0  0  0  0
    5.9515    2.6842   18.6521 H   0  0  0  0  0  0  0  0  0  0  0  0
    4.4533    4.0376   19.3880 C   0  0  0  0  0  0  0  0  0  0  0  0
    4.5551    6.1957   21.2294 C   0  0  0  0  0  0  0  0  0  0  0  0
    4.3976    4.8251   21.7332 C   0  0  0  0  0  0  0  0  0  0  0  0
    4.3114    4.5989   23.0731 C   0  0  0  0  0  0  0  0  0  0  0  0
    4.1629    3.3231   23.5769 C   0  0  0  0  0  0  0  0  0  0  0  0
    4.0985    2.2421   22.7250 C   0  0  0  0  0  0  0  0  0  0  0  0
    4.1895    2.5069   21.3667 C   0  0  0  0  0  0  0  0  0  0  0  0
    4.3370    3.7614   20.8286 C   0  0  0  0  0  0  0  0  0  0  0  0
 30 31  1  0  0  0
 31 32  2  0  0  0
 32 33  1  0  0  0
 33 34  2  0  0  0
 34 35  1  0  0  0
 35 36  2  0  0  0
 36 29  1  0  0  0
 29 27  1  0  0  0
 27  1  1  0  0  0
  1  2  2  0  0  0
  2  3  1  0  0  0
  3  4  2  0  0  0
  4  5  1  0  0  0
  5  6  2  0  0  0
  6  7  1  0  0  0
  7  8  2  0  0  0
  8  9  1  0  0  0
  9 10  1  0  0  0
 10 11  1  0  0  0
 11 12  1  0  0  0
 12 19  1  0  0  0
 19 20  2  0  0  0
 19 21  1  0  0  0
 21 23  1  0  0  0
 23 24  1  0  0  0
 24 25  1  0  0  0
 12 13  1  0  0  0
 13 14  1  0  0  0
 13 15  1  0  0  0
 15 16  1  0  0  0
 36 31  1  0  0  0
  6  1  1  0  0  0
 15 10  1  0  0  0
  9  5  1  0  0  0
 27 28  1  0  0  0
 21 22  1  0  0  0
 25 26  1  0  0  0
 14 17  1  0  0  0
 16 18  1  0  0  0
M  END
> <minimizedAffinity>
-7.17744

> <CNNscore>
0.5893457532

> <CNNaffinity>
5.8912696838

> <CNN_VS>
3.4719948769

> <CNNaffinity_variance>
0.9465982318

$$$$
[H]OC([H])([H])C([H])([H])N([H])C(=O)[C@@]1([H])O[C@@]([H])(n2c([H])nc3c(N([H])C([H])([H])c4c([H])c([H])c([H])c([H])c4C([H])([H])[H])nc([H])nc32)[C@]([H])(O[H])[C@]1([H])O[H]


 36 39  0  0  0  0  0  0  0  0999 V2000
    3.7993    2.7022   17.5290 C   0  0  0  0  0  0  0  0  0  0  0  0
    3.6587    1.3742   17.7354 N   0  0  0  0  0  0  0  0  0  0  0  0
    3.0333    0.5761   16.8591 C   0  0  0  0  0  0  0  0  0  0  0  0
    2.5302    1.1141   15.7399 N   0  0  0  0  0  0  0  0  0  0  0  0
    2.6375    2.4184   15.4801 C   0  0  0  0  0  0  0  0  0  0  0  0
    3.2721    3.2336   16.3673 C   0  0  0  0  0  0  0  0  0  0  0  0
    3.2432    4.4855   15.8735 N   0  0  0  0  0  0  0  0  0  0  0  0
    2.6034    4.4804   14.6919 C   0  0  0  0  0  0  0  0  0  0  0  0
    2.2350    3.2120   14.4565 N   0  0  0  0  0  0  0  0  0  0  0  0
    1.5255    2.7725   13.2999 C   0  0  0  0  0  0  0  0  0  0  0  0
    2.3431    2.1688   12.3477 O   0  0  0  0  0  0  0  0  0  0  0  0
    1.5090    2.1171   11.2145 C   0  0  0  0  0  0  0  0  0  0  0  0
    1.0725    3.5759   11.1394 C   0  0  0  0  0  0  0  0  0  0  0  0
    0.0055    3.7728   10.3027 O   0  0  0  0  0  0  0  0  0  0  0  0
    0.7276    3.8220   12.6033 C   0  0  0  0  0  0  0  0  0  0  0  0
   -0.6538    3.5956   12.7234 O   0  0  0  0  0  0  0  0  0  0  0  0
   -0.0010    4.7298   10.0135 H   0  0  0  0  0  0  0  0  0  0  0  0
   -1.0966    4.3638   13.1756 H   0  0  0  0  0  0  0  0  0  0  0  0
    2.2068    1.6619   10.0234 C   0  0  0  0  0  0  0  0  0  0  0  0
    2.0877    2.2771    8.9411 O   0  0  0  0  0  0  0  0  0  0  0  0
    3.0340    0.5151   10.0642 N   0  0  0  0  0  0  0  0  0  0  0  0
    3.1477   -0.0114   10.9525 H   0  0  0  0  0  0  0  0  0  0  0  0
    3.7436    0.0383    8.8866 C   0  0  0  0  0  0  0  0  0  0  0  0
    5.2174    0.1093    9.1093 C   0  0  0  0  0  0  0  0  0  0  0  0
    5.6387   -1.0401    9.7806 O   0  0  0  0  0  0  0  0  0  0  0  0
    6.5925   -1.2656    9.5643 H   0  0  0  0  0  0  0  0  0  0  0  0
    4.4503    3.5311   18.4803 N   0  0  0  0  0  0  0  0  0  0  0  0
    4.2963    4.5665   18.4026 H   0  0  0  0  0  0  0  0  0  0  0  0
    5.2904    3.0225   19.5189 C   0  0  0  0  0  0  0  0  0  0  0  0
    6.1090    1.3728   21.6792 C   0  0  0  0  0  0  0  0  0  0  0  0
    5.2886    2.5606   21.9499 C   0  0  0  0  0  0  0  0  0  0  0  0
    4.9202    2.8558   23.2270 C   0  0  0  0  0  0  0  0  0  0  0  0
    4.1501    3.9642   23.5132 C   0  0  0  0  0  0  0  0  0  0  0  0
    3.7346    4.8024   22.5016 C   0  0  0  0  0  0  0  0  0  0  0  0
    4.1268    4.4733   21.2127 C   0  0  0  0  0  0  0  0  0  0  0  0
    4.8923    3.3803   20.8895 C   0  0  0  0  0  0  0  0  0  0  0  0
 30 31  1  0  0  0
 31 32  2  0  0  0
 32 33  1  0  0  0
 33 34  2  0  0  0
 34 35  1  0  0  0
 35 36  2  0  0  0
 36 29  1  0  0  0
 29 27  1  0  0  0
 27  1  1  0  0  0
  1  2  2  0  0  0
  2  3  1  0  0  0
  3  4  2  0  0  0
  4  5  1  0  0  0
  5  6  2  0  0  0
  6  7  1  0  0  0
  7  8  2  0  0  0
  8  9  1  0  0  0
  9 10  1  0  0  0
 10 11  1  0  0  0
 11 12  1  0  0  0
 12 19  1  0  0  0
 19 20  2  0  0  0
 19 21  1  0  0  0
 21 23  1  0  0  0
 23 24  1  0  0  0
 24 25  1  0  0  0
 12 13  1  0  0  0
 13 14  1  0  0  0
 13 15  1  0  0  0
 15 16  1  0  0  0
 36 31  1  0  0  0
  6  1  1  0  0  0
 15 10  1  0  0  0
  9  5  1  0  0  0
 27 28  1  0  0  0
 21 22  1  0  0  0
 25 26  1  0  0  0
 14 17  1  0  0  0
 16 18  1  0  0  0
M  END
> <minimizedAffinity>
-7.47079

> <CNNscore>
0.5197162628

> <CNNaffinity>
5.7983055115

> <CNN_VS>
3.0134737492

> <CNNaffinity_variance>
0.4790042937

$$$$
[H]OC([H])([H])C([H])([H])N([H])C(=O)[C@@]1([H])O[C@@]([H])(n2c([H])nc3c(N([H])C([H])([H])c4c([H])c([H])c([H])c([H])c4C([H])([H])[H])nc([H])nc32)[C@]([H])(O[H])[C@]1([H])O[H]


 36 39  0  0  0  0  0  0  0  0999 V2000
    4.4857    2.7039   18.0595 C   0  0  0  0  0  0  0  0  0  0  0  0
    5.1804    3.8546   18.1986 N   0  0  0  0  0  0  0  0  0  0  0  0
    5.2815    4.7535   17.2098 C   0  0  0  0  0  0  0  0  0  0  0  0
    4.6727    4.5019   16.0431 N   0  0  0  0  0  0  0  0  0  0  0  0
    3.9723    3.3837   15.8453 C   0  0  0  0  0  0  0  0  0  0  0  0
    3.8665    2.4672   16.8469 C   0  0  0  0  0  0  0  0  0  0  0  0
    3.1167    1.4445   16.3952 N   0  0  0  0  0  0  0  0  0  0  0  0
    2.7455    1.6940   15.1282 C   0  0  0  0  0  0  0  0  0  0  0  0
    3.2723    2.8826   14.7971 N   0  0  0  0  0  0  0  0  0  0  0  0
    3.1153    3.5172   13.5294 C   0  0  0  0  0  0  0  0  0  0  0  0
    4.3128    3.9880   12.9964 O   0  0  0  0  0  0  0  0  0  0  0  0
    3.8763    4.8220   11.9492 C   0  0  0  0  0  0  0  0  0  0  0  0
    2.8921    5.7062   12.7067 C   0  0  0  0  0  0  0  0  0  0  0  0
    2.0759    6.4303   11.8780 O   0  0  0  0  0  0  0  0  0  0  0  0
    2.1378    4.6426   13.4956 C   0  0  0  0  0  0  0  0  0  0  0  0
    0.9996    4.3251   12.7356 O   0  0  0  0  0  0  0  0  0  0  0  0
    1.7317    7.2225   12.3814 H   0  0  0  0  0  0  0  0  0  0  0  0
    0.1784    4.3790   13.2953 H   0  0  0  0  0  0  0  0  0  0  0  0
    4.9628    5.5652   11.3328 C   0  0  0  0  0  0  0  0  0  0  0  0
    5.9690    4.9709   10.8875 O   0  0  0  0  0  0  0  0  0  0  0  0
    4.9041    6.9744   11.2238 N   0  0  0  0  0  0  0  0  0  0  0  0
    4.0778    7.4889   11.5867 H   0  0  0  0  0  0  0  0  0  0  0  0
    5.9777    7.7422   10.6111 C   0  0  0  0  0  0  0  0  0  0  0  0
    6.9465    8.1944   11.6521 C   0  0  0  0  0  0  0  0  0  0  0  0
    7.9589    7.2422   11.7853 O   0  0  0  0  0  0  0  0  0  0  0  0
    8.8190    7.6580   12.0928 H   0  0  0  0  0  0  0  0  0  0  0  0
    4.4073    1.7580   19.1154 N   0  0  0  0  0  0  0  0  0  0  0  0
    3.6662    1.0179   19.0453 H   0  0  0  0  0  0  0  0  0  0  0  0
    5.2795    1.7728   20.2477 C   0  0  0  0  0  0  0  0  0  0  0  0
    3.4479    0.8104   22.1913 C   0  0  0  0  0  0  0  0  0  0  0  0
    3.9614    2.1820   22.3015 C   0  0  0  0  0  0  0  0  0  0  0  0
    3.5507    2.9816   23.3242 C   0  0  0  0  0  0  0  0  0  0  0  0
    4.0152    4.2742   23.4549 C   0  0  0  0  0  0  0  0  0  0  0  0
    4.9127    4.7861   22.5434 C   0  0  0  0  0  0  0  0  0  0  0  0
    5.3105    3.9460   21.5142 C   0  0  0  0  0  0  0  0  0  0  0  0
    4.8711    2.6554   21.3519 C   0  0  0  0  0  0  0  0  0  0  0  0
 30 31  1  0  0  0
 31 32  2  0  0  0
 32 33  1  0  0  0
 33 34  2  0  0  0
 34 35  1  0  0  0
 35 36  2  0  0  0
 36 29  1  0  0  0
 29 27  1  0  0  0
 27  1  1  0  0  0
  1  2  2  0  0  0
  2  3  1  0  0  0
  3  4  2  0  0  0
  4  5  1  0  0  0
  5  6  2  0  0  0
  6  7  1  0  0  0
  7  8  2  0  0  0
  8  9  1  0  0  0
  9 10  1  0  0  0
 10 11  1  0  0  0
 11 12  1  0  0  0
 12 19  1  0  0  0
 19 20  2  0  0  0
 19 21  1  0  0  0
 21 23  1  0  0  0
 23 24  1  0  0  0
 24 25  1  0  0  0
 12 13  1  0  0  0
 13 14  1  0  0  0
 13 15  1  0  0  0
 15 16  1  0  0  0
 36 31  1  0  0  0
  6  1  1  0  0  0
 15 10  1  0  0  0
  9  5  1  0  0  0
 27 28  1  0  0  0
 21 22  1  0  0  0
 25 26  1  0  0  0
 14 17  1  0  0  0
 16 18  1  0  0  0
M  END
> <minimizedAffinity>
-7.55365

> <CNNscore>
0.4849496186

> <CNNaffinity>
5.8088464737

> <CNN_VS>
2.8169977665

> <CNNaffinity_variance>
0.7613257766

$$$$
[H]OC([H])([H])C([H])([H])N([H])C(=O)[C@@]1([H])O[C@@]([H])(n2c([H])nc3c(N([H])C([H])([H])c4c([H])c([H])c([H])c([H])c4C([H])([H])[H])nc([H])nc32)[C@]([H])(O[H])[C@]1([H])O[H]


 36 39  0  0  0  0  0  0  0  0999 V2000
    3.9835    1.6672   17.9976 C   0  0  0  0  0  0  0  0  0  0  0  0
    3.3302    0.5013   17.7978 N   0  0  0  0  0  0  0  0  0  0  0  0
    2.6638    0.2394   16.6651 C   0  0  0  0  0  0  0  0  0  0  0  0
    2.6449    1.1661   15.6975 N   0  0  0  0  0  0  0  0  0  0  0  0
    3.2709    2.3362   15.8359 C   0  0  0  0  0  0  0  0  0  0  0  0
    3.9495    2.6071   16.9850 C   0  0  0  0  0  0  0  0  0  0  0  0
    4.4838    3.8373   16.8704 N   0  0  0  0  0  0  0  0  0  0  0  0
    4.1576    4.3515   15.6726 C   0  0  0  0  0  0  0  0  0  0  0  0
    3.4151    3.4278   15.0438 N   0  0  0  0  0  0  0  0  0  0  0  0
    2.8629    3.5795   13.7375 C   0  0  0  0  0  0  0  0  0  0  0  0
    2.1168    4.7458   13.5863 O   0  0  0  0  0  0  0  0  0  0  0  0
    1.4377    4.5212   12.3735 C   0  0  0  0  0  0  0  0  0  0  0  0
    0.8147    3.1608   12.6661 C   0  0  0  0  0  0  0  0  0  0  0  0
    0.3331    2.5402   11.5435 O   0  0  0  0  0  0  0  0  0  0  0  0
    2.0190    2.4445   13.2654 C   0  0  0  0  0  0  0  0  0  0  0  0
    2.6251    1.7457   12.2080 O   0  0  0  0  0  0  0  0  0  0  0  0
   -0.3565    1.8712   11.8196 H   0  0  0  0  0  0  0  0  0  0  0  0
    2.7685    0.7922   12.4549 H   0  0  0  0  0  0  0  0  0  0  0  0
    0.4572    5.5531   12.0790 C   0  0  0  0  0  0  0  0  0  0  0  0
    0.3535    6.0225   10.9246 O   0  0  0  0  0  0  0  0  0  0  0  0
   -0.3989    6.0468   13.0912 N   0  0  0  0  0  0  0  0  0  0  0  0
   -0.3304    5.6713   14.0574 H   0  0  0  0  0  0  0  0  0  0  0  0
   -1.3888    7.0791   12.8232 C   0  0  0  0  0  0  0  0  0  0  0  0
   -2.7219    6.6637   13.3494 C   0  0  0  0  0  0  0  0  0  0  0  0
   -2.8837    7.1635   14.6430 O   0  0  0  0  0  0  0  0  0  0  0  0
   -3.8513    7.3162   14.8616 H   0  0  0  0  0  0  0  0  0  0  0  0
    4.6680    1.9296   19.2135 N   0  0  0  0  0  0  0  0  0  0  0  0
    5.5801    1.4338   19.3697 H   0  0  0  0  0  0  0  0  0  0  0  0
    4.1750    2.8237   20.2138 C   0  0  0  0  0  0  0  0  0  0  0  0
    2.8495    0.7042   21.5588 C   0  0  0  0  0  0  0  0  0  0  0  0
    3.8938    1.4618   22.2606 C   0  0  0  0  0  0  0  0  0  0  0  0
    4.2109    1.1506   23.5476 C   0  0  0  0  0  0  0  0  0  0  0  0
    5.1872    1.8436   24.2333 C   0  0  0  0  0  0  0  0  0  0  0  0
    5.8669    2.8749   23.6226 C   0  0  0  0  0  0  0  0  0  0  0  0
    5.5197    3.1664   22.3120 C   0  0  0  0  0  0  0  0  0  0  0  0
    4.5553    2.4994   21.5978 C   0  0  0  0  0  0  0  0  0  0  0  0
 30 31  1  0  0  0
 31 32  2  0  0  0
 32 33  1  0  0  0
 33 34  2  0  0  0
 34 35  1  0  0  0
 35 36  2  0  0  0
 36 29  1  0  0  0
 29 27  1  0  0  0
 27  1  1  0  0  0
  1  2  2  0  0  0
  2  3  1  0  0  0
  3  4  2  0  0  0
  4  5  1  0  0  0
  5  6  2  0  0  0
  6  7  1  0  0  0
  7  8  2  0  0  0
  8  9  1  0  0  0
  9 10  1  0  0  0
 10 11  1  0  0  0
 11 12  1  0  0  0
 12 19  1  0  0  0
 19 20  2  0  0  0
 19 21  1  0  0  0
 21 23  1  0  0  0
 23 24  1  0  0  0
 24 25  1  0  0  0
 12 13  1  0  0  0
 13 14  1  0  0  0
 13 15  1  0  0  0
 15 16  1  0  0  0
 36 31  1  0  0  0
  6  1  1  0  0  0
 15 10  1  0  0  0
  9  5  1  0  0  0
 27 28  1  0  0  0
 21 22  1  0  0  0
 25 26  1  0  0  0
 14 17  1  0  0  0
 16 18  1  0  0  0
M  END
> <minimizedAffinity>
-7.80011

> <CNNscore>
0.4699960351

> <CNNaffinity>
5.7537431717

> <CNN_VS>
2.7042365074

> <CNNaffinity_variance>
0.3703060746

$$$$
[H]OC([H])([H])C([H])([H])N([H])C(=O)[C@@]1([H])O[C@@]([H])(n2c([H])nc3c(N([H])C([H])([H])c4c([H])c([H])c([H])c([H])c4C([H])([H])[H])nc([H])nc32)[C@]([H])(O[H])[C@]1([H])O[H]


 36 39  0  0  0  0  0  0  0  0999 V2000
    4.1538    2.0458   17.8658 C   0  0  0  0  0  0  0  0  0  0  0  0
    3.5711    0.8312   17.9718 N   0  0  0  0  0  0  0  0  0  0  0  0
    2.8754    0.2811   16.9672 C   0  0  0  0  0  0  0  0  0  0  0  0
    2.7537    0.9594   15.8182 N   0  0  0  0  0  0  0  0  0  0  0  0
    3.3062    2.1625   15.6530 C   0  0  0  0  0  0  0  0  0  0  0  0
    4.0141    2.7258   16.6708 C   0  0  0  0  0  0  0  0  0  0  0  0
    4.4603    3.9246   16.2513 N   0  0  0  0  0  0  0  0  0  0  0  0
    4.0497    4.1325   14.9890 C   0  0  0  0  0  0  0  0  0  0  0  0
    3.3436    3.0502   14.6282 N   0  0  0  0  0  0  0  0  0  0  0  0
    2.7270    2.8687   13.3549 C   0  0  0  0  0  0  0  0  0  0  0  0
    3.1849    3.7606   12.3883 O   0  0  0  0  0  0  0  0  0  0  0  0
    2.2400    3.6068   11.3558 C   0  0  0  0  0  0  0  0  0  0  0  0
    0.9508    3.8142   12.1427 C   0  0  0  0  0  0  0  0  0  0  0  0
   -0.1662    3.4218   11.4529 O   0  0  0  0  0  0  0  0  0  0  0  0
    1.2373    2.9323   13.3522 C   0  0  0  0  0  0  0  0  0  0  0  0
    0.6602    1.6827   13.0711 O   0  0  0  0  0  0  0  0  0  0  0  0
   -0.9595    3.8965   11.8333 H   0  0  0  0  0  0  0  0  0  0  0  0
    0.0792    1.3879   13.8236 H   0  0  0  0  0  0  0  0  0  0  0  0
    2.4206    4.5685   10.2809 C   0  0  0  0  0  0  0  0  0  0  0  0
    3.2333    4.3461    9.3569 O   0  0  0  0  0  0  0  0  0  0  0  0
    1.6813    5.7744   10.2581 N   0  0  0  0  0  0  0  0  0  0  0  0
    1.0005    5.9801   11.0154 H   0  0  0  0  0  0  0  0  0  0  0  0
    1.8429    6.7537    9.1940 C   0  0  0  0  0  0  0  0  0  0  0  0
    2.3283    8.0485    9.7548 C   0  0  0  0  0  0  0  0  0  0  0  0
    3.6797    7.9307   10.0853 O   0  0  0  0  0  0  0  0  0  0  0  0
    4.1523    8.8143   10.0283 H   0  0  0  0  0  0  0  0  0  0  0  0
    4.8710    2.6164   18.9501 N   0  0  0  0  0  0  0  0  0  0  0  0
    5.8656    2.3091   19.0849 H   0  0  0  0  0  0  0  0  0  0  0  0
    4.3045    3.5734   19.8481 C   0  0  0  0  0  0  0  0  0  0  0  0
    4.0629    5.6035   21.8175 C   0  0  0  0  0  0  0  0  0  0  0  0
    4.2252    4.2060   22.2390 C   0  0  0  0  0  0  0  0  0  0  0  0
    4.2679    3.8961   23.5642 C   0  0  0  0  0  0  0  0  0  0  0  0
    4.4191    2.5930   23.9914 C   0  0  0  0  0  0  0  0  0  0  0  0
    4.5313    1.5695   23.0758 C   0  0  0  0  0  0  0  0  0  0  0  0
    4.4841    1.9191   21.7346 C   0  0  0  0  0  0  0  0  0  0  0  0
    4.3343    3.2030   21.2718 C   0  0  0  0  0  0  0  0  0  0  0  0
 30 31  1  0  0  0
 31 32  2  0  0  0
 32 33  1  0  0  0
 33 34  2  0  0  0
 34 35  1  0  0  0
 35 36  2  0  0  0
 36 29  1  0  0  0
 29 27  1  0  0  0
 27  1  1  0  0  0
  1  2  2  0  0  0
  2  3  1  0  0  0
  3  4  2  0  0  0
  4  5  1  0  0  0
  5  6  2  0  0  0
  6  7  1  0  0  0
  7  8  2  0  0  0
  8  9  1  0  0  0
  9 10  1  0  0  0
 10 11  1  0  0  0
 11 12  1  0  0  0
 12 19  1  0  0  0
 19 20  2  0  0  0
 19 21  1  0  0  0
 21 23  1  0  0  0
 23 24  1  0  0  0
 24 25  1  0  0  0
 12 13  1  0  0  0
 13 14  1  0  0  0
 13 15  1  0  0  0
 15 16  1  0  0  0
 36 31  1  0  0  0
  6  1  1  0  0  0
 15 10  1  0  0  0
  9  5  1  0  0  0
 27 28  1  0  0  0
 21 22  1  0  0  0
 25 26  1  0  0  0
 14 17  1  0  0  0
 16 18  1  0  0  0
M  END
> <minimizedAffinity>
-7.61068

> <CNNscore>
0.3921813369

> <CNNaffinity>
5.7262926102

> <CNN_VS>
2.2457451820

> <CNNaffinity_variance>
0.7240725756

$$$$
[H]OC([H])([H])C([H])([H])N([H])C(=O)[C@@]1([H])O[C@@]([H])(n2c([H])nc3c(N([H])C([H])([H])c4c([H])c([H])c([H])c([H])c4C([H])([H])[H])nc([H])nc32)[C@]([H])(O[H])[C@]1([H])O[H]


 36 39  0  0  0  0  0  0  0  0999 V2000
    3.8828    2.1638   16.8480 C   0  0  0  0  0  0  0  0  0  0  0  0
    3.0851    1.4809   15.9975 N   0  0  0  0  0  0  0  0  0  0  0  0
    2.4775    2.0692   14.9580 C   0  0  0  0  0  0  0  0  0  0  0  0
    2.6679    3.3798   14.7555 N   0  0  0  0  0  0  0  0  0  0  0  0
    3.4441    4.1076   15.5605 C   0  0  0  0  0  0  0  0  0  0  0  0
    4.0637    3.5145   16.6182 C   0  0  0  0  0  0  0  0  0  0  0  0
    4.7776    4.4570   17.2617 N   0  0  0  0  0  0  0  0  0  0  0  0
    4.6231    5.6348   16.6339 C   0  0  0  0  0  0  0  0  0  0  0  0
    3.8056    5.4145   15.5931 N   0  0  0  0  0  0  0  0  0  0  0  0
    3.3840    6.4118   14.6647 C   0  0  0  0  0  0  0  0  0  0  0  0
    2.0153    6.3835   14.4086 O   0  0  0  0  0  0  0  0  0  0  0  0
    1.8981    7.2061   13.2720 C   0  0  0  0  0  0  0  0  0  0  0  0
    2.9334    6.5527   12.3635 C   0  0  0  0  0  0  0  0  0  0  0  0
    3.2619    7.3278   11.2823 O   0  0  0  0  0  0  0  0  0  0  0  0
    4.0854    6.3964   13.3489 C   0  0  0  0  0  0  0  0  0  0  0  0
    4.9030    7.5260   13.1780 O   0  0  0  0  0  0  0  0  0  0  0  0
    3.6327    6.7365   10.5666 H   0  0  0  0  0  0  0  0  0  0  0  0
    5.8514    7.2551   13.0448 H   0  0  0  0  0  0  0  0  0  0  0  0
    0.5565    7.2037   12.7125 C   0  0  0  0  0  0  0  0  0  0  0  0
    0.2790    7.9116   11.7196 O   0  0  0  0  0  0  0  0  0  0  0  0
   -0.4615    6.4012   13.2790 N   0  0  0  0  0  0  0  0  0  0  0  0
   -0.2536    5.8052   14.1040 H   0  0  0  0  0  0  0  0  0  0  0  0
   -1.8124    6.3802   12.7384 C   0  0  0  0  0  0  0  0  0  0  0  0
   -2.7462    7.0942   13.6575 C   0  0  0  0  0  0  0  0  0  0  0  0
   -2.3762    6.8409   14.9797 O   0  0  0  0  0  0  0  0  0  0  0  0
   -2.6374    7.5957   15.5875 H   0  0  0  0  0  0  0  0  0  0  0  0
    4.5019    1.5228   17.9532 N   0  0  0  0  0  0  0  0  0  0  0  0
    5.5301    1.3240   17.8810 H   0  0  0  0  0  0  0  0  0  0  0  0
    3.7955    1.1445   19.1368 C   0  0  0  0  0  0  0  0  0  0  0  0
    2.6955    0.2782   21.6063 C   0  0  0  0  0  0  0  0  0  0  0  0
    3.7675    1.2822   21.6073 C   0  0  0  0  0  0  0  0  0  0  0  0
    4.2176    1.7950   22.7856 C   0  0  0  0  0  0  0  0  0  0  0  0
    5.2232    2.7390   22.8193 C   0  0  0  0  0  0  0  0  0  0  0  0
    5.7970    3.1859   21.6491 C   0  0  0  0  0  0  0  0  0  0  0  0
    5.3157    2.6438   20.4669 C   0  0  0  0  0  0  0  0  0  0  0  0
    4.3180    1.7034   20.3937 C   0  0  0  0  0  0  0  0  0  0  0  0
 30 31  1  0  0  0
 31 32  2  0  0  0
 32 33  1  0  0  0
 33 34  2  0  0  0
 34 35  1  0  0  0
 35 36  2  0  0  0
 36 29  1  0  0  0
 29 27  1  0  0  0
 27  1  1  0  0  0
  1  2  2  0  0  0
  2  3  1  0  0  0
  3  4  2  0  0  0
  4  5  1  0  0  0
  5  6  2  0  0  0
  6  7  1  0  0  0
  7  8  2  0  0  0
  8  9  1  0  0  0
  9 10  1  0  0  0
 10 11  1  0  0  0
 11 12  1  0  0  0
 12 19  1  0  0  0
 19 20  2  0  0  0
 19 21  1  0  0  0
 21 23  1  0  0  0
 23 24  1  0  0  0
 24 25  1  0  0  0
 12 13  1  0  0  0
 13 14  1  0  0  0
 13 15  1  0  0  0
 15 16  1  0  0  0
 36 31  1  0  0  0
  6  1  1  0  0  0
 15 10  1  0  0  0
  9  5  1  0  0  0
 27 28  1  0  0  0
 21 22  1  0  0  0
 25 26  1  0  0  0
 14 17  1  0  0  0
 16 18  1  0  0  0
M  END
> <minimizedAffinity>
-8.21083

> <CNNscore>
0.3721513450

> <CNNaffinity>
5.7135725021

> <CNN_VS>
2.1263136864

> <CNNaffinity_variance>
0.5036398172

$$$$
[H]OC([H])([H])C([H])([H])N([H])C(=O)[C@@]1([H])O[C@@]([H])(n2c([H])nc3c(N([H])C([H])([H])c4c([H])c([H])c([H])c([H])c4C([H])([H])[H])nc([H])nc32)[C@]([H])(O[H])[C@]1([H])O[H]


 36 39  0  0  0  0  0  0  0  0999 V2000
    3.2280    2.3215   16.8189 C   0  0  0  0  0  0  0  0  0  0  0  0
    3.9227    1.3699   17.4806 N   0  0  0  0  0  0  0  0  0  0  0  0
    4.5609    1.6202   18.6321 C   0  0  0  0  0  0  0  0  0  0  0  0
    4.5078    2.8570   19.1446 N   0  0  0  0  0  0  0  0  0  0  0  0
    3.8380    3.8385   18.5379 C   0  0  0  0  0  0  0  0  0  0  0  0
    3.1879    3.5893   17.3676 C   0  0  0  0  0  0  0  0  0  0  0  0
    2.5986    4.7322   16.9694 N   0  0  0  0  0  0  0  0  0  0  0  0
    2.8620    5.7004   17.8631 C   0  0  0  0  0  0  0  0  0  0  0  0
    3.6211    5.1472   18.8210 N   0  0  0  0  0  0  0  0  0  0  0  0
    4.1218    5.8394   19.9632 C   0  0  0  0  0  0  0  0  0  0  0  0
    5.4135    6.3299   19.7883 O   0  0  0  0  0  0  0  0  0  0  0  0
    5.7929    6.6716   21.1005 C   0  0  0  0  0  0  0  0  0  0  0  0
    5.4848    5.3609   21.8157 C   0  0  0  0  0  0  0  0  0  0  0  0
    5.4712    5.4862   23.1800 O   0  0  0  0  0  0  0  0  0  0  0  0
    4.1066    5.0642   21.2368 C   0  0  0  0  0  0  0  0  0  0  0  0
    3.1769    5.5821   22.1540 O   0  0  0  0  0  0  0  0  0  0  0  0
    5.6298    4.5859   23.5848 H   0  0  0  0  0  0  0  0  0  0  0  0
    2.4975    4.8942   22.3904 H   0  0  0  0  0  0  0  0  0  0  0  0
    7.1883    7.0670   21.1970 C   0  0  0  0  0  0  0  0  0  0  0  0
    8.0746    6.2205   21.4460 O   0  0  0  0  0  0  0  0  0  0  0  0
    7.5719    8.4159   21.0113 N   0  0  0  0  0  0  0  0  0  0  0  0
    6.8526    9.1360   20.8036 H   0  0  0  0  0  0  0  0  0  0  0  0
    8.9615    8.8382   21.1025 C   0  0  0  0  0  0  0  0  0  0  0  0
    9.0512   10.3271   21.0618 C   0  0  0  0  0  0  0  0  0  0  0  0
    8.7436   10.7732   19.7750 O   0  0  0  0  0  0  0  0  0  0  0  0
    8.3538   11.6979   19.7879 H   0  0  0  0  0  0  0  0  0  0  0  0
    2.5746    2.0373   15.5909 N   0  0  0  0  0  0  0  0  0  0  0  0
    1.5381    1.8745   15.6229 H   0  0  0  0  0  0  0  0  0  0  0  0
    3.2579    1.9650   14.3375 C   0  0  0  0  0  0  0  0  0  0  0  0
    1.3489    1.8835   12.2380 C   0  0  0  0  0  0  0  0  0  0  0  0
    2.1673    3.0892   12.4218 C   0  0  0  0  0  0  0  0  0  0  0  0
    2.0124    4.1504   11.5829 C   0  0  0  0  0  0  0  0  0  0  0  0
    2.7660    5.2967   11.7300 C   0  0  0  0  0  0  0  0  0  0  0  0
    3.6996    5.3906   12.7390 C   0  0  0  0  0  0  0  0  0  0  0  0
    3.8324    4.2925   13.5755 C   0  0  0  0  0  0  0  0  0  0  0  0
    3.1010    3.1363   13.4608 C   0  0  0  0  0  0  0  0  0  0  0  0
 30 31  1  0  0  0
 31 32  2  0  0  0
 32 33  1  0  0  0
 33 34  2  0  0  0
 34 35  1  0  0  0
 35 36  2  0  0  0
 36 29  1  0  0  0
 29 27  1  0  0  0
 27  1  1  0  0  0
  1  2  2  0  0  0
  2  3  1  0  0  0
  3  4  2  0  0  0
  4  5  1  0  0  0
  5  6  2  0  0  0
  6  7  1  0  0  0
  7  8  2  0  0  0
  8  9  1  0  0  0
  9 10  1  0  0  0
 10 11  1  0  0  0
 11 12  1  0  0  0
 12 19  1  0  0  0
 19 20  2  0  0  0
 19 21  1  0  0  0
 21 23  1  0  0  0
 23 24  1  0  0  0
 24 25  1  0  0  0
 12 13  1  0  0  0
 13 14  1  0  0  0
 13 15  1  0  0  0
 15 16  1  0  0  0
 36 31  1  0  0  0
  6  1  1  0  0  0
 15 10  1  0  0  0
  9  5  1  0  0  0
 27 28  1  0  0  0
 21 22  1  0  0  0
 25 26  1  0  0  0
 14 17  1  0  0  0
 16 18  1  0  0  0
M  END
> <minimizedAffinity>
-7.57620

> <CNNscore>
0.2986528873

> <CNNaffinity>
5.5507760048

> <CNN_VS>
1.6577552557

> <CNNaffinity_variance>
0.4619922042

$$$$
[H]OC([H])([H])C([H])([H])N([H])C(=O)[C@@]1([H])O[C@@]([H])(n2c([H])nc3c(N([H])C([H])([H])c4c([H])c([H])c([H])c([H])c4C([H])([H])[H])nc([H])nc32)[C@]([H])(O[H])[C@]1([H])O[H]


 36 39  0  0  0  0  0  0  0  0999 V2000
    4.1320    2.4238   17.5185 C   0  0  0  0  0  0  0  0  0  0  0  0
    3.4774    1.4437   16.8575 N   0  0  0  0  0  0  0  0  0  0  0  0
    2.8280    1.6668   15.7067 C   0  0  0  0  0  0  0  0  0  0  0  0
    2.8280    2.9048   15.1944 N   0  0  0  0  0  0  0  0  0  0  0  0
    3.4563    3.9138   15.8005 C   0  0  0  0  0  0  0  0  0  0  0  0
    4.1177    3.6922   16.9700 C   0  0  0  0  0  0  0  0  0  0  0  0
    4.6585    4.8590   17.3677 N   0  0  0  0  0  0  0  0  0  0  0  0
    4.3533    5.8152   16.4744 C   0  0  0  0  0  0  0  0  0  0  0  0
    3.6172    5.2305   15.5173 N   0  0  0  0  0  0  0  0  0  0  0  0
    3.0864    5.9010   14.3758 C   0  0  0  0  0  0  0  0  0  0  0  0
    3.7818    5.6248   13.2012 O   0  0  0  0  0  0  0  0  0  0  0  0
    3.2962    6.6079   12.3180 C   0  0  0  0  0  0  0  0  0  0  0  0
    3.5331    7.8587   13.1568 C   0  0  0  0  0  0  0  0  0  0  0  0
    2.8750    8.9593   12.6741 O   0  0  0  0  0  0  0  0  0  0  0  0
    2.9840    7.3836   14.4966 C   0  0  0  0  0  0  0  0  0  0  0  0
    1.6475    7.8139   14.5468 O   0  0  0  0  0  0  0  0  0  0  0  0
    3.3334    9.7800   13.0143 H   0  0  0  0  0  0  0  0  0  0  0  0
    1.4683    8.3020   15.3956 H   0  0  0  0  0  0  0  0  0  0  0  0
    4.0043    6.6222   11.0486 C   0  0  0  0  0  0  0  0  0  0  0  0
    5.1434    6.1159   10.9489 O   0  0  0  0  0  0  0  0  0  0  0  0
    3.4199    7.2083    9.9014 N   0  0  0  0  0  0  0  0  0  0  0  0
    2.4745    7.6347    9.9610 H   0  0  0  0  0  0  0  0  0  0  0  0
    4.1070    7.2358    8.6189 C   0  0  0  0  0  0  0  0  0  0  0  0
    4.7099    8.5808    8.3862 C   0  0  0  0  0  0  0  0  0  0  0  0
    5.7945    8.7559    9.2478 O   0  0  0  0  0  0  0  0  0  0  0  0
    6.4781    9.3796    8.8592 H   0  0  0  0  0  0  0  0  0  0  0  0
    4.7982    2.1674   18.7457 N   0  0  0  0  0  0  0  0  0  0  0  0
    5.8454    2.2409   18.7501 H   0  0  0  0  0  0  0  0  0  0  0  0
    4.1141    1.8198   19.9517 C   0  0  0  0  0  0  0  0  0  0  0  0
    3.5264    1.0255   22.6129 C   0  0  0  0  0  0  0  0  0  0  0  0
    3.8906    2.4222   22.3413 C   0  0  0  0  0  0  0  0  0  0  0  0
    3.9345    3.3239   23.3605 C   0  0  0  0  0  0  0  0  0  0  0  0
    4.2733    4.6426   23.1373 C   0  0  0  0  0  0  0  0  0  0  0  0
    4.5765    5.0770   21.8653 C   0  0  0  0  0  0  0  0  0  0  0  0
    4.5223    4.1337   20.8502 C   0  0  0  0  0  0  0  0  0  0  0  0
    4.1903    2.8142   21.0336 C   0  0  0  0  0  0  0  0  0  0  0  0
 30 31  1  0  0  0
 31 32  2  0  0  0
 32 33  1  0  0  0
 33 34  2  0  0  0
 34 35  1  0  0  0
 35 36  2  0  0  0
 36 29  1  0  0  0
 29 27  1  0  0  0
 27  1  1  0  0  0
  1  2  2  0  0  0
  2  3  1  0  0  0
  3  4  2  0  0  0
  4  5  1  0  0  0
  5  6  2  0  0  0
  6  7  1  0  0  0
  7  8  2  0  0  0
  8  9  1  0  0  0
  9 10  1  0  0  0
 10 11  1  0  0  0
 11 12  1  0  0  0
 12 19  1  0  0  0
 19 20  2  0  0  0
 19 21  1  0  0  0
 21 23  1  0  0  0
 23 24  1  0  0  0
 24 25  1  0  0  0
 12 13  1  0  0  0
 13 14  1  0  0  0
 13 15  1  0  0  0
 15 16  1  0  0  0
 36 31  1  0  0  0
  6  1  1  0  0  0
 15 10  1  0  0  0
  9  5  1  0  0  0
 27 28  1  0  0  0
 21 22  1  0  0  0
 25 26  1  0  0  0
 14 17  1  0  0  0
 16 18  1  0  0  0
M  END
> <minimizedAffinity>
-7.73255

> <CNNscore>
0.2715588510

> <CNNaffinity>
5.6040215492

> <CNN_VS>
1.5218216181

> <CNNaffinity_variance>
0.9017260671

$$$$
[H]OC([H])([H])C([H])([H])N([H])C(=O)[C@@]1([H])O[C@@]([H])(n2c([H])nc3c(N([H])C([H])([H])c4c([H])c([H])c([H])c([H])c4C([H])([H])[H])nc([H])nc32)[C@]([H])(O[H])[C@]1([H])O[H]


 36 39  0  0  0  0  0  0  0  0999 V2000
    4.1264    1.8009   18.3227 C   0  0  0  0  0  0  0  0  0  0  0  0
    3.4718    0.6235   18.4282 N   0  0  0  0  0  0  0  0  0  0  0  0
    2.7726    0.0998   17.4119 C   0  0  0  0  0  0  0  0  0  0  0  0
    2.7212    0.7673   16.2513 N   0  0  0  0  0  0  0  0  0  0  0  0
    3.3467    1.9341   16.0860 C   0  0  0  0  0  0  0  0  0  0  0  0
    4.0585    2.4704   17.1156 C   0  0  0  0  0  0  0  0  0  0  0  0
    4.5844    3.6353   16.6932 N   0  0  0  0  0  0  0  0  0  0  0  0
    4.2206    3.8482   15.4174 C   0  0  0  0  0  0  0  0  0  0  0  0
    3.4629    2.8033   15.0512 N   0  0  0  0  0  0  0  0  0  0  0  0
    2.8712    2.6391   13.7639 C   0  0  0  0  0  0  0  0  0  0  0  0
    3.4107    3.4842   12.7972 O   0  0  0  0  0  0  0  0  0  0  0  0
    2.4866    3.3722   11.7407 C   0  0  0  0  0  0  0  0  0  0  0  0
    1.1920    3.6731   12.4874 C   0  0  0  0  0  0  0  0  0  0  0  0
    0.0718    3.3396   11.7722 O   0  0  0  0  0  0  0  0  0  0  0  0
    1.3891    2.7957   13.7178 C   0  0  0  0  0  0  0  0  0  0  0  0
    0.7424    1.5799   13.4394 O   0  0  0  0  0  0  0  0  0  0  0  0
   -0.7001    3.8694   12.1227 H   0  0  0  0  0  0  0  0  0  0  0  0
    0.1237    1.3348   14.1795 H   0  0  0  0  0  0  0  0  0  0  0  0
    2.7568    4.3025   10.6569 C   0  0  0  0  0  0  0  0  0  0  0  0
    3.6701    4.0738    9.8338 O   0  0  0  0  0  0  0  0  0  0  0  0
    1.9928    5.4841   10.5112 N   0  0  0  0  0  0  0  0  0  0  0  0
    1.2291    5.6944   11.1833 H   0  0  0  0  0  0  0  0  0  0  0  0
    2.2424    6.4317    9.4355 C   0  0  0  0  0  0  0  0  0  0  0  0
    3.0082    7.6047    9.9495 C   0  0  0  0  0  0  0  0  0  0  0  0
    2.1146    8.5986   10.3531 O   0  0  0  0  0  0  0  0  0  0  0  0
    2.5020    9.1700   11.0816 H   0  0  0  0  0  0  0  0  0  0  0  0
    4.8461    2.3449   19.4189 N   0  0  0  0  0  0  0  0  0  0  0  0
    5.8881    2.2177   19.4221 H   0  0  0  0  0  0  0  0  0  0  0  0
    4.2214    3.0448   20.4973 C   0  0  0  0  0  0  0  0  0  0  0  0
    3.2687    5.5461   19.5516 C   0  0  0  0  0  0  0  0  0  0  0  0
    4.4293    5.5101   20.4509 C   0  0  0  0  0  0  0  0  0  0  0  0
    5.0431    6.6695   20.8155 C   0  0  0  0  0  0  0  0  0  0  0  0
    6.1351    6.6684   21.6588 C   0  0  0  0  0  0  0  0  0  0  0  0
    6.6309    5.4816   22.1531 C   0  0  0  0  0  0  0  0  0  0  0  0
    5.9830    4.3193   21.7623 C   0  0  0  0  0  0  0  0  0  0  0  0
    4.8947    4.2809   20.9262 C   0  0  0  0  0  0  0  0  0  0  0  0
 30 31  1  0  0  0
 31 32  2  0  0  0
 32 33  1  0  0  0
 33 34  2  0  0  0
 34 35  1  0  0  0
 35 36  2  0  0  0
 36 29  1  0  0  0
 29 27  1  0  0  0
 27  1  1  0  0  0
  1  2  2  0  0  0
  2  3  1  0  0  0
  3  4  2  0  0  0
  4  5  1  0  0  0
  5  6  2  0  0  0
  6  7  1  0  0  0
  7  8  2  0  0  0
  8  9  1  0  0  0
  9 10  1  0  0  0
 10 11  1  0  0  0
 11 12  1  0  0  0
 12 19  1  0  0  0
 19 20  2  0  0  0
 19 21  1  0  0  0
 21 23  1  0  0  0
 23 24  1  0  0  0
 24 25  1  0  0  0
 12 13  1  0  0  0
 13 14  1  0  0  0
 13 15  1  0  0  0
 15 16  1  0  0  0
 36 31  1  0  0  0
  6  1  1  0  0  0
 15 10  1  0  0  0
  9  5  1  0  0  0
 27 28  1  0  0  0
 21 22  1  0  0  0
 25 26  1  0  0  0
 14 17  1  0  0  0
 16 18  1  0  0  0
M  END
> <minimizedAffinity>
-7.60960

> <CNNscore>
0.2137253284

> <CNNaffinity>
5.4584980011

> <CNN_VS>
1.1666193008

> <CNNaffinity_variance>
0.6060668826

$$$$
[H]c1c([H])c([H])c(S(=O)(=O)c2c([H])c([H])c3c(c2[H])c2c(n3[H])C([H])([H])C([H])([H])C([H])(N([H])[H])C2([H])[H])c([H])c1[H]


 26 29  0  0  0  0  0  0  0  0999 V2000
    4.3275    4.1041   15.1905 N   0  0  0  0  0  0  0  0  0  0  0  0
    3.6326    3.2044   16.1078 C   0  0  0  0  0  0  0  0  0  0  0  0
    3.0049    2.1163   15.3152 C   0  0  0  0  0  0  0  0  0  0  0  0
    2.9702    0.7765   15.9768 C   0  0  0  0  0  0  0  0  0  0  0  0
    3.1771    0.8106   17.4347 C   0  0  0  0  0  0  0  0  0  0  0  0
    2.7093    0.0243   18.4043 N   0  0  0  0  0  0  0  0  0  0  0  0
    3.1626    0.4321   19.5874 C   0  0  0  0  0  0  0  0  0  0  0  0
    2.9811   -0.0287   20.8968 C   0  0  0  0  0  0  0  0  0  0  0  0
    3.6231    0.6609   21.9012 C   0  0  0  0  0  0  0  0  0  0  0  0
    4.4129    1.7529   21.6757 C   0  0  0  0  0  0  0  0  0  0  0  0
    4.5877    2.2017   20.3844 C   0  0  0  0  0  0  0  0  0  0  0  0
    3.9547    1.5260   19.3688 C   0  0  0  0  0  0  0  0  0  0  0  0
    3.9642    1.7641   18.0171 C   0  0  0  0  0  0  0  0  0  0  0  0
    4.6074    2.7684   17.1401 C   0  0  0  0  0  0  0  0  0  0  0  0
    5.0871    4.5884   15.6897 H   0  0  0  0  0  0  0  0  0  0  0  0
    3.6619    4.7217   14.6939 H   0  0  0  0  0  0  0  0  0  0  0  0
    2.0723   -0.8088   18.2998 H   0  0  0  0  0  0  0  0  0  0  0  0
    5.2037    2.5892   22.9917 S   0  0  0  0  0  0  0  0  0  0  0  0
    6.4735    1.8764   23.3121 O   0  0  0  0  0  0  0  0  0  0  0  0
    4.3013    2.5571   24.1899 O   0  0  0  0  0  0  0  0  0  0  0  0
    5.4938    4.2335   22.4694 C   0  0  0  0  0  0  0  0  0  0  0  0
    6.7734    4.6358   22.1774 C   0  0  0  0  0  0  0  0  0  0  0  0
    7.0950    5.9134   21.7586 C   0  0  0  0  0  0  0  0  0  0  0  0
    6.0523    6.8132   21.6360 C   0  0  0  0  0  0  0  0  0  0  0  0
    4.7499    6.4349   21.9239 C   0  0  0  0  0  0  0  0  0  0  0  0
    4.4834    5.1525   22.3367 C   0  0  0  0  0  0  0  0  0  0  0  0
  1  2  1  0  0  0
  2  3  1  0  0  0
  3  4  1  0  0  0
  4  5  1  0  0  0
  5  6  1  0  0  0
  6  7  1  0  0  0
  7  8  2  0  0  0
  8  9  1  0  0  0
  9 10  2  0  0  0
 10 18  1  0  0  0
 18 19  2  0  0  0
 18 20  2  0  0  0
 18 21  1  0  0  0
 21 22  2  0  0  0
 22 23  1  0  0  0
 23 24  2  0  0  0
 24 25  1  0  0  0
 25 26  2  0  0  0
 10 11  1  0  0  0
 11 12  2  0  0  0
 12 13  1  0  0  0
 13 14  1  0  0  0
 14  2  1  0  0  0
 13  5  2  0  0  0
 12  7  1  0  0  0
 26 21  1  0  0  0
  1 15  1  0  0  0
  1 16  1  0  0  0
  6 17  1  0  0  0
M  END
> <minimizedAffinity>
-9.39938

> <CNNscore>
0.6723256111

> <CNNaffinity>
6.4984269142

> <CNN_VS>
4.3690586090

> <CNNaffinity_variance>
0.3719892800

$$$$
[H]c1c([H])c([H])c(S(=O)(=O)c2c([H])c([H])c3c(c2[H])c2c(n3[H])C([H])([H])C([H])([H])C([H])(N([H])[H])C2([H])[H])c([H])c1[H]


 26 29  0  0  0  0  0  0  0  0999 V2000
    2.6562    5.5685   12.3603 N   0  0  0  0  0  0  0  0  0  0  0  0
    2.4805    4.4808   13.3193 C   0  0  0  0  0  0  0  0  0  0  0  0
    2.2844    3.2158   12.5661 C   0  0  0  0  0  0  0  0  0  0  0  0
    2.8645    1.9931   13.2005 C   0  0  0  0  0  0  0  0  0  0  0  0
    3.1734    2.1374   14.6334 C   0  0  0  0  0  0  0  0  0  0  0  0
    3.1620    1.2474   15.6259 N   0  0  0  0  0  0  0  0  0  0  0  0
    3.5155    1.8284   16.7700 C   0  0  0  0  0  0  0  0  0  0  0  0
    3.6615    1.3593   18.0809 C   0  0  0  0  0  0  0  0  0  0  0  0
    4.0539    2.2711   19.0355 C   0  0  0  0  0  0  0  0  0  0  0  0
    4.3008    3.5865   18.7602 C   0  0  0  0  0  0  0  0  0  0  0  0
    4.1553    4.0424   17.4677 C   0  0  0  0  0  0  0  0  0  0  0  0
    3.7644    3.1466   16.5014 C   0  0  0  0  0  0  0  0  0  0  0  0
    3.5498    3.3413   15.1598 C   0  0  0  0  0  0  0  0  0  0  0  0
    3.6394    4.5038   14.2479 C   0  0  0  0  0  0  0  0  0  0  0  0
    3.1926    6.3317   12.7967 H   0  0  0  0  0  0  0  0  0  0  0  0
    1.7528    5.8484   11.9401 H   0  0  0  0  0  0  0  0  0  0  0  0
    2.9166    0.2244   15.5638 H   0  0  0  0  0  0  0  0  0  0  0  0
    4.7968    4.6993   20.0142 S   0  0  0  0  0  0  0  0  0  0  0  0
    3.7634    5.7670   20.1371 O   0  0  0  0  0  0  0  0  0  0  0  0
    6.1040    5.3181   19.6150 O   0  0  0  0  0  0  0  0  0  0  0  0
    4.9640    3.7813   21.4940 C   0  0  0  0  0  0  0  0  0  0  0  0
    4.0762    3.9844   22.5212 C   0  0  0  0  0  0  0  0  0  0  0  0
    4.1322    3.3052   23.7241 C   0  0  0  0  0  0  0  0  0  0  0  0
    5.1469    2.3777   23.8727 C   0  0  0  0  0  0  0  0  0  0  0  0
    6.0578    2.1516   22.8523 C   0  0  0  0  0  0  0  0  0  0  0  0
    5.9584    2.8533   21.6760 C   0  0  0  0  0  0  0  0  0  0  0  0
  1  2  1  0  0  0
  2  3  1  0  0  0
  3  4  1  0  0  0
  4  5  1  0  0  0
  5  6  1  0  0  0
  6  7  1  0  0  0
  7  8  2  0  0  0
  8  9  1  0  0  0
  9 10  2  0  0  0
 10 18  1  0  0  0
 18 19  2  0  0  0
 18 20  2  0  0  0
 18 21  1  0  0  0
 21 22  2  0  0  0
 22 23  1  0  0  0
 23 24  2  0  0  0
 24 25  1  0  0  0
 25 26  2  0  0  0
 10 11  1  0  0  0
 11 12  2  0  0  0
 12 13  1  0  0  0
 13 14  1  0  0  0
 14  2  1  0  0  0
 13  5  2  0  0  0
 12  7  1  0  0  0
 26 21  1  0  0  0
  1 15  1  0  0  0
  1 16  1  0  0  0
  6 17  1  0  0  0
M  END
> <minimizedAffinity>
-8.27399

> <CNNscore>
0.4004783630

> <CNNaffinity>
5.7666273117

> <CNN_VS>
2.3094093800

> <CNNaffinity_variance>
0.4155356884

$$$$
[H]c1c([H])c([H])c(S(=O)(=O)c2c([H])c([H])c3c(c2[H])c2c(n3[H])C([H])([H])C([H])([H])C([H])(N([H])[H])C2([H])[H])c([H])c1[H]


 26 29  0  0  0  0  0  0  0  0999 V2000
    6.9056    7.4784   22.7567 N   0  0  0  0  0  0  0  0  0  0  0  0
    5.7522    7.4386   21.8612 C   0  0  0  0  0  0  0  0  0  0  0  0
    5.3621    8.8338   21.5334 C   0  0  0  0  0  0  0  0  0  0  0  0
    4.8361    9.0463   20.1506 C   0  0  0  0  0  0  0  0  0  0  0  0
    4.4002    7.8161   19.4679 C   0  0  0  0  0  0  0  0  0  0  0  0
    3.4442    7.6087   18.5622 N   0  0  0  0  0  0  0  0  0  0  0  0
    3.4044    6.3230   18.2202 C   0  0  0  0  0  0  0  0  0  0  0  0
    2.6087    5.5890   17.3325 C   0  0  0  0  0  0  0  0  0  0  0  0
    2.8578    4.2382   17.2338 C   0  0  0  0  0  0  0  0  0  0  0  0
    3.8293    3.5998   17.9519 C   0  0  0  0  0  0  0  0  0  0  0  0
    4.6095    4.3278   18.8242 C   0  0  0  0  0  0  0  0  0  0  0  0
    4.3753    5.6775   18.9359 C   0  0  0  0  0  0  0  0  0  0  0  0
    5.0011    6.6146   19.7197 C   0  0  0  0  0  0  0  0  0  0  0  0
    6.1077    6.5806   20.7022 C   0  0  0  0  0  0  0  0  0  0  0  0
    7.4436    6.6048   22.6672 H   0  0  0  0  0  0  0  0  0  0  0  0
    6.6240    7.7263   23.7212 H   0  0  0  0  0  0  0  0  0  0  0  0
    2.7910    8.3243   18.1475 H   0  0  0  0  0  0  0  0  0  0  0  0
    4.1004    1.8806   17.7851 S   0  0  0  0  0  0  0  0  0  0  0  0
    5.4651    1.6677   17.2237 O   0  0  0  0  0  0  0  0  0  0  0  0
    3.0810    1.3258   16.8342 O   0  0  0  0  0  0  0  0  0  0  0  0
    3.9305    1.1663   19.3730 C   0  0  0  0  0  0  0  0  0  0  0  0
    4.8260    1.4914   20.3614 C   0  0  0  0  0  0  0  0  0  0  0  0
    4.7686    0.9761   21.6430 C   0  0  0  0  0  0  0  0  0  0  0  0
    3.7442    0.0882   21.9155 C   0  0  0  0  0  0  0  0  0  0  0  0
    2.8253   -0.2584   20.9369 C   0  0  0  0  0  0  0  0  0  0  0  0
    2.9266    0.2820   19.6785 C   0  0  0  0  0  0  0  0  0  0  0  0
  1  2  1  0  0  0
  2  3  1  0  0  0
  3  4  1  0  0  0
  4  5  1  0  0  0
  5  6  1  0  0  0
  6  7  1  0  0  0
  7  8  2  0  0  0
  8  9  1  0  0  0
  9 10  2  0  0  0
 10 18  1  0  0  0
 18 19  2  0  0  0
 18 20  2  0  0  0
 18 21  1  0  0  0
 21 22  2  0  0  0
 22 23  1  0  0  0
 23 24  2  0  0  0
 24 25  1  0  0  0
 25 26  2  0  0  0
 10 11  1  0  0  0
 11 12  2  0  0  0
 12 13  1  0  0  0
 13 14  1  0  0  0
 14  2  1  0  0  0
 13  5  2  0  0  0
 12  7  1  0  0  0
 26 21  1  0  0  0
  1 15  1  0  0  0
  1 16  1  0  0  0
  6 17  1  0  0  0
M  END
> <minimizedAffinity>
-7.73514

> <CNNscore>
0.3714969158

> <CNNaffinity>
5.7965631485

> <CNN_VS>
2.1534054279

> <CNNaffinity_variance>
0.0448022000

$$$$
[H]c1c([H])c([H])c(S(=O)(=O)c2c([H])c([H])c3c(c2[H])c2c(n3[H])C([H])([H])C([H])([H])C([H])(N([H])[H])C2([H])[H])c([H])c1[H]


 26 29  0  0  0  0  0  0  0  0999 V2000
    3.5611    3.0995   14.3904 N   0  0  0  0  0  0  0  0  0  0  0  0
    3.2182    2.5730   15.7091 C   0  0  0  0  0  0  0  0  0  0  0  0
    2.7298    1.1796   15.5475 C   0  0  0  0  0  0  0  0  0  0  0  0
    3.0814    0.2422   16.6573 C   0  0  0  0  0  0  0  0  0  0  0  0
    3.4878    0.9037   17.9089 C   0  0  0  0  0  0  0  0  0  0  0  0
    3.3475    0.5322   19.1816 N   0  0  0  0  0  0  0  0  0  0  0  0
    3.8711    1.4506   19.9902 C   0  0  0  0  0  0  0  0  0  0  0  0
    3.9870    1.5519   21.3816 C   0  0  0  0  0  0  0  0  0  0  0  0
    4.6060    2.6761   21.8813 C   0  0  0  0  0  0  0  0  0  0  0  0
    5.1006    3.6746   21.0905 C   0  0  0  0  0  0  0  0  0  0  0  0
    4.9834    3.5691   19.7213 C   0  0  0  0  0  0  0  0  0  0  0  0
    4.3685    2.4540   19.2044 C   0  0  0  0  0  0  0  0  0  0  0  0
    4.1282    2.1111   17.8973 C   0  0  0  0  0  0  0  0  0  0  0  0
    4.4045    2.7413   16.5867 C   0  0  0  0  0  0  0  0  0  0  0  0
    4.2635    3.8463   14.4877 H   0  0  0  0  0  0  0  0  0  0  0  0
    2.7128    3.3586   13.8571 H   0  0  0  0  0  0  0  0  0  0  0  0
    2.8962   -0.3486   19.5439 H   0  0  0  0  0  0  0  0  0  0  0  0
    5.8774    5.0801   21.7817 S   0  0  0  0  0  0  0  0  0  0  0  0
    7.2705    4.7120   22.1649 O   0  0  0  0  0  0  0  0  0  0  0  0
    5.1180    5.4915   23.0086 O   0  0  0  0  0  0  0  0  0  0  0  0
    5.8469    6.3442   20.5726 C   0  0  0  0  0  0  0  0  0  0  0  0
    4.7155    7.1060   20.4174 C   0  0  0  0  0  0  0  0  0  0  0  0
    4.6022    8.1242   19.4891 C   0  0  0  0  0  0  0  0  0  0  0  0
    5.7028    8.3659   18.6876 C   0  0  0  0  0  0  0  0  0  0  0  0
    6.8588    7.6125   18.8221 C   0  0  0  0  0  0  0  0  0  0  0  0
    6.9201    6.6116   19.7604 C   0  0  0  0  0  0  0  0  0  0  0  0
  1  2  1  0  0  0
  2  3  1  0  0  0
  3  4  1  0  0  0
  4  5  1  0  0  0
  5  6  1  0  0  0
  6  7  1  0  0  0
  7  8  2  0  0  0
  8  9  1  0  0  0
  9 10  2  0  0  0
 10 18  1  0  0  0
 18 19  2  0  0  0
 18 20  2  0  0  0
 18 21  1  0  0  0
 21 22  2  0  0  0
 22 23  1  0  0  0
 23 24  2  0  0  0
 24 25  1  0  0  0
 25 26  2  0  0  0
 10 11  1  0  0  0
 11 12  2  0  0  0
 12 13  1  0  0  0
 13 14  1  0  0  0
 14  2  1  0  0  0
 13  5  2  0  0  0
 12  7  1  0  0  0
 26 21  1  0  0  0
  1 15  1  0  0  0
  1 16  1  0  0  0
  6 17  1  0  0  0
M  END
> <minimizedAffinity>
-8.55125

> <CNNscore>
0.3122463524

> <CNNaffinity>
5.5226936340

> <CNN_VS>
1.7244409323

> <CNNaffinity_variance>
0.6282471418

$$$$
[H]c1c([H])c([H])c(S(=O)(=O)c2c([H])c([H])c3c(c2[H])c2c(n3[H])C([H])([H])C([H])([H])C([H])(N([H])[H])C2([H])[H])c([H])c1[H]


 26 29  0  0  0  0  0  0  0  0999 V2000
    2.6078   -0.1367   17.4936 N   0  0  0  0  0  0  0  0  0  0  0  0
    3.4683    0.9566   17.0485 C   0  0  0  0  0  0  0  0  0  0  0  0
    3.2242    1.1892   15.6020 C   0  0  0  0  0  0  0  0  0  0  0  0
    3.3190    2.6121   15.1545 C   0  0  0  0  0  0  0  0  0  0  0  0
    4.0266    3.5006   16.0922 C   0  0  0  0  0  0  0  0  0  0  0  0
    4.7699    4.5864   15.8782 N   0  0  0  0  0  0  0  0  0  0  0  0
    5.2152    5.0751   17.0334 C   0  0  0  0  0  0  0  0  0  0  0  0
    6.0161    6.1737   17.3670 C   0  0  0  0  0  0  0  0  0  0  0  0
    6.2782    6.3786   18.7034 C   0  0  0  0  0  0  0  0  0  0  0  0
    5.7983    5.5701   19.6949 C   0  0  0  0  0  0  0  0  0  0  0  0
    5.0104    4.4900   19.3601 C   0  0  0  0  0  0  0  0  0  0  0  0
    4.7381    4.2697   18.0311 C   0  0  0  0  0  0  0  0  0  0  0  0
    3.9915    3.2808   17.4407 C   0  0  0  0  0  0  0  0  0  0  0  0
    3.2198    2.1197   17.9381 C   0  0  0  0  0  0  0  0  0  0  0  0
    2.4322   -0.0495   18.5046 H   0  0  0  0  0  0  0  0  0  0  0  0
    2.9769   -1.0538   17.1874 H   0  0  0  0  0  0  0  0  0  0  0  0
    4.9997    5.0307   14.9505 H   0  0  0  0  0  0  0  0  0  0  0  0
    6.1645    5.8796   21.3762 S   0  0  0  0  0  0  0  0  0  0  0  0
    5.5341    7.1725   21.7689 O   0  0  0  0  0  0  0  0  0  0  0  0
    7.6531    5.9870   21.5297 O   0  0  0  0  0  0  0  0  0  0  0  0
    5.5337    4.5386   22.3059 C   0  0  0  0  0  0  0  0  0  0  0  0
    6.2683    3.3838   22.4134 C   0  0  0  0  0  0  0  0  0  0  0  0
    5.8490    2.2760   23.1261 C   0  0  0  0  0  0  0  0  0  0  0  0
    4.6202    2.3638   23.7541 C   0  0  0  0  0  0  0  0  0  0  0  0
    3.8566    3.5174   23.6630 C   0  0  0  0  0  0  0  0  0  0  0  0
    4.3189    4.5909   22.9419 C   0  0  0  0  0  0  0  0  0  0  0  0
  1  2  1  0  0  0
  2  3  1  0  0  0
  3  4  1  0  0  0
  4  5  1  0  0  0
  5  6  1  0  0  0
  6  7  1  0  0  0
  7  8  2  0  0  0
  8  9  1  0  0  0
  9 10  2  0  0  0
 10 18  1  0  0  0
 18 19  2  0  0  0
 18 20  2  0  0  0
 18 21  1  0  0  0
 21 22  2  0  0  0
 22 23  1  0  0  0
 23 24  2  0  0  0
 24 25  1  0  0  0
 25 26  2  0  0  0
 10 11  1  0  0  0
 11 12  2  0  0  0
 12 13  1  0  0  0
 13 14  1  0  0  0
 14  2  1  0  0  0
 13  5  2  0  0  0
 12  7  1  0  0  0
 26 21  1  0  0  0
  1 15  1  0  0  0
  1 16  1  0  0  0
  6 17  1  0  0  0
M  END
> <minimizedAffinity>
-8.66601

> <CNNscore>
0.2705368698

> <CNNaffinity>
5.7554750443

> <CNN_VS>
1.5570682287

> <CNNaffinity_variance>
0.4548432231

$$$$
[H]c1c([H])c([H])c(S(=O)(=O)c2c([H])c([H])c3c(c2[H])c2c(n3[H])C([H])([H])C([H])([H])C([H])(N([H])[H])C2([H])[H])c([H])c1[H]


 26 29  0  0  0  0  0  0  0  0999 V2000
    2.4497   -1.0553   18.5378 N   0  0  0  0  0  0  0  0  0  0  0  0
    2.7745    0.3662   18.6270 C   0  0  0  0  0  0  0  0  0  0  0  0
    3.5587    0.5932   19.8678 C   0  0  0  0  0  0  0  0  0  0  0  0
    4.6117    1.6503   19.7786 C   0  0  0  0  0  0  0  0  0  0  0  0
    4.4521    2.5760   18.6442 C   0  0  0  0  0  0  0  0  0  0  0  0
    4.7742    3.8629   18.5119 N   0  0  0  0  0  0  0  0  0  0  0  0
    4.4439    4.2982   17.2982 C   0  0  0  0  0  0  0  0  0  0  0  0
    4.5609    5.5371   16.6570 C   0  0  0  0  0  0  0  0  0  0  0  0
    4.0988    5.6218   15.3624 C   0  0  0  0  0  0  0  0  0  0  0  0
    3.5429    4.5678   14.6936 C   0  0  0  0  0  0  0  0  0  0  0  0
    3.4305    3.3507   15.3303 C   0  0  0  0  0  0  0  0  0  0  0  0
    3.8864    3.2473   16.6227 C   0  0  0  0  0  0  0  0  0  0  0  0
    3.8913    2.1654   17.4674 C   0  0  0  0  0  0  0  0  0  0  0  0
    3.4452    0.7580   17.3611 C   0  0  0  0  0  0  0  0  0  0  0  0
    2.2993   -1.3149   17.5527 H   0  0  0  0  0  0  0  0  0  0  0  0
    1.6801   -1.3059   19.1827 H   0  0  0  0  0  0  0  0  0  0  0  0
    5.2251    4.4860   19.2324 H   0  0  0  0  0  0  0  0  0  0  0  0
    2.9731    4.7345   13.0491 S   0  0  0  0  0  0  0  0  0  0  0  0
    3.1257    3.4219   12.3587 O   0  0  0  0  0  0  0  0  0  0  0  0
    3.8158    5.7620   12.3527 O   0  0  0  0  0  0  0  0  0  0  0  0
    1.3002    5.2412   13.1225 C   0  0  0  0  0  0  0  0  0  0  0  0
    0.9538    6.3252   13.8903 C   0  0  0  0  0  0  0  0  0  0  0  0
   -0.3410    6.7954   14.0071 C   0  0  0  0  0  0  0  0  0  0  0  0
   -1.3190    6.1183   13.3019 C   0  0  0  0  0  0  0  0  0  0  0  0
   -0.9984    5.0203   12.5185 C   0  0  0  0  0  0  0  0  0  0  0  0
    0.3042    4.5931   12.4362 C   0  0  0  0  0  0  0  0  0  0  0  0
  1  2  1  0  0  0
  2  3  1  0  0  0
  3  4  1  0  0  0
  4  5  1  0  0  0
  5  6  1  0  0  0
  6  7  1  0  0  0
  7  8  2  0  0  0
  8  9  1  0  0  0
  9 10  2  0  0  0
 10 18  1  0  0  0
 18 19  2  0  0  0
 18 20  2  0  0  0
 18 21  1  0  0  0
 21 22  2  0  0  0
 22 23  1  0  0  0
 23 24  2  0  0  0
 24 25  1  0  0  0
 25 26  2  0  0  0
 10 11  1  0  0  0
 11 12  2  0  0  0
 12 13  1  0  0  0
 13 14  1  0  0  0
 14  2  1  0  0  0
 13  5  2  0  0  0
 12  7  1  0  0  0
 26 21  1  0  0  0
  1 15  1  0  0  0
  1 16  1  0  0  0
  6 17  1  0  0  0
M  END
> <minimizedAffinity>
-7.35932

> <CNNscore>
0.2212394625

> <CNNaffinity>
5.5320558548

> <CNN_VS>
1.2239090204

> <CNNaffinity_variance>
0.3563827574

$$$$
[H]c1c([H])c([H])c(S(=O)(=O)c2c([H])c([H])c3c(c2[H])c2c(n3[H])C([H])([H])C([H])([H])C([H])(N([H])[H])C2([H])[H])c([H])c1[H]


 26 29  0  0  0  0  0  0  0  0999 V2000
    2.9304   -0.6666   20.6568 N   0  0  0  0  0  0  0  0  0  0  0  0
    3.2814    0.7002   20.2793 C   0  0  0  0  0  0  0  0  0  0  0  0
    4.3113    1.2005   21.2255 C   0  0  0  0  0  0  0  0  0  0  0  0
    5.3329    2.1193   20.6371 C   0  0  0  0  0  0  0  0  0  0  0  0
    4.9480    2.7120   19.3448 C   0  0  0  0  0  0  0  0  0  0  0  0
    5.2484    3.8898   18.7972 N   0  0  0  0  0  0  0  0  0  0  0  0
    4.6749    4.0018   17.6014 C   0  0  0  0  0  0  0  0  0  0  0  0
    4.6673    5.0099   16.6300 C   0  0  0  0  0  0  0  0  0  0  0  0
    3.9443    4.7723   15.4822 C   0  0  0  0  0  0  0  0  0  0  0  0
    3.2493    3.6172   15.2587 C   0  0  0  0  0  0  0  0  0  0  0  0
    3.2606    2.6285   16.2188 C   0  0  0  0  0  0  0  0  0  0  0  0
    3.9769    2.8480   17.3711 C   0  0  0  0  0  0  0  0  0  0  0  0
    4.1481    2.0375   18.4655 C   0  0  0  0  0  0  0  0  0  0  0  0
    3.6750    0.6878   18.8472 C   0  0  0  0  0  0  0  0  0  0  0  0
    2.5735   -1.1723   19.8337 H   0  0  0  0  0  0  0  0  0  0  0  0
    2.3109   -0.6801   21.4857 H   0  0  0  0  0  0  0  0  0  0  0  0
    5.8471    4.6524   19.2105 H   0  0  0  0  0  0  0  0  0  0  0  0
    2.3482    3.3710   13.7808 S   0  0  0  0  0  0  0  0  0  0  0  0
    1.3152    2.3237   14.0237 O   0  0  0  0  0  0  0  0  0  0  0  0
    3.2942    2.8970   12.7171 O   0  0  0  0  0  0  0  0  0  0  0  0
    1.6300    4.9049   13.3426 C   0  0  0  0  0  0  0  0  0  0  0  0
    0.9041    5.6040   14.2748 C   0  0  0  0  0  0  0  0  0  0  0  0
    0.3023    6.8216   14.0170 C   0  0  0  0  0  0  0  0  0  0  0  0
    0.4562    7.3391   12.7440 C   0  0  0  0  0  0  0  0  0  0  0  0
    1.1839    6.6552   11.7823 C   0  0  0  0  0  0  0  0  0  0  0  0
    1.7623    5.4482   12.0894 C   0  0  0  0  0  0  0  0  0  0  0  0
  1  2  1  0  0  0
  2  3  1  0  0  0
  3  4  1  0  0  0
  4  5  1  0  0  0
  5  6  1  0  0  0
  6  7  1  0  0  0
  7  8  2  0  0  0
  8  9  1  0  0  0
  9 10  2  0  0  0
 10 18  1  0  0  0
 18 19  2  0  0  0
 18 20  2  0  0  0
 18 21  1  0  0  0
 21 22  2  0  0  0
 22 23  1  0  0  0
 23 24  2  0  0  0
 24 25  1  0  0  0
 25 26  2  0  0  0
 10 11  1  0  0  0
 11 12  2  0  0  0
 12 13  1  0  0  0
 13 14  1  0  0  0
 14  2  1  0  0  0
 13  5  2  0  0  0
 12  7  1  0  0  0
 26 21  1  0  0  0
  1 15  1  0  0  0
  1 16  1  0  0  0
  6 17  1  0  0  0
M  END
> <minimizedAffinity>
-7.09349

> <CNNscore>
0.2176056206

> <CNNaffinity>
5.6019291878

> <CNN_VS>
1.2190113068

> <CNNaffinity_variance>
0.2484966218

$$$$
[H]c1c([H])c([H])c(S(=O)(=O)c2c([H])c([H])c3c(c2[H])c2c(n3[H])C([H])([H])C([H])([H])C([H])(N([H])[H])C2([H])[H])c([H])c1[H]


 26 29  0  0  0  0  0  0  0  0999 V2000
    3.4996   -0.2416   21.5756 N   0  0  0  0  0  0  0  0  0  0  0  0
    3.4763    1.2171   21.6512 C   0  0  0  0  0  0  0  0  0  0  0  0
    4.1235    1.6333   22.9217 C   0  0  0  0  0  0  0  0  0  0  0  0
    4.9015    2.9080   22.8595 C   0  0  0  0  0  0  0  0  0  0  0  0
    4.5846    3.7602   21.7008 C   0  0  0  0  0  0  0  0  0  0  0  0
    4.6012    5.0856   21.5577 N   0  0  0  0  0  0  0  0  0  0  0  0
    4.2376    5.4203   20.3218 C   0  0  0  0  0  0  0  0  0  0  0  0
    4.0913    6.6463   19.6621 C   0  0  0  0  0  0  0  0  0  0  0  0
    3.6863    6.6085   18.3464 C   0  0  0  0  0  0  0  0  0  0  0  0
    3.4271    5.4475   17.6741 C   0  0  0  0  0  0  0  0  0  0  0  0
    3.5730    4.2437   18.3290 C   0  0  0  0  0  0  0  0  0  0  0  0
    3.9766    4.2618   19.6427 C   0  0  0  0  0  0  0  0  0  0  0  0
    4.1943    3.2189   20.5081 C   0  0  0  0  0  0  0  0  0  0  0  0
    4.0973    1.7451   20.4096 C   0  0  0  0  0  0  0  0  0  0  0  0
    3.4628   -0.5378   20.5899 H   0  0  0  0  0  0  0  0  0  0  0  0
    2.7798   -0.6611   22.1895 H   0  0  0  0  0  0  0  0  0  0  0  0
    4.8571    5.8036   22.2855 H   0  0  0  0  0  0  0  0  0  0  0  0
    2.9153    5.4609   16.0023 S   0  0  0  0  0  0  0  0  0  0  0  0
    3.8693    6.2987   15.2207 O   0  0  0  0  0  0  0  0  0  0  0  0
    1.5452    6.0678   15.9265 O   0  0  0  0  0  0  0  0  0  0  0  0
    2.8977    3.8025   15.4458 C   0  0  0  0  0  0  0  0  0  0  0  0
    2.4339    2.8136   16.2775 C   0  0  0  0  0  0  0  0  0  0  0  0
    2.3837    1.4786   15.9221 C   0  0  0  0  0  0  0  0  0  0  0  0
    2.8310    1.1506   14.6555 C   0  0  0  0  0  0  0  0  0  0  0  0
    3.3048    2.1282   13.7941 C   0  0  0  0  0  0  0  0  0  0  0  0
    3.3338    3.4410   14.1959 C   0  0  0  0  0  0  0  0  0  0  0  0
  1  2  1  0  0  0
  2  3  1  0  0  0
  3  4  1  0  0  0
  4  5  1  0  0  0
  5  6  1  0  0  0
  6  7  1  0  0  0
  7  8  2  0  0  0
  8  9  1  0  0  0
  9 10  2  0  0  0
 10 18  1  0  0  0
 18 19  2  0  0  0
 18 20  2  0  0  0
 18 21  1  0  0  0
 21 22  2  0  0  0
 22 23  1  0  0  0
 23 24  2  0  0  0
 24 25  1  0  0  0
 25 26  2  0  0  0
 10 11  1  0  0  0
 11 12  2  0  0  0
 12 13  1  0  0  0
 13 14  1  0  0  0
 14  2  1  0  0  0
 13  5  2  0  0  0
 12  7  1  0  0  0
 26 21  1  0  0  0
  1 15  1  0  0  0
  1 16  1  0  0  0
  6 17  1  0  0  0
M  END
> <minimizedAffinity>
-7.39010

> <CNNscore>
0.2056782842

> <CNNaffinity>
6.0170006752

> <CNN_VS>
1.2375663519

> <CNNaffinity_variance>
0.5268430114

$$$$
[H]c1c([H])c([H])c(S(=O)(=O)c2c([H])c([H])c3c(c2[H])c2c(n3[H])C([H])([H])C([H])([H])C([H])(N([H])[H])C2([H])[H])c([H])c1[H]


 26 29  0  0  0  0  0  0  0  0999 V2000
    4.1188    7.3600   20.2884 N   0  0  0  0  0  0  0  0  0  0  0  0
    4.4502    6.0739   19.6802 C   0  0  0  0  0  0  0  0  0  0  0  0
    4.9298    5.1581   20.7467 C   0  0  0  0  0  0  0  0  0  0  0  0
    4.5650    3.7193   20.5708 C   0  0  0  0  0  0  0  0  0  0  0  0
    4.1560    3.3565   19.2032 C   0  0  0  0  0  0  0  0  0  0  0  0
    4.2862    2.2172   18.5232 N   0  0  0  0  0  0  0  0  0  0  0  0
    3.7642    2.3451   17.3055 C   0  0  0  0  0  0  0  0  0  0  0  0
    3.6408    1.4739   16.2166 C   0  0  0  0  0  0  0  0  0  0  0  0
    3.0267    1.9636   15.0854 C   0  0  0  0  0  0  0  0  0  0  0  0
    2.5438    3.2379   14.9856 C   0  0  0  0  0  0  0  0  0  0  0  0
    2.6683    4.0909   16.0609 C   0  0  0  0  0  0  0  0  0  0  0  0
    3.2785    3.6196   17.1987 C   0  0  0  0  0  0  0  0  0  0  0  0
    3.5241    4.2552   18.3901 C   0  0  0  0  0  0  0  0  0  0  0  0
    3.2599    5.6112   18.9219 C   0  0  0  0  0  0  0  0  0  0  0  0
    3.4211    7.8476   19.7087 H   0  0  0  0  0  0  0  0  0  0  0  0
    4.9721    7.9048   20.5034 H   0  0  0  0  0  0  0  0  0  0  0  0
    4.7291    1.3210   18.8569 H   0  0  0  0  0  0  0  0  0  0  0  0
    1.7728    3.8049   13.5224 S   0  0  0  0  0  0  0  0  0  0  0  0
    1.2417    5.1765   13.7668 O   0  0  0  0  0  0  0  0  0  0  0  0
    0.6348    2.8840   13.1936 O   0  0  0  0  0  0  0  0  0  0  0  0
    2.9780    3.7894   12.2545 C   0  0  0  0  0  0  0  0  0  0  0  0
    4.1020    4.5678   12.3786 C   0  0  0  0  0  0  0  0  0  0  0  0
    5.1044    4.6181   11.4280 C   0  0  0  0  0  0  0  0  0  0  0  0
    4.9398    3.8321   10.3023 C   0  0  0  0  0  0  0  0  0  0  0  0
    3.8150    3.0360   10.1500 C   0  0  0  0  0  0  0  0  0  0  0  0
    2.8474    3.0220   11.1244 C   0  0  0  0  0  0  0  0  0  0  0  0
  1  2  1  0  0  0
  2  3  1  0  0  0
  3  4  1  0  0  0
  4  5  1  0  0  0
  5  6  1  0  0  0
  6  7  1  0  0  0
  7  8  2  0  0  0
  8  9  1  0  0  0
  9 10  2  0  0  0
 10 18  1  0  0  0
 18 19  2  0  0  0
 18 20  2  0  0  0
 18 21  1  0  0  0
 21 22  2  0  0  0
 22 23  1  0  0  0
 23 24  2  0  0  0
 24 25  1  0  0  0
 25 26  2  0  0  0
 10 11  1  0  0  0
 11 12  2  0  0  0
 12 13  1  0  0  0
 13 14  1  0  0  0
 14  2  1  0  0  0
 13  5  2  0  0  0
 12  7  1  0  0  0
 26 21  1  0  0  0
  1 15  1  0  0  0
  1 16  1  0  0  0
  6 17  1  0  0  0
M  END
> <minimizedAffinity>
-7.40476

> <CNNscore>
0.1963550448

> <CNNaffinity>
5.5471086502

> <CNN_VS>
1.0892027617

> <CNNaffinity_variance>
0.3276654482

$$$$
[H]c1c([H])c(OC([H])([H])[H])c2c(c1[H])[C@]([H])(C([H])([H])N(C([H])([H])[H])C([H])([H])C([H])([H])c1c([H])c([H])c3c(c1[H])C([H])([H])N(S(=O)(=O)C([H])([H])[H])C3([H])[H])C([H])([H])C([H])([H])C2([H])[H]


 30 33  0  0  0  0  0  0  0  0999 V2000
    4.0522    0.9587   20.0655 N   0  0  0  0  0  0  0  0  0  0  0  0
    3.3763    0.0867   20.9210 C   0  0  0  0  0  0  0  0  0  0  0  0
    5.2291    1.5863   20.4294 C   0  0  0  0  0  0  0  0  0  0  0  0
    5.0542    6.4586   20.9676 C   0  0  0  0  0  0  0  0  0  0  0  0
    5.3028    6.6095   19.6096 C   0  0  0  0  0  0  0  0  0  0  0  0
    5.4615    5.4562   18.8379 C   0  0  0  0  0  0  0  0  0  0  0  0
    5.3795    4.1813   19.3759 C   0  0  0  0  0  0  0  0  0  0  0  0
    5.1322    4.0329   20.7295 C   0  0  0  0  0  0  0  0  0  0  0  0
    4.9798    5.1779   21.4653 C   0  0  0  0  0  0  0  0  0  0  0  0
    4.6838    4.9331   22.9263 C   0  0  0  0  0  0  0  0  0  0  0  0
    3.5210    3.9502   22.9537 C   0  0  0  0  0  0  0  0  0  0  0  0
    3.9092    2.6332   22.3225 C   0  0  0  0  0  0  0  0  0  0  0  0
    5.0642    2.7185   21.3985 C   0  0  0  0  0  0  0  0  0  0  0  0
    5.0275    8.8877   21.3845 C   0  0  0  0  0  0  0  0  0  0  0  0
    4.8804    7.5545   21.8281 O   0  0  0  0  0  0  0  0  0  0  0  0
    3.4378    1.3193   18.8419 C   0  0  0  0  0  0  0  0  0  0  0  0
    4.1953    1.0452   17.5859 C   0  0  0  0  0  0  0  0  0  0  0  0
    3.7111    1.9285   16.4631 C   0  0  0  0  0  0  0  0  0  0  0  0
    4.1485    3.2153   16.2619 C   0  0  0  0  0  0  0  0  0  0  0  0
    3.6819    4.0084   15.2415 C   0  0  0  0  0  0  0  0  0  0  0  0
    2.7255    3.5332   14.3478 C   0  0  0  0  0  0  0  0  0  0  0  0
    2.2852    2.2586   14.5388 C   0  0  0  0  0  0  0  0  0  0  0  0
    2.7630    1.4509   15.5803 C   0  0  0  0  0  0  0  0  0  0  0  0
    1.2702    1.9328   13.5015 C   0  0  0  0  0  0  0  0  0  0  0  0
    1.3126    3.0444   12.6066 N   0  0  0  0  0  0  0  0  0  0  0  0
    2.0465    4.1214   13.1805 C   0  0  0  0  0  0  0  0  0  0  0  0
    2.0442    2.6429   11.0947 S   0  0  0  0  0  0  0  0  0  0  0  0
    3.0880    3.9472   10.5088 C   0  0  0  0  0  0  0  0  0  0  0  0
    2.8289    1.3790   11.2994 O   0  0  0  0  0  0  0  0  0  0  0  0
    0.9630    2.3041   10.0932 O   0  0  0  0  0  0  0  0  0  0  0  0
 14 15  1  0  0  0
 15  4  1  0  0  0
  4  5  2  0  0  0
  5  6  1  0  0  0
  6  7  2  0  0  0
  7  8  1  0  0  0
  8  9  2  0  0  0
  9 10  1  0  0  0
 10 11  1  0  0  0
 11 12  1  0  0  0
 12 13  1  0  0  0
 13  3  1  0  0  0
  3  1  1  0  0  0
  1  2  1  0  0  0
  1 16  1  0  0  0
 16 17  1  0  0  0
 17 18  1  0  0  0
 18 19  2  0  0  0
 19 20  1  0  0  0
 20 21  2  0  0  0
 21 22  1  0  0  0
 22 23  2  0  0  0
 22 24  1  0  0  0
 24 25  1  0  0  0
 25 27  1  0  0  0
 27 28  1  0  0  0
 27 29  2  0  0  0
 27 30  2  0  0  0
 25 26  1  0  0  0
  9  4  1  0  0  0
 23 18  1  0  0  0
 13  8  1  0  0  0
 26 21  1  0  0  0
M  END
> <minimizedAffinity>
-8.14028

> <CNNscore>
0.2778927088

> <CNNaffinity>
6.1553373337

> <CNN_VS>
1.7105233669

> <CNNaffinity_variance>
0.3476671875

$$$$
[H]c1c([H])c(OC([H])([H])[H])c2c(c1[H])[C@]([H])(C([H])([H])N(C([H])([H])[H])C([H])([H])C([H])([H])c1c([H])c([H])c3c(c1[H])C([H])([H])N(S(=O)(=O)C([H])([H])[H])C3([H])[H])C([H])([H])C([H])([H])C2([H])[H]


 30 33  0  0  0  0  0  0  0  0999 V2000
    5.1568    2.8196   23.1696 N   0  0  0  0  0  0  0  0  0  0  0  0
    5.4049    2.0602   24.3146 C   0  0  0  0  0  0  0  0  0  0  0  0
    5.5704    2.4181   21.9129 C   0  0  0  0  0  0  0  0  0  0  0  0
    3.5431    1.7625   17.4948 C   0  0  0  0  0  0  0  0  0  0  0  0
    4.3588    2.7623   16.9810 C   0  0  0  0  0  0  0  0  0  0  0  0
    5.2514    3.3941   17.8498 C   0  0  0  0  0  0  0  0  0  0  0  0
    5.3494    3.0601   19.1916 C   0  0  0  0  0  0  0  0  0  0  0  0
    4.5355    2.0639   19.7019 C   0  0  0  0  0  0  0  0  0  0  0  0
    3.6689    1.4587   18.8310 C   0  0  0  0  0  0  0  0  0  0  0  0
    2.8368    0.3636   19.4556 C   0  0  0  0  0  0  0  0  0  0  0  0
    3.8237   -0.5480   20.1726 C   0  0  0  0  0  0  0  0  0  0  0  0
    4.5397    0.1916   21.2789 C   0  0  0  0  0  0  0  0  0  0  0  0
    4.5420    1.6649   21.1234 C   0  0  0  0  0  0  0  0  0  0  0  0
    2.4267    1.3601   15.3347 C   0  0  0  0  0  0  0  0  0  0  0  0
    2.6134    1.0681   16.7042 O   0  0  0  0  0  0  0  0  0  0  0  0
    4.5882    4.1074   23.3207 C   0  0  0  0  0  0  0  0  0  0  0  0
    3.5823    4.5376   22.3061 C   0  0  0  0  0  0  0  0  0  0  0  0
    4.0687    5.7467   21.5467 C   0  0  0  0  0  0  0  0  0  0  0  0
    4.8427    6.7363   22.1028 C   0  0  0  0  0  0  0  0  0  0  0  0
    5.2618    7.8379   21.3966 C   0  0  0  0  0  0  0  0  0  0  0  0
    4.9134    8.0034   20.0585 C   0  0  0  0  0  0  0  0  0  0  0  0
    4.1461    7.0278   19.4978 C   0  0  0  0  0  0  0  0  0  0  0  0
    3.7200    5.9043   20.2201 C   0  0  0  0  0  0  0  0  0  0  0  0
    3.8715    7.3785   18.0787 C   0  0  0  0  0  0  0  0  0  0  0  0
    4.6937    8.5197   17.8332 N   0  0  0  0  0  0  0  0  0  0  0  0
    5.2009    9.0438   19.0562 C   0  0  0  0  0  0  0  0  0  0  0  0
    6.0354    8.1544   16.8092 S   0  0  0  0  0  0  0  0  0  0  0  0
    7.4352    9.1726   17.1807 C   0  0  0  0  0  0  0  0  0  0  0  0
    6.3627    6.7016   17.0024 O   0  0  0  0  0  0  0  0  0  0  0  0
    5.6122    8.2973   15.3645 O   0  0  0  0  0  0  0  0  0  0  0  0
 14 15  1  0  0  0
 15  4  1  0  0  0
  4  5  2  0  0  0
  5  6  1  0  0  0
  6  7  2  0  0  0
  7  8  1  0  0  0
  8  9  2  0  0  0
  9 10  1  0  0  0
 10 11  1  0  0  0
 11 12  1  0  0  0
 12 13  1  0  0  0
 13  3  1  0  0  0
  3  1  1  0  0  0
  1  2  1  0  0  0
  1 16  1  0  0  0
 16 17  1  0  0  0
 17 18  1  0  0  0
 18 19  2  0  0  0
 19 20  1  0  0  0
 20 21  2  0  0  0
 21 22  1  0  0  0
 22 23  2  0  0  0
 22 24  1  0  0  0
 24 25  1  0  0  0
 25 27  1  0  0  0
 27 28  1  0  0  0
 27 29  2  0  0  0
 27 30  2  0  0  0
 25 26  1  0  0  0
  9  4  1  0  0  0
 23 18  1  0  0  0
 13  8  1  0  0  0
 26 21  1  0  0  0
M  END
> <minimizedAffinity>
-7.34609

> <CNNscore>
0.2581478357

> <CNNaffinity>
6.3932714462

> <CNN_VS>
1.6504092216

> <CNNaffinity_variance>
0.0334571898

$$$$
[H]c1c([H])c(OC([H])([H])[H])c2c(c1[H])[C@]([H])(C([H])([H])N(C([H])([H])[H])C([H])([H])C([H])([H])c1c([H])c([H])c3c(c1[H])C([H])([H])N(S(=O)(=O)C([H])([H])[H])C3([H])[H])C([H])([H])C([H])([H])C2([H])[H]


 30 33  0  0  0  0  0  0  0  0999 V2000
    3.3041    0.9979   16.8515 N   0  0  0  0  0  0  0  0  0  0  0  0
    2.6582   -0.0104   17.5695 C   0  0  0  0  0  0  0  0  0  0  0  0
    4.4609    1.6035   17.3061 C   0  0  0  0  0  0  0  0  0  0  0  0
    4.9778    3.1060   21.9466 C   0  0  0  0  0  0  0  0  0  0  0  0
    5.5006    1.8639   22.2822 C   0  0  0  0  0  0  0  0  0  0  0  0
    5.6173    0.9052   21.2732 C   0  0  0  0  0  0  0  0  0  0  0  0
    5.2337    1.1495   19.9638 C   0  0  0  0  0  0  0  0  0  0  0  0
    4.7125    2.3877   19.6314 C   0  0  0  0  0  0  0  0  0  0  0  0
    4.6082    3.3114   20.6372 C   0  0  0  0  0  0  0  0  0  0  0  0
    4.0588    4.6456   20.1899 C   0  0  0  0  0  0  0  0  0  0  0  0
    4.8909    5.0514   18.9809 C   0  0  0  0  0  0  0  0  0  0  0  0
    4.7189    4.0654   17.8487 C   0  0  0  0  0  0  0  0  0  0  0  0
    4.2432    2.7282   18.2736 C   0  0  0  0  0  0  0  0  0  0  0  0
    3.7065    4.1953   23.7555 C   0  0  0  0  0  0  0  0  0  0  0  0
    4.8197    4.1361   22.8877 O   0  0  0  0  0  0  0  0  0  0  0  0
    2.6762    1.5123   15.6915 C   0  0  0  0  0  0  0  0  0  0  0  0
    3.4709    2.4393   14.8339 C   0  0  0  0  0  0  0  0  0  0  0  0
    2.7327    2.7554   13.5571 C   0  0  0  0  0  0  0  0  0  0  0  0
    1.8499    1.8934   12.9528 C   0  0  0  0  0  0  0  0  0  0  0  0
    1.2000    2.1955   11.7806 C   0  0  0  0  0  0  0  0  0  0  0  0
    1.4116    3.4138   11.1401 C   0  0  0  0  0  0  0  0  0  0  0  0
    2.2851    4.2754   11.7311 C   0  0  0  0  0  0  0  0  0  0  0  0
    2.9468    3.9655   12.9275 C   0  0  0  0  0  0  0  0  0  0  0  0
    2.3871    5.5088   10.9059 C   0  0  0  0  0  0  0  0  0  0  0  0
    1.3698    5.3546    9.9160 N   0  0  0  0  0  0  0  0  0  0  0  0
    0.8783    4.0182    9.9072 C   0  0  0  0  0  0  0  0  0  0  0  0
    0.0327    6.4158   10.1775 S   0  0  0  0  0  0  0  0  0  0  0  0
   -1.4214    5.5266   10.6559 C   0  0  0  0  0  0  0  0  0  0  0  0
    0.4389    7.3925   11.2435 O   0  0  0  0  0  0  0  0  0  0  0  0
   -0.2031    7.2361    8.9293 O   0  0  0  0  0  0  0  0  0  0  0  0
 14 15  1  0  0  0
 15  4  1  0  0  0
  4  5  2  0  0  0
  5  6  1  0  0  0
  6  7  2  0  0  0
  7  8  1  0  0  0
  8  9  2  0  0  0
  9 10  1  0  0  0
 10 11  1  0  0  0
 11 12  1  0  0  0
 12 13  1  0  0  0
 13  3  1  0  0  0
  3  1  1  0  0  0
  1  2  1  0  0  0
  1 16  1  0  0  0
 16 17  1  0  0  0
 17 18  1  0  0  0
 18 19  2  0  0  0
 19 20  1  0  0  0
 20 21  2  0  0  0
 21 22  1  0  0  0
 22 23  2  0  0  0
 22 24  1  0  0  0
 24 25  1  0  0  0
 25 27  1  0  0  0
 27 28  1  0  0  0
 27 29  2  0  0  0
 27 30  2  0  0  0
 25 26  1  0  0  0
  9  4  1  0  0  0
 23 18  1  0  0  0
 13  8  1  0  0  0
 26 21  1  0  0  0
M  END
> <minimizedAffinity>
-7.72096

> <CNNscore>
0.2511215210

> <CNNaffinity>
5.8828401566

> <CNN_VS>
1.4773077965

> <CNNaffinity_variance>
0.2640974224

$$$$
[H]c1c([H])c(OC([H])([H])[H])c2c(c1[H])[C@]([H])(C([H])([H])N(C([H])([H])[H])C([H])([H])C([H])([H])c1c([H])c([H])c3c(c1[H])C([H])([H])N(S(=O)(=O)C([H])([H])[H])C3([H])[H])C([H])([H])C([H])([H])C2([H])[H]


 30 33  0  0  0  0  0  0  0  0999 V2000
    4.6074    7.5871   16.3644 N   0  0  0  0  0  0  0  0  0  0  0  0
    4.4972    7.8102   14.9906 C   0  0  0  0  0  0  0  0  0  0  0  0
    5.4556    8.3270   17.1673 C   0  0  0  0  0  0  0  0  0  0  0  0
    7.4934    7.2868   21.5060 C   0  0  0  0  0  0  0  0  0  0  0  0
    8.7080    7.0592   20.8720 C   0  0  0  0  0  0  0  0  0  0  0  0
    8.7654    7.2156   19.4853 C   0  0  0  0  0  0  0  0  0  0  0  0
    7.6638    7.5865   18.7299 C   0  0  0  0  0  0  0  0  0  0  0  0
    6.4543    7.8124   19.3634 C   0  0  0  0  0  0  0  0  0  0  0  0
    6.4226    7.6533   20.7233 C   0  0  0  0  0  0  0  0  0  0  0  0
    5.0768    7.9459   21.3438 C   0  0  0  0  0  0  0  0  0  0  0  0
    4.6640    9.3117   20.8117 C   0  0  0  0  0  0  0  0  0  0  0  0
    4.4960    9.2804   19.3102 C   0  0  0  0  0  0  0  0  0  0  0  0
    5.2192    8.1745   18.6401 C   0  0  0  0  0  0  0  0  0  0  0  0
    7.9759    8.0187   23.8095 C   0  0  0  0  0  0  0  0  0  0  0  0
    7.3323    7.1558   22.8947 O   0  0  0  0  0  0  0  0  0  0  0  0
    3.9343    6.4755   16.9264 C   0  0  0  0  0  0  0  0  0  0  0  0
    4.1652    5.1424   16.2971 C   0  0  0  0  0  0  0  0  0  0  0  0
    4.2802    4.0655   17.3470 C   0  0  0  0  0  0  0  0  0  0  0  0
    4.5029    2.7406   17.0596 C   0  0  0  0  0  0  0  0  0  0  0  0
    4.5883    1.7730   18.0314 C   0  0  0  0  0  0  0  0  0  0  0  0
    4.4502    2.0992   19.3781 C   0  0  0  0  0  0  0  0  0  0  0  0
    4.2290    3.4102   19.6736 C   0  0  0  0  0  0  0  0  0  0  0  0
    4.1427    4.3960   18.6805 C   0  0  0  0  0  0  0  0  0  0  0  0
    4.1015    3.5631   21.1476 C   0  0  0  0  0  0  0  0  0  0  0  0
    4.4542    2.2804   21.6660 N   0  0  0  0  0  0  0  0  0  0  0  0
    4.4932    1.3122   20.6225 C   0  0  0  0  0  0  0  0  0  0  0  0
    5.9942    2.2886   22.4474 S   0  0  0  0  0  0  0  0  0  0  0  0
    6.8154    3.8448   22.2533 C   0  0  0  0  0  0  0  0  0  0  0  0
    5.7606    1.9828   23.8989 O   0  0  0  0  0  0  0  0  0  0  0  0
    6.8303    1.1484   21.9111 O   0  0  0  0  0  0  0  0  0  0  0  0
 14 15  1  0  0  0
 15  4  1  0  0  0
  4  5  2  0  0  0
  5  6  1  0  0  0
  6  7  2  0  0  0
  7  8  1  0  0  0
  8  9  2  0  0  0
  9 10  1  0  0  0
 10 11  1  0  0  0
 11 12  1  0  0  0
 12 13  1  0  0  0
 13  3  1  0  0  0
  3  1  1  0  0  0
  1  2  1  0  0  0
  1 16  1  0  0  0
 16 17  1  0  0  0
 17 18  1  0  0  0
 18 19  2  0  0  0
 19 20  1  0  0  0
 20 21  2  0  0  0
 21 22  1  0  0  0
 22 23  2  0  0  0
 22 24  1  0  0  0
 24 25  1  0  0  0
 25 27  1  0  0  0
 27 28  1  0  0  0
 27 29  2  0  0  0
 27 30  2  0  0  0
 25 26  1  0  0  0
  9  4  1  0  0  0
 23 18  1  0  0  0
 13  8  1  0  0  0
 26 21  1  0  0  0
M  END
> <minimizedAffinity>
-7.98564

> <CNNscore>
0.2394202054

> <CNNaffinity>
6.1847705841

> <CNN_VS>
1.4807590246

> <CNNaffinity_variance>
0.0575200692

$$$$
[H]c1c([H])c(OC([H])([H])[H])c2c(c1[H])[C@]([H])(C([H])([H])N(C([H])([H])[H])C([H])([H])C([H])([H])c1c([H])c([H])c3c(c1[H])C([H])([H])N(S(=O)(=O)C([H])([H])[H])C3([H])[H])C([H])([H])C([H])([H])C2([H])[H]


 30 33  0  0  0  0  0  0  0  0999 V2000
    3.3560    1.2491   17.9899 N   0  0  0  0  0  0  0  0  0  0  0  0
    3.3370   -0.0385   17.4504 C   0  0  0  0  0  0  0  0  0  0  0  0
    3.2631    1.4818   19.3495 C   0  0  0  0  0  0  0  0  0  0  0  0
    6.0805    4.8222   21.5773 C   0  0  0  0  0  0  0  0  0  0  0  0
    5.1167    5.7904   21.3269 C   0  0  0  0  0  0  0  0  0  0  0  0
    3.9567    5.4044   20.6515 C   0  0  0  0  0  0  0  0  0  0  0  0
    3.7378    4.1027   20.2284 C   0  0  0  0  0  0  0  0  0  0  0  0
    4.6995    3.1393   20.4784 C   0  0  0  0  0  0  0  0  0  0  0  0
    5.8279    3.5415   21.1423 C   0  0  0  0  0  0  0  0  0  0  0  0
    6.8154    2.4285   21.4031 C   0  0  0  0  0  0  0  0  0  0  0  0
    6.0132    1.3064   22.0484 C   0  0  0  0  0  0  0  0  0  0  0  0
    4.9526    0.7867   21.1057 C   0  0  0  0  0  0  0  0  0  0  0  0
    4.5722    1.7370   20.0346 C   0  0  0  0  0  0  0  0  0  0  0  0
    7.6707    6.4318   22.5546 C   0  0  0  0  0  0  0  0  0  0  0  0
    7.2801    5.1092   22.2482 O   0  0  0  0  0  0  0  0  0  0  0  0
    3.3277    2.3545   17.1058 C   0  0  0  0  0  0  0  0  0  0  0  0
    4.6149    2.7568   16.4673 C   0  0  0  0  0  0  0  0  0  0  0  0
    4.9990    4.1588   16.8697 C   0  0  0  0  0  0  0  0  0  0  0  0
    6.1839    4.4776   17.4876 C   0  0  0  0  0  0  0  0  0  0  0  0
    6.5068    5.7601   17.8602 C   0  0  0  0  0  0  0  0  0  0  0  0
    5.6293    6.8151   17.6231 C   0  0  0  0  0  0  0  0  0  0  0  0
    4.4516    6.5095   17.0111 C   0  0  0  0  0  0  0  0  0  0  0  0
    4.1244    5.2003   16.6312 C   0  0  0  0  0  0  0  0  0  0  0  0
    3.6490    7.7514   16.8501 C   0  0  0  0  0  0  0  0  0  0  0  0
    4.5378    8.7977   17.2424 N   0  0  0  0  0  0  0  0  0  0  0  0
    5.6853    8.2620   17.8934 C   0  0  0  0  0  0  0  0  0  0  0  0
    5.0750    9.7412   15.8994 S   0  0  0  0  0  0  0  0  0  0  0  0
    3.7142   10.3510   14.9453 C   0  0  0  0  0  0  0  0  0  0  0  0
    5.8953   10.8731   16.4479 O   0  0  0  0  0  0  0  0  0  0  0  0
    6.0185    8.9138   15.0558 O   0  0  0  0  0  0  0  0  0  0  0  0
 14 15  1  0  0  0
 15  4  1  0  0  0
  4  5  2  0  0  0
  5  6  1  0  0  0
  6  7  2  0  0  0
  7  8  1  0  0  0
  8  9  2  0  0  0
  9 10  1  0  0  0
 10 11  1  0  0  0
 11 12  1  0  0  0
 12 13  1  0  0  0
 13  3  1  0  0  0
  3  1  1  0  0  0
  1  2  1  0  0  0
  1 16  1  0  0  0
 16 17  1  0  0  0
 17 18  1  0  0  0
 18 19  2  0  0  0
 19 20  1  0  0  0
 20 21  2  0  0  0
 21 22  1  0  0  0
 22 23  2  0  0  0
 22 24  1  0  0  0
 24 25  1  0  0  0
 25 27  1  0  0  0
 27 28  1  0  0  0
 27 29  2  0  0  0
 27 30  2  0  0  0
 25 26  1  0  0  0
  9  4  1  0  0  0
 23 18  1  0  0  0
 13  8  1  0  0  0
 26 21  1  0  0  0
M  END
> <minimizedAffinity>
-6.73199

> <CNNscore>
0.2180824131

> <CNNaffinity>
5.8439188004

> <CNN_VS>
1.2744559050

> <CNNaffinity_variance>
0.2334002256

$$$$
[H]c1c([H])c(OC([H])([H])[H])c2c(c1[H])[C@]([H])(C([H])([H])N(C([H])([H])[H])C([H])([H])C([H])([H])c1c([H])c([H])c3c(c1[H])C([H])([H])N(S(=O)(=O)C([H])([H])[H])C3([H])[H])C([H])([H])C([H])([H])C2([H])[H]


 30 33  0  0  0  0  0  0  0  0999 V2000
    4.9041    2.6433   23.4177 N   0  0  0  0  0  0  0  0  0  0  0  0
    5.3120    1.8626   24.5010 C   0  0  0  0  0  0  0  0  0  0  0  0
    5.3208    2.3876   22.1245 C   0  0  0  0  0  0  0  0  0  0  0  0
    3.5711    1.5322   17.6227 C   0  0  0  0  0  0  0  0  0  0  0  0
    4.3859    2.5399   17.1232 C   0  0  0  0  0  0  0  0  0  0  0  0
    5.2084    3.2256   18.0198 C   0  0  0  0  0  0  0  0  0  0  0  0
    5.2385    2.9370   19.3753 C   0  0  0  0  0  0  0  0  0  0  0  0
    4.4255    1.9328   19.8713 C   0  0  0  0  0  0  0  0  0  0  0  0
    3.6283    1.2744   18.9731 C   0  0  0  0  0  0  0  0  0  0  0  0
    2.7934    0.1744   19.5855 C   0  0  0  0  0  0  0  0  0  0  0  0
    3.7632   -0.6836   20.3869 C   0  0  0  0  0  0  0  0  0  0  0  0
    4.3927    0.1119   21.5070 C   0  0  0  0  0  0  0  0  0  0  0  0
    4.3616    1.5790   21.3032 C   0  0  0  0  0  0  0  0  0  0  0  0
    2.4561    1.1394   15.4600 C   0  0  0  0  0  0  0  0  0  0  0  0
    2.7088    0.7852   16.8040 O   0  0  0  0  0  0  0  0  0  0  0  0
    4.1540    3.8167   23.6726 C   0  0  0  0  0  0  0  0  0  0  0  0
    3.4443    4.4426   22.5189 C   0  0  0  0  0  0  0  0  0  0  0  0
    4.3089    5.4880   21.8595 C   0  0  0  0  0  0  0  0  0  0  0  0
    4.1386    5.9122   20.5639 C   0  0  0  0  0  0  0  0  0  0  0  0
    4.9483    6.8549   19.9776 C   0  0  0  0  0  0  0  0  0  0  0  0
    5.9988    7.4337   20.6852 C   0  0  0  0  0  0  0  0  0  0  0  0
    6.1760    7.0198   21.9706 C   0  0  0  0  0  0  0  0  0  0  0  0
    5.3484    6.0583   22.5671 C   0  0  0  0  0  0  0  0  0  0  0  0
    7.3396    7.7366   22.5577 C   0  0  0  0  0  0  0  0  0  0  0  0
    7.6819    8.7149   21.5757 N   0  0  0  0  0  0  0  0  0  0  0  0
    7.0141    8.4459   20.3471 C   0  0  0  0  0  0  0  0  0  0  0  0
    7.2672   10.3163   22.0716 S   0  0  0  0  0  0  0  0  0  0  0  0
    6.3026   11.1499   20.8433 C   0  0  0  0  0  0  0  0  0  0  0  0
    6.5088   10.2022   23.3626 O   0  0  0  0  0  0  0  0  0  0  0  0
    8.5314   11.0794   22.3974 O   0  0  0  0  0  0  0  0  0  0  0  0
 14 15  1  0  0  0
 15  4  1  0  0  0
  4  5  2  0  0  0
  5  6  1  0  0  0
  6  7  2  0  0  0
  7  8  1  0  0  0
  8  9  2  0  0  0
  9 10  1  0  0  0
 10 11  1  0  0  0
 11 12  1  0  0  0
 12 13  1  0  0  0
 13  3  1  0  0  0
  3  1  1  0  0  0
  1  2  1  0  0  0
  1 16  1  0  0  0
 16 17  1  0  0  0
 17 18  1  0  0  0
 18 19  2  0  0  0
 19 20  1  0  0  0
 20 21  2  0  0  0
 21 22  1  0  0  0
 22 23  2  0  0  0
 22 24  1  0  0  0
 24 25  1  0  0  0
 25 27  1  0  0  0
 27 28  1  0  0  0
 27 29  2  0  0  0
 27 30  2  0  0  0
 25 26  1  0  0  0
  9  4  1  0  0  0
 23 18  1  0  0  0
 13  8  1  0  0  0
 26 21  1  0  0  0
M  END
> <minimizedAffinity>
-7.88515

> <CNNscore>
0.2111844718

> <CNNaffinity>
6.3154358864

> <CNN_VS>
1.3337219954

> <CNNaffinity_variance>
0.0578961596

$$$$
[H]c1c([H])c(OC([H])([H])[H])c2c(c1[H])[C@]([H])(C([H])([H])N(C([H])([H])[H])C([H])([H])C([H])([H])c1c([H])c([H])c3c(c1[H])C([H])([H])N(S(=O)(=O)C([H])([H])[H])C3([H])[H])C([H])([H])C([H])([H])C2([H])[H]


 30 33  0  0  0  0  0  0  0  0999 V2000
    3.2753    0.4920   18.7397 N   0  0  0  0  0  0  0  0  0  0  0  0
    2.3353   -0.5084   18.4852 C   0  0  0  0  0  0  0  0  0  0  0  0
    4.0893    1.0100   17.7495 C   0  0  0  0  0  0  0  0  0  0  0  0
    4.2590    5.6162   16.0722 C   0  0  0  0  0  0  0  0  0  0  0  0
    5.3725    5.8561   16.8670 C   0  0  0  0  0  0  0  0  0  0  0  0
    5.8524    4.8108   17.6593 C   0  0  0  0  0  0  0  0  0  0  0  0
    5.2619    3.5569   17.6781 C   0  0  0  0  0  0  0  0  0  0  0  0
    4.1522    3.3198   16.8858 C   0  0  0  0  0  0  0  0  0  0  0  0
    3.7002    4.3596   16.1175 C   0  0  0  0  0  0  0  0  0  0  0  0
    2.5055    4.0143   15.2600 C   0  0  0  0  0  0  0  0  0  0  0  0
    2.8827    2.7384   14.5193 C   0  0  0  0  0  0  0  0  0  0  0  0
    3.1168    1.5999   15.4850 C   0  0  0  0  0  0  0  0  0  0  0  0
    3.4343    2.0298   16.8667 C   0  0  0  0  0  0  0  0  0  0  0  0
    3.9294    7.9787   15.4518 C   0  0  0  0  0  0  0  0  0  0  0  0
    3.7002    6.6006   15.2414 O   0  0  0  0  0  0  0  0  0  0  0  0
    3.4982    0.8870   20.0809 C   0  0  0  0  0  0  0  0  0  0  0  0
    4.9052    0.8705   20.5772 C   0  0  0  0  0  0  0  0  0  0  0  0
    5.3065    2.2276   21.0993 C   0  0  0  0  0  0  0  0  0  0  0  0
    6.4663    2.4642   21.7967 C   0  0  0  0  0  0  0  0  0  0  0  0
    6.8049    3.7061   22.2774 C   0  0  0  0  0  0  0  0  0  0  0  0
    5.9702    4.8023   22.0746 C   0  0  0  0  0  0  0  0  0  0  0  0
    4.8178    4.5781   21.3843 C   0  0  0  0  0  0  0  0  0  0  0  0
    4.4746    3.3103   20.8943 C   0  0  0  0  0  0  0  0  0  0  0  0
    4.0592    5.8528   21.2748 C   0  0  0  0  0  0  0  0  0  0  0  0
    4.9550    6.8402   21.7859 N   0  0  0  0  0  0  0  0  0  0  0  0
    6.0522    6.2237   22.4521 C   0  0  0  0  0  0  0  0  0  0  0  0
    5.5868    7.8598   20.5435 S   0  0  0  0  0  0  0  0  0  0  0  0
    4.3590    8.2422   19.3268 C   0  0  0  0  0  0  0  0  0  0  0  0
    6.0934    9.1091   21.2051 O   0  0  0  0  0  0  0  0  0  0  0  0
    6.7963    7.1974   19.9232 O   0  0  0  0  0  0  0  0  0  0  0  0
 14 15  1  0  0  0
 15  4  1  0  0  0
  4  5  2  0  0  0
  5  6  1  0  0  0
  6  7  2  0  0  0
  7  8  1  0  0  0
  8  9  2  0  0  0
  9 10  1  0  0  0
 10 11  1  0  0  0
 11 12  1  0  0  0
 12 13  1  0  0  0
 13  3  1  0  0  0
  3  1  1  0  0  0
  1  2  1  0  0  0
  1 16  1  0  0  0
 16 17  1  0  0  0
 17 18  1  0  0  0
 18 19  2  0  0  0
 19 20  1  0  0  0
 20 21  2  0  0  0
 21 22  1  0  0  0
 22 23  2  0  0  0
 22 24  1  0  0  0
 24 25  1  0  0  0
 25 27  1  0  0  0
 27 28  1  0  0  0
 27 29  2  0  0  0
 27 30  2  0  0  0
 25 26  1  0  0  0
  9  4  1  0  0  0
 23 18  1  0  0  0
 13  8  1  0  0  0
 26 21  1  0  0  0
M  END
> <minimizedAffinity>
-8.03306

> <CNNscore>
0.1866561472

> <CNNaffinity>
6.1659121513

> <CNN_VS>
1.1509053707

> <CNNaffinity_variance>
0.2930222154

$$$$
[H]c1c([H])c(OC([H])([H])[H])c2c(c1[H])[C@]([H])(C([H])([H])N(C([H])([H])[H])C([H])([H])C([H])([H])c1c([H])c([H])c3c(c1[H])C([H])([H])N(S(=O)(=O)C([H])([H])[H])C3([H])[H])C([H])([H])C([H])([H])C2([H])[H]


 30 33  0  0  0  0  0  0  0  0999 V2000
    3.3853    0.5763   17.7784 N   0  0  0  0  0  0  0  0  0  0  0  0
    2.4794    0.0354   18.6927 C   0  0  0  0  0  0  0  0  0  0  0  0
    4.6041    1.1000   18.1677 C   0  0  0  0  0  0  0  0  0  0  0  0
    5.6527    4.1863   21.8330 C   0  0  0  0  0  0  0  0  0  0  0  0
    6.1177    3.1179   22.5889 C   0  0  0  0  0  0  0  0  0  0  0  0
    6.0737    1.8425   22.0216 C   0  0  0  0  0  0  0  0  0  0  0  0
    5.5877    1.6103   20.7443 C   0  0  0  0  0  0  0  0  0  0  0  0
    5.1244    2.6761   19.9927 C   0  0  0  0  0  0  0  0  0  0  0  0
    5.1780    3.9169   20.5699 C   0  0  0  0  0  0  0  0  0  0  0  0
    4.6825    5.0303   19.6773 C   0  0  0  0  0  0  0  0  0  0  0  0
    5.4245    4.8641   18.3579 C   0  0  0  0  0  0  0  0  0  0  0  0
    5.0805    3.5455   17.7048 C   0  0  0  0  0  0  0  0  0  0  0  0
    4.5554    2.5226   18.6390 C   0  0  0  0  0  0  0  0  0  0  0  0
    6.8267    6.2935   22.3395 C   0  0  0  0  0  0  0  0  0  0  0  0
    5.6542    5.5059   22.3129 O   0  0  0  0  0  0  0  0  0  0  0  0
    2.9816    0.7201   16.4289 C   0  0  0  0  0  0  0  0  0  0  0  0
    2.1983    1.9390   16.0724 C   0  0  0  0  0  0  0  0  0  0  0  0
    2.5910    2.4499   14.7086 C   0  0  0  0  0  0  0  0  0  0  0  0
    3.5207    3.4405   14.5037 C   0  0  0  0  0  0  0  0  0  0  0  0
    3.8520    3.9022   13.2527 C   0  0  0  0  0  0  0  0  0  0  0  0
    3.2478    3.3756   12.1139 C   0  0  0  0  0  0  0  0  0  0  0  0
    2.3245    2.3930   12.3063 C   0  0  0  0  0  0  0  0  0  0  0  0
    1.9884    1.9229   13.5836 C   0  0  0  0  0  0  0  0  0  0  0  0
    1.7870    1.9638   10.9875 C   0  0  0  0  0  0  0  0  0  0  0  0
    2.6088    2.6402   10.0359 N   0  0  0  0  0  0  0  0  0  0  0  0
    3.3863    3.6488   10.6731 C   0  0  0  0  0  0  0  0  0  0  0  0
    3.6881    1.5671    9.2198 S   0  0  0  0  0  0  0  0  0  0  0  0
    3.2056    1.3136    7.5355 C   0  0  0  0  0  0  0  0  0  0  0  0
    5.0617    2.1688    9.2994 O   0  0  0  0  0  0  0  0  0  0  0  0
    3.7608    0.2617    9.9795 O   0  0  0  0  0  0  0  0  0  0  0  0
 14 15  1  0  0  0
 15  4  1  0  0  0
  4  5  2  0  0  0
  5  6  1  0  0  0
  6  7  2  0  0  0
  7  8  1  0  0  0
  8  9  2  0  0  0
  9 10  1  0  0  0
 10 11  1  0  0  0
 11 12  1  0  0  0
 12 13  1  0  0  0
 13  3  1  0  0  0
  3  1  1  0  0  0
  1  2  1  0  0  0
  1 16  1  0  0  0
 16 17  1  0  0  0
 17 18  1  0  0  0
 18 19  2  0  0  0
 19 20  1  0  0  0
 20 21  2  0  0  0
 21 22  1  0  0  0
 22 23  2  0  0  0
 22 24  1  0  0  0
 24 25  1  0  0  0
 25 27  1  0  0  0
 27 28  1  0  0  0
 27 29  2  0  0  0
 27 30  2  0  0  0
 25 26  1  0  0  0
  9  4  1  0  0  0
 23 18  1  0  0  0
 13  8  1  0  0  0
 26 21  1  0  0  0
M  END
> <minimizedAffinity>
-7.71006

> <CNNscore>
0.1853972375

> <CNNaffinity>
5.9494194984

> <CNN_VS>
1.1030058861

> <CNNaffinity_variance>
0.1795329303

$$$$
[H]c1c([H])c(OC([H])([H])[H])c2c(c1[H])[C@]([H])(C([H])([H])N(C([H])([H])[H])C([H])([H])C([H])([H])c1c([H])c([H])c3c(c1[H])C([H])([H])N(S(=O)(=O)C([H])([H])[H])C3([H])[H])C([H])([H])C([H])([H])C2([H])[H]


 30 33  0  0  0  0  0  0  0  0999 V2000
    4.1424    1.0907   20.2221 N   0  0  0  0  0  0  0  0  0  0  0  0
    3.4218    0.3120   21.1297 C   0  0  0  0  0  0  0  0  0  0  0  0
    5.3145    1.7361   20.5700 C   0  0  0  0  0  0  0  0  0  0  0  0
    5.0879    6.6294   20.8216 C   0  0  0  0  0  0  0  0  0  0  0  0
    5.3374    6.7031   19.4573 C   0  0  0  0  0  0  0  0  0  0  0  0
    5.5094    5.5084   18.7548 C   0  0  0  0  0  0  0  0  0  0  0  0
    5.4398    4.2664   19.3664 C   0  0  0  0  0  0  0  0  0  0  0  0
    5.1915    4.1949   20.7261 C   0  0  0  0  0  0  0  0  0  0  0  0
    5.0260    5.3793   21.3934 C   0  0  0  0  0  0  0  0  0  0  0  0
    4.7299    5.2174   22.8658 C   0  0  0  0  0  0  0  0  0  0  0  0
    3.5774    4.2256   22.9495 C   0  0  0  0  0  0  0  0  0  0  0  0
    3.9804    2.8781   22.3969 C   0  0  0  0  0  0  0  0  0  0  0  0
    5.1361    2.9213   21.4709 C   0  0  0  0  0  0  0  0  0  0  0  0
    4.8968    9.0742   21.0687 C   0  0  0  0  0  0  0  0  0  0  0  0
    4.9012    7.7719   21.6163 O   0  0  0  0  0  0  0  0  0  0  0  0
    3.5794    1.3406   18.9472 C   0  0  0  0  0  0  0  0  0  0  0  0
    4.5148    1.4250   17.7878 C   0  0  0  0  0  0  0  0  0  0  0  0
    3.7941    1.8971   16.5496 C   0  0  0  0  0  0  0  0  0  0  0  0
    2.9155    1.1193   15.8351 C   0  0  0  0  0  0  0  0  0  0  0  0
    2.2817    1.5643   14.7001 C   0  0  0  0  0  0  0  0  0  0  0  0
    2.5065    2.8498   14.2140 C   0  0  0  0  0  0  0  0  0  0  0  0
    3.3761    3.6289   14.9152 C   0  0  0  0  0  0  0  0  0  0  0  0
    4.0213    3.1730   16.0734 C   0  0  0  0  0  0  0  0  0  0  0  0
    3.4937    4.9521   14.2463 C   0  0  0  0  0  0  0  0  0  0  0  0
    2.4884    4.9244   13.2328 N   0  0  0  0  0  0  0  0  0  0  0  0
    1.9914    3.6016   13.0568 C   0  0  0  0  0  0  0  0  0  0  0  0
    1.1525    5.9538   13.6044 S   0  0  0  0  0  0  0  0  0  0  0  0
   -0.3379    5.3922   12.8316 C   0  0  0  0  0  0  0  0  0  0  0  0
    1.0067    5.9751   15.0988 O   0  0  0  0  0  0  0  0  0  0  0  0
    1.4887    7.3712   13.1987 O   0  0  0  0  0  0  0  0  0  0  0  0
 14 15  1  0  0  0
 15  4  1  0  0  0
  4  5  2  0  0  0
  5  6  1  0  0  0
  6  7  2  0  0  0
  7  8  1  0  0  0
  8  9  2  0  0  0
  9 10  1  0  0  0
 10 11  1  0  0  0
 11 12  1  0  0  0
 12 13  1  0  0  0
 13  3  1  0  0  0
  3  1  1  0  0  0
  1  2  1  0  0  0
  1 16  1  0  0  0
 16 17  1  0  0  0
 17 18  1  0  0  0
 18 19  2  0  0  0
 19 20  1  0  0  0
 20 21  2  0  0  0
 21 22  1  0  0  0
 22 23  2  0  0  0
 22 24  1  0  0  0
 24 25  1  0  0  0
 25 27  1  0  0  0
 27 28  1  0  0  0
 27 29  2  0  0  0
 27 30  2  0  0  0
 25 26  1  0  0  0
  9  4  1  0  0  0
 23 18  1  0  0  0
 13  8  1  0  0  0
 26 21  1  0  0  0
M  END
> <minimizedAffinity>
-8.58847

> <CNNscore>
0.1846264899

> <CNNaffinity>
6.0733227730

> <CNN_VS>
1.1212962866

> <CNNaffinity_variance>
0.2789707482

$$$$
[H]N=C(c1c([H])c([H])c(C([H])([H])N([H])C(=O)C2([H])N3C(=O)[C@](O[H])(C([H])([H])c4c([H])c([H])c([H])c([H])c4[H])C([H])([H])C([H])([H])[C@]3([H])C([H])([H])C2([H])[H])c([H])c1[H])N([H])[H]


 36 39  0  0  0  0  0  0  0  0999 V2000
    5.6775    7.7690   19.9835 C   0  0  0  0  0  0  0  0  0  0  0  0
    7.0846    8.1962   19.6231 C   0  0  0  0  0  0  0  0  0  0  0  0
    7.5883    6.9537   18.9046 C   0  0  0  0  0  0  0  0  0  0  0  0
    6.4105    6.6351   18.0123 C   0  0  0  0  0  0  0  0  0  0  0  0
    6.3516    5.1746   17.6514 C   0  0  0  0  0  0  0  0  0  0  0  0
    5.0788    4.8242   16.9537 C   0  0  0  0  0  0  0  0  0  0  0  0
    4.0281    5.8980   16.9988 C   0  0  0  0  0  0  0  0  0  0  0  0
    4.2838    6.8984   16.0458 O   0  0  0  0  0  0  0  0  0  0  0  0
    4.0014    6.4678   18.3716 C   0  0  0  0  0  0  0  0  0  0  0  0
    2.9955    6.5256   19.1028 O   0  0  0  0  0  0  0  0  0  0  0  0
    5.2529    6.9796   18.8523 N   0  0  0  0  0  0  0  0  0  0  0  0
    4.6857    6.4118   15.2659 H   0  0  0  0  0  0  0  0  0  0  0  0
    4.9873    5.7654   21.2915 N   0  0  0  0  0  0  0  0  0  0  0  0
    5.8067    6.9213   21.2224 C   0  0  0  0  0  0  0  0  0  0  0  0
    6.5846    7.2074   22.1420 O   0  0  0  0  0  0  0  0  0  0  0  0
    4.3156    5.5083   20.5127 H   0  0  0  0  0  0  0  0  0  0  0  0
    4.9960    4.8465   22.4165 C   0  0  0  0  0  0  0  0  0  0  0  0
    3.6290    1.0436   21.0423 C   0  0  0  0  0  0  0  0  0  0  0  0
    3.6206    1.3711   22.3694 C   0  0  0  0  0  0  0  0  0  0  0  0
    4.0545    2.5981   22.8591 C   0  0  0  0  0  0  0  0  0  0  0  0
    4.5138    3.5250   21.9665 C   0  0  0  0  0  0  0  0  0  0  0  0
    4.5339    3.2242   20.6285 C   0  0  0  0  0  0  0  0  0  0  0  0
    4.1003    1.9987   20.1410 C   0  0  0  0  0  0  0  0  0  0  0  0
    3.2745   -1.3590   21.1740 N   0  0  0  0  0  0  0  0  0  0  0  0
    3.1709   -0.2471   20.5494 C   0  0  0  0  0  0  0  0  0  0  0  0
    2.5428   -0.3258   19.2574 N   0  0  0  0  0  0  0  0  0  0  0  0
    3.7139   -1.3824   22.1065 H   0  0  0  0  0  0  0  0  0  0  0  0
    1.6387    0.1584   19.0749 H   0  0  0  0  0  0  0  0  0  0  0  0
    3.0119   -0.8780   18.5075 H   0  0  0  0  0  0  0  0  0  0  0  0
    2.6910    5.2994   16.6309 C   0  0  0  0  0  0  0  0  0  0  0  0
    2.7990    4.0302   15.9150 C   0  0  0  0  0  0  0  0  0  0  0  0
    2.9762    3.9405   14.5483 C   0  0  0  0  0  0  0  0  0  0  0  0
    3.0714    2.7171   13.9042 C   0  0  0  0  0  0  0  0  0  0  0  0
    2.9899    1.5456   14.6243 C   0  0  0  0  0  0  0  0  0  0  0  0
    2.8150    1.6125   15.9752 C   0  0  0  0  0  0  0  0  0  0  0  0
    2.7202    2.8456   16.6156 C   0  0  0  0  0  0  0  0  0  0  0  0
 24 25  2  0  0  0
 25 26  1  0  0  0
 25 18  1  0  0  0
 18 19  2  0  0  0
 19 20  1  0  0  0
 20 21  2  0  0  0
 21 17  1  0  0  0
 17 13  1  0  0  0
 13 14  1  0  0  0
 14 15  2  0  0  0
 14  1  1  0  0  0
  1  2  1  0  0  0
  2  3  1  0  0  0
  3  4  1  0  0  0
  4  5  1  0  0  0
  5  6  1  0  0  0
  6  7  1  0  0  0
  7  8  1  0  0  0
  7 30  1  0  0  0
 30 31  1  0  0  0
 31 32  2  0  0  0
 32 33  1  0  0  0
 33 34  2  0  0  0
 34 35  1  0  0  0
 35 36  2  0  0  0
  7  9  1  0  0  0
  9 10  2  0  0  0
  9 11  1  0  0  0
 21 22  1  0  0  0
 22 23  2  0  0  0
 23 18  1  0  0  0
 11  1  1  0  0  0
 11  4  1  0  0  0
 36 31  1  0  0  0
 24 27  1  0  0  0
 26 28  1  0  0  0
 26 29  1  0  0  0
 13 16  1  0  0  0
  8 12  1  0  0  0
M  END
> <minimizedAffinity>
-9.10798

> <CNNscore>
0.3426744342

> <CNNaffinity>
6.2749052048

> <CNN_VS>
2.1502494812

> <CNNaffinity_variance>
0.0791417807

$$$$
[H]N=C(c1c([H])c([H])c(C([H])([H])N([H])C(=O)C2([H])N3C(=O)[C@](O[H])(C([H])([H])c4c([H])c([H])c([H])c([H])c4[H])C([H])([H])C([H])([H])[C@]3([H])C([H])([H])C2([H])[H])c([H])c1[H])N([H])[H]


 36 39  0  0  0  0  0  0  0  0999 V2000
    3.9184    6.0105   15.7454 C   0  0  0  0  0  0  0  0  0  0  0  0
    4.3269    7.4527   15.9584 C   0  0  0  0  0  0  0  0  0  0  0  0
    3.8462    7.6812   17.3834 C   0  0  0  0  0  0  0  0  0  0  0  0
    4.3353    6.4220   18.0617 C   0  0  0  0  0  0  0  0  0  0  0  0
    3.5132    6.0757   19.2746 C   0  0  0  0  0  0  0  0  0  0  0  0
    3.8580    4.7269   19.8146 C   0  0  0  0  0  0  0  0  0  0  0  0
    4.7247    3.8969   18.9095 C   0  0  0  0  0  0  0  0  0  0  0  0
    6.0718    4.2859   19.0001 O   0  0  0  0  0  0  0  0  0  0  0  0
    4.2225    4.0444   17.5181 C   0  0  0  0  0  0  0  0  0  0  0  0
    3.8786    3.1042   16.7782 O   0  0  0  0  0  0  0  0  0  0  0  0
    4.1442    5.3914   17.0293 N   0  0  0  0  0  0  0  0  0  0  0  0
    6.1972    4.5514   19.9595 H   0  0  0  0  0  0  0  0  0  0  0  0
    2.0561    6.9248   14.3678 N   0  0  0  0  0  0  0  0  0  0  0  0
    2.4508    6.0418   15.4054 C   0  0  0  0  0  0  0  0  0  0  0  0
    1.6199    5.3378   15.9942 O   0  0  0  0  0  0  0  0  0  0  0  0
    2.7559    7.5346   13.8556 H   0  0  0  0  0  0  0  0  0  0  0  0
    0.6812    7.0693   13.9220 C   0  0  0  0  0  0  0  0  0  0  0  0
    0.0340    4.5604   10.5299 C   0  0  0  0  0  0  0  0  0  0  0  0
    0.3500    5.8831   10.3927 C   0  0  0  0  0  0  0  0  0  0  0  0
    0.5708    6.7345   11.4698 C   0  0  0  0  0  0  0  0  0  0  0  0
    0.4661    6.2216   12.7318 C   0  0  0  0  0  0  0  0  0  0  0  0
    0.1503    4.8975   12.9001 C   0  0  0  0  0  0  0  0  0  0  0  0
   -0.0698    4.0487   11.8238 C   0  0  0  0  0  0  0  0  0  0  0  0
    0.2032    3.9068    8.1934 N   0  0  0  0  0  0  0  0  0  0  0  0
   -0.1940    3.6854    9.3893 C   0  0  0  0  0  0  0  0  0  0  0  0
   -0.9214    2.4582    9.5764 N   0  0  0  0  0  0  0  0  0  0  0  0
    0.7314    4.7666    7.9811 H   0  0  0  0  0  0  0  0  0  0  0  0
   -0.5430    1.7030   10.1860 H   0  0  0  0  0  0  0  0  0  0  0  0
   -1.8356    2.3409    9.0887 H   0  0  0  0  0  0  0  0  0  0  0  0
    4.6726    2.4554   19.3580 C   0  0  0  0  0  0  0  0  0  0  0  0
    4.7591    2.2937   20.8076 C   0  0  0  0  0  0  0  0  0  0  0  0
    5.8652    2.6593   21.5491 C   0  0  0  0  0  0  0  0  0  0  0  0
    5.9109    2.4874   22.9235 C   0  0  0  0  0  0  0  0  0  0  0  0
    4.8374    1.9392   23.5903 C   0  0  0  0  0  0  0  0  0  0  0  0
    3.7353    1.5714   22.8762 C   0  0  0  0  0  0  0  0  0  0  0  0
    3.6966    1.7473   21.4952 C   0  0  0  0  0  0  0  0  0  0  0  0
 24 25  2  0  0  0
 25 26  1  0  0  0
 25 18  1  0  0  0
 18 19  2  0  0  0
 19 20  1  0  0  0
 20 21  2  0  0  0
 21 17  1  0  0  0
 17 13  1  0  0  0
 13 14  1  0  0  0
 14 15  2  0  0  0
 14  1  1  0  0  0
  1  2  1  0  0  0
  2  3  1  0  0  0
  3  4  1  0  0  0
  4  5  1  0  0  0
  5  6  1  0  0  0
  6  7  1  0  0  0
  7  8  1  0  0  0
  7 30  1  0  0  0
 30 31  1  0  0  0
 31 32  2  0  0  0
 32 33  1  0  0  0
 33 34  2  0  0  0
 34 35  1  0  0  0
 35 36  2  0  0  0
  7  9  1  0  0  0
  9 10  2  0  0  0
  9 11  1  0  0  0
 21 22  1  0  0  0
 22 23  2  0  0  0
 23 18  1  0  0  0
 11  1  1  0  0  0
 11  4  1  0  0  0
 36 31  1  0  0  0
 24 27  1  0  0  0
 26 28  1  0  0  0
 26 29  1  0  0  0
 13 16  1  0  0  0
  8 12  1  0  0  0
M  END
> <minimizedAffinity>
-7.26459

> <CNNscore>
0.3241253495

> <CNNaffinity>
5.4844527245

> <CNN_VS>
1.7776501179

> <CNNaffinity_variance>
0.0784674287

$$$$
[H]N=C(c1c([H])c([H])c(C([H])([H])N([H])C(=O)C2([H])N3C(=O)[C@](O[H])(C([H])([H])c4c([H])c([H])c([H])c([H])c4[H])C([H])([H])C([H])([H])[C@]3([H])C([H])([H])C2([H])[H])c([H])c1[H])N([H])[H]


 36 39  0  0  0  0  0  0  0  0999 V2000
    3.3645    1.3594   20.5272 C   0  0  0  0  0  0  0  0  0  0  0  0
    3.6899   -0.0065   21.0935 C   0  0  0  0  0  0  0  0  0  0  0  0
    5.1963    0.1062   21.2708 C   0  0  0  0  0  0  0  0  0  0  0  0
    5.3142    1.4740   21.9034 C   0  0  0  0  0  0  0  0  0  0  0  0
    6.6549    2.1065   21.6402 C   0  0  0  0  0  0  0  0  0  0  0  0
    6.6929    3.5337   22.0777 C   0  0  0  0  0  0  0  0  0  0  0  0
    5.3504    4.1151   22.4223 C   0  0  0  0  0  0  0  0  0  0  0  0
    4.9431    3.7238   23.7089 O   0  0  0  0  0  0  0  0  0  0  0  0
    4.3710    3.6683   21.3971 C   0  0  0  0  0  0  0  0  0  0  0  0
    3.6630    4.4243   20.7065 O   0  0  0  0  0  0  0  0  0  0  0  0
    4.2647    2.2479   21.2222 N   0  0  0  0  0  0  0  0  0  0  0  0
    5.7912    3.6798   24.2431 H   0  0  0  0  0  0  0  0  0  0  0  0
    4.4455    2.3647   18.5216 N   0  0  0  0  0  0  0  0  0  0  0  0
    3.6941    1.2880   19.0587 C   0  0  0  0  0  0  0  0  0  0  0  0
    3.3335    0.3433   18.3446 O   0  0  0  0  0  0  0  0  0  0  0  0
    4.7601    3.1811   19.1203 H   0  0  0  0  0  0  0  0  0  0  0  0
    4.8442    2.4428   17.1270 C   0  0  0  0  0  0  0  0  0  0  0  0
    2.2539    5.1123   15.0333 C   0  0  0  0  0  0  0  0  0  0  0  0
    2.8166    5.4528   16.2315 C   0  0  0  0  0  0  0  0  0  0  0  0
    3.6667    4.6149   16.9451 C   0  0  0  0  0  0  0  0  0  0  0  0
    3.9542    3.3865   16.4207 C   0  0  0  0  0  0  0  0  0  0  0  0
    3.4039    3.0177   15.2197 C   0  0  0  0  0  0  0  0  0  0  0  0
    2.5555    3.8553   14.5084 C   0  0  0  0  0  0  0  0  0  0  0  0
    0.2868    6.5164   14.7603 N   0  0  0  0  0  0  0  0  0  0  0  0
    1.3657    6.0037   14.3018 C   0  0  0  0  0  0  0  0  0  0  0  0
    1.6892    6.3659   12.9474 N   0  0  0  0  0  0  0  0  0  0  0  0
   -0.0111    6.3030   15.7241 H   0  0  0  0  0  0  0  0  0  0  0  0
    2.5498    6.9127   12.7339 H   0  0  0  0  0  0  0  0  0  0  0  0
    1.0438    6.0693   12.1840 H   0  0  0  0  0  0  0  0  0  0  0  0
    5.4560    5.6216   22.4552 C   0  0  0  0  0  0  0  0  0  0  0  0
    6.5556    6.1455   21.6481 C   0  0  0  0  0  0  0  0  0  0  0  0
    6.4484    6.4105   20.2970 C   0  0  0  0  0  0  0  0  0  0  0  0
    7.5157    6.9047   19.5640 C   0  0  0  0  0  0  0  0  0  0  0  0
    8.7257    7.1458   20.1765 C   0  0  0  0  0  0  0  0  0  0  0  0
    8.8523    6.8906   21.5102 C   0  0  0  0  0  0  0  0  0  0  0  0
    7.7753    6.3941   22.2404 C   0  0  0  0  0  0  0  0  0  0  0  0
 24 25  2  0  0  0
 25 26  1  0  0  0
 25 18  1  0  0  0
 18 19  2  0  0  0
 19 20  1  0  0  0
 20 21  2  0  0  0
 21 17  1  0  0  0
 17 13  1  0  0  0
 13 14  1  0  0  0
 14 15  2  0  0  0
 14  1  1  0  0  0
  1  2  1  0  0  0
  2  3  1  0  0  0
  3  4  1  0  0  0
  4  5  1  0  0  0
  5  6  1  0  0  0
  6  7  1  0  0  0
  7  8  1  0  0  0
  7 30  1  0  0  0
 30 31  1  0  0  0
 31 32  2  0  0  0
 32 33  1  0  0  0
 33 34  2  0  0  0
 34 35  1  0  0  0
 35 36  2  0  0  0
  7  9  1  0  0  0
  9 10  2  0  0  0
  9 11  1  0  0  0
 21 22  1  0  0  0
 22 23  2  0  0  0
 23 18  1  0  0  0
 11  1  1  0  0  0
 11  4  1  0  0  0
 36 31  1  0  0  0
 24 27  1  0  0  0
 26 28  1  0  0  0
 26 29  1  0  0  0
 13 16  1  0  0  0
  8 12  1  0  0  0
M  END
> <minimizedAffinity>
-8.49986

> <CNNscore>
0.3137774765

> <CNNaffinity>
6.0006990433

> <CNN_VS>
1.8828841448

> <CNNaffinity_variance>
0.0919814780

$$$$
[H]N=C(c1c([H])c([H])c(C([H])([H])N([H])C(=O)C2([H])N3C(=O)[C@](O[H])(C([H])([H])c4c([H])c([H])c([H])c([H])c4[H])C([H])([H])C([H])([H])[C@]3([H])C([H])([H])C2([H])[H])c([H])c1[H])N([H])[H]


 36 39  0  0  0  0  0  0  0  0999 V2000
    4.0271    3.2314   15.1542 C   0  0  0  0  0  0  0  0  0  0  0  0
    2.8475    3.6054   14.2818 C   0  0  0  0  0  0  0  0  0  0  0  0
    2.0176    4.4278   15.2557 C   0  0  0  0  0  0  0  0  0  0  0  0
    3.0813    5.3022   15.8793 C   0  0  0  0  0  0  0  0  0  0  0  0
    2.6968    5.7658   17.2592 C   0  0  0  0  0  0  0  0  0  0  0  0
    3.8301    6.4453   17.9545 C   0  0  0  0  0  0  0  0  0  0  0  0
    5.1614    6.2885   17.2746 C   0  0  0  0  0  0  0  0  0  0  0  0
    5.2852    7.1745   16.1910 O   0  0  0  0  0  0  0  0  0  0  0  0
    5.2923    4.8780   16.8240 C   0  0  0  0  0  0  0  0  0  0  0  0
    6.2245    4.1123   17.1316 O   0  0  0  0  0  0  0  0  0  0  0  0
    4.2417    4.4024   15.9701 N   0  0  0  0  0  0  0  0  0  0  0  0
    4.7930    8.0002   16.4784 H   0  0  0  0  0  0  0  0  0  0  0  0
    4.0642    1.9962   17.3162 N   0  0  0  0  0  0  0  0  0  0  0  0
    3.5713    2.0619   15.9877 C   0  0  0  0  0  0  0  0  0  0  0  0
    2.8054    1.1943   15.5480 O   0  0  0  0  0  0  0  0  0  0  0  0
    4.7216    2.7308   17.7061 H   0  0  0  0  0  0  0  0  0  0  0  0
    3.7176    0.9343   18.2449 C   0  0  0  0  0  0  0  0  0  0  0  0
    4.4058    2.3631   22.2078 C   0  0  0  0  0  0  0  0  0  0  0  0
    3.6751    1.2325   21.9707 C   0  0  0  0  0  0  0  0  0  0  0  0
    3.4289    0.7316   20.6970 C   0  0  0  0  0  0  0  0  0  0  0  0
    3.9445    1.4055   19.6262 C   0  0  0  0  0  0  0  0  0  0  0  0
    4.6819    2.5432   19.8337 C   0  0  0  0  0  0  0  0  0  0  0  0
    4.9269    3.0420   21.1059 C   0  0  0  0  0  0  0  0  0  0  0  0
    5.4193    2.3308   24.4184 N   0  0  0  0  0  0  0  0  0  0  0  0
    4.6519    2.8717   23.5492 C   0  0  0  0  0  0  0  0  0  0  0  0
    3.9993    4.0811   23.9754 N   0  0  0  0  0  0  0  0  0  0  0  0
    5.9218    1.4610   24.1859 H   0  0  0  0  0  0  0  0  0  0  0  0
    4.2000    4.9884   23.5045 H   0  0  0  0  0  0  0  0  0  0  0  0
    3.3211    4.0301   24.7658 H   0  0  0  0  0  0  0  0  0  0  0  0
    6.2598    6.6553   18.2445 C   0  0  0  0  0  0  0  0  0  0  0  0
    5.7980    7.4715   19.3650 C   0  0  0  0  0  0  0  0  0  0  0  0
    5.5539    8.8274   19.2686 C   0  0  0  0  0  0  0  0  0  0  0  0
    5.1190    9.5690   20.3556 C   0  0  0  0  0  0  0  0  0  0  0  0
    4.9177    8.9605   21.5749 C   0  0  0  0  0  0  0  0  0  0  0  0
    5.1531    7.6222   21.6910 C   0  0  0  0  0  0  0  0  0  0  0  0
    5.5900    6.8834   20.5943 C   0  0  0  0  0  0  0  0  0  0  0  0
 24 25  2  0  0  0
 25 26  1  0  0  0
 25 18  1  0  0  0
 18 19  2  0  0  0
 19 20  1  0  0  0
 20 21  2  0  0  0
 21 17  1  0  0  0
 17 13  1  0  0  0
 13 14  1  0  0  0
 14 15  2  0  0  0
 14  1  1  0  0  0
  1  2  1  0  0  0
  2  3  1  0  0  0
  3  4  1  0  0  0
  4  5  1  0  0  0
  5  6  1  0  0  0
  6  7  1  0  0  0
  7  8  1  0  0  0
  7 30  1  0  0  0
 30 31  1  0  0  0
 31 32  2  0  0  0
 32 33  1  0  0  0
 33 34  2  0  0  0
 34 35  1  0  0  0
 35 36  2  0  0  0
  7  9  1  0  0  0
  9 10  2  0  0  0
  9 11  1  0  0  0
 21 22  1  0  0  0
 22 23  2  0  0  0
 23 18  1  0  0  0
 11  1  1  0  0  0
 11  4  1  0  0  0
 36 31  1  0  0  0
 24 27  1  0  0  0
 26 28  1  0  0  0
 26 29  1  0  0  0
 13 16  1  0  0  0
  8 12  1  0  0  0
M  END
> <minimizedAffinity>
-8.99044

> <CNNscore>
0.3039692640

> <CNNaffinity>
5.9315323830

> <CNN_VS>
1.8030035496

> <CNNaffinity_variance>
0.2883736193

$$$$
[H]N=C(c1c([H])c([H])c(C([H])([H])N([H])C(=O)C2([H])N3C(=O)[C@](O[H])(C([H])([H])c4c([H])c([H])c([H])c([H])c4[H])C([H])([H])C([H])([H])[C@]3([H])C([H])([H])C2([H])[H])c([H])c1[H])N([H])[H]


 36 39  0  0  0  0  0  0  0  0999 V2000
    5.3747    8.4376   15.7040 C   0  0  0  0  0  0  0  0  0  0  0  0
    4.8033    9.8374   15.6257 C   0  0  0  0  0  0  0  0  0  0  0  0
    3.7634    9.7870   16.7346 C   0  0  0  0  0  0  0  0  0  0  0  0
    4.5477    9.1177   17.8399 C   0  0  0  0  0  0  0  0  0  0  0  0
    3.6535    8.3950   18.8119 C   0  0  0  0  0  0  0  0  0  0  0  0
    4.4347    7.5609   19.7731 C   0  0  0  0  0  0  0  0  0  0  0  0
    5.8849    7.3930   19.4158 C   0  0  0  0  0  0  0  0  0  0  0  0
    6.6318    8.5260   19.7804 O   0  0  0  0  0  0  0  0  0  0  0  0
    5.9797    7.1434   17.9534 C   0  0  0  0  0  0  0  0  0  0  0  0
    6.5309    6.1575   17.4301 O   0  0  0  0  0  0  0  0  0  0  0  0
    5.3763    8.1407   17.1164 N   0  0  0  0  0  0  0  0  0  0  0  0
    6.2023    8.8541   20.6257 H   0  0  0  0  0  0  0  0  0  0  0  0
    4.5040    6.1588   15.2037 N   0  0  0  0  0  0  0  0  0  0  0  0
    4.4068    7.5531   14.9618 C   0  0  0  0  0  0  0  0  0  0  0  0
    3.5638    8.0069   14.1768 O   0  0  0  0  0  0  0  0  0  0  0  0
    5.2215    5.7555   15.8719 H   0  0  0  0  0  0  0  0  0  0  0  0
    3.6433    5.1761   14.5684 C   0  0  0  0  0  0  0  0  0  0  0  0
    3.2280    1.7512   17.0818 C   0  0  0  0  0  0  0  0  0  0  0  0
    3.5356    2.9813   17.5923 C   0  0  0  0  0  0  0  0  0  0  0  0
    3.6780    4.1223   16.8102 C   0  0  0  0  0  0  0  0  0  0  0  0
    3.5013    4.0074   15.4603 C   0  0  0  0  0  0  0  0  0  0  0  0
    3.1918    2.7854   14.9198 C   0  0  0  0  0  0  0  0  0  0  0  0
    3.0499    1.6472   15.7019 C   0  0  0  0  0  0  0  0  0  0  0  0
    2.5246   -0.5267   17.5632 N   0  0  0  0  0  0  0  0  0  0  0  0
    3.0837    0.5682   17.9175 C   0  0  0  0  0  0  0  0  0  0  0  0
    3.5986    0.5869   19.2608 N   0  0  0  0  0  0  0  0  0  0  0  0
    2.1312   -0.6160   16.6142 H   0  0  0  0  0  0  0  0  0  0  0  0
    4.6201    0.6895   19.4378 H   0  0  0  0  0  0  0  0  0  0  0  0
    2.9275    0.4957   20.0537 H   0  0  0  0  0  0  0  0  0  0  0  0
    6.4595    6.2396   20.2040 C   0  0  0  0  0  0  0  0  0  0  0  0
    7.6446    6.5983   20.9799 C   0  0  0  0  0  0  0  0  0  0  0  0
    8.8799    6.8423   20.4129 C   0  0  0  0  0  0  0  0  0  0  0  0
    9.9823    7.1774   21.1830 C   0  0  0  0  0  0  0  0  0  0  0  0
    9.8682    7.2758   22.5522 C   0  0  0  0  0  0  0  0  0  0  0  0
    8.6567    7.0387   23.1318 C   0  0  0  0  0  0  0  0  0  0  0  0
    7.5533    6.7024   22.3515 C   0  0  0  0  0  0  0  0  0  0  0  0
 24 25  2  0  0  0
 25 26  1  0  0  0
 25 18  1  0  0  0
 18 19  2  0  0  0
 19 20  1  0  0  0
 20 21  2  0  0  0
 21 17  1  0  0  0
 17 13  1  0  0  0
 13 14  1  0  0  0
 14 15  2  0  0  0
 14  1  1  0  0  0
  1  2  1  0  0  0
  2  3  1  0  0  0
  3  4  1  0  0  0
  4  5  1  0  0  0
  5  6  1  0  0  0
  6  7  1  0  0  0
  7  8  1  0  0  0
  7 30  1  0  0  0
 30 31  1  0  0  0
 31 32  2  0  0  0
 32 33  1  0  0  0
 33 34  2  0  0  0
 34 35  1  0  0  0
 35 36  2  0  0  0
  7  9  1  0  0  0
  9 10  2  0  0  0
  9 11  1  0  0  0
 21 22  1  0  0  0
 22 23  2  0  0  0
 23 18  1  0  0  0
 11  1  1  0  0  0
 11  4  1  0  0  0
 36 31  1  0  0  0
 24 27  1  0  0  0
 26 28  1  0  0  0
 26 29  1  0  0  0
 13 16  1  0  0  0
  8 12  1  0  0  0
M  END
> <minimizedAffinity>
-7.70868

> <CNNscore>
0.2878790200

> <CNNaffinity>
5.7190222740

> <CNN_VS>
1.6463865042

> <CNNaffinity_variance>
0.2579032779

$$$$
[H]N=C(c1c([H])c([H])c(C([H])([H])N([H])C(=O)C2([H])N3C(=O)[C@](O[H])(C([H])([H])c4c([H])c([H])c([H])c([H])c4[H])C([H])([H])C([H])([H])[C@]3([H])C([H])([H])C2([H])[H])c([H])c1[H])N([H])[H]


 36 39  0  0  0  0  0  0  0  0999 V2000
    6.9629    8.5112   21.0467 C   0  0  0  0  0  0  0  0  0  0  0  0
    5.8040    9.4855   21.0442 C   0  0  0  0  0  0  0  0  0  0  0  0
    4.7106    8.6316   20.4205 C   0  0  0  0  0  0  0  0  0  0  0  0
    4.8879    7.3338   21.1750 C   0  0  0  0  0  0  0  0  0  0  0  0
    4.3914    6.1492   20.3895 C   0  0  0  0  0  0  0  0  0  0  0  0
    4.7606    4.8561   21.0386 C   0  0  0  0  0  0  0  0  0  0  0  0
    5.7585    4.9829   22.1554 C   0  0  0  0  0  0  0  0  0  0  0  0
    5.1400    5.4108   23.3423 O   0  0  0  0  0  0  0  0  0  0  0  0
    6.8138    5.9405   21.7322 C   0  0  0  0  0  0  0  0  0  0  0  0
    8.0335    5.6935   21.7018 O   0  0  0  0  0  0  0  0  0  0  0  0
    6.3471    7.2385   21.3362 N   0  0  0  0  0  0  0  0  0  0  0  0
    4.2315    4.9855   23.3249 H   0  0  0  0  0  0  0  0  0  0  0  0
    7.0642    9.5688   18.7945 N   0  0  0  0  0  0  0  0  0  0  0  0
    7.5295    8.5381   19.6509 C   0  0  0  0  0  0  0  0  0  0  0  0
    8.3598    7.7084   19.2574 O   0  0  0  0  0  0  0  0  0  0  0  0
    6.3525   10.2855   19.1168 H   0  0  0  0  0  0  0  0  0  0  0  0
    7.5142    9.7315   17.4229 C   0  0  0  0  0  0  0  0  0  0  0  0
    4.2327    8.8897   14.8263 C   0  0  0  0  0  0  0  0  0  0  0  0
    5.5251    8.6608   14.4447 C   0  0  0  0  0  0  0  0  0  0  0  0
    6.6223    8.9187   15.2593 C   0  0  0  0  0  0  0  0  0  0  0  0
    6.3962    9.4278   16.5068 C   0  0  0  0  0  0  0  0  0  0  0  0
    5.1095    9.6676   16.9170 C   0  0  0  0  0  0  0  0  0  0  0  0
    4.0152    9.4096   16.1027 C   0  0  0  0  0  0  0  0  0  0  0  0
    1.8925    8.4311   14.3483 N   0  0  0  0  0  0  0  0  0  0  0  0
    3.0973    8.6135   13.9584 C   0  0  0  0  0  0  0  0  0  0  0  0
    3.3007    8.5305   12.5365 N   0  0  0  0  0  0  0  0  0  0  0  0
    1.6684    8.4754   15.3539 H   0  0  0  0  0  0  0  0  0  0  0  0
    3.6188    9.3617   11.9950 H   0  0  0  0  0  0  0  0  0  0  0  0
    3.1228    7.6205   12.0594 H   0  0  0  0  0  0  0  0  0  0  0  0
    6.3443    3.6228   22.4537 C   0  0  0  0  0  0  0  0  0  0  0  0
    5.4311    2.5197   22.1635 C   0  0  0  0  0  0  0  0  0  0  0  0
    4.3311    2.2179   22.9422 C   0  0  0  0  0  0  0  0  0  0  0  0
    3.4891    1.1607   22.6360 C   0  0  0  0  0  0  0  0  0  0  0  0
    3.7348    0.3753   21.5312 C   0  0  0  0  0  0  0  0  0  0  0  0
    4.8161    0.6568   20.7492 C   0  0  0  0  0  0  0  0  0  0  0  0
    5.6579    1.7210   21.0631 C   0  0  0  0  0  0  0  0  0  0  0  0
 24 25  2  0  0  0
 25 26  1  0  0  0
 25 18  1  0  0  0
 18 19  2  0  0  0
 19 20  1  0  0  0
 20 21  2  0  0  0
 21 17  1  0  0  0
 17 13  1  0  0  0
 13 14  1  0  0  0
 14 15  2  0  0  0
 14  1  1  0  0  0
  1  2  1  0  0  0
  2  3  1  0  0  0
  3  4  1  0  0  0
  4  5  1  0  0  0
  5  6  1  0  0  0
  6  7  1  0  0  0
  7  8  1  0  0  0
  7 30  1  0  0  0
 30 31  1  0  0  0
 31 32  2  0  0  0
 32 33  1  0  0  0
 33 34  2  0  0  0
 34 35  1  0  0  0
 35 36  2  0  0  0
  7  9  1  0  0  0
  9 10  2  0  0  0
  9 11  1  0  0  0
 21 22  1  0  0  0
 22 23  2  0  0  0
 23 18  1  0  0  0
 11  1  1  0  0  0
 11  4  1  0  0  0
 36 31  1  0  0  0
 24 27  1  0  0  0
 26 28  1  0  0  0
 26 29  1  0  0  0
 13 16  1  0  0  0
  8 12  1  0  0  0
M  END
> <minimizedAffinity>
-9.00123

> <CNNscore>
0.2865117192

> <CNNaffinity>
5.5976967812

> <CNN_VS>
1.6038057804

> <CNNaffinity_variance>
0.0424309187

$$$$
[H]N=C(c1c([H])c([H])c(C([H])([H])N([H])C(=O)C2([H])N3C(=O)[C@](O[H])(C([H])([H])c4c([H])c([H])c([H])c([H])c4[H])C([H])([H])C([H])([H])[C@]3([H])C([H])([H])C2([H])[H])c([H])c1[H])N([H])[H]


 36 39  0  0  0  0  0  0  0  0999 V2000
    1.6808    5.8831    9.8758 C   0  0  0  0  0  0  0  0  0  0  0  0
    2.2641    5.1215    8.7045 C   0  0  0  0  0  0  0  0  0  0  0  0
    3.6441    4.7763    9.2432 C   0  0  0  0  0  0  0  0  0  0  0  0
    3.3028    4.3029   10.6376 C   0  0  0  0  0  0  0  0  0  0  0  0
    4.4545    4.4744   11.5921 C   0  0  0  0  0  0  0  0  0  0  0  0
    4.0509    4.2100   13.0052 C   0  0  0  0  0  0  0  0  0  0  0  0
    2.5669    4.1042   13.2193 C   0  0  0  0  0  0  0  0  0  0  0  0
    2.0881    2.8394   12.8380 O   0  0  0  0  0  0  0  0  0  0  0  0
    1.9043    5.1802   12.4363 C   0  0  0  0  0  0  0  0  0  0  0  0
    1.1349    6.0379   12.9078 O   0  0  0  0  0  0  0  0  0  0  0  0
    2.2018    5.1951   11.0326 N   0  0  0  0  0  0  0  0  0  0  0  0
    2.8279    2.2042   13.0743 H   0  0  0  0  0  0  0  0  0  0  0  0
    2.0556    7.9513    8.5401 N   0  0  0  0  0  0  0  0  0  0  0  0
    2.2342    7.2811    9.7775 C   0  0  0  0  0  0  0  0  0  0  0  0
    2.8181    7.8296   10.7214 O   0  0  0  0  0  0  0  0  0  0  0  0
    1.5590    7.4940    7.7227 H   0  0  0  0  0  0  0  0  0  0  0  0
    2.5289    9.3011    8.2874 C   0  0  0  0  0  0  0  0  0  0  0  0
    5.5472    9.2230    5.2702 C   0  0  0  0  0  0  0  0  0  0  0  0
    4.3176    8.6612    5.0681 C   0  0  0  0  0  0  0  0  0  0  0  0
    3.3061    8.6662    6.0224 C   0  0  0  0  0  0  0  0  0  0  0  0
    3.5548    9.2640    7.2255 C   0  0  0  0  0  0  0  0  0  0  0  0
    4.7797    9.8362    7.4565 C   0  0  0  0  0  0  0  0  0  0  0  0
    5.7886    9.8305    6.5029 C   0  0  0  0  0  0  0  0  0  0  0  0
    6.4985    8.6686    3.1016 N   0  0  0  0  0  0  0  0  0  0  0  0
    6.5935    9.2069    4.2584 C   0  0  0  0  0  0  0  0  0  0  0  0
    7.8558    9.8374    4.5395 N   0  0  0  0  0  0  0  0  0  0  0  0
    5.6234    8.1972    2.8275 H   0  0  0  0  0  0  0  0  0  0  0  0
    7.9131   10.8648    4.7017 H   0  0  0  0  0  0  0  0  0  0  0  0
    8.7124    9.2439    4.5774 H   0  0  0  0  0  0  0  0  0  0  0  0
    2.2677    4.2396   14.6937 C   0  0  0  0  0  0  0  0  0  0  0  0
    2.8554    3.1771   15.5066 C   0  0  0  0  0  0  0  0  0  0  0  0
    2.3941    1.8754   15.5060 C   0  0  0  0  0  0  0  0  0  0  0  0
    2.9764    0.8952   16.2938 C   0  0  0  0  0  0  0  0  0  0  0  0
    4.0446    1.2027   17.1075 C   0  0  0  0  0  0  0  0  0  0  0  0
    4.5153    2.4826   17.1226 C   0  0  0  0  0  0  0  0  0  0  0  0
    3.9250    3.4624   16.3281 C   0  0  0  0  0  0  0  0  0  0  0  0
 24 25  2  0  0  0
 25 26  1  0  0  0
 25 18  1  0  0  0
 18 19  2  0  0  0
 19 20  1  0  0  0
 20 21  2  0  0  0
 21 17  1  0  0  0
 17 13  1  0  0  0
 13 14  1  0  0  0
 14 15  2  0  0  0
 14  1  1  0  0  0
  1  2  1  0  0  0
  2  3  1  0  0  0
  3  4  1  0  0  0
  4  5  1  0  0  0
  5  6  1  0  0  0
  6  7  1  0  0  0
  7  8  1  0  0  0
  7 30  1  0  0  0
 30 31  1  0  0  0
 31 32  2  0  0  0
 32 33  1  0  0  0
 33 34  2  0  0  0
 34 35  1  0  0  0
 35 36  2  0  0  0
  7  9  1  0  0  0
  9 10  2  0  0  0
  9 11  1  0  0  0
 21 22  1  0  0  0
 22 23  2  0  0  0
 23 18  1  0  0  0
 11  1  1  0  0  0
 11  4  1  0  0  0
 36 31  1  0  0  0
 24 27  1  0  0  0
 26 28  1  0  0  0
 26 29  1  0  0  0
 13 16  1  0  0  0
  8 12  1  0  0  0
M  END
> <minimizedAffinity>
-7.21561

> <CNNscore>
0.2811028361

> <CNNaffinity>
4.7041602135

> <CNN_VS>
1.3223527670

> <CNNaffinity_variance>
0.3014867306

$$$$
[H]N=C(c1c([H])c([H])c(C([H])([H])N([H])C(=O)C2([H])N3C(=O)[C@](O[H])(C([H])([H])c4c([H])c([H])c([H])c([H])c4[H])C([H])([H])C([H])([H])[C@]3([H])C([H])([H])C2([H])[H])c([H])c1[H])N([H])[H]


 36 39  0  0  0  0  0  0  0  0999 V2000
    5.3073    8.4563   15.7467 C   0  0  0  0  0  0  0  0  0  0  0  0
    4.6868    9.8371   15.7724 C   0  0  0  0  0  0  0  0  0  0  0  0
    3.6885    9.6836   16.9097 C   0  0  0  0  0  0  0  0  0  0  0  0
    4.5329    8.9779   17.9459 C   0  0  0  0  0  0  0  0  0  0  0  0
    3.6979    8.1672   18.9011 C   0  0  0  0  0  0  0  0  0  0  0  0
    4.5396    7.3056   19.7836 C   0  0  0  0  0  0  0  0  0  0  0  0
    5.9814    7.2110   19.3693 C   0  0  0  0  0  0  0  0  0  0  0  0
    6.7021    8.3461   19.7775 O   0  0  0  0  0  0  0  0  0  0  0  0
    6.0333    7.0526   17.8922 C   0  0  0  0  0  0  0  0  0  0  0  0
    6.5988    6.1199   17.2921 O   0  0  0  0  0  0  0  0  0  0  0  0
    5.3680    8.0760   17.1376 N   0  0  0  0  0  0  0  0  0  0  0  0
    6.2915    8.6077   20.6548 H   0  0  0  0  0  0  0  0  0  0  0  0
    4.4871    6.1821   15.1492 N   0  0  0  0  0  0  0  0  0  0  0  0
    4.3442    7.5838   14.9842 C   0  0  0  0  0  0  0  0  0  0  0  0
    3.4674    8.0530   14.2468 O   0  0  0  0  0  0  0  0  0  0  0  0
    5.2338    5.7657   15.7759 H   0  0  0  0  0  0  0  0  0  0  0  0
    3.6369    5.2091   14.4853 C   0  0  0  0  0  0  0  0  0  0  0  0
    3.1972    1.7403   16.9335 C   0  0  0  0  0  0  0  0  0  0  0  0
    3.4504    2.9705   17.4730 C   0  0  0  0  0  0  0  0  0  0  0  0
    3.5985    4.1254   16.7128 C   0  0  0  0  0  0  0  0  0  0  0  0
    3.4851    4.0250   15.3549 C   0  0  0  0  0  0  0  0  0  0  0  0
    3.2311    2.8033   14.7855 C   0  0  0  0  0  0  0  0  0  0  0  0
    3.0835    1.6512   15.5458 C   0  0  0  0  0  0  0  0  0  0  0  0
    2.5437   -0.5651   17.3496 N   0  0  0  0  0  0  0  0  0  0  0  0
    3.0459    0.5427   17.7467 C   0  0  0  0  0  0  0  0  0  0  0  0
    3.4847    0.5607   19.1168 N   0  0  0  0  0  0  0  0  0  0  0  0
    2.2067   -0.6548   16.3792 H   0  0  0  0  0  0  0  0  0  0  0  0
    4.4909    0.6938   19.3516 H   0  0  0  0  0  0  0  0  0  0  0  0
    2.7741    0.4375   19.8699 H   0  0  0  0  0  0  0  0  0  0  0  0
    6.6215    6.0338   20.0667 C   0  0  0  0  0  0  0  0  0  0  0  0
    5.7008    5.2985   20.9308 C   0  0  0  0  0  0  0  0  0  0  0  0
    5.3371    5.7254   22.1929 C   0  0  0  0  0  0  0  0  0  0  0  0
    4.4625    4.9983   22.9846 C   0  0  0  0  0  0  0  0  0  0  0  0
    3.9286    3.8153   22.5230 C   0  0  0  0  0  0  0  0  0  0  0  0
    4.2751    3.3762   21.2791 C   0  0  0  0  0  0  0  0  0  0  0  0
    5.1547    4.1124   20.4891 C   0  0  0  0  0  0  0  0  0  0  0  0
 24 25  2  0  0  0
 25 26  1  0  0  0
 25 18  1  0  0  0
 18 19  2  0  0  0
 19 20  1  0  0  0
 20 21  2  0  0  0
 21 17  1  0  0  0
 17 13  1  0  0  0
 13 14  1  0  0  0
 14 15  2  0  0  0
 14  1  1  0  0  0
  1  2  1  0  0  0
  2  3  1  0  0  0
  3  4  1  0  0  0
  4  5  1  0  0  0
  5  6  1  0  0  0
  6  7  1  0  0  0
  7  8  1  0  0  0
  7 30  1  0  0  0
 30 31  1  0  0  0
 31 32  2  0  0  0
 32 33  1  0  0  0
 33 34  2  0  0  0
 34 35  1  0  0  0
 35 36  2  0  0  0
  7  9  1  0  0  0
  9 10  2  0  0  0
  9 11  1  0  0  0
 21 22  1  0  0  0
 22 23  2  0  0  0
 23 18  1  0  0  0
 11  1  1  0  0  0
 11  4  1  0  0  0
 36 31  1  0  0  0
 24 27  1  0  0  0
 26 28  1  0  0  0
 26 29  1  0  0  0
 13 16  1  0  0  0
  8 12  1  0  0  0
M  END
> <minimizedAffinity>
-8.32347

> <CNNscore>
0.2710920870

> <CNNaffinity>
5.8146762848

> <CNN_VS>
1.5763127804

> <CNNaffinity_variance>
0.4282160699

$$$$
[H]N=C(c1c([H])c([H])c(C([H])([H])N([H])C(=O)C2([H])N3C(=O)[C@](O[H])(C([H])([H])c4c([H])c([H])c([H])c([H])c4[H])C([H])([H])C([H])([H])[C@]3([H])C([H])([H])C2([H])[H])c([H])c1[H])N([H])[H]


 36 39  0  0  0  0  0  0  0  0999 V2000
    2.4180    6.0619   13.8353 C   0  0  0  0  0  0  0  0  0  0  0  0
    1.0137    6.0495   13.2695 C   0  0  0  0  0  0  0  0  0  0  0  0
    0.9401    4.6365   12.7113 C   0  0  0  0  0  0  0  0  0  0  0  0
    1.5363    3.8414   13.8502 C   0  0  0  0  0  0  0  0  0  0  0  0
    2.1480    2.5486   13.3797 C   0  0  0  0  0  0  0  0  0  0  0  0
    2.9205    1.8711   14.4632 C   0  0  0  0  0  0  0  0  0  0  0  0
    3.1601    2.7193   15.6806 C   0  0  0  0  0  0  0  0  0  0  0  0
    2.0226    2.7569   16.5047 O   0  0  0  0  0  0  0  0  0  0  0  0
    3.5348    4.0859   15.2312 C   0  0  0  0  0  0  0  0  0  0  0  0
    4.5770    4.6848   15.5549 O   0  0  0  0  0  0  0  0  0  0  0  0
    2.5945    4.7283   14.3580 N   0  0  0  0  0  0  0  0  0  0  0  0
    1.6120    1.8459   16.4153 H   0  0  0  0  0  0  0  0  0  0  0  0
    4.3666    5.3674   12.4488 N   0  0  0  0  0  0  0  0  0  0  0  0
    3.3333    6.3149   12.6655 C   0  0  0  0  0  0  0  0  0  0  0  0
    3.2022    7.2965   11.9227 O   0  0  0  0  0  0  0  0  0  0  0  0
    4.4921    4.5229   13.0772 H   0  0  0  0  0  0  0  0  0  0  0  0
    5.3280    5.4683   11.3646 C   0  0  0  0  0  0  0  0  0  0  0  0
    5.0679    1.9180    9.0093 C   0  0  0  0  0  0  0  0  0  0  0  0
    6.2261    2.6391    9.0927 C   0  0  0  0  0  0  0  0  0  0  0  0
    6.3546    3.7988    9.8492 C   0  0  0  0  0  0  0  0  0  0  0  0
    5.2654    4.2408   10.5456 C   0  0  0  0  0  0  0  0  0  0  0  0
    4.0896    3.5375   10.4809 C   0  0  0  0  0  0  0  0  0  0  0  0
    3.9629    2.3798    9.7252 C   0  0  0  0  0  0  0  0  0  0  0  0
    4.0130    0.4500    7.3822 N   0  0  0  0  0  0  0  0  0  0  0  0
    4.9534    0.7063    8.2111 C   0  0  0  0  0  0  0  0  0  0  0  0
    5.9594   -0.3151    8.3318 N   0  0  0  0  0  0  0  0  0  0  0  0
    3.2551    1.1349    7.2413 H   0  0  0  0  0  0  0  0  0  0  0  0
    6.9456   -0.1261    8.0546 H   0  0  0  0  0  0  0  0  0  0  0  0
    5.6804   -1.2489    8.7027 H   0  0  0  0  0  0  0  0  0  0  0  0
    4.2591    2.0976   16.5097 C   0  0  0  0  0  0  0  0  0  0  0  0
    3.7644    1.3363   17.6545 C   0  0  0  0  0  0  0  0  0  0  0  0
    2.9089    0.2583   17.5389 C   0  0  0  0  0  0  0  0  0  0  0  0
    2.4587   -0.4376   18.6495 C   0  0  0  0  0  0  0  0  0  0  0  0
    2.8607   -0.0633   19.9128 C   0  0  0  0  0  0  0  0  0  0  0  0
    3.7054    0.9987   20.0486 C   0  0  0  0  0  0  0  0  0  0  0  0
    4.1537    1.6933   18.9278 C   0  0  0  0  0  0  0  0  0  0  0  0
 24 25  2  0  0  0
 25 26  1  0  0  0
 25 18  1  0  0  0
 18 19  2  0  0  0
 19 20  1  0  0  0
 20 21  2  0  0  0
 21 17  1  0  0  0
 17 13  1  0  0  0
 13 14  1  0  0  0
 14 15  2  0  0  0
 14  1  1  0  0  0
  1  2  1  0  0  0
  2  3  1  0  0  0
  3  4  1  0  0  0
  4  5  1  0  0  0
  5  6  1  0  0  0
  6  7  1  0  0  0
  7  8  1  0  0  0
  7 30  1  0  0  0
 30 31  1  0  0  0
 31 32  2  0  0  0
 32 33  1  0  0  0
 33 34  2  0  0  0
 34 35  1  0  0  0
 35 36  2  0  0  0
  7  9  1  0  0  0
  9 10  2  0  0  0
  9 11  1  0  0  0
 21 22  1  0  0  0
 22 23  2  0  0  0
 23 18  1  0  0  0
 11  1  1  0  0  0
 11  4  1  0  0  0
 36 31  1  0  0  0
 24 27  1  0  0  0
 26 28  1  0  0  0
 26 29  1  0  0  0
 13 16  1  0  0  0
  8 12  1  0  0  0
M  END
> <minimizedAffinity>
-7.20526

> <CNNscore>
0.2674152255

> <CNNaffinity>
5.5076932907

> <CNN_VS>
1.4728410244

> <CNNaffinity_variance>
0.0751238912

$$$$
[H]c1c(OC([H])([H])[H])c(C([H])([H])N(C([H])([H])[H])C([H])([H])[H])c([H])c(OC([H])([H])[H])c1-c1c([H])n(C([H])([H])[H])c(=O)c2c([H])c([H])c([H])c([H])c12


 26 28  0  0  0  0  0  0  0  0999 V2000
    4.5842    5.9886   19.4991 C   0  0  0  0  0  0  0  0  0  0  0  0
    4.6155    4.7555   18.8032 C   0  0  0  0  0  0  0  0  0  0  0  0
    5.1812    3.5352   19.4022 C   0  0  0  0  0  0  0  0  0  0  0  0
    5.6842    3.6199   20.6097 C   0  0  0  0  0  0  0  0  0  0  0  0
    5.7326    4.8421   21.3280 C   0  0  0  0  0  0  0  0  0  0  0  0
    5.2115    5.8996   20.7681 C   0  0  0  0  0  0  0  0  0  0  0  0
    4.7265    2.3687   18.6427 C   0  0  0  0  0  0  0  0  0  0  0  0
    4.5586    2.5070   17.2110 C   0  0  0  0  0  0  0  0  0  0  0  0
    3.6881    1.7100   16.4992 N   0  0  0  0  0  0  0  0  0  0  0  0
    3.4189    1.8086   15.1237 C   0  0  0  0  0  0  0  0  0  0  0  0
    3.1039    0.8835   17.3194 C   0  0  0  0  0  0  0  0  0  0  0  0
    2.2264    0.0979   16.5119 O   0  0  0  0  0  0  0  0  0  0  0  0
    3.0277    0.5421   18.5229 C   0  0  0  0  0  0  0  0  0  0  0  0
    2.2241   -0.4560   19.1079 C   0  0  0  0  0  0  0  0  0  0  0  0
    2.5301   -0.4803   20.5833 C   0  0  0  0  0  0  0  0  0  0  0  0
    3.2810    0.1911   21.1706 C   0  0  0  0  0  0  0  0  0  0  0  0
    4.1168    1.2333   20.6136 C   0  0  0  0  0  0  0  0  0  0  0  0
    3.9679    1.3809   19.3208 C   0  0  0  0  0  0  0  0  0  0  0  0
    3.6227    8.2548   18.8047 C   0  0  0  0  0  0  0  0  0  0  0  0
    4.0615    7.1262   19.1833 O   0  0  0  0  0  0  0  0  0  0  0  0
    6.1912    2.4901   21.3056 O   0  0  0  0  0  0  0  0  0  0  0  0
    6.2580    2.7926   22.7027 C   0  0  0  0  0  0  0  0  0  0  0  0
    5.1088    7.2065   21.4916 C   0  0  0  0  0  0  0  0  0  0  0  0
    6.1018    8.1351   21.5917 N   0  0  0  0  0  0  0  0  0  0  0  0
    5.5402    9.4498   21.8183 C   0  0  0  0  0  0  0  0  0  0  0  0
    7.4223    8.1396   21.2914 C   0  0  0  0  0  0  0  0  0  0  0  0
 19 20  1  0  0  0
 20  1  1  0  0  0
  1  2  2  0  0  0
  2  3  1  0  0  0
  3  7  1  0  0  0
  7  8  2  0  0  0
  8  9  1  0  0  0
  9 10  1  0  0  0
  9 11  1  0  0  0
 11 12  2  0  0  0
 11 13  1  0  0  0
 13 14  2  0  0  0
 14 15  1  0  0  0
 15 16  2  0  0  0
 16 17  1  0  0  0
 17 18  2  0  0  0
  3  4  2  0  0  0
  4 21  1  0  0  0
 21 22  1  0  0  0
  4  5  1  0  0  0
  5  6  2  0  0  0
  6 23  1  0  0  0
 23 24  1  0  0  0
 24 25  1  0  0  0
 24 26  1  0  0  0
  6  1  1  0  0  0
 18  7  1  0  0  0
 18 13  1  0  0  0
M  END
> <minimizedAffinity>
-7.92375

> <CNNscore>
0.6758124828

> <CNNaffinity>
6.3582792282

> <CNN_VS>
4.2970046997

> <CNNaffinity_variance>
0.1738536954

$$$$
[H]c1c(OC([H])([H])[H])c(C([H])([H])N(C([H])([H])[H])C([H])([H])[H])c([H])c(OC([H])([H])[H])c1-c1c([H])n(C([H])([H])[H])c(=O)c2c([H])c([H])c([H])c([H])c12


 26 28  0  0  0  0  0  0  0  0999 V2000
    6.1499    6.3850   19.1498 C   0  0  0  0  0  0  0  0  0  0  0  0
    5.7410    5.0655   19.4621 C   0  0  0  0  0  0  0  0  0  0  0  0
    4.3978    4.5644   19.1264 C   0  0  0  0  0  0  0  0  0  0  0  0
    3.5641    5.3879   18.5389 C   0  0  0  0  0  0  0  0  0  0  0  0
    3.9010    6.7367   18.2572 C   0  0  0  0  0  0  0  0  0  0  0  0
    5.1046    7.1407   18.5599 C   0  0  0  0  0  0  0  0  0  0  0  0
    4.3961    3.1019   19.1972 C   0  0  0  0  0  0  0  0  0  0  0  0
    4.1187    2.3582   17.9859 C   0  0  0  0  0  0  0  0  0  0  0  0
    3.5931    1.0845   18.0173 N   0  0  0  0  0  0  0  0  0  0  0  0
    3.2407    0.3114   16.8982 C   0  0  0  0  0  0  0  0  0  0  0  0
    3.4166    0.7298   19.2583 C   0  0  0  0  0  0  0  0  0  0  0  0
    2.8756   -0.5907   19.2066 O   0  0  0  0  0  0  0  0  0  0  0  0
    3.5374    1.1160   20.4445 C   0  0  0  0  0  0  0  0  0  0  0  0
    3.2143    0.4318   21.6326 C   0  0  0  0  0  0  0  0  0  0  0  0
    3.5766    1.3291   22.7878 C   0  0  0  0  0  0  0  0  0  0  0  0
    4.0349    2.4006   22.7467 C   0  0  0  0  0  0  0  0  0  0  0  0
    4.3719    3.1441   21.5515 C   0  0  0  0  0  0  0  0  0  0  0  0
    4.1150    2.4911   20.4457 C   0  0  0  0  0  0  0  0  0  0  0  0
    8.4321    7.4880   19.4925 C   0  0  0  0  0  0  0  0  0  0  0  0
    7.2929    6.9710   19.2815 O   0  0  0  0  0  0  0  0  0  0  0  0
    2.2706    4.9865   18.1104 O   0  0  0  0  0  0  0  0  0  0  0  0
    2.2176    5.0281   16.6810 C   0  0  0  0  0  0  0  0  0  0  0  0
    5.5931    8.5085   18.1963 C   0  0  0  0  0  0  0  0  0  0  0  0
    5.6841    9.0049   16.9298 N   0  0  0  0  0  0  0  0  0  0  0  0
    4.5376    9.8367   16.6318 C   0  0  0  0  0  0  0  0  0  0  0  0
    6.4480    8.7056   15.8524 C   0  0  0  0  0  0  0  0  0  0  0  0
 19 20  1  0  0  0
 20  1  1  0  0  0
  1  2  2  0  0  0
  2  3  1  0  0  0
  3  7  1  0  0  0
  7  8  2  0  0  0
  8  9  1  0  0  0
  9 10  1  0  0  0
  9 11  1  0  0  0
 11 12  2  0  0  0
 11 13  1  0  0  0
 13 14  2  0  0  0
 14 15  1  0  0  0
 15 16  2  0  0  0
 16 17  1  0  0  0
 17 18  2  0  0  0
  3  4  2  0  0  0
  4 21  1  0  0  0
 21 22  1  0  0  0
  4  5  1  0  0  0
  5  6  2  0  0  0
  6 23  1  0  0  0
 23 24  1  0  0  0
 24 25  1  0  0  0
 24 26  1  0  0  0
  6  1  1  0  0  0
 18  7  1  0  0  0
 18 13  1  0  0  0
M  END
> <minimizedAffinity>
-7.59444

> <CNNscore>
0.6742362380

> <CNNaffinity>
5.8387041092

> <CNN_VS>
3.9366660118

> <CNNaffinity_variance>
0.1593489945

$$$$
[H]c1c(OC([H])([H])[H])c(C([H])([H])N(C([H])([H])[H])C([H])([H])[H])c([H])c(OC([H])([H])[H])c1-c1c([H])n(C([H])([H])[H])c(=O)c2c([H])c([H])c([H])c([H])c12


 26 28  0  0  0  0  0  0  0  0999 V2000
    3.5545    2.8318   16.0932 C   0  0  0  0  0  0  0  0  0  0  0  0
    3.9918    2.3545   17.3528 C   0  0  0  0  0  0  0  0  0  0  0  0
    4.9301    3.1166   18.1936 C   0  0  0  0  0  0  0  0  0  0  0  0
    5.3775    4.2597   17.7338 C   0  0  0  0  0  0  0  0  0  0  0  0
    5.0190    4.7561   16.4543 C   0  0  0  0  0  0  0  0  0  0  0  0
    4.1767    4.0574   15.7431 C   0  0  0  0  0  0  0  0  0  0  0  0
    4.8867    2.5948   19.5610 C   0  0  0  0  0  0  0  0  0  0  0  0
    4.6593    1.1765   19.7456 C   0  0  0  0  0  0  0  0  0  0  0  0
    4.1001    0.6726   20.9002 N   0  0  0  0  0  0  0  0  0  0  0  0
    3.7919   -0.6762   21.1451 C   0  0  0  0  0  0  0  0  0  0  0  0
    3.8444    1.6587   21.7122 C   0  0  0  0  0  0  0  0  0  0  0  0
    3.2734    1.0594   22.8757 O   0  0  0  0  0  0  0  0  0  0  0  0
    3.9077    2.9042   21.8376 C   0  0  0  0  0  0  0  0  0  0  0  0
    3.5002    3.7036   22.9234 C   0  0  0  0  0  0  0  0  0  0  0  0
    3.8195    5.1357   22.5796 C   0  0  0  0  0  0  0  0  0  0  0  0
    4.3069    5.5468   21.6033 C   0  0  0  0  0  0  0  0  0  0  0  0
    4.7301    4.7652   20.4610 C   0  0  0  0  0  0  0  0  0  0  0  0
    4.5195    3.4807   20.6057 C   0  0  0  0  0  0  0  0  0  0  0  0
    1.8389    1.8063   14.4971 C   0  0  0  0  0  0  0  0  0  0  0  0
    2.6844    2.3597   15.2642 O   0  0  0  0  0  0  0  0  0  0  0  0
    6.2305    5.1054   18.4922 O   0  0  0  0  0  0  0  0  0  0  0  0
    6.4915    6.2977   17.7452 C   0  0  0  0  0  0  0  0  0  0  0  0
    3.6476    4.5536   14.4333 C   0  0  0  0  0  0  0  0  0  0  0  0
    2.7711    5.5857   14.2744 N   0  0  0  0  0  0  0  0  0  0  0  0
    3.4501    6.7435   13.7325 C   0  0  0  0  0  0  0  0  0  0  0  0
    1.5184    5.8363   14.7233 C   0  0  0  0  0  0  0  0  0  0  0  0
 19 20  1  0  0  0
 20  1  1  0  0  0
  1  2  2  0  0  0
  2  3  1  0  0  0
  3  7  1  0  0  0
  7  8  2  0  0  0
  8  9  1  0  0  0
  9 10  1  0  0  0
  9 11  1  0  0  0
 11 12  2  0  0  0
 11 13  1  0  0  0
 13 14  2  0  0  0
 14 15  1  0  0  0
 15 16  2  0  0  0
 16 17  1  0  0  0
 17 18  2  0  0  0
  3  4  2  0  0  0
  4 21  1  0  0  0
 21 22  1  0  0  0
  4  5  1  0  0  0
  5  6  2  0  0  0
  6 23  1  0  0  0
 23 24  1  0  0  0
 24 25  1  0  0  0
 24 26  1  0  0  0
  6  1  1  0  0  0
 18  7  1  0  0  0
 18 13  1  0  0  0
M  END
> <minimizedAffinity>
-7.52751

> <CNNscore>
0.5675482750

> <CNNaffinity>
5.9518585205

> <CNN_VS>
3.3779671192

> <CNNaffinity_variance>
0.1763559282

$$$$
[H]c1c(OC([H])([H])[H])c(C([H])([H])N(C([H])([H])[H])C([H])([H])[H])c([H])c(OC([H])([H])[H])c1-c1c([H])n(C([H])([H])[H])c(=O)c2c([H])c([H])c([H])c([H])c12


 26 28  0  0  0  0  0  0  0  0999 V2000
    5.3484    6.3647   21.1243 C   0  0  0  0  0  0  0  0  0  0  0  0
    4.8104    5.2747   20.3976 C   0  0  0  0  0  0  0  0  0  0  0  0
    5.2294    3.8858   20.6494 C   0  0  0  0  0  0  0  0  0  0  0  0
    6.1443    3.6765   21.5645 C   0  0  0  0  0  0  0  0  0  0  0  0
    6.7591    4.7359   22.2797 C   0  0  0  0  0  0  0  0  0  0  0  0
    6.3534    5.9523   22.0363 C   0  0  0  0  0  0  0  0  0  0  0  0
    4.2496    2.9713   20.0596 C   0  0  0  0  0  0  0  0  0  0  0  0
    3.8062    1.8411   20.8492 C   0  0  0  0  0  0  0  0  0  0  0  0
    3.3306    0.6866   20.2657 N   0  0  0  0  0  0  0  0  0  0  0  0
    2.9327   -0.4765   20.9464 C   0  0  0  0  0  0  0  0  0  0  0  0
    3.3647    0.8217   18.9704 C   0  0  0  0  0  0  0  0  0  0  0  0
    2.8588   -0.4052   18.4433 O   0  0  0  0  0  0  0  0  0  0  0  0
    3.6773    1.6087   18.0464 C   0  0  0  0  0  0  0  0  0  0  0  0
    3.5888    1.4146   16.6541 C   0  0  0  0  0  0  0  0  0  0  0  0
    4.0678    2.6780   15.9868 C   0  0  0  0  0  0  0  0  0  0  0  0
    4.4544    3.6542   16.4941 C   0  0  0  0  0  0  0  0  0  0  0  0
    4.5721    3.8929   17.9167 C   0  0  0  0  0  0  0  0  0  0  0  0
    4.1875    2.8754   18.6461 C   0  0  0  0  0  0  0  0  0  0  0  0
    4.8164    8.8641   21.0128 C   0  0  0  0  0  0  0  0  0  0  0  0
    5.0511    7.6212   21.1104 O   0  0  0  0  0  0  0  0  0  0  0  0
    6.5690    2.3722   21.9339 O   0  0  0  0  0  0  0  0  0  0  0  0
    6.1394    2.1019   23.2718 C   0  0  0  0  0  0  0  0  0  0  0  0
    6.8562    7.1242   22.8210 C   0  0  0  0  0  0  0  0  0  0  0  0
    8.1513    7.5471   22.8684 N   0  0  0  0  0  0  0  0  0  0  0  0
    8.6281    7.8580   21.5375 C   0  0  0  0  0  0  0  0  0  0  0  0
    9.1231    7.5049   23.8105 C   0  0  0  0  0  0  0  0  0  0  0  0
 19 20  1  0  0  0
 20  1  1  0  0  0
  1  2  2  0  0  0
  2  3  1  0  0  0
  3  7  1  0  0  0
  7  8  2  0  0  0
  8  9  1  0  0  0
  9 10  1  0  0  0
  9 11  1  0  0  0
 11 12  2  0  0  0
 11 13  1  0  0  0
 13 14  2  0  0  0
 14 15  1  0  0  0
 15 16  2  0  0  0
 16 17  1  0  0  0
 17 18  2  0  0  0
  3  4  2  0  0  0
  4 21  1  0  0  0
 21 22  1  0  0  0
  4  5  1  0  0  0
  5  6  2  0  0  0
  6 23  1  0  0  0
 23 24  1  0  0  0
 24 25  1  0  0  0
 24 26  1  0  0  0
  6  1  1  0  0  0
 18  7  1  0  0  0
 18 13  1  0  0  0
M  END
> <minimizedAffinity>
-7.77495

> <CNNscore>
0.5405309796

> <CNNaffinity>
6.0936403275

> <CNN_VS>
3.2938013077

> <CNNaffinity_variance>
0.2751426101

$$$$
[H]c1c(OC([H])([H])[H])c(C([H])([H])N(C([H])([H])[H])C([H])([H])[H])c([H])c(OC([H])([H])[H])c1-c1c([H])n(C([H])([H])[H])c(=O)c2c([H])c([H])c([H])c([H])c12


 26 28  0  0  0  0  0  0  0  0999 V2000
    6.8196    5.3100   21.8845 C   0  0  0  0  0  0  0  0  0  0  0  0
    6.2476    4.1799   21.2510 C   0  0  0  0  0  0  0  0  0  0  0  0
    4.9596    4.2514   20.5412 C   0  0  0  0  0  0  0  0  0  0  0  0
    4.3303    5.4012   20.5248 C   0  0  0  0  0  0  0  0  0  0  0  0
    4.8284    6.5489   21.1930 C   0  0  0  0  0  0  0  0  0  0  0  0
    5.9784    6.4491   21.8020 C   0  0  0  0  0  0  0  0  0  0  0  0
    4.8210    3.0807   19.6727 C   0  0  0  0  0  0  0  0  0  0  0  0
    4.8075    3.2892   18.2396 C   0  0  0  0  0  0  0  0  0  0  0  0
    4.1902    2.4056   17.3806 N   0  0  0  0  0  0  0  0  0  0  0  0
    4.0782    2.5535   15.9879 C   0  0  0  0  0  0  0  0  0  0  0  0
    3.6699    1.4338   18.0749 C   0  0  0  0  0  0  0  0  0  0  0  0
    3.0554    0.5670   17.1209 O   0  0  0  0  0  0  0  0  0  0  0  0
    3.5101    0.9995   19.2398 C   0  0  0  0  0  0  0  0  0  0  0  0
    2.8358   -0.1622   19.6637 C   0  0  0  0  0  0  0  0  0  0  0  0
    2.9580   -0.2378   21.1638 C   0  0  0  0  0  0  0  0  0  0  0  0
    3.4967    0.5105   21.8776 C   0  0  0  0  0  0  0  0  0  0  0  0
    4.1910    1.7191   21.4878 C   0  0  0  0  0  0  0  0  0  0  0  0
    4.1773    1.9302   20.1953 C   0  0  0  0  0  0  0  0  0  0  0  0
    9.1197    5.6359   22.9548 C   0  0  0  0  0  0  0  0  0  0  0  0
    7.9594    5.4659   22.4708 O   0  0  0  0  0  0  0  0  0  0  0  0
    3.1175    5.5966   19.8114 O   0  0  0  0  0  0  0  0  0  0  0  0
    3.3216    6.5947   18.8064 C   0  0  0  0  0  0  0  0  0  0  0  0
    6.6422    7.6327   22.4346 C   0  0  0  0  0  0  0  0  0  0  0  0
    7.2103    8.6737   21.7622 N   0  0  0  0  0  0  0  0  0  0  0  0
    6.3387    9.8289   21.7941 C   0  0  0  0  0  0  0  0  0  0  0  0
    8.2480    8.7848   20.8992 C   0  0  0  0  0  0  0  0  0  0  0  0
 19 20  1  0  0  0
 20  1  1  0  0  0
  1  2  2  0  0  0
  2  3  1  0  0  0
  3  7  1  0  0  0
  7  8  2  0  0  0
  8  9  1  0  0  0
  9 10  1  0  0  0
  9 11  1  0  0  0
 11 12  2  0  0  0
 11 13  1  0  0  0
 13 14  2  0  0  0
 14 15  1  0  0  0
 15 16  2  0  0  0
 16 17  1  0  0  0
 17 18  2  0  0  0
  3  4  2  0  0  0
  4 21  1  0  0  0
 21 22  1  0  0  0
  4  5  1  0  0  0
  5  6  2  0  0  0
  6 23  1  0  0  0
 23 24  1  0  0  0
 24 25  1  0  0  0
 24 26  1  0  0  0
  6  1  1  0  0  0
 18  7  1  0  0  0
 18 13  1  0  0  0
M  END
> <minimizedAffinity>
-8.00389

> <CNNscore>
0.5030745268

> <CNNaffinity>
6.0282826424

> <CNN_VS>
3.0326755047

> <CNNaffinity_variance>
0.3117129803

$$$$
[H]c1c(OC([H])([H])[H])c(C([H])([H])N(C([H])([H])[H])C([H])([H])[H])c([H])c(OC([H])([H])[H])c1-c1c([H])n(C([H])([H])[H])c(=O)c2c([H])c([H])c([H])c([H])c12


 26 28  0  0  0  0  0  0  0  0999 V2000
    3.7381    3.4309   14.2504 C   0  0  0  0  0  0  0  0  0  0  0  0
    4.0917    3.7072   15.5937 C   0  0  0  0  0  0  0  0  0  0  0  0
    3.5860    2.8993   16.7160 C   0  0  0  0  0  0  0  0  0  0  0  0
    2.7687    1.9116   16.4426 C   0  0  0  0  0  0  0  0  0  0  0  0
    2.3351    1.6282   15.1221 C   0  0  0  0  0  0  0  0  0  0  0  0
    2.8137    2.3596   14.1529 C   0  0  0  0  0  0  0  0  0  0  0  0
    4.4077    3.1514   17.9014 C   0  0  0  0  0  0  0  0  0  0  0  0
    4.8506    2.0145   18.6817 C   0  0  0  0  0  0  0  0  0  0  0  0
    5.1549    2.1246   20.0215 N   0  0  0  0  0  0  0  0  0  0  0  0
    5.5367    1.0704   20.8684 C   0  0  0  0  0  0  0  0  0  0  0  0
    4.9734    3.3588   20.3969 C   0  0  0  0  0  0  0  0  0  0  0  0
    5.3085    3.3908   21.7846 O   0  0  0  0  0  0  0  0  0  0  0  0
    4.6153    4.4919   19.9983 C   0  0  0  0  0  0  0  0  0  0  0  0
    4.5160    5.6930   20.7273 C   0  0  0  0  0  0  0  0  0  0  0  0
    4.0639    6.7685   19.7735 C   0  0  0  0  0  0  0  0  0  0  0  0
    3.8237    6.6641   18.6372 C   0  0  0  0  0  0  0  0  0  0  0  0
    3.9014    5.4506   17.8522 C   0  0  0  0  0  0  0  0  0  0  0  0
    4.2880    4.4090   18.5456 C   0  0  0  0  0  0  0  0  0  0  0  0
    4.5013    4.5691   12.0906 C   0  0  0  0  0  0  0  0  0  0  0  0
    4.1395    3.9598   13.1430 O   0  0  0  0  0  0  0  0  0  0  0  0
    2.2782    1.0289   17.4417 O   0  0  0  0  0  0  0  0  0  0  0  0
    2.6762   -0.3077   17.1211 C   0  0  0  0  0  0  0  0  0  0  0  0
    2.5088    2.0650   12.7169 C   0  0  0  0  0  0  0  0  0  0  0  0
    1.3872    2.4592   12.0496 N   0  0  0  0  0  0  0  0  0  0  0  0
    1.1642    1.6131   10.8966 C   0  0  0  0  0  0  0  0  0  0  0  0
    0.6118    3.5689   12.0822 C   0  0  0  0  0  0  0  0  0  0  0  0
 19 20  1  0  0  0
 20  1  1  0  0  0
  1  2  2  0  0  0
  2  3  1  0  0  0
  3  7  1  0  0  0
  7  8  2  0  0  0
  8  9  1  0  0  0
  9 10  1  0  0  0
  9 11  1  0  0  0
 11 12  2  0  0  0
 11 13  1  0  0  0
 13 14  2  0  0  0
 14 15  1  0  0  0
 15 16  2  0  0  0
 16 17  1  0  0  0
 17 18  2  0  0  0
  3  4  2  0  0  0
  4 21  1  0  0  0
 21 22  1  0  0  0
  4  5  1  0  0  0
  5  6  2  0  0  0
  6 23  1  0  0  0
 23 24  1  0  0  0
 24 25  1  0  0  0
 24 26  1  0  0  0
  6  1  1  0  0  0
 18  7  1  0  0  0
 18 13  1  0  0  0
M  END
> <minimizedAffinity>
-7.10339

> <CNNscore>
0.4087279141

> <CNNaffinity>
5.7483716011

> <CNN_VS>
2.3495199680

> <CNNaffinity_variance>
0.2216037512

$$$$
[H]c1c(OC([H])([H])[H])c(C([H])([H])N(C([H])([H])[H])C([H])([H])[H])c([H])c(OC([H])([H])[H])c1-c1c([H])n(C([H])([H])[H])c(=O)c2c([H])c([H])c([H])c([H])c12


 26 28  0  0  0  0  0  0  0  0999 V2000
    2.6240    2.2426   12.2606 C   0  0  0  0  0  0  0  0  0  0  0  0
    3.3186    2.0662   13.4822 C   0  0  0  0  0  0  0  0  0  0  0  0
    3.0738    2.9278   14.6508 C   0  0  0  0  0  0  0  0  0  0  0  0
    2.1966    3.8942   14.5286 C   0  0  0  0  0  0  0  0  0  0  0  0
    1.5165    4.1527   13.3110 C   0  0  0  0  0  0  0  0  0  0  0  0
    1.7522    3.3607   12.3007 C   0  0  0  0  0  0  0  0  0  0  0  0
    3.6143    2.2820   15.8487 C   0  0  0  0  0  0  0  0  0  0  0  0
    2.9680    1.0779   16.3280 C   0  0  0  0  0  0  0  0  0  0  0  0
    3.0313    0.6940   17.6502 N   0  0  0  0  0  0  0  0  0  0  0  0
    2.3921   -0.4227   18.2149 C   0  0  0  0  0  0  0  0  0  0  0  0
    3.7332    1.5694   18.3121 C   0  0  0  0  0  0  0  0  0  0  0  0
    3.7533    1.1036   19.6618 O   0  0  0  0  0  0  0  0  0  0  0  0
    4.3710    2.6427   18.2012 C   0  0  0  0  0  0  0  0  0  0  0  0
    5.0463    3.3748   19.1972 C   0  0  0  0  0  0  0  0  0  0  0  0
    5.6709    4.5757   18.5350 C   0  0  0  0  0  0  0  0  0  0  0  0
    5.6213    4.8808   17.4107 C   0  0  0  0  0  0  0  0  0  0  0  0
    4.9319    4.1662   16.3576 C   0  0  0  0  0  0  0  0  0  0  0  0
    4.3303    3.0808   16.7762 C   0  0  0  0  0  0  0  0  0  0  0  0
    2.7275    0.8171   10.1394 C   0  0  0  0  0  0  0  0  0  0  0  0
    2.6353    1.5483   11.1720 O   0  0  0  0  0  0  0  0  0  0  0  0
    1.8353    4.7377   15.6129 O   0  0  0  0  0  0  0  0  0  0  0  0
    1.5378    6.0441   15.1101 C   0  0  0  0  0  0  0  0  0  0  0  0
    0.9988    3.4790   11.0122 C   0  0  0  0  0  0  0  0  0  0  0  0
    1.2866    4.3518   10.0051 N   0  0  0  0  0  0  0  0  0  0  0  0
    0.5977    3.9653    8.7922 C   0  0  0  0  0  0  0  0  0  0  0  0
    2.2258    5.3111    9.8285 C   0  0  0  0  0  0  0  0  0  0  0  0
 19 20  1  0  0  0
 20  1  1  0  0  0
  1  2  2  0  0  0
  2  3  1  0  0  0
  3  7  1  0  0  0
  7  8  2  0  0  0
  8  9  1  0  0  0
  9 10  1  0  0  0
  9 11  1  0  0  0
 11 12  2  0  0  0
 11 13  1  0  0  0
 13 14  2  0  0  0
 14 15  1  0  0  0
 15 16  2  0  0  0
 16 17  1  0  0  0
 17 18  2  0  0  0
  3  4  2  0  0  0
  4 21  1  0  0  0
 21 22  1  0  0  0
  4  5  1  0  0  0
  5  6  2  0  0  0
  6 23  1  0  0  0
 23 24  1  0  0  0
 24 25  1  0  0  0
 24 26  1  0  0  0
  6  1  1  0  0  0
 18  7  1  0  0  0
 18 13  1  0  0  0
M  END
> <minimizedAffinity>
-6.19392

> <CNNscore>
0.3974184096

> <CNNaffinity>
5.4953894615

> <CNN_VS>
2.1839690208

> <CNNaffinity_variance>
0.1472602338

$$$$
[H]c1c(OC([H])([H])[H])c(C([H])([H])N(C([H])([H])[H])C([H])([H])[H])c([H])c(OC([H])([H])[H])c1-c1c([H])n(C([H])([H])[H])c(=O)c2c([H])c([H])c([H])c([H])c12


 26 28  0  0  0  0  0  0  0  0999 V2000
    3.5538    2.3427   16.8085 C   0  0  0  0  0  0  0  0  0  0  0  0
    4.0413    2.9264   18.0032 C   0  0  0  0  0  0  0  0  0  0  0  0
    4.5994    4.2886   18.0353 C   0  0  0  0  0  0  0  0  0  0  0  0
    4.6559    4.9560   16.9085 C   0  0  0  0  0  0  0  0  0  0  0  0
    4.2370    4.3978   15.6736 C   0  0  0  0  0  0  0  0  0  0  0  0
    3.7380    3.1919   15.6874 C   0  0  0  0  0  0  0  0  0  0  0  0
    4.6448    4.7595   19.4210 C   0  0  0  0  0  0  0  0  0  0  0  0
    4.5826    6.1862   19.6616 C   0  0  0  0  0  0  0  0  0  0  0  0
    5.1165    6.7576   20.7965 N   0  0  0  0  0  0  0  0  0  0  0  0
    5.1527    8.1317   21.0876 C   0  0  0  0  0  0  0  0  0  0  0  0
    5.6406    5.8214   21.5354 C   0  0  0  0  0  0  0  0  0  0  0  0
    6.1668    6.4882   22.6833 O   0  0  0  0  0  0  0  0  0  0  0  0
    5.8520    4.5877   21.6006 C   0  0  0  0  0  0  0  0  0  0  0  0
    6.5072    3.8567   22.6107 C   0  0  0  0  0  0  0  0  0  0  0  0
    6.4697    2.4025   22.2176 C   0  0  0  0  0  0  0  0  0  0  0  0
    6.0009    1.9308   21.2598 C   0  0  0  0  0  0  0  0  0  0  0  0
    5.3294    2.6429   20.1936 C   0  0  0  0  0  0  0  0  0  0  0  0
    5.2756    3.9369   20.3887 C   0  0  0  0  0  0  0  0  0  0  0  0
    2.2864    0.1567   16.4118 C   0  0  0  0  0  0  0  0  0  0  0  0
    2.9588    1.2163   16.5976 O   0  0  0  0  0  0  0  0  0  0  0  0
    5.1110    6.2999   16.8402 O   0  0  0  0  0  0  0  0  0  0  0  0
    4.2283    7.0505   16.0005 C   0  0  0  0  0  0  0  0  0  0  0  0
    3.1615    2.5619   14.4576 C   0  0  0  0  0  0  0  0  0  0  0  0
    2.0665    3.0086   13.7793 N   0  0  0  0  0  0  0  0  0  0  0  0
    1.2688    1.8914   13.3202 C   0  0  0  0  0  0  0  0  0  0  0  0
    1.7076    4.2020   13.2495 C   0  0  0  0  0  0  0  0  0  0  0  0
 19 20  1  0  0  0
 20  1  1  0  0  0
  1  2  2  0  0  0
  2  3  1  0  0  0
  3  7  1  0  0  0
  7  8  2  0  0  0
  8  9  1  0  0  0
  9 10  1  0  0  0
  9 11  1  0  0  0
 11 12  2  0  0  0
 11 13  1  0  0  0
 13 14  2  0  0  0
 14 15  1  0  0  0
 15 16  2  0  0  0
 16 17  1  0  0  0
 17 18  2  0  0  0
  3  4  2  0  0  0
  4 21  1  0  0  0
 21 22  1  0  0  0
  4  5  1  0  0  0
  5  6  2  0  0  0
  6 23  1  0  0  0
 23 24  1  0  0  0
 24 25  1  0  0  0
 24 26  1  0  0  0
  6  1  1  0  0  0
 18  7  1  0  0  0
 18 13  1  0  0  0
M  END
> <minimizedAffinity>
-7.30792

> <CNNscore>
0.2977010906

> <CNNaffinity>
5.5727376938

> <CNN_VS>
1.6590100527

> <CNNaffinity_variance>
0.2302934378

$$$$
[H]c1c(OC([H])([H])[H])c(C([H])([H])N(C([H])([H])[H])C([H])([H])[H])c([H])c(OC([H])([H])[H])c1-c1c([H])n(C([H])([H])[H])c(=O)c2c([H])c([H])c([H])c([H])c12


 26 28  0  0  0  0  0  0  0  0999 V2000
    2.9024    1.6816   15.7737 C   0  0  0  0  0  0  0  0  0  0  0  0
    2.1932    1.8150   14.5552 C   0  0  0  0  0  0  0  0  0  0  0  0
    2.4942    2.8854   13.5899 C   0  0  0  0  0  0  0  0  0  0  0  0
    3.4376    3.7421   13.8971 C   0  0  0  0  0  0  0  0  0  0  0  0
    4.1381    3.6906   15.1294 C   0  0  0  0  0  0  0  0  0  0  0  0
    3.8506    2.7209   15.9544 C   0  0  0  0  0  0  0  0  0  0  0  0
    1.9058    2.5456   12.2928 C   0  0  0  0  0  0  0  0  0  0  0  0
    2.7272    1.8378   11.3329 C   0  0  0  0  0  0  0  0  0  0  0  0
    2.4981    1.9212    9.9763 N   0  0  0  0  0  0  0  0  0  0  0  0
    3.2732    1.3176    8.9717 C   0  0  0  0  0  0  0  0  0  0  0  0
    1.4774    2.7031    9.7666 C   0  0  0  0  0  0  0  0  0  0  0  0
    1.3045    2.7364    8.3495 O   0  0  0  0  0  0  0  0  0  0  0  0
    0.6230    3.4211   10.3370 C   0  0  0  0  0  0  0  0  0  0  0  0
   -0.4035    4.1962    9.7630 C   0  0  0  0  0  0  0  0  0  0  0  0
   -1.1665    4.8465   10.8880 C   0  0  0  0  0  0  0  0  0  0  0  0
   -0.9703    4.7553   12.0338 C   0  0  0  0  0  0  0  0  0  0  0  0
    0.0766    3.9810   12.6657 C   0  0  0  0  0  0  0  0  0  0  0  0
    0.8376    3.3443   11.8110 C   0  0  0  0  0  0  0  0  0  0  0  0
    2.7413   -0.1740   17.5268 C   0  0  0  0  0  0  0  0  0  0  0  0
    2.8458    0.7754   16.6918 O   0  0  0  0  0  0  0  0  0  0  0  0
    3.8538    4.7692   13.0084 O   0  0  0  0  0  0  0  0  0  0  0  0
    3.2213    5.9968   13.3834 C   0  0  0  0  0  0  0  0  0  0  0  0
    4.6146    2.5128   17.2251 C   0  0  0  0  0  0  0  0  0  0  0  0
    4.2267    2.9406   18.4601 N   0  0  0  0  0  0  0  0  0  0  0  0
    3.6984    4.2860   18.3835 C   0  0  0  0  0  0  0  0  0  0  0  0
    4.4465    2.5015   19.7221 C   0  0  0  0  0  0  0  0  0  0  0  0
 19 20  1  0  0  0
 20  1  1  0  0  0
  1  2  2  0  0  0
  2  3  1  0  0  0
  3  7  1  0  0  0
  7  8  2  0  0  0
  8  9  1  0  0  0
  9 10  1  0  0  0
  9 11  1  0  0  0
 11 12  2  0  0  0
 11 13  1  0  0  0
 13 14  2  0  0  0
 14 15  1  0  0  0
 15 16  2  0  0  0
 16 17  1  0  0  0
 17 18  2  0  0  0
  3  4  2  0  0  0
  4 21  1  0  0  0
 21 22  1  0  0  0
  4  5  1  0  0  0
  5  6  2  0  0  0
  6 23  1  0  0  0
 23 24  1  0  0  0
 24 25  1  0  0  0
 24 26  1  0  0  0
  6  1  1  0  0  0
 18  7  1  0  0  0
 18 13  1  0  0  0
M  END
> <minimizedAffinity>
-5.92359

> <CNNscore>
0.2427617460

> <CNNaffinity>
5.0022330284

> <CNN_VS>
1.2143508196

> <CNNaffinity_variance>
0.3504817486

$$$$
[H]c1nc([H])c(N([H])C(=O)c2nn(-c3c([H])c([H])c([H])c([H])c3Cl)c(-c3c([H])c([H])c(Cl)c([H])c3[H])c2C([H])([H])C(=O)N([H])[H])c(C([H])([H])[H])c1[H]


 36 39  0  0  0  0  0  0  0  0999 V2000
    2.2148    1.8953    9.0128 C   0  0  0  0  0  0  0  0  0  0  0  0
    3.5020    1.7117    8.6812 N   0  0  0  0  0  0  0  0  0  0  0  0
    4.0848    2.8681    8.3411 N   0  0  0  0  0  0  0  0  0  0  0  0
    3.1705    3.8830    8.4412 C   0  0  0  0  0  0  0  0  0  0  0  0
    2.0110    3.2669    8.8629 C   0  0  0  0  0  0  0  0  0  0  0  0
    5.4338    2.8907    7.9249 C   0  0  0  0  0  0  0  0  0  0  0  0
    5.7733    2.4687    6.6607 C   0  0  0  0  0  0  0  0  0  0  0  0
    7.1079    2.4575    6.2376 C   0  0  0  0  0  0  0  0  0  0  0  0
    8.1178    2.8733    7.0883 C   0  0  0  0  0  0  0  0  0  0  0  0
    7.7741    3.2937    8.3495 C   0  0  0  0  0  0  0  0  0  0  0  0
    6.4630    3.3047    8.7653 C   0  0  0  0  0  0  0  0  0  0  0  0
    6.0106    3.8377   10.3686 Cl  0  0  0  0  0  0  0  0  0  0  0  0
    3.3958    5.2544    8.0124 C   0  0  0  0  0  0  0  0  0  0  0  0
    3.9259    6.2473    8.7966 C   0  0  0  0  0  0  0  0  0  0  0  0
    4.2408    7.5245    8.3504 C   0  0  0  0  0  0  0  0  0  0  0  0
    4.0145    7.8468    7.0365 C   0  0  0  0  0  0  0  0  0  0  0  0
    4.4191    9.4601    6.5001 Cl  0  0  0  0  0  0  0  0  0  0  0  0
    3.4887    6.9028    6.2117 C   0  0  0  0  0  0  0  0  0  0  0  0
    3.1794    5.6209    6.6788 C   0  0  0  0  0  0  0  0  0  0  0  0
    0.8624   -0.0911    8.4662 N   0  0  0  0  0  0  0  0  0  0  0  0
    1.2675    0.8574    9.4281 C   0  0  0  0  0  0  0  0  0  0  0  0
    0.8451    0.8233   10.5821 O   0  0  0  0  0  0  0  0  0  0  0  0
    1.3057    0.0486    7.4947 H   0  0  0  0  0  0  0  0  0  0  0  0
    1.9810   -2.5648    9.0543 C   0  0  0  0  0  0  0  0  0  0  0  0
    0.5195   -2.4310    8.9180 C   0  0  0  0  0  0  0  0  0  0  0  0
   -0.2867   -3.5388    9.0864 C   0  0  0  0  0  0  0  0  0  0  0  0
   -1.6513   -3.4566    8.9635 C   0  0  0  0  0  0  0  0  0  0  0  0
   -2.1577   -2.2553    8.6741 N   0  0  0  0  0  0  0  0  0  0  0  0
   -1.3850   -1.1360    8.5009 C   0  0  0  0  0  0  0  0  0  0  0  0
   -0.0206   -1.1693    8.6135 C   0  0  0  0  0  0  0  0  0  0  0  0
    0.7071    3.9045    9.2267 C   0  0  0  0  0  0  0  0  0  0  0  0
    0.8041    4.2570   10.6962 C   0  0  0  0  0  0  0  0  0  0  0  0
    0.0782    3.4639   11.6012 N   0  0  0  0  0  0  0  0  0  0  0  0
    1.4943    5.2051   11.0879 O   0  0  0  0  0  0  0  0  0  0  0  0
   -0.9656    3.2905   11.5237 H   0  0  0  0  0  0  0  0  0  0  0  0
    0.5217    2.9757   12.4356 H   0  0  0  0  0  0  0  0  0  0  0  0
 24 25  1  0  0  0
 25 26  2  0  0  0
 26 27  1  0  0  0
 27 28  2  0  0  0
 28 29  1  0  0  0
 29 30  2  0  0  0
 30 20  1  0  0  0
 20 21  1  0  0  0
 21 22  2  0  0  0
 21  1  1  0  0  0
  1  2  2  0  0  0
  2  3  1  0  0  0
  3  6  1  0  0  0
  6  7  2  0  0  0
  7  8  1  0  0  0
  8  9  2  0  0  0
  9 10  1  0  0  0
 10 11  2  0  0  0
 11 12  1  0  0  0
  3  4  1  0  0  0
  4 13  1  0  0  0
 13 14  2  0  0  0
 14 15  1  0  0  0
 15 16  2  0  0  0
 16 17  1  0  0  0
 16 18  1  0  0  0
 18 19  2  0  0  0
  4  5  2  0  0  0
  5 31  1  0  0  0
 31 32  1  0  0  0
 32 33  1  0  0  0
 32 34  2  0  0  0
 30 25  1  0  0  0
  5  1  1  0  0  0
 11  6  1  0  0  0
 19 13  1  0  0  0
 20 23  1  0  0  0
 33 35  1  0  0  0
 33 36  1  0  0  0
M  END
> <minimizedAffinity>
-4.22795

> <CNNscore>
0.5594540238

> <CNNaffinity>
6.1993818283

> <CNN_VS>
3.4682691097

> <CNNaffinity_variance>
0.8480358124

$$$$
[H]c1nc([H])c(N([H])C(=O)c2nn(-c3c([H])c([H])c([H])c([H])c3Cl)c(-c3c([H])c([H])c(Cl)c([H])c3[H])c2C([H])([H])C(=O)N([H])[H])c(C([H])([H])[H])c1[H]


 36 39  0  0  0  0  0  0  0  0999 V2000
    4.2811    4.2421    8.1850 C   0  0  0  0  0  0  0  0  0  0  0  0
    3.3984    3.2320    8.1509 N   0  0  0  0  0  0  0  0  0  0  0  0
    2.3592    3.4687    8.9612 N   0  0  0  0  0  0  0  0  0  0  0  0
    2.5298    4.6812    9.5747 C   0  0  0  0  0  0  0  0  0  0  0  0
    3.7276    5.1553    9.0821 C   0  0  0  0  0  0  0  0  0  0  0  0
    1.3303    2.5115    9.0983 C   0  0  0  0  0  0  0  0  0  0  0  0
    0.1778    2.6259    8.3565 C   0  0  0  0  0  0  0  0  0  0  0  0
   -0.8657    1.7031    8.4971 C   0  0  0  0  0  0  0  0  0  0  0  0
   -0.7573    0.6512    9.3906 C   0  0  0  0  0  0  0  0  0  0  0  0
    0.3951    0.5410   10.1291 C   0  0  0  0  0  0  0  0  0  0  0  0
    1.4203    1.4477    9.9911 C   0  0  0  0  0  0  0  0  0  0  0  0
    2.8938    1.3197   10.9248 Cl  0  0  0  0  0  0  0  0  0  0  0  0
    1.6818    5.2080   10.6324 C   0  0  0  0  0  0  0  0  0  0  0  0
    0.6861    6.1348   10.4549 C   0  0  0  0  0  0  0  0  0  0  0  0
   -0.1921    6.5521   11.4469 C   0  0  0  0  0  0  0  0  0  0  0  0
   -0.0790    6.0187   12.7055 C   0  0  0  0  0  0  0  0  0  0  0  0
   -1.1958    6.5604   13.9357 Cl  0  0  0  0  0  0  0  0  0  0  0  0
    0.8911    5.0962   12.9412 C   0  0  0  0  0  0  0  0  0  0  0  0
    1.7657    4.6868   11.9290 C   0  0  0  0  0  0  0  0  0  0  0  0
    6.6888    3.7464    8.0099 N   0  0  0  0  0  0  0  0  0  0  0  0
    5.5377    4.3243    7.4356 C   0  0  0  0  0  0  0  0  0  0  0  0
    5.5761    4.8818    6.3407 O   0  0  0  0  0  0  0  0  0  0  0  0
    6.5207    3.2887    8.9702 H   0  0  0  0  0  0  0  0  0  0  0  0
    8.4591    5.7129    8.8556 C   0  0  0  0  0  0  0  0  0  0  0  0
    8.9099    4.6709    7.9157 C   0  0  0  0  0  0  0  0  0  0  0  0
   10.2136    4.6777    7.4621 C   0  0  0  0  0  0  0  0  0  0  0  0
   10.6709    3.7277    6.5832 C   0  0  0  0  0  0  0  0  0  0  0  0
    9.7942    2.8001    6.1907 N   0  0  0  0  0  0  0  0  0  0  0  0
    8.4933    2.7652    6.6222 C   0  0  0  0  0  0  0  0  0  0  0  0
    7.9923    3.6910    7.4982 C   0  0  0  0  0  0  0  0  0  0  0  0
    4.3695    6.4826    9.3374 C   0  0  0  0  0  0  0  0  0  0  0  0
    4.8181    6.4644   10.7837 C   0  0  0  0  0  0  0  0  0  0  0  0
    5.7246    5.4614   11.1674 N   0  0  0  0  0  0  0  0  0  0  0  0
    4.4047    7.2981   11.5977 O   0  0  0  0  0  0  0  0  0  0  0  0
    5.5524    4.4254   11.0167 H   0  0  0  0  0  0  0  0  0  0  0  0
    6.6555    5.6655   11.6398 H   0  0  0  0  0  0  0  0  0  0  0  0
 24 25  1  0  0  0
 25 26  2  0  0  0
 26 27  1  0  0  0
 27 28  2  0  0  0
 28 29  1  0  0  0
 29 30  2  0  0  0
 30 20  1  0  0  0
 20 21  1  0  0  0
 21 22  2  0  0  0
 21  1  1  0  0  0
  1  2  2  0  0  0
  2  3  1  0  0  0
  3  6  1  0  0  0
  6  7  2  0  0  0
  7  8  1  0  0  0
  8  9  2  0  0  0
  9 10  1  0  0  0
 10 11  2  0  0  0
 11 12  1  0  0  0
  3  4  1  0  0  0
  4 13  1  0  0  0
 13 14  2  0  0  0
 14 15  1  0  0  0
 15 16  2  0  0  0
 16 17  1  0  0  0
 16 18  1  0  0  0
 18 19  2  0  0  0
  4  5  2  0  0  0
  5 31  1  0  0  0
 31 32  1  0  0  0
 32 33  1  0  0  0
 32 34  2  0  0  0
 30 25  1  0  0  0
  5  1  1  0  0  0
 11  6  1  0  0  0
 19 13  1  0  0  0
 20 23  1  0  0  0
 33 35  1  0  0  0
 33 36  1  0  0  0
M  END
> <minimizedAffinity>
-4.52824

> <CNNscore>
0.4327790141

> <CNNaffinity>
6.0952997208

> <CNN_VS>
2.6379177570

> <CNNaffinity_variance>
0.8564895391

$$$$
[H]c1nc([H])c(N([H])C(=O)c2nn(-c3c([H])c([H])c([H])c([H])c3Cl)c(-c3c([H])c([H])c(Cl)c([H])c3[H])c2C([H])([H])C(=O)N([H])[H])c(C([H])([H])[H])c1[H]


 36 39  0  0  0  0  0  0  0  0999 V2000
    2.8192    4.4919   14.0962 C   0  0  0  0  0  0  0  0  0  0  0  0
    3.9324    5.1684   13.7742 N   0  0  0  0  0  0  0  0  0  0  0  0
    3.8481    5.6816   12.5405 N   0  0  0  0  0  0  0  0  0  0  0  0
    2.6378    5.3487   11.9929 C   0  0  0  0  0  0  0  0  0  0  0  0
    2.0041    4.6109   12.9707 C   0  0  0  0  0  0  0  0  0  0  0  0
    4.9313    6.4038   11.9938 C   0  0  0  0  0  0  0  0  0  0  0  0
    5.0729    7.7450   12.2632 C   0  0  0  0  0  0  0  0  0  0  0  0
    6.1242    8.4854   11.7093 C   0  0  0  0  0  0  0  0  0  0  0  0
    7.0472    7.8785   10.8748 C   0  0  0  0  0  0  0  0  0  0  0  0
    6.9018    6.5393   10.6087 C   0  0  0  0  0  0  0  0  0  0  0  0
    5.8690    5.8118   11.1528 C   0  0  0  0  0  0  0  0  0  0  0  0
    5.6716    4.1055   10.8228 Cl  0  0  0  0  0  0  0  0  0  0  0  0
    2.2470    5.6026   10.6151 C   0  0  0  0  0  0  0  0  0  0  0  0
    1.6852    6.7677   10.1582 C   0  0  0  0  0  0  0  0  0  0  0  0
    1.4156    7.0459    8.8242 C   0  0  0  0  0  0  0  0  0  0  0  0
    1.7200    6.1067    7.8722 C   0  0  0  0  0  0  0  0  0  0  0  0
    1.3711    6.4810    6.2012 Cl  0  0  0  0  0  0  0  0  0  0  0  0
    2.2777    4.9313    8.2663 C   0  0  0  0  0  0  0  0  0  0  0  0
    2.5435    4.6694    9.6146 C   0  0  0  0  0  0  0  0  0  0  0  0
    3.1458    2.5227   15.5417 N   0  0  0  0  0  0  0  0  0  0  0  0
    2.5610    3.7929   15.3579 C   0  0  0  0  0  0  0  0  0  0  0  0
    1.8550    4.3068   16.2232 O   0  0  0  0  0  0  0  0  0  0  0  0
    3.7418    2.1868   14.7099 H   0  0  0  0  0  0  0  0  0  0  0  0
    4.8720    3.0103   17.6627 C   0  0  0  0  0  0  0  0  0  0  0  0
    3.9119    1.8943   17.7359 C   0  0  0  0  0  0  0  0  0  0  0  0
    3.8751    1.0975   18.8626 C   0  0  0  0  0  0  0  0  0  0  0  0
    2.9989    0.0462   18.9677 C   0  0  0  0  0  0  0  0  0  0  0  0
    2.1869   -0.1660   17.9290 N   0  0  0  0  0  0  0  0  0  0  0  0
    2.1983    0.6065   16.7963 C   0  0  0  0  0  0  0  0  0  0  0  0
    3.0540    1.6650   16.6461 C   0  0  0  0  0  0  0  0  0  0  0  0
    0.6120    4.0626   12.9562 C   0  0  0  0  0  0  0  0  0  0  0  0
    0.7279    2.6264   12.4902 C   0  0  0  0  0  0  0  0  0  0  0  0
    0.4405    2.3586   11.1409 N   0  0  0  0  0  0  0  0  0  0  0  0
    1.0621    1.7221   13.2644 O   0  0  0  0  0  0  0  0  0  0  0  0
   -0.4702    2.6305   10.6695 H   0  0  0  0  0  0  0  0  0  0  0  0
    1.1166    1.8613   10.4876 H   0  0  0  0  0  0  0  0  0  0  0  0
 24 25  1  0  0  0
 25 26  2  0  0  0
 26 27  1  0  0  0
 27 28  2  0  0  0
 28 29  1  0  0  0
 29 30  2  0  0  0
 30 20  1  0  0  0
 20 21  1  0  0  0
 21 22  2  0  0  0
 21  1  1  0  0  0
  1  2  2  0  0  0
  2  3  1  0  0  0
  3  6  1  0  0  0
  6  7  2  0  0  0
  7  8  1  0  0  0
  8  9  2  0  0  0
  9 10  1  0  0  0
 10 11  2  0  0  0
 11 12  1  0  0  0
  3  4  1  0  0  0
  4 13  1  0  0  0
 13 14  2  0  0  0
 14 15  1  0  0  0
 15 16  2  0  0  0
 16 17  1  0  0  0
 16 18  1  0  0  0
 18 19  2  0  0  0
  4  5  2  0  0  0
  5 31  1  0  0  0
 31 32  1  0  0  0
 32 33  1  0  0  0
 32 34  2  0  0  0
 30 25  1  0  0  0
  5  1  1  0  0  0
 11  6  1  0  0  0
 19 13  1  0  0  0
 20 23  1  0  0  0
 33 35  1  0  0  0
 33 36  1  0  0  0
M  END
> <minimizedAffinity>
-6.12527

> <CNNscore>
0.3387018442

> <CNNaffinity>
6.4099183083

> <CNN_VS>
2.1710512638

> <CNNaffinity_variance>
0.2501639724

$$$$
[H]c1nc([H])c(N([H])C(=O)c2nn(-c3c([H])c([H])c([H])c([H])c3Cl)c(-c3c([H])c([H])c(Cl)c([H])c3[H])c2C([H])([H])C(=O)N([H])[H])c(C([H])([H])[H])c1[H]


 36 39  0  0  0  0  0  0  0  0999 V2000
    4.5848    6.4279    7.3074 C   0  0  0  0  0  0  0  0  0  0  0  0
    3.6483    5.5029    7.0468 N   0  0  0  0  0  0  0  0  0  0  0  0
    2.7563    5.4222    8.0420 N   0  0  0  0  0  0  0  0  0  0  0  0
    3.0874    6.3204    9.0214 C   0  0  0  0  0  0  0  0  0  0  0  0
    4.2252    6.9431    8.5526 C   0  0  0  0  0  0  0  0  0  0  0  0
    1.7039    4.4828    7.9810 C   0  0  0  0  0  0  0  0  0  0  0  0
    0.4813    4.8482    7.4678 C   0  0  0  0  0  0  0  0  0  0  0  0
   -0.5834    3.9401    7.4232 C   0  0  0  0  0  0  0  0  0  0  0  0
   -0.4256    2.6491    7.8976 C   0  0  0  0  0  0  0  0  0  0  0  0
    0.7968    2.2888    8.4090 C   0  0  0  0  0  0  0  0  0  0  0  0
    1.8428    3.1809    8.4529 C   0  0  0  0  0  0  0  0  0  0  0  0
    3.4051    2.7358    9.1013 Cl  0  0  0  0  0  0  0  0  0  0  0  0
    2.4380    6.4173   10.3192 C   0  0  0  0  0  0  0  0  0  0  0  0
    1.3823    7.2432   10.6114 C   0  0  0  0  0  0  0  0  0  0  0  0
    0.6958    7.2523   11.8189 C   0  0  0  0  0  0  0  0  0  0  0  0
    1.0793    6.3861   12.8108 C   0  0  0  0  0  0  0  0  0  0  0  0
    0.1996    6.4173   14.3206 Cl  0  0  0  0  0  0  0  0  0  0  0  0
    2.1211    5.5442   12.5788 C   0  0  0  0  0  0  0  0  0  0  0  0
    2.7996    5.5482   11.3554 C   0  0  0  0  0  0  0  0  0  0  0  0
    5.6184    7.9525    5.6701 N   0  0  0  0  0  0  0  0  0  0  0  0
    5.7193    6.7820    6.4503 C   0  0  0  0  0  0  0  0  0  0  0  0
    6.7236    6.0737    6.4199 O   0  0  0  0  0  0  0  0  0  0  0  0
    4.6888    8.4832    5.7889 H   0  0  0  0  0  0  0  0  0  0  0  0
    4.8463    8.1960    3.0129 C   0  0  0  0  0  0  0  0  0  0  0  0
    6.1869    8.6410    3.4342 C   0  0  0  0  0  0  0  0  0  0  0  0
    7.0519    9.1797    2.5030 C   0  0  0  0  0  0  0  0  0  0  0  0
    8.3098    9.6017    2.8544 C   0  0  0  0  0  0  0  0  0  0  0  0
    8.6532    9.4654    4.1376 N   0  0  0  0  0  0  0  0  0  0  0  0
    7.8181    8.9348    5.0867 C   0  0  0  0  0  0  0  0  0  0  0  0
    6.5552    8.5006    4.7837 C   0  0  0  0  0  0  0  0  0  0  0  0
    4.9756    8.0807    9.1706 C   0  0  0  0  0  0  0  0  0  0  0  0
    5.9467    7.4622   10.1542 C   0  0  0  0  0  0  0  0  0  0  0  0
    7.1073    6.8674    9.6306 N   0  0  0  0  0  0  0  0  0  0  0  0
    5.7298    7.4783   11.3714 O   0  0  0  0  0  0  0  0  0  0  0  0
    7.0950    6.1113    8.8865 H   0  0  0  0  0  0  0  0  0  0  0  0
    8.0896    7.1310    9.9418 H   0  0  0  0  0  0  0  0  0  0  0  0
 24 25  1  0  0  0
 25 26  2  0  0  0
 26 27  1  0  0  0
 27 28  2  0  0  0
 28 29  1  0  0  0
 29 30  2  0  0  0
 30 20  1  0  0  0
 20 21  1  0  0  0
 21 22  2  0  0  0
 21  1  1  0  0  0
  1  2  2  0  0  0
  2  3  1  0  0  0
  3  6  1  0  0  0
  6  7  2  0  0  0
  7  8  1  0  0  0
  8  9  2  0  0  0
  9 10  1  0  0  0
 10 11  2  0  0  0
 11 12  1  0  0  0
  3  4  1  0  0  0
  4 13  1  0  0  0
 13 14  2  0  0  0
 14 15  1  0  0  0
 15 16  2  0  0  0
 16 17  1  0  0  0
 16 18  1  0  0  0
 18 19  2  0  0  0
  4  5  2  0  0  0
  5 31  1  0  0  0
 31 32  1  0  0  0
 32 33  1  0  0  0
 32 34  2  0  0  0
 30 25  1  0  0  0
  5  1  1  0  0  0
 11  6  1  0  0  0
 19 13  1  0  0  0
 20 23  1  0  0  0
 33 35  1  0  0  0
 33 36  1  0  0  0
M  END
> <minimizedAffinity>
-4.86229

> <CNNscore>
0.3334077299

> <CNNaffinity>
6.2026925087

> <CNN_VS>
2.0680255890

> <CNNaffinity_variance>
1.0477623940

$$$$
[H]c1nc([H])c(N([H])C(=O)c2nn(-c3c([H])c([H])c([H])c([H])c3Cl)c(-c3c([H])c([H])c(Cl)c([H])c3[H])c2C([H])([H])C(=O)N([H])[H])c(C([H])([H])[H])c1[H]


 36 39  0  0  0  0  0  0  0  0999 V2000
    2.7502    3.0809   12.8601 C   0  0  0  0  0  0  0  0  0  0  0  0
    3.3097    2.5472   11.7634 N   0  0  0  0  0  0  0  0  0  0  0  0
    3.5370    3.4813   10.8315 N   0  0  0  0  0  0  0  0  0  0  0  0
    3.1211    4.6992   11.2998 C   0  0  0  0  0  0  0  0  0  0  0  0
    2.6359    4.4391   12.5643 C   0  0  0  0  0  0  0  0  0  0  0  0
    4.0917    3.1224    9.5836 C   0  0  0  0  0  0  0  0  0  0  0  0
    5.4545    3.1489    9.4007 C   0  0  0  0  0  0  0  0  0  0  0  0
    6.0232    2.8231    8.1635 C   0  0  0  0  0  0  0  0  0  0  0  0
    5.2203    2.4658    7.0938 C   0  0  0  0  0  0  0  0  0  0  0  0
    3.8602    2.4408    7.2811 C   0  0  0  0  0  0  0  0  0  0  0  0
    3.3014    2.7610    8.4965 C   0  0  0  0  0  0  0  0  0  0  0  0
    1.5709    2.7332    8.7496 Cl  0  0  0  0  0  0  0  0  0  0  0  0
    3.0715    5.9225   10.5146 C   0  0  0  0  0  0  0  0  0  0  0  0
    4.1519    6.7171   10.2262 C   0  0  0  0  0  0  0  0  0  0  0  0
    4.1188    7.8227    9.3858 C   0  0  0  0  0  0  0  0  0  0  0  0
    2.9345    8.1712    8.7883 C   0  0  0  0  0  0  0  0  0  0  0  0
    2.9193    9.5660    7.7355 Cl  0  0  0  0  0  0  0  0  0  0  0  0
    1.8289    7.4208    9.0383 C   0  0  0  0  0  0  0  0  0  0  0  0
    1.8817    6.3096    9.8866 C   0  0  0  0  0  0  0  0  0  0  0  0
    3.3523    2.0925   15.0359 N   0  0  0  0  0  0  0  0  0  0  0  0
    2.3565    2.3603   14.0737 C   0  0  0  0  0  0  0  0  0  0  0  0
    1.1913    2.0048   14.2384 O   0  0  0  0  0  0  0  0  0  0  0  0
    4.3306    2.4575   14.7719 H   0  0  0  0  0  0  0  0  0  0  0  0
    4.8929    3.0482   17.1405 C   0  0  0  0  0  0  0  0  0  0  0  0
    3.9945    1.8982   17.3481 C   0  0  0  0  0  0  0  0  0  0  0  0
    3.9226    1.3033   18.5916 C   0  0  0  0  0  0  0  0  0  0  0  0
    3.1019    0.2280   18.8245 C   0  0  0  0  0  0  0  0  0  0  0  0
    2.3792   -0.2117   17.7912 N   0  0  0  0  0  0  0  0  0  0  0  0
    2.4275    0.3567   16.5444 C   0  0  0  0  0  0  0  0  0  0  0  0
    3.2306    1.4301   16.2648 C   0  0  0  0  0  0  0  0  0  0  0  0
    2.1335    5.4172   13.5790 C   0  0  0  0  0  0  0  0  0  0  0  0
    3.3314    5.8086   14.4187 C   0  0  0  0  0  0  0  0  0  0  0  0
    4.2130    6.7630   13.8831 N   0  0  0  0  0  0  0  0  0  0  0  0
    3.5290    5.3097   15.5326 O   0  0  0  0  0  0  0  0  0  0  0  0
    4.6789    6.6651   12.9350 H   0  0  0  0  0  0  0  0  0  0  0  0
    4.4811    7.6591   14.3895 H   0  0  0  0  0  0  0  0  0  0  0  0
 24 25  1  0  0  0
 25 26  2  0  0  0
 26 27  1  0  0  0
 27 28  2  0  0  0
 28 29  1  0  0  0
 29 30  2  0  0  0
 30 20  1  0  0  0
 20 21  1  0  0  0
 21 22  2  0  0  0
 21  1  1  0  0  0
  1  2  2  0  0  0
  2  3  1  0  0  0
  3  6  1  0  0  0
  6  7  2  0  0  0
  7  8  1  0  0  0
  8  9  2  0  0  0
  9 10  1  0  0  0
 10 11  2  0  0  0
 11 12  1  0  0  0
  3  4  1  0  0  0
  4 13  1  0  0  0
 13 14  2  0  0  0
 14 15  1  0  0  0
 15 16  2  0  0  0
 16 17  1  0  0  0
 16 18  1  0  0  0
 18 19  2  0  0  0
  4  5  2  0  0  0
  5 31  1  0  0  0
 31 32  1  0  0  0
 32 33  1  0  0  0
 32 34  2  0  0  0
 30 25  1  0  0  0
  5  1  1  0  0  0
 11  6  1  0  0  0
 19 13  1  0  0  0
 20 23  1  0  0  0
 33 35  1  0  0  0
 33 36  1  0  0  0
M  END
> <minimizedAffinity>
-6.20709

> <CNNscore>
0.2849397659

> <CNNaffinity>
6.3748297691

> <CNN_VS>
1.8164424896

> <CNNaffinity_variance>
0.1159929186

$$$$
[H]c1nc([H])c(N([H])C(=O)c2nn(-c3c([H])c([H])c([H])c([H])c3Cl)c(-c3c([H])c([H])c(Cl)c([H])c3[H])c2C([H])([H])C(=O)N([H])[H])c(C([H])([H])[H])c1[H]


 36 39  0  0  0  0  0  0  0  0999 V2000
    3.8356    4.1471    9.8737 C   0  0  0  0  0  0  0  0  0  0  0  0
    3.1486    3.1051    9.3809 N   0  0  0  0  0  0  0  0  0  0  0  0
    1.8297    3.2785    9.5327 N   0  0  0  0  0  0  0  0  0  0  0  0
    1.5985    4.4788   10.1503 C   0  0  0  0  0  0  0  0  0  0  0  0
    2.8535    5.0125   10.3552 C   0  0  0  0  0  0  0  0  0  0  0  0
    0.9265    2.2789    9.1101 C   0  0  0  0  0  0  0  0  0  0  0  0
    0.4353    2.2907    7.8255 C   0  0  0  0  0  0  0  0  0  0  0  0
   -0.4820    1.3247    7.3945 C   0  0  0  0  0  0  0  0  0  0  0  0
   -0.9151    0.3330    8.2579 C   0  0  0  0  0  0  0  0  0  0  0  0
   -0.4220    0.3251    9.5394 C   0  0  0  0  0  0  0  0  0  0  0  0
    0.4791    1.2741    9.9629 C   0  0  0  0  0  0  0  0  0  0  0  0
    1.1157    1.2763   11.5921 Cl  0  0  0  0  0  0  0  0  0  0  0  0
    0.3002    4.9423   10.6140 C   0  0  0  0  0  0  0  0  0  0  0  0
   -0.6644    5.5064    9.8183 C   0  0  0  0  0  0  0  0  0  0  0  0
   -1.9422    5.8459   10.2444 C   0  0  0  0  0  0  0  0  0  0  0  0
   -2.2935    5.6146   11.5499 C   0  0  0  0  0  0  0  0  0  0  0  0
   -3.9068    6.0508   12.0610 Cl  0  0  0  0  0  0  0  0  0  0  0  0
   -1.3774    5.0586   12.3862 C   0  0  0  0  0  0  0  0  0  0  0  0
   -0.0954    4.7217   11.9386 C   0  0  0  0  0  0  0  0  0  0  0  0
    5.9654    4.3441    8.6495 N   0  0  0  0  0  0  0  0  0  0  0  0
    5.2930    4.2989    9.8884 C   0  0  0  0  0  0  0  0  0  0  0  0
    5.9010    4.3837   10.9534 O   0  0  0  0  0  0  0  0  0  0  0  0
    5.3182    4.2607    7.7927 H   0  0  0  0  0  0  0  0  0  0  0  0
    7.2885    2.1350    7.6078 C   0  0  0  0  0  0  0  0  0  0  0  0
    8.0290    3.3830    7.8657 C   0  0  0  0  0  0  0  0  0  0  0  0
    9.3791    3.4469    7.5848 C   0  0  0  0  0  0  0  0  0  0  0  0
   10.1049    4.5889    7.8147 C   0  0  0  0  0  0  0  0  0  0  0  0
    9.4416    5.6311    8.3218 N   0  0  0  0  0  0  0  0  0  0  0  0
    8.1019    5.6003    8.6116 C   0  0  0  0  0  0  0  0  0  0  0  0
    7.3371    4.4843    8.3994 C   0  0  0  0  0  0  0  0  0  0  0  0
    3.2051    6.3558   10.9128 C   0  0  0  0  0  0  0  0  0  0  0  0
    3.0867    7.3350    9.7638 C   0  0  0  0  0  0  0  0  0  0  0  0
    1.9068    8.0936    9.6789 N   0  0  0  0  0  0  0  0  0  0  0  0
    3.9913    7.4644    8.9309 O   0  0  0  0  0  0  0  0  0  0  0  0
    0.9353    7.6677    9.6565 H   0  0  0  0  0  0  0  0  0  0  0  0
    1.8981    9.1561    9.6305 H   0  0  0  0  0  0  0  0  0  0  0  0
 24 25  1  0  0  0
 25 26  2  0  0  0
 26 27  1  0  0  0
 27 28  2  0  0  0
 28 29  1  0  0  0
 29 30  2  0  0  0
 30 20  1  0  0  0
 20 21  1  0  0  0
 21 22  2  0  0  0
 21  1  1  0  0  0
  1  2  2  0  0  0
  2  3  1  0  0  0
  3  6  1  0  0  0
  6  7  2  0  0  0
  7  8  1  0  0  0
  8  9  2  0  0  0
  9 10  1  0  0  0
 10 11  2  0  0  0
 11 12  1  0  0  0
  3  4  1  0  0  0
  4 13  1  0  0  0
 13 14  2  0  0  0
 14 15  1  0  0  0
 15 16  2  0  0  0
 16 17  1  0  0  0
 16 18  1  0  0  0
 18 19  2  0  0  0
  4  5  2  0  0  0
  5 31  1  0  0  0
 31 32  1  0  0  0
 32 33  1  0  0  0
 32 34  2  0  0  0
 30 25  1  0  0  0
  5  1  1  0  0  0
 11  6  1  0  0  0
 19 13  1  0  0  0
 20 23  1  0  0  0
 33 35  1  0  0  0
 33 36  1  0  0  0
M  END
> <minimizedAffinity>
-5.04012

> <CNNscore>
0.2816540599

> <CNNaffinity>
5.9952445030

> <CNN_VS>
1.6885849237

> <CNNaffinity_variance>
0.5938662291

$$$$
[H]c1nc([H])c(N([H])C(=O)c2nn(-c3c([H])c([H])c([H])c([H])c3Cl)c(-c3c([H])c([H])c(Cl)c([H])c3[H])c2C([H])([H])C(=O)N([H])[H])c(C([H])([H])[H])c1[H]


 36 39  0  0  0  0  0  0  0  0999 V2000
    5.1291    3.9526    8.7190 C   0  0  0  0  0  0  0  0  0  0  0  0
    4.0262    3.2167    8.5118 N   0  0  0  0  0  0  0  0  0  0  0  0
    3.2550    3.1805    9.6057 N   0  0  0  0  0  0  0  0  0  0  0  0
    3.8443    3.9149   10.6002 C   0  0  0  0  0  0  0  0  0  0  0  0
    5.0085    4.3934   10.0367 C   0  0  0  0  0  0  0  0  0  0  0  0
    2.0595    2.4293    9.6098 C   0  0  0  0  0  0  0  0  0  0  0  0
    0.8530    3.0506    9.3862 C   0  0  0  0  0  0  0  0  0  0  0  0
   -0.3464    2.3289    9.4130 C   0  0  0  0  0  0  0  0  0  0  0  0
   -0.3416    0.9679    9.6665 C   0  0  0  0  0  0  0  0  0  0  0  0
    0.8652    0.3519    9.8891 C   0  0  0  0  0  0  0  0  0  0  0  0
    2.0437    1.0608    9.8630 C   0  0  0  0  0  0  0  0  0  0  0  0
    3.5880    0.2894   10.1445 Cl  0  0  0  0  0  0  0  0  0  0  0  0
    3.3755    3.9852   11.9752 C   0  0  0  0  0  0  0  0  0  0  0  0
    3.6002    3.0295   12.9333 C   0  0  0  0  0  0  0  0  0  0  0  0
    3.2459    3.1517   14.2709 C   0  0  0  0  0  0  0  0  0  0  0  0
    2.6231    4.2982   14.6939 C   0  0  0  0  0  0  0  0  0  0  0  0
    2.1876    4.4272   16.3815 Cl  0  0  0  0  0  0  0  0  0  0  0  0
    2.3728    5.2803   13.7880 C   0  0  0  0  0  0  0  0  0  0  0  0
    2.7385    5.1400   12.4449 C   0  0  0  0  0  0  0  0  0  0  0  0
    7.3927    3.4638    7.8760 N   0  0  0  0  0  0  0  0  0  0  0  0
    6.1998    4.2057    7.7512 C   0  0  0  0  0  0  0  0  0  0  0  0
    6.0524    5.0410    6.8614 O   0  0  0  0  0  0  0  0  0  0  0  0
    7.3939    2.7646    8.6951 H   0  0  0  0  0  0  0  0  0  0  0  0
    9.2568    5.4263    8.5006 C   0  0  0  0  0  0  0  0  0  0  0  0
    9.5103    4.4983    7.3839 C   0  0  0  0  0  0  0  0  0  0  0  0
   10.6773    4.6093    6.6549 C   0  0  0  0  0  0  0  0  0  0  0  0
   10.9486    3.7675    5.6052 C   0  0  0  0  0  0  0  0  0  0  0  0
   10.0301    2.8392    5.3261 N   0  0  0  0  0  0  0  0  0  0  0  0
    8.8617    2.7025    6.0303 C   0  0  0  0  0  0  0  0  0  0  0  0
    8.5478    3.5184    7.0844 C   0  0  0  0  0  0  0  0  0  0  0  0
    6.0065    5.3324   10.6378 C   0  0  0  0  0  0  0  0  0  0  0  0
    5.5785    6.7253   10.2255 C   0  0  0  0  0  0  0  0  0  0  0  0
    6.2608    7.3204    9.1507 N   0  0  0  0  0  0  0  0  0  0  0  0
    4.6645    7.3186   10.8098 O   0  0  0  0  0  0  0  0  0  0  0  0
    7.3149    7.4356    9.1161 H   0  0  0  0  0  0  0  0  0  0  0  0
    5.7705    7.7018    8.2873 H   0  0  0  0  0  0  0  0  0  0  0  0
 24 25  1  0  0  0
 25 26  2  0  0  0
 26 27  1  0  0  0
 27 28  2  0  0  0
 28 29  1  0  0  0
 29 30  2  0  0  0
 30 20  1  0  0  0
 20 21  1  0  0  0
 21 22  2  0  0  0
 21  1  1  0  0  0
  1  2  2  0  0  0
  2  3  1  0  0  0
  3  6  1  0  0  0
  6  7  2  0  0  0
  7  8  1  0  0  0
  8  9  2  0  0  0
  9 10  1  0  0  0
 10 11  2  0  0  0
 11 12  1  0  0  0
  3  4  1  0  0  0
  4 13  1  0  0  0
 13 14  2  0  0  0
 14 15  1  0  0  0
 15 16  2  0  0  0
 16 17  1  0  0  0
 16 18  1  0  0  0
 18 19  2  0  0  0
  4  5  2  0  0  0
  5 31  1  0  0  0
 31 32  1  0  0  0
 32 33  1  0  0  0
 32 34  2  0  0  0
 30 25  1  0  0  0
  5  1  1  0  0  0
 11  6  1  0  0  0
 19 13  1  0  0  0
 20 23  1  0  0  0
 33 35  1  0  0  0
 33 36  1  0  0  0
M  END
> <minimizedAffinity>
-4.70171

> <CNNscore>
0.2655548155

> <CNNaffinity>
5.9222064018

> <CNN_VS>
1.5726704597

> <CNNaffinity_variance>
0.3990622163

$$$$
[H]c1nc([H])c(N([H])C(=O)c2nn(-c3c([H])c([H])c([H])c([H])c3Cl)c(-c3c([H])c([H])c(Cl)c([H])c3[H])c2C([H])([H])C(=O)N([H])[H])c(C([H])([H])[H])c1[H]


 36 39  0  0  0  0  0  0  0  0999 V2000
    2.8328    1.5222    9.6337 C   0  0  0  0  0  0  0  0  0  0  0  0
    3.3291    2.7659    9.5476 N   0  0  0  0  0  0  0  0  0  0  0  0
    2.4557    3.6696   10.0092 N   0  0  0  0  0  0  0  0  0  0  0  0
    1.3196    3.0293   10.4275 C   0  0  0  0  0  0  0  0  0  0  0  0
    1.5661    1.6929   10.1921 C   0  0  0  0  0  0  0  0  0  0  0  0
    2.7701    5.0457    9.9765 C   0  0  0  0  0  0  0  0  0  0  0  0
    2.4956    5.7900    8.8531 C   0  0  0  0  0  0  0  0  0  0  0  0
    2.8240    7.1496    8.7900 C   0  0  0  0  0  0  0  0  0  0  0  0
    3.4352    7.7749    9.8633 C   0  0  0  0  0  0  0  0  0  0  0  0
    3.7074    7.0278   10.9827 C   0  0  0  0  0  0  0  0  0  0  0  0
    3.3848    5.6922   11.0448 C   0  0  0  0  0  0  0  0  0  0  0  0
    3.7255    4.7283   12.4641 Cl  0  0  0  0  0  0  0  0  0  0  0  0
    0.0963    3.6919   10.8516 C   0  0  0  0  0  0  0  0  0  0  0  0
   -0.1414    4.1727   12.1142 C   0  0  0  0  0  0  0  0  0  0  0  0
   -1.2646    4.9011   12.4849 C   0  0  0  0  0  0  0  0  0  0  0  0
   -2.2239    5.1732   11.5430 C   0  0  0  0  0  0  0  0  0  0  0  0
   -3.6274    6.0912   12.0346 Cl  0  0  0  0  0  0  0  0  0  0  0  0
   -2.0431    4.7205   10.2741 C   0  0  0  0  0  0  0  0  0  0  0  0
   -0.9043    3.9896    9.9189 C   0  0  0  0  0  0  0  0  0  0  0  0
    3.3564   -0.1232    7.8753 N   0  0  0  0  0  0  0  0  0  0  0  0
    3.5030    0.2878    9.2164 C   0  0  0  0  0  0  0  0  0  0  0  0
    4.1705   -0.3619   10.0186 O   0  0  0  0  0  0  0  0  0  0  0  0
    2.7484    0.5337    7.2763 H   0  0  0  0  0  0  0  0  0  0  0  0
    5.6846    0.2484    6.4063 C   0  0  0  0  0  0  0  0  0  0  0  0
    5.0748   -1.0906    6.4941 C   0  0  0  0  0  0  0  0  0  0  0  0
    5.6679   -2.1552    5.8455 C   0  0  0  0  0  0  0  0  0  0  0  0
    5.1290   -3.4165    5.8992 C   0  0  0  0  0  0  0  0  0  0  0  0
    4.0064   -3.5611    6.6079 N   0  0  0  0  0  0  0  0  0  0  0  0
    3.3928   -2.5249    7.2633 C   0  0  0  0  0  0  0  0  0  0  0  0
    3.8930   -1.2503    7.2385 C   0  0  0  0  0  0  0  0  0  0  0  0
    0.7048    0.5203   10.5412 C   0  0  0  0  0  0  0  0  0  0  0  0
   -0.2039    0.2937    9.3512 C   0  0  0  0  0  0  0  0  0  0  0  0
   -1.5667    0.5981    9.5103 N   0  0  0  0  0  0  0  0  0  0  0  0
    0.2330   -0.1420    8.2798 O   0  0  0  0  0  0  0  0  0  0  0  0
   -2.1723    0.1939   10.2820 H   0  0  0  0  0  0  0  0  0  0  0  0
   -2.0962    1.2592    8.8669 H   0  0  0  0  0  0  0  0  0  0  0  0
 24 25  1  0  0  0
 25 26  2  0  0  0
 26 27  1  0  0  0
 27 28  2  0  0  0
 28 29  1  0  0  0
 29 30  2  0  0  0
 30 20  1  0  0  0
 20 21  1  0  0  0
 21 22  2  0  0  0
 21  1  1  0  0  0
  1  2  2  0  0  0
  2  3  1  0  0  0
  3  6  1  0  0  0
  6  7  2  0  0  0
  7  8  1  0  0  0
  8  9  2  0  0  0
  9 10  1  0  0  0
 10 11  2  0  0  0
 11 12  1  0  0  0
  3  4  1  0  0  0
  4 13  1  0  0  0
 13 14  2  0  0  0
 14 15  1  0  0  0
 15 16  2  0  0  0
 16 17  1  0  0  0
 16 18  1  0  0  0
 18 19  2  0  0  0
  4  5  2  0  0  0
  5 31  1  0  0  0
 31 32  1  0  0  0
 32 33  1  0  0  0
 32 34  2  0  0  0
 30 25  1  0  0  0
  5  1  1  0  0  0
 11  6  1  0  0  0
 19 13  1  0  0  0
 20 23  1  0  0  0
 33 35  1  0  0  0
 33 36  1  0  0  0
M  END
> <minimizedAffinity>
-4.64056

> <CNNscore>
0.2325893790

> <CNNaffinity>
5.8005323410

> <CNN_VS>
1.3491421938

> <CNNaffinity_variance>
0.5471778512

$$$$
[H]c1nc([H])c(N([H])C(=O)c2nn(-c3c([H])c([H])c([H])c([H])c3Cl)c(-c3c([H])c([H])c(Cl)c([H])c3[H])c2C([H])([H])C(=O)N([H])[H])c(C([H])([H])[H])c1[H]


 36 39  0  0  0  0  0  0  0  0999 V2000
    2.7347    2.5860   14.5893 C   0  0  0  0  0  0  0  0  0  0  0  0
    2.3425    1.9161   13.4947 N   0  0  0  0  0  0  0  0  0  0  0  0
    2.7517    2.5304   12.3777 N   0  0  0  0  0  0  0  0  0  0  0  0
    3.4488    3.6610   12.7116 C   0  0  0  0  0  0  0  0  0  0  0  0
    3.4347    3.6844   14.0905 C   0  0  0  0  0  0  0  0  0  0  0  0
    2.4137    2.0054   11.1113 C   0  0  0  0  0  0  0  0  0  0  0  0
    3.2321    1.0798   10.5070 C   0  0  0  0  0  0  0  0  0  0  0  0
    2.9294    0.5671    9.2398 C   0  0  0  0  0  0  0  0  0  0  0  0
    1.7940    0.9840    8.5664 C   0  0  0  0  0  0  0  0  0  0  0  0
    0.9799    1.9082    9.1736 C   0  0  0  0  0  0  0  0  0  0  0  0
    1.2772    2.4120   10.4185 C   0  0  0  0  0  0  0  0  0  0  0  0
    0.2495    3.5894   11.2041 Cl  0  0  0  0  0  0  0  0  0  0  0  0
    3.9194    4.6610   11.7661 C   0  0  0  0  0  0  0  0  0  0  0  0
    3.1962    5.7477   11.3446 C   0  0  0  0  0  0  0  0  0  0  0  0
    3.6892    6.7575   10.5280 C   0  0  0  0  0  0  0  0  0  0  0  0
    4.9885    6.6898   10.0938 C   0  0  0  0  0  0  0  0  0  0  0  0
    5.5845    7.9725    9.0674 Cl  0  0  0  0  0  0  0  0  0  0  0  0
    5.7535    5.6340   10.4785 C   0  0  0  0  0  0  0  0  0  0  0  0
    5.2401    4.6270   11.3029 C   0  0  0  0  0  0  0  0  0  0  0  0
    3.4430    1.4760   16.6725 N   0  0  0  0  0  0  0  0  0  0  0  0
    2.4613    2.2149   15.9802 C   0  0  0  0  0  0  0  0  0  0  0  0
    1.4055    2.5429   16.5179 O   0  0  0  0  0  0  0  0  0  0  0  0
    4.3210    1.2542   16.0896 H   0  0  0  0  0  0  0  0  0  0  0  0
    4.9426    2.8906   18.5343 C   0  0  0  0  0  0  0  0  0  0  0  0
    4.1667    1.7108   18.9567 C   0  0  0  0  0  0  0  0  0  0  0  0
    4.1885    1.3165   20.2795 C   0  0  0  0  0  0  0  0  0  0  0  0
    3.4832    0.2212   20.7118 C   0  0  0  0  0  0  0  0  0  0  0  0
    2.7777   -0.4411   19.7917 N   0  0  0  0  0  0  0  0  0  0  0  0
    2.7349   -0.0758   18.4709 C   0  0  0  0  0  0  0  0  0  0  0  0
    3.4214    1.0086   17.9934 C   0  0  0  0  0  0  0  0  0  0  0  0
    4.1236    4.6487   15.0040 C   0  0  0  0  0  0  0  0  0  0  0  0
    3.2148    5.8555   15.1083 C   0  0  0  0  0  0  0  0  0  0  0  0
    1.9908    5.6879   15.7783 N   0  0  0  0  0  0  0  0  0  0  0  0
    3.5343    6.9473   14.6240 O   0  0  0  0  0  0  0  0  0  0  0  0
    1.2784    4.9445   15.5223 H   0  0  0  0  0  0  0  0  0  0  0  0
    1.6847    6.2957   16.5956 H   0  0  0  0  0  0  0  0  0  0  0  0
 24 25  1  0  0  0
 25 26  2  0  0  0
 26 27  1  0  0  0
 27 28  2  0  0  0
 28 29  1  0  0  0
 29 30  2  0  0  0
 30 20  1  0  0  0
 20 21  1  0  0  0
 21 22  2  0  0  0
 21  1  1  0  0  0
  1  2  2  0  0  0
  2  3  1  0  0  0
  3  6  1  0  0  0
  6  7  2  0  0  0
  7  8  1  0  0  0
  8  9  2  0  0  0
  9 10  1  0  0  0
 10 11  2  0  0  0
 11 12  1  0  0  0
  3  4  1  0  0  0
  4 13  1  0  0  0
 13 14  2  0  0  0
 14 15  1  0  0  0
 15 16  2  0  0  0
 16 17  1  0  0  0
 16 18  1  0  0  0
 18 19  2  0  0  0
  4  5  2  0  0  0
  5 31  1  0  0  0
 31 32  1  0  0  0
 32 33  1  0  0  0
 32 34  2  0  0  0
 30 25  1  0  0  0
  5  1  1  0  0  0
 11  6  1  0  0  0
 19 13  1  0  0  0
 20 23  1  0  0  0
 33 35  1  0  0  0
 33 36  1  0  0  0
M  END
> <minimizedAffinity>
-6.80536

> <CNNscore>
0.2205081731

> <CNNaffinity>
6.5759863853

> <CNN_VS>
1.4500586987

> <CNNaffinity_variance>
0.2013454437

$$$$
[H]OC([H])([H])C([H])([H])n1c(C2([H])C([H])([H])C([H])([H])N(c3nc([H])nc(N([H])[H])c3C#N)C([H])([H])C2([H])[H])nc(-c2c([H])c([H])c(F)c(C([H])([H])[H])c2[H])c1[H]


 34 37  0  0  0  0  0  0  0  0999 V2000
    4.2503    5.4766   19.7692 C   0  0  0  0  0  0  0  0  0  0  0  0
    4.4044    6.8419   19.7165 C   0  0  0  0  0  0  0  0  0  0  0  0
    4.0615    7.2323   18.4481 N   0  0  0  0  0  0  0  0  0  0  0  0
    3.7093    6.1553   17.7416 C   0  0  0  0  0  0  0  0  0  0  0  0
    3.8316    5.1010   18.5642 N   0  0  0  0  0  0  0  0  0  0  0  0
    6.4777    1.6147   22.0350 C   0  0  0  0  0  0  0  0  0  0  0  0
    5.5708    2.7886   22.0522 C   0  0  0  0  0  0  0  0  0  0  0  0
    5.3457    3.5642   20.9144 C   0  0  0  0  0  0  0  0  0  0  0  0
    4.5075    4.6459   20.9385 C   0  0  0  0  0  0  0  0  0  0  0  0
    3.8721    4.9744   22.1155 C   0  0  0  0  0  0  0  0  0  0  0  0
    4.0754    4.2255   23.2574 C   0  0  0  0  0  0  0  0  0  0  0  0
    4.9275    3.1302   23.2232 C   0  0  0  0  0  0  0  0  0  0  0  0
    5.0987    2.4174   24.3782 F   0  0  0  0  0  0  0  0  0  0  0  0
    3.2771    6.1026   16.3470 C   0  0  0  0  0  0  0  0  0  0  0  0
    2.0109    5.2835   16.1854 C   0  0  0  0  0  0  0  0  0  0  0  0
    1.4586    5.6898   14.8420 C   0  0  0  0  0  0  0  0  0  0  0  0
    2.4306    5.3030   13.7938 N   0  0  0  0  0  0  0  0  0  0  0  0
    3.8068    5.5990   13.9939 C   0  0  0  0  0  0  0  0  0  0  0  0
    4.2839    5.4201   15.4452 C   0  0  0  0  0  0  0  0  0  0  0  0
    1.8456    4.6292   12.6925 C   0  0  0  0  0  0  0  0  0  0  0  0
    1.4143    5.3304   11.5964 N   0  0  0  0  0  0  0  0  0  0  0  0
    0.8245    4.7307   10.5593 C   0  0  0  0  0  0  0  0  0  0  0  0
    0.6230    3.4123   10.5348 N   0  0  0  0  0  0  0  0  0  0  0  0
    1.0183    2.6599   11.5702 C   0  0  0  0  0  0  0  0  0  0  0  0
    0.8262    1.2427   11.5949 N   0  0  0  0  0  0  0  0  0  0  0  0
    1.6419    3.2905   12.6662 C   0  0  0  0  0  0  0  0  0  0  0  0
   -0.1539    0.8537   11.6777 H   0  0  0  0  0  0  0  0  0  0  0  0
    1.6061    0.5600   11.5353 H   0  0  0  0  0  0  0  0  0  0  0  0
    2.0893    2.4335   13.7377 C   0  0  0  0  0  0  0  0  0  0  0  0
    2.4215    1.7481   14.6134 N   0  0  0  0  0  0  0  0  0  0  0  0
    4.1021    8.6069   18.0461 C   0  0  0  0  0  0  0  0  0  0  0  0
    3.4163    9.4482   19.0810 C   0  0  0  0  0  0  0  0  0  0  0  0
    2.3765   10.2149   18.6226 O   0  0  0  0  0  0  0  0  0  0  0  0
    1.5623   10.1666   19.2067 H   0  0  0  0  0  0  0  0  0  0  0  0
  6  7  1  0  0  0
  7  8  2  0  0  0
  8  9  1  0  0  0
  9  1  1  0  0  0
  1  2  2  0  0  0
  2  3  1  0  0  0
  3 31  1  0  0  0
 31 32  1  0  0  0
 32 33  1  0  0  0
  3  4  1  0  0  0
  4 14  1  0  0  0
 14 15  1  0  0  0
 15 16  1  0  0  0
 16 17  1  0  0  0
 17 20  1  0  0  0
 20 21  2  0  0  0
 21 22  1  0  0  0
 22 23  2  0  0  0
 23 24  1  0  0  0
 24 25  1  0  0  0
 24 26  2  0  0  0
 26 29  1  0  0  0
 29 30  3  0  0  0
 17 18  1  0  0  0
 18 19  1  0  0  0
  4  5  2  0  0  0
  9 10  2  0  0  0
 10 11  1  0  0  0
 11 12  2  0  0  0
 12 13  1  0  0  0
 12  7  1  0  0  0
  5  1  1  0  0  0
 19 14  1  0  0  0
 26 20  1  0  0  0
 33 34  1  0  0  0
 25 27  1  0  0  0
 25 28  1  0  0  0
M  END
> <minimizedAffinity>
-7.91048

> <CNNscore>
0.1862566918

> <CNNaffinity>
6.2648015022

> <CNN_VS>
1.1668611765

> <CNNaffinity_variance>
0.7301293612

$$$$
[H]OC([H])([H])C([H])([H])n1c(C2([H])C([H])([H])C([H])([H])N(c3nc([H])nc(N([H])[H])c3C#N)C([H])([H])C2([H])[H])nc(-c2c([H])c([H])c(F)c(C([H])([H])[H])c2[H])c1[H]


 34 37  0  0  0  0  0  0  0  0999 V2000
    2.1316    5.4304   13.4100 C   0  0  0  0  0  0  0  0  0  0  0  0
    2.7464    6.6528   13.2747 C   0  0  0  0  0  0  0  0  0  0  0  0
    3.4260    6.8876   14.4418 N   0  0  0  0  0  0  0  0  0  0  0  0
    3.2415    5.8551   15.2680 C   0  0  0  0  0  0  0  0  0  0  0  0
    2.4526    4.9825   14.6204 N   0  0  0  0  0  0  0  0  0  0  0  0
   -1.7647    5.3977   10.2752 C   0  0  0  0  0  0  0  0  0  0  0  0
   -0.5730    4.7525   10.8790 C   0  0  0  0  0  0  0  0  0  0  0  0
    0.2024    5.3927   11.8463 C   0  0  0  0  0  0  0  0  0  0  0  0
    1.3005    4.7906   12.3984 C   0  0  0  0  0  0  0  0  0  0  0  0
    1.6461    3.5222   11.9875 C   0  0  0  0  0  0  0  0  0  0  0  0
    0.8978    2.8639   11.0321 C   0  0  0  0  0  0  0  0  0  0  0  0
   -0.2143    3.4829   10.4778 C   0  0  0  0  0  0  0  0  0  0  0  0
   -0.9258    2.7930    9.5347 F   0  0  0  0  0  0  0  0  0  0  0  0
    3.7752    5.6828   16.6171 C   0  0  0  0  0  0  0  0  0  0  0  0
    4.8203    4.5849   16.6682 C   0  0  0  0  0  0  0  0  0  0  0  0
    5.5743    4.8306   17.9512 C   0  0  0  0  0  0  0  0  0  0  0  0
    4.6388    4.6713   19.0882 N   0  0  0  0  0  0  0  0  0  0  0  0
    3.3598    5.2877   19.0135 C   0  0  0  0  0  0  0  0  0  0  0  0
    2.7226    5.2464   17.6141 C   0  0  0  0  0  0  0  0  0  0  0  0
    5.1460    3.8634   20.1365 C   0  0  0  0  0  0  0  0  0  0  0  0
    5.7947    4.4316   21.2021 N   0  0  0  0  0  0  0  0  0  0  0  0
    6.3176    3.6966   22.1867 C   0  0  0  0  0  0  0  0  0  0  0  0
    6.2360    2.3653   22.1856 N   0  0  0  0  0  0  0  0  0  0  0  0
    5.6158    1.7378   21.1775 C   0  0  0  0  0  0  0  0  0  0  0  0
    5.5005    0.3131   21.1274 N   0  0  0  0  0  0  0  0  0  0  0  0
    5.0623    2.5116   20.1370 C   0  0  0  0  0  0  0  0  0  0  0  0
    6.3670   -0.2720   20.9673 H   0  0  0  0  0  0  0  0  0  0  0  0
    4.5999   -0.1910   21.2408 H   0  0  0  0  0  0  0  0  0  0  0  0
    4.3666    1.7939   19.0960 C   0  0  0  0  0  0  0  0  0  0  0  0
    3.8099    1.2416   18.2404 N   0  0  0  0  0  0  0  0  0  0  0  0
    4.1908    8.0827   14.6406 C   0  0  0  0  0  0  0  0  0  0  0  0
    3.3054    9.2777   14.4485 C   0  0  0  0  0  0  0  0  0  0  0  0
    2.6741    9.7311   15.5778 O   0  0  0  0  0  0  0  0  0  0  0  0
    2.7270   10.7269   15.6874 H   0  0  0  0  0  0  0  0  0  0  0  0
  6  7  1  0  0  0
  7  8  2  0  0  0
  8  9  1  0  0  0
  9  1  1  0  0  0
  1  2  2  0  0  0
  2  3  1  0  0  0
  3 31  1  0  0  0
 31 32  1  0  0  0
 32 33  1  0  0  0
  3  4  1  0  0  0
  4 14  1  0  0  0
 14 15  1  0  0  0
 15 16  1  0  0  0
 16 17  1  0  0  0
 17 20  1  0  0  0
 20 21  2  0  0  0
 21 22  1  0  0  0
 22 23  2  0  0  0
 23 24  1  0  0  0
 24 25  1  0  0  0
 24 26  2  0  0  0
 26 29  1  0  0  0
 29 30  3  0  0  0
 17 18  1  0  0  0
 18 19  1  0  0  0
  4  5  2  0  0  0
  9 10  2  0  0  0
 10 11  1  0  0  0
 11 12  2  0  0  0
 12 13  1  0  0  0
 12  7  1  0  0  0
  5  1  1  0  0  0
 19 14  1  0  0  0
 26 20  1  0  0  0
 33 34  1  0  0  0
 25 27  1  0  0  0
 25 28  1  0  0  0
M  END
> <minimizedAffinity>
-7.22658

> <CNNscore>
0.1559704095

> <CNNaffinity>
6.1181683540

> <CNN_VS>
0.9542531967

> <CNNaffinity_variance>
0.4854541421

$$$$
[H]OC([H])([H])C([H])([H])n1c(C2([H])C([H])([H])C([H])([H])N(c3nc([H])nc(N([H])[H])c3C#N)C([H])([H])C2([H])[H])nc(-c2c([H])c([H])c(F)c(C([H])([H])[H])c2[H])c1[H]


 34 37  0  0  0  0  0  0  0  0999 V2000
    4.2669    5.5250   19.8489 C   0  0  0  0  0  0  0  0  0  0  0  0
    4.5589    6.8669   19.7813 C   0  0  0  0  0  0  0  0  0  0  0  0
    4.1956    7.2905   18.5293 N   0  0  0  0  0  0  0  0  0  0  0  0
    3.6988    6.2558   17.8470 C   0  0  0  0  0  0  0  0  0  0  0  0
    3.7519    5.1946   18.6682 N   0  0  0  0  0  0  0  0  0  0  0  0
    6.4105    1.6004   22.0878 C   0  0  0  0  0  0  0  0  0  0  0  0
    5.5171    2.7846   22.1090 C   0  0  0  0  0  0  0  0  0  0  0  0
    5.3204    3.5813   20.9806 C   0  0  0  0  0  0  0  0  0  0  0  0
    4.4944    4.6723   21.0085 C   0  0  0  0  0  0  0  0  0  0  0  0
    3.8430    4.9891   22.1799 C   0  0  0  0  0  0  0  0  0  0  0  0
    4.0180    4.2192   23.3125 C   0  0  0  0  0  0  0  0  0  0  0  0
    4.8578    3.1146   23.2745 C   0  0  0  0  0  0  0  0  0  0  0  0
    5.0011    2.3810   24.4203 F   0  0  0  0  0  0  0  0  0  0  0  0
    3.1944    6.2480   16.4758 C   0  0  0  0  0  0  0  0  0  0  0  0
    2.3360    5.0278   16.2036 C   0  0  0  0  0  0  0  0  0  0  0  0
    1.5482    5.3796   14.9665 C   0  0  0  0  0  0  0  0  0  0  0  0
    2.4932    5.5756   13.8432 N   0  0  0  0  0  0  0  0  0  0  0  0
    3.6588    6.3606   14.0587 C   0  0  0  0  0  0  0  0  0  0  0  0
    4.2994    6.1681   15.4438 C   0  0  0  0  0  0  0  0  0  0  0  0
    2.1165    4.9006   12.6552 C   0  0  0  0  0  0  0  0  0  0  0  0
    2.3961    3.5684   12.4926 N   0  0  0  0  0  0  0  0  0  0  0  0
    2.0892    2.9122   11.3709 C   0  0  0  0  0  0  0  0  0  0  0  0
    1.4919    3.5205   10.3451 N   0  0  0  0  0  0  0  0  0  0  0  0
    1.1863    4.8220   10.4301 C   0  0  0  0  0  0  0  0  0  0  0  0
    0.5461    5.5222    9.3598 N   0  0  0  0  0  0  0  0  0  0  0  0
    1.5086    5.5171   11.6136 C   0  0  0  0  0  0  0  0  0  0  0  0
    1.0794    5.6991    8.4636 H   0  0  0  0  0  0  0  0  0  0  0  0
   -0.4294    5.8741    9.4107 H   0  0  0  0  0  0  0  0  0  0  0  0
    1.1207    6.9058   11.6751 C   0  0  0  0  0  0  0  0  0  0  0  0
    0.8375    8.0297   11.7337 N   0  0  0  0  0  0  0  0  0  0  0  0
    4.3585    8.6534   18.1185 C   0  0  0  0  0  0  0  0  0  0  0  0
    3.7389    9.5586   19.1411 C   0  0  0  0  0  0  0  0  0  0  0  0
    2.3687    9.6025   19.1361 O   0  0  0  0  0  0  0  0  0  0  0  0
    1.9677    9.5319   20.0530 H   0  0  0  0  0  0  0  0  0  0  0  0
  6  7  1  0  0  0
  7  8  2  0  0  0
  8  9  1  0  0  0
  9  1  1  0  0  0
  1  2  2  0  0  0
  2  3  1  0  0  0
  3 31  1  0  0  0
 31 32  1  0  0  0
 32 33  1  0  0  0
  3  4  1  0  0  0
  4 14  1  0  0  0
 14 15  1  0  0  0
 15 16  1  0  0  0
 16 17  1  0  0  0
 17 20  1  0  0  0
 20 21  2  0  0  0
 21 22  1  0  0  0
 22 23  2  0  0  0
 23 24  1  0  0  0
 24 25  1  0  0  0
 24 26  2  0  0  0
 26 29  1  0  0  0
 29 30  3  0  0  0
 17 18  1  0  0  0
 18 19  1  0  0  0
  4  5  2  0  0  0
  9 10  2  0  0  0
 10 11  1  0  0  0
 11 12  2  0  0  0
 12 13  1  0  0  0
 12  7  1  0  0  0
  5  1  1  0  0  0
 19 14  1  0  0  0
 26 20  1  0  0  0
 33 34  1  0  0  0
 25 27  1  0  0  0
 25 28  1  0  0  0
M  END
> <minimizedAffinity>
-7.90583

> <CNNscore>
0.1467662603

> <CNNaffinity>
5.9575676918

> <CNN_VS>
0.8743699193

> <CNNaffinity_variance>
0.5253729224

$$$$
[H]OC([H])([H])C([H])([H])n1c(C2([H])C([H])([H])C([H])([H])N(c3nc([H])nc(N([H])[H])c3C#N)C([H])([H])C2([H])[H])nc(-c2c([H])c([H])c(F)c(C([H])([H])[H])c2[H])c1[H]


 34 37  0  0  0  0  0  0  0  0999 V2000
    1.5654    6.0237   14.6794 C   0  0  0  0  0  0  0  0  0  0  0  0
    2.6042    6.9029   14.4830 C   0  0  0  0  0  0  0  0  0  0  0  0
    3.5073    6.6830   15.4905 N   0  0  0  0  0  0  0  0  0  0  0  0
    3.0494    5.7085   16.2802 C   0  0  0  0  0  0  0  0  0  0  0  0
    1.8692    5.3234   15.7683 N   0  0  0  0  0  0  0  0  0  0  0  0
   -3.1587    7.1938   13.5288 C   0  0  0  0  0  0  0  0  0  0  0  0
   -1.8942    6.4662   13.2594 C   0  0  0  0  0  0  0  0  0  0  0  0
   -0.7795    6.5909   14.0893 C   0  0  0  0  0  0  0  0  0  0  0  0
    0.3836    5.9162   13.8337 C   0  0  0  0  0  0  0  0  0  0  0  0
    0.4526    5.0951   12.7301 C   0  0  0  0  0  0  0  0  0  0  0  0
   -0.6342    4.9519   11.8907 C   0  0  0  0  0  0  0  0  0  0  0  0
   -1.8096    5.6404   12.1582 C   0  0  0  0  0  0  0  0  0  0  0  0
   -2.8606    5.4681   11.2995 F   0  0  0  0  0  0  0  0  0  0  0  0
    3.6823    5.1535   17.4744 C   0  0  0  0  0  0  0  0  0  0  0  0
    3.4447    3.6600   17.5893 C   0  0  0  0  0  0  0  0  0  0  0  0
    4.4931    3.1771   18.5602 C   0  0  0  0  0  0  0  0  0  0  0  0
    4.2510    3.8153   19.8745 N   0  0  0  0  0  0  0  0  0  0  0  0
    3.9863    5.2115   19.9189 C   0  0  0  0  0  0  0  0  0  0  0  0
    3.1169    5.7238   18.7580 C   0  0  0  0  0  0  0  0  0  0  0  0
    4.2829    2.9094   20.9642 C   0  0  0  0  0  0  0  0  0  0  0  0
    3.4648    1.8096   20.9796 N   0  0  0  0  0  0  0  0  0  0  0  0
    3.4428    0.9578   22.0077 C   0  0  0  0  0  0  0  0  0  0  0  0
    4.2189    1.1325   23.0784 N   0  0  0  0  0  0  0  0  0  0  0  0
    5.0461    2.1848   23.1355 C   0  0  0  0  0  0  0  0  0  0  0  0
    5.8988    2.4190   24.2597 N   0  0  0  0  0  0  0  0  0  0  0  0
    5.0717    3.0853   22.0511 C   0  0  0  0  0  0  0  0  0  0  0  0
    5.4707    2.6966   25.1863 H   0  0  0  0  0  0  0  0  0  0  0  0
    6.9325    2.3311   24.2200 H   0  0  0  0  0  0  0  0  0  0  0  0
    6.0097    4.1785   22.1392 C   0  0  0  0  0  0  0  0  0  0  0  0
    6.7450    5.0748   22.1927 N   0  0  0  0  0  0  0  0  0  0  0  0
    4.7252    7.4314   15.5870 C   0  0  0  0  0  0  0  0  0  0  0  0
    4.4148    8.8329   16.0212 C   0  0  0  0  0  0  0  0  0  0  0  0
    3.6721    8.9435   17.1682 O   0  0  0  0  0  0  0  0  0  0  0  0
    4.0335    9.6258   17.8088 H   0  0  0  0  0  0  0  0  0  0  0  0
  6  7  1  0  0  0
  7  8  2  0  0  0
  8  9  1  0  0  0
  9  1  1  0  0  0
  1  2  2  0  0  0
  2  3  1  0  0  0
  3 31  1  0  0  0
 31 32  1  0  0  0
 32 33  1  0  0  0
  3  4  1  0  0  0
  4 14  1  0  0  0
 14 15  1  0  0  0
 15 16  1  0  0  0
 16 17  1  0  0  0
 17 20  1  0  0  0
 20 21  2  0  0  0
 21 22  1  0  0  0
 22 23  2  0  0  0
 23 24  1  0  0  0
 24 25  1  0  0  0
 24 26  2  0  0  0
 26 29  1  0  0  0
 29 30  3  0  0  0
 17 18  1  0  0  0
 18 19  1  0  0  0
  4  5  2  0  0  0
  9 10  2  0  0  0
 10 11  1  0  0  0
 11 12  2  0  0  0
 12 13  1  0  0  0
 12  7  1  0  0  0
  5  1  1  0  0  0
 19 14  1  0  0  0
 26 20  1  0  0  0
 33 34  1  0  0  0
 25 27  1  0  0  0
 25 28  1  0  0  0
M  END
> <minimizedAffinity>
-8.20945

> <CNNscore>
0.1456848383

> <CNNaffinity>
6.3822317123

> <CNN_VS>
0.9297943711

> <CNNaffinity_variance>
0.2703064978

$$$$
[H]OC([H])([H])C([H])([H])n1c(C2([H])C([H])([H])C([H])([H])N(c3nc([H])nc(N([H])[H])c3C#N)C([H])([H])C2([H])[H])nc(-c2c([H])c([H])c(F)c(C([H])([H])[H])c2[H])c1[H]


 34 37  0  0  0  0  0  0  0  0999 V2000
    2.6783    6.4181   11.2366 C   0  0  0  0  0  0  0  0  0  0  0  0
    1.3137    6.2683   11.3145 C   0  0  0  0  0  0  0  0  0  0  0  0
    1.0621    5.4763   12.4047 N   0  0  0  0  0  0  0  0  0  0  0  0
    2.2211    5.1473   12.9803 C   0  0  0  0  0  0  0  0  0  0  0  0
    3.1885    5.7303   12.2541 N   0  0  0  0  0  0  0  0  0  0  0  0
    2.7530    9.4932    7.2935 C   0  0  0  0  0  0  0  0  0  0  0  0
    3.4431    8.6717    8.3182 C   0  0  0  0  0  0  0  0  0  0  0  0
    2.7387    7.9445    9.2783 C   0  0  0  0  0  0  0  0  0  0  0  0
    3.3829    7.1890   10.2204 C   0  0  0  0  0  0  0  0  0  0  0  0
    4.7596    7.1473   10.2183 C   0  0  0  0  0  0  0  0  0  0  0  0
    5.4834    7.8564    9.2805 C   0  0  0  0  0  0  0  0  0  0  0  0
    4.8211    8.6199    8.3290 C   0  0  0  0  0  0  0  0  0  0  0  0
    5.5789    9.3057    7.4196 F   0  0  0  0  0  0  0  0  0  0  0  0
    2.4277    4.3154   14.1635 C   0  0  0  0  0  0  0  0  0  0  0  0
    2.4690    5.1474   15.4308 C   0  0  0  0  0  0  0  0  0  0  0  0
    2.2290    4.1613   16.5466 C   0  0  0  0  0  0  0  0  0  0  0  0
    3.3428    3.1853   16.5635 N   0  0  0  0  0  0  0  0  0  0  0  0
    3.7691    2.6121   15.3342 C   0  0  0  0  0  0  0  0  0  0  0  0
    3.7565    3.5897   14.1468 C   0  0  0  0  0  0  0  0  0  0  0  0
    3.8869    2.9615   17.8531 C   0  0  0  0  0  0  0  0  0  0  0  0
    4.5986    3.9455   18.4889 N   0  0  0  0  0  0  0  0  0  0  0  0
    5.1565    3.7543   19.6869 C   0  0  0  0  0  0  0  0  0  0  0  0
    5.0503    2.5911   20.3311 N   0  0  0  0  0  0  0  0  0  0  0  0
    4.3689    1.5818   19.7730 C   0  0  0  0  0  0  0  0  0  0  0  0
    4.2248    0.3146   20.4205 N   0  0  0  0  0  0  0  0  0  0  0  0
    3.7783    1.7813   18.5085 C   0  0  0  0  0  0  0  0  0  0  0  0
    5.0712   -0.3098   20.5322 H   0  0  0  0  0  0  0  0  0  0  0  0
    3.3219   -0.0359   20.7944 H   0  0  0  0  0  0  0  0  0  0  0  0
    3.0181    0.6801   17.9679 C   0  0  0  0  0  0  0  0  0  0  0  0
    2.4266   -0.2252   17.5466 N   0  0  0  0  0  0  0  0  0  0  0  0
   -0.2726    5.1212   12.7858 C   0  0  0  0  0  0  0  0  0  0  0  0
   -0.9135    6.2795   13.4905 C   0  0  0  0  0  0  0  0  0  0  0  0
   -2.2806    6.3371   13.4063 O   0  0  0  0  0  0  0  0  0  0  0  0
   -2.7232    6.5254   14.2868 H   0  0  0  0  0  0  0  0  0  0  0  0
  6  7  1  0  0  0
  7  8  2  0  0  0
  8  9  1  0  0  0
  9  1  1  0  0  0
  1  2  2  0  0  0
  2  3  1  0  0  0
  3 31  1  0  0  0
 31 32  1  0  0  0
 32 33  1  0  0  0
  3  4  1  0  0  0
  4 14  1  0  0  0
 14 15  1  0  0  0
 15 16  1  0  0  0
 16 17  1  0  0  0
 17 20  1  0  0  0
 20 21  2  0  0  0
 21 22  1  0  0  0
 22 23  2  0  0  0
 23 24  1  0  0  0
 24 25  1  0  0  0
 24 26  2  0  0  0
 26 29  1  0  0  0
 29 30  3  0  0  0
 17 18  1  0  0  0
 18 19  1  0  0  0
  4  5  2  0  0  0
  9 10  2  0  0  0
 10 11  1  0  0  0
 11 12  2  0  0  0
 12 13  1  0  0  0
 12  7  1  0  0  0
  5  1  1  0  0  0
 19 14  1  0  0  0
 26 20  1  0  0  0
 33 34  1  0  0  0
 25 27  1  0  0  0
 25 28  1  0  0  0
M  END
> <minimizedAffinity>
-7.24709

> <CNNscore>
0.1232253760

> <CNNaffinity>
5.8656792641

> <CNN_VS>
0.7228005528

> <CNNaffinity_variance>
0.4138578773

$$$$
[H]OC([H])([H])C([H])([H])n1c(C2([H])C([H])([H])C([H])([H])N(c3nc([H])nc(N([H])[H])c3C#N)C([H])([H])C2([H])[H])nc(-c2c([H])c([H])c(F)c(C([H])([H])[H])c2[H])c1[H]


 34 37  0  0  0  0  0  0  0  0999 V2000
    2.9815    4.9947   13.2093 C   0  0  0  0  0  0  0  0  0  0  0  0
    3.3264    6.3206   13.3253 C   0  0  0  0  0  0  0  0  0  0  0  0
    3.7515    6.5098   14.6146 N   0  0  0  0  0  0  0  0  0  0  0  0
    3.6741    5.3506   15.2728 C   0  0  0  0  0  0  0  0  0  0  0  0
    3.2042    4.4451   14.3996 N   0  0  0  0  0  0  0  0  0  0  0  0
    0.0312    4.9139    9.1721 C   0  0  0  0  0  0  0  0  0  0  0  0
    1.0612    4.2996   10.0454 C   0  0  0  0  0  0  0  0  0  0  0  0
    1.5249    4.9337   11.1986 C   0  0  0  0  0  0  0  0  0  0  0  0
    2.4755    4.3602   11.9990 C   0  0  0  0  0  0  0  0  0  0  0  0
    2.9849    3.1275   11.6556 C   0  0  0  0  0  0  0  0  0  0  0  0
    2.5453    2.4760   10.5205 C   0  0  0  0  0  0  0  0  0  0  0  0
    1.5808    3.0657    9.7148 C   0  0  0  0  0  0  0  0  0  0  0  0
    1.1753    2.3840    8.6003 F   0  0  0  0  0  0  0  0  0  0  0  0
    4.0201    5.0895   16.6680 C   0  0  0  0  0  0  0  0  0  0  0  0
    4.5788    3.6916   16.8526 C   0  0  0  0  0  0  0  0  0  0  0  0
    5.2880    3.7331   18.1831 C   0  0  0  0  0  0  0  0  0  0  0  0
    4.2905    4.0071   19.2430 N   0  0  0  0  0  0  0  0  0  0  0  0
    3.3382    5.0422   19.0353 C   0  0  0  0  0  0  0  0  0  0  0  0
    2.8203    5.1395   17.5902 C   0  0  0  0  0  0  0  0  0  0  0  0
    4.3955    3.1450   20.3630 C   0  0  0  0  0  0  0  0  0  0  0  0
    3.8009    1.9099   20.3493 N   0  0  0  0  0  0  0  0  0  0  0  0
    3.8484    1.0894   21.4017 C   0  0  0  0  0  0  0  0  0  0  0  0
    4.4795    1.4293   22.5266 N   0  0  0  0  0  0  0  0  0  0  0  0
    5.0854    2.6208   22.6150 C   0  0  0  0  0  0  0  0  0  0  0  0
    5.7756    3.0346   23.7975 N   0  0  0  0  0  0  0  0  0  0  0  0
    5.0374    3.4887   21.5051 C   0  0  0  0  0  0  0  0  0  0  0  0
    5.2224    3.2433   24.6745 H   0  0  0  0  0  0  0  0  0  0  0  0
    6.8068    3.1447   23.8475 H   0  0  0  0  0  0  0  0  0  0  0  0
    5.7413    4.7421   21.6323 C   0  0  0  0  0  0  0  0  0  0  0  0
    6.3318    5.7374   21.7200 N   0  0  0  0  0  0  0  0  0  0  0  0
    4.1960    7.7894   15.0811 C   0  0  0  0  0  0  0  0  0  0  0  0
    3.2226    8.8436   14.6448 C   0  0  0  0  0  0  0  0  0  0  0  0
    2.7284    9.6397   15.6454 O   0  0  0  0  0  0  0  0  0  0  0  0
    2.7364   10.6159   15.4141 H   0  0  0  0  0  0  0  0  0  0  0  0
  6  7  1  0  0  0
  7  8  2  0  0  0
  8  9  1  0  0  0
  9  1  1  0  0  0
  1  2  2  0  0  0
  2  3  1  0  0  0
  3 31  1  0  0  0
 31 32  1  0  0  0
 32 33  1  0  0  0
  3  4  1  0  0  0
  4 14  1  0  0  0
 14 15  1  0  0  0
 15 16  1  0  0  0
 16 17  1  0  0  0
 17 20  1  0  0  0
 20 21  2  0  0  0
 21 22  1  0  0  0
 22 23  2  0  0  0
 23 24  1  0  0  0
 24 25  1  0  0  0
 24 26  2  0  0  0
 26 29  1  0  0  0
 29 30  3  0  0  0
 17 18  1  0  0  0
 18 19  1  0  0  0
  4  5  2  0  0  0
  9 10  2  0  0  0
 10 11  1  0  0  0
 11 12  2  0  0  0
 12 13  1  0  0  0
 12  7  1  0  0  0
  5  1  1  0  0  0
 19 14  1  0  0  0
 26 20  1  0  0  0
 33 34  1  0  0  0
 25 27  1  0  0  0
 25 28  1  0  0  0
M  END
> <minimizedAffinity>
-7.14016

> <CNNscore>
0.1209873334

> <CNNaffinity>
6.3556952477

> <CNN_VS>
0.7689586282

> <CNNaffinity_variance>
0.7625984550

$$$$
[H]OC([H])([H])C([H])([H])n1c(C2([H])C([H])([H])C([H])([H])N(c3nc([H])nc(N([H])[H])c3C#N)C([H])([H])C2([H])[H])nc(-c2c([H])c([H])c(F)c(C([H])([H])[H])c2[H])c1[H]


 34 37  0  0  0  0  0  0  0  0999 V2000
    3.3168    5.5593   13.6157 C   0  0  0  0  0  0  0  0  0  0  0  0
    3.5403    6.7694   13.0022 C   0  0  0  0  0  0  0  0  0  0  0  0
    4.1781    7.5671   13.9164 N   0  0  0  0  0  0  0  0  0  0  0  0
    4.3440    6.8823   15.0506 C   0  0  0  0  0  0  0  0  0  0  0  0
    3.8136    5.6660   14.8447 N   0  0  0  0  0  0  0  0  0  0  0  0
    0.9465    3.3528    9.8049 C   0  0  0  0  0  0  0  0  0  0  0  0
    1.5151    3.3284   11.1749 C   0  0  0  0  0  0  0  0  0  0  0  0
    2.1380    4.4439   11.7356 C   0  0  0  0  0  0  0  0  0  0  0  0
    2.6603    4.4131   13.0003 C   0  0  0  0  0  0  0  0  0  0  0  0
    2.5673    3.2518   13.7350 C   0  0  0  0  0  0  0  0  0  0  0  0
    1.9565    2.1321   13.2066 C   0  0  0  0  0  0  0  0  0  0  0  0
    1.4298    2.1729   11.9228 C   0  0  0  0  0  0  0  0  0  0  0  0
    0.8338    1.0400   11.4403 F   0  0  0  0  0  0  0  0  0  0  0  0
    4.9703    7.3405   16.2886 C   0  0  0  0  0  0  0  0  0  0  0  0
    5.5823    6.1897   17.0639 C   0  0  0  0  0  0  0  0  0  0  0  0
    6.5451    6.8417   18.0246 C   0  0  0  0  0  0  0  0  0  0  0  0
    5.7774    7.7049   18.9514 N   0  0  0  0  0  0  0  0  0  0  0  0
    4.7824    8.5682   18.4166 C   0  0  0  0  0  0  0  0  0  0  0  0
    3.9811    7.9596   17.2533 C   0  0  0  0  0  0  0  0  0  0  0  0
    6.1239    7.5297   20.3146 C   0  0  0  0  0  0  0  0  0  0  0  0
    7.1441    8.2555   20.8726 N   0  0  0  0  0  0  0  0  0  0  0  0
    7.5206    8.0872   22.1426 C   0  0  0  0  0  0  0  0  0  0  0  0
    6.9215    7.2005   22.9389 N   0  0  0  0  0  0  0  0  0  0  0  0
    5.9150    6.4544   22.4645 C   0  0  0  0  0  0  0  0  0  0  0  0
    5.2389    5.4893   23.2753 N   0  0  0  0  0  0  0  0  0  0  0  0
    5.5151    6.6305   21.1241 C   0  0  0  0  0  0  0  0  0  0  0  0
    5.7525    4.6158   23.5785 H   0  0  0  0  0  0  0  0  0  0  0  0
    4.2553    5.5969   23.5900 H   0  0  0  0  0  0  0  0  0  0  0  0
    4.3987    5.8358   20.6717 C   0  0  0  0  0  0  0  0  0  0  0  0
    3.4833    5.2096   20.3299 N   0  0  0  0  0  0  0  0  0  0  0  0
    4.5694    8.9090   13.6019 C   0  0  0  0  0  0  0  0  0  0  0  0
    5.9863    8.9118   13.1107 C   0  0  0  0  0  0  0  0  0  0  0  0
    6.1391    9.0271   11.7532 O   0  0  0  0  0  0  0  0  0  0  0  0
    6.8384    9.6964   11.4896 H   0  0  0  0  0  0  0  0  0  0  0  0
  6  7  1  0  0  0
  7  8  2  0  0  0
  8  9  1  0  0  0
  9  1  1  0  0  0
  1  2  2  0  0  0
  2  3  1  0  0  0
  3 31  1  0  0  0
 31 32  1  0  0  0
 32 33  1  0  0  0
  3  4  1  0  0  0
  4 14  1  0  0  0
 14 15  1  0  0  0
 15 16  1  0  0  0
 16 17  1  0  0  0
 17 20  1  0  0  0
 20 21  2  0  0  0
 21 22  1  0  0  0
 22 23  2  0  0  0
 23 24  1  0  0  0
 24 25  1  0  0  0
 24 26  2  0  0  0
 26 29  1  0  0  0
 29 30  3  0  0  0
 17 18  1  0  0  0
 18 19  1  0  0  0
  4  5  2  0  0  0
  9 10  2  0  0  0
 10 11  1  0  0  0
 11 12  2  0  0  0
 12 13  1  0  0  0
 12  7  1  0  0  0
  5  1  1  0  0  0
 19 14  1  0  0  0
 26 20  1  0  0  0
 33 34  1  0  0  0
 25 27  1  0  0  0
 25 28  1  0  0  0
M  END
> <minimizedAffinity>
-6.60043

> <CNNscore>
0.1122875363

> <CNNaffinity>
5.5914635658

> <CNN_VS>
0.6278516650

> <CNNaffinity_variance>
0.4311259687

$$$$
[H]OC([H])([H])C([H])([H])n1c(C2([H])C([H])([H])C([H])([H])N(c3nc([H])nc(N([H])[H])c3C#N)C([H])([H])C2([H])[H])nc(-c2c([H])c([H])c(F)c(C([H])([H])[H])c2[H])c1[H]


 34 37  0  0  0  0  0  0  0  0999 V2000
    4.5516    2.9542   19.3173 C   0  0  0  0  0  0  0  0  0  0  0  0
    5.4260    3.9981   19.1271 C   0  0  0  0  0  0  0  0  0  0  0  0
    5.3331    4.3597   17.8082 N   0  0  0  0  0  0  0  0  0  0  0  0
    4.4389    3.5737   17.2035 C   0  0  0  0  0  0  0  0  0  0  0  0
    3.9775    2.7283   18.1392 N   0  0  0  0  0  0  0  0  0  0  0  0
    5.3936    2.3146   24.2052 C   0  0  0  0  0  0  0  0  0  0  0  0
    4.7213    1.9347   22.9384 C   0  0  0  0  0  0  0  0  0  0  0  0
    4.9549    2.6186   21.7448 C   0  0  0  0  0  0  0  0  0  0  0  0
    4.3305    2.2619   20.5803 C   0  0  0  0  0  0  0  0  0  0  0  0
    3.4511    1.2019   20.5896 C   0  0  0  0  0  0  0  0  0  0  0  0
    3.2001    0.5063   21.7555 C   0  0  0  0  0  0  0  0  0  0  0  0
    3.8381    0.8757   22.9318 C   0  0  0  0  0  0  0  0  0  0  0  0
    3.5590    0.1581   24.0626 F   0  0  0  0  0  0  0  0  0  0  0  0
    4.0271    3.6011   15.8020 C   0  0  0  0  0  0  0  0  0  0  0  0
    3.0743    4.7474   15.5222 C   0  0  0  0  0  0  0  0  0  0  0  0
    3.1071    4.9184   14.0241 C   0  0  0  0  0  0  0  0  0  0  0  0
    2.5868    3.6827   13.3950 N   0  0  0  0  0  0  0  0  0  0  0  0
    3.0524    2.4255   13.8683 C   0  0  0  0  0  0  0  0  0  0  0  0
    3.2572    2.3637   15.3916 C   0  0  0  0  0  0  0  0  0  0  0  0
    1.6257    3.9192   12.3804 C   0  0  0  0  0  0  0  0  0  0  0  0
    0.3304    4.2275   12.7064 N   0  0  0  0  0  0  0  0  0  0  0  0
   -0.6078    4.4184   11.7756 C   0  0  0  0  0  0  0  0  0  0  0  0
   -0.3333    4.3189   10.4741 N   0  0  0  0  0  0  0  0  0  0  0  0
    0.9113    4.0211   10.0779 C   0  0  0  0  0  0  0  0  0  0  0  0
    1.2591    3.9022    8.6957 N   0  0  0  0  0  0  0  0  0  0  0  0
    1.9039    3.8197   11.0587 C   0  0  0  0  0  0  0  0  0  0  0  0
    0.8788    3.0911    8.1332 H   0  0  0  0  0  0  0  0  0  0  0  0
    1.8743    4.5771    8.2018 H   0  0  0  0  0  0  0  0  0  0  0  0
    3.2382    3.5444   10.5825 C   0  0  0  0  0  0  0  0  0  0  0  0
    4.3098    3.3487   10.1822 N   0  0  0  0  0  0  0  0  0  0  0  0
    6.1123    5.4320   17.2644 C   0  0  0  0  0  0  0  0  0  0  0  0
    6.3042    6.4882   18.3116 C   0  0  0  0  0  0  0  0  0  0  0  0
    7.6050    6.7394   18.6638 O   0  0  0  0  0  0  0  0  0  0  0  0
    7.8203    7.7183   18.7087 H   0  0  0  0  0  0  0  0  0  0  0  0
  6  7  1  0  0  0
  7  8  2  0  0  0
  8  9  1  0  0  0
  9  1  1  0  0  0
  1  2  2  0  0  0
  2  3  1  0  0  0
  3 31  1  0  0  0
 31 32  1  0  0  0
 32 33  1  0  0  0
  3  4  1  0  0  0
  4 14  1  0  0  0
 14 15  1  0  0  0
 15 16  1  0  0  0
 16 17  1  0  0  0
 17 20  1  0  0  0
 20 21  2  0  0  0
 21 22  1  0  0  0
 22 23  2  0  0  0
 23 24  1  0  0  0
 24 25  1  0  0  0
 24 26  2  0  0  0
 26 29  1  0  0  0
 29 30  3  0  0  0
 17 18  1  0  0  0
 18 19  1  0  0  0
  4  5  2  0  0  0
  9 10  2  0  0  0
 10 11  1  0  0  0
 11 12  2  0  0  0
 12 13  1  0  0  0
 12  7  1  0  0  0
  5  1  1  0  0  0
 19 14  1  0  0  0
 26 20  1  0  0  0
 33 34  1  0  0  0
 25 27  1  0  0  0
 25 28  1  0  0  0
M  END
> <minimizedAffinity>
-7.05474

> <CNNscore>
0.1051843017

> <CNNaffinity>
6.3046245575

> <CNN_VS>
0.6631475091

> <CNNaffinity_variance>
0.5092099905

$$$$
[H]OC([H])([H])C([H])([H])n1c(C2([H])C([H])([H])C([H])([H])N(c3nc([H])nc(N([H])[H])c3C#N)C([H])([H])C2([H])[H])nc(-c2c([H])c([H])c(F)c(C([H])([H])[H])c2[H])c1[H]


 34 37  0  0  0  0  0  0  0  0999 V2000
    3.1882    4.9581   14.1945 C   0  0  0  0  0  0  0  0  0  0  0  0
    2.5637    6.0970   14.6456 C   0  0  0  0  0  0  0  0  0  0  0  0
    2.8072    7.0777   13.7195 N   0  0  0  0  0  0  0  0  0  0  0  0
    3.5519    6.5704   12.7341 C   0  0  0  0  0  0  0  0  0  0  0  0
    3.7708    5.2823   13.0438 N   0  0  0  0  0  0  0  0  0  0  0  0
    4.5322    1.9591   17.9640 C   0  0  0  0  0  0  0  0  0  0  0  0
    3.8212    2.2059   16.6855 C   0  0  0  0  0  0  0  0  0  0  0  0
    3.8439    3.4512   16.0567 C   0  0  0  0  0  0  0  0  0  0  0  0
    3.1852    3.6708   14.8772 C   0  0  0  0  0  0  0  0  0  0  0  0
    2.4839    2.6358   14.2993 C   0  0  0  0  0  0  0  0  0  0  0  0
    2.4436    1.3925   14.8982 C   0  0  0  0  0  0  0  0  0  0  0  0
    3.1148    1.1795   16.0945 C   0  0  0  0  0  0  0  0  0  0  0  0
    3.0472   -0.0681   16.6518 F   0  0  0  0  0  0  0  0  0  0  0  0
    4.0495    7.2574   11.5445 C   0  0  0  0  0  0  0  0  0  0  0  0
    3.3444    6.7815   10.2889 C   0  0  0  0  0  0  0  0  0  0  0  0
    3.6159    7.8548    9.2647 C   0  0  0  0  0  0  0  0  0  0  0  0
    5.0747    7.9139    9.0161 N   0  0  0  0  0  0  0  0  0  0  0  0
    5.9593    7.9056   10.1291 C   0  0  0  0  0  0  0  0  0  0  0  0
    5.5150    6.9853   11.2787 C   0  0  0  0  0  0  0  0  0  0  0  0
    5.4195    7.9394    7.6416 C   0  0  0  0  0  0  0  0  0  0  0  0
    5.4651    9.1261    6.9569 N   0  0  0  0  0  0  0  0  0  0  0  0
    5.7489    9.1811    5.6533 C   0  0  0  0  0  0  0  0  0  0  0  0
    6.0042    8.0798    4.9453 N   0  0  0  0  0  0  0  0  0  0  0  0
    5.9790    6.8825    5.5458 C   0  0  0  0  0  0  0  0  0  0  0  0
    6.2449    5.6711    4.8334 N   0  0  0  0  0  0  0  0  0  0  0  0
    5.6803    6.8218    6.9223 C   0  0  0  0  0  0  0  0  0  0  0  0
    5.5507    5.3311    4.1114 H   0  0  0  0  0  0  0  0  0  0  0  0
    7.0947    5.0944    4.9854 H   0  0  0  0  0  0  0  0  0  0  0  0
    5.7079    5.5149    7.5338 C   0  0  0  0  0  0  0  0  0  0  0  0
    5.7499    4.4545    8.0036 N   0  0  0  0  0  0  0  0  0  0  0  0
    2.2915    8.4054   13.8749 C   0  0  0  0  0  0  0  0  0  0  0  0
    3.2733    9.2327   14.6500 C   0  0  0  0  0  0  0  0  0  0  0  0
    2.8379    9.6709   15.8739 O   0  0  0  0  0  0  0  0  0  0  0  0
    3.5141    9.5413   16.6036 H   0  0  0  0  0  0  0  0  0  0  0  0
  6  7  1  0  0  0
  7  8  2  0  0  0
  8  9  1  0  0  0
  9  1  1  0  0  0
  1  2  2  0  0  0
  2  3  1  0  0  0
  3 31  1  0  0  0
 31 32  1  0  0  0
 32 33  1  0  0  0
  3  4  1  0  0  0
  4 14  1  0  0  0
 14 15  1  0  0  0
 15 16  1  0  0  0
 16 17  1  0  0  0
 17 20  1  0  0  0
 20 21  2  0  0  0
 21 22  1  0  0  0
 22 23  2  0  0  0
 23 24  1  0  0  0
 24 25  1  0  0  0
 24 26  2  0  0  0
 26 29  1  0  0  0
 29 30  3  0  0  0
 17 18  1  0  0  0
 18 19  1  0  0  0
  4  5  2  0  0  0
  9 10  2  0  0  0
 10 11  1  0  0  0
 11 12  2  0  0  0
 12 13  1  0  0  0
 12  7  1  0  0  0
  5  1  1  0  0  0
 19 14  1  0  0  0
 26 20  1  0  0  0
 33 34  1  0  0  0
 25 27  1  0  0  0
 25 28  1  0  0  0
M  END
> <minimizedAffinity>
-6.81766

> <CNNscore>
0.0977808535

> <CNNaffinity>
5.5979924202

> <CNN_VS>
0.5473764539

> <CNNaffinity_variance>
0.2249805182

$$$$
[H]Cl.[H]O[C@]([H])(C(=O)N([H])[C@]([H])(C(=O)OC([H])([H])n1c([H])c(F)c(=O)n([H])c1=O)C([H])([H])C([H])(C([H])([H])[H])C([H])([H])[H])[C@]([H])(N([H])[H])C([H])([H])c1c([H])c([H])c([H])c([H])c1[H]


 37 38  0  0  0  0  0  0  0  0999 V2000
    2.3150    4.9769   15.6670 C   0  0  0  0  0  0  0  0  0  0  0  0
    3.1512    5.9949   16.3154 N   0  0  0  0  0  0  0  0  0  0  0  0
    3.1780    6.1446   17.7290 C   0  0  0  0  0  0  0  0  0  0  0  0
    2.4626    5.3781   18.4123 O   0  0  0  0  0  0  0  0  0  0  0  0
    3.7517    6.6400   15.7571 H   0  0  0  0  0  0  0  0  0  0  0  0
    4.0162    7.1662   18.4040 C   0  0  0  0  0  0  0  0  0  0  0  0
    3.2285    7.8934   19.2858 O   0  0  0  0  0  0  0  0  0  0  0  0
    3.1852    7.4245   20.1518 H   0  0  0  0  0  0  0  0  0  0  0  0
    5.1554    6.5335   19.1909 C   0  0  0  0  0  0  0  0  0  0  0  0
    5.2256    5.1202   18.9935 N   0  0  0  0  0  0  0  0  0  0  0  0
    6.1896    4.7479   18.9021 H   0  0  0  0  0  0  0  0  0  0  0  0
    4.6033    4.5483   19.5700 H   0  0  0  0  0  0  0  0  0  0  0  0
    4.9304    6.8773   20.6381 C   0  0  0  0  0  0  0  0  0  0  0  0
    4.9244    5.6991   21.5294 C   0  0  0  0  0  0  0  0  0  0  0  0
    3.7643    5.1839   22.0835 C   0  0  0  0  0  0  0  0  0  0  0  0
    3.7624    4.0795   22.9180 C   0  0  0  0  0  0  0  0  0  0  0  0
    4.9406    3.4613   23.2174 C   0  0  0  0  0  0  0  0  0  0  0  0
    6.1153    3.9364   22.6916 C   0  0  0  0  0  0  0  0  0  0  0  0
    6.1048    5.0306   21.8666 C   0  0  0  0  0  0  0  0  0  0  0  0
    2.9993    3.6623   15.7348 C   0  0  0  0  0  0  0  0  0  0  0  0
    4.2432    3.6486   15.4280 O   0  0  0  0  0  0  0  0  0  0  0  0
    2.4683    2.4698   16.0847 O   0  0  0  0  0  0  0  0  0  0  0  0
    3.0315    1.2742   16.4582 C   0  0  0  0  0  0  0  0  0  0  0  0
    3.4127    1.1095   17.8234 N   0  0  0  0  0  0  0  0  0  0  0  0
    4.4517    1.6880   18.4430 C   0  0  0  0  0  0  0  0  0  0  0  0
    4.7485    1.4426   19.7896 C   0  0  0  0  0  0  0  0  0  0  0  0
    5.7988    2.0371   20.3901 F   0  0  0  0  0  0  0  0  0  0  0  0
    3.9625    0.5864   20.5114 C   0  0  0  0  0  0  0  0  0  0  0  0
    4.1369    0.2971   21.7157 O   0  0  0  0  0  0  0  0  0  0  0  0
    2.9190    0.0144   19.8619 N   0  0  0  0  0  0  0  0  0  0  0  0
    2.6637    0.2687   18.5810 C   0  0  0  0  0  0  0  0  0  0  0  0
    1.6545   -0.3236   18.0643 O   0  0  0  0  0  0  0  0  0  0  0  0
    2.2978   -0.6509   20.3989 H   0  0  0  0  0  0  0  0  0  0  0  0
    1.9051    5.4166   14.3078 C   0  0  0  0  0  0  0  0  0  0  0  0
    1.5495    7.7979   13.6260 C   0  0  0  0  0  0  0  0  0  0  0  0
    0.9548    6.5672   14.3191 C   0  0  0  0  0  0  0  0  0  0  0  0
   -0.3481    6.1797   13.5960 C   0  0  0  0  0  0  0  0  0  0  0  0
 35 36  1  0  0  0
 36 37  1  0  0  0
 36 34  1  0  0  0
 34  1  1  0  0  0
  1  2  1  0  0  0
  2  3  1  0  0  0
  3  4  2  0  0  0
  3  6  1  0  0  0
  6  7  1  0  0  0
  6  9  1  0  0  0
  9 10  1  0  0  0
  9 13  1  0  0  0
 13 14  1  0  0  0
 14 15  2  0  0  0
 15 16  1  0  0  0
 16 17  2  0  0  0
 17 18  1  0  0  0
 18 19  2  0  0  0
  1 20  1  0  0  0
 20 21  2  0  0  0
 20 22  1  0  0  0
 22 23  1  0  0  0
 23 24  1  0  0  0
 24 25  1  0  0  0
 25 26  2  0  0  0
 26 27  1  0  0  0
 26 28  1  0  0  0
 28 29  2  0  0  0
 28 30  1  0  0  0
 30 31  1  0  0  0
 31 32  2  0  0  0
 19 14  1  0  0  0
 31 24  1  0  0  0
  2  5  1  0  0  0
  7  8  1  0  0  0
 10 11  1  0  0  0
 10 12  1  0  0  0
 30 33  1  0  0  0
M  END
> <minimizedAffinity>
-7.81390

> <CNNscore>
0.7428719997

> <CNNaffinity>
6.7063827515

> <CNN_VS>
4.9819841385

> <CNNaffinity_variance>
0.2913663983

$$$$
[H]Cl.[H]O[C@]([H])(C(=O)N([H])[C@]([H])(C(=O)OC([H])([H])n1c([H])c(F)c(=O)n([H])c1=O)C([H])([H])C([H])(C([H])([H])[H])C([H])([H])[H])[C@]([H])(N([H])[H])C([H])([H])c1c([H])c([H])c([H])c([H])c1[H]


 37 38  0  0  0  0  0  0  0  0999 V2000
    4.0776    3.7673   16.5990 C   0  0  0  0  0  0  0  0  0  0  0  0
    4.1725    4.8575   15.6201 N   0  0  0  0  0  0  0  0  0  0  0  0
    3.0859    5.7443   15.3875 C   0  0  0  0  0  0  0  0  0  0  0  0
    2.0360    5.5687   16.0456 O   0  0  0  0  0  0  0  0  0  0  0  0
    5.0419    5.0142   15.0649 H   0  0  0  0  0  0  0  0  0  0  0  0
    3.1614    6.8525   14.4035 C   0  0  0  0  0  0  0  0  0  0  0  0
    4.2197    6.6214   13.5354 O   0  0  0  0  0  0  0  0  0  0  0  0
    3.9176    6.0461   12.7941 H   0  0  0  0  0  0  0  0  0  0  0  0
    1.8852    6.9672   13.5816 C   0  0  0  0  0  0  0  0  0  0  0  0
    0.7815    7.4275   14.3633 N   0  0  0  0  0  0  0  0  0  0  0  0
    0.1666    8.1073   13.8776 H   0  0  0  0  0  0  0  0  0  0  0  0
    0.2831    6.7198   14.9087 H   0  0  0  0  0  0  0  0  0  0  0  0
    1.6179    5.6067   12.9979 C   0  0  0  0  0  0  0  0  0  0  0  0
    0.4203    5.5613   12.1340 C   0  0  0  0  0  0  0  0  0  0  0  0
    0.3283    6.2610   10.9423 C   0  0  0  0  0  0  0  0  0  0  0  0
   -0.7953    6.2159   10.1352 C   0  0  0  0  0  0  0  0  0  0  0  0
   -1.8640    5.4572   10.5127 C   0  0  0  0  0  0  0  0  0  0  0  0
   -1.8184    4.7468   11.6854 C   0  0  0  0  0  0  0  0  0  0  0  0
   -0.7005    4.7993   12.4764 C   0  0  0  0  0  0  0  0  0  0  0  0
    5.1627    3.9097   17.6006 C   0  0  0  0  0  0  0  0  0  0  0  0
    6.2303    4.4988   17.2073 O   0  0  0  0  0  0  0  0  0  0  0  0
    5.1623    3.4931   18.8863 O   0  0  0  0  0  0  0  0  0  0  0  0
    5.3015    4.1581   20.0798 C   0  0  0  0  0  0  0  0  0  0  0  0
    5.0993    3.4223   21.2855 N   0  0  0  0  0  0  0  0  0  0  0  0
    4.1816    2.4685   21.5006 C   0  0  0  0  0  0  0  0  0  0  0  0
    4.0567    1.8177   22.7346 C   0  0  0  0  0  0  0  0  0  0  0  0
    3.1260    0.8614   22.9257 F   0  0  0  0  0  0  0  0  0  0  0  0
    4.8907    2.1544   23.7655 C   0  0  0  0  0  0  0  0  0  0  0  0
    4.8658    1.6384   24.9047 O   0  0  0  0  0  0  0  0  0  0  0  0
    5.8092    3.1215   23.5226 N   0  0  0  0  0  0  0  0  0  0  0  0
    5.9022    3.7208   22.3382 C   0  0  0  0  0  0  0  0  0  0  0  0
    6.8036    4.6201   22.2150 O   0  0  0  0  0  0  0  0  0  0  0  0
    6.4644    3.3987   24.3041 H   0  0  0  0  0  0  0  0  0  0  0  0
    4.0043    2.4489   15.9168 C   0  0  0  0  0  0  0  0  0  0  0  0
    2.1398    1.7969   14.3804 C   0  0  0  0  0  0  0  0  0  0  0  0
    2.6183    1.9020   15.8325 C   0  0  0  0  0  0  0  0  0  0  0  0
    2.5670    0.5004   16.4678 C   0  0  0  0  0  0  0  0  0  0  0  0
 35 36  1  0  0  0
 36 37  1  0  0  0
 36 34  1  0  0  0
 34  1  1  0  0  0
  1  2  1  0  0  0
  2  3  1  0  0  0
  3  4  2  0  0  0
  3  6  1  0  0  0
  6  7  1  0  0  0
  6  9  1  0  0  0
  9 10  1  0  0  0
  9 13  1  0  0  0
 13 14  1  0  0  0
 14 15  2  0  0  0
 15 16  1  0  0  0
 16 17  2  0  0  0
 17 18  1  0  0  0
 18 19  2  0  0  0
  1 20  1  0  0  0
 20 21  2  0  0  0
 20 22  1  0  0  0
 22 23  1  0  0  0
 23 24  1  0  0  0
 24 25  1  0  0  0
 25 26  2  0  0  0
 26 27  1  0  0  0
 26 28  1  0  0  0
 28 29  2  0  0  0
 28 30  1  0  0  0
 30 31  1  0  0  0
 31 32  2  0  0  0
 19 14  1  0  0  0
 31 24  1  0  0  0
  2  5  1  0  0  0
  7  8  1  0  0  0
 10 11  1  0  0  0
 10 12  1  0  0  0
 30 33  1  0  0  0
M  END
> <minimizedAffinity>
-7.65513

> <CNNscore>
0.6956880689

> <CNNaffinity>
6.3248248100

> <CNN_VS>
4.4001049995

> <CNNaffinity_variance>
0.1780537218

$$$$
[H]Cl.[H]O[C@]([H])(C(=O)N([H])[C@]([H])(C(=O)OC([H])([H])n1c([H])c(F)c(=O)n([H])c1=O)C([H])([H])C([H])(C([H])([H])[H])C([H])([H])[H])[C@]([H])(N([H])[H])C([H])([H])c1c([H])c([H])c([H])c([H])c1[H]


 37 38  0  0  0  0  0  0  0  0999 V2000
    4.8474    6.9911   18.5472 C   0  0  0  0  0  0  0  0  0  0  0  0
    5.4910    6.0486   19.4710 N   0  0  0  0  0  0  0  0  0  0  0  0
    5.3714    6.1907   20.8805 C   0  0  0  0  0  0  0  0  0  0  0  0
    4.6967    7.1502   21.3169 O   0  0  0  0  0  0  0  0  0  0  0  0
    6.0563    5.2451   19.1199 H   0  0  0  0  0  0  0  0  0  0  0  0
    6.0132    5.2492   21.8312 C   0  0  0  0  0  0  0  0  0  0  0  0
    6.6775    5.9726   22.8122 O   0  0  0  0  0  0  0  0  0  0  0  0
    6.0481    6.2007   23.5357 H   0  0  0  0  0  0  0  0  0  0  0  0
    4.9921    4.3477   22.5109 C   0  0  0  0  0  0  0  0  0  0  0  0
    4.4391    4.9493   23.6828 N   0  0  0  0  0  0  0  0  0  0  0  0
    3.4204    4.7946   23.8037 H   0  0  0  0  0  0  0  0  0  0  0  0
    4.9864    4.8594   24.5425 H   0  0  0  0  0  0  0  0  0  0  0  0
    5.6948    3.0572   22.8332 C   0  0  0  0  0  0  0  0  0  0  0  0
    5.0473    1.8696   22.2391 C   0  0  0  0  0  0  0  0  0  0  0  0
    3.6946    1.6058   22.3761 C   0  0  0  0  0  0  0  0  0  0  0  0
    3.0911    0.4922   21.8178 C   0  0  0  0  0  0  0  0  0  0  0  0
    3.8432   -0.3913   21.1009 C   0  0  0  0  0  0  0  0  0  0  0  0
    5.1875   -0.1713   20.9387 C   0  0  0  0  0  0  0  0  0  0  0  0
    5.7739    0.9347   21.4961 C   0  0  0  0  0  0  0  0  0  0  0  0
    4.1541    6.2340   17.4760 C   0  0  0  0  0  0  0  0  0  0  0  0
    2.8763    6.3232   17.4479 O   0  0  0  0  0  0  0  0  0  0  0  0
    4.7092    5.4581   16.5188 O   0  0  0  0  0  0  0  0  0  0  0  0
    5.2882    4.2132   16.5501 C   0  0  0  0  0  0  0  0  0  0  0  0
    4.4324    3.0779   16.6725 N   0  0  0  0  0  0  0  0  0  0  0  0
    3.6956    2.5187   15.7017 C   0  0  0  0  0  0  0  0  0  0  0  0
    2.8715    1.4104   15.9347 C   0  0  0  0  0  0  0  0  0  0  0  0
    2.1406    0.8658   14.9415 F   0  0  0  0  0  0  0  0  0  0  0  0
    2.8040    0.8682   17.1890 C   0  0  0  0  0  0  0  0  0  0  0  0
    2.1030   -0.1180   17.5062 O   0  0  0  0  0  0  0  0  0  0  0  0
    3.5579    1.4521   18.1526 N   0  0  0  0  0  0  0  0  0  0  0  0
    4.3312    2.5047   17.8985 C   0  0  0  0  0  0  0  0  0  0  0  0
    5.0019    2.9791   18.8791 O   0  0  0  0  0  0  0  0  0  0  0  0
    3.5219    1.0508   19.1296 H   0  0  0  0  0  0  0  0  0  0  0  0
    5.8143    8.0194   18.0820 C   0  0  0  0  0  0  0  0  0  0  0  0
    3.9920    9.5053   18.9383 C   0  0  0  0  0  0  0  0  0  0  0  0
    5.4616    9.4031   18.5155 C   0  0  0  0  0  0  0  0  0  0  0  0
    6.3439    9.8219   19.7058 C   0  0  0  0  0  0  0  0  0  0  0  0
 35 36  1  0  0  0
 36 37  1  0  0  0
 36 34  1  0  0  0
 34  1  1  0  0  0
  1  2  1  0  0  0
  2  3  1  0  0  0
  3  4  2  0  0  0
  3  6  1  0  0  0
  6  7  1  0  0  0
  6  9  1  0  0  0
  9 10  1  0  0  0
  9 13  1  0  0  0
 13 14  1  0  0  0
 14 15  2  0  0  0
 15 16  1  0  0  0
 16 17  2  0  0  0
 17 18  1  0  0  0
 18 19  2  0  0  0
  1 20  1  0  0  0
 20 21  2  0  0  0
 20 22  1  0  0  0
 22 23  1  0  0  0
 23 24  1  0  0  0
 24 25  1  0  0  0
 25 26  2  0  0  0
 26 27  1  0  0  0
 26 28  1  0  0  0
 28 29  2  0  0  0
 28 30  1  0  0  0
 30 31  1  0  0  0
 31 32  2  0  0  0
 19 14  1  0  0  0
 31 24  1  0  0  0
  2  5  1  0  0  0
  7  8  1  0  0  0
 10 11  1  0  0  0
 10 12  1  0  0  0
 30 33  1  0  0  0
M  END
> <minimizedAffinity>
-7.39419

> <CNNscore>
0.6898764968

> <CNNaffinity>
6.8797478676

> <CNN_VS>
4.7461762428

> <CNNaffinity_variance>
0.2340001613

$$$$
[H]Cl.[H]O[C@]([H])(C(=O)N([H])[C@]([H])(C(=O)OC([H])([H])n1c([H])c(F)c(=O)n([H])c1=O)C([H])([H])C([H])(C([H])([H])[H])C([H])([H])[H])[C@]([H])(N([H])[H])C([H])([H])c1c([H])c([H])c([H])c([H])c1[H]


 37 38  0  0  0  0  0  0  0  0999 V2000
    3.5266    4.1748   17.6997 C   0  0  0  0  0  0  0  0  0  0  0  0
    4.0117    5.5379   17.9494 N   0  0  0  0  0  0  0  0  0  0  0  0
    4.0108    6.0996   19.2554 C   0  0  0  0  0  0  0  0  0  0  0  0
    3.5808    5.3942   20.1956 O   0  0  0  0  0  0  0  0  0  0  0  0
    4.3723    6.1361   17.1744 H   0  0  0  0  0  0  0  0  0  0  0  0
    4.4971    7.4746   19.5294 C   0  0  0  0  0  0  0  0  0  0  0  0
    3.4130    8.3395   19.5871 O   0  0  0  0  0  0  0  0  0  0  0  0
    3.0404    8.3398   20.4997 H   0  0  0  0  0  0  0  0  0  0  0  0
    5.2453    7.5569   20.8525 C   0  0  0  0  0  0  0  0  0  0  0  0
    4.5079    8.2743   21.8438 N   0  0  0  0  0  0  0  0  0  0  0  0
    4.5573    7.8636   22.7951 H   0  0  0  0  0  0  0  0  0  0  0  0
    4.5833    9.2944   21.8182 H   0  0  0  0  0  0  0  0  0  0  0  0
    6.5678    8.2144   20.5662 C   0  0  0  0  0  0  0  0  0  0  0  0
    7.7297    7.4220   21.0185 C   0  0  0  0  0  0  0  0  0  0  0  0
    7.7088    6.6489   22.1675 C   0  0  0  0  0  0  0  0  0  0  0  0
    8.7993    5.9074   22.5881 C   0  0  0  0  0  0  0  0  0  0  0  0
    9.9486    5.9268   21.8541 C   0  0  0  0  0  0  0  0  0  0  0  0
   10.0160    6.6784   20.7085 C   0  0  0  0  0  0  0  0  0  0  0  0
    8.9299    7.4085   20.3020 C   0  0  0  0  0  0  0  0  0  0  0  0
    4.6636    3.2252   17.7823 C   0  0  0  0  0  0  0  0  0  0  0  0
    5.8022    3.6608   17.3882 O   0  0  0  0  0  0  0  0  0  0  0  0
    4.6457    1.9491   18.2270 O   0  0  0  0  0  0  0  0  0  0  0  0
    3.9393    1.3210   19.2232 C   0  0  0  0  0  0  0  0  0  0  0  0
    4.2796    1.6178   20.5768 N   0  0  0  0  0  0  0  0  0  0  0  0
    5.2987    2.3792   21.0007 C   0  0  0  0  0  0  0  0  0  0  0  0
    5.5553    2.5928   22.3610 C   0  0  0  0  0  0  0  0  0  0  0  0
    6.5863    3.3632   22.7619 F   0  0  0  0  0  0  0  0  0  0  0  0
    4.7491    2.0124   23.3017 C   0  0  0  0  0  0  0  0  0  0  0  0
    4.8877    2.1365   24.5386 O   0  0  0  0  0  0  0  0  0  0  0  0
    3.7263    1.2473   22.8474 N   0  0  0  0  0  0  0  0  0  0  0  0
    3.5093    1.0642   21.5474 C   0  0  0  0  0  0  0  0  0  0  0  0
    2.5168    0.3238   21.2260 O   0  0  0  0  0  0  0  0  0  0  0  0
    3.0902    0.7884   23.5555 H   0  0  0  0  0  0  0  0  0  0  0  0
    2.7337    4.1173   16.4440 C   0  0  0  0  0  0  0  0  0  0  0  0
    2.3212    2.1461   14.9586 C   0  0  0  0  0  0  0  0  0  0  0  0
    3.3226    3.2138   15.4126 C   0  0  0  0  0  0  0  0  0  0  0  0
    3.7568    4.0324   14.1830 C   0  0  0  0  0  0  0  0  0  0  0  0
 35 36  1  0  0  0
 36 37  1  0  0  0
 36 34  1  0  0  0
 34  1  1  0  0  0
  1  2  1  0  0  0
  2  3  1  0  0  0
  3  4  2  0  0  0
  3  6  1  0  0  0
  6  7  1  0  0  0
  6  9  1  0  0  0
  9 10  1  0  0  0
  9 13  1  0  0  0
 13 14  1  0  0  0
 14 15  2  0  0  0
 15 16  1  0  0  0
 16 17  2  0  0  0
 17 18  1  0  0  0
 18 19  2  0  0  0
  1 20  1  0  0  0
 20 21  2  0  0  0
 20 22  1  0  0  0
 22 23  1  0  0  0
 23 24  1  0  0  0
 24 25  1  0  0  0
 25 26  2  0  0  0
 26 27  1  0  0  0
 26 28  1  0  0  0
 28 29  2  0  0  0
 28 30  1  0  0  0
 30 31  1  0  0  0
 31 32  2  0  0  0
 19 14  1  0  0  0
 31 24  1  0  0  0
  2  5  1  0  0  0
  7  8  1  0  0  0
 10 11  1  0  0  0
 10 12  1  0  0  0
 30 33  1  0  0  0
M  END
> <minimizedAffinity>
-8.48864

> <CNNscore>
0.5053777099

> <CNNaffinity>
6.4486336708

> <CNN_VS>
3.2589957714

> <CNNaffinity_variance>
0.1542416364

$$$$
[H]Cl.[H]O[C@]([H])(C(=O)N([H])[C@]([H])(C(=O)OC([H])([H])n1c([H])c(F)c(=O)n([H])c1=O)C([H])([H])C([H])(C([H])([H])[H])C([H])([H])[H])[C@]([H])(N([H])[H])C([H])([H])c1c([H])c([H])c([H])c([H])c1[H]


 37 38  0  0  0  0  0  0  0  0999 V2000
    4.2680    7.6799   17.9011 C   0  0  0  0  0  0  0  0  0  0  0  0
    3.6233    7.9786   16.6161 N   0  0  0  0  0  0  0  0  0  0  0  0
    4.3592    8.5068   15.5204 C   0  0  0  0  0  0  0  0  0  0  0  0
    5.5830    8.7128   15.6822 O   0  0  0  0  0  0  0  0  0  0  0  0
    2.6040    7.8118   16.4686 H   0  0  0  0  0  0  0  0  0  0  0  0
    3.7271    8.8150   14.2136 C   0  0  0  0  0  0  0  0  0  0  0  0
    4.4329    9.8375   13.5946 O   0  0  0  0  0  0  0  0  0  0  0  0
    5.1871    9.4563   13.0870 H   0  0  0  0  0  0  0  0  0  0  0  0
    3.7247    7.6069   13.2874 C   0  0  0  0  0  0  0  0  0  0  0  0
    4.9934    7.4062   12.6618 N   0  0  0  0  0  0  0  0  0  0  0  0
    5.2852    6.4130   12.5941 H   0  0  0  0  0  0  0  0  0  0  0  0
    5.1803    7.9609   11.8227 H   0  0  0  0  0  0  0  0  0  0  0  0
    2.6395    7.8377   12.2714 C   0  0  0  0  0  0  0  0  0  0  0  0
    1.5326    6.8633   12.3602 C   0  0  0  0  0  0  0  0  0  0  0  0
    1.6739    5.6197   12.9534 C   0  0  0  0  0  0  0  0  0  0  0  0
    0.6344    4.7094   13.0352 C   0  0  0  0  0  0  0  0  0  0  0  0
   -0.5847    5.0330   12.5164 C   0  0  0  0  0  0  0  0  0  0  0  0
   -0.7717    6.2537   11.9191 C   0  0  0  0  0  0  0  0  0  0  0  0
    0.2649    7.1469   11.8439 C   0  0  0  0  0  0  0  0  0  0  0  0
    4.0914    6.2412   18.2173 C   0  0  0  0  0  0  0  0  0  0  0  0
    2.9350    5.8861   18.6392 O   0  0  0  0  0  0  0  0  0  0  0  0
    5.0066    5.2522   18.1123 O   0  0  0  0  0  0  0  0  0  0  0  0
    5.1423    4.0396   18.7424 C   0  0  0  0  0  0  0  0  0  0  0  0
    4.4772    2.9110   18.1765 N   0  0  0  0  0  0  0  0  0  0  0  0
    4.1515    2.7331   16.8880 C   0  0  0  0  0  0  0  0  0  0  0  0
    3.4799    1.5889   16.4391 C   0  0  0  0  0  0  0  0  0  0  0  0
    3.1639    1.4332   15.1379 F   0  0  0  0  0  0  0  0  0  0  0  0
    3.1371    0.6106   17.3320 C   0  0  0  0  0  0  0  0  0  0  0  0
    2.5382   -0.4479   17.0397 O   0  0  0  0  0  0  0  0  0  0  0  0
    3.4773    0.8146   18.6283 N   0  0  0  0  0  0  0  0  0  0  0  0
    4.1157    1.9135   19.0228 C   0  0  0  0  0  0  0  0  0  0  0  0
    4.3896    2.0067   20.2688 O   0  0  0  0  0  0  0  0  0  0  0  0
    3.2227    0.0727   19.3365 H   0  0  0  0  0  0  0  0  0  0  0  0
    3.8153    8.6273   18.9528 C   0  0  0  0  0  0  0  0  0  0  0  0
    4.8972    8.7640   21.2051 C   0  0  0  0  0  0  0  0  0  0  0  0
    4.9367    9.2167   19.7415 C   0  0  0  0  0  0  0  0  0  0  0  0
    6.2863    8.7923   19.1339 C   0  0  0  0  0  0  0  0  0  0  0  0
 35 36  1  0  0  0
 36 37  1  0  0  0
 36 34  1  0  0  0
 34  1  1  0  0  0
  1  2  1  0  0  0
  2  3  1  0  0  0
  3  4  2  0  0  0
  3  6  1  0  0  0
  6  7  1  0  0  0
  6  9  1  0  0  0
  9 10  1  0  0  0
  9 13  1  0  0  0
 13 14  1  0  0  0
 14 15  2  0  0  0
 15 16  1  0  0  0
 16 17  2  0  0  0
 17 18  1  0  0  0
 18 19  2  0  0  0
  1 20  1  0  0  0
 20 21  2  0  0  0
 20 22  1  0  0  0
 22 23  1  0  0  0
 23 24  1  0  0  0
 24 25  1  0  0  0
 25 26  2  0  0  0
 26 27  1  0  0  0
 26 28  1  0  0  0
 28 29  2  0  0  0
 28 30  1  0  0  0
 30 31  1  0  0  0
 31 32  2  0  0  0
 19 14  1  0  0  0
 31 24  1  0  0  0
  2  5  1  0  0  0
  7  8  1  0  0  0
 10 11  1  0  0  0
 10 12  1  0  0  0
 30 33  1  0  0  0
M  END
> <minimizedAffinity>
-7.20960

> <CNNscore>
0.4964902699

> <CNNaffinity>
5.9723162651

> <CNN_VS>
2.9651968479

> <CNNaffinity_variance>
0.3181956410

$$$$
[H]Cl.[H]O[C@]([H])(C(=O)N([H])[C@]([H])(C(=O)OC([H])([H])n1c([H])c(F)c(=O)n([H])c1=O)C([H])([H])C([H])(C([H])([H])[H])C([H])([H])[H])[C@]([H])(N([H])[H])C([H])([H])c1c([H])c([H])c([H])c([H])c1[H]


 37 38  0  0  0  0  0  0  0  0999 V2000
    5.2880    3.0958   20.1006 C   0  0  0  0  0  0  0  0  0  0  0  0
    5.5083    4.5288   19.8683 N   0  0  0  0  0  0  0  0  0  0  0  0
    4.4975    5.4902   20.1426 C   0  0  0  0  0  0  0  0  0  0  0  0
    3.4043    5.0782   20.5914 O   0  0  0  0  0  0  0  0  0  0  0  0
    6.4148    4.8848   19.4943 H   0  0  0  0  0  0  0  0  0  0  0  0
    4.6999    6.9426   19.9155 C   0  0  0  0  0  0  0  0  0  0  0  0
    3.4682    7.5488   19.7097 O   0  0  0  0  0  0  0  0  0  0  0  0
    3.0698    7.7878   20.5791 H   0  0  0  0  0  0  0  0  0  0  0  0
    5.3699    7.6135   21.1065 C   0  0  0  0  0  0  0  0  0  0  0  0
    4.5886    8.6906   21.6268 N   0  0  0  0  0  0  0  0  0  0  0  0
    4.5738    8.7476   22.6626 H   0  0  0  0  0  0  0  0  0  0  0  0
    4.6846    9.5928   21.1541 H   0  0  0  0  0  0  0  0  0  0  0  0
    6.7191    8.0869   20.6391 C   0  0  0  0  0  0  0  0  0  0  0  0
    7.8466    7.4092   21.3113 C   0  0  0  0  0  0  0  0  0  0  0  0
    9.1425    7.8969   21.2776 C   0  0  0  0  0  0  0  0  0  0  0  0
   10.1965    7.2594   21.9090 C   0  0  0  0  0  0  0  0  0  0  0  0
    9.9684    6.1037   22.5964 C   0  0  0  0  0  0  0  0  0  0  0  0
    8.7007    5.5828   22.6571 C   0  0  0  0  0  0  0  0  0  0  0  0
    7.6651    6.2228   22.0280 C   0  0  0  0  0  0  0  0  0  0  0  0
    4.3686    2.5651   19.0642 C   0  0  0  0  0  0  0  0  0  0  0  0
    3.6754    1.5371   19.3869 O   0  0  0  0  0  0  0  0  0  0  0  0
    4.1700    3.0376   17.8136 O   0  0  0  0  0  0  0  0  0  0  0  0
    4.4297    2.5161   16.5700 C   0  0  0  0  0  0  0  0  0  0  0  0
    3.4676    2.7304   15.5382 N   0  0  0  0  0  0  0  0  0  0  0  0
    3.3548    3.8146   14.7572 C   0  0  0  0  0  0  0  0  0  0  0  0
    2.3574    3.9305   13.7807 C   0  0  0  0  0  0  0  0  0  0  0  0
    2.2653    5.0308   13.0075 F   0  0  0  0  0  0  0  0  0  0  0  0
    1.4600    2.9129   13.6050 C   0  0  0  0  0  0  0  0  0  0  0  0
    0.5330    2.9125   12.7651 O   0  0  0  0  0  0  0  0  0  0  0  0
    1.5951    1.8284   14.4071 N   0  0  0  0  0  0  0  0  0  0  0  0
    2.5544    1.7491   15.3259 C   0  0  0  0  0  0  0  0  0  0  0  0
    2.5932    0.6818   16.0300 O   0  0  0  0  0  0  0  0  0  0  0  0
    0.9132    1.0297   14.2900 H   0  0  0  0  0  0  0  0  0  0  0  0
    4.8807    2.8446   21.5077 C   0  0  0  0  0  0  0  0  0  0  0  0
    5.5555    2.1961   23.8285 C   0  0  0  0  0  0  0  0  0  0  0  0
    6.0273    2.5258   22.4081 C   0  0  0  0  0  0  0  0  0  0  0  0
    6.8070    1.3174   21.8582 C   0  0  0  0  0  0  0  0  0  0  0  0
 35 36  1  0  0  0
 36 37  1  0  0  0
 36 34  1  0  0  0
 34  1  1  0  0  0
  1  2  1  0  0  0
  2  3  1  0  0  0
  3  4  2  0  0  0
  3  6  1  0  0  0
  6  7  1  0  0  0
  6  9  1  0  0  0
  9 10  1  0  0  0
  9 13  1  0  0  0
 13 14  1  0  0  0
 14 15  2  0  0  0
 15 16  1  0  0  0
 16 17  2  0  0  0
 17 18  1  0  0  0
 18 19  2  0  0  0
  1 20  1  0  0  0
 20 21  2  0  0  0
 20 22  1  0  0  0
 22 23  1  0  0  0
 23 24  1  0  0  0
 24 25  1  0  0  0
 25 26  2  0  0  0
 26 27  1  0  0  0
 26 28  1  0  0  0
 28 29  2  0  0  0
 28 30  1  0  0  0
 30 31  1  0  0  0
 31 32  2  0  0  0
 19 14  1  0  0  0
 31 24  1  0  0  0
  2  5  1  0  0  0
  7  8  1  0  0  0
 10 11  1  0  0  0
 10 12  1  0  0  0
 30 33  1  0  0  0
M  END
> <minimizedAffinity>
-7.83988

> <CNNscore>
0.4657290876

> <CNNaffinity>
6.0915694237

> <CNN_VS>
2.8370211124

> <CNNaffinity_variance>
0.2355610132

$$$$
[H]Cl.[H]O[C@]([H])(C(=O)N([H])[C@]([H])(C(=O)OC([H])([H])n1c([H])c(F)c(=O)n([H])c1=O)C([H])([H])C([H])(C([H])([H])[H])C([H])([H])[H])[C@]([H])(N([H])[H])C([H])([H])c1c([H])c([H])c([H])c([H])c1[H]


 37 38  0  0  0  0  0  0  0  0999 V2000
    4.3381    2.9704   18.4961 C   0  0  0  0  0  0  0  0  0  0  0  0
    4.1514    3.8960   19.6205 N   0  0  0  0  0  0  0  0  0  0  0  0
    4.9952    5.0258   19.8011 C   0  0  0  0  0  0  0  0  0  0  0  0
    5.9105    5.2118   18.9680 O   0  0  0  0  0  0  0  0  0  0  0  0
    3.3925    3.7519   20.3218 H   0  0  0  0  0  0  0  0  0  0  0  0
    4.8233    5.9736   20.9299 C   0  0  0  0  0  0  0  0  0  0  0  0
    3.4929    5.9760   21.3259 O   0  0  0  0  0  0  0  0  0  0  0  0
    3.3412    5.2491   21.9743 H   0  0  0  0  0  0  0  0  0  0  0  0
    5.6781    5.5866   22.1287 C   0  0  0  0  0  0  0  0  0  0  0  0
    4.8853    5.2516   23.2690 N   0  0  0  0  0  0  0  0  0  0  0  0
    5.2351    4.4383   23.8098 H   0  0  0  0  0  0  0  0  0  0  0  0
    4.5594    6.0335   23.8428 H   0  0  0  0  0  0  0  0  0  0  0  0
    6.5863    6.7521   22.4119 C   0  0  0  0  0  0  0  0  0  0  0  0
    7.9923    6.5101   22.0286 C   0  0  0  0  0  0  0  0  0  0  0  0
    8.8633    5.7633   22.8045 C   0  0  0  0  0  0  0  0  0  0  0  0
   10.1800    5.5382   22.4420 C   0  0  0  0  0  0  0  0  0  0  0  0
   10.6560    6.0651   21.2775 C   0  0  0  0  0  0  0  0  0  0  0  0
    9.8298    6.8118   20.4765 C   0  0  0  0  0  0  0  0  0  0  0  0
    8.5279    7.0280   20.8458 C   0  0  0  0  0  0  0  0  0  0  0  0
    3.2758    3.2022   17.4866 C   0  0  0  0  0  0  0  0  0  0  0  0
    2.9493    2.1992   16.7594 O   0  0  0  0  0  0  0  0  0  0  0  0
    2.6046    4.3490   17.2398 O   0  0  0  0  0  0  0  0  0  0  0  0
    2.0283    4.8636   16.1045 C   0  0  0  0  0  0  0  0  0  0  0  0
    2.6889    4.6458   14.8586 N   0  0  0  0  0  0  0  0  0  0  0  0
    2.5017    3.6173   14.0188 C   0  0  0  0  0  0  0  0  0  0  0  0
    3.2196    3.4901   12.8229 C   0  0  0  0  0  0  0  0  0  0  0  0
    3.0127    2.4467   11.9948 F   0  0  0  0  0  0  0  0  0  0  0  0
    4.1468    4.4378   12.4853 C   0  0  0  0  0  0  0  0  0  0  0  0
    4.8410    4.4219   11.4449 O   0  0  0  0  0  0  0  0  0  0  0  0
    4.3175    5.4669   13.3511 N   0  0  0  0  0  0  0  0  0  0  0  0
    3.6189    5.5589   14.4799 C   0  0  0  0  0  0  0  0  0  0  0  0
    3.8575    6.5701   15.2262 O   0  0  0  0  0  0  0  0  0  0  0  0
    5.0285    6.2112   13.1117 H   0  0  0  0  0  0  0  0  0  0  0  0
    4.4684    1.5709   18.9792 C   0  0  0  0  0  0  0  0  0  0  0  0
    3.3841    0.3941   20.9031 C   0  0  0  0  0  0  0  0  0  0  0  0
    4.4057    1.4492   20.4653 C   0  0  0  0  0  0  0  0  0  0  0  0
    5.7868    1.0530   21.0187 C   0  0  0  0  0  0  0  0  0  0  0  0
 35 36  1  0  0  0
 36 37  1  0  0  0
 36 34  1  0  0  0
 34  1  1  0  0  0
  1  2  1  0  0  0
  2  3  1  0  0  0
  3  4  2  0  0  0
  3  6  1  0  0  0
  6  7  1  0  0  0
  6  9  1  0  0  0
  9 10  1  0  0  0
  9 13  1  0  0  0
 13 14  1  0  0  0
 14 15  2  0  0  0
 15 16  1  0  0  0
 16 17  2  0  0  0
 17 18  1  0  0  0
 18 19  2  0  0  0
  1 20  1  0  0  0
 20 21  2  0  0  0
 20 22  1  0  0  0
 22 23  1  0  0  0
 23 24  1  0  0  0
 24 25  1  0  0  0
 25 26  2  0  0  0
 26 27  1  0  0  0
 26 28  1  0  0  0
 28 29  2  0  0  0
 28 30  1  0  0  0
 30 31  1  0  0  0
 31 32  2  0  0  0
 19 14  1  0  0  0
 31 24  1  0  0  0
  2  5  1  0  0  0
  7  8  1  0  0  0
 10 11  1  0  0  0
 10 12  1  0  0  0
 30 33  1  0  0  0
M  END
> <minimizedAffinity>
-7.57424

> <CNNscore>
0.4619868696

> <CNNaffinity>
6.3139209747

> <CNN_VS>
2.9169485569

> <CNNaffinity_variance>
0.0875351503

$$$$
[H]Cl.[H]O[C@]([H])(C(=O)N([H])[C@]([H])(C(=O)OC([H])([H])n1c([H])c(F)c(=O)n([H])c1=O)C([H])([H])C([H])(C([H])([H])[H])C([H])([H])[H])[C@]([H])(N([H])[H])C([H])([H])c1c([H])c([H])c([H])c([H])c1[H]


 37 38  0  0  0  0  0  0  0  0999 V2000
    4.2491    2.3377   18.8528 C   0  0  0  0  0  0  0  0  0  0  0  0
    3.9829    3.7810   18.8094 N   0  0  0  0  0  0  0  0  0  0  0  0
    4.8690    4.6810   18.1568 C   0  0  0  0  0  0  0  0  0  0  0  0
    5.8922    4.2053   17.6153 O   0  0  0  0  0  0  0  0  0  0  0  0
    3.1339    4.1899   19.2571 H   0  0  0  0  0  0  0  0  0  0  0  0
    4.6183    6.1425   18.1010 C   0  0  0  0  0  0  0  0  0  0  0  0
    3.7785    6.4214   17.0315 O   0  0  0  0  0  0  0  0  0  0  0  0
    2.8399    6.3185   17.3146 H   0  0  0  0  0  0  0  0  0  0  0  0
    3.9568    6.6520   19.3738 C   0  0  0  0  0  0  0  0  0  0  0  0
    3.3232    7.9179   19.1811 N   0  0  0  0  0  0  0  0  0  0  0  0
    2.4067    8.0151   19.6572 H   0  0  0  0  0  0  0  0  0  0  0  0
    3.9245    8.7430   19.2470 H   0  0  0  0  0  0  0  0  0  0  0  0
    5.0311    6.7277   20.4242 C   0  0  0  0  0  0  0  0  0  0  0  0
    4.9622    5.6358   21.4169 C   0  0  0  0  0  0  0  0  0  0  0  0
    3.8043    5.3244   22.1101 C   0  0  0  0  0  0  0  0  0  0  0  0
    3.7433    4.3003   23.0393 C   0  0  0  0  0  0  0  0  0  0  0  0
    4.8582    3.5578   23.2953 C   0  0  0  0  0  0  0  0  0  0  0  0
    6.0282    3.8298   22.6328 C   0  0  0  0  0  0  0  0  0  0  0  0
    6.0766    4.8463   21.7149 C   0  0  0  0  0  0  0  0  0  0  0  0
    3.5218    1.6699   17.7455 C   0  0  0  0  0  0  0  0  0  0  0  0
    3.0006    0.5296   18.0093 O   0  0  0  0  0  0  0  0  0  0  0  0
    3.3388    2.1209   16.4847 O   0  0  0  0  0  0  0  0  0  0  0  0
    2.3696    2.9050   15.9087 C   0  0  0  0  0  0  0  0  0  0  0  0
    2.3928    3.0678   14.4912 N   0  0  0  0  0  0  0  0  0  0  0  0
    2.5955    2.1093   13.5756 C   0  0  0  0  0  0  0  0  0  0  0  0
    2.6159    2.3819   12.2019 C   0  0  0  0  0  0  0  0  0  0  0  0
    2.8211    1.4005   11.3008 F   0  0  0  0  0  0  0  0  0  0  0  0
    2.4248    3.6634   11.7626 C   0  0  0  0  0  0  0  0  0  0  0  0
    2.4236    4.0165   10.5626 O   0  0  0  0  0  0  0  0  0  0  0  0
    2.2225    4.6137   12.7080 N   0  0  0  0  0  0  0  0  0  0  0  0
    2.2088    4.3219   14.0062 C   0  0  0  0  0  0  0  0  0  0  0  0
    2.0096    5.2930   14.8146 O   0  0  0  0  0  0  0  0  0  0  0  0
    2.0728    5.6112   12.3927 H   0  0  0  0  0  0  0  0  0  0  0  0
    3.9892    1.7926   20.2108 C   0  0  0  0  0  0  0  0  0  0  0  0
    6.0644    0.7565   21.1501 C   0  0  0  0  0  0  0  0  0  0  0  0
    4.7067    0.5125   20.4824 C   0  0  0  0  0  0  0  0  0  0  0  0
    3.8588   -0.3789   21.4082 C   0  0  0  0  0  0  0  0  0  0  0  0
 35 36  1  0  0  0
 36 37  1  0  0  0
 36 34  1  0  0  0
 34  1  1  0  0  0
  1  2  1  0  0  0
  2  3  1  0  0  0
  3  4  2  0  0  0
  3  6  1  0  0  0
  6  7  1  0  0  0
  6  9  1  0  0  0
  9 10  1  0  0  0
  9 13  1  0  0  0
 13 14  1  0  0  0
 14 15  2  0  0  0
 15 16  1  0  0  0
 16 17  2  0  0  0
 17 18  1  0  0  0
 18 19  2  0  0  0
  1 20  1  0  0  0
 20 21  2  0  0  0
 20 22  1  0  0  0
 22 23  1  0  0  0
 23 24  1  0  0  0
 24 25  1  0  0  0
 25 26  2  0  0  0
 26 27  1  0  0  0
 26 28  1  0  0  0
 28 29  2  0  0  0
 28 30  1  0  0  0
 30 31  1  0  0  0
 31 32  2  0  0  0
 19 14  1  0  0  0
 31 24  1  0  0  0
  2  5  1  0  0  0
  7  8  1  0  0  0
 10 11  1  0  0  0
 10 12  1  0  0  0
 30 33  1  0  0  0
M  END
> <minimizedAffinity>
-7.51300

> <CNNscore>
0.4300565124

> <CNNaffinity>
6.1492056847

> <CNN_VS>
2.6445059776

> <CNNaffinity_variance>
0.0847166181

$$$$
[H]Cl.[H]O[C@]([H])(C(=O)N([H])[C@]([H])(C(=O)OC([H])([H])n1c([H])c(F)c(=O)n([H])c1=O)C([H])([H])C([H])(C([H])([H])[H])C([H])([H])[H])[C@]([H])(N([H])[H])C([H])([H])c1c([H])c([H])c([H])c([H])c1[H]


 37 38  0  0  0  0  0  0  0  0999 V2000
    4.1954    4.3150   16.6957 C   0  0  0  0  0  0  0  0  0  0  0  0
    4.3457    4.8264   15.3276 N   0  0  0  0  0  0  0  0  0  0  0  0
    3.2429    5.3651   14.6101 C   0  0  0  0  0  0  0  0  0  0  0  0
    2.1296    5.3914   15.1814 O   0  0  0  0  0  0  0  0  0  0  0  0
    5.2681    4.8098   14.8403 H   0  0  0  0  0  0  0  0  0  0  0  0
    3.3735    5.8875   13.2273 C   0  0  0  0  0  0  0  0  0  0  0  0
    4.7011    5.8037   12.8308 O   0  0  0  0  0  0  0  0  0  0  0  0
    4.8775    4.9080   12.4590 H   0  0  0  0  0  0  0  0  0  0  0  0
    2.5287    5.0938   12.2405 C   0  0  0  0  0  0  0  0  0  0  0  0
    1.1382    5.4015   12.3535 N   0  0  0  0  0  0  0  0  0  0  0  0
    0.6395    5.4701   11.4464 H   0  0  0  0  0  0  0  0  0  0  0  0
    0.6205    4.9083   13.0854 H   0  0  0  0  0  0  0  0  0  0  0  0
    2.7947    3.6379   12.5101 C   0  0  0  0  0  0  0  0  0  0  0  0
    3.1348    2.8667   11.2968 C   0  0  0  0  0  0  0  0  0  0  0  0
    2.6324    1.6002   11.0478 C   0  0  0  0  0  0  0  0  0  0  0  0
    2.9530    0.8807    9.9096 C   0  0  0  0  0  0  0  0  0  0  0  0
    3.7956    1.4248    8.9856 C   0  0  0  0  0  0  0  0  0  0  0  0
    4.3180    2.6768    9.1896 C   0  0  0  0  0  0  0  0  0  0  0  0
    3.9935    3.3797   10.3203 C   0  0  0  0  0  0  0  0  0  0  0  0
    5.0015    5.1465   17.6230 C   0  0  0  0  0  0  0  0  0  0  0  0
    5.5740    6.1753   17.1178 O   0  0  0  0  0  0  0  0  0  0  0  0
    5.2058    4.9514   18.9447 O   0  0  0  0  0  0  0  0  0  0  0  0
    4.4115    5.1477   20.0477 C   0  0  0  0  0  0  0  0  0  0  0  0
    4.5195    4.2195   21.1261 N   0  0  0  0  0  0  0  0  0  0  0  0
    4.1955    2.9185   21.1021 C   0  0  0  0  0  0  0  0  0  0  0  0
    4.3250    2.0963   22.2286 C   0  0  0  0  0  0  0  0  0  0  0  0
    3.9929    0.7907   22.1788 F   0  0  0  0  0  0  0  0  0  0  0  0
    4.7958    2.6221   23.4006 C   0  0  0  0  0  0  0  0  0  0  0  0
    4.9503    1.9798   24.4627 O   0  0  0  0  0  0  0  0  0  0  0  0
    5.1158    3.9394   23.3988 N   0  0  0  0  0  0  0  0  0  0  0  0
    4.9813    4.6938   22.3109 C   0  0  0  0  0  0  0  0  0  0  0  0
    5.3119    5.9250   22.4171 O   0  0  0  0  0  0  0  0  0  0  0  0
    5.4815    4.3681   24.2928 H   0  0  0  0  0  0  0  0  0  0  0  0
    4.4642    2.8542   16.7467 C   0  0  0  0  0  0  0  0  0  0  0  0
    2.8880    1.4605   15.3919 C   0  0  0  0  0  0  0  0  0  0  0  0
    3.2241    2.0245   16.7767 C   0  0  0  0  0  0  0  0  0  0  0  0
    3.4022    0.8485   17.7545 C   0  0  0  0  0  0  0  0  0  0  0  0
 35 36  1  0  0  0
 36 37  1  0  0  0
 36 34  1  0  0  0
 34  1  1  0  0  0
  1  2  1  0  0  0
  2  3  1  0  0  0
  3  4  2  0  0  0
  3  6  1  0  0  0
  6  7  1  0  0  0
  6  9  1  0  0  0
  9 10  1  0  0  0
  9 13  1  0  0  0
 13 14  1  0  0  0
 14 15  2  0  0  0
 15 16  1  0  0  0
 16 17  2  0  0  0
 17 18  1  0  0  0
 18 19  2  0  0  0
  1 20  1  0  0  0
 20 21  2  0  0  0
 20 22  1  0  0  0
 22 23  1  0  0  0
 23 24  1  0  0  0
 24 25  1  0  0  0
 25 26  2  0  0  0
 26 27  1  0  0  0
 26 28  1  0  0  0
 28 29  2  0  0  0
 28 30  1  0  0  0
 30 31  1  0  0  0
 31 32  2  0  0  0
 19 14  1  0  0  0
 31 24  1  0  0  0
  2  5  1  0  0  0
  7  8  1  0  0  0
 10 11  1  0  0  0
 10 12  1  0  0  0
 30 33  1  0  0  0
M  END
> <minimizedAffinity>
-6.93130

> <CNNscore>
0.4257394373

> <CNNaffinity>
6.0798320770

> <CNN_VS>
2.5884242058

> <CNNaffinity_variance>
0.4187154174

$$$$
