[H]C1=C([H])C([H])(F)C([H])([H])C([H])=C1N([H])C(=O)C1(C(=O)N([H])c2c([H])c([H])c(Oc3c([H])c([H])nc4c([H])c(OC([H])([H])C([H])([H])C([H])([H])N5C([H])([H])C([H])([H])OC([H])([H])C5([H])[H])c(OC([H])([H])[H])c([H])c34)c(F)c2[H])C([H])([H])C1([H])[H]


 48 53  0  0  0  0  0  0  0  0999 V2000
    2.6668    2.7807   14.4808 C   0  0  0  0  0  0  0  0  0  0  0  0
    1.7888    2.0073   13.7342 C   0  0  0  0  0  0  0  0  0  0  0  0
    0.7478    2.5029   13.0069 C   0  0  0  0  0  0  0  0  0  0  0  0
    0.5258    3.8847   12.9950 C   0  0  0  0  0  0  0  0  0  0  0  0
    1.3694    4.6842   13.7173 C   0  0  0  0  0  0  0  0  0  0  0  0
    2.4343    4.1449   14.4573 C   0  0  0  0  0  0  0  0  0  0  0  0
    3.2405    5.0033   15.1242 F   0  0  0  0  0  0  0  0  0  0  0  0
   -0.5506    4.3988   12.1883 N   0  0  0  0  0  0  0  0  0  0  0  0
   -0.4861    4.4791   10.8160 C   0  0  0  0  0  0  0  0  0  0  0  0
    0.6294    4.0939   10.2763 O   0  0  0  0  0  0  0  0  0  0  0  0
   -1.3615    4.7239   12.7365 H   0  0  0  0  0  0  0  0  0  0  0  0
   -1.4799    4.9398    9.8165 C   0  0  0  0  0  0  0  0  0  0  0  0
   -0.9347    5.0821    8.4055 C   0  0  0  0  0  0  0  0  0  0  0  0
   -1.0811    6.3217    9.1628 C   0  0  0  0  0  0  0  0  0  0  0  0
   -2.9273    4.7747    9.9537 C   0  0  0  0  0  0  0  0  0  0  0  0
   -3.2815    4.2145   11.0891 O   0  0  0  0  0  0  0  0  0  0  0  0
   -4.0073    5.0907    9.1384 N   0  0  0  0  0  0  0  0  0  0  0  0
   -3.9281    5.5592    8.2210 H   0  0  0  0  0  0  0  0  0  0  0  0
   -5.3763    4.7958    9.5624 C   0  0  0  0  0  0  0  0  0  0  0  0
   -5.8440    3.5976    9.2953 C   0  0  0  0  0  0  0  0  0  0  0  0
   -7.1754    3.1022    9.6315 C   0  0  0  0  0  0  0  0  0  0  0  0
   -8.0677    4.0788   10.2928 C   0  0  0  0  0  0  0  0  0  0  0  0
   -8.4880    3.5689   11.5479 F   0  0  0  0  0  0  0  0  0  0  0  0
   -7.4506    5.3823   10.5455 C   0  0  0  0  0  0  0  0  0  0  0  0
   -6.2234    5.7362   10.2221 C   0  0  0  0  0  0  0  0  0  0  0  0
    3.7031    2.2178   15.1927 O   0  0  0  0  0  0  0  0  0  0  0  0
    5.1845    3.9155   18.6121 C   0  0  0  0  0  0  0  0  0  0  0  0
    4.6971    3.3617   17.4603 C   0  0  0  0  0  0  0  0  0  0  0  0
    4.0134    2.1673   17.5336 C   0  0  0  0  0  0  0  0  0  0  0  0
    3.4947    1.5563   16.3715 C   0  0  0  0  0  0  0  0  0  0  0  0
    2.8199    0.3620   16.4659 C   0  0  0  0  0  0  0  0  0  0  0  0
    2.6364   -0.2552   17.6837 C   0  0  0  0  0  0  0  0  0  0  0  0
    3.1298    0.3286   18.7871 N   0  0  0  0  0  0  0  0  0  0  0  0
    3.8025    1.5109   18.7185 C   0  0  0  0  0  0  0  0  0  0  0  0
    4.2989    2.0767   19.8830 C   0  0  0  0  0  0  0  0  0  0  0  0
    4.9837    3.2674   19.8421 C   0  0  0  0  0  0  0  0  0  0  0  0
    6.2283    5.7574   17.4536 C   0  0  0  0  0  0  0  0  0  0  0  0
    5.8838    5.1063   18.6550 O   0  0  0  0  0  0  0  0  0  0  0  0
    5.4664    3.8335   20.9765 O   0  0  0  0  0  0  0  0  0  0  0  0
    4.7017    4.3875   21.9846 C   0  0  0  0  0  0  0  0  0  0  0  0
    5.4683    5.4254   22.7924 C   0  0  0  0  0  0  0  0  0  0  0  0
    6.5581    6.0242   21.8931 C   0  0  0  0  0  0  0  0  0  0  0  0
    6.3395    7.4470   21.8162 N   0  0  0  0  0  0  0  0  0  0  0  0
    7.6176    8.1354   21.5207 C   0  0  0  0  0  0  0  0  0  0  0  0
    7.2211    9.6033   21.3377 C   0  0  0  0  0  0  0  0  0  0  0  0
    5.9596    9.8782   21.8657 O   0  0  0  0  0  0  0  0  0  0  0  0
    4.9366    9.2297   21.1459 C   0  0  0  0  0  0  0  0  0  0  0  0
    5.4279    7.8337   20.7408 C   0  0  0  0  0  0  0  0  0  0  0  0
 37 38  1  0  0  0
 38 27  1  0  0  0
 27 28  2  0  0  0
 28 29  1  0  0  0
 29 30  2  0  0  0
 30 26  1  0  0  0
 26  1  1  0  0  0
  1  2  2  0  0  0
  2  3  1  0  0  0
  3  4  2  0  0  0
  4  8  1  0  0  0
  8  9  1  0  0  0
  9 10  2  0  0  0
  9 12  1  0  0  0
 12 13  1  0  0  0
 13 14  1  0  0  0
 12 15  1  0  0  0
 15 16  2  0  0  0
 15 17  1  0  0  0
 17 19  1  0  0  0
 19 20  2  0  0  0
 20 21  1  0  0  0
 21 22  1  0  0  0
 22 23  1  0  0  0
 22 24  1  0  0  0
 24 25  2  0  0  0
  4  5  1  0  0  0
  5  6  2  0  0  0
  6  7  1  0  0  0
 30 31  1  0  0  0
 31 32  2  0  0  0
 32 33  1  0  0  0
 33 34  2  0  0  0
 34 35  1  0  0  0
 35 36  2  0  0  0
 36 39  1  0  0  0
 39 40  1  0  0  0
 40 41  1  0  0  0
 41 42  1  0  0  0
 42 43  1  0  0  0
 43 44  1  0  0  0
 44 45  1  0  0  0
 45 46  1  0  0  0
 46 47  1  0  0  0
 47 48  1  0  0  0
 36 27  1  0  0  0
 48 43  1  0  0  0
 34 29  1  0  0  0
  6  1  1  0  0  0
 14 12  1  0  0  0
 25 19  1  0  0  0
  8 11  1  0  0  0
 17 18  1  0  0  0
M  END
> <minimizedAffinity>
-8.71259

> <CNNscore>
0.2296081334

> <CNNaffinity>
6.6891264915

> <CNN_VS>
1.5358778238

> <CNNaffinity_variance>
0.1948491633

$$$$
[H]C1=C([H])C([H])(F)C([H])([H])C([H])=C1N([H])C(=O)C1(C(=O)N([H])c2c([H])c([H])c(Oc3c([H])c([H])nc4c([H])c(OC([H])([H])C([H])([H])C([H])([H])N5C([H])([H])C([H])([H])OC([H])([H])C5([H])[H])c(OC([H])([H])[H])c([H])c34)c(F)c2[H])C([H])([H])C1([H])[H]


 48 53  0  0  0  0  0  0  0  0999 V2000
    3.7655    2.4103   15.9639 C   0  0  0  0  0  0  0  0  0  0  0  0
    3.8389    3.6886   15.4283 C   0  0  0  0  0  0  0  0  0  0  0  0
    2.9837    4.1844   14.4897 C   0  0  0  0  0  0  0  0  0  0  0  0
    1.9503    3.3685   14.0153 C   0  0  0  0  0  0  0  0  0  0  0  0
    1.8411    2.1005   14.5181 C   0  0  0  0  0  0  0  0  0  0  0  0
    2.7374    1.6168   15.4853 C   0  0  0  0  0  0  0  0  0  0  0  0
    2.5474    0.3611   15.9527 F   0  0  0  0  0  0  0  0  0  0  0  0
    1.0281    3.9190   13.0561 N   0  0  0  0  0  0  0  0  0  0  0  0
    1.0146    3.5476   11.7311 C   0  0  0  0  0  0  0  0  0  0  0  0
    1.9159    2.6851   11.3738 O   0  0  0  0  0  0  0  0  0  0  0  0
    0.3980    4.6346   13.4495 H   0  0  0  0  0  0  0  0  0  0  0  0
    0.1403    3.9648   10.6084 C   0  0  0  0  0  0  0  0  0  0  0  0
    0.5851    3.4649    9.2443 C   0  0  0  0  0  0  0  0  0  0  0  0
    0.9025    4.8566    9.5503 C   0  0  0  0  0  0  0  0  0  0  0  0
   -1.2682    4.3345   10.7512 C   0  0  0  0  0  0  0  0  0  0  0  0
   -1.4818    5.2092   11.7092 O   0  0  0  0  0  0  0  0  0  0  0  0
   -2.4277    3.9596   10.0835 N   0  0  0  0  0  0  0  0  0  0  0  0
   -2.4552    3.3034    9.2859 H   0  0  0  0  0  0  0  0  0  0  0  0
   -3.7249    4.5187   10.4650 C   0  0  0  0  0  0  0  0  0  0  0  0
   -4.0964    5.6329    9.8767 C   0  0  0  0  0  0  0  0  0  0  0  0
   -5.3459    6.3508   10.1104 C   0  0  0  0  0  0  0  0  0  0  0  0
   -6.2302    5.7664   11.1417 C   0  0  0  0  0  0  0  0  0  0  0  0
   -7.4954    5.4686   10.5737 F   0  0  0  0  0  0  0  0  0  0  0  0
   -5.7251    4.5268   11.7349 C   0  0  0  0  0  0  0  0  0  0  0  0
   -4.5842    3.9355   11.4441 C   0  0  0  0  0  0  0  0  0  0  0  0
    4.6604    1.9700   16.9141 O   0  0  0  0  0  0  0  0  0  0  0  0
    5.3684    5.1903   19.3425 C   0  0  0  0  0  0  0  0  0  0  0  0
    5.1396    4.1235   18.5177 C   0  0  0  0  0  0  0  0  0  0  0  0
    4.5695    2.9848   19.0449 C   0  0  0  0  0  0  0  0  0  0  0  0
    4.3173    1.8577   18.2332 C   0  0  0  0  0  0  0  0  0  0  0  0
    3.7523    0.7297   18.7801 C   0  0  0  0  0  0  0  0  0  0  0  0
    3.4226    0.6776   20.1166 C   0  0  0  0  0  0  0  0  0  0  0  0
    3.6628    1.7512   20.8857 N   0  0  0  0  0  0  0  0  0  0  0  0
    4.2224    2.8793   20.3669 C   0  0  0  0  0  0  0  0  0  0  0  0
    4.4567    3.9638   21.1986 C   0  0  0  0  0  0  0  0  0  0  0  0
    5.0226    5.1132   20.7019 C   0  0  0  0  0  0  0  0  0  0  0  0
    6.5921    6.4360   17.6766 C   0  0  0  0  0  0  0  0  0  0  0  0
    5.9343    6.3784   18.9216 O   0  0  0  0  0  0  0  0  0  0  0  0
    5.2486    6.1827   21.5053 O   0  0  0  0  0  0  0  0  0  0  0  0
    6.1420    6.2205   22.5580 C   0  0  0  0  0  0  0  0  0  0  0  0
    7.5202    5.7034   22.1700 C   0  0  0  0  0  0  0  0  0  0  0  0
    8.5247    6.8534   22.3226 C   0  0  0  0  0  0  0  0  0  0  0  0
    7.8700    7.9253   23.0300 N   0  0  0  0  0  0  0  0  0  0  0  0
    8.3895    8.0028   24.4153 C   0  0  0  0  0  0  0  0  0  0  0  0
    7.7158    9.2472   25.0009 C   0  0  0  0  0  0  0  0  0  0  0  0
    6.6078    9.6473   24.2542 O   0  0  0  0  0  0  0  0  0  0  0  0
    6.9764   10.1148   22.9772 C   0  0  0  0  0  0  0  0  0  0  0  0
    8.1191    9.2409   22.4434 C   0  0  0  0  0  0  0  0  0  0  0  0
 37 38  1  0  0  0
 38 27  1  0  0  0
 27 28  2  0  0  0
 28 29  1  0  0  0
 29 30  2  0  0  0
 30 26  1  0  0  0
 26  1  1  0  0  0
  1  2  2  0  0  0
  2  3  1  0  0  0
  3  4  2  0  0  0
  4  8  1  0  0  0
  8  9  1  0  0  0
  9 10  2  0  0  0
  9 12  1  0  0  0
 12 13  1  0  0  0
 13 14  1  0  0  0
 12 15  1  0  0  0
 15 16  2  0  0  0
 15 17  1  0  0  0
 17 19  1  0  0  0
 19 20  2  0  0  0
 20 21  1  0  0  0
 21 22  1  0  0  0
 22 23  1  0  0  0
 22 24  1  0  0  0
 24 25  2  0  0  0
  4  5  1  0  0  0
  5  6  2  0  0  0
  6  7  1  0  0  0
 30 31  1  0  0  0
 31 32  2  0  0  0
 32 33  1  0  0  0
 33 34  2  0  0  0
 34 35  1  0  0  0
 35 36  2  0  0  0
 36 39  1  0  0  0
 39 40  1  0  0  0
 40 41  1  0  0  0
 41 42  1  0  0  0
 42 43  1  0  0  0
 43 44  1  0  0  0
 44 45  1  0  0  0
 45 46  1  0  0  0
 46 47  1  0  0  0
 47 48  1  0  0  0
 36 27  1  0  0  0
 48 43  1  0  0  0
 34 29  1  0  0  0
  6  1  1  0  0  0
 14 12  1  0  0  0
 25 19  1  0  0  0
  8 11  1  0  0  0
 17 18  1  0  0  0
M  END
> <minimizedAffinity>
-9.08721

> <CNNscore>
0.1672569513

> <CNNaffinity>
6.5816869736

> <CNN_VS>
1.1008329391

> <CNNaffinity_variance>
0.3323383331

$$$$
[H]C1=C([H])C([H])(F)C([H])([H])C([H])=C1N([H])C(=O)C1(C(=O)N([H])c2c([H])c([H])c(Oc3c([H])c([H])nc4c([H])c(OC([H])([H])C([H])([H])C([H])([H])N5C([H])([H])C([H])([H])OC([H])([H])C5([H])[H])c(OC([H])([H])[H])c([H])c34)c(F)c2[H])C([H])([H])C1([H])[H]


 48 53  0  0  0  0  0  0  0  0999 V2000
    3.2241    2.4124   15.0339 C   0  0  0  0  0  0  0  0  0  0  0  0
    2.9436    1.7931   16.2439 C   0  0  0  0  0  0  0  0  0  0  0  0
    3.4378    2.1922   17.4500 C   0  0  0  0  0  0  0  0  0  0  0  0
    4.2903    3.3009   17.5004 C   0  0  0  0  0  0  0  0  0  0  0  0
    4.5920    3.9419   16.3297 C   0  0  0  0  0  0  0  0  0  0  0  0
    4.0675    3.5079   15.1012 C   0  0  0  0  0  0  0  0  0  0  0  0
    4.3915    4.2103   13.9908 F   0  0  0  0  0  0  0  0  0  0  0  0
    4.7705    3.7381   18.7857 N   0  0  0  0  0  0  0  0  0  0  0  0
    4.2352    4.8116   19.4600 C   0  0  0  0  0  0  0  0  0  0  0  0
    3.2801    5.4454   18.8518 O   0  0  0  0  0  0  0  0  0  0  0  0
    5.5680    3.1881   19.1398 H   0  0  0  0  0  0  0  0  0  0  0  0
    4.5597    5.3937   20.7847 C   0  0  0  0  0  0  0  0  0  0  0  0
    4.8449    4.3694   21.8700 C   0  0  0  0  0  0  0  0  0  0  0  0
    3.5180    4.9777   21.8973 C   0  0  0  0  0  0  0  0  0  0  0  0
    5.0971    6.7397   20.9866 C   0  0  0  0  0  0  0  0  0  0  0  0
    6.3508    6.8610   20.6100 O   0  0  0  0  0  0  0  0  0  0  0  0
    4.5591    7.9188   21.4877 N   0  0  0  0  0  0  0  0  0  0  0  0
    3.5825    8.0246   21.8076 H   0  0  0  0  0  0  0  0  0  0  0  0
    5.3670    9.1363   21.5649 C   0  0  0  0  0  0  0  0  0  0  0  0
    5.2553    9.9962   20.5780 C   0  0  0  0  0  0  0  0  0  0  0  0
    5.9666   11.2658   20.4622 C   0  0  0  0  0  0  0  0  0  0  0  0
    6.9248   11.5579   21.5501 C   0  0  0  0  0  0  0  0  0  0  0  0
    6.5774   12.7819   22.1772 F   0  0  0  0  0  0  0  0  0  0  0  0
    6.9727   10.5380   22.5994 C   0  0  0  0  0  0  0  0  0  0  0  0
    6.2720    9.4227   22.6307 C   0  0  0  0  0  0  0  0  0  0  0  0
    2.6891    1.9612   13.8474 O   0  0  0  0  0  0  0  0  0  0  0  0
    2.2769    1.0133    9.8850 C   0  0  0  0  0  0  0  0  0  0  0  0
    2.4269    1.3168   11.2102 C   0  0  0  0  0  0  0  0  0  0  0  0
    1.7223    2.3795   11.7335 C   0  0  0  0  0  0  0  0  0  0  0  0
    1.8470    2.7323   13.0946 C   0  0  0  0  0  0  0  0  0  0  0  0
    1.1389    3.7992   13.5956 C   0  0  0  0  0  0  0  0  0  0  0  0
    0.3007    4.5365   12.7886 C   0  0  0  0  0  0  0  0  0  0  0  0
    0.1833    4.1981   11.4949 N   0  0  0  0  0  0  0  0  0  0  0  0
    0.8752    3.1461   10.9757 C   0  0  0  0  0  0  0  0  0  0  0  0
    0.7270    2.8340    9.6328 C   0  0  0  0  0  0  0  0  0  0  0  0
    1.4153    1.7796    9.0826 C   0  0  0  0  0  0  0  0  0  0  0  0
    4.3258    0.0481    9.0514 C   0  0  0  0  0  0  0  0  0  0  0  0
    2.9336   -0.0275    9.2569 O   0  0  0  0  0  0  0  0  0  0  0  0
    1.2714    1.4609    7.7719 O   0  0  0  0  0  0  0  0  0  0  0  0
    0.1799    1.7740    6.9855 C   0  0  0  0  0  0  0  0  0  0  0  0
   -0.3053    0.5872    6.1648 C   0  0  0  0  0  0  0  0  0  0  0  0
   -0.9668   -0.4171    7.1181 C   0  0  0  0  0  0  0  0  0  0  0  0
   -2.2063    0.1568    7.5789 N   0  0  0  0  0  0  0  0  0  0  0  0
   -3.2226    0.0850    6.5033 C   0  0  0  0  0  0  0  0  0  0  0  0
   -4.5057    0.5990    7.1628 C   0  0  0  0  0  0  0  0  0  0  0  0
   -4.2484    1.2998    8.3410 O   0  0  0  0  0  0  0  0  0  0  0  0
   -3.7425    0.4590    9.3521 C   0  0  0  0  0  0  0  0  0  0  0  0
   -2.7862   -0.5576    8.7148 C   0  0  0  0  0  0  0  0  0  0  0  0
 37 38  1  0  0  0
 38 27  1  0  0  0
 27 28  2  0  0  0
 28 29  1  0  0  0
 29 30  2  0  0  0
 30 26  1  0  0  0
 26  1  1  0  0  0
  1  2  2  0  0  0
  2  3  1  0  0  0
  3  4  2  0  0  0
  4  8  1  0  0  0
  8  9  1  0  0  0
  9 10  2  0  0  0
  9 12  1  0  0  0
 12 13  1  0  0  0
 13 14  1  0  0  0
 12 15  1  0  0  0
 15 16  2  0  0  0
 15 17  1  0  0  0
 17 19  1  0  0  0
 19 20  2  0  0  0
 20 21  1  0  0  0
 21 22  1  0  0  0
 22 23  1  0  0  0
 22 24  1  0  0  0
 24 25  2  0  0  0
  4  5  1  0  0  0
  5  6  2  0  0  0
  6  7  1  0  0  0
 30 31  1  0  0  0
 31 32  2  0  0  0
 32 33  1  0  0  0
 33 34  2  0  0  0
 34 35  1  0  0  0
 35 36  2  0  0  0
 36 39  1  0  0  0
 39 40  1  0  0  0
 40 41  1  0  0  0
 41 42  1  0  0  0
 42 43  1  0  0  0
 43 44  1  0  0  0
 44 45  1  0  0  0
 45 46  1  0  0  0
 46 47  1  0  0  0
 47 48  1  0  0  0
 36 27  1  0  0  0
 48 43  1  0  0  0
 34 29  1  0  0  0
  6  1  1  0  0  0
 14 12  1  0  0  0
 25 19  1  0  0  0
  8 11  1  0  0  0
 17 18  1  0  0  0
M  END
> <minimizedAffinity>
-7.47899

> <CNNscore>
0.1565794200

> <CNNaffinity>
6.4127225876

> <CNN_VS>
1.0041004419

> <CNNaffinity_variance>
0.3706519306

$$$$
[H]C1=C([H])C([H])(F)C([H])([H])C([H])=C1N([H])C(=O)C1(C(=O)N([H])c2c([H])c([H])c(Oc3c([H])c([H])nc4c([H])c(OC([H])([H])C([H])([H])C([H])([H])N5C([H])([H])C([H])([H])OC([H])([H])C5([H])[H])c(OC([H])([H])[H])c([H])c34)c(F)c2[H])C([H])([H])C1([H])[H]


 48 53  0  0  0  0  0  0  0  0999 V2000
    3.2929    3.0559   14.3363 C   0  0  0  0  0  0  0  0  0  0  0  0
    2.0791    2.3947   14.4620 C   0  0  0  0  0  0  0  0  0  0  0  0
    1.1916    2.2067   13.4446 C   0  0  0  0  0  0  0  0  0  0  0  0
    1.5007    2.7055   12.1741 C   0  0  0  0  0  0  0  0  0  0  0  0
    2.6888    3.3634   12.0061 C   0  0  0  0  0  0  0  0  0  0  0  0
    3.5841    3.5418   13.0735 C   0  0  0  0  0  0  0  0  0  0  0  0
    4.7506    4.1798   12.8214 F   0  0  0  0  0  0  0  0  0  0  0  0
    0.5746    2.4624   11.0985 N   0  0  0  0  0  0  0  0  0  0  0  0
   -0.3459    3.3945   10.6773 C   0  0  0  0  0  0  0  0  0  0  0  0
   -0.3623    4.5136   11.3341 O   0  0  0  0  0  0  0  0  0  0  0  0
    0.6490    1.5172   10.6925 H   0  0  0  0  0  0  0  0  0  0  0  0
   -1.3495    3.3529    9.5865 C   0  0  0  0  0  0  0  0  0  0  0  0
   -1.0133    2.3932    8.4575 C   0  0  0  0  0  0  0  0  0  0  0  0
   -0.7487    3.8052    8.1971 C   0  0  0  0  0  0  0  0  0  0  0  0
   -2.7562    3.7241    9.7433 C   0  0  0  0  0  0  0  0  0  0  0  0
   -3.5881    2.8175    9.2803 O   0  0  0  0  0  0  0  0  0  0  0  0
   -3.3983    4.8315   10.2838 N   0  0  0  0  0  0  0  0  0  0  0  0
   -2.9124    5.6329   10.7187 H   0  0  0  0  0  0  0  0  0  0  0  0
   -4.8590    4.9163   10.2983 C   0  0  0  0  0  0  0  0  0  0  0  0
   -5.4311    5.6076    9.3388 C   0  0  0  0  0  0  0  0  0  0  0  0
   -6.8663    5.8140    9.1692 C   0  0  0  0  0  0  0  0  0  0  0  0
   -7.7219    5.2134   10.2153 C   0  0  0  0  0  0  0  0  0  0  0  0
   -8.6413    4.3113    9.6213 F   0  0  0  0  0  0  0  0  0  0  0  0
   -6.9871    4.4647   11.2367 C   0  0  0  0  0  0  0  0  0  0  0  0
   -5.6797    4.3134   11.2982 C   0  0  0  0  0  0  0  0  0  0  0  0
    4.1485    3.2099   15.4049 O   0  0  0  0  0  0  0  0  0  0  0  0
    4.3615    2.5145   19.4348 C   0  0  0  0  0  0  0  0  0  0  0  0
    4.2909    2.7290   18.0858 C   0  0  0  0  0  0  0  0  0  0  0  0
    4.1545    4.0202   17.6234 C   0  0  0  0  0  0  0  0  0  0  0  0
    4.0746    4.2903   16.2402 C   0  0  0  0  0  0  0  0  0  0  0  0
    3.9337    5.5854   15.8000 C   0  0  0  0  0  0  0  0  0  0  0  0
    3.8703    6.6347   16.6902 C   0  0  0  0  0  0  0  0  0  0  0  0
    3.9476    6.3748   18.0049 N   0  0  0  0  0  0  0  0  0  0  0  0
    4.0864    5.1004   18.4648 C   0  0  0  0  0  0  0  0  0  0  0  0
    4.1582    4.8772   19.8314 C   0  0  0  0  0  0  0  0  0  0  0  0
    4.2955    3.6011   20.3226 C   0  0  0  0  0  0  0  0  0  0  0  0
    3.3845    0.4022   20.0736 C   0  0  0  0  0  0  0  0  0  0  0  0
    4.4973    1.2643   20.0070 O   0  0  0  0  0  0  0  0  0  0  0  0
    4.3748    3.3726   21.6574 O   0  0  0  0  0  0  0  0  0  0  0  0
    5.1052    4.1235   22.5577 C   0  0  0  0  0  0  0  0  0  0  0  0
    6.5079    4.4333   22.0536 C   0  0  0  0  0  0  0  0  0  0  0  0
    6.7547    5.9391   22.2165 C   0  0  0  0  0  0  0  0  0  0  0  0
    7.6835    6.3510   21.1940 N   0  0  0  0  0  0  0  0  0  0  0  0
    7.0763    7.4188   20.3656 C   0  0  0  0  0  0  0  0  0  0  0  0
    8.2020    7.8477   19.4200 C   0  0  0  0  0  0  0  0  0  0  0  0
    9.2266    6.9033   19.3579 O   0  0  0  0  0  0  0  0  0  0  0  0
    9.9225    6.8028   20.5790 C   0  0  0  0  0  0  0  0  0  0  0  0
    8.9163    6.9244   21.7310 C   0  0  0  0  0  0  0  0  0  0  0  0
 37 38  1  0  0  0
 38 27  1  0  0  0
 27 28  2  0  0  0
 28 29  1  0  0  0
 29 30  2  0  0  0
 30 26  1  0  0  0
 26  1  1  0  0  0
  1  2  2  0  0  0
  2  3  1  0  0  0
  3  4  2  0  0  0
  4  8  1  0  0  0
  8  9  1  0  0  0
  9 10  2  0  0  0
  9 12  1  0  0  0
 12 13  1  0  0  0
 13 14  1  0  0  0
 12 15  1  0  0  0
 15 16  2  0  0  0
 15 17  1  0  0  0
 17 19  1  0  0  0
 19 20  2  0  0  0
 20 21  1  0  0  0
 21 22  1  0  0  0
 22 23  1  0  0  0
 22 24  1  0  0  0
 24 25  2  0  0  0
  4  5  1  0  0  0
  5  6  2  0  0  0
  6  7  1  0  0  0
 30 31  1  0  0  0
 31 32  2  0  0  0
 32 33  1  0  0  0
 33 34  2  0  0  0
 34 35  1  0  0  0
 35 36  2  0  0  0
 36 39  1  0  0  0
 39 40  1  0  0  0
 40 41  1  0  0  0
 41 42  1  0  0  0
 42 43  1  0  0  0
 43 44  1  0  0  0
 44 45  1  0  0  0
 45 46  1  0  0  0
 46 47  1  0  0  0
 47 48  1  0  0  0
 36 27  1  0  0  0
 48 43  1  0  0  0
 34 29  1  0  0  0
  6  1  1  0  0  0
 14 12  1  0  0  0
 25 19  1  0  0  0
  8 11  1  0  0  0
 17 18  1  0  0  0
M  END
> <minimizedAffinity>
-8.17640

> <CNNscore>
0.1456361264

> <CNNaffinity>
6.4738869667

> <CNN_VS>
0.9428318143

> <CNNaffinity_variance>
0.1585608274

$$$$
[H]C1=C([H])C([H])(F)C([H])([H])C([H])=C1N([H])C(=O)C1(C(=O)N([H])c2c([H])c([H])c(Oc3c([H])c([H])nc4c([H])c(OC([H])([H])C([H])([H])C([H])([H])N5C([H])([H])C([H])([H])OC([H])([H])C5([H])[H])c(OC([H])([H])[H])c([H])c34)c(F)c2[H])C([H])([H])C1([H])[H]


 48 53  0  0  0  0  0  0  0  0999 V2000
    3.9555    2.8386   15.9496 C   0  0  0  0  0  0  0  0  0  0  0  0
    3.7795    4.0920   15.3801 C   0  0  0  0  0  0  0  0  0  0  0  0
    2.8326    4.3915   14.4464 C   0  0  0  0  0  0  0  0  0  0  0  0
    1.9641    3.3831   14.0135 C   0  0  0  0  0  0  0  0  0  0  0  0
    2.1025    2.1321   14.5506 C   0  0  0  0  0  0  0  0  0  0  0  0
    3.0878    1.8530   15.5118 C   0  0  0  0  0  0  0  0  0  0  0  0
    3.1441    0.5979   16.0148 F   0  0  0  0  0  0  0  0  0  0  0  0
    0.9408    3.7232   13.0592 N   0  0  0  0  0  0  0  0  0  0  0  0
    1.0972    3.5576   11.7020 C   0  0  0  0  0  0  0  0  0  0  0  0
    2.2493    3.1037   11.3142 O   0  0  0  0  0  0  0  0  0  0  0  0
    0.0924    4.1254   13.4860 H   0  0  0  0  0  0  0  0  0  0  0  0
    0.1696    3.8122   10.5734 C   0  0  0  0  0  0  0  0  0  0  0  0
    0.5457    3.1117    9.2787 C   0  0  0  0  0  0  0  0  0  0  0  0
    0.8808    4.5304    9.3592 C   0  0  0  0  0  0  0  0  0  0  0  0
   -1.2294    4.2122   10.7278 C   0  0  0  0  0  0  0  0  0  0  0  0
   -1.4474    4.9375   11.8024 O   0  0  0  0  0  0  0  0  0  0  0  0
   -2.3758    3.9913    9.9742 N   0  0  0  0  0  0  0  0  0  0  0  0
   -2.3968    3.4670    9.0843 H   0  0  0  0  0  0  0  0  0  0  0  0
   -3.6658    4.5372   10.3971 C   0  0  0  0  0  0  0  0  0  0  0  0
   -4.0137    5.7062    9.9089 C   0  0  0  0  0  0  0  0  0  0  0  0
   -5.2522    6.4225   10.1990 C   0  0  0  0  0  0  0  0  0  0  0  0
   -6.1538    5.7641   11.1688 C   0  0  0  0  0  0  0  0  0  0  0  0
   -7.4199    5.5411   10.5693 F   0  0  0  0  0  0  0  0  0  0  0  0
   -5.6746    4.4676   11.6514 C   0  0  0  0  0  0  0  0  0  0  0  0
   -4.5421    3.8843   11.3151 C   0  0  0  0  0  0  0  0  0  0  0  0
    4.9311    2.6013   16.8927 O   0  0  0  0  0  0  0  0  0  0  0  0
    5.9086    6.0929   18.7960 C   0  0  0  0  0  0  0  0  0  0  0  0
    5.5891    4.9332   18.1450 C   0  0  0  0  0  0  0  0  0  0  0  0
    5.0200    3.9026   18.8617 C   0  0  0  0  0  0  0  0  0  0  0  0
    4.6760    2.6861   18.2336 C   0  0  0  0  0  0  0  0  0  0  0  0
    4.1137    1.6686   18.9680 C   0  0  0  0  0  0  0  0  0  0  0  0
    3.8753    1.8147   20.3168 C   0  0  0  0  0  0  0  0  0  0  0  0
    4.2025    2.9730   20.9111 N   0  0  0  0  0  0  0  0  0  0  0  0
    4.7614    3.9947   20.2048 C   0  0  0  0  0  0  0  0  0  0  0  0
    5.0874    5.1725   20.8598 C   0  0  0  0  0  0  0  0  0  0  0  0
    5.6548    6.2181   20.1719 C   0  0  0  0  0  0  0  0  0  0  0  0
    6.0009    7.6124   16.9234 C   0  0  0  0  0  0  0  0  0  0  0  0
    6.4824    7.1870   18.1777 O   0  0  0  0  0  0  0  0  0  0  0  0
    5.9701    7.3776   20.8016 O   0  0  0  0  0  0  0  0  0  0  0  0
    5.0637    8.2720   21.3366 C   0  0  0  0  0  0  0  0  0  0  0  0
    5.0007    9.5753   20.5525 C   0  0  0  0  0  0  0  0  0  0  0  0
    3.9236    9.4317   19.4688 C   0  0  0  0  0  0  0  0  0  0  0  0
    3.8851   10.6594   18.7142 N   0  0  0  0  0  0  0  0  0  0  0  0
    2.4814   11.0044   18.3893 C   0  0  0  0  0  0  0  0  0  0  0  0
    2.5774   12.3755   17.7139 C   0  0  0  0  0  0  0  0  0  0  0  0
    3.8726   12.6604   17.2814 O   0  0  0  0  0  0  0  0  0  0  0  0
    4.7617   12.8279   18.3615 C   0  0  0  0  0  0  0  0  0  0  0  0
    4.4104   11.8070   19.4518 C   0  0  0  0  0  0  0  0  0  0  0  0
 37 38  1  0  0  0
 38 27  1  0  0  0
 27 28  2  0  0  0
 28 29  1  0  0  0
 29 30  2  0  0  0
 30 26  1  0  0  0
 26  1  1  0  0  0
  1  2  2  0  0  0
  2  3  1  0  0  0
  3  4  2  0  0  0
  4  8  1  0  0  0
  8  9  1  0  0  0
  9 10  2  0  0  0
  9 12  1  0  0  0
 12 13  1  0  0  0
 13 14  1  0  0  0
 12 15  1  0  0  0
 15 16  2  0  0  0
 15 17  1  0  0  0
 17 19  1  0  0  0
 19 20  2  0  0  0
 20 21  1  0  0  0
 21 22  1  0  0  0
 22 23  1  0  0  0
 22 24  1  0  0  0
 24 25  2  0  0  0
  4  5  1  0  0  0
  5  6  2  0  0  0
  6  7  1  0  0  0
 30 31  1  0  0  0
 31 32  2  0  0  0
 32 33  1  0  0  0
 33 34  2  0  0  0
 34 35  1  0  0  0
 35 36  2  0  0  0
 36 39  1  0  0  0
 39 40  1  0  0  0
 40 41  1  0  0  0
 41 42  1  0  0  0
 42 43  1  0  0  0
 43 44  1  0  0  0
 44 45  1  0  0  0
 45 46  1  0  0  0
 46 47  1  0  0  0
 47 48  1  0  0  0
 36 27  1  0  0  0
 48 43  1  0  0  0
 34 29  1  0  0  0
  6  1  1  0  0  0
 14 12  1  0  0  0
 25 19  1  0  0  0
  8 11  1  0  0  0
 17 18  1  0  0  0
M  END
> <minimizedAffinity>
-9.19172

> <CNNscore>
0.1393375993

> <CNNaffinity>
6.4969038963

> <CNN_VS>
0.9052630067

> <CNNaffinity_variance>
0.3726086020

$$$$
[H]C1=C([H])C([H])(F)C([H])([H])C([H])=C1N([H])C(=O)C1(C(=O)N([H])c2c([H])c([H])c(Oc3c([H])c([H])nc4c([H])c(OC([H])([H])C([H])([H])C([H])([H])N5C([H])([H])C([H])([H])OC([H])([H])C5([H])[H])c(OC([H])([H])[H])c([H])c34)c(F)c2[H])C([H])([H])C1([H])[H]


 48 53  0  0  0  0  0  0  0  0999 V2000
    3.0486    2.4969   14.8551 C   0  0  0  0  0  0  0  0  0  0  0  0
    2.7155    1.8863   16.0562 C   0  0  0  0  0  0  0  0  0  0  0  0
    3.2295    2.2346   17.2697 C   0  0  0  0  0  0  0  0  0  0  0  0
    4.1605    3.2772   17.3380 C   0  0  0  0  0  0  0  0  0  0  0  0
    4.5161    3.9074   16.1766 C   0  0  0  0  0  0  0  0  0  0  0  0
    3.9694    3.5268   14.9402 C   0  0  0  0  0  0  0  0  0  0  0  0
    4.3514    4.2160   13.8399 F   0  0  0  0  0  0  0  0  0  0  0  0
    4.6628    3.6636   18.6311 N   0  0  0  0  0  0  0  0  0  0  0  0
    4.2230    4.7816   19.3023 C   0  0  0  0  0  0  0  0  0  0  0  0
    3.3408    5.5049   18.6840 O   0  0  0  0  0  0  0  0  0  0  0  0
    5.3996    3.0394   18.9936 H   0  0  0  0  0  0  0  0  0  0  0  0
    4.5836    5.3270   20.6332 C   0  0  0  0  0  0  0  0  0  0  0  0
    4.9239    4.2740   21.6744 C   0  0  0  0  0  0  0  0  0  0  0  0
    3.5886    4.8570   21.7668 C   0  0  0  0  0  0  0  0  0  0  0  0
    5.1048    6.6753   20.8601 C   0  0  0  0  0  0  0  0  0  0  0  0
    6.3674    6.8090   20.5192 O   0  0  0  0  0  0  0  0  0  0  0  0
    4.5441    7.8464   21.3552 N   0  0  0  0  0  0  0  0  0  0  0  0
    3.5582    7.9423   21.6489 H   0  0  0  0  0  0  0  0  0  0  0  0
    5.3401    9.0693   21.4639 C   0  0  0  0  0  0  0  0  0  0  0  0
    5.2094    9.9594   20.5067 C   0  0  0  0  0  0  0  0  0  0  0  0
    5.9063   11.2396   20.4252 C   0  0  0  0  0  0  0  0  0  0  0  0
    6.8725   11.5066   21.5125 C   0  0  0  0  0  0  0  0  0  0  0  0
    6.5190   12.7058   22.1824 F   0  0  0  0  0  0  0  0  0  0  0  0
    6.9417   10.4538   22.5276 C   0  0  0  0  0  0  0  0  0  0  0  0
    6.2530    9.3307   22.5295 C   0  0  0  0  0  0  0  0  0  0  0  0
    2.4899    2.0994   13.6604 O   0  0  0  0  0  0  0  0  0  0  0  0
    3.7232    2.6276    9.7914 C   0  0  0  0  0  0  0  0  0  0  0  0
    3.3254    2.4404   11.0866 C   0  0  0  0  0  0  0  0  0  0  0  0
    2.2175    3.1185   11.5472 C   0  0  0  0  0  0  0  0  0  0  0  0
    1.7711    2.9595   12.8769 C   0  0  0  0  0  0  0  0  0  0  0  0
    0.6663    3.6492   13.3179 C   0  0  0  0  0  0  0  0  0  0  0  0
   -0.0213    4.4989   12.4796 C   0  0  0  0  0  0  0  0  0  0  0  0
    0.4049    4.6472   11.2155 N   0  0  0  0  0  0  0  0  0  0  0  0
    1.4971    3.9756   10.7561 C   0  0  0  0  0  0  0  0  0  0  0  0
    1.9049    4.1617    9.4440 C   0  0  0  0  0  0  0  0  0  0  0  0
    3.0049    3.4987    8.9556 C   0  0  0  0  0  0  0  0  0  0  0  0
    4.8043    0.6038    9.0430 C   0  0  0  0  0  0  0  0  0  0  0  0
    4.8173    2.0011    9.2264 O   0  0  0  0  0  0  0  0  0  0  0  0
    3.4075    3.6676    7.6712 O   0  0  0  0  0  0  0  0  0  0  0  0
    4.1795    4.7130    7.2034 C   0  0  0  0  0  0  0  0  0  0  0  0
    3.5569    5.4013    5.9968 C   0  0  0  0  0  0  0  0  0  0  0  0
    2.3711    6.2446    6.4843 C   0  0  0  0  0  0  0  0  0  0  0  0
    2.8770    7.5327    6.8877 N   0  0  0  0  0  0  0  0  0  0  0  0
    3.8209    8.0430    5.8661 C   0  0  0  0  0  0  0  0  0  0  0  0
    4.1728    9.4529    6.3496 C   0  0  0  0  0  0  0  0  0  0  0  0
    3.8492    9.6455    7.6927 O   0  0  0  0  0  0  0  0  0  0  0  0
    2.4564    9.6264    7.9050 C   0  0  0  0  0  0  0  0  0  0  0  0
    1.8352    8.5517    7.0031 C   0  0  0  0  0  0  0  0  0  0  0  0
 37 38  1  0  0  0
 38 27  1  0  0  0
 27 28  2  0  0  0
 28 29  1  0  0  0
 29 30  2  0  0  0
 30 26  1  0  0  0
 26  1  1  0  0  0
  1  2  2  0  0  0
  2  3  1  0  0  0
  3  4  2  0  0  0
  4  8  1  0  0  0
  8  9  1  0  0  0
  9 10  2  0  0  0
  9 12  1  0  0  0
 12 13  1  0  0  0
 13 14  1  0  0  0
 12 15  1  0  0  0
 15 16  2  0  0  0
 15 17  1  0  0  0
 17 19  1  0  0  0
 19 20  2  0  0  0
 20 21  1  0  0  0
 21 22  1  0  0  0
 22 23  1  0  0  0
 22 24  1  0  0  0
 24 25  2  0  0  0
  4  5  1  0  0  0
  5  6  2  0  0  0
  6  7  1  0  0  0
 30 31  1  0  0  0
 31 32  2  0  0  0
 32 33  1  0  0  0
 33 34  2  0  0  0
 34 35  1  0  0  0
 35 36  2  0  0  0
 36 39  1  0  0  0
 39 40  1  0  0  0
 40 41  1  0  0  0
 41 42  1  0  0  0
 42 43  1  0  0  0
 43 44  1  0  0  0
 44 45  1  0  0  0
 45 46  1  0  0  0
 46 47  1  0  0  0
 47 48  1  0  0  0
 36 27  1  0  0  0
 48 43  1  0  0  0
 34 29  1  0  0  0
  6  1  1  0  0  0
 14 12  1  0  0  0
 25 19  1  0  0  0
  8 11  1  0  0  0
 17 18  1  0  0  0
M  END
> <minimizedAffinity>
-7.55496

> <CNNscore>
0.1243644133

> <CNNaffinity>
6.4305968285

> <CNN_VS>
0.7997373939

> <CNNaffinity_variance>
0.2181826383

$$$$
[H]C1=C([H])C([H])(F)C([H])([H])C([H])=C1N([H])C(=O)C1(C(=O)N([H])c2c([H])c([H])c(Oc3c([H])c([H])nc4c([H])c(OC([H])([H])C([H])([H])C([H])([H])N5C([H])([H])C([H])([H])OC([H])([H])C5([H])[H])c(OC([H])([H])[H])c([H])c34)c(F)c2[H])C([H])([H])C1([H])[H]


 48 53  0  0  0  0  0  0  0  0999 V2000
    3.9984    2.1809   16.6824 C   0  0  0  0  0  0  0  0  0  0  0  0
    4.3400    3.3600   16.0349 C   0  0  0  0  0  0  0  0  0  0  0  0
    3.6231    3.9212   15.0203 C   0  0  0  0  0  0  0  0  0  0  0  0
    2.4569    3.2843   14.5808 C   0  0  0  0  0  0  0  0  0  0  0  0
    2.0831    2.1191   15.1933 C   0  0  0  0  0  0  0  0  0  0  0  0
    2.8419    1.5645   16.2369 C   0  0  0  0  0  0  0  0  0  0  0  0
    2.3923    0.4238   16.8096 F   0  0  0  0  0  0  0  0  0  0  0  0
    1.6859    3.9101   13.5380 N   0  0  0  0  0  0  0  0  0  0  0  0
    1.0056    5.0929   13.7161 C   0  0  0  0  0  0  0  0  0  0  0  0
    1.0652    5.6089   14.9053 O   0  0  0  0  0  0  0  0  0  0  0  0
    1.6710    3.3762   12.6556 H   0  0  0  0  0  0  0  0  0  0  0  0
    0.1939    5.9041   12.7770 C   0  0  0  0  0  0  0  0  0  0  0  0
   -1.0559    6.5139   13.3893 C   0  0  0  0  0  0  0  0  0  0  0  0
   -1.2597    5.3187   12.5760 C   0  0  0  0  0  0  0  0  0  0  0  0
    0.7193    6.5429   11.5700 C   0  0  0  0  0  0  0  0  0  0  0  0
    0.5224    7.8424   11.5415 O   0  0  0  0  0  0  0  0  0  0  0  0
    1.3878    6.0656   10.4492 N   0  0  0  0  0  0  0  0  0  0  0  0
    1.6545    5.0778   10.3059 H   0  0  0  0  0  0  0  0  0  0  0  0
    1.7979    6.9750    9.3788 C   0  0  0  0  0  0  0  0  0  0  0  0
    0.9775    7.1170    8.3627 C   0  0  0  0  0  0  0  0  0  0  0  0
    1.1937    7.9714    7.1989 C   0  0  0  0  0  0  0  0  0  0  0  0
    2.4837    8.6942    7.1731 C   0  0  0  0  0  0  0  0  0  0  0  0
    2.2477   10.0906    7.0940 F   0  0  0  0  0  0  0  0  0  0  0  0
    3.3233    8.4683    8.3511 C   0  0  0  0  0  0  0  0  0  0  0  0
    3.0342    7.6881    9.3726 C   0  0  0  0  0  0  0  0  0  0  0  0
    4.7651    1.6671   17.7051 O   0  0  0  0  0  0  0  0  0  0  0  0
    5.6537    5.2861   19.4028 C   0  0  0  0  0  0  0  0  0  0  0  0
    5.3648    4.0827   18.8204 C   0  0  0  0  0  0  0  0  0  0  0  0
    4.7486    3.1085   19.5760 C   0  0  0  0  0  0  0  0  0  0  0  0
    4.4335    1.8502   19.0192 C   0  0  0  0  0  0  0  0  0  0  0  0
    3.8231    0.8903   19.7918 C   0  0  0  0  0  0  0  0  0  0  0  0
    3.5082    1.1351   21.1103 C   0  0  0  0  0  0  0  0  0  0  0  0
    3.8080    2.3329   21.6367 N   0  0  0  0  0  0  0  0  0  0  0  0
    4.4134    3.2990   20.8916 C   0  0  0  0  0  0  0  0  0  0  0  0
    4.7088    4.5208   21.4769 C   0  0  0  0  0  0  0  0  0  0  0  0
    5.3218    5.5120   20.7489 C   0  0  0  0  0  0  0  0  0  0  0  0
    5.7491    6.7818   17.5112 C   0  0  0  0  0  0  0  0  0  0  0  0
    6.2694    6.3309   18.7408 O   0  0  0  0  0  0  0  0  0  0  0  0
    5.6077    6.7137   21.3097 O   0  0  0  0  0  0  0  0  0  0  0  0
    4.9464    7.8980   21.0494 C   0  0  0  0  0  0  0  0  0  0  0  0
    5.4663    9.0523   21.8949 C   0  0  0  0  0  0  0  0  0  0  0  0
    6.9849    9.1471   21.6958 C   0  0  0  0  0  0  0  0  0  0  0  0
    7.6217    8.6992   22.9091 N   0  0  0  0  0  0  0  0  0  0  0  0
    8.9966    8.2344   22.6117 C   0  0  0  0  0  0  0  0  0  0  0  0
    9.5925    7.9177   23.9864 C   0  0  0  0  0  0  0  0  0  0  0  0
    8.6108    7.7830   24.9680 O   0  0  0  0  0  0  0  0  0  0  0  0
    7.9595    9.0046   25.2303 C   0  0  0  0  0  0  0  0  0  0  0  0
    7.7724    9.7574   23.9064 C   0  0  0  0  0  0  0  0  0  0  0  0
 37 38  1  0  0  0
 38 27  1  0  0  0
 27 28  2  0  0  0
 28 29  1  0  0  0
 29 30  2  0  0  0
 30 26  1  0  0  0
 26  1  1  0  0  0
  1  2  2  0  0  0
  2  3  1  0  0  0
  3  4  2  0  0  0
  4  8  1  0  0  0
  8  9  1  0  0  0
  9 10  2  0  0  0
  9 12  1  0  0  0
 12 13  1  0  0  0
 13 14  1  0  0  0
 12 15  1  0  0  0
 15 16  2  0  0  0
 15 17  1  0  0  0
 17 19  1  0  0  0
 19 20  2  0  0  0
 20 21  1  0  0  0
 21 22  1  0  0  0
 22 23  1  0  0  0
 22 24  1  0  0  0
 24 25  2  0  0  0
  4  5  1  0  0  0
  5  6  2  0  0  0
  6  7  1  0  0  0
 30 31  1  0  0  0
 31 32  2  0  0  0
 32 33  1  0  0  0
 33 34  2  0  0  0
 34 35  1  0  0  0
 35 36  2  0  0  0
 36 39  1  0  0  0
 39 40  1  0  0  0
 40 41  1  0  0  0
 41 42  1  0  0  0
 42 43  1  0  0  0
 43 44  1  0  0  0
 44 45  1  0  0  0
 45 46  1  0  0  0
 46 47  1  0  0  0
 47 48  1  0  0  0
 36 27  1  0  0  0
 48 43  1  0  0  0
 34 29  1  0  0  0
  6  1  1  0  0  0
 14 12  1  0  0  0
 25 19  1  0  0  0
  8 11  1  0  0  0
 17 18  1  0  0  0
M  END
> <minimizedAffinity>
-8.86790

> <CNNscore>
0.1188711599

> <CNNaffinity>
6.3549556732

> <CNN_VS>
0.7554209232

> <CNNaffinity_variance>
0.4886535704

$$$$
[H]C1=C([H])C([H])(F)C([H])([H])C([H])=C1N([H])C(=O)C1(C(=O)N([H])c2c([H])c([H])c(Oc3c([H])c([H])nc4c([H])c(OC([H])([H])C([H])([H])C([H])([H])N5C([H])([H])C([H])([H])OC([H])([H])C5([H])[H])c(OC([H])([H])[H])c([H])c34)c(F)c2[H])C([H])([H])C1([H])[H]


 48 53  0  0  0  0  0  0  0  0999 V2000
    4.0973    2.4816   16.9291 C   0  0  0  0  0  0  0  0  0  0  0  0
    4.3867    3.6702   16.2737 C   0  0  0  0  0  0  0  0  0  0  0  0
    3.6087    4.2277   15.3030 C   0  0  0  0  0  0  0  0  0  0  0  0
    2.4303    3.5766   14.9211 C   0  0  0  0  0  0  0  0  0  0  0  0
    2.1066    2.4016   15.5434 C   0  0  0  0  0  0  0  0  0  0  0  0
    2.9279    1.8511   16.5408 C   0  0  0  0  0  0  0  0  0  0  0  0
    2.5260    0.6997   17.1276 F   0  0  0  0  0  0  0  0  0  0  0  0
    1.5958    4.1981   13.9256 N   0  0  0  0  0  0  0  0  0  0  0  0
    1.5585    3.7832   12.6141 C   0  0  0  0  0  0  0  0  0  0  0  0
    2.3553    2.8069   12.3043 O   0  0  0  0  0  0  0  0  0  0  0  0
    1.0501    4.9976   14.2818 H   0  0  0  0  0  0  0  0  0  0  0  0
    0.7582    4.2608   11.4606 C   0  0  0  0  0  0  0  0  0  0  0  0
    1.4258    4.0709   10.1090 C   0  0  0  0  0  0  0  0  0  0  0  0
    1.4796    5.4197   10.6652 C   0  0  0  0  0  0  0  0  0  0  0  0
   -0.6985    4.3990   11.4662 C   0  0  0  0  0  0  0  0  0  0  0  0
   -1.2194    4.3654   12.6728 O   0  0  0  0  0  0  0  0  0  0  0  0
   -1.6471    4.5639   10.4644 N   0  0  0  0  0  0  0  0  0  0  0  0
   -1.4257    4.6396    9.4581 H   0  0  0  0  0  0  0  0  0  0  0  0
   -3.0689    4.6766   10.7914 C   0  0  0  0  0  0  0  0  0  0  0  0
   -3.8711    3.7517   10.3152 C   0  0  0  0  0  0  0  0  0  0  0  0
   -5.3141    3.6780   10.5237 C   0  0  0  0  0  0  0  0  0  0  0  0
   -5.8991    4.7854   11.3101 C   0  0  0  0  0  0  0  0  0  0  0  0
   -6.5631    4.2637   12.4498 F   0  0  0  0  0  0  0  0  0  0  0  0
   -4.9211    5.7615   11.7942 C   0  0  0  0  0  0  0  0  0  0  0  0
   -3.6228    5.7356   11.5717 C   0  0  0  0  0  0  0  0  0  0  0  0
    4.9247    1.9721   17.9056 O   0  0  0  0  0  0  0  0  0  0  0  0
    5.6480    5.4904   19.8721 C   0  0  0  0  0  0  0  0  0  0  0  0
    5.4139    4.3222   19.2004 C   0  0  0  0  0  0  0  0  0  0  0  0
    4.8580    3.2617   19.8831 C   0  0  0  0  0  0  0  0  0  0  0  0
    4.6009    2.0355   19.2327 C   0  0  0  0  0  0  0  0  0  0  0  0
    4.0503    0.9883   19.9335 C   0  0  0  0  0  0  0  0  0  0  0  0
    3.7399    1.1137   21.2697 C   0  0  0  0  0  0  0  0  0  0  0  0
    3.9846    2.2812   21.8851 N   0  0  0  0  0  0  0  0  0  0  0  0
    4.5302    3.3322   21.2124 C   0  0  0  0  0  0  0  0  0  0  0  0
    4.7699    4.5189   21.8885 C   0  0  0  0  0  0  0  0  0  0  0  0
    5.3220    5.5940   21.2345 C   0  0  0  0  0  0  0  0  0  0  0  0
    7.5307    6.5764   18.8231 C   0  0  0  0  0  0  0  0  0  0  0  0
    6.2009    6.6139   19.2882 O   0  0  0  0  0  0  0  0  0  0  0  0
    5.5530    6.7620   21.8847 O   0  0  0  0  0  0  0  0  0  0  0  0
    6.6214    7.0158   22.7226 C   0  0  0  0  0  0  0  0  0  0  0  0
    7.3401    8.3113   22.3723 C   0  0  0  0  0  0  0  0  0  0  0  0
    8.1535    8.7547   23.5957 C   0  0  0  0  0  0  0  0  0  0  0  0
    8.9979    7.6553   23.9910 N   0  0  0  0  0  0  0  0  0  0  0  0
   10.1920    7.6003   23.1157 C   0  0  0  0  0  0  0  0  0  0  0  0
   11.0523    6.4878   23.7220 C   0  0  0  0  0  0  0  0  0  0  0  0
   10.3230    5.6676   24.5829 O   0  0  0  0  0  0  0  0  0  0  0  0
    9.9139    6.3557   25.7424 C   0  0  0  0  0  0  0  0  0  0  0  0
    9.5150    7.7850   25.3522 C   0  0  0  0  0  0  0  0  0  0  0  0
 37 38  1  0  0  0
 38 27  1  0  0  0
 27 28  2  0  0  0
 28 29  1  0  0  0
 29 30  2  0  0  0
 30 26  1  0  0  0
 26  1  1  0  0  0
  1  2  2  0  0  0
  2  3  1  0  0  0
  3  4  2  0  0  0
  4  8  1  0  0  0
  8  9  1  0  0  0
  9 10  2  0  0  0
  9 12  1  0  0  0
 12 13  1  0  0  0
 13 14  1  0  0  0
 12 15  1  0  0  0
 15 16  2  0  0  0
 15 17  1  0  0  0
 17 19  1  0  0  0
 19 20  2  0  0  0
 20 21  1  0  0  0
 21 22  1  0  0  0
 22 23  1  0  0  0
 22 24  1  0  0  0
 24 25  2  0  0  0
  4  5  1  0  0  0
  5  6  2  0  0  0
  6  7  1  0  0  0
 30 31  1  0  0  0
 31 32  2  0  0  0
 32 33  1  0  0  0
 33 34  2  0  0  0
 34 35  1  0  0  0
 35 36  2  0  0  0
 36 39  1  0  0  0
 39 40  1  0  0  0
 40 41  1  0  0  0
 41 42  1  0  0  0
 42 43  1  0  0  0
 43 44  1  0  0  0
 44 45  1  0  0  0
 45 46  1  0  0  0
 46 47  1  0  0  0
 47 48  1  0  0  0
 36 27  1  0  0  0
 48 43  1  0  0  0
 34 29  1  0  0  0
  6  1  1  0  0  0
 14 12  1  0  0  0
 25 19  1  0  0  0
  8 11  1  0  0  0
 17 18  1  0  0  0
M  END
> <minimizedAffinity>
-8.90790

> <CNNscore>
0.1155540943

> <CNNaffinity>
6.6065053940

> <CNN_VS>
0.7634087205

> <CNNaffinity_variance>
0.2397728264

$$$$
[H]C1=C([H])C([H])(F)C([H])([H])C([H])=C1N([H])C(=O)C1(C(=O)N([H])c2c([H])c([H])c(Oc3c([H])c([H])nc4c([H])c(OC([H])([H])C([H])([H])C([H])([H])N5C([H])([H])C([H])([H])OC([H])([H])C5([H])[H])c(OC([H])([H])[H])c([H])c34)c(F)c2[H])C([H])([H])C1([H])[H]


 48 53  0  0  0  0  0  0  0  0999 V2000
    4.6166    2.1526   18.1943 C   0  0  0  0  0  0  0  0  0  0  0  0
    5.1252    3.1373   17.3587 C   0  0  0  0  0  0  0  0  0  0  0  0
    4.6311    3.4348   16.1236 C   0  0  0  0  0  0  0  0  0  0  0  0
    3.5349    2.7118   15.6394 C   0  0  0  0  0  0  0  0  0  0  0  0
    3.0018    1.7321   16.4321 C   0  0  0  0  0  0  0  0  0  0  0  0
    3.5321    1.4479   17.7012 C   0  0  0  0  0  0  0  0  0  0  0  0
    2.9328    0.4824   18.4361 F   0  0  0  0  0  0  0  0  0  0  0  0
    2.9959    3.0652   14.3517 N   0  0  0  0  0  0  0  0  0  0  0  0
    2.3096    4.2357   14.1224 C   0  0  0  0  0  0  0  0  0  0  0  0
    2.1378    5.0047   15.1534 O   0  0  0  0  0  0  0  0  0  0  0  0
    3.1501    2.3484   13.6263 H   0  0  0  0  0  0  0  0  0  0  0  0
    1.7124    4.7916   12.8841 C   0  0  0  0  0  0  0  0  0  0  0  0
    2.5442    4.5747   11.6313 C   0  0  0  0  0  0  0  0  0  0  0  0
    2.6183    5.9061   12.2258 C   0  0  0  0  0  0  0  0  0  0  0  0
    0.2827    5.0391   12.6952 C   0  0  0  0  0  0  0  0  0  0  0  0
   -0.4693    4.0062   13.0052 O   0  0  0  0  0  0  0  0  0  0  0  0
   -0.4484    6.1385   12.2620 N   0  0  0  0  0  0  0  0  0  0  0  0
   -0.0341    7.0480   12.0002 H   0  0  0  0  0  0  0  0  0  0  0  0
   -1.9081    6.0806   12.1784 C   0  0  0  0  0  0  0  0  0  0  0  0
   -2.5895    6.7141   13.1059 C   0  0  0  0  0  0  0  0  0  0  0  0
   -4.0443    6.7830   13.2045 C   0  0  0  0  0  0  0  0  0  0  0  0
   -4.7869    6.0226   12.1762 C   0  0  0  0  0  0  0  0  0  0  0  0
   -5.6424    6.8979   11.4592 F   0  0  0  0  0  0  0  0  0  0  0  0
   -3.9353    5.3542   11.1906 C   0  0  0  0  0  0  0  0  0  0  0  0
   -2.6180    5.3644   11.1684 C   0  0  0  0  0  0  0  0  0  0  0  0
    5.1604    1.9028   19.4351 O   0  0  0  0  0  0  0  0  0  0  0  0
    5.9973    5.8219   20.2774 C   0  0  0  0  0  0  0  0  0  0  0  0
    5.7285    4.5138   19.9816 C   0  0  0  0  0  0  0  0  0  0  0  0
    4.9310    3.7877   20.8397 C   0  0  0  0  0  0  0  0  0  0  0  0
    4.6284    2.4340   20.5775 C   0  0  0  0  0  0  0  0  0  0  0  0
    3.8348    1.7261   21.4492 C   0  0  0  0  0  0  0  0  0  0  0  0
    3.3226    2.3175   22.5829 C   0  0  0  0  0  0  0  0  0  0  0  0
    3.6112    3.6051   22.8290 N   0  0  0  0  0  0  0  0  0  0  0  0
    4.3957    4.3265   21.9810 C   0  0  0  0  0  0  0  0  0  0  0  0
    4.6716    5.6529   22.2761 C   0  0  0  0  0  0  0  0  0  0  0  0
    5.4625    6.4028   21.4392 C   0  0  0  0  0  0  0  0  0  0  0  0
    6.6129    6.6377   18.0912 C   0  0  0  0  0  0  0  0  0  0  0  0
    6.7835    6.6409   19.4900 O   0  0  0  0  0  0  0  0  0  0  0  0
    5.7320    7.7036   21.7146 O   0  0  0  0  0  0  0  0  0  0  0  0
    4.8290    8.7453   21.6291 C   0  0  0  0  0  0  0  0  0  0  0  0
    5.0097    9.5691   20.3618 C   0  0  0  0  0  0  0  0  0  0  0  0
    3.9518    9.1222   19.3440 C   0  0  0  0  0  0  0  0  0  0  0  0
    3.8441   10.1464   18.3353 N   0  0  0  0  0  0  0  0  0  0  0  0
    3.8728    9.5290   16.9888 C   0  0  0  0  0  0  0  0  0  0  0  0
    3.6201   10.6986   16.0329 C   0  0  0  0  0  0  0  0  0  0  0  0
    3.8341   11.9341   16.6439 O   0  0  0  0  0  0  0  0  0  0  0  0
    2.8814   12.1950   17.6486 C   0  0  0  0  0  0  0  0  0  0  0  0
    2.5869   10.8896   18.3993 C   0  0  0  0  0  0  0  0  0  0  0  0
 37 38  1  0  0  0
 38 27  1  0  0  0
 27 28  2  0  0  0
 28 29  1  0  0  0
 29 30  2  0  0  0
 30 26  1  0  0  0
 26  1  1  0  0  0
  1  2  2  0  0  0
  2  3  1  0  0  0
  3  4  2  0  0  0
  4  8  1  0  0  0
  8  9  1  0  0  0
  9 10  2  0  0  0
  9 12  1  0  0  0
 12 13  1  0  0  0
 13 14  1  0  0  0
 12 15  1  0  0  0
 15 16  2  0  0  0
 15 17  1  0  0  0
 17 19  1  0  0  0
 19 20  2  0  0  0
 20 21  1  0  0  0
 21 22  1  0  0  0
 22 23  1  0  0  0
 22 24  1  0  0  0
 24 25  2  0  0  0
  4  5  1  0  0  0
  5  6  2  0  0  0
  6  7  1  0  0  0
 30 31  1  0  0  0
 31 32  2  0  0  0
 32 33  1  0  0  0
 33 34  2  0  0  0
 34 35  1  0  0  0
 35 36  2  0  0  0
 36 39  1  0  0  0
 39 40  1  0  0  0
 40 41  1  0  0  0
 41 42  1  0  0  0
 42 43  1  0  0  0
 43 44  1  0  0  0
 44 45  1  0  0  0
 45 46  1  0  0  0
 46 47  1  0  0  0
 47 48  1  0  0  0
 36 27  1  0  0  0
 48 43  1  0  0  0
 34 29  1  0  0  0
  6  1  1  0  0  0
 14 12  1  0  0  0
 25 19  1  0  0  0
  8 11  1  0  0  0
 17 18  1  0  0  0
M  END
> <minimizedAffinity>
-9.52139

> <CNNscore>
0.1086607873

> <CNNaffinity>
6.6206293106

> <CNN_VS>
0.7194027901

> <CNNaffinity_variance>
0.4490078986

$$$$
[H]c1nc(N([H])[H])c2c(-c3c([H])c([H])c(N([H])C(=O)c4c([H])c([H])c([H])n(-c5c([H])c([H])c([H])c([H])c5[H])c4=O)c([H])c3[H])c([H])c(C3([H])C([H])([H])C([H])([H])N(C(=O)C([H])([H])[H])C([H])([H])C3([H])[H])n2n1


 44 49  0  0  0  0  0  0  0  0999 V2000
    3.1740    3.9257   15.8222 C   0  0  0  0  0  0  0  0  0  0  0  0
    4.0207    3.6928   14.7595 C   0  0  0  0  0  0  0  0  0  0  0  0
    3.8164    4.3456   13.5669 C   0  0  0  0  0  0  0  0  0  0  0  0
    2.7700    5.2557   13.3699 C   0  0  0  0  0  0  0  0  0  0  0  0
    1.9516    5.4640   14.4366 C   0  0  0  0  0  0  0  0  0  0  0  0
    2.1447    4.8082   15.6558 C   0  0  0  0  0  0  0  0  0  0  0  0
    4.0744    2.8819   19.2169 C   0  0  0  0  0  0  0  0  0  0  0  0
    4.0119    3.8221   18.2101 C   0  0  0  0  0  0  0  0  0  0  0  0
    3.3852    3.2435   17.1094 C   0  0  0  0  0  0  0  0  0  0  0  0
    3.0815    1.9691   17.4726 C   0  0  0  0  0  0  0  0  0  0  0  0
    2.4477    0.9442   16.7824 C   0  0  0  0  0  0  0  0  0  0  0  0
    1.9766    1.1557   15.4669 N   0  0  0  0  0  0  0  0  0  0  0  0
    2.2739   -0.2374   17.4066 N   0  0  0  0  0  0  0  0  0  0  0  0
    2.7078   -0.3996   18.6630 C   0  0  0  0  0  0  0  0  0  0  0  0
    3.3172    0.5690   19.3482 N   0  0  0  0  0  0  0  0  0  0  0  0
    3.5060    1.7514   18.7631 N   0  0  0  0  0  0  0  0  0  0  0  0
    2.3236    0.6842   14.6089 H   0  0  0  0  0  0  0  0  0  0  0  0
    1.1951    1.8606   15.3535 H   0  0  0  0  0  0  0  0  0  0  0  0
    7.0505    7.7117   21.4977 C   0  0  0  0  0  0  0  0  0  0  0  0
    5.6331    7.3096   21.4105 C   0  0  0  0  0  0  0  0  0  0  0  0
    4.7318    8.1611   21.4303 O   0  0  0  0  0  0  0  0  0  0  0  0
    5.3128    5.9418   21.3030 N   0  0  0  0  0  0  0  0  0  0  0  0
    6.3317    4.8953   21.2790 C   0  0  0  0  0  0  0  0  0  0  0  0
    6.0054    3.8961   20.1951 C   0  0  0  0  0  0  0  0  0  0  0  0
    4.6897    3.1552   20.5388 C   0  0  0  0  0  0  0  0  0  0  0  0
    3.9351    3.9935   21.4747 C   0  0  0  0  0  0  0  0  0  0  0  0
    3.9346    5.4759   21.1996 C   0  0  0  0  0  0  0  0  0  0  0  0
    2.6389    5.8686   12.1170 N   0  0  0  0  0  0  0  0  0  0  0  0
    1.8350    5.4570   11.0311 C   0  0  0  0  0  0  0  0  0  0  0  0
    1.1031    4.4300   11.1150 O   0  0  0  0  0  0  0  0  0  0  0  0
    3.1948    6.7756   11.9463 H   0  0  0  0  0  0  0  0  0  0  0  0
    1.7815    6.1734    9.7557 C   0  0  0  0  0  0  0  0  0  0  0  0
    0.5080    6.3585    9.2256 C   0  0  0  0  0  0  0  0  0  0  0  0
    0.3957    7.1008    8.0788 C   0  0  0  0  0  0  0  0  0  0  0  0
    1.5152    7.6342    7.4909 C   0  0  0  0  0  0  0  0  0  0  0  0
    2.7705    7.4604    7.9969 N   0  0  0  0  0  0  0  0  0  0  0  0
    2.8677    6.7288    9.1220 C   0  0  0  0  0  0  0  0  0  0  0  0
    4.0151    6.5533    9.5953 O   0  0  0  0  0  0  0  0  0  0  0  0
    3.8818    8.0368    7.3260 C   0  0  0  0  0  0  0  0  0  0  0  0
    4.1390    9.4045    7.5550 C   0  0  0  0  0  0  0  0  0  0  0  0
    5.1957   10.0170    6.9288 C   0  0  0  0  0  0  0  0  0  0  0  0
    6.0537    9.3745    6.0627 C   0  0  0  0  0  0  0  0  0  0  0  0
    5.7978    8.0207    5.8369 C   0  0  0  0  0  0  0  0  0  0  0  0
    4.7283    7.3882    6.4678 C   0  0  0  0  0  0  0  0  0  0  0  0
 19 20  1  0  0  0
 20 21  2  0  0  0
 20 22  1  0  0  0
 22 23  1  0  0  0
 23 24  1  0  0  0
 24 25  1  0  0  0
 25 26  1  0  0  0
 26 27  1  0  0  0
 25  7  1  0  0  0
  7  8  2  0  0  0
  8  9  1  0  0  0
  9  1  1  0  0  0
  1  2  2  0  0  0
  2  3  1  0  0  0
  3  4  2  0  0  0
  4 28  1  0  0  0
 28 29  1  0  0  0
 29 30  2  0  0  0
 29 32  1  0  0  0
 32 33  2  0  0  0
 33 34  1  0  0  0
 34 35  2  0  0  0
 35 36  1  0  0  0
 36 39  1  0  0  0
 39 40  2  0  0  0
 40 41  1  0  0  0
 41 42  2  0  0  0
 42 43  1  0  0  0
 43 44  2  0  0  0
 36 37  1  0  0  0
 37 38  2  0  0  0
  4  5  1  0  0  0
  5  6  2  0  0  0
  9 10  2  0  0  0
 10 11  1  0  0  0
 11 12  1  0  0  0
 11 13  2  0  0  0
 13 14  1  0  0  0
 14 15  2  0  0  0
 15 16  1  0  0  0
 27 22  1  0  0  0
 16  7  1  0  0  0
  6  1  1  0  0  0
 16 10  1  0  0  0
 37 32  1  0  0  0
 44 39  1  0  0  0
 28 31  1  0  0  0
 12 17  1  0  0  0
 12 18  1  0  0  0
M  END
> <minimizedAffinity>
-9.12696

> <CNNscore>
0.4724701345

> <CNNaffinity>
7.0695657730

> <CNN_VS>
3.3401587009

> <CNNaffinity_variance>
0.5704773664

$$$$
[H]c1nc(N([H])[H])c2c(-c3c([H])c([H])c(N([H])C(=O)c4c([H])c([H])c([H])n(-c5c([H])c([H])c([H])c([H])c5[H])c4=O)c([H])c3[H])c([H])c(C3([H])C([H])([H])C([H])([H])N(C(=O)C([H])([H])[H])C([H])([H])C3([H])[H])n2n1


 44 49  0  0  0  0  0  0  0  0999 V2000
    2.6823    4.8412   14.5147 C   0  0  0  0  0  0  0  0  0  0  0  0
    3.2622    4.8114   13.2643 C   0  0  0  0  0  0  0  0  0  0  0  0
    2.6134    5.3841   12.1961 C   0  0  0  0  0  0  0  0  0  0  0  0
    1.3662    6.0107   12.3134 C   0  0  0  0  0  0  0  0  0  0  0  0
    0.8196    6.0235   13.5592 C   0  0  0  0  0  0  0  0  0  0  0  0
    1.4654    5.4454   14.6559 C   0  0  0  0  0  0  0  0  0  0  0  0
    4.7476    4.0406   17.4332 C   0  0  0  0  0  0  0  0  0  0  0  0
    4.2712    4.9216   16.4854 C   0  0  0  0  0  0  0  0  0  0  0  0
    3.3686    4.2425   15.6712 C   0  0  0  0  0  0  0  0  0  0  0  0
    3.3171    2.9683   16.1427 C   0  0  0  0  0  0  0  0  0  0  0  0
    2.5837    1.8647   15.7272 C   0  0  0  0  0  0  0  0  0  0  0  0
    1.6857    1.9734   14.6413 N   0  0  0  0  0  0  0  0  0  0  0  0
    2.7325    0.7061   16.3990 N   0  0  0  0  0  0  0  0  0  0  0  0
    3.5716    0.6406   17.4405 C   0  0  0  0  0  0  0  0  0  0  0  0
    4.2854    1.6861   17.8607 N   0  0  0  0  0  0  0  0  0  0  0  0
    4.1635    2.8487   17.2207 N   0  0  0  0  0  0  0  0  0  0  0  0
    1.7685    1.4874   13.7271 H   0  0  0  0  0  0  0  0  0  0  0  0
    0.8516    2.6100   14.7811 H   0  0  0  0  0  0  0  0  0  0  0  0
    6.6234    9.4487   19.5823 C   0  0  0  0  0  0  0  0  0  0  0  0
    5.5280    8.5190   19.9194 C   0  0  0  0  0  0  0  0  0  0  0  0
    4.4963    8.9304   20.4708 O   0  0  0  0  0  0  0  0  0  0  0  0
    5.6665    7.1524   19.6060 N   0  0  0  0  0  0  0  0  0  0  0  0
    6.8599    6.6108   18.9608 C   0  0  0  0  0  0  0  0  0  0  0  0
    6.4532    5.6600   17.8607 C   0  0  0  0  0  0  0  0  0  0  0  0
    5.7400    4.4260   18.4663 C   0  0  0  0  0  0  0  0  0  0  0  0
    5.2282    4.8074   19.7856 C   0  0  0  0  0  0  0  0  0  0  0  0
    4.6182    6.1815   19.8988 C   0  0  0  0  0  0  0  0  0  0  0  0
    0.7801    6.5620   11.1665 N   0  0  0  0  0  0  0  0  0  0  0  0
    0.1554    5.8795   10.0994 C   0  0  0  0  0  0  0  0  0  0  0  0
    0.0565    4.6195   10.1012 O   0  0  0  0  0  0  0  0  0  0  0  0
    0.7773    7.6356   11.0764 H   0  0  0  0  0  0  0  0  0  0  0  0
   -0.4192    6.5608    8.9382 C   0  0  0  0  0  0  0  0  0  0  0  0
    0.5004    7.1253    8.0592 C   0  0  0  0  0  0  0  0  0  0  0  0
    0.0177    7.6969    6.9107 C   0  0  0  0  0  0  0  0  0  0  0  0
   -1.3310    7.7002    6.6569 C   0  0  0  0  0  0  0  0  0  0  0  0
   -2.2454    7.1528    7.5091 N   0  0  0  0  0  0  0  0  0  0  0  0
   -1.7593    6.5962    8.6335 C   0  0  0  0  0  0  0  0  0  0  0  0
   -2.5873    6.0957    9.4306 O   0  0  0  0  0  0  0  0  0  0  0  0
   -3.6263    7.2032    7.1808 C   0  0  0  0  0  0  0  0  0  0  0  0
   -4.1097    6.2475    6.2631 C   0  0  0  0  0  0  0  0  0  0  0  0
   -5.4342    6.2518    5.9034 C   0  0  0  0  0  0  0  0  0  0  0  0
   -6.3595    7.1510    6.3874 C   0  0  0  0  0  0  0  0  0  0  0  0
   -5.8796    8.0966    7.2956 C   0  0  0  0  0  0  0  0  0  0  0  0
   -4.5370    8.1013    7.6687 C   0  0  0  0  0  0  0  0  0  0  0  0
 19 20  1  0  0  0
 20 21  2  0  0  0
 20 22  1  0  0  0
 22 23  1  0  0  0
 23 24  1  0  0  0
 24 25  1  0  0  0
 25 26  1  0  0  0
 26 27  1  0  0  0
 25  7  1  0  0  0
  7  8  2  0  0  0
  8  9  1  0  0  0
  9  1  1  0  0  0
  1  2  2  0  0  0
  2  3  1  0  0  0
  3  4  2  0  0  0
  4 28  1  0  0  0
 28 29  1  0  0  0
 29 30  2  0  0  0
 29 32  1  0  0  0
 32 33  2  0  0  0
 33 34  1  0  0  0
 34 35  2  0  0  0
 35 36  1  0  0  0
 36 39  1  0  0  0
 39 40  2  0  0  0
 40 41  1  0  0  0
 41 42  2  0  0  0
 42 43  1  0  0  0
 43 44  2  0  0  0
 36 37  1  0  0  0
 37 38  2  0  0  0
  4  5  1  0  0  0
  5  6  2  0  0  0
  9 10  2  0  0  0
 10 11  1  0  0  0
 11 12  1  0  0  0
 11 13  2  0  0  0
 13 14  1  0  0  0
 14 15  2  0  0  0
 15 16  1  0  0  0
 27 22  1  0  0  0
 16  7  1  0  0  0
  6  1  1  0  0  0
 16 10  1  0  0  0
 37 32  1  0  0  0
 44 39  1  0  0  0
 28 31  1  0  0  0
 12 17  1  0  0  0
 12 18  1  0  0  0
M  END
> <minimizedAffinity>
-8.52957

> <CNNscore>
0.4017143250

> <CNNaffinity>
6.7681055069

> <CNN_VS>
2.7188448906

> <CNNaffinity_variance>
0.9019293785

$$$$
[H]c1nc(N([H])[H])c2c(-c3c([H])c([H])c(N([H])C(=O)c4c([H])c([H])c([H])n(-c5c([H])c([H])c([H])c([H])c5[H])c4=O)c([H])c3[H])c([H])c(C3([H])C([H])([H])C([H])([H])N(C(=O)C([H])([H])[H])C([H])([H])C3([H])[H])n2n1


 44 49  0  0  0  0  0  0  0  0999 V2000
    1.5164    4.4734   11.9991 C   0  0  0  0  0  0  0  0  0  0  0  0
    1.5928    5.1102   13.2194 C   0  0  0  0  0  0  0  0  0  0  0  0
    1.7143    4.3690   14.3709 C   0  0  0  0  0  0  0  0  0  0  0  0
    1.7660    2.9693   14.3700 C   0  0  0  0  0  0  0  0  0  0  0  0
    1.6879    2.3701   13.1511 C   0  0  0  0  0  0  0  0  0  0  0  0
    1.5634    3.1085   11.9708 C   0  0  0  0  0  0  0  0  0  0  0  0
    1.9907    6.4862    8.9747 C   0  0  0  0  0  0  0  0  0  0  0  0
    2.4778    5.7836   10.0566 C   0  0  0  0  0  0  0  0  0  0  0  0
    1.3972    5.2523   10.7558 C   0  0  0  0  0  0  0  0  0  0  0  0
    0.2818    5.6427   10.0836 C   0  0  0  0  0  0  0  0  0  0  0  0
   -1.0647    5.3979   10.3191 C   0  0  0  0  0  0  0  0  0  0  0  0
   -1.4629    4.5987   11.4145 N   0  0  0  0  0  0  0  0  0  0  0  0
   -1.9696    5.9179    9.4666 N   0  0  0  0  0  0  0  0  0  0  0  0
   -1.5606    6.6496    8.4224 C   0  0  0  0  0  0  0  0  0  0  0  0
   -0.2739    6.8974    8.1729 N   0  0  0  0  0  0  0  0  0  0  0  0
    0.6494    6.3988    8.9944 N   0  0  0  0  0  0  0  0  0  0  0  0
   -2.0121    4.9164   12.2369 H   0  0  0  0  0  0  0  0  0  0  0  0
   -1.1723    3.5812   11.3861 H   0  0  0  0  0  0  0  0  0  0  0  0
    0.9871    8.9392    3.4646 C   0  0  0  0  0  0  0  0  0  0  0  0
    0.8731    9.4223    4.8544 C   0  0  0  0  0  0  0  0  0  0  0  0
    0.1015   10.3501    5.1402 O   0  0  0  0  0  0  0  0  0  0  0  0
    1.6530    8.8152    5.8585 N   0  0  0  0  0  0  0  0  0  0  0  0
    2.5811    7.7221    5.5797 C   0  0  0  0  0  0  0  0  0  0  0  0
    2.4286    6.6484    6.6303 C   0  0  0  0  0  0  0  0  0  0  0  0
    2.8685    7.1945    8.0110 C   0  0  0  0  0  0  0  0  0  0  0  0
    2.7783    8.6565    7.9636 C   0  0  0  0  0  0  0  0  0  0  0  0
    1.5801    9.2338    7.2537 C   0  0  0  0  0  0  0  0  0  0  0  0
    1.8857    2.3001   15.5950 N   0  0  0  0  0  0  0  0  0  0  0  0
    3.0646    2.0375   16.3271 C   0  0  0  0  0  0  0  0  0  0  0  0
    4.1917    2.4273   15.9085 O   0  0  0  0  0  0  0  0  0  0  0  0
    0.9794    1.9522   16.0623 H   0  0  0  0  0  0  0  0  0  0  0  0
    3.0740    1.3166   17.6010 C   0  0  0  0  0  0  0  0  0  0  0  0
    2.4730    0.0614   17.5835 C   0  0  0  0  0  0  0  0  0  0  0  0
    2.5341   -0.6916   18.7271 C   0  0  0  0  0  0  0  0  0  0  0  0
    3.1721   -0.2038   19.8400 C   0  0  0  0  0  0  0  0  0  0  0  0
    3.7644    1.0250   19.8739 N   0  0  0  0  0  0  0  0  0  0  0  0
    3.6964    1.7550   18.7457 C   0  0  0  0  0  0  0  0  0  0  0  0
    4.2291    2.8896   18.7631 O   0  0  0  0  0  0  0  0  0  0  0  0
    4.3982    1.4640   21.0668 C   0  0  0  0  0  0  0  0  0  0  0  0
    5.8058    1.3910   21.1175 C   0  0  0  0  0  0  0  0  0  0  0  0
    6.4725    1.7954   22.2470 C   0  0  0  0  0  0  0  0  0  0  0  0
    5.8488    2.2836   23.3747 C   0  0  0  0  0  0  0  0  0  0  0  0
    4.4554    2.3551   23.3232 C   0  0  0  0  0  0  0  0  0  0  0  0
    3.7681    1.9481   22.1814 C   0  0  0  0  0  0  0  0  0  0  0  0
 19 20  1  0  0  0
 20 21  2  0  0  0
 20 22  1  0  0  0
 22 23  1  0  0  0
 23 24  1  0  0  0
 24 25  1  0  0  0
 25 26  1  0  0  0
 26 27  1  0  0  0
 25  7  1  0  0  0
  7  8  2  0  0  0
  8  9  1  0  0  0
  9  1  1  0  0  0
  1  2  2  0  0  0
  2  3  1  0  0  0
  3  4  2  0  0  0
  4 28  1  0  0  0
 28 29  1  0  0  0
 29 30  2  0  0  0
 29 32  1  0  0  0
 32 33  2  0  0  0
 33 34  1  0  0  0
 34 35  2  0  0  0
 35 36  1  0  0  0
 36 39  1  0  0  0
 39 40  2  0  0  0
 40 41  1  0  0  0
 41 42  2  0  0  0
 42 43  1  0  0  0
 43 44  2  0  0  0
 36 37  1  0  0  0
 37 38  2  0  0  0
  4  5  1  0  0  0
  5  6  2  0  0  0
  9 10  2  0  0  0
 10 11  1  0  0  0
 11 12  1  0  0  0
 11 13  2  0  0  0
 13 14  1  0  0  0
 14 15  2  0  0  0
 15 16  1  0  0  0
 27 22  1  0  0  0
 16  7  1  0  0  0
  6  1  1  0  0  0
 16 10  1  0  0  0
 37 32  1  0  0  0
 44 39  1  0  0  0
 28 31  1  0  0  0
 12 17  1  0  0  0
 12 18  1  0  0  0
M  END
> <minimizedAffinity>
-9.19523

> <CNNscore>
0.1637090743

> <CNNaffinity>
6.1555466652

> <CNN_VS>
1.0077188015

> <CNNaffinity_variance>
0.1223808378

$$$$
[H]c1nc(N([H])[H])c2c(-c3c([H])c([H])c(N([H])C(=O)c4c([H])c([H])c([H])n(-c5c([H])c([H])c([H])c([H])c5[H])c4=O)c([H])c3[H])c([H])c(C3([H])C([H])([H])C([H])([H])N(C(=O)C([H])([H])[H])C([H])([H])C3([H])[H])n2n1


 44 49  0  0  0  0  0  0  0  0999 V2000
    3.0429    6.9641   12.2280 C   0  0  0  0  0  0  0  0  0  0  0  0
    3.6228    5.9495   12.9593 C   0  0  0  0  0  0  0  0  0  0  0  0
    3.7990    6.0982   14.3146 C   0  0  0  0  0  0  0  0  0  0  0  0
    3.4114    7.2520   15.0078 C   0  0  0  0  0  0  0  0  0  0  0  0
    2.8428    8.2352   14.2589 C   0  0  0  0  0  0  0  0  0  0  0  0
    2.6569    8.1006   12.8801 C   0  0  0  0  0  0  0  0  0  0  0  0
    1.9033    6.1897    8.8331 C   0  0  0  0  0  0  0  0  0  0  0  0
    1.7406    6.1795   10.2024 C   0  0  0  0  0  0  0  0  0  0  0  0
    2.8368    6.8167   10.7779 C   0  0  0  0  0  0  0  0  0  0  0  0
    3.6373    7.1990    9.7476 C   0  0  0  0  0  0  0  0  0  0  0  0
    4.8493    7.8764    9.7293 C   0  0  0  0  0  0  0  0  0  0  0  0
    5.4421    8.3094   10.9369 N   0  0  0  0  0  0  0  0  0  0  0  0
    5.4248    8.1288    8.5372 N   0  0  0  0  0  0  0  0  0  0  0  0
    4.8261    7.7290    7.4082 C   0  0  0  0  0  0  0  0  0  0  0  0
    3.6614    7.0790    7.3984 N   0  0  0  0  0  0  0  0  0  0  0  0
    3.0626    6.8123    8.5588 N   0  0  0  0  0  0  0  0  0  0  0  0
    6.3418    7.9732   11.3326 H   0  0  0  0  0  0  0  0  0  0  0  0
    4.9151    9.0474   11.4829 H   0  0  0  0  0  0  0  0  0  0  0  0
   -4.1565    6.7487    8.2398 C   0  0  0  0  0  0  0  0  0  0  0  0
   -2.9881    7.4803    7.7128 C   0  0  0  0  0  0  0  0  0  0  0  0
   -3.0882    8.6668    7.3668 O   0  0  0  0  0  0  0  0  0  0  0  0
   -1.7513    6.8138    7.6071 N   0  0  0  0  0  0  0  0  0  0  0  0
   -1.5755    5.4165    7.9953 C   0  0  0  0  0  0  0  0  0  0  0  0
   -0.3026    5.2695    8.7940 C   0  0  0  0  0  0  0  0  0  0  0  0
    0.9214    5.5854    7.8995 C   0  0  0  0  0  0  0  0  0  0  0  0
    0.4572    6.4104    6.7806 C   0  0  0  0  0  0  0  0  0  0  0  0
   -0.5538    7.4799    7.1076 C   0  0  0  0  0  0  0  0  0  0  0  0
    3.6363    7.3139   16.3892 N   0  0  0  0  0  0  0  0  0  0  0  0
    4.6262    8.0532   17.0735 C   0  0  0  0  0  0  0  0  0  0  0  0
    5.4433    8.7848   16.4454 O   0  0  0  0  0  0  0  0  0  0  0  0
    2.9734    6.7526   17.0267 H   0  0  0  0  0  0  0  0  0  0  0  0
    4.7767    8.0367   18.5295 C   0  0  0  0  0  0  0  0  0  0  0  0
    4.7173    9.2801   19.1519 C   0  0  0  0  0  0  0  0  0  0  0  0
    4.7632    9.3111   20.5214 C   0  0  0  0  0  0  0  0  0  0  0  0
    4.8638    8.1426   21.2342 C   0  0  0  0  0  0  0  0  0  0  0  0
    4.9249    6.9162   20.6390 N   0  0  0  0  0  0  0  0  0  0  0  0
    4.8805    6.8991   19.2943 C   0  0  0  0  0  0  0  0  0  0  0  0
    4.9434    5.7806   18.7320 O   0  0  0  0  0  0  0  0  0  0  0  0
    5.0375    5.7519   21.4447 C   0  0  0  0  0  0  0  0  0  0  0  0
    3.8794    5.3190   22.1234 C   0  0  0  0  0  0  0  0  0  0  0  0
    3.9299    4.2035   22.9215 C   0  0  0  0  0  0  0  0  0  0  0  0
    5.0662    3.4488   23.1172 C   0  0  0  0  0  0  0  0  0  0  0  0
    6.2118    3.8786   22.4448 C   0  0  0  0  0  0  0  0  0  0  0  0
    6.1721    5.0092   21.6313 C   0  0  0  0  0  0  0  0  0  0  0  0
 19 20  1  0  0  0
 20 21  2  0  0  0
 20 22  1  0  0  0
 22 23  1  0  0  0
 23 24  1  0  0  0
 24 25  1  0  0  0
 25 26  1  0  0  0
 26 27  1  0  0  0
 25  7  1  0  0  0
  7  8  2  0  0  0
  8  9  1  0  0  0
  9  1  1  0  0  0
  1  2  2  0  0  0
  2  3  1  0  0  0
  3  4  2  0  0  0
  4 28  1  0  0  0
 28 29  1  0  0  0
 29 30  2  0  0  0
 29 32  1  0  0  0
 32 33  2  0  0  0
 33 34  1  0  0  0
 34 35  2  0  0  0
 35 36  1  0  0  0
 36 39  1  0  0  0
 39 40  2  0  0  0
 40 41  1  0  0  0
 41 42  2  0  0  0
 42 43  1  0  0  0
 43 44  2  0  0  0
 36 37  1  0  0  0
 37 38  2  0  0  0
  4  5  1  0  0  0
  5  6  2  0  0  0
  9 10  2  0  0  0
 10 11  1  0  0  0
 11 12  1  0  0  0
 11 13  2  0  0  0
 13 14  1  0  0  0
 14 15  2  0  0  0
 15 16  1  0  0  0
 27 22  1  0  0  0
 16  7  1  0  0  0
  6  1  1  0  0  0
 16 10  1  0  0  0
 37 32  1  0  0  0
 44 39  1  0  0  0
 28 31  1  0  0  0
 12 17  1  0  0  0
 12 18  1  0  0  0
M  END
> <minimizedAffinity>
-8.67819

> <CNNscore>
0.1425292492

> <CNNaffinity>
6.0307254791

> <CNN_VS>
0.8595547676

> <CNNaffinity_variance>
0.8750122190

$$$$
[H]c1nc(N([H])[H])c2c(-c3c([H])c([H])c(N([H])C(=O)c4c([H])c([H])c([H])n(-c5c([H])c([H])c([H])c([H])c5[H])c4=O)c([H])c3[H])c([H])c(C3([H])C([H])([H])C([H])([H])N(C(=O)C([H])([H])[H])C([H])([H])C3([H])[H])n2n1


 44 49  0  0  0  0  0  0  0  0999 V2000
    2.3476    4.4493   12.3700 C   0  0  0  0  0  0  0  0  0  0  0  0
    3.6018    3.9627   12.6712 C   0  0  0  0  0  0  0  0  0  0  0  0
    4.0231    3.9215   13.9792 C   0  0  0  0  0  0  0  0  0  0  0  0
    3.2275    4.3574   15.0464 C   0  0  0  0  0  0  0  0  0  0  0  0
    1.9958    4.8325   14.7173 C   0  0  0  0  0  0  0  0  0  0  0  0
    1.5521    4.8820   13.3927 C   0  0  0  0  0  0  0  0  0  0  0  0
    1.4423    5.2811    8.9185 C   0  0  0  0  0  0  0  0  0  0  0  0
    2.0455    5.5775   10.1226 C   0  0  0  0  0  0  0  0  0  0  0  0
    1.8768    4.4901   10.9759 C   0  0  0  0  0  0  0  0  0  0  0  0
    1.1779    3.5605   10.2718 C   0  0  0  0  0  0  0  0  0  0  0  0
    0.7378    2.2889   10.6149 C   0  0  0  0  0  0  0  0  0  0  0  0
    1.0253    1.7557   11.8917 N   0  0  0  0  0  0  0  0  0  0  0  0
    0.0582    1.5757    9.6954 N   0  0  0  0  0  0  0  0  0  0  0  0
   -0.1763    2.0976    8.4847 C   0  0  0  0  0  0  0  0  0  0  0  0
    0.2372    3.3150    8.1297 N   0  0  0  0  0  0  0  0  0  0  0  0
    0.9130    4.0492    9.0131 N   0  0  0  0  0  0  0  0  0  0  0  0
    0.3312    1.5218   12.6282 H   0  0  0  0  0  0  0  0  0  0  0  0
    2.0458    1.5785   12.1099 H   0  0  0  0  0  0  0  0  0  0  0  0
    5.1999    9.7743    7.1642 C   0  0  0  0  0  0  0  0  0  0  0  0
    5.1364    8.3192    6.9260 C   0  0  0  0  0  0  0  0  0  0  0  0
    6.1596    7.6799    6.6396 O   0  0  0  0  0  0  0  0  0  0  0  0
    3.8954    7.6602    7.0288 N   0  0  0  0  0  0  0  0  0  0  0  0
    2.6574    8.3620    7.3588 C   0  0  0  0  0  0  0  0  0  0  0  0
    1.8841    7.5690    8.3847 C   0  0  0  0  0  0  0  0  0  0  0  0
    1.4215    6.2236    7.7731 C   0  0  0  0  0  0  0  0  0  0  0  0
    2.2967    5.9243    6.6362 C   0  0  0  0  0  0  0  0  0  0  0  0
    3.7631    6.2229    6.8194 C   0  0  0  0  0  0  0  0  0  0  0  0
    3.7451    4.2812   16.3460 N   0  0  0  0  0  0  0  0  0  0  0  0
    3.6400    3.2087   17.2589 C   0  0  0  0  0  0  0  0  0  0  0  0
    3.0342    2.1444   16.9463 O   0  0  0  0  0  0  0  0  0  0  0  0
    4.3119    5.1240   16.7058 H   0  0  0  0  0  0  0  0  0  0  0  0
    4.2160    3.2409   18.6042 C   0  0  0  0  0  0  0  0  0  0  0  0
    4.4188    1.9990   19.1988 C   0  0  0  0  0  0  0  0  0  0  0  0
    5.0379    1.9702   20.4213 C   0  0  0  0  0  0  0  0  0  0  0  0
    5.4363    3.1392   21.0197 C   0  0  0  0  0  0  0  0  0  0  0  0
    5.2431    4.3645   20.4509 N   0  0  0  0  0  0  0  0  0  0  0  0
    4.6331    4.3796   19.2517 C   0  0  0  0  0  0  0  0  0  0  0  0
    4.4413    5.4981   18.7193 O   0  0  0  0  0  0  0  0  0  0  0  0
    5.6756    5.5307   21.1366 C   0  0  0  0  0  0  0  0  0  0  0  0
    6.9475    5.4908   21.7447 C   0  0  0  0  0  0  0  0  0  0  0  0
    7.4154    6.5861   22.4266 C   0  0  0  0  0  0  0  0  0  0  0  0
    6.7118    7.7626   22.5675 C   0  0  0  0  0  0  0  0  0  0  0  0
    5.4528    7.8006   21.9652 C   0  0  0  0  0  0  0  0  0  0  0  0
    4.9678    6.6948   21.2697 C   0  0  0  0  0  0  0  0  0  0  0  0
 19 20  1  0  0  0
 20 21  2  0  0  0
 20 22  1  0  0  0
 22 23  1  0  0  0
 23 24  1  0  0  0
 24 25  1  0  0  0
 25 26  1  0  0  0
 26 27  1  0  0  0
 25  7  1  0  0  0
  7  8  2  0  0  0
  8  9  1  0  0  0
  9  1  1  0  0  0
  1  2  2  0  0  0
  2  3  1  0  0  0
  3  4  2  0  0  0
  4 28  1  0  0  0
 28 29  1  0  0  0
 29 30  2  0  0  0
 29 32  1  0  0  0
 32 33  2  0  0  0
 33 34  1  0  0  0
 34 35  2  0  0  0
 35 36  1  0  0  0
 36 39  1  0  0  0
 39 40  2  0  0  0
 40 41  1  0  0  0
 41 42  2  0  0  0
 42 43  1  0  0  0
 43 44  2  0  0  0
 36 37  1  0  0  0
 37 38  2  0  0  0
  4  5  1  0  0  0
  5  6  2  0  0  0
  9 10  2  0  0  0
 10 11  1  0  0  0
 11 12  1  0  0  0
 11 13  2  0  0  0
 13 14  1  0  0  0
 14 15  2  0  0  0
 15 16  1  0  0  0
 27 22  1  0  0  0
 16  7  1  0  0  0
  6  1  1  0  0  0
 16 10  1  0  0  0
 37 32  1  0  0  0
 44 39  1  0  0  0
 28 31  1  0  0  0
 12 17  1  0  0  0
 12 18  1  0  0  0
M  END
> <minimizedAffinity>
-8.47848

> <CNNscore>
0.1394678056

> <CNNaffinity>
6.2956910133

> <CNN_VS>
0.8780462146

> <CNNaffinity_variance>
0.6198877692

$$$$
[H]c1nc(N([H])[H])c2c(-c3c([H])c([H])c(N([H])C(=O)c4c([H])c([H])c([H])n(-c5c([H])c([H])c([H])c([H])c5[H])c4=O)c([H])c3[H])c([H])c(C3([H])C([H])([H])C([H])([H])N(C(=O)C([H])([H])[H])C([H])([H])C3([H])[H])n2n1


 44 49  0  0  0  0  0  0  0  0999 V2000
    3.3839    4.7013   12.3585 C   0  0  0  0  0  0  0  0  0  0  0  0
    3.6515    5.3865   13.5245 C   0  0  0  0  0  0  0  0  0  0  0  0
    3.5414    4.7447   14.7352 C   0  0  0  0  0  0  0  0  0  0  0  0
    3.1634    3.4008   14.8497 C   0  0  0  0  0  0  0  0  0  0  0  0
    2.9056    2.7519   13.6820 C   0  0  0  0  0  0  0  0  0  0  0  0
    3.0121    3.3896   12.4426 C   0  0  0  0  0  0  0  0  0  0  0  0
    4.4474    6.1997    9.1887 C   0  0  0  0  0  0  0  0  0  0  0  0
    4.6957    5.4731   10.3341 C   0  0  0  0  0  0  0  0  0  0  0  0
    3.5077    5.3705   11.0532 C   0  0  0  0  0  0  0  0  0  0  0  0
    2.5677    6.0345   10.3294 C   0  0  0  0  0  0  0  0  0  0  0  0
    1.2146    6.2474   10.5577 C   0  0  0  0  0  0  0  0  0  0  0  0
    0.5925    5.7096   11.7070 N   0  0  0  0  0  0  0  0  0  0  0  0
    0.5140    6.9523    9.6477 N   0  0  0  0  0  0  0  0  0  0  0  0
    1.1255    7.4271    8.5551 C   0  0  0  0  0  0  0  0  0  0  0  0
    2.4227    7.2347    8.3114 N   0  0  0  0  0  0  0  0  0  0  0  0
    3.1474    6.5415    9.1892 N   0  0  0  0  0  0  0  0  0  0  0  0
    0.1777    6.2524   12.4895 H   0  0  0  0  0  0  0  0  0  0  0  0
    0.5467    4.6539   11.7682 H   0  0  0  0  0  0  0  0  0  0  0  0
    9.5576    3.3060    7.4863 C   0  0  0  0  0  0  0  0  0  0  0  0
    8.1410    3.2423    7.0774 C   0  0  0  0  0  0  0  0  0  0  0  0
    7.6762    2.2131    6.5652 O   0  0  0  0  0  0  0  0  0  0  0  0
    7.3176    4.3681    7.2767 N   0  0  0  0  0  0  0  0  0  0  0  0
    7.8112    5.6078    7.8711 C   0  0  0  0  0  0  0  0  0  0  0  0
    6.8175    6.1110    8.8905 C   0  0  0  0  0  0  0  0  0  0  0  0
    5.4969    6.5113    8.1876 C   0  0  0  0  0  0  0  0  0  0  0  0
    5.4394    5.8027    6.9059 C   0  0  0  0  0  0  0  0  0  0  0  0
    5.9064    4.3692    6.9084 C   0  0  0  0  0  0  0  0  0  0  0  0
    3.0737    2.8340   16.1277 N   0  0  0  0  0  0  0  0  0  0  0  0
    3.3312    1.4969   16.5025 C   0  0  0  0  0  0  0  0  0  0  0  0
    3.7048    0.6420   15.6499 O   0  0  0  0  0  0  0  0  0  0  0  0
    2.7948    3.4832   16.9412 H   0  0  0  0  0  0  0  0  0  0  0  0
    3.1959    1.0084   17.8757 C   0  0  0  0  0  0  0  0  0  0  0  0
    2.3576   -0.0903   18.0408 C   0  0  0  0  0  0  0  0  0  0  0  0
    2.2667   -0.6414   19.2925 C   0  0  0  0  0  0  0  0  0  0  0  0
    2.9877   -0.1112   20.3329 C   0  0  0  0  0  0  0  0  0  0  0  0
    3.8123    0.9664   20.1879 N   0  0  0  0  0  0  0  0  0  0  0  0
    3.8918    1.4992   18.9549 C   0  0  0  0  0  0  0  0  0  0  0  0
    4.6392    2.4946   18.8068 O   0  0  0  0  0  0  0  0  0  0  0  0
    4.5194    1.4635   21.3149 C   0  0  0  0  0  0  0  0  0  0  0  0
    3.7558    1.9248   22.4073 C   0  0  0  0  0  0  0  0  0  0  0  0
    4.3847    2.4220   23.5214 C   0  0  0  0  0  0  0  0  0  0  0  0
    5.7532    2.5083   23.6577 C   0  0  0  0  0  0  0  0  0  0  0  0
    6.5078    2.0514   22.5755 C   0  0  0  0  0  0  0  0  0  0  0  0
    5.8802    1.5438   21.4396 C   0  0  0  0  0  0  0  0  0  0  0  0
 19 20  1  0  0  0
 20 21  2  0  0  0
 20 22  1  0  0  0
 22 23  1  0  0  0
 23 24  1  0  0  0
 24 25  1  0  0  0
 25 26  1  0  0  0
 26 27  1  0  0  0
 25  7  1  0  0  0
  7  8  2  0  0  0
  8  9  1  0  0  0
  9  1  1  0  0  0
  1  2  2  0  0  0
  2  3  1  0  0  0
  3  4  2  0  0  0
  4 28  1  0  0  0
 28 29  1  0  0  0
 29 30  2  0  0  0
 29 32  1  0  0  0
 32 33  2  0  0  0
 33 34  1  0  0  0
 34 35  2  0  0  0
 35 36  1  0  0  0
 36 39  1  0  0  0
 39 40  2  0  0  0
 40 41  1  0  0  0
 41 42  2  0  0  0
 42 43  1  0  0  0
 43 44  2  0  0  0
 36 37  1  0  0  0
 37 38  2  0  0  0
  4  5  1  0  0  0
  5  6  2  0  0  0
  9 10  2  0  0  0
 10 11  1  0  0  0
 11 12  1  0  0  0
 11 13  2  0  0  0
 13 14  1  0  0  0
 14 15  2  0  0  0
 15 16  1  0  0  0
 27 22  1  0  0  0
 16  7  1  0  0  0
  6  1  1  0  0  0
 16 10  1  0  0  0
 37 32  1  0  0  0
 44 39  1  0  0  0
 28 31  1  0  0  0
 12 17  1  0  0  0
 12 18  1  0  0  0
M  END
> <minimizedAffinity>
-8.74503

> <CNNscore>
0.1315455884

> <CNNaffinity>
6.4741468430

> <CNN_VS>
0.8516454697

> <CNNaffinity_variance>
0.3374895453

$$$$
[H]c1nc(N([H])[H])c2c(-c3c([H])c([H])c(N([H])C(=O)c4c([H])c([H])c([H])n(-c5c([H])c([H])c([H])c([H])c5[H])c4=O)c([H])c3[H])c([H])c(C3([H])C([H])([H])C([H])([H])N(C(=O)C([H])([H])[H])C([H])([H])C3([H])[H])n2n1


 44 49  0  0  0  0  0  0  0  0999 V2000
    3.1540    7.5230   12.5731 C   0  0  0  0  0  0  0  0  0  0  0  0
    3.4359    6.3690   13.2727 C   0  0  0  0  0  0  0  0  0  0  0  0
    3.6168    6.4221   14.6345 C   0  0  0  0  0  0  0  0  0  0  0  0
    3.5278    7.6135   15.3656 C   0  0  0  0  0  0  0  0  0  0  0  0
    3.2490    8.7349   14.6474 C   0  0  0  0  0  0  0  0  0  0  0  0
    3.0629    8.6987   13.2626 C   0  0  0  0  0  0  0  0  0  0  0  0
    1.8902    7.3251    9.1399 C   0  0  0  0  0  0  0  0  0  0  0  0
    1.6997    7.3838   10.5043 C   0  0  0  0  0  0  0  0  0  0  0  0
    2.9466    7.4820   11.1164 C   0  0  0  0  0  0  0  0  0  0  0  0
    3.8630    7.4816   10.1121 C   0  0  0  0  0  0  0  0  0  0  0  0
    5.2489    7.5669   10.1341 C   0  0  0  0  0  0  0  0  0  0  0  0
    5.9355    7.6980   11.3623 N   0  0  0  0  0  0  0  0  0  0  0  0
    5.9111    7.5471    8.9606 N   0  0  0  0  0  0  0  0  0  0  0  0
    5.2313    7.4483    7.8113 C   0  0  0  0  0  0  0  0  0  0  0  0
    3.9008    7.3672    7.7629 N   0  0  0  0  0  0  0  0  0  0  0  0
    3.2122    7.3843    8.9038 N   0  0  0  0  0  0  0  0  0  0  0  0
    6.5889    7.0045   11.7758 H   0  0  0  0  0  0  0  0  0  0  0  0
    5.7645    8.5905   11.9052 H   0  0  0  0  0  0  0  0  0  0  0  0
    1.5781    7.8616    3.0571 C   0  0  0  0  0  0  0  0  0  0  0  0
    1.8688    6.7556    3.9900 C   0  0  0  0  0  0  0  0  0  0  0  0
    2.5485    5.7840    3.6269 O   0  0  0  0  0  0  0  0  0  0  0  0
    1.3645    6.8154    5.3042 N   0  0  0  0  0  0  0  0  0  0  0  0
    0.5553    7.9322    5.7857 C   0  0  0  0  0  0  0  0  0  0  0  0
    1.0306    8.3472    7.1573 C   0  0  0  0  0  0  0  0  0  0  0  0
    0.7710    7.2076    8.1733 C   0  0  0  0  0  0  0  0  0  0  0  0
    0.6567    5.9549    7.4212 C   0  0  0  0  0  0  0  0  0  0  0  0
    1.6246    5.7642    6.2811 C   0  0  0  0  0  0  0  0  0  0  0  0
    3.7327    7.5693   16.7508 N   0  0  0  0  0  0  0  0  0  0  0  0
    4.8486    8.0407   17.4770 C   0  0  0  0  0  0  0  0  0  0  0  0
    5.8210    8.5948   16.8897 O   0  0  0  0  0  0  0  0  0  0  0  0
    2.9484    7.1461   17.3564 H   0  0  0  0  0  0  0  0  0  0  0  0
    4.9619    7.9339   18.9325 C   0  0  0  0  0  0  0  0  0  0  0  0
    4.9518    9.1415   19.6243 C   0  0  0  0  0  0  0  0  0  0  0  0
    4.9653    9.0925   20.9940 C   0  0  0  0  0  0  0  0  0  0  0  0
    4.9876    7.8819   21.6400 C   0  0  0  0  0  0  0  0  0  0  0  0
    4.9998    6.6896   20.9765 N   0  0  0  0  0  0  0  0  0  0  0  0
    4.9877    6.7510   19.6324 C   0  0  0  0  0  0  0  0  0  0  0  0
    5.0064    5.6643   19.0079 O   0  0  0  0  0  0  0  0  0  0  0  0
    5.0319    5.4773   21.7158 C   0  0  0  0  0  0  0  0  0  0  0  0
    3.8565    5.1043   22.4004 C   0  0  0  0  0  0  0  0  0  0  0  0
    3.8308    3.9461   23.1363 C   0  0  0  0  0  0  0  0  0  0  0  0
    4.9039    3.0907   23.2619 C   0  0  0  0  0  0  0  0  0  0  0  0
    6.0667    3.4613   22.5838 C   0  0  0  0  0  0  0  0  0  0  0  0
    6.1042    4.6345   21.8329 C   0  0  0  0  0  0  0  0  0  0  0  0
 19 20  1  0  0  0
 20 21  2  0  0  0
 20 22  1  0  0  0
 22 23  1  0  0  0
 23 24  1  0  0  0
 24 25  1  0  0  0
 25 26  1  0  0  0
 26 27  1  0  0  0
 25  7  1  0  0  0
  7  8  2  0  0  0
  8  9  1  0  0  0
  9  1  1  0  0  0
  1  2  2  0  0  0
  2  3  1  0  0  0
  3  4  2  0  0  0
  4 28  1  0  0  0
 28 29  1  0  0  0
 29 30  2  0  0  0
 29 32  1  0  0  0
 32 33  2  0  0  0
 33 34  1  0  0  0
 34 35  2  0  0  0
 35 36  1  0  0  0
 36 39  1  0  0  0
 39 40  2  0  0  0
 40 41  1  0  0  0
 41 42  2  0  0  0
 42 43  1  0  0  0
 43 44  2  0  0  0
 36 37  1  0  0  0
 37 38  2  0  0  0
  4  5  1  0  0  0
  5  6  2  0  0  0
  9 10  2  0  0  0
 10 11  1  0  0  0
 11 12  1  0  0  0
 11 13  2  0  0  0
 13 14  1  0  0  0
 14 15  2  0  0  0
 15 16  1  0  0  0
 27 22  1  0  0  0
 16  7  1  0  0  0
  6  1  1  0  0  0
 16 10  1  0  0  0
 37 32  1  0  0  0
 44 39  1  0  0  0
 28 31  1  0  0  0
 12 17  1  0  0  0
 12 18  1  0  0  0
M  END
> <minimizedAffinity>
-8.57908

> <CNNscore>
0.1160003394

> <CNNaffinity>
5.6119070053

> <CNN_VS>
0.6509830952

> <CNNaffinity_variance>
0.6445277929

$$$$
[H]c1nc(N([H])[H])c2c(-c3c([H])c([H])c(N([H])C(=O)c4c([H])c([H])c([H])n(-c5c([H])c([H])c([H])c([H])c5[H])c4=O)c([H])c3[H])c([H])c(C3([H])C([H])([H])C([H])([H])N(C(=O)C([H])([H])[H])C([H])([H])C3([H])[H])n2n1


 44 49  0  0  0  0  0  0  0  0999 V2000
    3.2007    6.8539   12.5546 C   0  0  0  0  0  0  0  0  0  0  0  0
    3.3903    5.7292   13.3289 C   0  0  0  0  0  0  0  0  0  0  0  0
    3.5673    5.8558   14.6864 C   0  0  0  0  0  0  0  0  0  0  0  0
    3.5650    7.0950   15.3394 C   0  0  0  0  0  0  0  0  0  0  0  0
    3.3760    8.1858   14.5485 C   0  0  0  0  0  0  0  0  0  0  0  0
    3.1952    8.0750   13.1669 C   0  0  0  0  0  0  0  0  0  0  0  0
    3.4742    6.5932    8.9103 C   0  0  0  0  0  0  0  0  0  0  0  0
    4.0305    6.6436   10.1710 C   0  0  0  0  0  0  0  0  0  0  0  0
    2.9986    6.7354   11.1013 C   0  0  0  0  0  0  0  0  0  0  0  0
    1.8424    6.7376   10.3861 C   0  0  0  0  0  0  0  0  0  0  0  0
    0.5146    6.8012   10.7878 C   0  0  0  0  0  0  0  0  0  0  0  0
    0.1876    6.8594   12.1615 N   0  0  0  0  0  0  0  0  0  0  0  0
   -0.4436    6.7798    9.8405 N   0  0  0  0  0  0  0  0  0  0  0  0
   -0.1037    6.6978    8.5479 C   0  0  0  0  0  0  0  0  0  0  0  0
    1.1634    6.6334    8.1362 N   0  0  0  0  0  0  0  0  0  0  0  0
    2.1380    6.6515    9.0451 N   0  0  0  0  0  0  0  0  0  0  0  0
   -0.2713    7.6537   12.6487 H   0  0  0  0  0  0  0  0  0  0  0  0
    0.4345    6.0090   12.7414 H   0  0  0  0  0  0  0  0  0  0  0  0
    9.1918    4.7187    7.8239 C   0  0  0  0  0  0  0  0  0  0  0  0
    7.8757    4.0548    7.8958 C   0  0  0  0  0  0  0  0  0  0  0  0
    7.7900    2.8483    8.1688 O   0  0  0  0  0  0  0  0  0  0  0  0
    6.7116    4.8098    7.6507 N   0  0  0  0  0  0  0  0  0  0  0  0
    6.7521    6.2323    7.3208 C   0  0  0  0  0  0  0  0  0  0  0  0
    5.6969    6.9658    8.1134 C   0  0  0  0  0  0  0  0  0  0  0  0
    4.2870    6.5005    7.6728 C   0  0  0  0  0  0  0  0  0  0  0  0
    4.4250    5.1798    7.0526 C   0  0  0  0  0  0  0  0  0  0  0  0
    5.3791    4.2207    7.7181 C   0  0  0  0  0  0  0  0  0  0  0  0
    3.7584    7.1244   16.7266 N   0  0  0  0  0  0  0  0  0  0  0  0
    4.9231    7.5012   17.4311 C   0  0  0  0  0  0  0  0  0  0  0  0
    5.9599    7.8839   16.8180 O   0  0  0  0  0  0  0  0  0  0  0  0
    2.9248    6.8486   17.3510 H   0  0  0  0  0  0  0  0  0  0  0  0
    5.0175    7.4853   18.8918 C   0  0  0  0  0  0  0  0  0  0  0  0
    5.0283    8.7347   19.5049 C   0  0  0  0  0  0  0  0  0  0  0  0
    5.0253    8.7733   20.8750 C   0  0  0  0  0  0  0  0  0  0  0  0
    5.0115    7.6065   21.5972 C   0  0  0  0  0  0  0  0  0  0  0  0
    5.0028    6.3741   21.0113 N   0  0  0  0  0  0  0  0  0  0  0  0
    5.0073    6.3495   19.6661 C   0  0  0  0  0  0  0  0  0  0  0  0
    5.0072    5.2248   19.1125 O   0  0  0  0  0  0  0  0  0  0  0  0
    4.9978    5.2112   21.8269 C   0  0  0  0  0  0  0  0  0  0  0  0
    3.8275    4.9439   22.5673 C   0  0  0  0  0  0  0  0  0  0  0  0
    3.7673    3.8378   23.3776 C   0  0  0  0  0  0  0  0  0  0  0  0
    4.7999    2.9377   23.5282 C   0  0  0  0  0  0  0  0  0  0  0  0
    5.9577    3.2037   22.7948 C   0  0  0  0  0  0  0  0  0  0  0  0
    6.0299    4.3233   21.9683 C   0  0  0  0  0  0  0  0  0  0  0  0
 19 20  1  0  0  0
 20 21  2  0  0  0
 20 22  1  0  0  0
 22 23  1  0  0  0
 23 24  1  0  0  0
 24 25  1  0  0  0
 25 26  1  0  0  0
 26 27  1  0  0  0
 25  7  1  0  0  0
  7  8  2  0  0  0
  8  9  1  0  0  0
  9  1  1  0  0  0
  1  2  2  0  0  0
  2  3  1  0  0  0
  3  4  2  0  0  0
  4 28  1  0  0  0
 28 29  1  0  0  0
 29 30  2  0  0  0
 29 32  1  0  0  0
 32 33  2  0  0  0
 33 34  1  0  0  0
 34 35  2  0  0  0
 35 36  1  0  0  0
 36 39  1  0  0  0
 39 40  2  0  0  0
 40 41  1  0  0  0
 41 42  2  0  0  0
 42 43  1  0  0  0
 43 44  2  0  0  0
 36 37  1  0  0  0
 37 38  2  0  0  0
  4  5  1  0  0  0
  5  6  2  0  0  0
  9 10  2  0  0  0
 10 11  1  0  0  0
 11 12  1  0  0  0
 11 13  2  0  0  0
 13 14  1  0  0  0
 14 15  2  0  0  0
 15 16  1  0  0  0
 27 22  1  0  0  0
 16  7  1  0  0  0
  6  1  1  0  0  0
 16 10  1  0  0  0
 37 32  1  0  0  0
 44 39  1  0  0  0
 28 31  1  0  0  0
 12 17  1  0  0  0
 12 18  1  0  0  0
M  END
> <minimizedAffinity>
-8.72056

> <CNNscore>
0.1017618552

> <CNNaffinity>
6.0415315628

> <CNN_VS>
0.6147974730

> <CNNaffinity_variance>
0.8926268816

$$$$
[H]c1nc(N([H])[H])c2c(-c3c([H])c([H])c(N([H])C(=O)c4c([H])c([H])c([H])n(-c5c([H])c([H])c([H])c([H])c5[H])c4=O)c([H])c3[H])c([H])c(C3([H])C([H])([H])C([H])([H])N(C(=O)C([H])([H])[H])C([H])([H])C3([H])[H])n2n1


 44 49  0  0  0  0  0  0  0  0999 V2000
    3.7926    4.4852   17.2146 C   0  0  0  0  0  0  0  0  0  0  0  0
    4.5081    4.2250   16.0652 C   0  0  0  0  0  0  0  0  0  0  0  0
    3.9317    4.4453   14.8367 C   0  0  0  0  0  0  0  0  0  0  0  0
    2.6266    4.9313   14.6873 C   0  0  0  0  0  0  0  0  0  0  0  0
    1.9462    5.1780   15.8394 C   0  0  0  0  0  0  0  0  0  0  0  0
    2.5169    4.9590   17.0965 C   0  0  0  0  0  0  0  0  0  0  0  0
    5.4831    4.6926   20.4586 C   0  0  0  0  0  0  0  0  0  0  0  0
    4.9815    5.2672   19.3097 C   0  0  0  0  0  0  0  0  0  0  0  0
    4.3986    4.2654   18.5380 C   0  0  0  0  0  0  0  0  0  0  0  0
    4.5583    3.1088   19.2345 C   0  0  0  0  0  0  0  0  0  0  0  0
    4.1685    1.8062   18.9525 C   0  0  0  0  0  0  0  0  0  0  0  0
    3.4575    1.5160   17.7662 N   0  0  0  0  0  0  0  0  0  0  0  0
    4.4623    0.8413   19.8462 N   0  0  0  0  0  0  0  0  0  0  0  0
    5.1142    1.1512   20.9741 C   0  0  0  0  0  0  0  0  0  0  0  0
    5.4975    2.3942   21.2694 N   0  0  0  0  0  0  0  0  0  0  0  0
    5.2236    3.3745   20.4092 N   0  0  0  0  0  0  0  0  0  0  0  0
    3.7944    0.9290   16.9782 H   0  0  0  0  0  0  0  0  0  0  0  0
    2.4905    1.9381   17.6807 H   0  0  0  0  0  0  0  0  0  0  0  0
    7.8077   10.3461   20.5945 C   0  0  0  0  0  0  0  0  0  0  0  0
    6.4807    9.7605   20.8670 C   0  0  0  0  0  0  0  0  0  0  0  0
    5.4530   10.4465   20.7623 O   0  0  0  0  0  0  0  0  0  0  0  0
    6.3928    8.4070   21.2483 N   0  0  0  0  0  0  0  0  0  0  0  0
    7.5690    7.5526   21.3917 C   0  0  0  0  0  0  0  0  0  0  0  0
    7.3042    6.2144   20.7446 C   0  0  0  0  0  0  0  0  0  0  0  0
    6.1827    5.4702   21.5105 C   0  0  0  0  0  0  0  0  0  0  0  0
    5.4013    6.4705   22.2433 C   0  0  0  0  0  0  0  0  0  0  0  0
    5.1134    7.7613   21.5194 C   0  0  0  0  0  0  0  0  0  0  0  0
    2.1230    5.1194   13.3936 N   0  0  0  0  0  0  0  0  0  0  0  0
    1.6944    6.3260   12.7977 C   0  0  0  0  0  0  0  0  0  0  0  0
    1.7476    7.4193   13.4295 O   0  0  0  0  0  0  0  0  0  0  0  0
    2.0652    4.2557   12.7519 H   0  0  0  0  0  0  0  0  0  0  0  0
    1.1738    6.4056   11.4319 C   0  0  0  0  0  0  0  0  0  0  0  0
   -0.1279    5.9442   11.2592 C   0  0  0  0  0  0  0  0  0  0  0  0
   -0.6936    6.0794   10.0181 C   0  0  0  0  0  0  0  0  0  0  0  0
    0.0183    6.6540    8.9952 C   0  0  0  0  0  0  0  0  0  0  0  0
    1.2956    7.1095    9.1477 N   0  0  0  0  0  0  0  0  0  0  0  0
    1.8402    6.9698   10.3701 C   0  0  0  0  0  0  0  0  0  0  0  0
    3.0159    7.3763   10.5246 O   0  0  0  0  0  0  0  0  0  0  0  0
    1.9709    7.6847    8.0385 C   0  0  0  0  0  0  0  0  0  0  0  0
    2.4881    6.8033    7.0664 C   0  0  0  0  0  0  0  0  0  0  0  0
    3.1558    7.3018    5.9758 C   0  0  0  0  0  0  0  0  0  0  0  0
    3.3669    8.6449    5.7512 C   0  0  0  0  0  0  0  0  0  0  0  0
    2.8545    9.5162    6.7143 C   0  0  0  0  0  0  0  0  0  0  0  0
    2.1743    9.0215    7.8253 C   0  0  0  0  0  0  0  0  0  0  0  0
 19 20  1  0  0  0
 20 21  2  0  0  0
 20 22  1  0  0  0
 22 23  1  0  0  0
 23 24  1  0  0  0
 24 25  1  0  0  0
 25 26  1  0  0  0
 26 27  1  0  0  0
 25  7  1  0  0  0
  7  8  2  0  0  0
  8  9  1  0  0  0
  9  1  1  0  0  0
  1  2  2  0  0  0
  2  3  1  0  0  0
  3  4  2  0  0  0
  4 28  1  0  0  0
 28 29  1  0  0  0
 29 30  2  0  0  0
 29 32  1  0  0  0
 32 33  2  0  0  0
 33 34  1  0  0  0
 34 35  2  0  0  0
 35 36  1  0  0  0
 36 39  1  0  0  0
 39 40  2  0  0  0
 40 41  1  0  0  0
 41 42  2  0  0  0
 42 43  1  0  0  0
 43 44  2  0  0  0
 36 37  1  0  0  0
 37 38  2  0  0  0
  4  5  1  0  0  0
  5  6  2  0  0  0
  9 10  2  0  0  0
 10 11  1  0  0  0
 11 12  1  0  0  0
 11 13  2  0  0  0
 13 14  1  0  0  0
 14 15  2  0  0  0
 15 16  1  0  0  0
 27 22  1  0  0  0
 16  7  1  0  0  0
  6  1  1  0  0  0
 16 10  1  0  0  0
 37 32  1  0  0  0
 44 39  1  0  0  0
 28 31  1  0  0  0
 12 17  1  0  0  0
 12 18  1  0  0  0
M  END
> <minimizedAffinity>
-9.11791

> <CNNscore>
0.0840028897

> <CNNaffinity>
6.4983682632

> <CNN_VS>
0.5458816886

> <CNNaffinity_variance>
0.6239818335

$$$$
[H]c1nc2c([H])c([H])c([H])c([H])n2c1C#Cc1c([H])c(C(=O)N([H])c2c([H])c([H])c(C([H])([H])N3C([H])([H])C([H])([H])N(C([H])([H])[H])C([H])([H])C3([H])[H])c(C(F)(F)F)c2[H])c([H])c([H])c1C([H])([H])[H]


 40 44  0  0  0  0  0  0  0  0999 V2000
    3.9867    2.6804   17.4172 N   0  0  0  0  0  0  0  0  0  0  0  0
    3.7635    1.6985   18.3758 C   0  0  0  0  0  0  0  0  0  0  0  0
    3.1479    0.6481   18.1047 O   0  0  0  0  0  0  0  0  0  0  0  0
    4.5305    3.5413   17.7564 H   0  0  0  0  0  0  0  0  0  0  0  0
    4.2263    1.8154   19.7596 C   0  0  0  0  0  0  0  0  0  0  0  0
    3.9376    0.8670   20.7131 C   0  0  0  0  0  0  0  0  0  0  0  0
    4.3578    0.9535   22.0395 C   0  0  0  0  0  0  0  0  0  0  0  0
    5.1023    2.0592   22.3902 C   0  0  0  0  0  0  0  0  0  0  0  0
    5.6043    2.2525   23.7850 C   0  0  0  0  0  0  0  0  0  0  0  0
    5.4209    3.0452   21.4645 C   0  0  0  0  0  0  0  0  0  0  0  0
    4.9745    2.8977   20.1730 C   0  0  0  0  0  0  0  0  0  0  0  0
    6.1987    4.2017   21.8278 C   0  0  0  0  0  0  0  0  0  0  0  0
    6.8601    5.1748   22.1191 C   0  0  0  0  0  0  0  0  0  0  0  0
    7.6586    6.3361   22.4435 C   0  0  0  0  0  0  0  0  0  0  0  0
    7.1462    7.5757   22.6956 C   0  0  0  0  0  0  0  0  0  0  0  0
    8.1943    8.3699   22.9518 N   0  0  0  0  0  0  0  0  0  0  0  0
    9.3306    7.6622   22.8659 C   0  0  0  0  0  0  0  0  0  0  0  0
   10.6705    7.9613   23.0276 C   0  0  0  0  0  0  0  0  0  0  0  0
   11.6602    7.0376   22.8816 C   0  0  0  0  0  0  0  0  0  0  0  0
   11.2968    5.7521   22.5585 C   0  0  0  0  0  0  0  0  0  0  0  0
    9.9690    5.4554   22.3983 C   0  0  0  0  0  0  0  0  0  0  0  0
    8.9956    6.4035   22.5511 N   0  0  0  0  0  0  0  0  0  0  0  0
    2.8806    2.9110   13.2909 C   0  0  0  0  0  0  0  0  0  0  0  0
    2.7634    1.7324   13.9977 C   0  0  0  0  0  0  0  0  0  0  0  0
    3.1134    1.6292   15.3539 C   0  0  0  0  0  0  0  0  0  0  0  0
    3.5952    2.7011   16.0552 C   0  0  0  0  0  0  0  0  0  0  0  0
    3.7073    3.8799   15.3276 C   0  0  0  0  0  0  0  0  0  0  0  0
    3.3656    3.9945   13.9914 C   0  0  0  0  0  0  0  0  0  0  0  0
    3.5373    5.3016   13.3152 C   0  0  0  0  0  0  0  0  0  0  0  0
    2.4014    5.8791   12.8522 F   0  0  0  0  0  0  0  0  0  0  0  0
    4.5772    5.2778   12.3724 F   0  0  0  0  0  0  0  0  0  0  0  0
    4.0307    6.2223   14.2709 F   0  0  0  0  0  0  0  0  0  0  0  0
    2.5420    3.0611   11.8796 C   0  0  0  0  0  0  0  0  0  0  0  0
    2.2438    3.5203    7.8603 C   0  0  0  0  0  0  0  0  0  0  0  0
    1.2522    2.8473    8.6449 N   0  0  0  0  0  0  0  0  0  0  0  0
    0.3188    3.6800    9.3172 C   0  0  0  0  0  0  0  0  0  0  0  0
    0.6529    4.0226   10.7398 C   0  0  0  0  0  0  0  0  0  0  0  0
    1.1592    2.9395   11.5192 N   0  0  0  0  0  0  0  0  0  0  0  0
    1.0140    1.7226   10.7443 C   0  0  0  0  0  0  0  0  0  0  0  0
    1.7342    1.7656    9.4374 C   0  0  0  0  0  0  0  0  0  0  0  0
 34 35  1  0  0  0
 35 36  1  0  0  0
 36 37  1  0  0  0
 37 38  1  0  0  0
 38 33  1  0  0  0
 33 23  1  0  0  0
 23 24  2  0  0  0
 24 25  1  0  0  0
 25 26  2  0  0  0
 26  1  1  0  0  0
  1  2  1  0  0  0
  2  3  2  0  0  0
  2  5  1  0  0  0
  5  6  2  0  0  0
  6  7  1  0  0  0
  7  8  2  0  0  0
  8  9  1  0  0  0
  8 10  1  0  0  0
 10 11  2  0  0  0
 10 12  1  0  0  0
 12 13  3  0  0  0
 13 14  1  0  0  0
 14 15  2  0  0  0
 15 16  1  0  0  0
 16 17  2  0  0  0
 17 18  1  0  0  0
 18 19  2  0  0  0
 19 20  1  0  0  0
 20 21  2  0  0  0
 21 22  1  0  0  0
 26 27  1  0  0  0
 27 28  2  0  0  0
 28 29  1  0  0  0
 29 30  1  0  0  0
 29 31  1  0  0  0
 29 32  1  0  0  0
 38 39  1  0  0  0
 39 40  1  0  0  0
 40 35  1  0  0  0
 28 23  1  0  0  0
 11  5  1  0  0  0
 22 14  1  0  0  0
 22 17  1  0  0  0
  1  4  1  0  0  0
M  END
> <minimizedAffinity>
-9.09282

> <CNNscore>
0.4081421196

> <CNNaffinity>
6.6831579208

> <CNN_VS>
2.7276782990

> <CNNaffinity_variance>
0.1417104453

$$$$
[H]c1nc2c([H])c([H])c([H])c([H])n2c1C#Cc1c([H])c(C(=O)N([H])c2c([H])c([H])c(C([H])([H])N3C([H])([H])C([H])([H])N(C([H])([H])[H])C([H])([H])C3([H])[H])c(C(F)(F)F)c2[H])c([H])c([H])c1C([H])([H])[H]


 40 44  0  0  0  0  0  0  0  0999 V2000
    3.7412    3.0719   15.7042 N   0  0  0  0  0  0  0  0  0  0  0  0
    3.5686    1.8900   16.4156 C   0  0  0  0  0  0  0  0  0  0  0  0
    3.2141    0.8344   15.8537 O   0  0  0  0  0  0  0  0  0  0  0  0
    4.0521    3.9191   16.2851 H   0  0  0  0  0  0  0  0  0  0  0  0
    3.7862    1.7897   17.8597 C   0  0  0  0  0  0  0  0  0  0  0  0
    3.3417    0.7167   18.5966 C   0  0  0  0  0  0  0  0  0  0  0  0
    3.5274    0.5958   19.9729 C   0  0  0  0  0  0  0  0  0  0  0  0
    4.1960    1.6205   20.6075 C   0  0  0  0  0  0  0  0  0  0  0  0
    4.4501    1.5933   22.0804 C   0  0  0  0  0  0  0  0  0  0  0  0
    4.6651    2.7259   19.9084 C   0  0  0  0  0  0  0  0  0  0  0  0
    4.4478    2.7818   18.5524 C   0  0  0  0  0  0  0  0  0  0  0  0
    5.3642    3.7983   20.5686 C   0  0  0  0  0  0  0  0  0  0  0  0
    5.9582    4.6902   21.1349 C   0  0  0  0  0  0  0  0  0  0  0  0
    6.6769    5.7377   21.8263 C   0  0  0  0  0  0  0  0  0  0  0  0
    7.8584    5.5544   22.4843 C   0  0  0  0  0  0  0  0  0  0  0  0
    8.1973    6.7494   22.9867 N   0  0  0  0  0  0  0  0  0  0  0  0
    7.2663    7.6583   22.6604 C   0  0  0  0  0  0  0  0  0  0  0  0
    7.1069    9.0095   22.9050 C   0  0  0  0  0  0  0  0  0  0  0  0
    6.0417    9.7256   22.4503 C   0  0  0  0  0  0  0  0  0  0  0  0
    5.0882    9.0625   21.7154 C   0  0  0  0  0  0  0  0  0  0  0  0
    5.2461    7.7234   21.4729 C   0  0  0  0  0  0  0  0  0  0  0  0
    6.3264    7.0289   21.9421 N   0  0  0  0  0  0  0  0  0  0  0  0
    3.0587    3.6809   11.5249 C   0  0  0  0  0  0  0  0  0  0  0  0
    3.9533    4.4635   12.2246 C   0  0  0  0  0  0  0  0  0  0  0  0
    4.2013    4.2824   13.5951 C   0  0  0  0  0  0  0  0  0  0  0  0
    3.5631    3.3118   14.3187 C   0  0  0  0  0  0  0  0  0  0  0  0
    2.6651    2.5333   13.5981 C   0  0  0  0  0  0  0  0  0  0  0  0
    2.4122    2.7016   12.2480 C   0  0  0  0  0  0  0  0  0  0  0  0
    1.4247    1.8173   11.5860 C   0  0  0  0  0  0  0  0  0  0  0  0
    0.7174    1.0042   12.4086 F   0  0  0  0  0  0  0  0  0  0  0  0
    1.9690    1.1531   10.4755 F   0  0  0  0  0  0  0  0  0  0  0  0
    0.4431    2.6397   10.9822 F   0  0  0  0  0  0  0  0  0  0  0  0
    2.7600    3.8414   10.1057 C   0  0  0  0  0  0  0  0  0  0  0  0
    1.5996    3.6424    6.2239 C   0  0  0  0  0  0  0  0  0  0  0  0
    1.4061    4.8051    7.0380 N   0  0  0  0  0  0  0  0  0  0  0  0
    2.5319    5.6582    7.1836 C   0  0  0  0  0  0  0  0  0  0  0  0
    3.3783    5.4235    8.4008 C   0  0  0  0  0  0  0  0  0  0  0  0
    2.6511    5.1807    9.6046 N   0  0  0  0  0  0  0  0  0  0  0  0
    1.2485    5.4371    9.3411 C   0  0  0  0  0  0  0  0  0  0  0  0
    0.6881    4.5873    8.2494 C   0  0  0  0  0  0  0  0  0  0  0  0
 34 35  1  0  0  0
 35 36  1  0  0  0
 36 37  1  0  0  0
 37 38  1  0  0  0
 38 33  1  0  0  0
 33 23  1  0  0  0
 23 24  2  0  0  0
 24 25  1  0  0  0
 25 26  2  0  0  0
 26  1  1  0  0  0
  1  2  1  0  0  0
  2  3  2  0  0  0
  2  5  1  0  0  0
  5  6  2  0  0  0
  6  7  1  0  0  0
  7  8  2  0  0  0
  8  9  1  0  0  0
  8 10  1  0  0  0
 10 11  2  0  0  0
 10 12  1  0  0  0
 12 13  3  0  0  0
 13 14  1  0  0  0
 14 15  2  0  0  0
 15 16  1  0  0  0
 16 17  2  0  0  0
 17 18  1  0  0  0
 18 19  2  0  0  0
 19 20  1  0  0  0
 20 21  2  0  0  0
 21 22  1  0  0  0
 26 27  1  0  0  0
 27 28  2  0  0  0
 28 29  1  0  0  0
 29 30  1  0  0  0
 29 31  1  0  0  0
 29 32  1  0  0  0
 38 39  1  0  0  0
 39 40  1  0  0  0
 40 35  1  0  0  0
 28 23  1  0  0  0
 11  5  1  0  0  0
 22 14  1  0  0  0
 22 17  1  0  0  0
  1  4  1  0  0  0
M  END
> <minimizedAffinity>
-8.58131

> <CNNscore>
0.3530877531

> <CNNaffinity>
6.4837241173

> <CNN_VS>
2.2893235683

> <CNNaffinity_variance>
0.2741019726

$$$$
[H]c1nc2c([H])c([H])c([H])c([H])n2c1C#Cc1c([H])c(C(=O)N([H])c2c([H])c([H])c(C([H])([H])N3C([H])([H])C([H])([H])N(C([H])([H])[H])C([H])([H])C3([H])[H])c(C(F)(F)F)c2[H])c([H])c([H])c1C([H])([H])[H]


 40 44  0  0  0  0  0  0  0  0999 V2000
    3.6015    3.0661   16.4283 N   0  0  0  0  0  0  0  0  0  0  0  0
    3.5801    2.1168   17.4438 C   0  0  0  0  0  0  0  0  0  0  0  0
    2.9616    1.0408   17.3201 O   0  0  0  0  0  0  0  0  0  0  0  0
    4.1674    3.9536   16.6381 H   0  0  0  0  0  0  0  0  0  0  0  0
    4.2718    2.2999   18.7209 C   0  0  0  0  0  0  0  0  0  0  0  0
    4.6851    1.2378   19.4911 C   0  0  0  0  0  0  0  0  0  0  0  0
    5.3393    1.3797   20.7138 C   0  0  0  0  0  0  0  0  0  0  0  0
    5.5737    2.6648   21.1537 C   0  0  0  0  0  0  0  0  0  0  0  0
    6.2677    2.9321   22.4505 C   0  0  0  0  0  0  0  0  0  0  0  0
    5.1763    3.7711   20.4130 C   0  0  0  0  0  0  0  0  0  0  0  0
    4.5355    3.5599   19.2157 C   0  0  0  0  0  0  0  0  0  0  0  0
    5.4198    5.1152   20.8699 C   0  0  0  0  0  0  0  0  0  0  0  0
    5.6136    6.2516   21.2442 C   0  0  0  0  0  0  0  0  0  0  0  0
    5.8265    7.6155   21.6759 C   0  0  0  0  0  0  0  0  0  0  0  0
    5.0864    8.6807   21.2514 C   0  0  0  0  0  0  0  0  0  0  0  0
    5.5878    9.7570   21.8720 N   0  0  0  0  0  0  0  0  0  0  0  0
    6.6083    9.3901   22.6615 C   0  0  0  0  0  0  0  0  0  0  0  0
    7.4670   10.0658   23.5083 C   0  0  0  0  0  0  0  0  0  0  0  0
    8.4493    9.4459   24.2189 C   0  0  0  0  0  0  0  0  0  0  0  0
    8.5825    8.0852   24.0788 C   0  0  0  0  0  0  0  0  0  0  0  0
    7.7316    7.4153   23.2397 C   0  0  0  0  0  0  0  0  0  0  0  0
    6.7536    8.0638   22.5379 N   0  0  0  0  0  0  0  0  0  0  0  0
    1.6712    3.1124   12.6106 C   0  0  0  0  0  0  0  0  0  0  0  0
    2.4861    2.0652   12.9870 C   0  0  0  0  0  0  0  0  0  0  0  0
    3.1276    2.0209   14.2355 C   0  0  0  0  0  0  0  0  0  0  0  0
    2.9794    3.0232   15.1556 C   0  0  0  0  0  0  0  0  0  0  0  0
    2.1556    4.0702   14.7596 C   0  0  0  0  0  0  0  0  0  0  0  0
    1.5178    4.1254   13.5327 C   0  0  0  0  0  0  0  0  0  0  0  0
    0.6702    5.2985   13.2154 C   0  0  0  0  0  0  0  0  0  0  0  0
   -0.6238    5.0266   12.9159 F   0  0  0  0  0  0  0  0  0  0  0  0
    1.2864    6.1650   12.2988 F   0  0  0  0  0  0  0  0  0  0  0  0
    0.5960    6.1059   14.3760 F   0  0  0  0  0  0  0  0  0  0  0  0
    0.9959    3.2068   11.3206 C   0  0  0  0  0  0  0  0  0  0  0  0
   -0.7524    1.7656    7.9559 C   0  0  0  0  0  0  0  0  0  0  0  0
    0.1361    2.8893    7.9543 N   0  0  0  0  0  0  0  0  0  0  0  0
    1.5234    2.5869    7.9697 C   0  0  0  0  0  0  0  0  0  0  0  0
    2.1744    2.5674    9.3220 C   0  0  0  0  0  0  0  0  0  0  0  0
    1.7822    3.6250   10.1965 N   0  0  0  0  0  0  0  0  0  0  0  0
    0.9880    4.5676    9.4329 C   0  0  0  0  0  0  0  0  0  0  0  0
   -0.2305    3.9563    8.8248 C   0  0  0  0  0  0  0  0  0  0  0  0
 34 35  1  0  0  0
 35 36  1  0  0  0
 36 37  1  0  0  0
 37 38  1  0  0  0
 38 33  1  0  0  0
 33 23  1  0  0  0
 23 24  2  0  0  0
 24 25  1  0  0  0
 25 26  2  0  0  0
 26  1  1  0  0  0
  1  2  1  0  0  0
  2  3  2  0  0  0
  2  5  1  0  0  0
  5  6  2  0  0  0
  6  7  1  0  0  0
  7  8  2  0  0  0
  8  9  1  0  0  0
  8 10  1  0  0  0
 10 11  2  0  0  0
 10 12  1  0  0  0
 12 13  3  0  0  0
 13 14  1  0  0  0
 14 15  2  0  0  0
 15 16  1  0  0  0
 16 17  2  0  0  0
 17 18  1  0  0  0
 18 19  2  0  0  0
 19 20  1  0  0  0
 20 21  2  0  0  0
 21 22  1  0  0  0
 26 27  1  0  0  0
 27 28  2  0  0  0
 28 29  1  0  0  0
 29 30  1  0  0  0
 29 31  1  0  0  0
 29 32  1  0  0  0
 38 39  1  0  0  0
 39 40  1  0  0  0
 40 35  1  0  0  0
 28 23  1  0  0  0
 11  5  1  0  0  0
 22 14  1  0  0  0
 22 17  1  0  0  0
  1  4  1  0  0  0
M  END
> <minimizedAffinity>
-8.63326

> <CNNscore>
0.3404527903

> <CNNaffinity>
6.4162788391

> <CNN_VS>
2.1844401360

> <CNNaffinity_variance>
0.2355250567

$$$$
[H]c1nc2c([H])c([H])c([H])c([H])n2c1C#Cc1c([H])c(C(=O)N([H])c2c([H])c([H])c(C([H])([H])N3C([H])([H])C([H])([H])N(C([H])([H])[H])C([H])([H])C3([H])[H])c(C(F)(F)F)c2[H])c([H])c([H])c1C([H])([H])[H]


 40 44  0  0  0  0  0  0  0  0999 V2000
    3.6129    2.6100   16.0774 N   0  0  0  0  0  0  0  0  0  0  0  0
    3.4512    1.4916   16.8873 C   0  0  0  0  0  0  0  0  0  0  0  0
    3.0477    0.4045   16.4280 O   0  0  0  0  0  0  0  0  0  0  0  0
    3.9696    3.4920   16.5742 H   0  0  0  0  0  0  0  0  0  0  0  0
    3.7377    1.4988   18.3229 C   0  0  0  0  0  0  0  0  0  0  0  0
    3.3478    0.4750   19.1547 C   0  0  0  0  0  0  0  0  0  0  0  0
    3.5997    0.4563   20.5256 C   0  0  0  0  0  0  0  0  0  0  0  0
    4.2782    1.5339   21.0530 C   0  0  0  0  0  0  0  0  0  0  0  0
    4.6010    1.6166   22.5103 C   0  0  0  0  0  0  0  0  0  0  0  0
    4.6937    2.5931   20.2554 C   0  0  0  0  0  0  0  0  0  0  0  0
    4.4125    2.5481   18.9108 C   0  0  0  0  0  0  0  0  0  0  0  0
    5.4030    3.7206   20.8035 C   0  0  0  0  0  0  0  0  0  0  0  0
    6.0065    4.6597   21.2756 C   0  0  0  0  0  0  0  0  0  0  0  0
    6.7379    5.7647   21.8549 C   0  0  0  0  0  0  0  0  0  0  0  0
    7.9656    5.6516   22.4403 C   0  0  0  0  0  0  0  0  0  0  0  0
    8.3013    6.8827   22.8488 N   0  0  0  0  0  0  0  0  0  0  0  0
    7.3239    7.7462   22.5349 C   0  0  0  0  0  0  0  0  0  0  0  0
    7.1408    9.1049   22.7116 C   0  0  0  0  0  0  0  0  0  0  0  0
    6.0268    9.7649   22.2901 C   0  0  0  0  0  0  0  0  0  0  0  0
    5.0467    9.0347   21.6613 C   0  0  0  0  0  0  0  0  0  0  0  0
    5.2281    7.6882   21.4861 C   0  0  0  0  0  0  0  0  0  0  0  0
    6.3575    7.0510   21.9198 N   0  0  0  0  0  0  0  0  0  0  0  0
    3.0006    3.1634   11.8796 C   0  0  0  0  0  0  0  0  0  0  0  0
    2.5278    2.0423   12.5293 C   0  0  0  0  0  0  0  0  0  0  0  0
    2.7093    1.8373   13.9068 C   0  0  0  0  0  0  0  0  0  0  0  0
    3.3716    2.7456   14.6874 C   0  0  0  0  0  0  0  0  0  0  0  0
    3.8414    3.8684   14.0164 C   0  0  0  0  0  0  0  0  0  0  0  0
    3.6689    4.0821   12.6601 C   0  0  0  0  0  0  0  0  0  0  0  0
    4.2230    5.3136   12.0503 C   0  0  0  0  0  0  0  0  0  0  0  0
    4.4930    6.3266   12.9099 F   0  0  0  0  0  0  0  0  0  0  0  0
    3.4960    5.7182   10.9195 F   0  0  0  0  0  0  0  0  0  0  0  0
    5.4815    4.9901   11.4880 F   0  0  0  0  0  0  0  0  0  0  0  0
    2.8470    3.4117   10.4500 C   0  0  0  0  0  0  0  0  0  0  0  0
    3.5436    5.0785    6.8180 C   0  0  0  0  0  0  0  0  0  0  0  0
    4.1138    3.8295    7.2261 N   0  0  0  0  0  0  0  0  0  0  0  0
    3.2733    2.6914    7.1047 C   0  0  0  0  0  0  0  0  0  0  0  0
    2.5131    2.3040    8.3396 C   0  0  0  0  0  0  0  0  0  0  0  0
    3.2596    2.3705    9.5542 N   0  0  0  0  0  0  0  0  0  0  0  0
    4.6488    2.6096    9.2147 C   0  0  0  0  0  0  0  0  0  0  0  0
    4.8589    3.8683    8.4402 C   0  0  0  0  0  0  0  0  0  0  0  0
 34 35  1  0  0  0
 35 36  1  0  0  0
 36 37  1  0  0  0
 37 38  1  0  0  0
 38 33  1  0  0  0
 33 23  1  0  0  0
 23 24  2  0  0  0
 24 25  1  0  0  0
 25 26  2  0  0  0
 26  1  1  0  0  0
  1  2  1  0  0  0
  2  3  2  0  0  0
  2  5  1  0  0  0
  5  6  2  0  0  0
  6  7  1  0  0  0
  7  8  2  0  0  0
  8  9  1  0  0  0
  8 10  1  0  0  0
 10 11  2  0  0  0
 10 12  1  0  0  0
 12 13  3  0  0  0
 13 14  1  0  0  0
 14 15  2  0  0  0
 15 16  1  0  0  0
 16 17  2  0  0  0
 17 18  1  0  0  0
 18 19  2  0  0  0
 19 20  1  0  0  0
 20 21  2  0  0  0
 21 22  1  0  0  0
 26 27  1  0  0  0
 27 28  2  0  0  0
 28 29  1  0  0  0
 29 30  1  0  0  0
 29 31  1  0  0  0
 29 32  1  0  0  0
 38 39  1  0  0  0
 39 40  1  0  0  0
 40 35  1  0  0  0
 28 23  1  0  0  0
 11  5  1  0  0  0
 22 14  1  0  0  0
 22 17  1  0  0  0
  1  4  1  0  0  0
M  END
> <minimizedAffinity>
-9.13244

> <CNNscore>
0.3273173869

> <CNNaffinity>
6.6128273010

> <CNN_VS>
2.1644933224

> <CNNaffinity_variance>
0.3406655788

$$$$
[H]c1nc2c([H])c([H])c([H])c([H])n2c1C#Cc1c([H])c(C(=O)N([H])c2c([H])c([H])c(C([H])([H])N3C([H])([H])C([H])([H])N(C([H])([H])[H])C([H])([H])C3([H])[H])c(C(F)(F)F)c2[H])c([H])c([H])c1C([H])([H])[H]


 40 44  0  0  0  0  0  0  0  0999 V2000
    3.5139    3.1069   16.1607 N   0  0  0  0  0  0  0  0  0  0  0  0
    3.5131    2.1973   17.2122 C   0  0  0  0  0  0  0  0  0  0  0  0
    2.9073    1.1098   17.1355 O   0  0  0  0  0  0  0  0  0  0  0  0
    4.0702    4.0088   16.3312 H   0  0  0  0  0  0  0  0  0  0  0  0
    4.2129    2.4382   18.4752 C   0  0  0  0  0  0  0  0  0  0  0  0
    4.4981    1.4256   19.3614 C   0  0  0  0  0  0  0  0  0  0  0  0
    5.1565    1.6241   20.5740 C   0  0  0  0  0  0  0  0  0  0  0  0
    5.5324    2.9146   20.8791 C   0  0  0  0  0  0  0  0  0  0  0  0
    6.2440    3.2406   22.1527 C   0  0  0  0  0  0  0  0  0  0  0  0
    5.2679    3.9723   20.0177 C   0  0  0  0  0  0  0  0  0  0  0  0
    4.6148    3.7066   18.8380 C   0  0  0  0  0  0  0  0  0  0  0  0
    5.6595    5.3220   20.3336 C   0  0  0  0  0  0  0  0  0  0  0  0
    5.9890    6.4612   20.5838 C   0  0  0  0  0  0  0  0  0  0  0  0
    6.3805    7.8262   20.8580 C   0  0  0  0  0  0  0  0  0  0  0  0
    7.4615    8.1793   21.6125 C   0  0  0  0  0  0  0  0  0  0  0  0
    7.4852    9.5188   21.6303 N   0  0  0  0  0  0  0  0  0  0  0  0
    6.4579    9.9995   20.9140 C   0  0  0  0  0  0  0  0  0  0  0  0
    6.0076   11.2683   20.6008 C   0  0  0  0  0  0  0  0  0  0  0  0
    4.9066   11.4968   19.8329 C   0  0  0  0  0  0  0  0  0  0  0  0
    4.2204   10.4069   19.3532 C   0  0  0  0  0  0  0  0  0  0  0  0
    4.6666    9.1493   19.6634 C   0  0  0  0  0  0  0  0  0  0  0  0
    5.7759    8.9492   20.4373 N   0  0  0  0  0  0  0  0  0  0  0  0
    1.5431    2.9785   12.3657 C   0  0  0  0  0  0  0  0  0  0  0  0
    2.4246    1.9887   12.7473 C   0  0  0  0  0  0  0  0  0  0  0  0
    3.0812    2.0022   13.9887 C   0  0  0  0  0  0  0  0  0  0  0  0
    2.8818    3.0072   14.8961 C   0  0  0  0  0  0  0  0  0  0  0  0
    1.9913    3.9960   14.4950 C   0  0  0  0  0  0  0  0  0  0  0  0
    1.3381    3.9939   13.2750 C   0  0  0  0  0  0  0  0  0  0  0  0
    0.4168    5.1082   12.9511 C   0  0  0  0  0  0  0  0  0  0  0  0
   -0.8842    4.7666   12.7814 F   0  0  0  0  0  0  0  0  0  0  0  0
    0.9176    5.9294   11.9284 F   0  0  0  0  0  0  0  0  0  0  0  0
    0.4025    5.9935   14.0558 F   0  0  0  0  0  0  0  0  0  0  0  0
    0.8494    3.0123   11.0825 C   0  0  0  0  0  0  0  0  0  0  0  0
   -2.4219    2.1651    8.8385 C   0  0  0  0  0  0  0  0  0  0  0  0
   -1.0831    1.9272    8.3880 N   0  0  0  0  0  0  0  0  0  0  0  0
   -0.4710    0.7343    8.8557 C   0  0  0  0  0  0  0  0  0  0  0  0
    0.3810    0.8734   10.0836 C   0  0  0  0  0  0  0  0  0  0  0  0
    1.2207    2.0272   10.1087 N   0  0  0  0  0  0  0  0  0  0  0  0
    1.1585    2.6560    8.8037 C   0  0  0  0  0  0  0  0  0  0  0  0
   -0.2227    3.0629    8.4098 C   0  0  0  0  0  0  0  0  0  0  0  0
 34 35  1  0  0  0
 35 36  1  0  0  0
 36 37  1  0  0  0
 37 38  1  0  0  0
 38 33  1  0  0  0
 33 23  1  0  0  0
 23 24  2  0  0  0
 24 25  1  0  0  0
 25 26  2  0  0  0
 26  1  1  0  0  0
  1  2  1  0  0  0
  2  3  2  0  0  0
  2  5  1  0  0  0
  5  6  2  0  0  0
  6  7  1  0  0  0
  7  8  2  0  0  0
  8  9  1  0  0  0
  8 10  1  0  0  0
 10 11  2  0  0  0
 10 12  1  0  0  0
 12 13  3  0  0  0
 13 14  1  0  0  0
 14 15  2  0  0  0
 15 16  1  0  0  0
 16 17  2  0  0  0
 17 18  1  0  0  0
 18 19  2  0  0  0
 19 20  1  0  0  0
 20 21  2  0  0  0
 21 22  1  0  0  0
 26 27  1  0  0  0
 27 28  2  0  0  0
 28 29  1  0  0  0
 29 30  1  0  0  0
 29 31  1  0  0  0
 29 32  1  0  0  0
 38 39  1  0  0  0
 39 40  1  0  0  0
 40 35  1  0  0  0
 28 23  1  0  0  0
 11  5  1  0  0  0
 22 14  1  0  0  0
 22 17  1  0  0  0
  1  4  1  0  0  0
M  END
> <minimizedAffinity>
-8.85680

> <CNNscore>
0.3271884620

> <CNNaffinity>
6.3885602951

> <CNN_VS>
2.0902631283

> <CNNaffinity_variance>
0.3396766782

$$$$
[H]c1nc2c([H])c([H])c([H])c([H])n2c1C#Cc1c([H])c(C(=O)N([H])c2c([H])c([H])c(C([H])([H])N3C([H])([H])C([H])([H])N(C([H])([H])[H])C([H])([H])C3([H])[H])c(C(F)(F)F)c2[H])c([H])c([H])c1C([H])([H])[H]


 40 44  0  0  0  0  0  0  0  0999 V2000
    3.1868    3.9465   16.1454 N   0  0  0  0  0  0  0  0  0  0  0  0
    3.1919    2.7875   16.9133 C   0  0  0  0  0  0  0  0  0  0  0  0
    2.5504    1.7739   16.5715 O   0  0  0  0  0  0  0  0  0  0  0  0
    3.7761    4.7571   16.5295 H   0  0  0  0  0  0  0  0  0  0  0  0
    3.9398    2.6642   18.1657 C   0  0  0  0  0  0  0  0  0  0  0  0
    4.1718    1.4485   18.7658 C   0  0  0  0  0  0  0  0  0  0  0  0
    4.8738    1.2995   19.9609 C   0  0  0  0  0  0  0  0  0  0  0  0
    5.3519    2.4480   20.5543 C   0  0  0  0  0  0  0  0  0  0  0  0
    6.1180    2.4036   21.8373 C   0  0  0  0  0  0  0  0  0  0  0  0
    5.1444    3.6999   19.9884 C   0  0  0  0  0  0  0  0  0  0  0  0
    4.4436    3.7755   18.8085 C   0  0  0  0  0  0  0  0  0  0  0  0
    5.6428    4.9019   20.6060 C   0  0  0  0  0  0  0  0  0  0  0  0
    6.0510    5.9219   21.1179 C   0  0  0  0  0  0  0  0  0  0  0  0
    6.5197    7.1516   21.7176 C   0  0  0  0  0  0  0  0  0  0  0  0
    7.3102    7.2130   22.8285 C   0  0  0  0  0  0  0  0  0  0  0  0
    7.5238    8.5142   23.0656 N   0  0  0  0  0  0  0  0  0  0  0  0
    6.8930    9.2526   22.1403 C   0  0  0  0  0  0  0  0  0  0  0  0
    6.7725   10.6092   21.9035 C   0  0  0  0  0  0  0  0  0  0  0  0
    6.0541   11.1208   20.8660 C   0  0  0  0  0  0  0  0  0  0  0  0
    5.4247   10.2368   20.0226 C   0  0  0  0  0  0  0  0  0  0  0  0
    5.5441    8.8923   20.2570 C   0  0  0  0  0  0  0  0  0  0  0  0
    6.2723    8.4062   21.3073 N   0  0  0  0  0  0  0  0  0  0  0  0
    1.1840    4.5522   12.4138 C   0  0  0  0  0  0  0  0  0  0  0  0
    1.0974    5.4802   13.4305 C   0  0  0  0  0  0  0  0  0  0  0  0
    1.7487    5.3102   14.6632 C   0  0  0  0  0  0  0  0  0  0  0  0
    2.5110    4.2046   14.9267 C   0  0  0  0  0  0  0  0  0  0  0  0
    2.5868    3.2801   13.8917 C   0  0  0  0  0  0  0  0  0  0  0  0
    1.9502    3.4360   12.6729 C   0  0  0  0  0  0  0  0  0  0  0  0
    2.0946    2.3778   11.6459 C   0  0  0  0  0  0  0  0  0  0  0  0
    2.5859    2.7819   10.4487 F   0  0  0  0  0  0  0  0  0  0  0  0
    0.9423    1.5832   11.5384 F   0  0  0  0  0  0  0  0  0  0  0  0
    3.0498    1.4449   12.1167 F   0  0  0  0  0  0  0  0  0  0  0  0
    0.5148    4.6806   11.1236 C   0  0  0  0  0  0  0  0  0  0  0  0
   -1.2598    6.8521    8.1927 C   0  0  0  0  0  0  0  0  0  0  0  0
   -1.7825    5.6052    8.6660 N   0  0  0  0  0  0  0  0  0  0  0  0
   -2.5418    5.6625    9.8646 C   0  0  0  0  0  0  0  0  0  0  0  0
   -1.7873    5.3825   11.1317 C   0  0  0  0  0  0  0  0  0  0  0  0
   -0.8652    4.2957   11.0581 N   0  0  0  0  0  0  0  0  0  0  0  0
   -1.0711    3.6172    9.7932 C   0  0  0  0  0  0  0  0  0  0  0  0
   -0.8784    4.5053    8.6089 C   0  0  0  0  0  0  0  0  0  0  0  0
 34 35  1  0  0  0
 35 36  1  0  0  0
 36 37  1  0  0  0
 37 38  1  0  0  0
 38 33  1  0  0  0
 33 23  1  0  0  0
 23 24  2  0  0  0
 24 25  1  0  0  0
 25 26  2  0  0  0
 26  1  1  0  0  0
  1  2  1  0  0  0
  2  3  2  0  0  0
  2  5  1  0  0  0
  5  6  2  0  0  0
  6  7  1  0  0  0
  7  8  2  0  0  0
  8  9  1  0  0  0
  8 10  1  0  0  0
 10 11  2  0  0  0
 10 12  1  0  0  0
 12 13  3  0  0  0
 13 14  1  0  0  0
 14 15  2  0  0  0
 15 16  1  0  0  0
 16 17  2  0  0  0
 17 18  1  0  0  0
 18 19  2  0  0  0
 19 20  1  0  0  0
 20 21  2  0  0  0
 21 22  1  0  0  0
 26 27  1  0  0  0
 27 28  2  0  0  0
 28 29  1  0  0  0
 29 30  1  0  0  0
 29 31  1  0  0  0
 29 32  1  0  0  0
 38 39  1  0  0  0
 39 40  1  0  0  0
 40 35  1  0  0  0
 28 23  1  0  0  0
 11  5  1  0  0  0
 22 14  1  0  0  0
 22 17  1  0  0  0
  1  4  1  0  0  0
M  END
> <minimizedAffinity>
-8.55089

> <CNNscore>
0.3175112605

> <CNNaffinity>
6.3237309456

> <CNN_VS>
2.0078558922

> <CNNaffinity_variance>
0.2556017339

$$$$
[H]c1nc2c([H])c([H])c([H])c([H])n2c1C#Cc1c([H])c(C(=O)N([H])c2c([H])c([H])c(C([H])([H])N3C([H])([H])C([H])([H])N(C([H])([H])[H])C([H])([H])C3([H])[H])c(C(F)(F)F)c2[H])c([H])c([H])c1C([H])([H])[H]


 40 44  0  0  0  0  0  0  0  0999 V2000
    3.4920    2.7461   16.2520 N   0  0  0  0  0  0  0  0  0  0  0  0
    3.8026    1.7652   17.1869 C   0  0  0  0  0  0  0  0  0  0  0  0
    3.5987    0.5561   16.9583 O   0  0  0  0  0  0  0  0  0  0  0  0
    3.7122    3.7535   16.5495 H   0  0  0  0  0  0  0  0  0  0  0  0
    4.3858    2.0669   18.4953 C   0  0  0  0  0  0  0  0  0  0  0  0
    4.5888    1.0977   19.4499 C   0  0  0  0  0  0  0  0  0  0  0  0
    5.1352    1.3547   20.7064 C   0  0  0  0  0  0  0  0  0  0  0  0
    5.4832    2.6593   20.9835 C   0  0  0  0  0  0  0  0  0  0  0  0
    6.0772    3.0466   22.2995 C   0  0  0  0  0  0  0  0  0  0  0  0
    5.2985    3.6748   20.0533 C   0  0  0  0  0  0  0  0  0  0  0  0
    4.7544    3.3522   18.8332 C   0  0  0  0  0  0  0  0  0  0  0  0
    5.6612    5.0390   20.3399 C   0  0  0  0  0  0  0  0  0  0  0  0
    5.9657    6.1837   20.5966 C   0  0  0  0  0  0  0  0  0  0  0  0
    6.3291    7.5440   20.9274 C   0  0  0  0  0  0  0  0  0  0  0  0
    7.3597    7.8851   21.7545 C   0  0  0  0  0  0  0  0  0  0  0  0
    7.3717    9.2238   21.8065 N   0  0  0  0  0  0  0  0  0  0  0  0
    6.3859    9.7156   21.0411 C   0  0  0  0  0  0  0  0  0  0  0  0
    5.9454   10.9889   20.7323 C   0  0  0  0  0  0  0  0  0  0  0  0
    4.8911   11.2294   19.9047 C   0  0  0  0  0  0  0  0  0  0  0  0
    4.2438   10.1475   19.3577 C   0  0  0  0  0  0  0  0  0  0  0  0
    4.6803    8.8854   19.6636 C   0  0  0  0  0  0  0  0  0  0  0  0
    5.7423    8.6732   20.4983 N   0  0  0  0  0  0  0  0  0  0  0  0
    1.9293    2.3864   12.2857 C   0  0  0  0  0  0  0  0  0  0  0  0
    1.3398    1.7338   13.3482 C   0  0  0  0  0  0  0  0  0  0  0  0
    1.8277    1.8383   14.6610 C   0  0  0  0  0  0  0  0  0  0  0  0
    2.9250    2.5991   14.9614 C   0  0  0  0  0  0  0  0  0  0  0  0
    3.5064    3.2489   13.8791 C   0  0  0  0  0  0  0  0  0  0  0  0
    3.0352    3.1542   12.5814 C   0  0  0  0  0  0  0  0  0  0  0  0
    3.7435    3.8848   11.5044 C   0  0  0  0  0  0  0  0  0  0  0  0
    3.0566    4.9052   10.9344 F   0  0  0  0  0  0  0  0  0  0  0  0
    4.3301    3.0151   10.5714 F   0  0  0  0  0  0  0  0  0  0  0  0
    4.8788    4.5072   12.0773 F   0  0  0  0  0  0  0  0  0  0  0  0
    1.4654    2.2965   10.9052 C   0  0  0  0  0  0  0  0  0  0  0  0
   -1.1987    2.1743    7.8486 C   0  0  0  0  0  0  0  0  0  0  0  0
   -0.0283    1.3498    7.8977 N   0  0  0  0  0  0  0  0  0  0  0  0
   -0.1238    0.1790    8.6955 C   0  0  0  0  0  0  0  0  0  0  0  0
    0.3788    0.3039   10.1044 C   0  0  0  0  0  0  0  0  0  0  0  0
    1.5998    1.0288   10.2482 N   0  0  0  0  0  0  0  0  0  0  0  0
    2.1333    1.2768    8.9228 C   0  0  0  0  0  0  0  0  0  0  0  0
    1.2037    2.0501    8.0476 C   0  0  0  0  0  0  0  0  0  0  0  0
 34 35  1  0  0  0
 35 36  1  0  0  0
 36 37  1  0  0  0
 37 38  1  0  0  0
 38 33  1  0  0  0
 33 23  1  0  0  0
 23 24  2  0  0  0
 24 25  1  0  0  0
 25 26  2  0  0  0
 26  1  1  0  0  0
  1  2  1  0  0  0
  2  3  2  0  0  0
  2  5  1  0  0  0
  5  6  2  0  0  0
  6  7  1  0  0  0
  7  8  2  0  0  0
  8  9  1  0  0  0
  8 10  1  0  0  0
 10 11  2  0  0  0
 10 12  1  0  0  0
 12 13  3  0  0  0
 13 14  1  0  0  0
 14 15  2  0  0  0
 15 16  1  0  0  0
 16 17  2  0  0  0
 17 18  1  0  0  0
 18 19  2  0  0  0
 19 20  1  0  0  0
 20 21  2  0  0  0
 21 22  1  0  0  0
 26 27  1  0  0  0
 27 28  2  0  0  0
 28 29  1  0  0  0
 29 30  1  0  0  0
 29 31  1  0  0  0
 29 32  1  0  0  0
 38 39  1  0  0  0
 39 40  1  0  0  0
 40 35  1  0  0  0
 28 23  1  0  0  0
 11  5  1  0  0  0
 22 14  1  0  0  0
 22 17  1  0  0  0
  1  4  1  0  0  0
M  END
> <minimizedAffinity>
-8.97721

> <CNNscore>
0.3100440204

> <CNNaffinity>
6.4083280563

> <CNN_VS>
1.9868638515

> <CNNaffinity_variance>
0.2871524394

$$$$
[H]c1nc2c([H])c([H])c([H])c([H])n2c1C#Cc1c([H])c(C(=O)N([H])c2c([H])c([H])c(C([H])([H])N3C([H])([H])C([H])([H])N(C([H])([H])[H])C([H])([H])C3([H])[H])c(C(F)(F)F)c2[H])c([H])c([H])c1C([H])([H])[H]


 40 44  0  0  0  0  0  0  0  0999 V2000
    3.2044    1.9990   14.2181 N   0  0  0  0  0  0  0  0  0  0  0  0
    2.6214    2.9404   13.3775 C   0  0  0  0  0  0  0  0  0  0  0  0
    2.2392    4.0489   13.8027 O   0  0  0  0  0  0  0  0  0  0  0  0
    3.5005    1.0808   13.7477 H   0  0  0  0  0  0  0  0  0  0  0  0
    2.4125    2.7110   11.9469 C   0  0  0  0  0  0  0  0  0  0  0  0
    1.9015    3.6797   11.1147 C   0  0  0  0  0  0  0  0  0  0  0  0
    1.6850    3.4894    9.7508 C   0  0  0  0  0  0  0  0  0  0  0  0
    2.0086    2.2545    9.2312 C   0  0  0  0  0  0  0  0  0  0  0  0
    1.8171    1.9423    7.7818 C   0  0  0  0  0  0  0  0  0  0  0  0
    2.5278    1.2426   10.0294 C   0  0  0  0  0  0  0  0  0  0  0  0
    2.7163    1.4972   11.3668 C   0  0  0  0  0  0  0  0  0  0  0  0
    2.8671   -0.0488    9.4894 C   0  0  0  0  0  0  0  0  0  0  0  0
    3.1679   -1.1308    9.0333 C   0  0  0  0  0  0  0  0  0  0  0  0
    3.5506   -2.4145    8.4882 C   0  0  0  0  0  0  0  0  0  0  0  0
    4.5249   -2.5915    7.5490 C   0  0  0  0  0  0  0  0  0  0  0  0
    4.5784   -3.9083    7.3075 N   0  0  0  0  0  0  0  0  0  0  0  0
    3.6723   -4.5448    8.0647 C   0  0  0  0  0  0  0  0  0  0  0  0
    3.3007   -5.8670    8.2212 C   0  0  0  0  0  0  0  0  0  0  0  0
    2.3227   -6.2666    9.0803 C   0  0  0  0  0  0  0  0  0  0  0  0
    1.6833   -5.3007    9.8201 C   0  0  0  0  0  0  0  0  0  0  0  0
    2.0515   -3.9903    9.6651 C   0  0  0  0  0  0  0  0  0  0  0  0
    3.0377   -3.6173    8.7944 N   0  0  0  0  0  0  0  0  0  0  0  0
    3.9180    2.0840   18.4355 C   0  0  0  0  0  0  0  0  0  0  0  0
    4.3782    3.0904   17.6122 C   0  0  0  0  0  0  0  0  0  0  0  0
    4.1538    3.0912   16.2258 C   0  0  0  0  0  0  0  0  0  0  0  0
    3.4611    2.0847   15.6093 C   0  0  0  0  0  0  0  0  0  0  0  0
    3.0054    1.0792   16.4537 C   0  0  0  0  0  0  0  0  0  0  0  0
    3.2197    1.0669   17.8208 C   0  0  0  0  0  0  0  0  0  0  0  0
    2.6946   -0.0645   18.6206 C   0  0  0  0  0  0  0  0  0  0  0  0
    1.3555   -0.0649   18.8324 F   0  0  0  0  0  0  0  0  0  0  0  0
    3.4455   -0.2825   19.7865 F   0  0  0  0  0  0  0  0  0  0  0  0
    2.9319   -1.2558   17.8934 F   0  0  0  0  0  0  0  0  0  0  0  0
    4.1385    2.0350   19.8771 C   0  0  0  0  0  0  0  0  0  0  0  0
    3.5423    3.8297   23.4657 C   0  0  0  0  0  0  0  0  0  0  0  0
    4.8095    3.3003   23.0584 N   0  0  0  0  0  0  0  0  0  0  0  0
    5.5854    4.1282   22.2045 C   0  0  0  0  0  0  0  0  0  0  0  0
    5.4414    3.8685   20.7332 C   0  0  0  0  0  0  0  0  0  0  0  0
    5.4085    2.4905   20.3633 N   0  0  0  0  0  0  0  0  0  0  0  0
    5.7365    1.7031   21.5358 C   0  0  0  0  0  0  0  0  0  0  0  0
    4.8016    1.9271   22.6777 C   0  0  0  0  0  0  0  0  0  0  0  0
 34 35  1  0  0  0
 35 36  1  0  0  0
 36 37  1  0  0  0
 37 38  1  0  0  0
 38 33  1  0  0  0
 33 23  1  0  0  0
 23 24  2  0  0  0
 24 25  1  0  0  0
 25 26  2  0  0  0
 26  1  1  0  0  0
  1  2  1  0  0  0
  2  3  2  0  0  0
  2  5  1  0  0  0
  5  6  2  0  0  0
  6  7  1  0  0  0
  7  8  2  0  0  0
  8  9  1  0  0  0
  8 10  1  0  0  0
 10 11  2  0  0  0
 10 12  1  0  0  0
 12 13  3  0  0  0
 13 14  1  0  0  0
 14 15  2  0  0  0
 15 16  1  0  0  0
 16 17  2  0  0  0
 17 18  1  0  0  0
 18 19  2  0  0  0
 19 20  1  0  0  0
 20 21  2  0  0  0
 21 22  1  0  0  0
 26 27  1  0  0  0
 27 28  2  0  0  0
 28 29  1  0  0  0
 29 30  1  0  0  0
 29 31  1  0  0  0
 29 32  1  0  0  0
 38 39  1  0  0  0
 39 40  1  0  0  0
 40 35  1  0  0  0
 28 23  1  0  0  0
 11  5  1  0  0  0
 22 14  1  0  0  0
 22 17  1  0  0  0
  1  4  1  0  0  0
M  END
> <minimizedAffinity>
-8.62685

> <CNNscore>
0.2593984008

> <CNNaffinity>
6.8165969849

> <CNN_VS>
1.7682143450

> <CNNaffinity_variance>
0.0870912522

$$$$
[H]c1nc2c([H])c([H])c([H])c([H])n2c1C#Cc1c([H])c(C(=O)N([H])c2c([H])c([H])c(C([H])([H])N3C([H])([H])C([H])([H])N(C([H])([H])[H])C([H])([H])C3([H])[H])c(C(F)(F)F)c2[H])c([H])c([H])c1C([H])([H])[H]


 40 44  0  0  0  0  0  0  0  0999 V2000
    3.2925    4.0037   16.7261 N   0  0  0  0  0  0  0  0  0  0  0  0
    3.4175    2.7672   17.3492 C   0  0  0  0  0  0  0  0  0  0  0  0
    2.9033    1.7377   16.8683 O   0  0  0  0  0  0  0  0  0  0  0  0
    3.7774    4.8221   17.2231 H   0  0  0  0  0  0  0  0  0  0  0  0
    4.1521    2.5759   18.6010 C   0  0  0  0  0  0  0  0  0  0  0  0
    4.3003    1.3389   19.1837 C   0  0  0  0  0  0  0  0  0  0  0  0
    4.9877    1.1257   20.3776 C   0  0  0  0  0  0  0  0  0  0  0  0
    5.5403    2.2308   20.9885 C   0  0  0  0  0  0  0  0  0  0  0  0
    6.2983    2.1166   22.2719 C   0  0  0  0  0  0  0  0  0  0  0  0
    5.4188    3.5019   20.4405 C   0  0  0  0  0  0  0  0  0  0  0  0
    4.7277    3.6414   19.2607 C   0  0  0  0  0  0  0  0  0  0  0  0
    5.9952    4.6586   21.0764 C   0  0  0  0  0  0  0  0  0  0  0  0
    6.4833    5.6232   21.6245 C   0  0  0  0  0  0  0  0  0  0  0  0
    7.0719    6.7597   22.2979 C   0  0  0  0  0  0  0  0  0  0  0  0
    6.4995    7.9971   22.3614 C   0  0  0  0  0  0  0  0  0  0  0  0
    7.3437    8.7654   23.0629 N   0  0  0  0  0  0  0  0  0  0  0  0
    8.4127    8.0439   23.4316 C   0  0  0  0  0  0  0  0  0  0  0  0
    9.5621    8.3164   24.1497 C   0  0  0  0  0  0  0  0  0  0  0  0
   10.5234    7.3835   24.3942 C   0  0  0  0  0  0  0  0  0  0  0  0
   10.3298    6.1162   23.8987 C   0  0  0  0  0  0  0  0  0  0  0  0
    9.1907    5.8459   23.1872 C   0  0  0  0  0  0  0  0  0  0  0  0
    8.2415    6.8027   22.9565 N   0  0  0  0  0  0  0  0  0  0  0  0
    1.2710    4.8215   13.0453 C   0  0  0  0  0  0  0  0  0  0  0  0
    1.2381    5.7175   14.0934 C   0  0  0  0  0  0  0  0  0  0  0  0
    1.8969    5.4779   15.3104 C   0  0  0  0  0  0  0  0  0  0  0  0
    2.6133    4.3319   15.5262 C   0  0  0  0  0  0  0  0  0  0  0  0
    2.6352    3.4404   14.4602 C   0  0  0  0  0  0  0  0  0  0  0  0
    1.9907    3.6649   13.2563 C   0  0  0  0  0  0  0  0  0  0  0  0
    2.0755    2.6367   12.1929 C   0  0  0  0  0  0  0  0  0  0  0  0
    0.8905    2.1985   11.7013 F   0  0  0  0  0  0  0  0  0  0  0  0
    2.9600    1.5994   12.5283 F   0  0  0  0  0  0  0  0  0  0  0  0
    2.7205    3.2208   11.0761 F   0  0  0  0  0  0  0  0  0  0  0  0
    0.5918    5.0223   11.7696 C   0  0  0  0  0  0  0  0  0  0  0  0
    1.8111    4.2961    7.9696 C   0  0  0  0  0  0  0  0  0  0  0  0
    1.1939    5.5251    8.3701 N   0  0  0  0  0  0  0  0  0  0  0  0
    2.0437    6.4733    8.9988 C   0  0  0  0  0  0  0  0  0  0  0  0
    2.0607    6.4438   10.4994 C   0  0  0  0  0  0  0  0  0  0  0  0
    0.7830    6.2838   11.1149 N   0  0  0  0  0  0  0  0  0  0  0  0
   -0.2297    6.4001   10.0837 C   0  0  0  0  0  0  0  0  0  0  0  0
   -0.0805    5.3914    8.9935 C   0  0  0  0  0  0  0  0  0  0  0  0
 34 35  1  0  0  0
 35 36  1  0  0  0
 36 37  1  0  0  0
 37 38  1  0  0  0
 38 33  1  0  0  0
 33 23  1  0  0  0
 23 24  2  0  0  0
 24 25  1  0  0  0
 25 26  2  0  0  0
 26  1  1  0  0  0
  1  2  1  0  0  0
  2  3  2  0  0  0
  2  5  1  0  0  0
  5  6  2  0  0  0
  6  7  1  0  0  0
  7  8  2  0  0  0
  8  9  1  0  0  0
  8 10  1  0  0  0
 10 11  2  0  0  0
 10 12  1  0  0  0
 12 13  3  0  0  0
 13 14  1  0  0  0
 14 15  2  0  0  0
 15 16  1  0  0  0
 16 17  2  0  0  0
 17 18  1  0  0  0
 18 19  2  0  0  0
 19 20  1  0  0  0
 20 21  2  0  0  0
 21 22  1  0  0  0
 26 27  1  0  0  0
 27 28  2  0  0  0
 28 29  1  0  0  0
 29 30  1  0  0  0
 29 31  1  0  0  0
 29 32  1  0  0  0
 38 39  1  0  0  0
 39 40  1  0  0  0
 40 35  1  0  0  0
 28 23  1  0  0  0
 11  5  1  0  0  0
 22 14  1  0  0  0
 22 17  1  0  0  0
  1  4  1  0  0  0
M  END
> <minimizedAffinity>
-8.28469

> <CNNscore>
0.2589752972

> <CNNaffinity>
6.2891478539

> <CNN_VS>
1.6287339926

> <CNNaffinity_variance>
0.1449654400

$$$$
[H]O[C@]1([H])C([H])([H])C([H])([H])[C@@]([H])(n2c([H])c(-c3c([H])c([H])c(S(=O)(=O)C([H])([H])[H])c([H])c3[H])c3c([H])nc(N([H])C([H])([H])C([H])([H])C([H])([H])C([H])([H])[H])nc32)C([H])([H])C1([H])[H]


 33 36  0  0  0  0  0  0  0  0999 V2000
    3.0093    0.1885   18.7794 C   0  0  0  0  0  0  0  0  0  0  0  0
    2.5181   -0.1570   17.5878 N   0  0  0  0  0  0  0  0  0  0  0  0
    2.6648    0.6259   16.5130 C   0  0  0  0  0  0  0  0  0  0  0  0
    3.3404    1.8267   16.6265 C   0  0  0  0  0  0  0  0  0  0  0  0
    3.6452    2.8167   15.7321 C   0  0  0  0  0  0  0  0  0  0  0  0
    4.3405    3.7702   16.4411 C   0  0  0  0  0  0  0  0  0  0  0  0
    4.4734    3.4092   17.7205 N   0  0  0  0  0  0  0  0  0  0  0  0
    3.8593    2.2098   17.8471 C   0  0  0  0  0  0  0  0  0  0  0  0
    3.6675    1.3651   18.8751 N   0  0  0  0  0  0  0  0  0  0  0  0
    5.1232    4.0921   18.8214 C   0  0  0  0  0  0  0  0  0  0  0  0
    5.8933    5.2899   18.3859 C   0  0  0  0  0  0  0  0  0  0  0  0
    5.9012    6.3437   19.5016 C   0  0  0  0  0  0  0  0  0  0  0  0
    4.4817    6.8969   19.5462 C   0  0  0  0  0  0  0  0  0  0  0  0
    4.2568    7.6902   20.6494 O   0  0  0  0  0  0  0  0  0  0  0  0
    3.4716    5.7652   19.5072 C   0  0  0  0  0  0  0  0  0  0  0  0
    4.1585    4.4803   19.9032 C   0  0  0  0  0  0  0  0  0  0  0  0
    3.4634    8.2673   20.4333 H   0  0  0  0  0  0  0  0  0  0  0  0
    3.3018    2.8550   14.3171 C   0  0  0  0  0  0  0  0  0  0  0  0
    2.4272    1.9580   13.7816 C   0  0  0  0  0  0  0  0  0  0  0  0
    2.1322    2.0336   12.4281 C   0  0  0  0  0  0  0  0  0  0  0  0
    2.7276    3.0100   11.6580 C   0  0  0  0  0  0  0  0  0  0  0  0
    3.6083    3.9087   12.2120 C   0  0  0  0  0  0  0  0  0  0  0  0
    3.9030    3.8374   13.5512 C   0  0  0  0  0  0  0  0  0  0  0  0
    2.3795    3.1379    9.9409 S   0  0  0  0  0  0  0  0  0  0  0  0
    0.8220    2.3566    9.5769 C   0  0  0  0  0  0  0  0  0  0  0  0
    3.4957    2.5142    9.1755 O   0  0  0  0  0  0  0  0  0  0  0  0
    2.2986    4.5869    9.6065 O   0  0  0  0  0  0  0  0  0  0  0  0
    2.8833   -0.6003   19.9470 N   0  0  0  0  0  0  0  0  0  0  0  0
    2.1908   -1.4067   19.9308 H   0  0  0  0  0  0  0  0  0  0  0  0
    3.6633   -0.3258   21.1200 C   0  0  0  0  0  0  0  0  0  0  0  0
    2.9770    0.5751   22.0895 C   0  0  0  0  0  0  0  0  0  0  0  0
    5.2660    1.6023   22.0430 C   0  0  0  0  0  0  0  0  0  0  0  0
    3.8255    1.7814   22.4444 C   0  0  0  0  0  0  0  0  0  0  0  0
 32 33  1  0  0  0
 33 31  1  0  0  0
 31 30  1  0  0  0
 30 28  1  0  0  0
 28  1  1  0  0  0
  1  2  2  0  0  0
  2  3  1  0  0  0
  3  4  2  0  0  0
  4  5  1  0  0  0
  5  6  2  0  0  0
  6  7  1  0  0  0
  7 10  1  0  0  0
 10 11  1  0  0  0
 11 12  1  0  0  0
 12 13  1  0  0  0
 13 14  1  0  0  0
 13 15  1  0  0  0
 15 16  1  0  0  0
  7  8  1  0  0  0
  8  9  2  0  0  0
  5 18  1  0  0  0
 18 19  2  0  0  0
 19 20  1  0  0  0
 20 21  2  0  0  0
 21 22  1  0  0  0
 22 23  2  0  0  0
 21 24  1  0  0  0
 24 25  1  0  0  0
 24 26  2  0  0  0
 24 27  2  0  0  0
  9  1  1  0  0  0
 23 18  1  0  0  0
  8  4  1  0  0  0
 16 10  1  0  0  0
 28 29  1  0  0  0
 14 17  1  0  0  0
M  END
> <minimizedAffinity>
-8.75100

> <CNNscore>
0.9678502083

> <CNNaffinity>
7.4940629005

> <CNN_VS>
7.2531304359

> <CNNaffinity_variance>
0.0404370613

$$$$
[H]O[C@]1([H])C([H])([H])C([H])([H])[C@@]([H])(n2c([H])c(-c3c([H])c([H])c(S(=O)(=O)C([H])([H])[H])c([H])c3[H])c3c([H])nc(N([H])C([H])([H])C([H])([H])C([H])([H])C([H])([H])[H])nc32)C([H])([H])C1([H])[H]


 33 36  0  0  0  0  0  0  0  0999 V2000
    4.0681    1.3080   19.7630 C   0  0  0  0  0  0  0  0  0  0  0  0
    3.4728    0.7244   18.7211 N   0  0  0  0  0  0  0  0  0  0  0  0
    3.4252    1.3106   17.5195 C   0  0  0  0  0  0  0  0  0  0  0  0
    4.0037    2.5532   17.3394 C   0  0  0  0  0  0  0  0  0  0  0  0
    4.1158    3.3851   16.2585 C   0  0  0  0  0  0  0  0  0  0  0  0
    4.8046    4.4925   16.6995 C   0  0  0  0  0  0  0  0  0  0  0  0
    5.1164    4.3751   17.9933 N   0  0  0  0  0  0  0  0  0  0  0  0
    4.6266    3.1807   18.3997 C   0  0  0  0  0  0  0  0  0  0  0  0
    4.6294    2.5226   19.5719 N   0  0  0  0  0  0  0  0  0  0  0  0
    5.8291    5.2840   18.8689 C   0  0  0  0  0  0  0  0  0  0  0  0
    6.0244    6.6325   18.2682 C   0  0  0  0  0  0  0  0  0  0  0  0
    6.0492    7.7001   19.3705 C   0  0  0  0  0  0  0  0  0  0  0  0
    4.6131    7.7979   19.8719 C   0  0  0  0  0  0  0  0  0  0  0  0
    4.5038    8.5463   21.0229 O   0  0  0  0  0  0  0  0  0  0  0  0
    4.0364    6.4126   20.0979 C   0  0  0  0  0  0  0  0  0  0  0  0
    5.1698    5.4213   20.2098 C   0  0  0  0  0  0  0  0  0  0  0  0
    3.5458    8.8421   21.0852 H   0  0  0  0  0  0  0  0  0  0  0  0
    3.6077    3.1479   14.9142 C   0  0  0  0  0  0  0  0  0  0  0  0
    2.7846    2.0949   14.6496 C   0  0  0  0  0  0  0  0  0  0  0  0
    2.3272    1.9093   13.3531 C   0  0  0  0  0  0  0  0  0  0  0  0
    2.7135    2.7901   12.3653 C   0  0  0  0  0  0  0  0  0  0  0  0
    3.5446    3.8485   12.6469 C   0  0  0  0  0  0  0  0  0  0  0  0
    3.9997    4.0358   13.9287 C   0  0  0  0  0  0  0  0  0  0  0  0
    2.1553    2.5885   10.7119 S   0  0  0  0  0  0  0  0  0  0  0  0
    3.4188    3.1180    9.5753 C   0  0  0  0  0  0  0  0  0  0  0  0
    0.8967    3.3655   10.5304 O   0  0  0  0  0  0  0  0  0  0  0  0
    1.8772    1.1400   10.5060 O   0  0  0  0  0  0  0  0  0  0  0  0
    4.1475    0.7340   21.0536 N   0  0  0  0  0  0  0  0  0  0  0  0
    4.7325   -0.1456   21.1721 H   0  0  0  0  0  0  0  0  0  0  0  0
    3.4622    1.3163   22.1720 C   0  0  0  0  0  0  0  0  0  0  0  0
    4.3720    1.7007   23.2887 C   0  0  0  0  0  0  0  0  0  0  0  0
    3.5157    4.0562   23.4123 C   0  0  0  0  0  0  0  0  0  0  0  0
    4.7266    3.1752   23.2521 C   0  0  0  0  0  0  0  0  0  0  0  0
 32 33  1  0  0  0
 33 31  1  0  0  0
 31 30  1  0  0  0
 30 28  1  0  0  0
 28  1  1  0  0  0
  1  2  2  0  0  0
  2  3  1  0  0  0
  3  4  2  0  0  0
  4  5  1  0  0  0
  5  6  2  0  0  0
  6  7  1  0  0  0
  7 10  1  0  0  0
 10 11  1  0  0  0
 11 12  1  0  0  0
 12 13  1  0  0  0
 13 14  1  0  0  0
 13 15  1  0  0  0
 15 16  1  0  0  0
  7  8  1  0  0  0
  8  9  2  0  0  0
  5 18  1  0  0  0
 18 19  2  0  0  0
 19 20  1  0  0  0
 20 21  2  0  0  0
 21 22  1  0  0  0
 22 23  2  0  0  0
 21 24  1  0  0  0
 24 25  1  0  0  0
 24 26  2  0  0  0
 24 27  2  0  0  0
  9  1  1  0  0  0
 23 18  1  0  0  0
  8  4  1  0  0  0
 16 10  1  0  0  0
 28 29  1  0  0  0
 14 17  1  0  0  0
M  END
> <minimizedAffinity>
-8.52570

> <CNNscore>
0.5435234904

> <CNNaffinity>
7.0109772682

> <CNN_VS>
3.8106307983

> <CNNaffinity_variance>
0.3999280334

$$$$
[H]O[C@]1([H])C([H])([H])C([H])([H])[C@@]([H])(n2c([H])c(-c3c([H])c([H])c(S(=O)(=O)C([H])([H])[H])c([H])c3[H])c3c([H])nc(N([H])C([H])([H])C([H])([H])C([H])([H])C([H])([H])[H])nc32)C([H])([H])C1([H])[H]


 33 36  0  0  0  0  0  0  0  0999 V2000
    3.9475    2.0484   18.3463 C   0  0  0  0  0  0  0  0  0  0  0  0
    3.6445    1.1643   17.3938 N   0  0  0  0  0  0  0  0  0  0  0  0
    3.3279    1.5492   16.1523 C   0  0  0  0  0  0  0  0  0  0  0  0
    3.3103    2.8946   15.8351 C   0  0  0  0  0  0  0  0  0  0  0  0
    3.0337    3.5807   14.6837 C   0  0  0  0  0  0  0  0  0  0  0  0
    3.1845    4.9146   14.9891 C   0  0  0  0  0  0  0  0  0  0  0  0
    3.5387    5.0732   16.2675 N   0  0  0  0  0  0  0  0  0  0  0  0
    3.6195    3.8317   16.8005 C   0  0  0  0  0  0  0  0  0  0  0  0
    3.9262    3.3601   18.0215 N   0  0  0  0  0  0  0  0  0  0  0  0
    3.8044    6.2828   17.0204 C   0  0  0  0  0  0  0  0  0  0  0  0
    3.4600    6.1537   18.4634 C   0  0  0  0  0  0  0  0  0  0  0  0
    4.3870    7.0403   19.3061 C   0  0  0  0  0  0  0  0  0  0  0  0
    5.7505    6.3606   19.2589 C   0  0  0  0  0  0  0  0  0  0  0  0
    6.7541    7.1503   19.7745 O   0  0  0  0  0  0  0  0  0  0  0  0
    6.0898    5.9541   17.8368 C   0  0  0  0  0  0  0  0  0  0  0  0
    5.2261    6.7423   16.8817 C   0  0  0  0  0  0  0  0  0  0  0  0
    7.5088    6.5344   20.0204 H   0  0  0  0  0  0  0  0  0  0  0  0
    2.6546    3.0146   13.3963 C   0  0  0  0  0  0  0  0  0  0  0  0
    3.4166    3.2213   12.2859 C   0  0  0  0  0  0  0  0  0  0  0  0
    3.0139    2.6625   11.0816 C   0  0  0  0  0  0  0  0  0  0  0  0
    1.8571    1.9139   11.0348 C   0  0  0  0  0  0  0  0  0  0  0  0
    1.0980    1.7136   12.1634 C   0  0  0  0  0  0  0  0  0  0  0  0
    1.4929    2.2648   13.3574 C   0  0  0  0  0  0  0  0  0  0  0  0
    1.3144    1.1903    9.5288 S   0  0  0  0  0  0  0  0  0  0  0  0
    0.1665   -0.1275    9.8670 C   0  0  0  0  0  0  0  0  0  0  0  0
    2.5025    0.6999    8.7745 O   0  0  0  0  0  0  0  0  0  0  0  0
    0.6318    2.2538    8.7407 O   0  0  0  0  0  0  0  0  0  0  0  0
    4.2891    1.6970   19.6734 N   0  0  0  0  0  0  0  0  0  0  0  0
    4.1157    0.6951   19.9835 H   0  0  0  0  0  0  0  0  0  0  0  0
    4.8525    2.6584   20.5777 C   0  0  0  0  0  0  0  0  0  0  0  0
    5.7698    2.0554   21.5865 C   0  0  0  0  0  0  0  0  0  0  0  0
    7.3531    0.1616   21.1353 C   0  0  0  0  0  0  0  0  0  0  0  0
    5.9234    0.5586   21.3933 C   0  0  0  0  0  0  0  0  0  0  0  0
 32 33  1  0  0  0
 33 31  1  0  0  0
 31 30  1  0  0  0
 30 28  1  0  0  0
 28  1  1  0  0  0
  1  2  2  0  0  0
  2  3  1  0  0  0
  3  4  2  0  0  0
  4  5  1  0  0  0
  5  6  2  0  0  0
  6  7  1  0  0  0
  7 10  1  0  0  0
 10 11  1  0  0  0
 11 12  1  0  0  0
 12 13  1  0  0  0
 13 14  1  0  0  0
 13 15  1  0  0  0
 15 16  1  0  0  0
  7  8  1  0  0  0
  8  9  2  0  0  0
  5 18  1  0  0  0
 18 19  2  0  0  0
 19 20  1  0  0  0
 20 21  2  0  0  0
 21 22  1  0  0  0
 22 23  2  0  0  0
 21 24  1  0  0  0
 24 25  1  0  0  0
 24 26  2  0  0  0
 24 27  2  0  0  0
  9  1  1  0  0  0
 23 18  1  0  0  0
  8  4  1  0  0  0
 16 10  1  0  0  0
 28 29  1  0  0  0
 14 17  1  0  0  0
M  END
> <minimizedAffinity>
-7.22341

> <CNNscore>
0.5111240149

> <CNNaffinity>
6.7177648544

> <CNN_VS>
3.4336109161

> <CNNaffinity_variance>
0.3062379658

$$$$
[H]O[C@]1([H])C([H])([H])C([H])([H])[C@@]([H])(n2c([H])c(-c3c([H])c([H])c(S(=O)(=O)C([H])([H])[H])c([H])c3[H])c3c([H])nc(N([H])C([H])([H])C([H])([H])C([H])([H])C([H])([H])[H])nc32)C([H])([H])C1([H])[H]


 33 36  0  0  0  0  0  0  0  0999 V2000
    4.5443    2.0248   18.7690 C   0  0  0  0  0  0  0  0  0  0  0  0
    4.0752    1.1954   17.8349 N   0  0  0  0  0  0  0  0  0  0  0  0
    3.6950    1.6361   16.6304 C   0  0  0  0  0  0  0  0  0  0  0  0
    3.7853    2.9832   16.3332 C   0  0  0  0  0  0  0  0  0  0  0  0
    3.4826    3.7177   15.2188 C   0  0  0  0  0  0  0  0  0  0  0  0
    3.7913    5.0233   15.5272 C   0  0  0  0  0  0  0  0  0  0  0  0
    4.2662    5.1189   16.7723 N   0  0  0  0  0  0  0  0  0  0  0  0
    4.2671    3.8644   17.2804 C   0  0  0  0  0  0  0  0  0  0  0  0
    4.6271    3.3389   18.4642 N   0  0  0  0  0  0  0  0  0  0  0  0
    4.7141    6.2800   17.5150 C   0  0  0  0  0  0  0  0  0  0  0  0
    6.1974    6.4065   17.5524 C   0  0  0  0  0  0  0  0  0  0  0  0
    6.5968    7.8864   17.6274 C   0  0  0  0  0  0  0  0  0  0  0  0
    6.2790    8.4618   16.2522 C   0  0  0  0  0  0  0  0  0  0  0  0
    6.3626    9.8362   16.2209 O   0  0  0  0  0  0  0  0  0  0  0  0
    4.9016    8.0160   15.7978 C   0  0  0  0  0  0  0  0  0  0  0  0
    4.1134    7.5551   17.0002 C   0  0  0  0  0  0  0  0  0  0  0  0
    6.4822   10.0965   15.2580 H   0  0  0  0  0  0  0  0  0  0  0  0
    2.9414    3.2193   13.9616 C   0  0  0  0  0  0  0  0  0  0  0  0
    1.9257    2.3114   13.9444 C   0  0  0  0  0  0  0  0  0  0  0  0
    1.4444    1.8653   12.7221 C   0  0  0  0  0  0  0  0  0  0  0  0
    2.0016    2.3479   11.5571 C   0  0  0  0  0  0  0  0  0  0  0  0
    3.0262    3.2640   11.5896 C   0  0  0  0  0  0  0  0  0  0  0  0
    3.5056    3.7083   12.7972 C   0  0  0  0  0  0  0  0  0  0  0  0
    1.4195    1.8071    9.9903 S   0  0  0  0  0  0  0  0  0  0  0  0
    0.4360    0.3359   10.1824 C   0  0  0  0  0  0  0  0  0  0  0  0
    2.5890    1.5699    9.0977 O   0  0  0  0  0  0  0  0  0  0  0  0
    0.5774    2.8972    9.4241 O   0  0  0  0  0  0  0  0  0  0  0  0
    4.9599    1.6131   20.0572 N   0  0  0  0  0  0  0  0  0  0  0  0
    5.1370    0.5770   20.2158 H   0  0  0  0  0  0  0  0  0  0  0  0
    5.1388    2.5598   21.1209 C   0  0  0  0  0  0  0  0  0  0  0  0
    6.2679    2.2191   22.0327 C   0  0  0  0  0  0  0  0  0  0  0  0
    4.4115    1.9677   23.7023 C   0  0  0  0  0  0  0  0  0  0  0  0
    5.8652    2.3014   23.4929 C   0  0  0  0  0  0  0  0  0  0  0  0
 32 33  1  0  0  0
 33 31  1  0  0  0
 31 30  1  0  0  0
 30 28  1  0  0  0
 28  1  1  0  0  0
  1  2  2  0  0  0
  2  3  1  0  0  0
  3  4  2  0  0  0
  4  5  1  0  0  0
  5  6  2  0  0  0
  6  7  1  0  0  0
  7 10  1  0  0  0
 10 11  1  0  0  0
 11 12  1  0  0  0
 12 13  1  0  0  0
 13 14  1  0  0  0
 13 15  1  0  0  0
 15 16  1  0  0  0
  7  8  1  0  0  0
  8  9  2  0  0  0
  5 18  1  0  0  0
 18 19  2  0  0  0
 19 20  1  0  0  0
 20 21  2  0  0  0
 21 22  1  0  0  0
 22 23  2  0  0  0
 21 24  1  0  0  0
 24 25  1  0  0  0
 24 26  2  0  0  0
 24 27  2  0  0  0
  9  1  1  0  0  0
 23 18  1  0  0  0
  8  4  1  0  0  0
 16 10  1  0  0  0
 28 29  1  0  0  0
 14 17  1  0  0  0
M  END
> <minimizedAffinity>
-7.23889

> <CNNscore>
0.4820720553

> <CNNaffinity>
6.7994699478

> <CNN_VS>
3.2778344154

> <CNNaffinity_variance>
0.2525633872

$$$$
[H]O[C@]1([H])C([H])([H])C([H])([H])[C@@]([H])(n2c([H])c(-c3c([H])c([H])c(S(=O)(=O)C([H])([H])[H])c([H])c3[H])c3c([H])nc(N([H])C([H])([H])C([H])([H])C([H])([H])C([H])([H])[H])nc32)C([H])([H])C1([H])[H]


 33 36  0  0  0  0  0  0  0  0999 V2000
    4.5321    1.8542   19.7083 C   0  0  0  0  0  0  0  0  0  0  0  0
    4.3146    1.0782   18.6449 N   0  0  0  0  0  0  0  0  0  0  0  0
    3.9671    1.5914   17.4593 C   0  0  0  0  0  0  0  0  0  0  0  0
    3.8262    2.9595   17.3192 C   0  0  0  0  0  0  0  0  0  0  0  0
    3.4905    3.7620   16.2626 C   0  0  0  0  0  0  0  0  0  0  0  0
    3.5168    5.0527   16.7407 C   0  0  0  0  0  0  0  0  0  0  0  0
    3.8514    5.0746   18.0340 N   0  0  0  0  0  0  0  0  0  0  0  0
    4.0450    3.7868   18.4025 C   0  0  0  0  0  0  0  0  0  0  0  0
    4.3907    3.1897   19.5563 N   0  0  0  0  0  0  0  0  0  0  0  0
    4.0023    6.1946   18.9413 C   0  0  0  0  0  0  0  0  0  0  0  0
    3.9793    5.7867   20.3733 C   0  0  0  0  0  0  0  0  0  0  0  0
    4.8486    6.7396   21.2050 C   0  0  0  0  0  0  0  0  0  0  0  0
    6.2874    6.4143   20.8212 C   0  0  0  0  0  0  0  0  0  0  0  0
    7.1866    7.3380   21.3059 O   0  0  0  0  0  0  0  0  0  0  0  0
    6.4204    6.3032   19.3137 C   0  0  0  0  0  0  0  0  0  0  0  0
    5.2434    6.9915   18.6651 C   0  0  0  0  0  0  0  0  0  0  0  0
    8.0854    6.8894   21.3143 H   0  0  0  0  0  0  0  0  0  0  0  0
    3.1688    3.3367   14.9072 C   0  0  0  0  0  0  0  0  0  0  0  0
    3.7915    3.8916   13.8299 C   0  0  0  0  0  0  0  0  0  0  0  0
    3.4504    3.4545   12.5582 C   0  0  0  0  0  0  0  0  0  0  0  0
    2.4934    2.4728   12.4128 C   0  0  0  0  0  0  0  0  0  0  0  0
    1.8732    1.9217   13.5090 C   0  0  0  0  0  0  0  0  0  0  0  0
    2.2078    2.3514   14.7695 C   0  0  0  0  0  0  0  0  0  0  0  0
    2.0345    1.8931   10.8192 S   0  0  0  0  0  0  0  0  0  0  0  0
    3.3324    0.8787   10.1448 C   0  0  0  0  0  0  0  0  0  0  0  0
    1.7467    3.0651    9.9449 O   0  0  0  0  0  0  0  0  0  0  0  0
    0.7982    1.0779   10.9775 O   0  0  0  0  0  0  0  0  0  0  0  0
    4.9012    1.3651   20.9835 N   0  0  0  0  0  0  0  0  0  0  0  0
    4.2315    0.7022   21.4754 H   0  0  0  0  0  0  0  0  0  0  0  0
    6.1397    1.7482   21.5992 C   0  0  0  0  0  0  0  0  0  0  0  0
    5.9821    2.8063   22.6374 C   0  0  0  0  0  0  0  0  0  0  0  0
    3.9153    3.8825   23.5684 C   0  0  0  0  0  0  0  0  0  0  0  0
    4.7210    2.6149   23.4585 C   0  0  0  0  0  0  0  0  0  0  0  0
 32 33  1  0  0  0
 33 31  1  0  0  0
 31 30  1  0  0  0
 30 28  1  0  0  0
 28  1  1  0  0  0
  1  2  2  0  0  0
  2  3  1  0  0  0
  3  4  2  0  0  0
  4  5  1  0  0  0
  5  6  2  0  0  0
  6  7  1  0  0  0
  7 10  1  0  0  0
 10 11  1  0  0  0
 11 12  1  0  0  0
 12 13  1  0  0  0
 13 14  1  0  0  0
 13 15  1  0  0  0
 15 16  1  0  0  0
  7  8  1  0  0  0
  8  9  2  0  0  0
  5 18  1  0  0  0
 18 19  2  0  0  0
 19 20  1  0  0  0
 20 21  2  0  0  0
 21 22  1  0  0  0
 22 23  2  0  0  0
 21 24  1  0  0  0
 24 25  1  0  0  0
 24 26  2  0  0  0
 24 27  2  0  0  0
  9  1  1  0  0  0
 23 18  1  0  0  0
  8  4  1  0  0  0
 16 10  1  0  0  0
 28 29  1  0  0  0
 14 17  1  0  0  0
M  END
> <minimizedAffinity>
-8.04437

> <CNNscore>
0.3633553386

> <CNNaffinity>
6.8553438187

> <CNN_VS>
2.4909257889

> <CNNaffinity_variance>
0.2757087350

$$$$
[H]O[C@]1([H])C([H])([H])C([H])([H])[C@@]([H])(n2c([H])c(-c3c([H])c([H])c(S(=O)(=O)C([H])([H])[H])c([H])c3[H])c3c([H])nc(N([H])C([H])([H])C([H])([H])C([H])([H])C([H])([H])[H])nc32)C([H])([H])C1([H])[H]


 33 36  0  0  0  0  0  0  0  0999 V2000
    3.8834    1.9862   17.5479 C   0  0  0  0  0  0  0  0  0  0  0  0
    3.1449    1.5945   16.5079 N   0  0  0  0  0  0  0  0  0  0  0  0
    2.8380    2.4300   15.5091 C   0  0  0  0  0  0  0  0  0  0  0  0
    3.2914    3.7355   15.5436 C   0  0  0  0  0  0  0  0  0  0  0  0
    3.1475    4.7985   14.6936 C   0  0  0  0  0  0  0  0  0  0  0  0
    3.8326    5.8438   15.2709 C   0  0  0  0  0  0  0  0  0  0  0  0
    4.3852    5.4694   16.4282 N   0  0  0  0  0  0  0  0  0  0  0  0
    4.0575    4.1684   16.6073 C   0  0  0  0  0  0  0  0  0  0  0  0
    4.3196    3.2653   17.5679 N   0  0  0  0  0  0  0  0  0  0  0  0
    5.1869    6.2262   17.3689 C   0  0  0  0  0  0  0  0  0  0  0  0
    5.2272    7.6814   17.0556 C   0  0  0  0  0  0  0  0  0  0  0  0
    5.3791    8.4933   18.3491 C   0  0  0  0  0  0  0  0  0  0  0  0
    4.0369    8.3746   19.0617 C   0  0  0  0  0  0  0  0  0  0  0  0
    4.0779    8.8551   20.3518 O   0  0  0  0  0  0  0  0  0  0  0  0
    3.5631    6.9331   19.0604 C   0  0  0  0  0  0  0  0  0  0  0  0
    4.7415    6.0293   18.7883 C   0  0  0  0  0  0  0  0  0  0  0  0
    3.1299    9.0577   20.6149 H   0  0  0  0  0  0  0  0  0  0  0  0
    2.4161    4.8202   13.4342 C   0  0  0  0  0  0  0  0  0  0  0  0
    1.1631    5.3499   13.3581 C   0  0  0  0  0  0  0  0  0  0  0  0
    0.5057    5.3468   12.1365 C   0  0  0  0  0  0  0  0  0  0  0  0
    1.1314    4.8104   11.0312 C   0  0  0  0  0  0  0  0  0  0  0  0
    2.3962    4.2793   11.1227 C   0  0  0  0  0  0  0  0  0  0  0  0
    3.0505    4.2804   12.3299 C   0  0  0  0  0  0  0  0  0  0  0  0
    0.3316    4.7882    9.4673 S   0  0  0  0  0  0  0  0  0  0  0  0
   -0.1425    6.4401    9.0039 C   0  0  0  0  0  0  0  0  0  0  0  0
   -0.8489    3.8818    9.5430 O   0  0  0  0  0  0  0  0  0  0  0  0
    1.3039    4.2532    8.4740 O   0  0  0  0  0  0  0  0  0  0  0  0
    4.2371    1.1457   18.6295 N   0  0  0  0  0  0  0  0  0  0  0  0
    4.5887    0.1677   18.4058 H   0  0  0  0  0  0  0  0  0  0  0  0
    4.1272    1.5933   19.9886 C   0  0  0  0  0  0  0  0  0  0  0  0
    5.4264    1.5902   20.7196 C   0  0  0  0  0  0  0  0  0  0  0  0
    4.4627    3.7027   21.6711 C   0  0  0  0  0  0  0  0  0  0  0  0
    5.7195    2.9312   21.3654 C   0  0  0  0  0  0  0  0  0  0  0  0
 32 33  1  0  0  0
 33 31  1  0  0  0
 31 30  1  0  0  0
 30 28  1  0  0  0
 28  1  1  0  0  0
  1  2  2  0  0  0
  2  3  1  0  0  0
  3  4  2  0  0  0
  4  5  1  0  0  0
  5  6  2  0  0  0
  6  7  1  0  0  0
  7 10  1  0  0  0
 10 11  1  0  0  0
 11 12  1  0  0  0
 12 13  1  0  0  0
 13 14  1  0  0  0
 13 15  1  0  0  0
 15 16  1  0  0  0
  7  8  1  0  0  0
  8  9  2  0  0  0
  5 18  1  0  0  0
 18 19  2  0  0  0
 19 20  1  0  0  0
 20 21  2  0  0  0
 21 22  1  0  0  0
 22 23  2  0  0  0
 21 24  1  0  0  0
 24 25  1  0  0  0
 24 26  2  0  0  0
 24 27  2  0  0  0
  9  1  1  0  0  0
 23 18  1  0  0  0
  8  4  1  0  0  0
 16 10  1  0  0  0
 28 29  1  0  0  0
 14 17  1  0  0  0
M  END
> <minimizedAffinity>
-6.73828

> <CNNscore>
0.3410566151

> <CNNaffinity>
6.5271787643

> <CNN_VS>
2.2261373997

> <CNNaffinity_variance>
0.6064208746

$$$$
[H]O[C@]1([H])C([H])([H])C([H])([H])[C@@]([H])(n2c([H])c(-c3c([H])c([H])c(S(=O)(=O)C([H])([H])[H])c([H])c3[H])c3c([H])nc(N([H])C([H])([H])C([H])([H])C([H])([H])C([H])([H])[H])nc32)C([H])([H])C1([H])[H]


 33 36  0  0  0  0  0  0  0  0999 V2000
    3.5359    1.9185   17.3379 C   0  0  0  0  0  0  0  0  0  0  0  0
    3.3629    1.3106   16.1627 N   0  0  0  0  0  0  0  0  0  0  0  0
    3.3373    1.9955   15.0139 C   0  0  0  0  0  0  0  0  0  0  0  0
    3.4926    3.3691   15.0309 C   0  0  0  0  0  0  0  0  0  0  0  0
    3.5120    4.3206   14.0474 C   0  0  0  0  0  0  0  0  0  0  0  0
    3.7042    5.5250   14.6859 C   0  0  0  0  0  0  0  0  0  0  0  0
    3.8027    5.3530   16.0071 N   0  0  0  0  0  0  0  0  0  0  0  0
    3.6734    4.0247   16.2323 C   0  0  0  0  0  0  0  0  0  0  0  0
    3.6865    3.2616   17.3390 N   0  0  0  0  0  0  0  0  0  0  0  0
    4.0060    6.3245   17.0633 C   0  0  0  0  0  0  0  0  0  0  0  0
    3.5018    5.8573   18.3843 C   0  0  0  0  0  0  0  0  0  0  0  0
    4.3464    6.4636   19.5133 C   0  0  0  0  0  0  0  0  0  0  0  0
    5.6937    5.7551   19.4364 C   0  0  0  0  0  0  0  0  0  0  0  0
    6.6488    6.3452   20.2341 O   0  0  0  0  0  0  0  0  0  0  0  0
    6.1806    5.6992   18.0002 C   0  0  0  0  0  0  0  0  0  0  0  0
    5.4427    6.7384   17.1910 C   0  0  0  0  0  0  0  0  0  0  0  0
    7.3600    5.6538   20.3930 H   0  0  0  0  0  0  0  0  0  0  0  0
    3.3583    4.1034   12.6153 C   0  0  0  0  0  0  0  0  0  0  0  0
    2.1594    3.7318   12.0855 C   0  0  0  0  0  0  0  0  0  0  0  0
    2.0625    3.5355   10.7155 C   0  0  0  0  0  0  0  0  0  0  0  0
    3.1761    3.7199    9.9239 C   0  0  0  0  0  0  0  0  0  0  0  0
    4.3796    4.0951   10.4723 C   0  0  0  0  0  0  0  0  0  0  0  0
    4.4799    4.2904   11.8277 C   0  0  0  0  0  0  0  0  0  0  0  0
    3.0932    3.4810    8.1855 S   0  0  0  0  0  0  0  0  0  0  0  0
    2.0372    2.0975    7.8120 C   0  0  0  0  0  0  0  0  0  0  0  0
    4.4727    3.2723    7.6617 O   0  0  0  0  0  0  0  0  0  0  0  0
    2.5192    4.7193    7.5895 O   0  0  0  0  0  0  0  0  0  0  0  0
    3.5712    1.2441   18.5810 N   0  0  0  0  0  0  0  0  0  0  0  0
    2.8106    0.5288   18.7811 H   0  0  0  0  0  0  0  0  0  0  0  0
    4.5990    1.5124   19.5459 C   0  0  0  0  0  0  0  0  0  0  0  0
    4.1978    2.5137   20.5750 C   0  0  0  0  0  0  0  0  0  0  0  0
    3.2005    0.8085   22.1224 C   0  0  0  0  0  0  0  0  0  0  0  0
    4.2000    1.9253   21.9731 C   0  0  0  0  0  0  0  0  0  0  0  0
 32 33  1  0  0  0
 33 31  1  0  0  0
 31 30  1  0  0  0
 30 28  1  0  0  0
 28  1  1  0  0  0
  1  2  2  0  0  0
  2  3  1  0  0  0
  3  4  2  0  0  0
  4  5  1  0  0  0
  5  6  2  0  0  0
  6  7  1  0  0  0
  7 10  1  0  0  0
 10 11  1  0  0  0
 11 12  1  0  0  0
 12 13  1  0  0  0
 13 14  1  0  0  0
 13 15  1  0  0  0
 15 16  1  0  0  0
  7  8  1  0  0  0
  8  9  2  0  0  0
  5 18  1  0  0  0
 18 19  2  0  0  0
 19 20  1  0  0  0
 20 21  2  0  0  0
 21 22  1  0  0  0
 22 23  2  0  0  0
 21 24  1  0  0  0
 24 25  1  0  0  0
 24 26  2  0  0  0
 24 27  2  0  0  0
  9  1  1  0  0  0
 23 18  1  0  0  0
  8  4  1  0  0  0
 16 10  1  0  0  0
 28 29  1  0  0  0
 14 17  1  0  0  0
M  END
> <minimizedAffinity>
-6.64082

> <CNNscore>
0.3247104883

> <CNNaffinity>
6.5122175217

> <CNN_VS>
2.1145853996

> <CNNaffinity_variance>
0.1888465583

$$$$
[H]O[C@]1([H])C([H])([H])C([H])([H])[C@@]([H])(n2c([H])c(-c3c([H])c([H])c(S(=O)(=O)C([H])([H])[H])c([H])c3[H])c3c([H])nc(N([H])C([H])([H])C([H])([H])C([H])([H])C([H])([H])[H])nc32)C([H])([H])C1([H])[H]


 33 36  0  0  0  0  0  0  0  0999 V2000
    3.5392    2.2506   15.7924 C   0  0  0  0  0  0  0  0  0  0  0  0
    2.7795    1.3267   15.2011 N   0  0  0  0  0  0  0  0  0  0  0  0
    2.2136    1.5404   14.0079 C   0  0  0  0  0  0  0  0  0  0  0  0
    2.4131    2.7454   13.3603 C   0  0  0  0  0  0  0  0  0  0  0  0
    1.9793    3.2470   12.1631 C   0  0  0  0  0  0  0  0  0  0  0  0
    2.5131    4.5121   12.0640 C   0  0  0  0  0  0  0  0  0  0  0  0
    3.2490    4.8040   13.1403 N   0  0  0  0  0  0  0  0  0  0  0  0
    3.1945    3.7197   13.9484 C   0  0  0  0  0  0  0  0  0  0  0  0
    3.7254    3.4237   15.1475 N   0  0  0  0  0  0  0  0  0  0  0  0
    3.9907    6.0055   13.4673 C   0  0  0  0  0  0  0  0  0  0  0  0
    4.0102    6.9946   12.3543 C   0  0  0  0  0  0  0  0  0  0  0  0
    4.0860    8.4196   12.9192 C   0  0  0  0  0  0  0  0  0  0  0  0
    2.7171    8.6846   13.5349 C   0  0  0  0  0  0  0  0  0  0  0  0
    2.6902    9.8355   14.2909 O   0  0  0  0  0  0  0  0  0  0  0  0
    2.2781    7.5011   14.3771 C   0  0  0  0  0  0  0  0  0  0  0  0
    3.4883    6.6652   14.7179 C   0  0  0  0  0  0  0  0  0  0  0  0
    1.7270   10.1115   14.3626 H   0  0  0  0  0  0  0  0  0  0  0  0
    1.1245    2.5787   11.1914 C   0  0  0  0  0  0  0  0  0  0  0  0
    1.2672    1.2499   10.9264 C   0  0  0  0  0  0  0  0  0  0  0  0
    0.4302    0.6580    9.9916 C   0  0  0  0  0  0  0  0  0  0  0  0
   -0.5232    1.4234    9.3544 C   0  0  0  0  0  0  0  0  0  0  0  0
   -0.6558    2.7633    9.6320 C   0  0  0  0  0  0  0  0  0  0  0  0
    0.1705    3.3532   10.5564 C   0  0  0  0  0  0  0  0  0  0  0  0
   -1.6014    0.7101    8.1650 S   0  0  0  0  0  0  0  0  0  0  0  0
   -0.7833   -0.6334    7.3317 C   0  0  0  0  0  0  0  0  0  0  0  0
   -2.0287    1.7683    7.2065 O   0  0  0  0  0  0  0  0  0  0  0  0
   -2.7924    0.1914    8.8934 O   0  0  0  0  0  0  0  0  0  0  0  0
    4.1608    2.0776   17.0514 N   0  0  0  0  0  0  0  0  0  0  0  0
    5.0310    1.4687   17.0976 H   0  0  0  0  0  0  0  0  0  0  0  0
    3.6381    2.7021   18.2331 C   0  0  0  0  0  0  0  0  0  0  0  0
    4.5013    2.5126   19.4338 C   0  0  0  0  0  0  0  0  0  0  0  0
    5.6401    3.6777   21.3423 C   0  0  0  0  0  0  0  0  0  0  0  0
    5.0100    3.8319   19.9831 C   0  0  0  0  0  0  0  0  0  0  0  0
 32 33  1  0  0  0
 33 31  1  0  0  0
 31 30  1  0  0  0
 30 28  1  0  0  0
 28  1  1  0  0  0
  1  2  2  0  0  0
  2  3  1  0  0  0
  3  4  2  0  0  0
  4  5  1  0  0  0
  5  6  2  0  0  0
  6  7  1  0  0  0
  7 10  1  0  0  0
 10 11  1  0  0  0
 11 12  1  0  0  0
 12 13  1  0  0  0
 13 14  1  0  0  0
 13 15  1  0  0  0
 15 16  1  0  0  0
  7  8  1  0  0  0
  8  9  2  0  0  0
  5 18  1  0  0  0
 18 19  2  0  0  0
 19 20  1  0  0  0
 20 21  2  0  0  0
 21 22  1  0  0  0
 22 23  2  0  0  0
 21 24  1  0  0  0
 24 25  1  0  0  0
 24 26  2  0  0  0
 24 27  2  0  0  0
  9  1  1  0  0  0
 23 18  1  0  0  0
  8  4  1  0  0  0
 16 10  1  0  0  0
 28 29  1  0  0  0
 14 17  1  0  0  0
M  END
> <minimizedAffinity>
-5.60204

> <CNNscore>
0.3055971265

> <CNNaffinity>
6.1604433060

> <CNN_VS>
1.8826137781

> <CNNaffinity_variance>
0.6047552228

$$$$
[H]O[C@]1([H])C([H])([H])C([H])([H])[C@@]([H])(n2c([H])c(-c3c([H])c([H])c(S(=O)(=O)C([H])([H])[H])c([H])c3[H])c3c([H])nc(N([H])C([H])([H])C([H])([H])C([H])([H])C([H])([H])[H])nc32)C([H])([H])C1([H])[H]


 33 36  0  0  0  0  0  0  0  0999 V2000
    3.9679    1.7853   18.2574 C   0  0  0  0  0  0  0  0  0  0  0  0
    3.1843    1.6501   17.1859 N   0  0  0  0  0  0  0  0  0  0  0  0
    3.0090    2.6483   16.3126 C   0  0  0  0  0  0  0  0  0  0  0  0
    3.6504    3.8562   16.5142 C   0  0  0  0  0  0  0  0  0  0  0  0
    3.6692    5.0333   15.8162 C   0  0  0  0  0  0  0  0  0  0  0  0
    4.4988    5.8791   16.5174 C   0  0  0  0  0  0  0  0  0  0  0  0
    4.9847    5.2752   17.6056 N   0  0  0  0  0  0  0  0  0  0  0  0
    4.4673    4.0246   17.6143 C   0  0  0  0  0  0  0  0  0  0  0  0
    4.5885    2.9718   18.4414 N   0  0  0  0  0  0  0  0  0  0  0  0
    5.8854    5.7723   18.6265 C   0  0  0  0  0  0  0  0  0  0  0  0
    6.0849    7.2462   18.5545 C   0  0  0  0  0  0  0  0  0  0  0  0
    6.3532    7.8092   19.9569 C   0  0  0  0  0  0  0  0  0  0  0  0
    5.0202    7.7203   20.6907 C   0  0  0  0  0  0  0  0  0  0  0  0
    5.1405    7.9711   22.0396 O   0  0  0  0  0  0  0  0  0  0  0  0
    4.3854    6.3595   20.4713 C   0  0  0  0  0  0  0  0  0  0  0  0
    5.4479    5.3909   20.0103 C   0  0  0  0  0  0  0  0  0  0  0  0
    4.2268    8.2291   22.3680 H   0  0  0  0  0  0  0  0  0  0  0  0
    2.9548    5.3316   14.5825 C   0  0  0  0  0  0  0  0  0  0  0  0
    3.5667    5.2164   13.3706 C   0  0  0  0  0  0  0  0  0  0  0  0
    2.8453    5.5129   12.2232 C   0  0  0  0  0  0  0  0  0  0  0  0
    1.5314    5.9156   12.3337 C   0  0  0  0  0  0  0  0  0  0  0  0
    0.9268    6.0273   13.5633 C   0  0  0  0  0  0  0  0  0  0  0  0
    1.6370    5.7348   14.7014 C   0  0  0  0  0  0  0  0  0  0  0  0
    0.5852    6.2997   10.9042 S   0  0  0  0  0  0  0  0  0  0  0  0
    0.8273    5.0486    9.6612 C   0  0  0  0  0  0  0  0  0  0  0  0
    0.9862    7.6468   10.4089 O   0  0  0  0  0  0  0  0  0  0  0  0
   -0.8478    6.3272   11.3090 O   0  0  0  0  0  0  0  0  0  0  0  0
    4.1884    0.7642   19.2114 N   0  0  0  0  0  0  0  0  0  0  0  0
    4.8858   -0.0008   18.9697 H   0  0  0  0  0  0  0  0  0  0  0  0
    3.4955    0.7556   20.4681 C   0  0  0  0  0  0  0  0  0  0  0  0
    4.4074    0.7047   21.6464 C   0  0  0  0  0  0  0  0  0  0  0  0
    6.8985    1.0013   21.5910 C   0  0  0  0  0  0  0  0  0  0  0  0
    5.5584    1.6845   21.5181 C   0  0  0  0  0  0  0  0  0  0  0  0
 32 33  1  0  0  0
 33 31  1  0  0  0
 31 30  1  0  0  0
 30 28  1  0  0  0
 28  1  1  0  0  0
  1  2  2  0  0  0
  2  3  1  0  0  0
  3  4  2  0  0  0
  4  5  1  0  0  0
  5  6  2  0  0  0
  6  7  1  0  0  0
  7 10  1  0  0  0
 10 11  1  0  0  0
 11 12  1  0  0  0
 12 13  1  0  0  0
 13 14  1  0  0  0
 13 15  1  0  0  0
 15 16  1  0  0  0
  7  8  1  0  0  0
  8  9  2  0  0  0
  5 18  1  0  0  0
 18 19  2  0  0  0
 19 20  1  0  0  0
 20 21  2  0  0  0
 21 22  1  0  0  0
 22 23  2  0  0  0
 21 24  1  0  0  0
 24 25  1  0  0  0
 24 26  2  0  0  0
 24 27  2  0  0  0
  9  1  1  0  0  0
 23 18  1  0  0  0
  8  4  1  0  0  0
 16 10  1  0  0  0
 28 29  1  0  0  0
 14 17  1  0  0  0
M  END
> <minimizedAffinity>
-7.29019

> <CNNscore>
0.2807570398

> <CNNaffinity>
6.3884382248

> <CNN_VS>
1.7935990095

> <CNNaffinity_variance>
0.4146779478

$$$$
[H]C1=C([H])C([H])(F)C([H])([H])C([H])=C1N([H])C(=O)C1(C(=O)N([H])c2c([H])c([H])c(Oc3c([H])c([H])nc4c([H])c(OC([H])([H])C([H])([H])C([H])([H])N5C([H])([H])C([H])([H])N(C([H])([H])[H])C([H])([H])C5([H])[H])c(OC([H])([H])[H])c([H])c34)c(F)c2[H])C([H])([H])C1([H])[H]


 49 54  0  0  0  0  0  0  0  0999 V2000
    4.8379    2.8581   21.1937 C   0  0  0  0  0  0  0  0  0  0  0  0
    3.8320    3.7845   20.9701 C   0  0  0  0  0  0  0  0  0  0  0  0
    4.0400    5.1107   21.1861 C   0  0  0  0  0  0  0  0  0  0  0  0
    5.2572    5.6482   21.6431 C   0  0  0  0  0  0  0  0  0  0  0  0
    6.2395    4.7217   21.8597 C   0  0  0  0  0  0  0  0  0  0  0  0
    6.0352    3.3429   21.6376 C   0  0  0  0  0  0  0  0  0  0  0  0
    7.1039    2.5041   21.8569 F   0  0  0  0  0  0  0  0  0  0  0  0
    5.3651    7.0248   21.8284 N   0  0  0  0  0  0  0  0  0  0  0  0
    6.2384    7.8814   21.1575 C   0  0  0  0  0  0  0  0  0  0  0  0
    7.0880    7.5616   20.2641 O   0  0  0  0  0  0  0  0  0  0  0  0
    4.7263    7.4845   22.5484 H   0  0  0  0  0  0  0  0  0  0  0  0
    6.2382    9.3622   21.4568 C   0  0  0  0  0  0  0  0  0  0  0  0
    7.3927    9.9362   22.1488 C   0  0  0  0  0  0  0  0  0  0  0  0
    6.1685    9.7050   22.9407 C   0  0  0  0  0  0  0  0  0  0  0  0
    5.3967   10.2021   20.5754 C   0  0  0  0  0  0  0  0  0  0  0  0
    4.3236    9.7048   20.1031 O   0  0  0  0  0  0  0  0  0  0  0  0
    5.6917   11.5159   20.2135 N   0  0  0  0  0  0  0  0  0  0  0  0
    6.5188   12.0099   20.5588 H   0  0  0  0  0  0  0  0  0  0  0  0
    4.8428   12.2868   19.3273 C   0  0  0  0  0  0  0  0  0  0  0  0
    5.0504   12.1841   18.0341 C   0  0  0  0  0  0  0  0  0  0  0  0
    4.2917   12.8886   17.0194 C   0  0  0  0  0  0  0  0  0  0  0  0
    3.1669   13.7131   17.4906 C   0  0  0  0  0  0  0  0  0  0  0  0
    1.9779   13.2194   16.8875 F   0  0  0  0  0  0  0  0  0  0  0  0
    3.0020   13.7826   18.9383 C   0  0  0  0  0  0  0  0  0  0  0  0
    3.7699   13.1272   19.7738 C   0  0  0  0  0  0  0  0  0  0  0  0
    4.6768    1.5198   20.9876 O   0  0  0  0  0  0  0  0  0  0  0  0
    4.5369    2.8721   17.0976 C   0  0  0  0  0  0  0  0  0  0  0  0
    4.5668    2.4088   18.3870 C   0  0  0  0  0  0  0  0  0  0  0  0
    3.7782    1.3454   18.7555 C   0  0  0  0  0  0  0  0  0  0  0  0
    3.8395    0.9091   20.0654 C   0  0  0  0  0  0  0  0  0  0  0  0
    3.0547   -0.1447   20.4303 C   0  0  0  0  0  0  0  0  0  0  0  0
    2.2265   -0.7386   19.4689 C   0  0  0  0  0  0  0  0  0  0  0  0
    2.2015   -0.2806   18.2092 N   0  0  0  0  0  0  0  0  0  0  0  0
    2.9698    0.7742   17.7974 C   0  0  0  0  0  0  0  0  0  0  0  0
    2.9314    1.2274   16.5069 C   0  0  0  0  0  0  0  0  0  0  0  0
    3.7266    2.3141   16.0925 C   0  0  0  0  0  0  0  0  0  0  0  0
    5.8576    4.7737   17.7302 C   0  0  0  0  0  0  0  0  0  0  0  0
    5.3270    3.9400   16.7183 O   0  0  0  0  0  0  0  0  0  0  0  0
    3.7389    2.7934   14.8855 O   0  0  0  0  0  0  0  0  0  0  0  0
    3.7393    3.2711   13.6928 C   0  0  0  0  0  0  0  0  0  0  0  0
    3.5444    4.7910   13.5801 C   0  0  0  0  0  0  0  0  0  0  0  0
    2.8810    5.1646   12.2810 C   0  0  0  0  0  0  0  0  0  0  0  0
    1.8872    6.2245   12.4866 N   0  0  0  0  0  0  0  0  0  0  0  0
    0.8472    5.9844   11.5078 C   0  0  0  0  0  0  0  0  0  0  0  0
   -0.4022    6.7710   11.8032 C   0  0  0  0  0  0  0  0  0  0  0  0
   -0.8374    6.3971   13.1304 N   0  0  0  0  0  0  0  0  0  0  0  0
   -2.1772    6.8786   13.4225 C   0  0  0  0  0  0  0  0  0  0  0  0
    0.1403    6.9004   14.0732 C   0  0  0  0  0  0  0  0  0  0  0  0
    1.4352    6.1540   13.8335 C   0  0  0  0  0  0  0  0  0  0  0  0
 37 38  1  0  0  0
 38 27  1  0  0  0
 27 28  2  0  0  0
 28 29  1  0  0  0
 29 30  2  0  0  0
 30 26  1  0  0  0
 26  1  1  0  0  0
  1  2  2  0  0  0
  2  3  1  0  0  0
  3  4  2  0  0  0
  4  8  1  0  0  0
  8  9  1  0  0  0
  9 10  2  0  0  0
  9 12  1  0  0  0
 12 13  1  0  0  0
 13 14  1  0  0  0
 12 15  1  0  0  0
 15 16  2  0  0  0
 15 17  1  0  0  0
 17 19  1  0  0  0
 19 20  2  0  0  0
 20 21  1  0  0  0
 21 22  1  0  0  0
 22 23  1  0  0  0
 22 24  1  0  0  0
 24 25  2  0  0  0
  4  5  1  0  0  0
  5  6  2  0  0  0
  6  7  1  0  0  0
 30 31  1  0  0  0
 31 32  2  0  0  0
 32 33  1  0  0  0
 33 34  2  0  0  0
 34 35  1  0  0  0
 35 36  2  0  0  0
 36 39  1  0  0  0
 39 40  1  0  0  0
 40 41  1  0  0  0
 41 42  1  0  0  0
 42 43  1  0  0  0
 43 44  1  0  0  0
 44 45  1  0  0  0
 45 46  1  0  0  0
 46 47  1  0  0  0
 46 48  1  0  0  0
 48 49  1  0  0  0
 36 27  1  0  0  0
 49 43  1  0  0  0
 34 29  1  0  0  0
  6  1  1  0  0  0
 14 12  1  0  0  0
 25 19  1  0  0  0
  8 11  1  0  0  0
 17 18  1  0  0  0
M  END
> <minimizedAffinity>
-9.60599

> <CNNscore>
0.6413420439

> <CNNaffinity>
7.5652818680

> <CNN_VS>
4.8519334793

> <CNNaffinity_variance>
0.2366492003

$$$$
[H]C1=C([H])C([H])(F)C([H])([H])C([H])=C1N([H])C(=O)C1(C(=O)N([H])c2c([H])c([H])c(Oc3c([H])c([H])nc4c([H])c(OC([H])([H])C([H])([H])C([H])([H])N5C([H])([H])C([H])([H])N(C([H])([H])[H])C([H])([H])C5([H])[H])c(OC([H])([H])[H])c([H])c34)c(F)c2[H])C([H])([H])C1([H])[H]


 49 54  0  0  0  0  0  0  0  0999 V2000
    2.5999    2.6299   14.5731 C   0  0  0  0  0  0  0  0  0  0  0  0
    1.8766    1.7676   13.7647 C   0  0  0  0  0  0  0  0  0  0  0  0
    0.8868    2.2304   12.9555 C   0  0  0  0  0  0  0  0  0  0  0  0
    0.5164    3.5848   12.8673 C   0  0  0  0  0  0  0  0  0  0  0  0
    1.2386    4.4228   13.6713 C   0  0  0  0  0  0  0  0  0  0  0  0
    2.2690    3.9537   14.5141 C   0  0  0  0  0  0  0  0  0  0  0  0
    2.9523    4.8904   15.2555 F   0  0  0  0  0  0  0  0  0  0  0  0
   -0.5114    3.9531   12.0019 N   0  0  0  0  0  0  0  0  0  0  0  0
   -1.4203    4.9938   12.1964 C   0  0  0  0  0  0  0  0  0  0  0  0
   -1.4745    5.7860   13.1921 O   0  0  0  0  0  0  0  0  0  0  0  0
   -0.6293    3.3969   11.0994 H   0  0  0  0  0  0  0  0  0  0  0  0
   -2.4823    5.2852   11.1622 C   0  0  0  0  0  0  0  0  0  0  0  0
   -3.7940    5.7471   11.6175 C   0  0  0  0  0  0  0  0  0  0  0  0
   -3.6751    4.3365   11.1993 C   0  0  0  0  0  0  0  0  0  0  0  0
   -1.9926    5.6298    9.8088 C   0  0  0  0  0  0  0  0  0  0  0  0
   -0.8041    5.3023    9.4892 O   0  0  0  0  0  0  0  0  0  0  0  0
   -2.7412    6.2978    8.8405 N   0  0  0  0  0  0  0  0  0  0  0  0
   -3.7120    6.5828    8.9944 H   0  0  0  0  0  0  0  0  0  0  0  0
   -2.2039    6.6310    7.5364 C   0  0  0  0  0  0  0  0  0  0  0  0
   -1.7409    7.8471    7.3550 C   0  0  0  0  0  0  0  0  0  0  0  0
   -1.1746    8.3363    6.1134 C   0  0  0  0  0  0  0  0  0  0  0  0
   -1.0517    7.3630    5.0159 C   0  0  0  0  0  0  0  0  0  0  0  0
    0.3229    7.2675    4.6657 F   0  0  0  0  0  0  0  0  0  0  0  0
   -1.5918    6.0359    5.2896 C   0  0  0  0  0  0  0  0  0  0  0  0
   -2.1160    5.7057    6.4443 C   0  0  0  0  0  0  0  0  0  0  0  0
    3.6028    2.2123   15.3972 O   0  0  0  0  0  0  0  0  0  0  0  0
    5.2344    3.8976   18.7851 C   0  0  0  0  0  0  0  0  0  0  0  0
    4.6865    3.3194   17.6700 C   0  0  0  0  0  0  0  0  0  0  0  0
    4.0077    2.1290   17.7740 C   0  0  0  0  0  0  0  0  0  0  0  0
    3.4699    1.5806   16.6250 C   0  0  0  0  0  0  0  0  0  0  0  0
    2.7985    0.3983   16.7293 C   0  0  0  0  0  0  0  0  0  0  0  0
    2.6807   -0.2062   17.9878 C   0  0  0  0  0  0  0  0  0  0  0  0
    3.2190    0.3645   19.0750 N   0  0  0  0  0  0  0  0  0  0  0  0
    3.9022    1.5488   19.0189 C   0  0  0  0  0  0  0  0  0  0  0  0
    4.4444    2.1165   20.1397 C   0  0  0  0  0  0  0  0  0  0  0  0
    5.1458    3.3364   20.0717 C   0  0  0  0  0  0  0  0  0  0  0  0
    5.7765    5.8543   17.5051 C   0  0  0  0  0  0  0  0  0  0  0  0
    5.9177    5.0946   18.6897 O   0  0  0  0  0  0  0  0  0  0  0  0
    5.6837    3.9291   21.0945 O   0  0  0  0  0  0  0  0  0  0  0  0
    6.2054    4.5217   22.1082 C   0  0  0  0  0  0  0  0  0  0  0  0
    5.9425    6.0321   22.2093 C   0  0  0  0  0  0  0  0  0  0  0  0
    7.2133    6.7938   22.4774 C   0  0  0  0  0  0  0  0  0  0  0  0
    6.9301    8.0600   23.1628 N   0  0  0  0  0  0  0  0  0  0  0  0
    7.8499    8.1174   24.2799 C   0  0  0  0  0  0  0  0  0  0  0  0
    7.9254    9.4953   24.8823 C   0  0  0  0  0  0  0  0  0  0  0  0
    8.3266   10.3998   23.8280 N   0  0  0  0  0  0  0  0  0  0  0  0
    8.6995   11.7073   24.3416 C   0  0  0  0  0  0  0  0  0  0  0  0
    7.2375   10.4785   22.8762 C   0  0  0  0  0  0  0  0  0  0  0  0
    7.0966    9.1183   22.2271 C   0  0  0  0  0  0  0  0  0  0  0  0
 37 38  1  0  0  0
 38 27  1  0  0  0
 27 28  2  0  0  0
 28 29  1  0  0  0
 29 30  2  0  0  0
 30 26  1  0  0  0
 26  1  1  0  0  0
  1  2  2  0  0  0
  2  3  1  0  0  0
  3  4  2  0  0  0
  4  8  1  0  0  0
  8  9  1  0  0  0
  9 10  2  0  0  0
  9 12  1  0  0  0
 12 13  1  0  0  0
 13 14  1  0  0  0
 12 15  1  0  0  0
 15 16  2  0  0  0
 15 17  1  0  0  0
 17 19  1  0  0  0
 19 20  2  0  0  0
 20 21  1  0  0  0
 21 22  1  0  0  0
 22 23  1  0  0  0
 22 24  1  0  0  0
 24 25  2  0  0  0
  4  5  1  0  0  0
  5  6  2  0  0  0
  6  7  1  0  0  0
 30 31  1  0  0  0
 31 32  2  0  0  0
 32 33  1  0  0  0
 33 34  2  0  0  0
 34 35  1  0  0  0
 35 36  2  0  0  0
 36 39  1  0  0  0
 39 40  1  0  0  0
 40 41  1  0  0  0
 41 42  1  0  0  0
 42 43  1  0  0  0
 43 44  1  0  0  0
 44 45  1  0  0  0
 45 46  1  0  0  0
 46 47  1  0  0  0
 46 48  1  0  0  0
 48 49  1  0  0  0
 36 27  1  0  0  0
 49 43  1  0  0  0
 34 29  1  0  0  0
  6  1  1  0  0  0
 14 12  1  0  0  0
 25 19  1  0  0  0
  8 11  1  0  0  0
 17 18  1  0  0  0
M  END
> <minimizedAffinity>
-8.59720

> <CNNscore>
0.3510443866

> <CNNaffinity>
6.6466193199

> <CNN_VS>
2.3332583904

> <CNNaffinity_variance>
0.1822017133

$$$$
[H]C1=C([H])C([H])(F)C([H])([H])C([H])=C1N([H])C(=O)C1(C(=O)N([H])c2c([H])c([H])c(Oc3c([H])c([H])nc4c([H])c(OC([H])([H])C([H])([H])C([H])([H])N5C([H])([H])C([H])([H])N(C([H])([H])[H])C([H])([H])C5([H])[H])c(OC([H])([H])[H])c([H])c34)c(F)c2[H])C([H])([H])C1([H])[H]


 49 54  0  0  0  0  0  0  0  0999 V2000
    2.8440    3.4185   14.1029 C   0  0  0  0  0  0  0  0  0  0  0  0
    2.1756    4.6179   14.2893 C   0  0  0  0  0  0  0  0  0  0  0  0
    1.2421    5.0457   13.3982 C   0  0  0  0  0  0  0  0  0  0  0  0
    0.8802    4.3331   12.2403 C   0  0  0  0  0  0  0  0  0  0  0  0
    1.5488    3.1524   12.0701 C   0  0  0  0  0  0  0  0  0  0  0  0
    2.5187    2.6979   12.9893 C   0  0  0  0  0  0  0  0  0  0  0  0
    3.1052    1.4791   12.7354 F   0  0  0  0  0  0  0  0  0  0  0  0
   -0.0926    4.8607   11.3941 N   0  0  0  0  0  0  0  0  0  0  0  0
   -0.0006    4.9843   10.0074 C   0  0  0  0  0  0  0  0  0  0  0  0
    0.9815    4.6417    9.2723 O   0  0  0  0  0  0  0  0  0  0  0  0
   -1.0013    5.2083   11.8314 H   0  0  0  0  0  0  0  0  0  0  0  0
   -1.1448    5.5705    9.2139 C   0  0  0  0  0  0  0  0  0  0  0  0
   -2.4524    5.6940    9.8589 C   0  0  0  0  0  0  0  0  0  0  0  0
   -2.2657    4.5852    8.9027 C   0  0  0  0  0  0  0  0  0  0  0  0
   -0.7684    6.4697    8.1004 C   0  0  0  0  0  0  0  0  0  0  0  0
   -1.2741    7.6380    8.0631 O   0  0  0  0  0  0  0  0  0  0  0  0
    0.1090    6.1328    7.0704 N   0  0  0  0  0  0  0  0  0  0  0  0
    0.5825    5.2267    7.0245 H   0  0  0  0  0  0  0  0  0  0  0  0
    0.4259    7.0455    5.9902 C   0  0  0  0  0  0  0  0  0  0  0  0
    1.5383    7.7390    6.0781 C   0  0  0  0  0  0  0  0  0  0  0  0
    1.9955    8.6922    5.0861 C   0  0  0  0  0  0  0  0  0  0  0  0
    1.1778    8.8205    3.8687 C   0  0  0  0  0  0  0  0  0  0  0  0
    1.9959    8.4912    2.7536 F   0  0  0  0  0  0  0  0  0  0  0  0
   -0.0439    8.0238    3.8456 C   0  0  0  0  0  0  0  0  0  0  0  0
   -0.3824    7.2125    4.8174 C   0  0  0  0  0  0  0  0  0  0  0  0
    3.7844    2.9476   14.9709 O   0  0  0  0  0  0  0  0  0  0  0  0
    5.2699    4.0347   18.6576 C   0  0  0  0  0  0  0  0  0  0  0  0
    4.7696    3.6540   17.4399 C   0  0  0  0  0  0  0  0  0  0  0  0
    4.0605    2.4827   17.3221 C   0  0  0  0  0  0  0  0  0  0  0  0
    3.5727    2.1365   16.0762 C   0  0  0  0  0  0  0  0  0  0  0  0
    2.8712    0.9728   15.9602 C   0  0  0  0  0  0  0  0  0  0  0  0
    2.6735    0.1833   17.1006 C   0  0  0  0  0  0  0  0  0  0  0  0
    3.1657    0.5612   18.2891 N   0  0  0  0  0  0  0  0  0  0  0  0
    3.8764    1.7189   18.4535 C   0  0  0  0  0  0  0  0  0  0  0  0
    4.3705    2.0885   19.6749 C   0  0  0  0  0  0  0  0  0  0  0  0
    5.1009    3.2827   19.8341 C   0  0  0  0  0  0  0  0  0  0  0  0
    6.1854    6.0009   17.6296 C   0  0  0  0  0  0  0  0  0  0  0  0
    5.9832    5.2110   18.7853 O   0  0  0  0  0  0  0  0  0  0  0  0
    5.5965    3.6923   20.9625 O   0  0  0  0  0  0  0  0  0  0  0  0
    6.0940    4.1054   22.0727 C   0  0  0  0  0  0  0  0  0  0  0  0
    7.0384    5.3135   21.9750 C   0  0  0  0  0  0  0  0  0  0  0  0
    6.2711    6.6086   21.9410 C   0  0  0  0  0  0  0  0  0  0  0  0
    6.8200    7.5677   22.9066 N   0  0  0  0  0  0  0  0  0  0  0  0
    8.2570    7.3946   22.8601 C   0  0  0  0  0  0  0  0  0  0  0  0
    8.9867    8.5266   23.5334 C   0  0  0  0  0  0  0  0  0  0  0  0
    8.5857    9.7468   22.8694 N   0  0  0  0  0  0  0  0  0  0  0  0
    9.4236   10.8738   23.2434 C   0  0  0  0  0  0  0  0  0  0  0  0
    7.1898    9.9791   23.1791 C   0  0  0  0  0  0  0  0  0  0  0  0
    6.3863    8.8702   22.5341 C   0  0  0  0  0  0  0  0  0  0  0  0
 37 38  1  0  0  0
 38 27  1  0  0  0
 27 28  2  0  0  0
 28 29  1  0  0  0
 29 30  2  0  0  0
 30 26  1  0  0  0
 26  1  1  0  0  0
  1  2  2  0  0  0
  2  3  1  0  0  0
  3  4  2  0  0  0
  4  8  1  0  0  0
  8  9  1  0  0  0
  9 10  2  0  0  0
  9 12  1  0  0  0
 12 13  1  0  0  0
 13 14  1  0  0  0
 12 15  1  0  0  0
 15 16  2  0  0  0
 15 17  1  0  0  0
 17 19  1  0  0  0
 19 20  2  0  0  0
 20 21  1  0  0  0
 21 22  1  0  0  0
 22 23  1  0  0  0
 22 24  1  0  0  0
 24 25  2  0  0  0
  4  5  1  0  0  0
  5  6  2  0  0  0
  6  7  1  0  0  0
 30 31  1  0  0  0
 31 32  2  0  0  0
 32 33  1  0  0  0
 33 34  2  0  0  0
 34 35  1  0  0  0
 35 36  2  0  0  0
 36 39  1  0  0  0
 39 40  1  0  0  0
 40 41  1  0  0  0
 41 42  1  0  0  0
 42 43  1  0  0  0
 43 44  1  0  0  0
 44 45  1  0  0  0
 45 46  1  0  0  0
 46 47  1  0  0  0
 46 48  1  0  0  0
 48 49  1  0  0  0
 36 27  1  0  0  0
 49 43  1  0  0  0
 34 29  1  0  0  0
  6  1  1  0  0  0
 14 12  1  0  0  0
 25 19  1  0  0  0
  8 11  1  0  0  0
 17 18  1  0  0  0
M  END
> <minimizedAffinity>
-7.83137

> <CNNscore>
0.3053754568

> <CNNaffinity>
6.6451959610

> <CNN_VS>
2.0292797089

> <CNNaffinity_variance>
0.2401454449

$$$$
[H]C1=C([H])C([H])(F)C([H])([H])C([H])=C1N([H])C(=O)C1(C(=O)N([H])c2c([H])c([H])c(Oc3c([H])c([H])nc4c([H])c(OC([H])([H])C([H])([H])C([H])([H])N5C([H])([H])C([H])([H])N(C([H])([H])[H])C([H])([H])C5([H])[H])c(OC([H])([H])[H])c([H])c34)c(F)c2[H])C([H])([H])C1([H])[H]


 49 54  0  0  0  0  0  0  0  0999 V2000
    3.9047    2.1154   17.0918 C   0  0  0  0  0  0  0  0  0  0  0  0
    4.3041    3.2946   16.4835 C   0  0  0  0  0  0  0  0  0  0  0  0
    3.6015    3.8203   15.4449 C   0  0  0  0  0  0  0  0  0  0  0  0
    2.4409    3.2337   14.9080 C   0  0  0  0  0  0  0  0  0  0  0  0
    2.0600    2.0707   15.5183 C   0  0  0  0  0  0  0  0  0  0  0  0
    2.7809    1.5167   16.5979 C   0  0  0  0  0  0  0  0  0  0  0  0
    2.2881    0.3599   17.1573 F   0  0  0  0  0  0  0  0  0  0  0  0
    1.7941    3.8580   13.8437 N   0  0  0  0  0  0  0  0  0  0  0  0
    1.7700    3.4173   12.5201 C   0  0  0  0  0  0  0  0  0  0  0  0
    2.3316    2.3750   12.0506 O   0  0  0  0  0  0  0  0  0  0  0  0
    1.2614    4.7607   14.0417 H   0  0  0  0  0  0  0  0  0  0  0  0
    1.0156    4.1960   11.4681 C   0  0  0  0  0  0  0  0  0  0  0  0
    1.5509    4.2325   10.1067 C   0  0  0  0  0  0  0  0  0  0  0  0
    1.7487    5.4281   10.9496 C   0  0  0  0  0  0  0  0  0  0  0  0
   -0.4327    4.3798   11.7110 C   0  0  0  0  0  0  0  0  0  0  0  0
   -0.8468    4.4321   12.9142 O   0  0  0  0  0  0  0  0  0  0  0  0
   -1.3960    4.4999   10.7102 N   0  0  0  0  0  0  0  0  0  0  0  0
   -1.1599    4.4920    9.7145 H   0  0  0  0  0  0  0  0  0  0  0  0
   -2.8065    4.6558   11.0044 C   0  0  0  0  0  0  0  0  0  0  0  0
   -3.6213    3.6938   10.6348 C   0  0  0  0  0  0  0  0  0  0  0  0
   -5.0545    3.6988   10.8527 C   0  0  0  0  0  0  0  0  0  0  0  0
   -5.6027    4.8367   11.6088 C   0  0  0  0  0  0  0  0  0  0  0  0
   -6.2417    4.3246   12.7710 F   0  0  0  0  0  0  0  0  0  0  0  0
   -4.6391    5.8668   11.9804 C   0  0  0  0  0  0  0  0  0  0  0  0
   -3.3613    5.7786   11.7032 C   0  0  0  0  0  0  0  0  0  0  0  0
    4.5750    1.5532   18.1377 O   0  0  0  0  0  0  0  0  0  0  0  0
    5.7538    4.9004   20.2322 C   0  0  0  0  0  0  0  0  0  0  0  0
    5.3549    3.7782   19.5543 C   0  0  0  0  0  0  0  0  0  0  0  0
    4.6600    2.7891   20.2079 C   0  0  0  0  0  0  0  0  0  0  0  0
    4.2757    1.6744   19.4869 C   0  0  0  0  0  0  0  0  0  0  0  0
    3.5881    0.6926   20.1372 C   0  0  0  0  0  0  0  0  0  0  0  0
    3.2999    0.8541   21.4987 C   0  0  0  0  0  0  0  0  0  0  0  0
    3.6931    1.9543   22.1563 N   0  0  0  0  0  0  0  0  0  0  0  0
    4.3859    2.9645   21.5464 C   0  0  0  0  0  0  0  0  0  0  0  0
    4.7783    4.0805   22.2341 C   0  0  0  0  0  0  0  0  0  0  0  0
    5.4911    5.1154   21.5970 C   0  0  0  0  0  0  0  0  0  0  0  0
    6.4509    5.9082   18.1684 C   0  0  0  0  0  0  0  0  0  0  0  0
    6.4521    5.9000   19.5827 O   0  0  0  0  0  0  0  0  0  0  0  0
    5.8925    6.1994   22.1891 O   0  0  0  0  0  0  0  0  0  0  0  0
    6.3004    7.2710   22.7689 C   0  0  0  0  0  0  0  0  0  0  0  0
    6.3010    8.5413   21.9046 C   0  0  0  0  0  0  0  0  0  0  0  0
    4.9387    8.8095   21.3219 C   0  0  0  0  0  0  0  0  0  0  0  0
    5.0490    9.3989   19.9826 N   0  0  0  0  0  0  0  0  0  0  0  0
    3.9587    8.8357   19.2136 C   0  0  0  0  0  0  0  0  0  0  0  0
    3.7237    9.5858   17.9293 C   0  0  0  0  0  0  0  0  0  0  0  0
    3.4575   10.9624   18.2824 N   0  0  0  0  0  0  0  0  0  0  0  0
    2.9470   11.7268   17.1567 C   0  0  0  0  0  0  0  0  0  0  0  0
    4.6816   11.5260   18.8137 C   0  0  0  0  0  0  0  0  0  0  0  0
    4.9879   10.8140   20.1138 C   0  0  0  0  0  0  0  0  0  0  0  0
 37 38  1  0  0  0
 38 27  1  0  0  0
 27 28  2  0  0  0
 28 29  1  0  0  0
 29 30  2  0  0  0
 30 26  1  0  0  0
 26  1  1  0  0  0
  1  2  2  0  0  0
  2  3  1  0  0  0
  3  4  2  0  0  0
  4  8  1  0  0  0
  8  9  1  0  0  0
  9 10  2  0  0  0
  9 12  1  0  0  0
 12 13  1  0  0  0
 13 14  1  0  0  0
 12 15  1  0  0  0
 15 16  2  0  0  0
 15 17  1  0  0  0
 17 19  1  0  0  0
 19 20  2  0  0  0
 20 21  1  0  0  0
 21 22  1  0  0  0
 22 23  1  0  0  0
 22 24  1  0  0  0
 24 25  2  0  0  0
  4  5  1  0  0  0
  5  6  2  0  0  0
  6  7  1  0  0  0
 30 31  1  0  0  0
 31 32  2  0  0  0
 32 33  1  0  0  0
 33 34  2  0  0  0
 34 35  1  0  0  0
 35 36  2  0  0  0
 36 39  1  0  0  0
 39 40  1  0  0  0
 40 41  1  0  0  0
 41 42  1  0  0  0
 42 43  1  0  0  0
 43 44  1  0  0  0
 44 45  1  0  0  0
 45 46  1  0  0  0
 46 47  1  0  0  0
 46 48  1  0  0  0
 48 49  1  0  0  0
 36 27  1  0  0  0
 49 43  1  0  0  0
 34 29  1  0  0  0
  6  1  1  0  0  0
 14 12  1  0  0  0
 25 19  1  0  0  0
  8 11  1  0  0  0
 17 18  1  0  0  0
M  END
> <minimizedAffinity>
-9.79569

> <CNNscore>
0.2919560075

> <CNNaffinity>
7.1318864822

> <CNN_VS>
2.0821971893

> <CNNaffinity_variance>
0.3160565495

$$$$
[H]C1=C([H])C([H])(F)C([H])([H])C([H])=C1N([H])C(=O)C1(C(=O)N([H])c2c([H])c([H])c(Oc3c([H])c([H])nc4c([H])c(OC([H])([H])C([H])([H])C([H])([H])N5C([H])([H])C([H])([H])N(C([H])([H])[H])C([H])([H])C5([H])[H])c(OC([H])([H])[H])c([H])c34)c(F)c2[H])C([H])([H])C1([H])[H]


 49 54  0  0  0  0  0  0  0  0999 V2000
    2.8759    2.5696   14.6579 C   0  0  0  0  0  0  0  0  0  0  0  0
    1.9496    1.7836   13.9915 C   0  0  0  0  0  0  0  0  0  0  0  0
    1.0432    2.3364   13.1421 C   0  0  0  0  0  0  0  0  0  0  0  0
    0.9638    3.7146   12.8703 C   0  0  0  0  0  0  0  0  0  0  0  0
    1.8838    4.4768   13.5357 C   0  0  0  0  0  0  0  0  0  0  0  0
    2.8301    3.9136   14.4186 C   0  0  0  0  0  0  0  0  0  0  0  0
    3.7299    4.7713   15.0088 F   0  0  0  0  0  0  0  0  0  0  0  0
   -0.0022    4.1768   11.9793 N   0  0  0  0  0  0  0  0  0  0  0  0
   -1.0110    5.0984   12.2614 C   0  0  0  0  0  0  0  0  0  0  0  0
   -1.2295    5.6764   13.3751 O   0  0  0  0  0  0  0  0  0  0  0  0
    0.0163    3.8005   10.9813 H   0  0  0  0  0  0  0  0  0  0  0  0
   -1.9880    5.5160   11.1874 C   0  0  0  0  0  0  0  0  0  0  0  0
   -3.3642    5.8266   11.5761 C   0  0  0  0  0  0  0  0  0  0  0  0
   -3.1143    4.5191   10.9381 C   0  0  0  0  0  0  0  0  0  0  0  0
   -1.3971    6.1170    9.9710 C   0  0  0  0  0  0  0  0  0  0  0  0
   -0.2951    6.7467   10.0763 O   0  0  0  0  0  0  0  0  0  0  0  0
   -1.9618    6.0493    8.6979 N   0  0  0  0  0  0  0  0  0  0  0  0
   -2.8334    5.5477    8.5079 H   0  0  0  0  0  0  0  0  0  0  0  0
   -1.3510    6.6762    7.5429 C   0  0  0  0  0  0  0  0  0  0  0  0
   -1.7589    7.8798    7.2096 C   0  0  0  0  0  0  0  0  0  0  0  0
   -1.2514    8.6393    6.0838 C   0  0  0  0  0  0  0  0  0  0  0  0
   -0.1505    8.0301    5.3197 C   0  0  0  0  0  0  0  0  0  0  0  0
    0.9649    8.9097    5.3797 F   0  0  0  0  0  0  0  0  0  0  0  0
    0.2442    6.6918    5.7450 C   0  0  0  0  0  0  0  0  0  0  0  0
   -0.3067    6.0777    6.7632 C   0  0  0  0  0  0  0  0  0  0  0  0
    3.8054    2.0596   15.5154 O   0  0  0  0  0  0  0  0  0  0  0  0
    5.2407    3.8767   18.9240 C   0  0  0  0  0  0  0  0  0  0  0  0
    4.7570    3.2553   17.8024 C   0  0  0  0  0  0  0  0  0  0  0  0
    4.0455    2.0851   17.9158 C   0  0  0  0  0  0  0  0  0  0  0  0
    3.5747    1.4917   16.7598 C   0  0  0  0  0  0  0  0  0  0  0  0
    2.8708    0.3293   16.8736 C   0  0  0  0  0  0  0  0  0  0  0  0
    2.6536   -0.2103   18.1483 C   0  0  0  0  0  0  0  0  0  0  0  0
    3.1297    0.4023   19.2416 N   0  0  0  0  0  0  0  0  0  0  0  0
    3.8421    1.5688   19.1766 C   0  0  0  0  0  0  0  0  0  0  0  0
    4.3196    2.1800   20.3040 C   0  0  0  0  0  0  0  0  0  0  0  0
    5.0519    3.3812   20.2266 C   0  0  0  0  0  0  0  0  0  0  0  0
    6.1399    5.6144   17.5337 C   0  0  0  0  0  0  0  0  0  0  0  0
    5.9563    5.0539   18.8192 O   0  0  0  0  0  0  0  0  0  0  0  0
    5.5323    4.0126   21.2548 O   0  0  0  0  0  0  0  0  0  0  0  0
    5.9975    4.6345   22.2784 C   0  0  0  0  0  0  0  0  0  0  0  0
    6.3454    6.1152   22.0611 C   0  0  0  0  0  0  0  0  0  0  0  0
    5.1664    6.8833   21.5252 C   0  0  0  0  0  0  0  0  0  0  0  0
    5.6087    8.0034   20.6868 N   0  0  0  0  0  0  0  0  0  0  0  0
    4.5401    8.2295   19.7358 C   0  0  0  0  0  0  0  0  0  0  0  0
    4.6812    9.5506   19.0275 C   0  0  0  0  0  0  0  0  0  0  0  0
    4.7024   10.5789   20.0438 N   0  0  0  0  0  0  0  0  0  0  0  0
    4.5593   11.9099   19.4781 C   0  0  0  0  0  0  0  0  0  0  0  0
    5.9344   10.4342   20.7918 C   0  0  0  0  0  0  0  0  0  0  0  0
    5.8685    9.1164   21.5336 C   0  0  0  0  0  0  0  0  0  0  0  0
 37 38  1  0  0  0
 38 27  1  0  0  0
 27 28  2  0  0  0
 28 29  1  0  0  0
 29 30  2  0  0  0
 30 26  1  0  0  0
 26  1  1  0  0  0
  1  2  2  0  0  0
  2  3  1  0  0  0
  3  4  2  0  0  0
  4  8  1  0  0  0
  8  9  1  0  0  0
  9 10  2  0  0  0
  9 12  1  0  0  0
 12 13  1  0  0  0
 13 14  1  0  0  0
 12 15  1  0  0  0
 15 16  2  0  0  0
 15 17  1  0  0  0
 17 19  1  0  0  0
 19 20  2  0  0  0
 20 21  1  0  0  0
 21 22  1  0  0  0
 22 23  1  0  0  0
 22 24  1  0  0  0
 24 25  2  0  0  0
  4  5  1  0  0  0
  5  6  2  0  0  0
  6  7  1  0  0  0
 30 31  1  0  0  0
 31 32  2  0  0  0
 32 33  1  0  0  0
 33 34  2  0  0  0
 34 35  1  0  0  0
 35 36  2  0  0  0
 36 39  1  0  0  0
 39 40  1  0  0  0
 40 41  1  0  0  0
 41 42  1  0  0  0
 42 43  1  0  0  0
 43 44  1  0  0  0
 44 45  1  0  0  0
 45 46  1  0  0  0
 46 47  1  0  0  0
 46 48  1  0  0  0
 48 49  1  0  0  0
 36 27  1  0  0  0
 49 43  1  0  0  0
 34 29  1  0  0  0
  6  1  1  0  0  0
 14 12  1  0  0  0
 25 19  1  0  0  0
  8 11  1  0  0  0
 17 18  1  0  0  0
M  END
> <minimizedAffinity>
-8.85100

> <CNNscore>
0.2768495679

> <CNNaffinity>
6.8227639198

> <CNN_VS>
1.8888792992

> <CNNaffinity_variance>
0.2655756474

$$$$
[H]C1=C([H])C([H])(F)C([H])([H])C([H])=C1N([H])C(=O)C1(C(=O)N([H])c2c([H])c([H])c(Oc3c([H])c([H])nc4c([H])c(OC([H])([H])C([H])([H])C([H])([H])N5C([H])([H])C([H])([H])N(C([H])([H])[H])C([H])([H])C5([H])[H])c(OC([H])([H])[H])c([H])c34)c(F)c2[H])C([H])([H])C1([H])[H]


 49 54  0  0  0  0  0  0  0  0999 V2000
    2.9603    2.5377   14.4571 C   0  0  0  0  0  0  0  0  0  0  0  0
    1.8867    1.9222   13.8338 C   0  0  0  0  0  0  0  0  0  0  0  0
    1.0587    2.6208   13.0122 C   0  0  0  0  0  0  0  0  0  0  0  0
    1.2100    3.9905   12.7284 C   0  0  0  0  0  0  0  0  0  0  0  0
    2.2732    4.5837   13.3513 C   0  0  0  0  0  0  0  0  0  0  0  0
    3.1399    3.8680   14.2049 C   0  0  0  0  0  0  0  0  0  0  0  0
    4.1971    4.5583   14.7523 F   0  0  0  0  0  0  0  0  0  0  0  0
    0.3059    4.6101   11.8684 N   0  0  0  0  0  0  0  0  0  0  0  0
    0.1811    4.3802   10.4979 C   0  0  0  0  0  0  0  0  0  0  0  0
    0.8664    3.5710    9.7924 O   0  0  0  0  0  0  0  0  0  0  0  0
   -0.3624    5.3322   12.2804 H   0  0  0  0  0  0  0  0  0  0  0  0
   -0.8564    5.1230    9.6890 C   0  0  0  0  0  0  0  0  0  0  0  0
   -0.5430    5.4746    8.3036 C   0  0  0  0  0  0  0  0  0  0  0  0
   -0.4621    6.5472    9.3144 C   0  0  0  0  0  0  0  0  0  0  0  0
   -2.2613    4.9505   10.1210 C   0  0  0  0  0  0  0  0  0  0  0  0
   -2.4888    4.5464   11.3071 O   0  0  0  0  0  0  0  0  0  0  0  0
   -3.3742    5.1972    9.3180 N   0  0  0  0  0  0  0  0  0  0  0  0
   -3.2951    5.5449    8.3587 H   0  0  0  0  0  0  0  0  0  0  0  0
   -4.7304    4.9898    9.7850 C   0  0  0  0  0  0  0  0  0  0  0  0
   -5.2834    3.8184    9.5655 C   0  0  0  0  0  0  0  0  0  0  0  0
   -6.6281    3.4541    9.9663 C   0  0  0  0  0  0  0  0  0  0  0  0
   -7.3811    4.4571   10.7372 C   0  0  0  0  0  0  0  0  0  0  0  0
   -7.7185    3.8827   11.9932 F   0  0  0  0  0  0  0  0  0  0  0  0
   -6.7046    5.7340   10.9364 C   0  0  0  0  0  0  0  0  0  0  0  0
   -5.4920    5.9720   10.5005 C   0  0  0  0  0  0  0  0  0  0  0  0
    3.8188    1.8773   15.2855 O   0  0  0  0  0  0  0  0  0  0  0  0
    5.3558    3.8805   18.5419 C   0  0  0  0  0  0  0  0  0  0  0  0
    4.8374    3.1986   17.4723 C   0  0  0  0  0  0  0  0  0  0  0  0
    4.0644    2.0810   17.6768 C   0  0  0  0  0  0  0  0  0  0  0  0
    3.5603    1.4234   16.5706 C   0  0  0  0  0  0  0  0  0  0  0  0
    2.7952    0.3132   16.7749 C   0  0  0  0  0  0  0  0  0  0  0  0
    2.5518   -0.1106   18.0879 C   0  0  0  0  0  0  0  0  0  0  0  0
    3.0621    0.5607   19.1302 N   0  0  0  0  0  0  0  0  0  0  0  0
    3.8359    1.6785   18.9742 C   0  0  0  0  0  0  0  0  0  0  0  0
    4.3475    2.3511   20.0504 C   0  0  0  0  0  0  0  0  0  0  0  0
    5.1431    3.5012   19.8794 C   0  0  0  0  0  0  0  0  0  0  0  0
    5.5630    6.1028   17.6590 C   0  0  0  0  0  0  0  0  0  0  0  0
    6.1333    5.0056   18.3455 O   0  0  0  0  0  0  0  0  0  0  0  0
    5.6586    4.1859   20.8552 O   0  0  0  0  0  0  0  0  0  0  0  0
    6.1581    4.8621   21.8269 C   0  0  0  0  0  0  0  0  0  0  0  0
    6.2624    6.3787   21.6033 C   0  0  0  0  0  0  0  0  0  0  0  0
    4.9095    6.9913   21.3549 C   0  0  0  0  0  0  0  0  0  0  0  0
    4.9559    8.4483   21.5223 N   0  0  0  0  0  0  0  0  0  0  0  0
    6.2931    8.7486   21.9903 C   0  0  0  0  0  0  0  0  0  0  0  0
    6.6137   10.2162   21.8879 C   0  0  0  0  0  0  0  0  0  0  0  0
    6.4485   10.5927   20.5017 N   0  0  0  0  0  0  0  0  0  0  0  0
    6.9907   11.9125   20.2252 C   0  0  0  0  0  0  0  0  0  0  0  0
    5.0373   10.5062   20.1864 C   0  0  0  0  0  0  0  0  0  0  0  0
    4.6366    9.0491   20.2731 C   0  0  0  0  0  0  0  0  0  0  0  0
 37 38  1  0  0  0
 38 27  1  0  0  0
 27 28  2  0  0  0
 28 29  1  0  0  0
 29 30  2  0  0  0
 30 26  1  0  0  0
 26  1  1  0  0  0
  1  2  2  0  0  0
  2  3  1  0  0  0
  3  4  2  0  0  0
  4  8  1  0  0  0
  8  9  1  0  0  0
  9 10  2  0  0  0
  9 12  1  0  0  0
 12 13  1  0  0  0
 13 14  1  0  0  0
 12 15  1  0  0  0
 15 16  2  0  0  0
 15 17  1  0  0  0
 17 19  1  0  0  0
 19 20  2  0  0  0
 20 21  1  0  0  0
 21 22  1  0  0  0
 22 23  1  0  0  0
 22 24  1  0  0  0
 24 25  2  0  0  0
  4  5  1  0  0  0
  5  6  2  0  0  0
  6  7  1  0  0  0
 30 31  1  0  0  0
 31 32  2  0  0  0
 32 33  1  0  0  0
 33 34  2  0  0  0
 34 35  1  0  0  0
 35 36  2  0  0  0
 36 39  1  0  0  0
 39 40  1  0  0  0
 40 41  1  0  0  0
 41 42  1  0  0  0
 42 43  1  0  0  0
 43 44  1  0  0  0
 44 45  1  0  0  0
 45 46  1  0  0  0
 46 47  1  0  0  0
 46 48  1  0  0  0
 48 49  1  0  0  0
 36 27  1  0  0  0
 49 43  1  0  0  0
 34 29  1  0  0  0
  6  1  1  0  0  0
 14 12  1  0  0  0
 25 19  1  0  0  0
  8 11  1  0  0  0
 17 18  1  0  0  0
M  END
> <minimizedAffinity>
-8.95190

> <CNNscore>
0.2384196520

> <CNNaffinity>
6.7491731644

> <CNN_VS>
1.6091355085

> <CNNaffinity_variance>
0.2420914471

$$$$
[H]C1=C([H])C([H])(F)C([H])([H])C([H])=C1N([H])C(=O)C1(C(=O)N([H])c2c([H])c([H])c(Oc3c([H])c([H])nc4c([H])c(OC([H])([H])C([H])([H])C([H])([H])N5C([H])([H])C([H])([H])N(C([H])([H])[H])C([H])([H])C5([H])[H])c(OC([H])([H])[H])c([H])c34)c(F)c2[H])C([H])([H])C1([H])[H]


 49 54  0  0  0  0  0  0  0  0999 V2000
    2.9335    2.9000   14.0588 C   0  0  0  0  0  0  0  0  0  0  0  0
    2.9984    2.1095   12.9227 C   0  0  0  0  0  0  0  0  0  0  0  0
    2.0940    2.2517   11.9174 C   0  0  0  0  0  0  0  0  0  0  0  0
    1.0412    3.1848   11.9374 C   0  0  0  0  0  0  0  0  0  0  0  0
    0.9902    3.9568   13.0651 C   0  0  0  0  0  0  0  0  0  0  0  0
    1.9244    3.8188   14.1140 C   0  0  0  0  0  0  0  0  0  0  0  0
    1.7977    4.6710   15.1871 F   0  0  0  0  0  0  0  0  0  0  0  0
    0.1709    3.2505   10.8515 N   0  0  0  0  0  0  0  0  0  0  0  0
   -0.1689    2.1973   10.0019 C   0  0  0  0  0  0  0  0  0  0  0  0
    0.2532    0.9973   10.0645 O   0  0  0  0  0  0  0  0  0  0  0  0
   -0.2886    4.1884   10.6345 H   0  0  0  0  0  0  0  0  0  0  0  0
   -1.1389    2.4145    8.8642 C   0  0  0  0  0  0  0  0  0  0  0  0
   -1.0726    1.5202    7.7080 C   0  0  0  0  0  0  0  0  0  0  0  0
   -0.4905    2.8687    7.5614 C   0  0  0  0  0  0  0  0  0  0  0  0
   -2.4034    3.1005    9.2119 C   0  0  0  0  0  0  0  0  0  0  0  0
   -3.5050    2.5216    8.9411 O   0  0  0  0  0  0  0  0  0  0  0  0
   -2.4856    4.3522    9.8207 N   0  0  0  0  0  0  0  0  0  0  0  0
   -1.6571    4.8860   10.0965 H   0  0  0  0  0  0  0  0  0  0  0  0
   -3.7526    4.9892   10.1191 C   0  0  0  0  0  0  0  0  0  0  0  0
   -4.3045    4.7429   11.2857 C   0  0  0  0  0  0  0  0  0  0  0  0
   -5.5664    5.2983   11.7338 C   0  0  0  0  0  0  0  0  0  0  0  0
   -6.2204    6.2611   10.8325 C   0  0  0  0  0  0  0  0  0  0  0  0
   -6.3551    7.4930   11.5293 F   0  0  0  0  0  0  0  0  0  0  0  0
   -5.5519    6.4795    9.5546 C   0  0  0  0  0  0  0  0  0  0  0  0
   -4.4228    5.8968    9.2338 C   0  0  0  0  0  0  0  0  0  0  0  0
    3.8199    2.7958   15.0898 O   0  0  0  0  0  0  0  0  0  0  0  0
    5.1398    4.3150   18.6857 C   0  0  0  0  0  0  0  0  0  0  0  0
    4.6962    3.7908   17.4997 C   0  0  0  0  0  0  0  0  0  0  0  0
    4.0985    2.5536   17.4740 C   0  0  0  0  0  0  0  0  0  0  0  0
    3.6646    2.0625   16.2571 C   0  0  0  0  0  0  0  0  0  0  0  0
    3.0737    0.8338   16.2327 C   0  0  0  0  0  0  0  0  0  0  0  0
    2.9299    0.1262   17.4333 C   0  0  0  0  0  0  0  0  0  0  0  0
    3.3661    0.6444   18.5903 N   0  0  0  0  0  0  0  0  0  0  0  0
    3.9659    1.8721   18.6637 C   0  0  0  0  0  0  0  0  0  0  0  0
    4.4043    2.3849   19.8541 C   0  0  0  0  0  0  0  0  0  0  0  0
    5.0205    3.6502   19.9193 C   0  0  0  0  0  0  0  0  0  0  0  0
    6.8097    5.8113   17.8295 C   0  0  0  0  0  0  0  0  0  0  0  0
    5.7411    5.5583   18.7208 O   0  0  0  0  0  0  0  0  0  0  0  0
    5.4582    4.1953   21.0139 O   0  0  0  0  0  0  0  0  0  0  0  0
    5.8796    4.7359   22.1006 C   0  0  0  0  0  0  0  0  0  0  0  0
    7.1957    5.5213   21.9913 C   0  0  0  0  0  0  0  0  0  0  0  0
    7.0320    6.9370   22.4775 C   0  0  0  0  0  0  0  0  0  0  0  0
    8.2527    7.4062   23.1432 N   0  0  0  0  0  0  0  0  0  0  0  0
    7.8114    8.0715   24.3514 C   0  0  0  0  0  0  0  0  0  0  0  0
    8.9448    8.3111   25.3133 C   0  0  0  0  0  0  0  0  0  0  0  0
    9.5310    7.0231   25.6103 N   0  0  0  0  0  0  0  0  0  0  0  0
   10.4526    7.0874   26.7323 C   0  0  0  0  0  0  0  0  0  0  0  0
   10.1734    6.5423   24.4043 C   0  0  0  0  0  0  0  0  0  0  0  0
    9.0896    6.2807   23.3805 C   0  0  0  0  0  0  0  0  0  0  0  0
 37 38  1  0  0  0
 38 27  1  0  0  0
 27 28  2  0  0  0
 28 29  1  0  0  0
 29 30  2  0  0  0
 30 26  1  0  0  0
 26  1  1  0  0  0
  1  2  2  0  0  0
  2  3  1  0  0  0
  3  4  2  0  0  0
  4  8  1  0  0  0
  8  9  1  0  0  0
  9 10  2  0  0  0
  9 12  1  0  0  0
 12 13  1  0  0  0
 13 14  1  0  0  0
 12 15  1  0  0  0
 15 16  2  0  0  0
 15 17  1  0  0  0
 17 19  1  0  0  0
 19 20  2  0  0  0
 20 21  1  0  0  0
 21 22  1  0  0  0
 22 23  1  0  0  0
 22 24  1  0  0  0
 24 25  2  0  0  0
  4  5  1  0  0  0
  5  6  2  0  0  0
  6  7  1  0  0  0
 30 31  1  0  0  0
 31 32  2  0  0  0
 32 33  1  0  0  0
 33 34  2  0  0  0
 34 35  1  0  0  0
 35 36  2  0  0  0
 36 39  1  0  0  0
 39 40  1  0  0  0
 40 41  1  0  0  0
 41 42  1  0  0  0
 42 43  1  0  0  0
 43 44  1  0  0  0
 44 45  1  0  0  0
 45 46  1  0  0  0
 46 47  1  0  0  0
 46 48  1  0  0  0
 48 49  1  0  0  0
 36 27  1  0  0  0
 49 43  1  0  0  0
 34 29  1  0  0  0
  6  1  1  0  0  0
 14 12  1  0  0  0
 25 19  1  0  0  0
  8 11  1  0  0  0
 17 18  1  0  0  0
M  END
> <minimizedAffinity>
-8.66667

> <CNNscore>
0.2038018256

> <CNNaffinity>
6.5764517784

> <CNN_VS>
1.3402929306

> <CNNaffinity_variance>
0.2854048610

$$$$
[H]C1=C([H])C([H])(F)C([H])([H])C([H])=C1N([H])C(=O)C1(C(=O)N([H])c2c([H])c([H])c(Oc3c([H])c([H])nc4c([H])c(OC([H])([H])C([H])([H])C([H])([H])N5C([H])([H])C([H])([H])N(C([H])([H])[H])C([H])([H])C5([H])[H])c(OC([H])([H])[H])c([H])c34)c(F)c2[H])C([H])([H])C1([H])[H]


 49 54  0  0  0  0  0  0  0  0999 V2000
    2.1790    4.6229   13.5789 C   0  0  0  0  0  0  0  0  0  0  0  0
    1.3327    5.7139   13.4621 C   0  0  0  0  0  0  0  0  0  0  0  0
    0.1125    5.5944   12.8744 C   0  0  0  0  0  0  0  0  0  0  0  0
   -0.3879    4.3902   12.3463 C   0  0  0  0  0  0  0  0  0  0  0  0
    0.4588    3.3232   12.4686 C   0  0  0  0  0  0  0  0  0  0  0  0
    1.7270    3.4354   13.0780 C   0  0  0  0  0  0  0  0  0  0  0  0
    2.4824    2.2894   13.1765 F   0  0  0  0  0  0  0  0  0  0  0  0
   -1.6551    4.3767   11.7675 N   0  0  0  0  0  0  0  0  0  0  0  0
   -2.6575    5.3290   11.9544 C   0  0  0  0  0  0  0  0  0  0  0  0
   -2.5956    6.3719   12.6830 O   0  0  0  0  0  0  0  0  0  0  0  0
   -1.8993    3.5680   11.1162 H   0  0  0  0  0  0  0  0  0  0  0  0
   -3.9868    5.1888   11.2506 C   0  0  0  0  0  0  0  0  0  0  0  0
   -5.1840    4.9508   12.0577 C   0  0  0  0  0  0  0  0  0  0  0  0
   -4.6041    3.7978   11.3413 C   0  0  0  0  0  0  0  0  0  0  0  0
   -4.0912    5.8399    9.9256 C   0  0  0  0  0  0  0  0  0  0  0  0
   -3.0192    6.1103    9.2936 O   0  0  0  0  0  0  0  0  0  0  0  0
   -5.2903    6.1884    9.3052 N   0  0  0  0  0  0  0  0  0  0  0  0
   -6.2038    5.9927    9.7229 H   0  0  0  0  0  0  0  0  0  0  0  0
   -5.3345    6.8460    8.0145 C   0  0  0  0  0  0  0  0  0  0  0  0
   -5.2962    6.0922    6.9391 C   0  0  0  0  0  0  0  0  0  0  0  0
   -5.3297    6.5941    5.5795 C   0  0  0  0  0  0  0  0  0  0  0  0
   -5.4933    8.0480    5.4171 C   0  0  0  0  0  0  0  0  0  0  0  0
   -6.6829    8.2754    4.6724 F   0  0  0  0  0  0  0  0  0  0  0  0
   -5.5227    8.8192    6.6549 C   0  0  0  0  0  0  0  0  0  0  0  0
   -5.4515    8.2647    7.8401 C   0  0  0  0  0  0  0  0  0  0  0  0
    3.4089    4.6941   14.1634 O   0  0  0  0  0  0  0  0  0  0  0  0
    3.9796    2.2110   17.4019 C   0  0  0  0  0  0  0  0  0  0  0  0
    3.7912    3.0541   16.3381 C   0  0  0  0  0  0  0  0  0  0  0  0
    3.9131    4.4126   16.5058 C   0  0  0  0  0  0  0  0  0  0  0  0
    3.7160    5.2271   15.4067 C   0  0  0  0  0  0  0  0  0  0  0  0
    3.8350    6.5752   15.5749 C   0  0  0  0  0  0  0  0  0  0  0  0
    4.1519    7.0750   16.8449 C   0  0  0  0  0  0  0  0  0  0  0  0
    4.3347    6.2449   17.8817 N   0  0  0  0  0  0  0  0  0  0  0  0
    4.2245    4.8863   17.7612 C   0  0  0  0  0  0  0  0  0  0  0  0
    4.4154    4.0547   18.8310 C   0  0  0  0  0  0  0  0  0  0  0  0
    4.2999    2.6570   18.6968 C   0  0  0  0  0  0  0  0  0  0  0  0
    2.6536    0.3349   16.7072 C   0  0  0  0  0  0  0  0  0  0  0  0
    3.8598    0.8439   17.2422 O   0  0  0  0  0  0  0  0  0  0  0  0
    4.4684    1.8123   19.6688 O   0  0  0  0  0  0  0  0  0  0  0  0
    4.6349    0.9859   20.6384 C   0  0  0  0  0  0  0  0  0  0  0  0
    5.0525    1.6046   21.9813 C   0  0  0  0  0  0  0  0  0  0  0  0
    4.0736    2.6576   22.4287 C   0  0  0  0  0  0  0  0  0  0  0  0
    4.7611    3.9199   22.7241 N   0  0  0  0  0  0  0  0  0  0  0  0
    6.0952    3.7786   22.1787 C   0  0  0  0  0  0  0  0  0  0  0  0
    6.8164    5.0977   22.0949 C   0  0  0  0  0  0  0  0  0  0  0  0
    6.0078    5.9742   21.2772 N   0  0  0  0  0  0  0  0  0  0  0  0
    6.7231    7.1805   20.8960 C   0  0  0  0  0  0  0  0  0  0  0  0
    4.7951    6.2691   22.0127 C   0  0  0  0  0  0  0  0  0  0  0  0
    4.0123    4.9800   22.1420 C   0  0  0  0  0  0  0  0  0  0  0  0
 37 38  1  0  0  0
 38 27  1  0  0  0
 27 28  2  0  0  0
 28 29  1  0  0  0
 29 30  2  0  0  0
 30 26  1  0  0  0
 26  1  1  0  0  0
  1  2  2  0  0  0
  2  3  1  0  0  0
  3  4  2  0  0  0
  4  8  1  0  0  0
  8  9  1  0  0  0
  9 10  2  0  0  0
  9 12  1  0  0  0
 12 13  1  0  0  0
 13 14  1  0  0  0
 12 15  1  0  0  0
 15 16  2  0  0  0
 15 17  1  0  0  0
 17 19  1  0  0  0
 19 20  2  0  0  0
 20 21  1  0  0  0
 21 22  1  0  0  0
 22 23  1  0  0  0
 22 24  1  0  0  0
 24 25  2  0  0  0
  4  5  1  0  0  0
  5  6  2  0  0  0
  6  7  1  0  0  0
 30 31  1  0  0  0
 31 32  2  0  0  0
 32 33  1  0  0  0
 33 34  2  0  0  0
 34 35  1  0  0  0
 35 36  2  0  0  0
 36 39  1  0  0  0
 39 40  1  0  0  0
 40 41  1  0  0  0
 41 42  1  0  0  0
 42 43  1  0  0  0
 43 44  1  0  0  0
 44 45  1  0  0  0
 45 46  1  0  0  0
 46 47  1  0  0  0
 46 48  1  0  0  0
 48 49  1  0  0  0
 36 27  1  0  0  0
 49 43  1  0  0  0
 34 29  1  0  0  0
  6  1  1  0  0  0
 14 12  1  0  0  0
 25 19  1  0  0  0
  8 11  1  0  0  0
 17 18  1  0  0  0
M  END
> <minimizedAffinity>
-8.92541

> <CNNscore>
0.2023485303

> <CNNaffinity>
6.6548500061

> <CNN_VS>
1.3465991020

> <CNNaffinity_variance>
0.1901974231

$$$$
[H]C1=C([H])C([H])(F)C([H])([H])C([H])=C1N([H])C(=O)C1(C(=O)N([H])c2c([H])c([H])c(Oc3c([H])c([H])nc4c([H])c(OC([H])([H])C([H])([H])C([H])([H])N5C([H])([H])C([H])([H])N(C([H])([H])[H])C([H])([H])C5([H])[H])c(OC([H])([H])[H])c([H])c34)c(F)c2[H])C([H])([H])C1([H])[H]


 49 54  0  0  0  0  0  0  0  0999 V2000
    2.9541    3.0268   14.1125 C   0  0  0  0  0  0  0  0  0  0  0  0
    2.7049    2.2140   13.0183 C   0  0  0  0  0  0  0  0  0  0  0  0
    1.8275    2.5910   12.0505 C   0  0  0  0  0  0  0  0  0  0  0  0
    1.1131    3.8029   12.0702 C   0  0  0  0  0  0  0  0  0  0  0  0
    1.3692    4.5936   13.1563 C   0  0  0  0  0  0  0  0  0  0  0  0
    2.2789    4.2129   14.1660 C   0  0  0  0  0  0  0  0  0  0  0  0
    2.4842    5.1012   15.1969 F   0  0  0  0  0  0  0  0  0  0  0  0
    0.2397    4.0939   11.0245 N   0  0  0  0  0  0  0  0  0  0  0  0
   -1.0584    4.5902   11.1479 C   0  0  0  0  0  0  0  0  0  0  0  0
   -1.6737    4.8624   12.2293 O   0  0  0  0  0  0  0  0  0  0  0  0
    0.5797    3.9271   10.0273 H   0  0  0  0  0  0  0  0  0  0  0  0
   -1.8910    4.8688    9.9185 C   0  0  0  0  0  0  0  0  0  0  0  0
   -1.2393    4.8308    8.6089 C   0  0  0  0  0  0  0  0  0  0  0  0
   -1.5266    6.1572    9.1894 C   0  0  0  0  0  0  0  0  0  0  0  0
   -3.3417    4.6038   10.0437 C   0  0  0  0  0  0  0  0  0  0  0  0
   -3.8073    3.5216    9.5600 O   0  0  0  0  0  0  0  0  0  0  0  0
   -4.2546    5.4605   10.6576 N   0  0  0  0  0  0  0  0  0  0  0  0
   -3.9744    6.3424   11.0947 H   0  0  0  0  0  0  0  0  0  0  0  0
   -5.6707    5.1619   10.7327 C   0  0  0  0  0  0  0  0  0  0  0  0
   -6.4533    5.6568    9.8008 C   0  0  0  0  0  0  0  0  0  0  0  0
   -7.8871    5.4530    9.7352 C   0  0  0  0  0  0  0  0  0  0  0  0
   -8.4743    4.5650   10.7520 C   0  0  0  0  0  0  0  0  0  0  0  0
   -9.1031    3.4822   10.0787 F   0  0  0  0  0  0  0  0  0  0  0  0
   -7.5450    4.0583   11.7557 C   0  0  0  0  0  0  0  0  0  0  0  0
   -6.2637    4.3327   11.7415 C   0  0  0  0  0  0  0  0  0  0  0  0
    3.8275    2.6923   15.1048 O   0  0  0  0  0  0  0  0  0  0  0  0
    5.2114    3.8374   18.8134 C   0  0  0  0  0  0  0  0  0  0  0  0
    4.7444    3.4377   17.5886 C   0  0  0  0  0  0  0  0  0  0  0  0
    4.0219    2.2744   17.4729 C   0  0  0  0  0  0  0  0  0  0  0  0
    3.5687    1.9083   16.2196 C   0  0  0  0  0  0  0  0  0  0  0  0
    2.8538    0.7527   16.1058 C   0  0  0  0  0  0  0  0  0  0  0  0
    2.6082   -0.0091   17.2557 C   0  0  0  0  0  0  0  0  0  0  0  0
    3.0680    0.3873   18.4511 N   0  0  0  0  0  0  0  0  0  0  0  0
    3.7905    1.5380   18.6137 C   0  0  0  0  0  0  0  0  0  0  0  0
    4.2510    1.9267   19.8422 C   0  0  0  0  0  0  0  0  0  0  0  0
    4.9939    3.1135   19.9994 C   0  0  0  0  0  0  0  0  0  0  0  0
    6.3777    5.6514   17.7599 C   0  0  0  0  0  0  0  0  0  0  0  0
    5.9379    5.0058   18.9389 O   0  0  0  0  0  0  0  0  0  0  0  0
    5.4595    3.5403   21.1342 O   0  0  0  0  0  0  0  0  0  0  0  0
    5.9202    3.9509   22.2612 C   0  0  0  0  0  0  0  0  0  0  0  0
    6.8238    5.1922   22.2030 C   0  0  0  0  0  0  0  0  0  0  0  0
    6.0128    6.4585   22.1253 C   0  0  0  0  0  0  0  0  0  0  0  0
    6.7984    7.5478   21.5341 N   0  0  0  0  0  0  0  0  0  0  0  0
    6.9995    8.5103   22.5973 C   0  0  0  0  0  0  0  0  0  0  0  0
    8.0655    9.5176   22.2565 C   0  0  0  0  0  0  0  0  0  0  0  0
    9.2783    8.7788   21.9842 N   0  0  0  0  0  0  0  0  0  0  0  0
   10.4423    9.6461   21.9119 C   0  0  0  0  0  0  0  0  0  0  0  0
    9.0757    8.0350   20.7578 C   0  0  0  0  0  0  0  0  0  0  0  0
    8.0060    6.9972   21.0223 C   0  0  0  0  0  0  0  0  0  0  0  0
 37 38  1  0  0  0
 38 27  1  0  0  0
 27 28  2  0  0  0
 28 29  1  0  0  0
 29 30  2  0  0  0
 30 26  1  0  0  0
 26  1  1  0  0  0
  1  2  2  0  0  0
  2  3  1  0  0  0
  3  4  2  0  0  0
  4  8  1  0  0  0
  8  9  1  0  0  0
  9 10  2  0  0  0
  9 12  1  0  0  0
 12 13  1  0  0  0
 13 14  1  0  0  0
 12 15  1  0  0  0
 15 16  2  0  0  0
 15 17  1  0  0  0
 17 19  1  0  0  0
 19 20  2  0  0  0
 20 21  1  0  0  0
 21 22  1  0  0  0
 22 23  1  0  0  0
 22 24  1  0  0  0
 24 25  2  0  0  0
  4  5  1  0  0  0
  5  6  2  0  0  0
  6  7  1  0  0  0
 30 31  1  0  0  0
 31 32  2  0  0  0
 32 33  1  0  0  0
 33 34  2  0  0  0
 34 35  1  0  0  0
 35 36  2  0  0  0
 36 39  1  0  0  0
 39 40  1  0  0  0
 40 41  1  0  0  0
 41 42  1  0  0  0
 42 43  1  0  0  0
 43 44  1  0  0  0
 44 45  1  0  0  0
 45 46  1  0  0  0
 46 47  1  0  0  0
 46 48  1  0  0  0
 48 49  1  0  0  0
 36 27  1  0  0  0
 49 43  1  0  0  0
 34 29  1  0  0  0
  6  1  1  0  0  0
 14 12  1  0  0  0
 25 19  1  0  0  0
  8 11  1  0  0  0
 17 18  1  0  0  0
M  END
> <minimizedAffinity>
-8.75525

> <CNNscore>
0.1732980609

> <CNNaffinity>
6.5461015701

> <CNN_VS>
1.1344267130

> <CNNaffinity_variance>
0.2099314034

$$$$
[H]C1=C([H])C([H])(F)C([H])([H])C([H])=C1N([H])C(=O)C1(C(=O)N([H])c2c([H])c([H])c(Oc3c([H])c([H])nc4c([H])c(OC([H])([H])C([H])([H])C([H])([H])N5C([H])([H])C([H])([H])C([H])(C([H])([H])[H])C([H])([H])C5([H])[H])c(OC([H])([H])[H])c([H])c34)c(F)c2[H])C([H])([H])C1([H])[H]


 49 54  0  0  0  0  0  0  0  0999 V2000
    3.9633    1.8396   17.1325 C   0  0  0  0  0  0  0  0  0  0  0  0
    4.1319    3.0977   16.5964 C   0  0  0  0  0  0  0  0  0  0  0  0
    3.3509    3.5532   15.5810 C   0  0  0  0  0  0  0  0  0  0  0  0
    2.3116    2.7884   14.9921 C   0  0  0  0  0  0  0  0  0  0  0  0
    2.1586    1.5441   15.5335 C   0  0  0  0  0  0  0  0  0  0  0  0
    2.9658    1.0741   16.5828 C   0  0  0  0  0  0  0  0  0  0  0  0
    2.7435   -0.2052   17.0375 F   0  0  0  0  0  0  0  0  0  0  0  0
    1.5662    3.3616   13.9514 N   0  0  0  0  0  0  0  0  0  0  0  0
    1.6676    3.0694   12.6049 C   0  0  0  0  0  0  0  0  0  0  0  0
    2.5122    2.1823   12.2065 O   0  0  0  0  0  0  0  0  0  0  0  0
    0.8417    4.0870   14.2321 H   0  0  0  0  0  0  0  0  0  0  0  0
    0.8993    3.6596   11.4772 C   0  0  0  0  0  0  0  0  0  0  0  0
    1.6399    4.6021   10.5439 C   0  0  0  0  0  0  0  0  0  0  0  0
    1.3381    3.1915   10.1220 C   0  0  0  0  0  0  0  0  0  0  0  0
   -0.5087    4.0253   11.6700 C   0  0  0  0  0  0  0  0  0  0  0  0
   -0.9457    4.4459   12.7421 O   0  0  0  0  0  0  0  0  0  0  0  0
   -1.4689    3.9106   10.6006 N   0  0  0  0  0  0  0  0  0  0  0  0
   -1.2018    3.5792    9.6568 H   0  0  0  0  0  0  0  0  0  0  0  0
   -2.8315    4.2549   10.7966 C   0  0  0  0  0  0  0  0  0  0  0  0
   -3.7504    3.4149   10.3882 C   0  0  0  0  0  0  0  0  0  0  0  0
   -5.1870    3.6740   10.5395 C   0  0  0  0  0  0  0  0  0  0  0  0
   -5.5509    4.9236   11.2609 C   0  0  0  0  0  0  0  0  0  0  0  0
   -6.2519    4.5192   12.4158 F   0  0  0  0  0  0  0  0  0  0  0  0
   -4.4329    5.7718   11.6585 C   0  0  0  0  0  0  0  0  0  0  0  0
   -3.1893    5.4827   11.4561 C   0  0  0  0  0  0  0  0  0  0  0  0
    4.7654    1.3867   18.1648 O   0  0  0  0  0  0  0  0  0  0  0  0
    5.4387    4.9957   20.0022 C   0  0  0  0  0  0  0  0  0  0  0  0
    5.2100    3.7710   19.3736 C   0  0  0  0  0  0  0  0  0  0  0  0
    4.5997    2.7656   20.0907 C   0  0  0  0  0  0  0  0  0  0  0  0
    4.3623    1.5241   19.4737 C   0  0  0  0  0  0  0  0  0  0  0  0
    3.7570    0.5335   20.1932 C   0  0  0  0  0  0  0  0  0  0  0  0
    3.3913    0.7683   21.5094 C   0  0  0  0  0  0  0  0  0  0  0  0
    3.6154    1.9437   22.0973 N   0  0  0  0  0  0  0  0  0  0  0  0
    4.2052    2.9208   21.4067 C   0  0  0  0  0  0  0  0  0  0  0  0
    4.4640    4.1666   21.9697 C   0  0  0  0  0  0  0  0  0  0  0  0
    5.0660    5.2041   21.3102 C   0  0  0  0  0  0  0  0  0  0  0  0
    6.1180    5.9222   17.8786 C   0  0  0  0  0  0  0  0  0  0  0  0
    6.0512    5.9931   19.2713 O   0  0  0  0  0  0  0  0  0  0  0  0
    5.2770    6.4042   21.9635 O   0  0  0  0  0  0  0  0  0  0  0  0
    6.5296    6.9028   22.3046 C   0  0  0  0  0  0  0  0  0  0  0  0
    6.7723    8.2093   21.5939 C   0  0  0  0  0  0  0  0  0  0  0  0
    5.6791    9.2346   21.8670 C   0  0  0  0  0  0  0  0  0  0  0  0
    5.2753    9.7804   20.6413 N   0  0  0  0  0  0  0  0  0  0  0  0
    5.4514   11.1375   20.3563 C   0  0  0  0  0  0  0  0  0  0  0  0
    4.8692   11.4159   18.9727 C   0  0  0  0  0  0  0  0  0  0  0  0
    3.4772   10.8379   18.8908 C   0  0  0  0  0  0  0  0  0  0  0  0
    2.8086   11.1782   17.5759 C   0  0  0  0  0  0  0  0  0  0  0  0
    3.4952    9.3463   19.1405 C   0  0  0  0  0  0  0  0  0  0  0  0
    4.9077    8.9303   19.5786 C   0  0  0  0  0  0  0  0  0  0  0  0
 37 38  1  0  0  0
 38 27  1  0  0  0
 27 28  2  0  0  0
 28 29  1  0  0  0
 29 30  2  0  0  0
 30 26  1  0  0  0
 26  1  1  0  0  0
  1  2  2  0  0  0
  2  3  1  0  0  0
  3  4  2  0  0  0
  4  8  1  0  0  0
  8  9  1  0  0  0
  9 10  2  0  0  0
  9 12  1  0  0  0
 12 13  1  0  0  0
 13 14  1  0  0  0
 12 15  1  0  0  0
 15 16  2  0  0  0
 15 17  1  0  0  0
 17 19  1  0  0  0
 19 20  2  0  0  0
 20 21  1  0  0  0
 21 22  1  0  0  0
 22 23  1  0  0  0
 22 24  1  0  0  0
 24 25  2  0  0  0
  4  5  1  0  0  0
  5  6  2  0  0  0
  6  7  1  0  0  0
 30 31  1  0  0  0
 31 32  2  0  0  0
 32 33  1  0  0  0
 33 34  2  0  0  0
 34 35  1  0  0  0
 35 36  2  0  0  0
 36 39  1  0  0  0
 39 40  1  0  0  0
 40 41  1  0  0  0
 41 42  1  0  0  0
 42 43  1  0  0  0
 43 44  1  0  0  0
 44 45  1  0  0  0
 45 46  1  0  0  0
 46 47  1  0  0  0
 46 48  1  0  0  0
 48 49  1  0  0  0
 36 27  1  0  0  0
 49 43  1  0  0  0
 34 29  1  0  0  0
  6  1  1  0  0  0
 14 12  1  0  0  0
 25 19  1  0  0  0
  8 11  1  0  0  0
 17 18  1  0  0  0
M  END
> <minimizedAffinity>
-10.12069

> <CNNscore>
0.2910428047

> <CNNaffinity>
7.0617780685

> <CNN_VS>
2.0552797318

> <CNNaffinity_variance>
0.4405105710

$$$$
[H]C1=C([H])C([H])(F)C([H])([H])C([H])=C1N([H])C(=O)C1(C(=O)N([H])c2c([H])c([H])c(Oc3c([H])c([H])nc4c([H])c(OC([H])([H])C([H])([H])C([H])([H])N5C([H])([H])C([H])([H])C([H])(C([H])([H])[H])C([H])([H])C5([H])[H])c(OC([H])([H])[H])c([H])c34)c(F)c2[H])C([H])([H])C1([H])[H]


 49 54  0  0  0  0  0  0  0  0999 V2000
    4.0111    1.6242   17.2444 C   0  0  0  0  0  0  0  0  0  0  0  0
    4.1274    2.8413   16.6087 C   0  0  0  0  0  0  0  0  0  0  0  0
    3.3490    3.1692   15.5433 C   0  0  0  0  0  0  0  0  0  0  0  0
    2.3654    2.3039   14.9996 C   0  0  0  0  0  0  0  0  0  0  0  0
    2.2638    1.1020   15.6395 C   0  0  0  0  0  0  0  0  0  0  0  0
    3.0683    0.7637   16.7404 C   0  0  0  0  0  0  0  0  0  0  0  0
    2.9016   -0.4839   17.2956 F   0  0  0  0  0  0  0  0  0  0  0  0
    1.6170    2.7489   13.8999 N   0  0  0  0  0  0  0  0  0  0  0  0
    1.8827    2.5035   12.5665 C   0  0  0  0  0  0  0  0  0  0  0  0
    2.9063    1.7930   12.2403 O   0  0  0  0  0  0  0  0  0  0  0  0
    0.7505    3.3244   14.1188 H   0  0  0  0  0  0  0  0  0  0  0  0
    1.1160    2.9624   11.3782 C   0  0  0  0  0  0  0  0  0  0  0  0
    0.0669    4.0393   11.5959 C   0  0  0  0  0  0  0  0  0  0  0  0
    1.3933    4.3802   10.9768 C   0  0  0  0  0  0  0  0  0  0  0  0
    0.7470    1.9985   10.3350 C   0  0  0  0  0  0  0  0  0  0  0  0
    0.8241    2.2572    9.1332 O   0  0  0  0  0  0  0  0  0  0  0  0
    0.2683    0.6791   10.6653 N   0  0  0  0  0  0  0  0  0  0  0  0
    0.1780    0.3578   11.6453 H   0  0  0  0  0  0  0  0  0  0  0  0
   -0.0979   -0.2444    9.6522 C   0  0  0  0  0  0  0  0  0  0  0  0
   -1.2972   -0.1544    9.1322 C   0  0  0  0  0  0  0  0  0  0  0  0
   -1.7776   -1.0599    8.0819 C   0  0  0  0  0  0  0  0  0  0  0  0
   -0.7906   -2.0520    7.5760 C   0  0  0  0  0  0  0  0  0  0  0  0
   -0.6030   -1.7565    6.2099 F   0  0  0  0  0  0  0  0  0  0  0  0
    0.5064   -2.0494    8.2432 C   0  0  0  0  0  0  0  0  0  0  0  0
    0.8390   -1.2335    9.1891 C   0  0  0  0  0  0  0  0  0  0  0  0
    4.8102    1.3014   18.3267 O   0  0  0  0  0  0  0  0  0  0  0  0
    5.4455    4.9523   20.0933 C   0  0  0  0  0  0  0  0  0  0  0  0
    5.2299    3.7133   19.4888 C   0  0  0  0  0  0  0  0  0  0  0  0
    4.5751    2.7354   20.2046 C   0  0  0  0  0  0  0  0  0  0  0  0
    4.3501    1.4799   19.6116 C   0  0  0  0  0  0  0  0  0  0  0  0
    3.7003    0.5167   20.3297 C   0  0  0  0  0  0  0  0  0  0  0  0
    3.2787    0.7923   21.6210 C   0  0  0  0  0  0  0  0  0  0  0  0
    3.4908    1.9811   22.1861 N   0  0  0  0  0  0  0  0  0  0  0  0
    4.1236    2.9317   21.4966 C   0  0  0  0  0  0  0  0  0  0  0  0
    4.3725    4.1898   22.0365 C   0  0  0  0  0  0  0  0  0  0  0  0
    5.0168    5.2015   21.3769 C   0  0  0  0  0  0  0  0  0  0  0  0
    6.1046    5.8901   17.9683 C   0  0  0  0  0  0  0  0  0  0  0  0
    6.1029    5.9220   19.3640 O   0  0  0  0  0  0  0  0  0  0  0  0
    5.2132    6.4168   22.0060 O   0  0  0  0  0  0  0  0  0  0  0  0
    6.4609    6.9700   22.2731 C   0  0  0  0  0  0  0  0  0  0  0  0
    6.4706    8.4255   21.8828 C   0  0  0  0  0  0  0  0  0  0  0  0
    5.0711    9.0252   21.8293 C   0  0  0  0  0  0  0  0  0  0  0  0
    4.9186    9.6700   20.5947 N   0  0  0  0  0  0  0  0  0  0  0  0
    5.4690   10.9336   20.3613 C   0  0  0  0  0  0  0  0  0  0  0  0
    5.0857   11.3697   18.9493 C   0  0  0  0  0  0  0  0  0  0  0  0
    3.6003   11.1845   18.7550 C   0  0  0  0  0  0  0  0  0  0  0  0
    3.1453   11.7027   17.4074 C   0  0  0  0  0  0  0  0  0  0  0  0
    3.2035    9.7399   18.9628 C   0  0  0  0  0  0  0  0  0  0  0  0
    4.4186    8.9584   19.4853 C   0  0  0  0  0  0  0  0  0  0  0  0
 37 38  1  0  0  0
 38 27  1  0  0  0
 27 28  2  0  0  0
 28 29  1  0  0  0
 29 30  2  0  0  0
 30 26  1  0  0  0
 26  1  1  0  0  0
  1  2  2  0  0  0
  2  3  1  0  0  0
  3  4  2  0  0  0
  4  8  1  0  0  0
  8  9  1  0  0  0
  9 10  2  0  0  0
  9 12  1  0  0  0
 12 13  1  0  0  0
 13 14  1  0  0  0
 12 15  1  0  0  0
 15 16  2  0  0  0
 15 17  1  0  0  0
 17 19  1  0  0  0
 19 20  2  0  0  0
 20 21  1  0  0  0
 21 22  1  0  0  0
 22 23  1  0  0  0
 22 24  1  0  0  0
 24 25  2  0  0  0
  4  5  1  0  0  0
  5  6  2  0  0  0
  6  7  1  0  0  0
 30 31  1  0  0  0
 31 32  2  0  0  0
 32 33  1  0  0  0
 33 34  2  0  0  0
 34 35  1  0  0  0
 35 36  2  0  0  0
 36 39  1  0  0  0
 39 40  1  0  0  0
 40 41  1  0  0  0
 41 42  1  0  0  0
 42 43  1  0  0  0
 43 44  1  0  0  0
 44 45  1  0  0  0
 45 46  1  0  0  0
 46 47  1  0  0  0
 46 48  1  0  0  0
 48 49  1  0  0  0
 36 27  1  0  0  0
 49 43  1  0  0  0
 34 29  1  0  0  0
  6  1  1  0  0  0
 14 12  1  0  0  0
 25 19  1  0  0  0
  8 11  1  0  0  0
 17 18  1  0  0  0
M  END
> <minimizedAffinity>
-9.48174

> <CNNscore>
0.2583347559

> <CNNaffinity>
6.9841318130

> <CNN_VS>
1.8042440414

> <CNNaffinity_variance>
0.4402468204

$$$$
[H]C1=C([H])C([H])(F)C([H])([H])C([H])=C1N([H])C(=O)C1(C(=O)N([H])c2c([H])c([H])c(Oc3c([H])c([H])nc4c([H])c(OC([H])([H])C([H])([H])C([H])([H])N5C([H])([H])C([H])([H])C([H])(C([H])([H])[H])C([H])([H])C5([H])[H])c(OC([H])([H])[H])c([H])c34)c(F)c2[H])C([H])([H])C1([H])[H]


 49 54  0  0  0  0  0  0  0  0999 V2000
    2.9457    2.5684   14.6062 C   0  0  0  0  0  0  0  0  0  0  0  0
    2.2979    1.8076   13.6573 C   0  0  0  0  0  0  0  0  0  0  0  0
    1.3286    2.3311   12.8605 C   0  0  0  0  0  0  0  0  0  0  0  0
    0.9040    3.6824   12.9330 C   0  0  0  0  0  0  0  0  0  0  0  0
    1.5543    4.4221   13.8788 C   0  0  0  0  0  0  0  0  0  0  0  0
    2.5559    3.8808   14.7018 C   0  0  0  0  0  0  0  0  0  0  0  0
    3.1297    4.7076   15.6398 F   0  0  0  0  0  0  0  0  0  0  0  0
   -0.1032    4.1152   12.0579 N   0  0  0  0  0  0  0  0  0  0  0  0
    0.0529    4.4780   10.7340 C   0  0  0  0  0  0  0  0  0  0  0  0
    1.2202    4.4270   10.1920 O   0  0  0  0  0  0  0  0  0  0  0  0
   -1.0888    4.1562   12.4540 H   0  0  0  0  0  0  0  0  0  0  0  0
   -0.9886    4.9451    9.7813 C   0  0  0  0  0  0  0  0  0  0  0  0
   -0.8773    6.3701    9.2668 C   0  0  0  0  0  0  0  0  0  0  0  0
   -0.4805    5.2111    8.3960 C   0  0  0  0  0  0  0  0  0  0  0  0
   -2.3762    4.4962    9.9444 C   0  0  0  0  0  0  0  0  0  0  0  0
   -2.7258    3.3316    9.7476 O   0  0  0  0  0  0  0  0  0  0  0  0
   -3.4185    5.4063   10.3494 N   0  0  0  0  0  0  0  0  0  0  0  0
   -3.2279    6.4037   10.5515 H   0  0  0  0  0  0  0  0  0  0  0  0
   -4.7605    4.9687   10.4941 C   0  0  0  0  0  0  0  0  0  0  0  0
   -5.2037    4.7092   11.6996 C   0  0  0  0  0  0  0  0  0  0  0  0
   -6.5725    4.2488   11.9606 C   0  0  0  0  0  0  0  0  0  0  0  0
   -7.4683    4.1644   10.7753 C   0  0  0  0  0  0  0  0  0  0  0  0
   -8.5171    5.0771   11.0111 F   0  0  0  0  0  0  0  0  0  0  0  0
   -6.8490    4.4762    9.4921 C   0  0  0  0  0  0  0  0  0  0  0  0
   -5.6186    4.8447    9.3458 C   0  0  0  0  0  0  0  0  0  0  0  0
    3.9295    2.0240   15.4124 O   0  0  0  0  0  0  0  0  0  0  0  0
    5.3165    3.9085   18.7857 C   0  0  0  0  0  0  0  0  0  0  0  0
    4.8454    3.2718   17.6369 C   0  0  0  0  0  0  0  0  0  0  0  0
    4.0891    2.1294   17.7792 C   0  0  0  0  0  0  0  0  0  0  0  0
    3.6068    1.4736   16.6321 C   0  0  0  0  0  0  0  0  0  0  0  0
    2.8581    0.3413   16.7837 C   0  0  0  0  0  0  0  0  0  0  0  0
    2.5903   -0.1376   18.0565 C   0  0  0  0  0  0  0  0  0  0  0  0
    3.0463    0.4813   19.1458 N   0  0  0  0  0  0  0  0  0  0  0  0
    3.7784    1.5886   19.0131 C   0  0  0  0  0  0  0  0  0  0  0  0
    4.2805    2.2747   20.1146 C   0  0  0  0  0  0  0  0  0  0  0  0
    5.0366    3.4132   20.0386 C   0  0  0  0  0  0  0  0  0  0  0  0
    6.1473    5.6955   17.3908 C   0  0  0  0  0  0  0  0  0  0  0  0
    6.0730    5.0517   18.6273 O   0  0  0  0  0  0  0  0  0  0  0  0
    5.4867    4.0183   21.1973 O   0  0  0  0  0  0  0  0  0  0  0  0
    4.7714    4.9715   21.9141 C   0  0  0  0  0  0  0  0  0  0  0  0
    5.7225    5.8816   22.6477 C   0  0  0  0  0  0  0  0  0  0  0  0
    6.8791    6.3462   21.7716 C   0  0  0  0  0  0  0  0  0  0  0  0
    6.6514    7.6831   21.4196 N   0  0  0  0  0  0  0  0  0  0  0  0
    6.3556    8.6493   22.3855 C   0  0  0  0  0  0  0  0  0  0  0  0
    6.1193    9.9799   21.6754 C   0  0  0  0  0  0  0  0  0  0  0  0
    5.1452    9.7748   20.5407 C   0  0  0  0  0  0  0  0  0  0  0  0
    4.7899   11.0833   19.8673 C   0  0  0  0  0  0  0  0  0  0  0  0
    5.6738    8.7607   19.5507 C   0  0  0  0  0  0  0  0  0  0  0  0
    6.9549    8.1302   20.1176 C   0  0  0  0  0  0  0  0  0  0  0  0
 37 38  1  0  0  0
 38 27  1  0  0  0
 27 28  2  0  0  0
 28 29  1  0  0  0
 29 30  2  0  0  0
 30 26  1  0  0  0
 26  1  1  0  0  0
  1  2  2  0  0  0
  2  3  1  0  0  0
  3  4  2  0  0  0
  4  8  1  0  0  0
  8  9  1  0  0  0
  9 10  2  0  0  0
  9 12  1  0  0  0
 12 13  1  0  0  0
 13 14  1  0  0  0
 12 15  1  0  0  0
 15 16  2  0  0  0
 15 17  1  0  0  0
 17 19  1  0  0  0
 19 20  2  0  0  0
 20 21  1  0  0  0
 21 22  1  0  0  0
 22 23  1  0  0  0
 22 24  1  0  0  0
 24 25  2  0  0  0
  4  5  1  0  0  0
  5  6  2  0  0  0
  6  7  1  0  0  0
 30 31  1  0  0  0
 31 32  2  0  0  0
 32 33  1  0  0  0
 33 34  2  0  0  0
 34 35  1  0  0  0
 35 36  2  0  0  0
 36 39  1  0  0  0
 39 40  1  0  0  0
 40 41  1  0  0  0
 41 42  1  0  0  0
 42 43  1  0  0  0
 43 44  1  0  0  0
 44 45  1  0  0  0
 45 46  1  0  0  0
 46 47  1  0  0  0
 46 48  1  0  0  0
 48 49  1  0  0  0
 36 27  1  0  0  0
 49 43  1  0  0  0
 34 29  1  0  0  0
  6  1  1  0  0  0
 14 12  1  0  0  0
 25 19  1  0  0  0
  8 11  1  0  0  0
 17 18  1  0  0  0
M  END
> <minimizedAffinity>
-8.97235

> <CNNscore>
0.2243210077

> <CNNaffinity>
6.8735427856

> <CNN_VS>
1.5418800116

> <CNNaffinity_variance>
0.2688956857

$$$$
[H]C1=C([H])C([H])(F)C([H])([H])C([H])=C1N([H])C(=O)C1(C(=O)N([H])c2c([H])c([H])c(Oc3c([H])c([H])nc4c([H])c(OC([H])([H])C([H])([H])C([H])([H])N5C([H])([H])C([H])([H])C([H])(C([H])([H])[H])C([H])([H])C5([H])[H])c(OC([H])([H])[H])c([H])c34)c(F)c2[H])C([H])([H])C1([H])[H]


 49 54  0  0  0  0  0  0  0  0999 V2000
    4.1086    1.8222   17.3239 C   0  0  0  0  0  0  0  0  0  0  0  0
    4.2728    3.0113   16.6471 C   0  0  0  0  0  0  0  0  0  0  0  0
    3.4829    3.3498   15.5936 C   0  0  0  0  0  0  0  0  0  0  0  0
    2.4381    2.5246   15.1046 C   0  0  0  0  0  0  0  0  0  0  0  0
    2.2894    1.3500   15.7847 C   0  0  0  0  0  0  0  0  0  0  0  0
    3.1058    1.0007   16.8734 C   0  0  0  0  0  0  0  0  0  0  0  0
    2.8872   -0.2185   17.4721 F   0  0  0  0  0  0  0  0  0  0  0  0
    1.6836    2.9773   14.0122 N   0  0  0  0  0  0  0  0  0  0  0  0
    1.8837    2.6608   12.6824 C   0  0  0  0  0  0  0  0  0  0  0  0
    2.8433    1.8672   12.3531 O   0  0  0  0  0  0  0  0  0  0  0  0
    0.8674    3.6209   14.2350 H   0  0  0  0  0  0  0  0  0  0  0  0
    1.1088    3.1251   11.5016 C   0  0  0  0  0  0  0  0  0  0  0  0
    0.0456    4.1847   11.7354 C   0  0  0  0  0  0  0  0  0  0  0  0
    1.3662    4.5518   11.1188 C   0  0  0  0  0  0  0  0  0  0  0  0
    0.7511    2.1703   10.4462 C   0  0  0  0  0  0  0  0  0  0  0  0
    0.8251    2.4452    9.2478 O   0  0  0  0  0  0  0  0  0  0  0  0
    0.2877    0.8414   10.7596 N   0  0  0  0  0  0  0  0  0  0  0  0
    0.2013    0.5066   11.7354 H   0  0  0  0  0  0  0  0  0  0  0  0
   -0.0677   -0.0734    9.7348 C   0  0  0  0  0  0  0  0  0  0  0  0
    0.8259   -0.9489    9.3450 C   0  0  0  0  0  0  0  0  0  0  0  0
    0.5631   -1.9371    8.2922 C   0  0  0  0  0  0  0  0  0  0  0  0
   -0.8168   -1.9440    7.7353 C   0  0  0  0  0  0  0  0  0  0  0  0
   -1.3547   -3.2122    8.0369 F   0  0  0  0  0  0  0  0  0  0  0  0
   -1.7119   -0.9150    8.2526 C   0  0  0  0  0  0  0  0  0  0  0  0
   -1.3880   -0.0564    9.1631 C   0  0  0  0  0  0  0  0  0  0  0  0
    4.9198    1.4881   18.3936 O   0  0  0  0  0  0  0  0  0  0  0  0
    5.4380    5.2431   19.9701 C   0  0  0  0  0  0  0  0  0  0  0  0
    5.2619    3.9685   19.4301 C   0  0  0  0  0  0  0  0  0  0  0  0
    4.6802    2.9955   20.2125 C   0  0  0  0  0  0  0  0  0  0  0  0
    4.4960    1.7045   19.6852 C   0  0  0  0  0  0  0  0  0  0  0  0
    3.9187    0.7466   20.4691 C   0  0  0  0  0  0  0  0  0  0  0  0
    3.5287    1.0621   21.7612 C   0  0  0  0  0  0  0  0  0  0  0  0
    3.7023    2.2845   22.2642 N   0  0  0  0  0  0  0  0  0  0  0  0
    4.2643    3.2305   21.5100 C   0  0  0  0  0  0  0  0  0  0  0  0
    4.4704    4.5226   21.9834 C   0  0  0  0  0  0  0  0  0  0  0  0
    5.0419    5.5315   21.2559 C   0  0  0  0  0  0  0  0  0  0  0  0
    7.4110    6.3030   19.0682 C   0  0  0  0  0  0  0  0  0  0  0  0
    6.0223    6.2074   19.1744 O   0  0  0  0  0  0  0  0  0  0  0  0
    5.2008    6.7827   21.8222 O   0  0  0  0  0  0  0  0  0  0  0  0
    6.3356    7.1934   22.5133 C   0  0  0  0  0  0  0  0  0  0  0  0
    6.7876    8.5377   22.0039 C   0  0  0  0  0  0  0  0  0  0  0  0
    6.2077    9.6929   22.8103 C   0  0  0  0  0  0  0  0  0  0  0  0
    7.2656   10.5167   23.2171 N   0  0  0  0  0  0  0  0  0  0  0  0
    7.4346   11.7988   22.6864 C   0  0  0  0  0  0  0  0  0  0  0  0
    8.6937   12.4083   23.2977 C   0  0  0  0  0  0  0  0  0  0  0  0
    9.8327   11.4248   23.1802 C   0  0  0  0  0  0  0  0  0  0  0  0
   11.1350   12.0182   23.6737 C   0  0  0  0  0  0  0  0  0  0  0  0
    9.5039   10.1291   23.8877 C   0  0  0  0  0  0  0  0  0  0  0  0
    8.0374   10.1674   24.3438 C   0  0  0  0  0  0  0  0  0  0  0  0
 37 38  1  0  0  0
 38 27  1  0  0  0
 27 28  2  0  0  0
 28 29  1  0  0  0
 29 30  2  0  0  0
 30 26  1  0  0  0
 26  1  1  0  0  0
  1  2  2  0  0  0
  2  3  1  0  0  0
  3  4  2  0  0  0
  4  8  1  0  0  0
  8  9  1  0  0  0
  9 10  2  0  0  0
  9 12  1  0  0  0
 12 13  1  0  0  0
 13 14  1  0  0  0
 12 15  1  0  0  0
 15 16  2  0  0  0
 15 17  1  0  0  0
 17 19  1  0  0  0
 19 20  2  0  0  0
 20 21  1  0  0  0
 21 22  1  0  0  0
 22 23  1  0  0  0
 22 24  1  0  0  0
 24 25  2  0  0  0
  4  5  1  0  0  0
  5  6  2  0  0  0
  6  7  1  0  0  0
 30 31  1  0  0  0
 31 32  2  0  0  0
 32 33  1  0  0  0
 33 34  2  0  0  0
 34 35  1  0  0  0
 35 36  2  0  0  0
 36 39  1  0  0  0
 39 40  1  0  0  0
 40 41  1  0  0  0
 41 42  1  0  0  0
 42 43  1  0  0  0
 43 44  1  0  0  0
 44 45  1  0  0  0
 45 46  1  0  0  0
 46 47  1  0  0  0
 46 48  1  0  0  0
 48 49  1  0  0  0
 36 27  1  0  0  0
 49 43  1  0  0  0
 34 29  1  0  0  0
  6  1  1  0  0  0
 14 12  1  0  0  0
 25 19  1  0  0  0
  8 11  1  0  0  0
 17 18  1  0  0  0
M  END
> <minimizedAffinity>
-8.35855

> <CNNscore>
0.2213931084

> <CNNaffinity>
6.8420295715

> <CNN_VS>
1.5147781372

> <CNNaffinity_variance>
0.2221341431

$$$$
[H]C1=C([H])C([H])(F)C([H])([H])C([H])=C1N([H])C(=O)C1(C(=O)N([H])c2c([H])c([H])c(Oc3c([H])c([H])nc4c([H])c(OC([H])([H])C([H])([H])C([H])([H])N5C([H])([H])C([H])([H])C([H])(C([H])([H])[H])C([H])([H])C5([H])[H])c(OC([H])([H])[H])c([H])c34)c(F)c2[H])C([H])([H])C1([H])[H]


 49 54  0  0  0  0  0  0  0  0999 V2000
    2.1916    3.9922   13.6904 C   0  0  0  0  0  0  0  0  0  0  0  0
    1.7240    3.0875   12.7621 C   0  0  0  0  0  0  0  0  0  0  0  0
    0.5435    3.2732   12.1139 C   0  0  0  0  0  0  0  0  0  0  0  0
   -0.2984    4.3939   12.3310 C   0  0  0  0  0  0  0  0  0  0  0  0
    0.1783    5.2797   13.2544 C   0  0  0  0  0  0  0  0  0  0  0  0
    1.3984    5.0874   13.9238 C   0  0  0  0  0  0  0  0  0  0  0  0
    1.7733    6.0290   14.8541 F   0  0  0  0  0  0  0  0  0  0  0  0
   -1.4936    4.4841   11.6025 N   0  0  0  0  0  0  0  0  0  0  0  0
   -2.5326    5.3666   11.8265 C   0  0  0  0  0  0  0  0  0  0  0  0
   -2.4473    6.2221   12.7856 O   0  0  0  0  0  0  0  0  0  0  0  0
   -1.6031    3.8103   10.7876 H   0  0  0  0  0  0  0  0  0  0  0  0
   -3.8125    5.4863   11.0795 C   0  0  0  0  0  0  0  0  0  0  0  0
   -4.9986    4.6872   11.5916 C   0  0  0  0  0  0  0  0  0  0  0  0
   -4.9093    6.1663   11.8428 C   0  0  0  0  0  0  0  0  0  0  0  0
   -3.7912    5.6167    9.6180 C   0  0  0  0  0  0  0  0  0  0  0  0
   -3.1883    4.8281    8.8887 O   0  0  0  0  0  0  0  0  0  0  0  0
   -4.4841    6.6892    8.9483 N   0  0  0  0  0  0  0  0  0  0  0  0
   -5.0307    7.3982    9.4684 H   0  0  0  0  0  0  0  0  0  0  0  0
   -4.4502    6.8166    7.5355 C   0  0  0  0  0  0  0  0  0  0  0  0
   -5.4750    6.3784    6.8465 C   0  0  0  0  0  0  0  0  0  0  0  0
   -5.5407    6.4590    5.3826 C   0  0  0  0  0  0  0  0  0  0  0  0
   -4.4001    7.1441    4.7162 C   0  0  0  0  0  0  0  0  0  0  0  0
   -4.9452    8.2711    4.0670 F   0  0  0  0  0  0  0  0  0  0  0  0
   -3.3232    7.5806    5.5978 C   0  0  0  0  0  0  0  0  0  0  0  0
   -3.3298    7.4405    6.8829 C   0  0  0  0  0  0  0  0  0  0  0  0
    3.3939    3.7914   14.3448 O   0  0  0  0  0  0  0  0  0  0  0  0
    4.5199    5.4851   17.9110 C   0  0  0  0  0  0  0  0  0  0  0  0
    4.1358    4.9134   16.6974 C   0  0  0  0  0  0  0  0  0  0  0  0
    3.8464    3.5671   16.6650 C   0  0  0  0  0  0  0  0  0  0  0  0
    3.4588    2.9735   15.4501 C   0  0  0  0  0  0  0  0  0  0  0  0
    3.1743    1.6378   15.4282 C   0  0  0  0  0  0  0  0  0  0  0  0
    3.2733    0.8970   16.5955 C   0  0  0  0  0  0  0  0  0  0  0  0
    3.6408    1.4564   17.7485 N   0  0  0  0  0  0  0  0  0  0  0  0
    3.9212    2.7601   17.7852 C   0  0  0  0  0  0  0  0  0  0  0  0
    4.3102    3.3960   18.9601 C   0  0  0  0  0  0  0  0  0  0  0  0
    4.6103    4.7281   19.0565 C   0  0  0  0  0  0  0  0  0  0  0  0
    4.3997    7.6665   16.8832 C   0  0  0  0  0  0  0  0  0  0  0  0
    4.8068    6.8347   17.9279 O   0  0  0  0  0  0  0  0  0  0  0  0
    4.9871    5.2616   20.2750 O   0  0  0  0  0  0  0  0  0  0  0  0
    4.1152    5.4957   21.3329 C   0  0  0  0  0  0  0  0  0  0  0  0
    4.7034    4.9561   22.6111 C   0  0  0  0  0  0  0  0  0  0  0  0
    5.9779    4.1555   22.3753 C   0  0  0  0  0  0  0  0  0  0  0  0
    5.6304    2.8026   22.2658 N   0  0  0  0  0  0  0  0  0  0  0  0
    6.3697    1.9241   21.4683 C   0  0  0  0  0  0  0  0  0  0  0  0
    5.7079    0.5497   21.5291 C   0  0  0  0  0  0  0  0  0  0  0  0
    4.2295    0.6946   21.2607 C   0  0  0  0  0  0  0  0  0  0  0  0
    3.5390   -0.6513   21.2016 C   0  0  0  0  0  0  0  0  0  0  0  0
    3.5830    1.6119   22.2747 C   0  0  0  0  0  0  0  0  0  0  0  0
    4.6790    2.2463   23.1446 C   0  0  0  0  0  0  0  0  0  0  0  0
 37 38  1  0  0  0
 38 27  1  0  0  0
 27 28  2  0  0  0
 28 29  1  0  0  0
 29 30  2  0  0  0
 30 26  1  0  0  0
 26  1  1  0  0  0
  1  2  2  0  0  0
  2  3  1  0  0  0
  3  4  2  0  0  0
  4  8  1  0  0  0
  8  9  1  0  0  0
  9 10  2  0  0  0
  9 12  1  0  0  0
 12 13  1  0  0  0
 13 14  1  0  0  0
 12 15  1  0  0  0
 15 16  2  0  0  0
 15 17  1  0  0  0
 17 19  1  0  0  0
 19 20  2  0  0  0
 20 21  1  0  0  0
 21 22  1  0  0  0
 22 23  1  0  0  0
 22 24  1  0  0  0
 24 25  2  0  0  0
  4  5  1  0  0  0
  5  6  2  0  0  0
  6  7  1  0  0  0
 30 31  1  0  0  0
 31 32  2  0  0  0
 32 33  1  0  0  0
 33 34  2  0  0  0
 34 35  1  0  0  0
 35 36  2  0  0  0
 36 39  1  0  0  0
 39 40  1  0  0  0
 40 41  1  0  0  0
 41 42  1  0  0  0
 42 43  1  0  0  0
 43 44  1  0  0  0
 44 45  1  0  0  0
 45 46  1  0  0  0
 46 47  1  0  0  0
 46 48  1  0  0  0
 48 49  1  0  0  0
 36 27  1  0  0  0
 49 43  1  0  0  0
 34 29  1  0  0  0
  6  1  1  0  0  0
 14 12  1  0  0  0
 25 19  1  0  0  0
  8 11  1  0  0  0
 17 18  1  0  0  0
M  END
> <minimizedAffinity>
-9.02931

> <CNNscore>
0.1981145144

> <CNNaffinity>
6.7853407860

> <CNN_VS>
1.3442745209

> <CNNaffinity_variance>
0.2407460511

$$$$
[H]C1=C([H])C([H])(F)C([H])([H])C([H])=C1N([H])C(=O)C1(C(=O)N([H])c2c([H])c([H])c(Oc3c([H])c([H])nc4c([H])c(OC([H])([H])C([H])([H])C([H])([H])N5C([H])([H])C([H])([H])C([H])(C([H])([H])[H])C([H])([H])C5([H])[H])c(OC([H])([H])[H])c([H])c34)c(F)c2[H])C([H])([H])C1([H])[H]


 49 54  0  0  0  0  0  0  0  0999 V2000
    2.7567    3.7851   12.0105 C   0  0  0  0  0  0  0  0  0  0  0  0
    3.1116    5.0812   12.3155 C   0  0  0  0  0  0  0  0  0  0  0  0
    3.5947    5.4213   13.5400 C   0  0  0  0  0  0  0  0  0  0  0  0
    3.7733    4.4901   14.5949 C   0  0  0  0  0  0  0  0  0  0  0  0
    3.4157    3.2111   14.2771 C   0  0  0  0  0  0  0  0  0  0  0  0
    2.9166    2.8602   13.0116 C   0  0  0  0  0  0  0  0  0  0  0  0
    2.5627    1.5470   12.8050 F   0  0  0  0  0  0  0  0  0  0  0  0
    4.2833    4.9529   15.8168 N   0  0  0  0  0  0  0  0  0  0  0  0
    3.5518    5.3720   16.9113 C   0  0  0  0  0  0  0  0  0  0  0  0
    2.2648    5.3510   16.8643 O   0  0  0  0  0  0  0  0  0  0  0  0
    5.3420    4.9711   15.9112 H   0  0  0  0  0  0  0  0  0  0  0  0
    4.0580    5.8721   18.2167 C   0  0  0  0  0  0  0  0  0  0  0  0
    5.1568    6.9206   18.1855 C   0  0  0  0  0  0  0  0  0  0  0  0
    3.7379    7.3111   18.4904 C   0  0  0  0  0  0  0  0  0  0  0  0
    4.1701    4.9510   19.3535 C   0  0  0  0  0  0  0  0  0  0  0  0
    3.9042    3.7514   19.2662 O   0  0  0  0  0  0  0  0  0  0  0  0
    4.6037    5.4066   20.6510 N   0  0  0  0  0  0  0  0  0  0  0  0
    4.8629    6.3933   20.8273 H   0  0  0  0  0  0  0  0  0  0  0  0
    4.6991    4.5133   21.7492 C   0  0  0  0  0  0  0  0  0  0  0  0
    3.7519    4.5367   22.6543 C   0  0  0  0  0  0  0  0  0  0  0  0
    3.7547    3.6579   23.8298 C   0  0  0  0  0  0  0  0  0  0  0  0
    4.8656    2.6705   23.9020 C   0  0  0  0  0  0  0  0  0  0  0  0
    4.2607    1.3970   23.8677 F   0  0  0  0  0  0  0  0  0  0  0  0
    5.8550    2.7535   22.8335 C   0  0  0  0  0  0  0  0  0  0  0  0
    5.7944    3.5851   21.8457 C   0  0  0  0  0  0  0  0  0  0  0  0
    2.2646    3.4515   10.7613 O   0  0  0  0  0  0  0  0  0  0  0  0
    2.4524    6.1469    7.6703 C   0  0  0  0  0  0  0  0  0  0  0  0
    2.3871    5.2340    8.7236 C   0  0  0  0  0  0  0  0  0  0  0  0
    3.1789    4.1081    8.6706 C   0  0  0  0  0  0  0  0  0  0  0  0
    3.1252    3.1763    9.7229 C   0  0  0  0  0  0  0  0  0  0  0  0
    3.9140    2.0630    9.6607 C   0  0  0  0  0  0  0  0  0  0  0  0
    4.7461    1.8730    8.5687 C   0  0  0  0  0  0  0  0  0  0  0  0
    4.7990    2.7540    7.5694 N   0  0  0  0  0  0  0  0  0  0  0  0
    4.0348    3.8463    7.6167 C   0  0  0  0  0  0  0  0  0  0  0  0
    4.0489    4.7984    6.6021 C   0  0  0  0  0  0  0  0  0  0  0  0
    3.2872    5.9357    6.5970 C   0  0  0  0  0  0  0  0  0  0  0  0
    0.2633    7.1565    7.8041 C   0  0  0  0  0  0  0  0  0  0  0  0
    1.6531    7.2698    7.7374 O   0  0  0  0  0  0  0  0  0  0  0  0
    3.3772    6.8188    5.5372 O   0  0  0  0  0  0  0  0  0  0  0  0
    3.2484    6.4570    4.2006 C   0  0  0  0  0  0  0  0  0  0  0  0
    4.1957    7.2694    3.3559 C   0  0  0  0  0  0  0  0  0  0  0  0
    4.7363    8.4884    4.0927 C   0  0  0  0  0  0  0  0  0  0  0  0
    6.1339    8.3939    4.1278 N   0  0  0  0  0  0  0  0  0  0  0  0
    6.7983    7.8456    5.2287 C   0  0  0  0  0  0  0  0  0  0  0  0
    8.3009    7.9322    4.9732 C   0  0  0  0  0  0  0  0  0  0  0  0
    8.6549    9.3356    4.5446 C   0  0  0  0  0  0  0  0  0  0  0  0
   10.1499    9.5085    4.3814 C   0  0  0  0  0  0  0  0  0  0  0  0
    7.9058    9.7229    3.2890 C   0  0  0  0  0  0  0  0  0  0  0  0
    6.8850    8.6238    2.9573 C   0  0  0  0  0  0  0  0  0  0  0  0
 37 38  1  0  0  0
 38 27  1  0  0  0
 27 28  2  0  0  0
 28 29  1  0  0  0
 29 30  2  0  0  0
 30 26  1  0  0  0
 26  1  1  0  0  0
  1  2  2  0  0  0
  2  3  1  0  0  0
  3  4  2  0  0  0
  4  8  1  0  0  0
  8  9  1  0  0  0
  9 10  2  0  0  0
  9 12  1  0  0  0
 12 13  1  0  0  0
 13 14  1  0  0  0
 12 15  1  0  0  0
 15 16  2  0  0  0
 15 17  1  0  0  0
 17 19  1  0  0  0
 19 20  2  0  0  0
 20 21  1  0  0  0
 21 22  1  0  0  0
 22 23  1  0  0  0
 22 24  1  0  0  0
 24 25  2  0  0  0
  4  5  1  0  0  0
  5  6  2  0  0  0
  6  7  1  0  0  0
 30 31  1  0  0  0
 31 32  2  0  0  0
 32 33  1  0  0  0
 33 34  2  0  0  0
 34 35  1  0  0  0
 35 36  2  0  0  0
 36 39  1  0  0  0
 39 40  1  0  0  0
 40 41  1  0  0  0
 41 42  1  0  0  0
 42 43  1  0  0  0
 43 44  1  0  0  0
 44 45  1  0  0  0
 45 46  1  0  0  0
 46 47  1  0  0  0
 46 48  1  0  0  0
 48 49  1  0  0  0
 36 27  1  0  0  0
 49 43  1  0  0  0
 34 29  1  0  0  0
  6  1  1  0  0  0
 14 12  1  0  0  0
 25 19  1  0  0  0
  8 11  1  0  0  0
 17 18  1  0  0  0
M  END
> <minimizedAffinity>
-7.87826

> <CNNscore>
0.1908264905

> <CNNaffinity>
6.5672211647

> <CNN_VS>
1.2531998158

> <CNNaffinity_variance>
0.5584331155

$$$$
[H]C1=C([H])C([H])(F)C([H])([H])C([H])=C1N([H])C(=O)C1(C(=O)N([H])c2c([H])c([H])c(Oc3c([H])c([H])nc4c([H])c(OC([H])([H])C([H])([H])C([H])([H])N5C([H])([H])C([H])([H])C([H])(C([H])([H])[H])C([H])([H])C5([H])[H])c(OC([H])([H])[H])c([H])c34)c(F)c2[H])C([H])([H])C1([H])[H]


 49 54  0  0  0  0  0  0  0  0999 V2000
    4.1474    2.0596   17.3871 C   0  0  0  0  0  0  0  0  0  0  0  0
    4.6070    3.1663   16.7066 C   0  0  0  0  0  0  0  0  0  0  0  0
    3.9386    3.6783   15.6392 C   0  0  0  0  0  0  0  0  0  0  0  0
    2.7305    3.1295   15.1382 C   0  0  0  0  0  0  0  0  0  0  0  0
    2.2895    2.0330   15.8222 C   0  0  0  0  0  0  0  0  0  0  0  0
    2.9804    1.5044   16.9253 C   0  0  0  0  0  0  0  0  0  0  0  0
    2.4618    0.3811   17.5269 F   0  0  0  0  0  0  0  0  0  0  0  0
    2.1249    3.7432   14.0319 N   0  0  0  0  0  0  0  0  0  0  0  0
    1.3944    4.9158   14.0352 C   0  0  0  0  0  0  0  0  0  0  0  0
    1.2249    5.5586   15.1385 O   0  0  0  0  0  0  0  0  0  0  0  0
    2.2526    3.2597   13.0938 H   0  0  0  0  0  0  0  0  0  0  0  0
    0.7359    5.5904   12.8855 C   0  0  0  0  0  0  0  0  0  0  0  0
    1.3637    6.8766   12.3762 C   0  0  0  0  0  0  0  0  0  0  0  0
    1.5465    5.5882   11.6242 C   0  0  0  0  0  0  0  0  0  0  0  0
   -0.7276    5.5793   12.7778 C   0  0  0  0  0  0  0  0  0  0  0  0
   -1.4611    6.0783   13.6324 O   0  0  0  0  0  0  0  0  0  0  0  0
   -1.3943    4.9761   11.6507 N   0  0  0  0  0  0  0  0  0  0  0  0
   -0.8695    4.5403   10.8719 H   0  0  0  0  0  0  0  0  0  0  0  0
   -2.8101    4.9584   11.5578 C   0  0  0  0  0  0  0  0  0  0  0  0
   -3.3857    3.9074   11.0278 C   0  0  0  0  0  0  0  0  0  0  0  0
   -4.8411    3.7880   10.8817 C   0  0  0  0  0  0  0  0  0  0  0  0
   -5.6460    4.9056   11.4452 C   0  0  0  0  0  0  0  0  0  0  0  0
   -6.4419    4.3408   12.4632 F   0  0  0  0  0  0  0  0  0  0  0  0
   -4.8819    6.0158   12.0029 C   0  0  0  0  0  0  0  0  0  0  0  0
   -3.5912    6.0561   12.0632 C   0  0  0  0  0  0  0  0  0  0  0  0
    4.8373    1.5468   18.4710 O   0  0  0  0  0  0  0  0  0  0  0  0
    5.6630    5.2328   20.0790 C   0  0  0  0  0  0  0  0  0  0  0  0
    5.3827    3.9816   19.5284 C   0  0  0  0  0  0  0  0  0  0  0  0
    4.6968    3.0635   20.2925 C   0  0  0  0  0  0  0  0  0  0  0  0
    4.4065    1.7968   19.7542 C   0  0  0  0  0  0  0  0  0  0  0  0
    3.7263    0.8934   20.5200 C   0  0  0  0  0  0  0  0  0  0  0  0
    3.3383    1.2389   21.8050 C   0  0  0  0  0  0  0  0  0  0  0  0
    3.6122    2.4384   22.3184 N   0  0  0  0  0  0  0  0  0  0  0  0
    4.2754    3.3313   21.5819 C   0  0  0  0  0  0  0  0  0  0  0  0
    4.5888    4.5974   22.0667 C   0  0  0  0  0  0  0  0  0  0  0  0
    5.2666    5.5519   21.3575 C   0  0  0  0  0  0  0  0  0  0  0  0
    5.7610    6.7076   18.1699 C   0  0  0  0  0  0  0  0  0  0  0  0
    6.3510    6.1419   19.3017 O   0  0  0  0  0  0  0  0  0  0  0  0
    5.5271    6.7812   21.9339 O   0  0  0  0  0  0  0  0  0  0  0  0
    4.9863    7.9848   21.4947 C   0  0  0  0  0  0  0  0  0  0  0  0
    5.7645    9.1382   22.0735 C   0  0  0  0  0  0  0  0  0  0  0  0
    6.9185    9.5718   21.1784 C   0  0  0  0  0  0  0  0  0  0  0  0
    8.0335    8.7823   21.4892 N   0  0  0  0  0  0  0  0  0  0  0  0
    8.7749    8.1453   20.4899 C   0  0  0  0  0  0  0  0  0  0  0  0
    9.8830    7.3353   21.1582 C   0  0  0  0  0  0  0  0  0  0  0  0
    9.2903    6.4933   22.2620 C   0  0  0  0  0  0  0  0  0  0  0  0
   10.3275    5.5868   22.8899 C   0  0  0  0  0  0  0  0  0  0  0  0
    8.6049    7.3600   23.2948 C   0  0  0  0  0  0  0  0  0  0  0  0
    8.5762    8.8106   22.7899 C   0  0  0  0  0  0  0  0  0  0  0  0
 37 38  1  0  0  0
 38 27  1  0  0  0
 27 28  2  0  0  0
 28 29  1  0  0  0
 29 30  2  0  0  0
 30 26  1  0  0  0
 26  1  1  0  0  0
  1  2  2  0  0  0
  2  3  1  0  0  0
  3  4  2  0  0  0
  4  8  1  0  0  0
  8  9  1  0  0  0
  9 10  2  0  0  0
  9 12  1  0  0  0
 12 13  1  0  0  0
 13 14  1  0  0  0
 12 15  1  0  0  0
 15 16  2  0  0  0
 15 17  1  0  0  0
 17 19  1  0  0  0
 19 20  2  0  0  0
 20 21  1  0  0  0
 21 22  1  0  0  0
 22 23  1  0  0  0
 22 24  1  0  0  0
 24 25  2  0  0  0
  4  5  1  0  0  0
  5  6  2  0  0  0
  6  7  1  0  0  0
 30 31  1  0  0  0
 31 32  2  0  0  0
 32 33  1  0  0  0
 33 34  2  0  0  0
 34 35  1  0  0  0
 35 36  2  0  0  0
 36 39  1  0  0  0
 39 40  1  0  0  0
 40 41  1  0  0  0
 41 42  1  0  0  0
 42 43  1  0  0  0
 43 44  1  0  0  0
 44 45  1  0  0  0
 45 46  1  0  0  0
 46 47  1  0  0  0
 46 48  1  0  0  0
 48 49  1  0  0  0
 36 27  1  0  0  0
 49 43  1  0  0  0
 34 29  1  0  0  0
  6  1  1  0  0  0
 14 12  1  0  0  0
 25 19  1  0  0  0
  8 11  1  0  0  0
 17 18  1  0  0  0
M  END
> <minimizedAffinity>
-9.90160

> <CNNscore>
0.1882625520

> <CNNaffinity>
7.0274062157

> <CNN_VS>
1.3229974508

> <CNNaffinity_variance>
0.3111663163

$$$$
[H]C1=C([H])C([H])(F)C([H])([H])C([H])=C1N([H])C(=O)C1(C(=O)N([H])c2c([H])c([H])c(Oc3c([H])c([H])nc4c([H])c(OC([H])([H])C([H])([H])C([H])([H])N5C([H])([H])C([H])([H])C([H])(C([H])([H])[H])C([H])([H])C5([H])[H])c(OC([H])([H])[H])c([H])c34)c(F)c2[H])C([H])([H])C1([H])[H]


 49 54  0  0  0  0  0  0  0  0999 V2000
    4.2340    2.1576   17.1947 C   0  0  0  0  0  0  0  0  0  0  0  0
    4.7190    3.2560   16.5186 C   0  0  0  0  0  0  0  0  0  0  0  0
    4.0476    3.8056   15.4719 C   0  0  0  0  0  0  0  0  0  0  0  0
    2.8104    3.3069   14.9898 C   0  0  0  0  0  0  0  0  0  0  0  0
    2.3444    2.2180   15.6692 C   0  0  0  0  0  0  0  0  0  0  0  0
    3.0386    1.6505   16.7508 C   0  0  0  0  0  0  0  0  0  0  0  0
    2.4924    0.5387   17.3493 F   0  0  0  0  0  0  0  0  0  0  0  0
    2.2046    3.9564   13.9041 N   0  0  0  0  0  0  0  0  0  0  0  0
    1.3747    5.0595   13.9602 C   0  0  0  0  0  0  0  0  0  0  0  0
    1.0992    5.5932   15.0996 O   0  0  0  0  0  0  0  0  0  0  0  0
    2.4170    3.5638   12.9394 H   0  0  0  0  0  0  0  0  0  0  0  0
    0.7129    5.7685   12.8334 C   0  0  0  0  0  0  0  0  0  0  0  0
    0.8576    7.2796   12.7764 C   0  0  0  0  0  0  0  0  0  0  0  0
    1.6631    6.4008   11.8611 C   0  0  0  0  0  0  0  0  0  0  0  0
   -0.5837    5.2929   12.3371 C   0  0  0  0  0  0  0  0  0  0  0  0
   -1.1017    4.2458   12.7276 O   0  0  0  0  0  0  0  0  0  0  0  0
   -1.3308    6.0358   11.3529 N   0  0  0  0  0  0  0  0  0  0  0  0
   -0.9896    6.9347   10.9688 H   0  0  0  0  0  0  0  0  0  0  0  0
   -2.5786    5.5649   10.8684 C   0  0  0  0  0  0  0  0  0  0  0  0
   -3.6660    5.9068   11.5146 C   0  0  0  0  0  0  0  0  0  0  0  0
   -5.0054    5.4727   11.1007 C   0  0  0  0  0  0  0  0  0  0  0  0
   -5.0729    4.6757    9.8459 C   0  0  0  0  0  0  0  0  0  0  0  0
   -5.8432    5.4346    8.9407 F   0  0  0  0  0  0  0  0  0  0  0  0
   -3.7899    4.3610    9.2277 C   0  0  0  0  0  0  0  0  0  0  0  0
   -2.6454    4.7581    9.6788 C   0  0  0  0  0  0  0  0  0  0  0  0
    4.9273    1.6062   18.2575 O   0  0  0  0  0  0  0  0  0  0  0  0
    5.5765    5.2217   20.0908 C   0  0  0  0  0  0  0  0  0  0  0  0
    5.3561    3.9948   19.4637 C   0  0  0  0  0  0  0  0  0  0  0  0
    4.6987    3.0059   20.1618 C   0  0  0  0  0  0  0  0  0  0  0  0
    4.4690    1.7624   19.5460 C   0  0  0  0  0  0  0  0  0  0  0  0
    3.8167    0.7883   20.2467 C   0  0  0  0  0  0  0  0  0  0  0  0
    3.3971    1.0413   21.5433 C   0  0  0  0  0  0  0  0  0  0  0  0
    3.6137    2.2187   22.1301 N   0  0  0  0  0  0  0  0  0  0  0  0
    4.2491    3.1798   21.4577 C   0  0  0  0  0  0  0  0  0  0  0  0
    4.5027    4.4268   22.0205 C   0  0  0  0  0  0  0  0  0  0  0  0
    5.1497    5.4484   21.3792 C   0  0  0  0  0  0  0  0  0  0  0  0
    6.2721    6.1731   17.9837 C   0  0  0  0  0  0  0  0  0  0  0  0
    6.2364    6.2024   19.3790 O   0  0  0  0  0  0  0  0  0  0  0  0
    5.3508    6.6512   22.0305 O   0  0  0  0  0  0  0  0  0  0  0  0
    6.5483    7.0304   22.6271 C   0  0  0  0  0  0  0  0  0  0  0  0
    6.9006    8.4381   22.2206 C   0  0  0  0  0  0  0  0  0  0  0  0
    6.4759    9.4693   23.2585 C   0  0  0  0  0  0  0  0  0  0  0  0
    7.3930   10.5280   23.2239 N   0  0  0  0  0  0  0  0  0  0  0  0
    8.3982   10.6513   24.1874 C   0  0  0  0  0  0  0  0  0  0  0  0
    9.1895   11.9234   23.8941 C   0  0  0  0  0  0  0  0  0  0  0  0
    8.2320   13.0743   23.7015 C   0  0  0  0  0  0  0  0  0  0  0  0
    8.9661   14.3850   23.5142 C   0  0  0  0  0  0  0  0  0  0  0  0
    7.2776   12.7989   22.5610 C   0  0  0  0  0  0  0  0  0  0  0  0
    7.4746   11.3522   22.0832 C   0  0  0  0  0  0  0  0  0  0  0  0
 37 38  1  0  0  0
 38 27  1  0  0  0
 27 28  2  0  0  0
 28 29  1  0  0  0
 29 30  2  0  0  0
 30 26  1  0  0  0
 26  1  1  0  0  0
  1  2  2  0  0  0
  2  3  1  0  0  0
  3  4  2  0  0  0
  4  8  1  0  0  0
  8  9  1  0  0  0
  9 10  2  0  0  0
  9 12  1  0  0  0
 12 13  1  0  0  0
 13 14  1  0  0  0
 12 15  1  0  0  0
 15 16  2  0  0  0
 15 17  1  0  0  0
 17 19  1  0  0  0
 19 20  2  0  0  0
 20 21  1  0  0  0
 21 22  1  0  0  0
 22 23  1  0  0  0
 22 24  1  0  0  0
 24 25  2  0  0  0
  4  5  1  0  0  0
  5  6  2  0  0  0
  6  7  1  0  0  0
 30 31  1  0  0  0
 31 32  2  0  0  0
 32 33  1  0  0  0
 33 34  2  0  0  0
 34 35  1  0  0  0
 35 36  2  0  0  0
 36 39  1  0  0  0
 39 40  1  0  0  0
 40 41  1  0  0  0
 41 42  1  0  0  0
 42 43  1  0  0  0
 43 44  1  0  0  0
 44 45  1  0  0  0
 45 46  1  0  0  0
 46 47  1  0  0  0
 46 48  1  0  0  0
 48 49  1  0  0  0
 36 27  1  0  0  0
 49 43  1  0  0  0
 34 29  1  0  0  0
  6  1  1  0  0  0
 14 12  1  0  0  0
 25 19  1  0  0  0
  8 11  1  0  0  0
 17 18  1  0  0  0
M  END
> <minimizedAffinity>
-8.84476

> <CNNscore>
0.1851870567

> <CNNaffinity>
6.6716284752

> <CNN_VS>
1.2354992628

> <CNNaffinity_variance>
0.2284538001

$$$$
[H]C1=C([H])C([H])(F)C([H])([H])C([H])=C1N([H])C(=O)C1(C(=O)N([H])c2c([H])c([H])c(Oc3c([H])c([H])nc4c([H])c(OC([H])([H])C([H])([H])C([H])([H])N5C([H])([H])C([H])([H])C([H])(C([H])([H])[H])C([H])([H])C5([H])[H])c(OC([H])([H])[H])c([H])c34)c(F)c2[H])C([H])([H])C1([H])[H]


 49 54  0  0  0  0  0  0  0  0999 V2000
    4.4748    2.6308   17.8977 C   0  0  0  0  0  0  0  0  0  0  0  0
    3.2054    2.1366   17.6895 C   0  0  0  0  0  0  0  0  0  0  0  0
    2.4903    2.4481   16.5759 C   0  0  0  0  0  0  0  0  0  0  0  0
    2.9769    3.2946   15.5471 C   0  0  0  0  0  0  0  0  0  0  0  0
    4.2349    3.7769   15.7693 C   0  0  0  0  0  0  0  0  0  0  0  0
    4.9735    3.4547   16.9201 C   0  0  0  0  0  0  0  0  0  0  0  0
    6.2223    4.0154   17.0569 F   0  0  0  0  0  0  0  0  0  0  0  0
    2.1525    3.5443   14.4402 N   0  0  0  0  0  0  0  0  0  0  0  0
    2.4007    4.4292   13.4087 C   0  0  0  0  0  0  0  0  0  0  0  0
    3.4889    5.1183   13.4072 O   0  0  0  0  0  0  0  0  0  0  0  0
    1.2500    2.9852   14.3865 H   0  0  0  0  0  0  0  0  0  0  0  0
    1.5491    4.7222   12.2257 C   0  0  0  0  0  0  0  0  0  0  0  0
    0.6765    3.5970   11.6962 C   0  0  0  0  0  0  0  0  0  0  0  0
    0.0768    4.7099   12.5090 C   0  0  0  0  0  0  0  0  0  0  0  0
    2.0520    5.6092   11.1703 C   0  0  0  0  0  0  0  0  0  0  0  0
    1.4693    6.6415   10.8356 O   0  0  0  0  0  0  0  0  0  0  0  0
    3.2715    5.3161   10.4591 N   0  0  0  0  0  0  0  0  0  0  0  0
    3.8432    4.4797   10.6722 H   0  0  0  0  0  0  0  0  0  0  0  0
    3.7465    6.1717    9.4317 C   0  0  0  0  0  0  0  0  0  0  0  0
    4.5899    7.1216    9.7533 C   0  0  0  0  0  0  0  0  0  0  0  0
    5.1399    8.0619    8.7699 C   0  0  0  0  0  0  0  0  0  0  0  0
    4.7442    7.8293    7.3544 C   0  0  0  0  0  0  0  0  0  0  0  0
    5.9362    7.5467    6.6557 F   0  0  0  0  0  0  0  0  0  0  0  0
    3.7972    6.7421    7.1337 C   0  0  0  0  0  0  0  0  0  0  0  0
    3.3336    5.9773    8.0671 C   0  0  0  0  0  0  0  0  0  0  0  0
    5.1921    2.3080   19.0358 O   0  0  0  0  0  0  0  0  0  0  0  0
    6.2030    6.0970   20.2507 C   0  0  0  0  0  0  0  0  0  0  0  0
    5.8598    4.8103   19.8335 C   0  0  0  0  0  0  0  0  0  0  0  0
    5.1116    4.0207   20.6785 C   0  0  0  0  0  0  0  0  0  0  0  0
    4.7576    2.7205   20.2751 C   0  0  0  0  0  0  0  0  0  0  0  0
    4.0159    1.9452   21.1202 C   0  0  0  0  0  0  0  0  0  0  0  0
    3.6295    2.4504   22.3517 C   0  0  0  0  0  0  0  0  0  0  0  0
    3.9638    3.6820   22.7373 N   0  0  0  0  0  0  0  0  0  0  0  0
    4.6875    4.4510   21.9221 C   0  0  0  0  0  0  0  0  0  0  0  0
    5.0653    5.7433   22.2729 C   0  0  0  0  0  0  0  0  0  0  0  0
    5.8068    6.5756   21.4784 C   0  0  0  0  0  0  0  0  0  0  0  0
    6.5201    7.1272   18.0903 C   0  0  0  0  0  0  0  0  0  0  0  0
    6.9529    6.8762   19.3936 O   0  0  0  0  0  0  0  0  0  0  0  0
    6.1284    7.8445   21.9232 O   0  0  0  0  0  0  0  0  0  0  0  0
    5.2285    8.9022   21.9973 C   0  0  0  0  0  0  0  0  0  0  0  0
    4.5771    9.1160   20.6553 C   0  0  0  0  0  0  0  0  0  0  0  0
    5.2357   10.2348   19.8580 C   0  0  0  0  0  0  0  0  0  0  0  0
    4.2245   11.0150   19.2818 N   0  0  0  0  0  0  0  0  0  0  0  0
    3.0994   10.4291   18.6946 C   0  0  0  0  0  0  0  0  0  0  0  0
    2.2223   11.5413   18.1250 C   0  0  0  0  0  0  0  0  0  0  0  0
    3.0708   12.4678   17.2883 C   0  0  0  0  0  0  0  0  0  0  0  0
    2.2330   13.5302   16.6092 C   0  0  0  0  0  0  0  0  0  0  0  0
    4.1840   13.0745   18.1130 C   0  0  0  0  0  0  0  0  0  0  0  0
    4.2005   12.4079   19.4970 C   0  0  0  0  0  0  0  0  0  0  0  0
 37 38  1  0  0  0
 38 27  1  0  0  0
 27 28  2  0  0  0
 28 29  1  0  0  0
 29 30  2  0  0  0
 30 26  1  0  0  0
 26  1  1  0  0  0
  1  2  2  0  0  0
  2  3  1  0  0  0
  3  4  2  0  0  0
  4  8  1  0  0  0
  8  9  1  0  0  0
  9 10  2  0  0  0
  9 12  1  0  0  0
 12 13  1  0  0  0
 13 14  1  0  0  0
 12 15  1  0  0  0
 15 16  2  0  0  0
 15 17  1  0  0  0
 17 19  1  0  0  0
 19 20  2  0  0  0
 20 21  1  0  0  0
 21 22  1  0  0  0
 22 23  1  0  0  0
 22 24  1  0  0  0
 24 25  2  0  0  0
  4  5  1  0  0  0
  5  6  2  0  0  0
  6  7  1  0  0  0
 30 31  1  0  0  0
 31 32  2  0  0  0
 32 33  1  0  0  0
 33 34  2  0  0  0
 34 35  1  0  0  0
 35 36  2  0  0  0
 36 39  1  0  0  0
 39 40  1  0  0  0
 40 41  1  0  0  0
 41 42  1  0  0  0
 42 43  1  0  0  0
 43 44  1  0  0  0
 44 45  1  0  0  0
 45 46  1  0  0  0
 46 47  1  0  0  0
 46 48  1  0  0  0
 48 49  1  0  0  0
 36 27  1  0  0  0
 49 43  1  0  0  0
 34 29  1  0  0  0
  6  1  1  0  0  0
 14 12  1  0  0  0
 25 19  1  0  0  0
  8 11  1  0  0  0
 17 18  1  0  0  0
M  END
> <minimizedAffinity>
-8.26613

> <CNNscore>
0.1413405389

> <CNNaffinity>
6.6689224243

> <CNN_VS>
0.9425891042

> <CNNaffinity_variance>
0.2939575911

$$$$
[H]O[C@]1([H])C([H])([H])C([H])([H])[C@@]([H])(n2c([H])c(-c3c([H])c([H])c(C([H])([H])N4C([H])([H])C([H])([H])N(C([H])([H])[H])C([H])([H])C4([H])[H])c([H])c3[H])c3c([H])nc(N([H])C([H])([H])C([H])([H])C([H])([H])C([H])([H])[H])nc32)C([H])([H])C1([H])[H]


 37 41  0  0  0  0  0  0  0  0999 V2000
    3.9684    1.5393   19.2026 C   0  0  0  0  0  0  0  0  0  0  0  0
    3.6355    1.2107   17.9444 N   0  0  0  0  0  0  0  0  0  0  0  0
    3.4814    2.1330   16.9843 C   0  0  0  0  0  0  0  0  0  0  0  0
    3.6639    3.4474   17.2745 C   0  0  0  0  0  0  0  0  0  0  0  0
    3.5840    4.6026   16.5387 C   0  0  0  0  0  0  0  0  0  0  0  0
    3.8804    5.6392   17.3964 C   0  0  0  0  0  0  0  0  0  0  0  0
    4.1374    5.1267   18.6372 N   0  0  0  0  0  0  0  0  0  0  0  0
    4.0099    3.8049   18.5768 C   0  0  0  0  0  0  0  0  0  0  0  0
    4.1544    2.8569   19.5068 N   0  0  0  0  0  0  0  0  0  0  0  0
    4.4758    5.9504   19.7395 C   0  0  0  0  0  0  0  0  0  0  0  0
    4.2610    5.3336   21.0775 C   0  0  0  0  0  0  0  0  0  0  0  0
    4.8304    6.1562   22.2048 C   0  0  0  0  0  0  0  0  0  0  0  0
    5.4340    7.4519   21.7529 C   0  0  0  0  0  0  0  0  0  0  0  0
    4.4356    8.4440   21.6212 O   0  0  0  0  0  0  0  0  0  0  0  0
    6.3053    7.3462   20.5555 C   0  0  0  0  0  0  0  0  0  0  0  0
    5.9829    6.2305   19.6268 C   0  0  0  0  0  0  0  0  0  0  0  0
    4.8703    9.3317   21.7169 H   0  0  0  0  0  0  0  0  0  0  0  0
    3.2489    4.7532   15.1089 C   0  0  0  0  0  0  0  0  0  0  0  0
    3.9498    4.1540   14.1100 C   0  0  0  0  0  0  0  0  0  0  0  0
    3.5743    4.3442   12.7970 C   0  0  0  0  0  0  0  0  0  0  0  0
    2.5013    5.1279   12.4410 C   0  0  0  0  0  0  0  0  0  0  0  0
    1.7928    5.7351   13.4733 C   0  0  0  0  0  0  0  0  0  0  0  0
    2.1579    5.5529   14.7870 C   0  0  0  0  0  0  0  0  0  0  0  0
    2.1104    5.3327   11.0495 C   0  0  0  0  0  0  0  0  0  0  0  0
    3.1360    5.8384   10.2037 N   0  0  0  0  0  0  0  0  0  0  0  0
    3.3933    7.2314   10.4873 C   0  0  0  0  0  0  0  0  0  0  0  0
    2.4281    8.1306    9.7225 C   0  0  0  0  0  0  0  0  0  0  0  0
    2.6967    7.9120    8.3133 N   0  0  0  0  0  0  0  0  0  0  0  0
    2.0095    8.8286    7.4549 C   0  0  0  0  0  0  0  0  0  0  0  0
    2.2815    6.5553    8.0146 C   0  0  0  0  0  0  0  0  0  0  0  0
    3.0462    5.5387    8.8212 C   0  0  0  0  0  0  0  0  0  0  0  0
    4.1268    0.5455   20.2050 N   0  0  0  0  0  0  0  0  0  0  0  0
    3.7956   -0.4299   20.0002 H   0  0  0  0  0  0  0  0  0  0  0  0
    4.7180    0.8154   21.4803 C   0  0  0  0  0  0  0  0  0  0  0  0
    3.7690    1.2576   22.5416 C   0  0  0  0  0  0  0  0  0  0  0  0
    5.8121    2.5300   23.0711 C   0  0  0  0  0  0  0  0  0  0  0  0
    4.3569    2.3411   23.4277 C   0  0  0  0  0  0  0  0  0  0  0  0
 36 37  1  0  0  0
 37 35  1  0  0  0
 35 34  1  0  0  0
 34 32  1  0  0  0
 32  1  1  0  0  0
  1  2  2  0  0  0
  2  3  1  0  0  0
  3  4  2  0  0  0
  4  5  1  0  0  0
  5  6  2  0  0  0
  6  7  1  0  0  0
  7 10  1  0  0  0
 10 11  1  0  0  0
 11 12  1  0  0  0
 12 13  1  0  0  0
 13 14  1  0  0  0
 13 15  1  0  0  0
 15 16  1  0  0  0
  7  8  1  0  0  0
  8  9  2  0  0  0
  5 18  1  0  0  0
 18 19  2  0  0  0
 19 20  1  0  0  0
 20 21  2  0  0  0
 21 24  1  0  0  0
 24 25  1  0  0  0
 25 26  1  0  0  0
 26 27  1  0  0  0
 27 28  1  0  0  0
 28 29  1  0  0  0
 28 30  1  0  0  0
 30 31  1  0  0  0
 21 22  1  0  0  0
 22 23  2  0  0  0
  9  1  1  0  0  0
 23 18  1  0  0  0
  8  4  1  0  0  0
 31 25  1  0  0  0
 16 10  1  0  0  0
 32 33  1  0  0  0
 14 17  1  0  0  0
M  END
> <minimizedAffinity>
-7.98594

> <CNNscore>
0.5611619353

> <CNNaffinity>
6.9974608421

> <CNN_VS>
3.9267086983

> <CNNaffinity_variance>
0.4284655452

$$$$
[H]O[C@]1([H])C([H])([H])C([H])([H])[C@@]([H])(n2c([H])c(-c3c([H])c([H])c(C([H])([H])N4C([H])([H])C([H])([H])N(C([H])([H])[H])C([H])([H])C4([H])[H])c([H])c3[H])c3c([H])nc(N([H])C([H])([H])C([H])([H])C([H])([H])C([H])([H])[H])nc32)C([H])([H])C1([H])[H]


 37 41  0  0  0  0  0  0  0  0999 V2000
    4.3509    1.6930   19.4446 C   0  0  0  0  0  0  0  0  0  0  0  0
    3.8368    1.2887   18.2724 N   0  0  0  0  0  0  0  0  0  0  0  0
    3.4235    2.1567   17.3386 C   0  0  0  0  0  0  0  0  0  0  0  0
    3.5201    3.4922   17.5675 C   0  0  0  0  0  0  0  0  0  0  0  0
    3.1953    4.6071   16.8369 C   0  0  0  0  0  0  0  0  0  0  0  0
    3.5313    5.6976   17.6088 C   0  0  0  0  0  0  0  0  0  0  0  0
    4.0533    5.2573   18.7928 N   0  0  0  0  0  0  0  0  0  0  0  0
    4.0518    3.9280   18.7802 C   0  0  0  0  0  0  0  0  0  0  0  0
    4.4530    3.0324   19.6866 N   0  0  0  0  0  0  0  0  0  0  0  0
    4.4951    6.1489   19.8018 C   0  0  0  0  0  0  0  0  0  0  0  0
    4.7009    5.5334   21.1418 C   0  0  0  0  0  0  0  0  0  0  0  0
    5.3700    6.4629   22.1215 C   0  0  0  0  0  0  0  0  0  0  0  0
    5.6286    7.8310   21.5658 C   0  0  0  0  0  0  0  0  0  0  0  0
    4.4759    8.6405   21.6865 O   0  0  0  0  0  0  0  0  0  0  0  0
    6.2049    7.8462   20.1977 C   0  0  0  0  0  0  0  0  0  0  0  0
    5.8672    6.6730   19.3487 C   0  0  0  0  0  0  0  0  0  0  0  0
    4.7670    9.5898   21.6951 H   0  0  0  0  0  0  0  0  0  0  0  0
    2.6003    4.6731   15.4874 C   0  0  0  0  0  0  0  0  0  0  0  0
    2.7974    3.7218   14.5365 C   0  0  0  0  0  0  0  0  0  0  0  0
    2.2069    3.8556   13.2978 C   0  0  0  0  0  0  0  0  0  0  0  0
    1.4106    4.9283   12.9702 C   0  0  0  0  0  0  0  0  0  0  0  0
    1.2172    5.8944   13.9529 C   0  0  0  0  0  0  0  0  0  0  0  0
    1.8011    5.7720   15.1924 C   0  0  0  0  0  0  0  0  0  0  0  0
    0.7923    5.0702   11.6554 C   0  0  0  0  0  0  0  0  0  0  0  0
   -0.3622    4.2672   11.4427 N   0  0  0  0  0  0  0  0  0  0  0  0
   -0.4765    3.8927   10.0521 C   0  0  0  0  0  0  0  0  0  0  0  0
   -1.1826    4.9810    9.2509 C   0  0  0  0  0  0  0  0  0  0  0  0
   -2.5256    5.0792    9.7914 N   0  0  0  0  0  0  0  0  0  0  0  0
   -3.3888    5.9209    9.0197 C   0  0  0  0  0  0  0  0  0  0  0  0
   -2.3973    5.6088   11.1350 C   0  0  0  0  0  0  0  0  0  0  0  0
   -1.5780    4.7088   12.0224 C   0  0  0  0  0  0  0  0  0  0  0  0
    4.7830    0.7558   20.4206 N   0  0  0  0  0  0  0  0  0  0  0  0
    4.1623   -0.0630   20.6384 H   0  0  0  0  0  0  0  0  0  0  0  0
    6.0266    0.8784   21.1187 C   0  0  0  0  0  0  0  0  0  0  0  0
    6.0301    1.8526   22.2472 C   0  0  0  0  0  0  0  0  0  0  0  0
    4.5990    3.0668   23.8444 C   0  0  0  0  0  0  0  0  0  0  0  0
    4.7654    1.7732   23.0833 C   0  0  0  0  0  0  0  0  0  0  0  0
 36 37  1  0  0  0
 37 35  1  0  0  0
 35 34  1  0  0  0
 34 32  1  0  0  0
 32  1  1  0  0  0
  1  2  2  0  0  0
  2  3  1  0  0  0
  3  4  2  0  0  0
  4  5  1  0  0  0
  5  6  2  0  0  0
  6  7  1  0  0  0
  7 10  1  0  0  0
 10 11  1  0  0  0
 11 12  1  0  0  0
 12 13  1  0  0  0
 13 14  1  0  0  0
 13 15  1  0  0  0
 15 16  1  0  0  0
  7  8  1  0  0  0
  8  9  2  0  0  0
  5 18  1  0  0  0
 18 19  2  0  0  0
 19 20  1  0  0  0
 20 21  2  0  0  0
 21 24  1  0  0  0
 24 25  1  0  0  0
 25 26  1  0  0  0
 26 27  1  0  0  0
 27 28  1  0  0  0
 28 29  1  0  0  0
 28 30  1  0  0  0
 30 31  1  0  0  0
 21 22  1  0  0  0
 22 23  2  0  0  0
  9  1  1  0  0  0
 23 18  1  0  0  0
  8  4  1  0  0  0
 31 25  1  0  0  0
 16 10  1  0  0  0
 32 33  1  0  0  0
 14 17  1  0  0  0
M  END
> <minimizedAffinity>
-8.12739

> <CNNscore>
0.4378847480

> <CNNaffinity>
6.8688764572

> <CNN_VS>
3.0077762604

> <CNNaffinity_variance>
0.3729655147

$$$$
[H]O[C@]1([H])C([H])([H])C([H])([H])[C@@]([H])(n2c([H])c(-c3c([H])c([H])c(C([H])([H])N4C([H])([H])C([H])([H])N(C([H])([H])[H])C([H])([H])C4([H])[H])c([H])c3[H])c3c([H])nc(N([H])C([H])([H])C([H])([H])C([H])([H])C([H])([H])[H])nc32)C([H])([H])C1([H])[H]


 37 41  0  0  0  0  0  0  0  0999 V2000
    3.9295    2.0842   18.5554 C   0  0  0  0  0  0  0  0  0  0  0  0
    3.5624    1.2165   17.5993 N   0  0  0  0  0  0  0  0  0  0  0  0
    3.1821    1.6200   16.3791 C   0  0  0  0  0  0  0  0  0  0  0  0
    3.1611    2.9453   16.0817 C   0  0  0  0  0  0  0  0  0  0  0  0
    2.8314    3.6618   14.9592 C   0  0  0  0  0  0  0  0  0  0  0  0
    3.0123    4.9914   15.2712 C   0  0  0  0  0  0  0  0  0  0  0  0
    3.4458    5.0872   16.5640 N   0  0  0  0  0  0  0  0  0  0  0  0
    3.5395    3.8591   17.0642 C   0  0  0  0  0  0  0  0  0  0  0  0
    3.9125    3.4187   18.2689 N   0  0  0  0  0  0  0  0  0  0  0  0
    3.7227    6.3342   17.1775 C   0  0  0  0  0  0  0  0  0  0  0  0
    3.4666    6.3869   18.6433 C   0  0  0  0  0  0  0  0  0  0  0  0
    3.9733    7.6527   19.2857 C   0  0  0  0  0  0  0  0  0  0  0  0
    4.5683    8.6215   18.3086 C   0  0  0  0  0  0  0  0  0  0  0  0
    3.5561    9.4078   17.7121 O   0  0  0  0  0  0  0  0  0  0  0  0
    5.4891    8.0141   17.3151 C   0  0  0  0  0  0  0  0  0  0  0  0
    5.2272    6.5870   16.9896 C   0  0  0  0  0  0  0  0  0  0  0  0
    3.9685   10.2568   17.4038 H   0  0  0  0  0  0  0  0  0  0  0  0
    2.3680    3.1516   13.6536 C   0  0  0  0  0  0  0  0  0  0  0  0
    3.0323    2.2009   12.9445 C   0  0  0  0  0  0  0  0  0  0  0  0
    2.5351    1.7764   11.7305 C   0  0  0  0  0  0  0  0  0  0  0  0
    1.3742    2.2789   11.1904 C   0  0  0  0  0  0  0  0  0  0  0  0
    0.7044    3.2513   11.9268 C   0  0  0  0  0  0  0  0  0  0  0  0
    1.1906    3.6830   13.1391 C   0  0  0  0  0  0  0  0  0  0  0  0
    0.8540    1.8320    9.9017 C   0  0  0  0  0  0  0  0  0  0  0  0
    1.1242    0.4728    9.5815 N   0  0  0  0  0  0  0  0  0  0  0  0
    1.6731    0.3596    8.2500 C   0  0  0  0  0  0  0  0  0  0  0  0
    0.5633    0.3027    7.2060 C   0  0  0  0  0  0  0  0  0  0  0  0
   -0.1889   -0.9085    7.4757 N   0  0  0  0  0  0  0  0  0  0  0  0
   -1.1512   -1.2176    6.4620 C   0  0  0  0  0  0  0  0  0  0  0  0
   -0.8608   -0.7088    8.7450 C   0  0  0  0  0  0  0  0  0  0  0  0
    0.1128   -0.4773    9.8707 C   0  0  0  0  0  0  0  0  0  0  0  0
    4.3293    1.6350   19.8423 N   0  0  0  0  0  0  0  0  0  0  0  0
    4.6819    0.6507   19.9421 H   0  0  0  0  0  0  0  0  0  0  0  0
    4.2732    2.4648   21.0072 C   0  0  0  0  0  0  0  0  0  0  0  0
    4.1559    1.7367   22.3028 C   0  0  0  0  0  0  0  0  0  0  0  0
    3.8139    3.8757   23.4782 C   0  0  0  0  0  0  0  0  0  0  0  0
    4.5956    2.5836   23.4836 C   0  0  0  0  0  0  0  0  0  0  0  0
 36 37  1  0  0  0
 37 35  1  0  0  0
 35 34  1  0  0  0
 34 32  1  0  0  0
 32  1  1  0  0  0
  1  2  2  0  0  0
  2  3  1  0  0  0
  3  4  2  0  0  0
  4  5  1  0  0  0
  5  6  2  0  0  0
  6  7  1  0  0  0
  7 10  1  0  0  0
 10 11  1  0  0  0
 11 12  1  0  0  0
 12 13  1  0  0  0
 13 14  1  0  0  0
 13 15  1  0  0  0
 15 16  1  0  0  0
  7  8  1  0  0  0
  8  9  2  0  0  0
  5 18  1  0  0  0
 18 19  2  0  0  0
 19 20  1  0  0  0
 20 21  2  0  0  0
 21 24  1  0  0  0
 24 25  1  0  0  0
 25 26  1  0  0  0
 26 27  1  0  0  0
 27 28  1  0  0  0
 28 29  1  0  0  0
 28 30  1  0  0  0
 30 31  1  0  0  0
 21 22  1  0  0  0
 22 23  2  0  0  0
  9  1  1  0  0  0
 23 18  1  0  0  0
  8  4  1  0  0  0
 31 25  1  0  0  0
 16 10  1  0  0  0
 32 33  1  0  0  0
 14 17  1  0  0  0
M  END
> <minimizedAffinity>
-7.25607

> <CNNscore>
0.4301274121

> <CNNaffinity>
6.7899689674

> <CNN_VS>
2.9205517769

> <CNNaffinity_variance>
0.3018381000

$$$$
[H]O[C@]1([H])C([H])([H])C([H])([H])[C@@]([H])(n2c([H])c(-c3c([H])c([H])c(C([H])([H])N4C([H])([H])C([H])([H])N(C([H])([H])[H])C([H])([H])C4([H])[H])c([H])c3[H])c3c([H])nc(N([H])C([H])([H])C([H])([H])C([H])([H])C([H])([H])[H])nc32)C([H])([H])C1([H])[H]


 37 41  0  0  0  0  0  0  0  0999 V2000
    3.8032    1.9746   18.4486 C   0  0  0  0  0  0  0  0  0  0  0  0
    3.3602    1.8250   17.1904 N   0  0  0  0  0  0  0  0  0  0  0  0
    3.1012    2.8737   16.3970 C   0  0  0  0  0  0  0  0  0  0  0  0
    3.2869    4.1359   16.8634 C   0  0  0  0  0  0  0  0  0  0  0  0
    3.1185    5.3840   16.3193 C   0  0  0  0  0  0  0  0  0  0  0  0
    3.4753    6.2913   17.2925 C   0  0  0  0  0  0  0  0  0  0  0  0
    3.8559    5.6096   18.4145 N   0  0  0  0  0  0  0  0  0  0  0  0
    3.7465    4.3078   18.1683 C   0  0  0  0  0  0  0  0  0  0  0  0
    3.9937    3.2379   18.9290 N   0  0  0  0  0  0  0  0  0  0  0  0
    4.2810    6.2717   19.5930 C   0  0  0  0  0  0  0  0  0  0  0  0
    4.0523    5.5190   20.8571 C   0  0  0  0  0  0  0  0  0  0  0  0
    4.7083    6.1606   22.0528 C   0  0  0  0  0  0  0  0  0  0  0  0
    5.3966    7.4537   21.7342 C   0  0  0  0  0  0  0  0  0  0  0  0
    4.4725    8.5235   21.7502 O   0  0  0  0  0  0  0  0  0  0  0  0
    6.2289    7.4272   20.5052 C   0  0  0  0  0  0  0  0  0  0  0  0
    5.8019    6.4543   19.4648 C   0  0  0  0  0  0  0  0  0  0  0  0
    4.9748    9.3602   21.9336 H   0  0  0  0  0  0  0  0  0  0  0  0
    2.6490    5.7335   14.9639 C   0  0  0  0  0  0  0  0  0  0  0  0
    1.3347    5.8133   14.6259 C   0  0  0  0  0  0  0  0  0  0  0  0
    0.9755    6.1455   13.3368 C   0  0  0  0  0  0  0  0  0  0  0  0
    1.9028    6.4058   12.3547 C   0  0  0  0  0  0  0  0  0  0  0  0
    3.2444    6.3206   12.7144 C   0  0  0  0  0  0  0  0  0  0  0  0
    3.6150    5.9900   13.9972 C   0  0  0  0  0  0  0  0  0  0  0  0
    1.5192    6.7508   10.9891 C   0  0  0  0  0  0  0  0  0  0  0  0
    0.6399    5.8275   10.3588 N   0  0  0  0  0  0  0  0  0  0  0  0
    1.3829    4.8552    9.5909 C   0  0  0  0  0  0  0  0  0  0  0  0
    1.6972    5.3867    8.1967 C   0  0  0  0  0  0  0  0  0  0  0  0
    0.4195    5.5839    7.5377 N   0  0  0  0  0  0  0  0  0  0  0  0
    0.5400    5.8945    6.1455 C   0  0  0  0  0  0  0  0  0  0  0  0
   -0.2424    6.6738    8.2278 C   0  0  0  0  0  0  0  0  0  0  0  0
   -0.4853    6.3595    9.6807 C   0  0  0  0  0  0  0  0  0  0  0  0
    4.0718    0.8491   19.2726 N   0  0  0  0  0  0  0  0  0  0  0  0
    3.7877   -0.1021   18.9296 H   0  0  0  0  0  0  0  0  0  0  0  0
    4.7125    0.9550   20.5481 C   0  0  0  0  0  0  0  0  0  0  0  0
    3.7929    1.0110   21.7201 C   0  0  0  0  0  0  0  0  0  0  0  0
    5.6134    2.3877   22.6498 C   0  0  0  0  0  0  0  0  0  0  0  0
    4.1207    2.1593   22.6576 C   0  0  0  0  0  0  0  0  0  0  0  0
 36 37  1  0  0  0
 37 35  1  0  0  0
 35 34  1  0  0  0
 34 32  1  0  0  0
 32  1  1  0  0  0
  1  2  2  0  0  0
  2  3  1  0  0  0
  3  4  2  0  0  0
  4  5  1  0  0  0
  5  6  2  0  0  0
  6  7  1  0  0  0
  7 10  1  0  0  0
 10 11  1  0  0  0
 11 12  1  0  0  0
 12 13  1  0  0  0
 13 14  1  0  0  0
 13 15  1  0  0  0
 15 16  1  0  0  0
  7  8  1  0  0  0
  8  9  2  0  0  0
  5 18  1  0  0  0
 18 19  2  0  0  0
 19 20  1  0  0  0
 20 21  2  0  0  0
 21 24  1  0  0  0
 24 25  1  0  0  0
 25 26  1  0  0  0
 26 27  1  0  0  0
 27 28  1  0  0  0
 28 29  1  0  0  0
 28 30  1  0  0  0
 30 31  1  0  0  0
 21 22  1  0  0  0
 22 23  2  0  0  0
  9  1  1  0  0  0
 23 18  1  0  0  0
  8  4  1  0  0  0
 31 25  1  0  0  0
 16 10  1  0  0  0
 32 33  1  0  0  0
 14 17  1  0  0  0
M  END
> <minimizedAffinity>
-7.41202

> <CNNscore>
0.3849791884

> <CNNaffinity>
6.7427854538

> <CNN_VS>
2.5958321095

> <CNNaffinity_variance>
0.6631401777

$$$$
[H]O[C@]1([H])C([H])([H])C([H])([H])[C@@]([H])(n2c([H])c(-c3c([H])c([H])c(C([H])([H])N4C([H])([H])C([H])([H])N(C([H])([H])[H])C([H])([H])C4([H])[H])c([H])c3[H])c3c([H])nc(N([H])C([H])([H])C([H])([H])C([H])([H])C([H])([H])[H])nc32)C([H])([H])C1([H])[H]


 37 41  0  0  0  0  0  0  0  0999 V2000
    4.0946    2.2244   17.3555 C   0  0  0  0  0  0  0  0  0  0  0  0
    3.6265    1.9208   16.1346 N   0  0  0  0  0  0  0  0  0  0  0  0
    3.4208    2.8568   15.1976 C   0  0  0  0  0  0  0  0  0  0  0  0
    3.6890    4.1595   15.4735 C   0  0  0  0  0  0  0  0  0  0  0  0
    3.5893    5.3230   14.7535 C   0  0  0  0  0  0  0  0  0  0  0  0
    4.0135    6.3386   15.5820 C   0  0  0  0  0  0  0  0  0  0  0  0
    4.3670    5.8054   16.7899 N   0  0  0  0  0  0  0  0  0  0  0  0
    4.1756    4.4909   16.7372 C   0  0  0  0  0  0  0  0  0  0  0  0
    4.3677    3.5300   17.6451 N   0  0  0  0  0  0  0  0  0  0  0  0
    4.8473    6.6045   17.8570 C   0  0  0  0  0  0  0  0  0  0  0  0
    4.1009    6.4623   19.1374 C   0  0  0  0  0  0  0  0  0  0  0  0
    4.7716    7.1611   20.2922 C   0  0  0  0  0  0  0  0  0  0  0  0
    6.0114    7.9071   19.9002 C   0  0  0  0  0  0  0  0  0  0  0  0
    5.6817    9.1884   19.4023 O   0  0  0  0  0  0  0  0  0  0  0  0
    6.9295    7.1580   19.0058 C   0  0  0  0  0  0  0  0  0  0  0  0
    6.2846    6.1374   18.1375 C   0  0  0  0  0  0  0  0  0  0  0  0
    6.4705    9.7786   19.5271 H   0  0  0  0  0  0  0  0  0  0  0  0
    3.1236    5.4997   13.3637 C   0  0  0  0  0  0  0  0  0  0  0  0
    3.8494    5.1207   12.2786 C   0  0  0  0  0  0  0  0  0  0  0  0
    3.3454    5.3202   11.0108 C   0  0  0  0  0  0  0  0  0  0  0  0
    2.1170    5.8967   10.7857 C   0  0  0  0  0  0  0  0  0  0  0  0
    1.3847    6.2798   11.9053 C   0  0  0  0  0  0  0  0  0  0  0  0
    1.8770    6.0860   13.1751 C   0  0  0  0  0  0  0  0  0  0  0  0
    1.5891    6.1127    9.4419 C   0  0  0  0  0  0  0  0  0  0  0  0
    1.4032    7.4754    9.0794 N   0  0  0  0  0  0  0  0  0  0  0  0
    0.7198    7.5793    7.8109 C   0  0  0  0  0  0  0  0  0  0  0  0
    1.7059    7.4874    6.6515 C   0  0  0  0  0  0  0  0  0  0  0  0
    2.5856    8.6351    6.7721 N   0  0  0  0  0  0  0  0  0  0  0  0
    3.4508    8.8091    5.6451 C   0  0  0  0  0  0  0  0  0  0  0  0
    3.3761    8.4311    7.9704 C   0  0  0  0  0  0  0  0  0  0  0  0
    2.5190    8.3404    9.2056 C   0  0  0  0  0  0  0  0  0  0  0  0
    4.3054    1.2165   18.3340 N   0  0  0  0  0  0  0  0  0  0  0  0
    4.6944    0.2913   18.0245 H   0  0  0  0  0  0  0  0  0  0  0  0
    4.0118    1.4073   19.7219 C   0  0  0  0  0  0  0  0  0  0  0  0
    5.1822    1.3087   20.6400 C   0  0  0  0  0  0  0  0  0  0  0  0
    3.5753    1.2357   22.5071 C   0  0  0  0  0  0  0  0  0  0  0  0
    4.8740    1.8397   22.0284 C   0  0  0  0  0  0  0  0  0  0  0  0
 36 37  1  0  0  0
 37 35  1  0  0  0
 35 34  1  0  0  0
 34 32  1  0  0  0
 32  1  1  0  0  0
  1  2  2  0  0  0
  2  3  1  0  0  0
  3  4  2  0  0  0
  4  5  1  0  0  0
  5  6  2  0  0  0
  6  7  1  0  0  0
  7 10  1  0  0  0
 10 11  1  0  0  0
 11 12  1  0  0  0
 12 13  1  0  0  0
 13 14  1  0  0  0
 13 15  1  0  0  0
 15 16  1  0  0  0
  7  8  1  0  0  0
  8  9  2  0  0  0
  5 18  1  0  0  0
 18 19  2  0  0  0
 19 20  1  0  0  0
 20 21  2  0  0  0
 21 24  1  0  0  0
 24 25  1  0  0  0
 25 26  1  0  0  0
 26 27  1  0  0  0
 27 28  1  0  0  0
 28 29  1  0  0  0
 28 30  1  0  0  0
 30 31  1  0  0  0
 21 22  1  0  0  0
 22 23  2  0  0  0
  9  1  1  0  0  0
 23 18  1  0  0  0
  8  4  1  0  0  0
 31 25  1  0  0  0
 16 10  1  0  0  0
 32 33  1  0  0  0
 14 17  1  0  0  0
M  END
> <minimizedAffinity>
-6.93123

> <CNNscore>
0.3233699203

> <CNNaffinity>
6.4272413254

> <CNN_VS>
2.0783765316

> <CNNaffinity_variance>
0.2382110655

$$$$
[H]O[C@]1([H])C([H])([H])C([H])([H])[C@@]([H])(n2c([H])c(-c3c([H])c([H])c(C([H])([H])N4C([H])([H])C([H])([H])N(C([H])([H])[H])C([H])([H])C4([H])[H])c([H])c3[H])c3c([H])nc(N([H])C([H])([H])C([H])([H])C([H])([H])C([H])([H])[H])nc32)C([H])([H])C1([H])[H]


 37 41  0  0  0  0  0  0  0  0999 V2000
    4.6140    1.9154   20.3271 C   0  0  0  0  0  0  0  0  0  0  0  0
    4.3366    1.1430   19.2650 N   0  0  0  0  0  0  0  0  0  0  0  0
    4.0872    1.6600   18.0539 C   0  0  0  0  0  0  0  0  0  0  0  0
    4.1115    3.0065   17.8760 C   0  0  0  0  0  0  0  0  0  0  0  0
    3.9058    3.8257   16.7949 C   0  0  0  0  0  0  0  0  0  0  0  0
    4.0689    5.1187   17.2416 C   0  0  0  0  0  0  0  0  0  0  0  0
    4.3694    5.0914   18.5747 N   0  0  0  0  0  0  0  0  0  0  0  0
    4.3980    3.8223   18.9696 C   0  0  0  0  0  0  0  0  0  0  0  0
    4.6412    3.2699   20.1613 N   0  0  0  0  0  0  0  0  0  0  0  0
    4.5962    6.2736   19.3224 C   0  0  0  0  0  0  0  0  0  0  0  0
    6.0271    6.5854   19.5912 C   0  0  0  0  0  0  0  0  0  0  0  0
    6.2297    7.9504   20.1975 C   0  0  0  0  0  0  0  0  0  0  0  0
    4.9484    8.6815   20.4643 C   0  0  0  0  0  0  0  0  0  0  0  0
    4.4009    8.2842   21.7056 O   0  0  0  0  0  0  0  0  0  0  0  0
    3.9629    8.6314   19.3552 C   0  0  0  0  0  0  0  0  0  0  0  0
    4.0496    7.4348   18.4766 C   0  0  0  0  0  0  0  0  0  0  0  0
    3.8204    9.0197   22.0346 H   0  0  0  0  0  0  0  0  0  0  0  0
    3.5723    3.4420   15.4089 C   0  0  0  0  0  0  0  0  0  0  0  0
    3.9622    4.1579   14.3210 C   0  0  0  0  0  0  0  0  0  0  0  0
    3.6099    3.7342   13.0571 C   0  0  0  0  0  0  0  0  0  0  0  0
    2.8669    2.5973   12.8387 C   0  0  0  0  0  0  0  0  0  0  0  0
    2.4746    1.8741   13.9610 C   0  0  0  0  0  0  0  0  0  0  0  0
    2.8199    2.2869   15.2270 C   0  0  0  0  0  0  0  0  0  0  0  0
    2.4899    2.1551   11.4996 C   0  0  0  0  0  0  0  0  0  0  0  0
    1.0900    2.1069   11.2528 N   0  0  0  0  0  0  0  0  0  0  0  0
    0.7702    1.0505   10.3208 C   0  0  0  0  0  0  0  0  0  0  0  0
    0.9278    1.5276    8.8811 C   0  0  0  0  0  0  0  0  0  0  0  0
   -0.0448    2.5880    8.6940 N   0  0  0  0  0  0  0  0  0  0  0  0
   -0.1659    3.0146    7.3330 C   0  0  0  0  0  0  0  0  0  0  0  0
    0.3851    3.6995    9.5199 C   0  0  0  0  0  0  0  0  0  0  0  0
    0.4346    3.3339   10.9802 C   0  0  0  0  0  0  0  0  0  0  0  0
    4.8756    1.3464   21.6021 N   0  0  0  0  0  0  0  0  0  0  0  0
    5.7005    0.7045   21.7046 H   0  0  0  0  0  0  0  0  0  0  0  0
    4.0650    1.6104   22.7519 C   0  0  0  0  0  0  0  0  0  0  0  0
    4.5935    2.6521   23.6783 C   0  0  0  0  0  0  0  0  0  0  0  0
    4.5123    4.9987   22.9297 C   0  0  0  0  0  0  0  0  0  0  0  0
    3.7551    3.9177   23.6636 C   0  0  0  0  0  0  0  0  0  0  0  0
 36 37  1  0  0  0
 37 35  1  0  0  0
 35 34  1  0  0  0
 34 32  1  0  0  0
 32  1  1  0  0  0
  1  2  2  0  0  0
  2  3  1  0  0  0
  3  4  2  0  0  0
  4  5  1  0  0  0
  5  6  2  0  0  0
  6  7  1  0  0  0
  7 10  1  0  0  0
 10 11  1  0  0  0
 11 12  1  0  0  0
 12 13  1  0  0  0
 13 14  1  0  0  0
 13 15  1  0  0  0
 15 16  1  0  0  0
  7  8  1  0  0  0
  8  9  2  0  0  0
  5 18  1  0  0  0
 18 19  2  0  0  0
 19 20  1  0  0  0
 20 21  2  0  0  0
 21 24  1  0  0  0
 24 25  1  0  0  0
 25 26  1  0  0  0
 26 27  1  0  0  0
 27 28  1  0  0  0
 28 29  1  0  0  0
 28 30  1  0  0  0
 30 31  1  0  0  0
 21 22  1  0  0  0
 22 23  2  0  0  0
  9  1  1  0  0  0
 23 18  1  0  0  0
  8  4  1  0  0  0
 31 25  1  0  0  0
 16 10  1  0  0  0
 32 33  1  0  0  0
 14 17  1  0  0  0
M  END
> <minimizedAffinity>
-8.96965

> <CNNscore>
0.2964470387

> <CNNaffinity>
6.7567558289

> <CNN_VS>
2.0030202866

> <CNNaffinity_variance>
0.3141397536

$$$$
[H]O[C@]1([H])C([H])([H])C([H])([H])[C@@]([H])(n2c([H])c(-c3c([H])c([H])c(C([H])([H])N4C([H])([H])C([H])([H])N(C([H])([H])[H])C([H])([H])C4([H])[H])c([H])c3[H])c3c([H])nc(N([H])C([H])([H])C([H])([H])C([H])([H])C([H])([H])[H])nc32)C([H])([H])C1([H])[H]


 37 41  0  0  0  0  0  0  0  0999 V2000
    4.4239    1.8519   20.2066 C   0  0  0  0  0  0  0  0  0  0  0  0
    4.1529    1.1094   19.1217 N   0  0  0  0  0  0  0  0  0  0  0  0
    3.9557    1.6575   17.9146 C   0  0  0  0  0  0  0  0  0  0  0  0
    4.0286    3.0057   17.7646 C   0  0  0  0  0  0  0  0  0  0  0  0
    3.8811    3.8517   16.6948 C   0  0  0  0  0  0  0  0  0  0  0  0
    4.0727    5.1298   17.1718 C   0  0  0  0  0  0  0  0  0  0  0  0
    4.3331    5.0672   18.5122 N   0  0  0  0  0  0  0  0  0  0  0  0
    4.3092    3.7905   18.8821 C   0  0  0  0  0  0  0  0  0  0  0  0
    4.4996    3.2077   20.0689 N   0  0  0  0  0  0  0  0  0  0  0  0
    4.5759    6.2268   19.2897 C   0  0  0  0  0  0  0  0  0  0  0  0
    6.0081    6.4893   19.6009 C   0  0  0  0  0  0  0  0  0  0  0  0
    6.2359    7.8351   20.2401 C   0  0  0  0  0  0  0  0  0  0  0  0
    4.9707    8.5996   20.4897 C   0  0  0  0  0  0  0  0  0  0  0  0
    4.3796    8.1946   21.7083 O   0  0  0  0  0  0  0  0  0  0  0  0
    4.0131    8.6017   19.3553 C   0  0  0  0  0  0  0  0  0  0  0  0
    4.0865    7.4208   18.4545 C   0  0  0  0  0  0  0  0  0  0  0  0
    3.8132    8.9407   22.0376 H   0  0  0  0  0  0  0  0  0  0  0  0
    3.5760    3.5058   15.2923 C   0  0  0  0  0  0  0  0  0  0  0  0
    3.0472    2.3117   14.9153 C   0  0  0  0  0  0  0  0  0  0  0  0
    2.7907    2.0633   13.5835 C   0  0  0  0  0  0  0  0  0  0  0  0
    3.0496    2.9854   12.5962 C   0  0  0  0  0  0  0  0  0  0  0  0
    3.5907    4.2035   12.9962 C   0  0  0  0  0  0  0  0  0  0  0  0
    3.8510    4.4628   14.3218 C   0  0  0  0  0  0  0  0  0  0  0  0
    2.7831    2.7168   11.1863 C   0  0  0  0  0  0  0  0  0  0  0  0
    2.3320    1.3990   10.8988 N   0  0  0  0  0  0  0  0  0  0  0  0
    3.2627    0.7172   10.0294 C   0  0  0  0  0  0  0  0  0  0  0  0
    2.9840    1.0469    8.5669 C   0  0  0  0  0  0  0  0  0  0  0  0
    1.6573    0.5344    8.2789 N   0  0  0  0  0  0  0  0  0  0  0  0
    1.3174    0.5861    6.8893 C   0  0  0  0  0  0  0  0  0  0  0  0
    0.7239    1.3395    9.0424 C   0  0  0  0  0  0  0  0  0  0  0  0
    0.9737    1.2432   10.5246 C   0  0  0  0  0  0  0  0  0  0  0  0
    4.6297    1.2503   21.4769 N   0  0  0  0  0  0  0  0  0  0  0  0
    5.4034    0.5474   21.5790 H   0  0  0  0  0  0  0  0  0  0  0  0
    3.8297    1.5608   22.6225 C   0  0  0  0  0  0  0  0  0  0  0  0
    4.4289    2.5429   23.5706 C   0  0  0  0  0  0  0  0  0  0  0  0
    4.5461    4.9266   22.9561 C   0  0  0  0  0  0  0  0  0  0  0  0
    3.6790    3.8628   23.5861 C   0  0  0  0  0  0  0  0  0  0  0  0
 36 37  1  0  0  0
 37 35  1  0  0  0
 35 34  1  0  0  0
 34 32  1  0  0  0
 32  1  1  0  0  0
  1  2  2  0  0  0
  2  3  1  0  0  0
  3  4  2  0  0  0
  4  5  1  0  0  0
  5  6  2  0  0  0
  6  7  1  0  0  0
  7 10  1  0  0  0
 10 11  1  0  0  0
 11 12  1  0  0  0
 12 13  1  0  0  0
 13 14  1  0  0  0
 13 15  1  0  0  0
 15 16  1  0  0  0
  7  8  1  0  0  0
  8  9  2  0  0  0
  5 18  1  0  0  0
 18 19  2  0  0  0
 19 20  1  0  0  0
 20 21  2  0  0  0
 21 24  1  0  0  0
 24 25  1  0  0  0
 25 26  1  0  0  0
 26 27  1  0  0  0
 27 28  1  0  0  0
 28 29  1  0  0  0
 28 30  1  0  0  0
 30 31  1  0  0  0
 21 22  1  0  0  0
 22 23  2  0  0  0
  9  1  1  0  0  0
 23 18  1  0  0  0
  8  4  1  0  0  0
 31 25  1  0  0  0
 16 10  1  0  0  0
 32 33  1  0  0  0
 14 17  1  0  0  0
M  END
> <minimizedAffinity>
-8.94799

> <CNNscore>
0.2537409961

> <CNNaffinity>
6.7038054466

> <CNN_VS>
1.7010302544

> <CNNaffinity_variance>
0.3776313961

$$$$
[H]O[C@]1([H])C([H])([H])C([H])([H])[C@@]([H])(n2c([H])c(-c3c([H])c([H])c(C([H])([H])N4C([H])([H])C([H])([H])N(C([H])([H])[H])C([H])([H])C4([H])[H])c([H])c3[H])c3c([H])nc(N([H])C([H])([H])C([H])([H])C([H])([H])C([H])([H])[H])nc32)C([H])([H])C1([H])[H]


 37 41  0  0  0  0  0  0  0  0999 V2000
    3.4907    3.9104    9.8791 C   0  0  0  0  0  0  0  0  0  0  0  0
    4.4783    4.2891   10.7055 N   0  0  0  0  0  0  0  0  0  0  0  0
    4.2362    4.9232   11.8612 C   0  0  0  0  0  0  0  0  0  0  0  0
    2.9570    5.2000   12.2250 C   0  0  0  0  0  0  0  0  0  0  0  0
    2.3909    5.8179   13.3112 C   0  0  0  0  0  0  0  0  0  0  0  0
    1.0279    5.7986   13.1115 C   0  0  0  0  0  0  0  0  0  0  0  0
    0.7640    5.1790   11.9220 N   0  0  0  0  0  0  0  0  0  0  0  0
    1.9201    4.8132   11.3772 C   0  0  0  0  0  0  0  0  0  0  0  0
    2.2010    4.1831   10.2333 N   0  0  0  0  0  0  0  0  0  0  0  0
   -0.5563    5.0039   11.4380 C   0  0  0  0  0  0  0  0  0  0  0  0
   -1.6340    5.3525   12.4042 C   0  0  0  0  0  0  0  0  0  0  0  0
   -3.0065    5.3563   11.7813 C   0  0  0  0  0  0  0  0  0  0  0  0
   -3.0091    4.9452   10.3396 C   0  0  0  0  0  0  0  0  0  0  0  0
   -3.0340    3.5363   10.2265 O   0  0  0  0  0  0  0  0  0  0  0  0
   -1.9471    5.5727    9.5136 C   0  0  0  0  0  0  0  0  0  0  0  0
   -0.7136    5.9626   10.2467 C   0  0  0  0  0  0  0  0  0  0  0  0
   -3.4246    3.3060    9.3431 H   0  0  0  0  0  0  0  0  0  0  0  0
    3.0687    6.4037   14.4846 C   0  0  0  0  0  0  0  0  0  0  0  0
    3.3577    7.7272   14.5970 C   0  0  0  0  0  0  0  0  0  0  0  0
    3.9942    8.1983   15.7257 C   0  0  0  0  0  0  0  0  0  0  0  0
    4.3590    7.3761   16.7664 C   0  0  0  0  0  0  0  0  0  0  0  0
    4.0571    6.0237   16.6382 C   0  0  0  0  0  0  0  0  0  0  0  0
    3.4224    5.5419   15.5169 C   0  0  0  0  0  0  0  0  0  0  0  0
    5.0388    7.8770   17.9572 C   0  0  0  0  0  0  0  0  0  0  0  0
    4.2436    7.9098   19.1359 N   0  0  0  0  0  0  0  0  0  0  0  0
    3.9498    9.2718   19.5178 C   0  0  0  0  0  0  0  0  0  0  0  0
    5.0792    9.8579   20.3581 C   0  0  0  0  0  0  0  0  0  0  0  0
    5.1389    9.0644   21.5715 N   0  0  0  0  0  0  0  0  0  0  0  0
    6.0196    9.6057   22.5617 C   0  0  0  0  0  0  0  0  0  0  0  0
    5.5903    7.7422   21.1839 C   0  0  0  0  0  0  0  0  0  0  0  0
    4.6446    7.0825   20.2148 C   0  0  0  0  0  0  0  0  0  0  0  0
    3.7696    3.2392    8.6586 N   0  0  0  0  0  0  0  0  0  0  0  0
    2.9643    2.9608    8.0446 H   0  0  0  0  0  0  0  0  0  0  0  0
    5.0990    2.9269    8.2298 C   0  0  0  0  0  0  0  0  0  0  0  0
    5.6036    1.5867    8.6442 C   0  0  0  0  0  0  0  0  0  0  0  0
    7.7303    2.7695    8.2545 C   0  0  0  0  0  0  0  0  0  0  0  0
    7.0877    1.6014    8.9638 C   0  0  0  0  0  0  0  0  0  0  0  0
 36 37  1  0  0  0
 37 35  1  0  0  0
 35 34  1  0  0  0
 34 32  1  0  0  0
 32  1  1  0  0  0
  1  2  2  0  0  0
  2  3  1  0  0  0
  3  4  2  0  0  0
  4  5  1  0  0  0
  5  6  2  0  0  0
  6  7  1  0  0  0
  7 10  1  0  0  0
 10 11  1  0  0  0
 11 12  1  0  0  0
 12 13  1  0  0  0
 13 14  1  0  0  0
 13 15  1  0  0  0
 15 16  1  0  0  0
  7  8  1  0  0  0
  8  9  2  0  0  0
  5 18  1  0  0  0
 18 19  2  0  0  0
 19 20  1  0  0  0
 20 21  2  0  0  0
 21 24  1  0  0  0
 24 25  1  0  0  0
 25 26  1  0  0  0
 26 27  1  0  0  0
 27 28  1  0  0  0
 28 29  1  0  0  0
 28 30  1  0  0  0
 30 31  1  0  0  0
 21 22  1  0  0  0
 22 23  2  0  0  0
  9  1  1  0  0  0
 23 18  1  0  0  0
  8  4  1  0  0  0
 31 25  1  0  0  0
 16 10  1  0  0  0
 32 33  1  0  0  0
 14 17  1  0  0  0
M  END
> <minimizedAffinity>
-6.38475

> <CNNscore>
0.2437243760

> <CNNaffinity>
5.8126368523

> <CNN_VS>
1.4166812897

> <CNNaffinity_variance>
0.6727958322

$$$$
[H]O[C@]1([H])C([H])([H])C([H])([H])[C@@]([H])(n2c([H])c(-c3c([H])c([H])c(C([H])([H])N4C([H])([H])C([H])([H])N(C([H])([H])[H])C([H])([H])C4([H])[H])c([H])c3[H])c3c([H])nc(N([H])C([H])([H])C([H])([H])C([H])([H])C([H])([H])[H])nc32)C([H])([H])C1([H])[H]


 37 41  0  0  0  0  0  0  0  0999 V2000
    4.5278    2.5007   19.7394 C   0  0  0  0  0  0  0  0  0  0  0  0
    4.1591    1.8960   18.5991 N   0  0  0  0  0  0  0  0  0  0  0  0
    3.8336    2.5883   17.4986 C   0  0  0  0  0  0  0  0  0  0  0  0
    3.8721    3.9460   17.5185 C   0  0  0  0  0  0  0  0  0  0  0  0
    3.6057    4.9176   16.5873 C   0  0  0  0  0  0  0  0  0  0  0  0
    3.8265    6.1289   17.2051 C   0  0  0  0  0  0  0  0  0  0  0  0
    4.2216    5.9025   18.4939 N   0  0  0  0  0  0  0  0  0  0  0  0
    4.2529    4.5889   18.6955 C   0  0  0  0  0  0  0  0  0  0  0  0
    4.5702    3.8645   19.7721 N   0  0  0  0  0  0  0  0  0  0  0  0
    4.5253    6.9594   19.3877 C   0  0  0  0  0  0  0  0  0  0  0  0
    5.9735    7.1397   19.6827 C   0  0  0  0  0  0  0  0  0  0  0  0
    6.2652    8.3974   20.4604 C   0  0  0  0  0  0  0  0  0  0  0  0
    5.0346    9.1690   20.8315 C   0  0  0  0  0  0  0  0  0  0  0  0
    4.4622    8.6489   22.0149 O   0  0  0  0  0  0  0  0  0  0  0  0
    4.0478    9.3286   19.7339 C   0  0  0  0  0  0  0  0  0  0  0  0
    4.0560    8.2544   18.7056 C   0  0  0  0  0  0  0  0  0  0  0  0
    3.9311    9.3711   22.4421 H   0  0  0  0  0  0  0  0  0  0  0  0
    3.1656    4.7457   15.1886 C   0  0  0  0  0  0  0  0  0  0  0  0
    3.8258    3.9713   14.2873 C   0  0  0  0  0  0  0  0  0  0  0  0
    3.3515    3.8617   12.9974 C   0  0  0  0  0  0  0  0  0  0  0  0
    2.2178    4.5121   12.5687 C   0  0  0  0  0  0  0  0  0  0  0  0
    1.5517    5.3012   13.5015 C   0  0  0  0  0  0  0  0  0  0  0  0
    2.0154    5.4184   14.7913 C   0  0  0  0  0  0  0  0  0  0  0  0
    1.7219    4.3993   11.2003 C   0  0  0  0  0  0  0  0  0  0  0  0
    0.4704    5.0305   10.9591 N   0  0  0  0  0  0  0  0  0  0  0  0
   -0.5575    4.0483   10.7024 C   0  0  0  0  0  0  0  0  0  0  0  0
   -0.5683    3.6420    9.2327 C   0  0  0  0  0  0  0  0  0  0  0  0
   -0.9050    4.8370    8.4816 N   0  0  0  0  0  0  0  0  0  0  0  0
   -1.1516    4.5856    7.0941 C   0  0  0  0  0  0  0  0  0  0  0  0
    0.2138    5.7484    8.6235 C   0  0  0  0  0  0  0  0  0  0  0  0
    0.4568    6.1270   10.0610 C   0  0  0  0  0  0  0  0  0  0  0  0
    4.8689    1.7475   20.8944 N   0  0  0  0  0  0  0  0  0  0  0  0
    4.9522    0.7043   20.8057 H   0  0  0  0  0  0  0  0  0  0  0  0
    5.1045    2.3480   22.1721 C   0  0  0  0  0  0  0  0  0  0  0  0
    3.9105    2.4472   23.0592 C   0  0  0  0  0  0  0  0  0  0  0  0
    4.7129    4.7764   22.9907 C   0  0  0  0  0  0  0  0  0  0  0  0
    3.5689    3.8843   23.4100 C   0  0  0  0  0  0  0  0  0  0  0  0
 36 37  1  0  0  0
 37 35  1  0  0  0
 35 34  1  0  0  0
 34 32  1  0  0  0
 32  1  1  0  0  0
  1  2  2  0  0  0
  2  3  1  0  0  0
  3  4  2  0  0  0
  4  5  1  0  0  0
  5  6  2  0  0  0
  6  7  1  0  0  0
  7 10  1  0  0  0
 10 11  1  0  0  0
 11 12  1  0  0  0
 12 13  1  0  0  0
 13 14  1  0  0  0
 13 15  1  0  0  0
 15 16  1  0  0  0
  7  8  1  0  0  0
  8  9  2  0  0  0
  5 18  1  0  0  0
 18 19  2  0  0  0
 19 20  1  0  0  0
 20 21  2  0  0  0
 21 24  1  0  0  0
 24 25  1  0  0  0
 25 26  1  0  0  0
 26 27  1  0  0  0
 27 28  1  0  0  0
 28 29  1  0  0  0
 28 30  1  0  0  0
 30 31  1  0  0  0
 21 22  1  0  0  0
 22 23  2  0  0  0
  9  1  1  0  0  0
 23 18  1  0  0  0
  8  4  1  0  0  0
 31 25  1  0  0  0
 16 10  1  0  0  0
 32 33  1  0  0  0
 14 17  1  0  0  0
M  END
> <minimizedAffinity>
-8.08670

> <CNNscore>
0.2291951776

> <CNNaffinity>
6.4590482712

> <CNN_VS>
1.4803826809

> <CNNaffinity_variance>
0.3952402771

$$$$
[H]O[C@]1([H])C([H])([H])C([H])([H])[C@@]([H])(n2c([H])c(-c3c([H])c([H])c(N4C([H])([H])C([H])([H])N(C([H])([H])[H])C([H])([H])C4([H])[H])c([H])c3[H])c3c([H])nc(N([H])C([H])([H])C([H])([H])C([H])([H])C([H])([H])[H])nc32)C([H])([H])C1([H])[H]


 36 40  0  0  0  0  0  0  0  0999 V2000
    3.8211    0.9936   19.5209 C   0  0  0  0  0  0  0  0  0  0  0  0
    3.1384    0.4388   18.5045 N   0  0  0  0  0  0  0  0  0  0  0  0
    3.0115    1.0171   17.2994 C   0  0  0  0  0  0  0  0  0  0  0  0
    3.6174    2.2440   17.1063 C   0  0  0  0  0  0  0  0  0  0  0  0
    3.6847    3.0936   16.0167 C   0  0  0  0  0  0  0  0  0  0  0  0
    4.4318    4.1706   16.4256 C   0  0  0  0  0  0  0  0  0  0  0  0
    4.8261    4.0302   17.7026 N   0  0  0  0  0  0  0  0  0  0  0  0
    4.3249    2.8345   18.1367 C   0  0  0  0  0  0  0  0  0  0  0  0
    4.4009    2.1845   19.3114 N   0  0  0  0  0  0  0  0  0  0  0  0
    5.6227    4.9290   18.5135 C   0  0  0  0  0  0  0  0  0  0  0  0
    6.3235    5.9381   17.6366 C   0  0  0  0  0  0  0  0  0  0  0  0
    6.9766    7.0075   18.4743 C   0  0  0  0  0  0  0  0  0  0  0  0
    5.9305    7.6728   19.3300 C   0  0  0  0  0  0  0  0  0  0  0  0
    6.3957    8.7915   19.9827 O   0  0  0  0  0  0  0  0  0  0  0  0
    5.4439    6.6355   20.3332 C   0  0  0  0  0  0  0  0  0  0  0  0
    4.7163    5.5755   19.5320 C   0  0  0  0  0  0  0  0  0  0  0  0
    6.0987    8.7435   20.9286 H   0  0  0  0  0  0  0  0  0  0  0  0
    3.0676    2.8681   14.6973 C   0  0  0  0  0  0  0  0  0  0  0  0
    3.5737    3.4439   13.5521 C   0  0  0  0  0  0  0  0  0  0  0  0
    2.9914    3.2325   12.3197 C   0  0  0  0  0  0  0  0  0  0  0  0
    1.8584    2.4223   12.1775 C   0  0  0  0  0  0  0  0  0  0  0  0
    1.3648    1.8557   13.3244 C   0  0  0  0  0  0  0  0  0  0  0  0
    1.9547    2.0691   14.5758 C   0  0  0  0  0  0  0  0  0  0  0  0
    1.2832    2.2283   10.8967 N   0  0  0  0  0  0  0  0  0  0  0  0
    0.8671    0.8983   10.4751 C   0  0  0  0  0  0  0  0  0  0  0  0
    0.7333    0.8734    8.9686 C   0  0  0  0  0  0  0  0  0  0  0  0
   -0.2597    1.8202    8.5024 N   0  0  0  0  0  0  0  0  0  0  0  0
   -1.5668    1.2047    8.3732 C   0  0  0  0  0  0  0  0  0  0  0  0
   -0.2913    3.0209    9.2865 C   0  0  0  0  0  0  0  0  0  0  0  0
    1.0649    3.2861    9.9378 C   0  0  0  0  0  0  0  0  0  0  0  0
    3.9184    0.3186   20.7840 N   0  0  0  0  0  0  0  0  0  0  0  0
    4.5246   -0.5016   20.8418 H   0  0  0  0  0  0  0  0  0  0  0  0
    3.1517    0.8115   21.8671 C   0  0  0  0  0  0  0  0  0  0  0  0
    3.8490    1.4356   23.0135 C   0  0  0  0  0  0  0  0  0  0  0  0
    3.6636    3.9202   23.2942 C   0  0  0  0  0  0  0  0  0  0  0  0
    4.4648    2.7696   22.8122 C   0  0  0  0  0  0  0  0  0  0  0  0
 35 36  1  0  0  0
 36 34  1  0  0  0
 34 33  1  0  0  0
 33 31  1  0  0  0
 31  1  1  0  0  0
  1  2  2  0  0  0
  2  3  1  0  0  0
  3  4  2  0  0  0
  4  5  1  0  0  0
  5  6  2  0  0  0
  6  7  1  0  0  0
  7 10  1  0  0  0
 10 11  1  0  0  0
 11 12  1  0  0  0
 12 13  1  0  0  0
 13 14  1  0  0  0
 13 15  1  0  0  0
 15 16  1  0  0  0
  7  8  1  0  0  0
  8  9  2  0  0  0
  5 18  1  0  0  0
 18 19  2  0  0  0
 19 20  1  0  0  0
 20 21  2  0  0  0
 21 22  1  0  0  0
 22 23  2  0  0  0
 21 24  1  0  0  0
 24 25  1  0  0  0
 25 26  1  0  0  0
 26 27  1  0  0  0
 27 28  1  0  0  0
 27 29  1  0  0  0
 29 30  1  0  0  0
  9  1  1  0  0  0
 23 18  1  0  0  0
 30 24  1  0  0  0
  8  4  1  0  0  0
 16 10  1  0  0  0
 31 32  1  0  0  0
 14 17  1  0  0  0
M  END
> <minimizedAffinity>
-8.27677

> <CNNscore>
0.8364461660

> <CNNaffinity>
7.4254250526

> <CNN_VS>
6.2109684944

> <CNNaffinity_variance>
0.2722463012

$$$$
[H]O[C@]1([H])C([H])([H])C([H])([H])[C@@]([H])(n2c([H])c(-c3c([H])c([H])c(N4C([H])([H])C([H])([H])N(C([H])([H])[H])C([H])([H])C4([H])[H])c([H])c3[H])c3c([H])nc(N([H])C([H])([H])C([H])([H])C([H])([H])C([H])([H])[H])nc32)C([H])([H])C1([H])[H]


 36 40  0  0  0  0  0  0  0  0999 V2000
    3.9159    2.0677   17.7064 C   0  0  0  0  0  0  0  0  0  0  0  0
    3.1915    1.7237   16.6276 N   0  0  0  0  0  0  0  0  0  0  0  0
    2.8510    2.5914   15.6612 C   0  0  0  0  0  0  0  0  0  0  0  0
    3.2721    3.9009   15.7933 C   0  0  0  0  0  0  0  0  0  0  0  0
    3.1029    5.0230   15.0021 C   0  0  0  0  0  0  0  0  0  0  0  0
    3.7535    6.0426   15.6521 C   0  0  0  0  0  0  0  0  0  0  0  0
    4.3113    5.6105   16.7957 N   0  0  0  0  0  0  0  0  0  0  0  0
    4.0182    4.2787   16.8941 C   0  0  0  0  0  0  0  0  0  0  0  0
    4.3139    3.3437   17.8142 N   0  0  0  0  0  0  0  0  0  0  0  0
    5.0807    6.3557   17.7718 C   0  0  0  0  0  0  0  0  0  0  0  0
    6.5134    5.8808   17.7777 C   0  0  0  0  0  0  0  0  0  0  0  0
    7.3703    6.7872   18.6240 C   0  0  0  0  0  0  0  0  0  0  0  0
    7.2722    8.1947   18.0963 C   0  0  0  0  0  0  0  0  0  0  0  0
    8.1714    9.0566   18.6815 O   0  0  0  0  0  0  0  0  0  0  0  0
    5.8455    8.6680   18.3405 C   0  0  0  0  0  0  0  0  0  0  0  0
    4.9575    7.8245   17.4490 C   0  0  0  0  0  0  0  0  0  0  0  0
    7.6880    9.8880   18.9269 H   0  0  0  0  0  0  0  0  0  0  0  0
    2.3660    5.0863   13.7272 C   0  0  0  0  0  0  0  0  0  0  0  0
    1.0669    5.5414   13.6622 C   0  0  0  0  0  0  0  0  0  0  0  0
    0.3800    5.5963   12.4674 C   0  0  0  0  0  0  0  0  0  0  0  0
    0.9732    5.1912   11.2656 C   0  0  0  0  0  0  0  0  0  0  0  0
    2.2658    4.7403   11.3440 C   0  0  0  0  0  0  0  0  0  0  0  0
    2.9643    4.6842   12.5558 C   0  0  0  0  0  0  0  0  0  0  0  0
    0.2381    5.2579   10.0556 N   0  0  0  0  0  0  0  0  0  0  0  0
   -0.6147    4.1479    9.6552 C   0  0  0  0  0  0  0  0  0  0  0  0
   -0.9033    4.2517    8.1739 C   0  0  0  0  0  0  0  0  0  0  0  0
   -1.5918    5.4840    7.8465 N   0  0  0  0  0  0  0  0  0  0  0  0
   -3.0320    5.3109    7.8552 C   0  0  0  0  0  0  0  0  0  0  0  0
   -1.1650    6.5888    8.6556 C   0  0  0  0  0  0  0  0  0  0  0  0
    0.2652    6.3844    9.1521 C   0  0  0  0  0  0  0  0  0  0  0  0
    4.2462    1.0874   18.7017 N   0  0  0  0  0  0  0  0  0  0  0  0
    4.6576    0.2070   18.3869 H   0  0  0  0  0  0  0  0  0  0  0  0
    3.9606    1.3859   20.0557 C   0  0  0  0  0  0  0  0  0  0  0  0
    5.0804    1.6873   20.9749 C   0  0  0  0  0  0  0  0  0  0  0  0
    5.8859    2.2765   23.2750 C   0  0  0  0  0  0  0  0  0  0  0  0
    4.7539    2.2220   22.3190 C   0  0  0  0  0  0  0  0  0  0  0  0
 35 36  1  0  0  0
 36 34  1  0  0  0
 34 33  1  0  0  0
 33 31  1  0  0  0
 31  1  1  0  0  0
  1  2  2  0  0  0
  2  3  1  0  0  0
  3  4  2  0  0  0
  4  5  1  0  0  0
  5  6  2  0  0  0
  6  7  1  0  0  0
  7 10  1  0  0  0
 10 11  1  0  0  0
 11 12  1  0  0  0
 12 13  1  0  0  0
 13 14  1  0  0  0
 13 15  1  0  0  0
 15 16  1  0  0  0
  7  8  1  0  0  0
  8  9  2  0  0  0
  5 18  1  0  0  0
 18 19  2  0  0  0
 19 20  1  0  0  0
 20 21  2  0  0  0
 21 22  1  0  0  0
 22 23  2  0  0  0
 21 24  1  0  0  0
 24 25  1  0  0  0
 25 26  1  0  0  0
 26 27  1  0  0  0
 27 28  1  0  0  0
 27 29  1  0  0  0
 29 30  1  0  0  0
  9  1  1  0  0  0
 23 18  1  0  0  0
 30 24  1  0  0  0
  8  4  1  0  0  0
 16 10  1  0  0  0
 31 32  1  0  0  0
 14 17  1  0  0  0
M  END
> <minimizedAffinity>
-6.61730

> <CNNscore>
0.3885953426

> <CNNaffinity>
6.5739717484

> <CNN_VS>
2.5546147823

> <CNNaffinity_variance>
0.3389157653

$$$$
[H]O[C@]1([H])C([H])([H])C([H])([H])[C@@]([H])(n2c([H])c(-c3c([H])c([H])c(N4C([H])([H])C([H])([H])N(C([H])([H])[H])C([H])([H])C4([H])[H])c([H])c3[H])c3c([H])nc(N([H])C([H])([H])C([H])([H])C([H])([H])C([H])([H])[H])nc32)C([H])([H])C1([H])[H]


 36 40  0  0  0  0  0  0  0  0999 V2000
    3.7684    1.7220   18.5165 C   0  0  0  0  0  0  0  0  0  0  0  0
    3.3358    1.4673   17.2696 N   0  0  0  0  0  0  0  0  0  0  0  0
    3.1705    2.4200   16.3379 C   0  0  0  0  0  0  0  0  0  0  0  0
    3.4629    3.7238   16.6905 C   0  0  0  0  0  0  0  0  0  0  0  0
    3.4069    4.9171   15.9930 C   0  0  0  0  0  0  0  0  0  0  0  0
    3.8221    5.8862   16.8726 C   0  0  0  0  0  0  0  0  0  0  0  0
    4.1291    5.3560   18.0686 N   0  0  0  0  0  0  0  0  0  0  0  0
    3.9093    4.0104   17.9670 C   0  0  0  0  0  0  0  0  0  0  0  0
    4.0461    2.9942   18.8369 N   0  0  0  0  0  0  0  0  0  0  0  0
    4.6026    6.0222   19.2653 C   0  0  0  0  0  0  0  0  0  0  0  0
    3.9340    5.4374   20.4856 C   0  0  0  0  0  0  0  0  0  0  0  0
    4.5723    5.9645   21.7453 C   0  0  0  0  0  0  0  0  0  0  0  0
    6.0426    5.6374   21.7286 C   0  0  0  0  0  0  0  0  0  0  0  0
    6.6705    5.9043   22.9238 O   0  0  0  0  0  0  0  0  0  0  0  0
    6.6712    6.4497   20.6043 C   0  0  0  0  0  0  0  0  0  0  0  0
    6.1057    5.8984   19.3116 C   0  0  0  0  0  0  0  0  0  0  0  0
    7.5157    6.3866   22.7280 H   0  0  0  0  0  0  0  0  0  0  0  0
    2.9806    5.0878   14.5924 C   0  0  0  0  0  0  0  0  0  0  0  0
    1.7373    5.5861   14.2684 C   0  0  0  0  0  0  0  0  0  0  0  0
    1.3413    5.7416   12.9564 C   0  0  0  0  0  0  0  0  0  0  0  0
    2.1864    5.3992   11.8938 C   0  0  0  0  0  0  0  0  0  0  0  0
    3.4203    4.9045   12.2297 C   0  0  0  0  0  0  0  0  0  0  0  0
    3.8237    4.7463   13.5607 C   0  0  0  0  0  0  0  0  0  0  0  0
    1.7470    5.5689   10.5570 N   0  0  0  0  0  0  0  0  0  0  0  0
    1.9392    6.8433    9.8796 C   0  0  0  0  0  0  0  0  0  0  0  0
    1.0062    6.9206    8.6915 C   0  0  0  0  0  0  0  0  0  0  0  0
    1.2664    5.8634    7.7352 N   0  0  0  0  0  0  0  0  0  0  0  0
    2.1978    6.2887    6.7077 C   0  0  0  0  0  0  0  0  0  0  0  0
    1.6607    4.6347    8.3616 C   0  0  0  0  0  0  0  0  0  0  0  0
    1.1004    4.5378    9.7794 C   0  0  0  0  0  0  0  0  0  0  0  0
    3.9245    0.6540   19.4630 N   0  0  0  0  0  0  0  0  0  0  0  0
    4.2355   -0.2535   19.1120 H   0  0  0  0  0  0  0  0  0  0  0  0
    3.6154    0.9119   20.8201 C   0  0  0  0  0  0  0  0  0  0  0  0
    4.7109    0.9248   21.8149 C   0  0  0  0  0  0  0  0  0  0  0  0
    7.1724    0.6523   21.4240 C   0  0  0  0  0  0  0  0  0  0  0  0
    5.9962    1.5550   21.4278 C   0  0  0  0  0  0  0  0  0  0  0  0
 35 36  1  0  0  0
 36 34  1  0  0  0
 34 33  1  0  0  0
 33 31  1  0  0  0
 31  1  1  0  0  0
  1  2  2  0  0  0
  2  3  1  0  0  0
  3  4  2  0  0  0
  4  5  1  0  0  0
  5  6  2  0  0  0
  6  7  1  0  0  0
  7 10  1  0  0  0
 10 11  1  0  0  0
 11 12  1  0  0  0
 12 13  1  0  0  0
 13 14  1  0  0  0
 13 15  1  0  0  0
 15 16  1  0  0  0
  7  8  1  0  0  0
  8  9  2  0  0  0
  5 18  1  0  0  0
 18 19  2  0  0  0
 19 20  1  0  0  0
 20 21  2  0  0  0
 21 22  1  0  0  0
 22 23  2  0  0  0
 21 24  1  0  0  0
 24 25  1  0  0  0
 25 26  1  0  0  0
 26 27  1  0  0  0
 27 28  1  0  0  0
 27 29  1  0  0  0
 29 30  1  0  0  0
  9  1  1  0  0  0
 23 18  1  0  0  0
 30 24  1  0  0  0
  8  4  1  0  0  0
 16 10  1  0  0  0
 31 32  1  0  0  0
 14 17  1  0  0  0
M  END
> <minimizedAffinity>
-7.41825

> <CNNscore>
0.3829496801

> <CNNaffinity>
6.6877784729

> <CNN_VS>
2.5610826015

> <CNNaffinity_variance>
0.3365415931

$$$$
[H]O[C@]1([H])C([H])([H])C([H])([H])[C@@]([H])(n2c([H])c(-c3c([H])c([H])c(N4C([H])([H])C([H])([H])N(C([H])([H])[H])C([H])([H])C4([H])[H])c([H])c3[H])c3c([H])nc(N([H])C([H])([H])C([H])([H])C([H])([H])C([H])([H])[H])nc32)C([H])([H])C1([H])[H]


 36 40  0  0  0  0  0  0  0  0999 V2000
    4.4602    1.8036   20.2154 C   0  0  0  0  0  0  0  0  0  0  0  0
    4.1451    1.0248   19.1661 N   0  0  0  0  0  0  0  0  0  0  0  0
    3.8540    1.5106   17.9488 C   0  0  0  0  0  0  0  0  0  0  0  0
    3.8831    2.8817   17.7782 C   0  0  0  0  0  0  0  0  0  0  0  0
    3.6431    3.6943   16.6847 C   0  0  0  0  0  0  0  0  0  0  0  0
    3.8280    4.9815   17.1254 C   0  0  0  0  0  0  0  0  0  0  0  0
    4.1670    5.0048   18.4256 N   0  0  0  0  0  0  0  0  0  0  0  0
    4.2044    3.7032   18.8426 C   0  0  0  0  0  0  0  0  0  0  0  0
    4.4824    3.1312   20.0273 N   0  0  0  0  0  0  0  0  0  0  0  0
    4.4491    6.1463   19.2725 C   0  0  0  0  0  0  0  0  0  0  0  0
    5.9394    6.3095   19.4467 C   0  0  0  0  0  0  0  0  0  0  0  0
    6.2543    7.6108   20.1392 C   0  0  0  0  0  0  0  0  0  0  0  0
    5.6784    8.7490   19.3381 C   0  0  0  0  0  0  0  0  0  0  0  0
    6.0827    9.9859   19.7861 O   0  0  0  0  0  0  0  0  0  0  0  0
    4.1621    8.6271   19.4094 C   0  0  0  0  0  0  0  0  0  0  0  0
    3.8000    7.3622   18.6585 C   0  0  0  0  0  0  0  0  0  0  0  0
    5.2840   10.5729   19.8361 H   0  0  0  0  0  0  0  0  0  0  0  0
    3.2635    3.2455   15.3331 C   0  0  0  0  0  0  0  0  0  0  0  0
    2.3356    2.2461   15.1347 C   0  0  0  0  0  0  0  0  0  0  0  0
    1.9853    1.8272   13.8681 C   0  0  0  0  0  0  0  0  0  0  0  0
    2.5581    2.3997   12.7259 C   0  0  0  0  0  0  0  0  0  0  0  0
    3.4798    3.3926   12.9371 C   0  0  0  0  0  0  0  0  0  0  0  0
    3.8362    3.8190   14.2218 C   0  0  0  0  0  0  0  0  0  0  0  0
    2.1777    1.9437   11.4390 N   0  0  0  0  0  0  0  0  0  0  0  0
    3.1692    1.3605   10.5465 C   0  0  0  0  0  0  0  0  0  0  0  0
    2.6410    1.3899    9.1293 C   0  0  0  0  0  0  0  0  0  0  0  0
    1.4171    0.6254    8.9969 N   0  0  0  0  0  0  0  0  0  0  0  0
    1.6820   -0.7439    8.5983 C   0  0  0  0  0  0  0  0  0  0  0  0
    0.5834    0.7086   10.1611 C   0  0  0  0  0  0  0  0  0  0  0  0
    0.8312    2.0106   10.9208 C   0  0  0  0  0  0  0  0  0  0  0  0
    4.7628    1.2168   21.4901 N   0  0  0  0  0  0  0  0  0  0  0  0
    5.5359    0.5508   21.5378 H   0  0  0  0  0  0  0  0  0  0  0  0
    3.9591    1.5743   22.5992 C   0  0  0  0  0  0  0  0  0  0  0  0
    4.4614    2.5905   23.5504 C   0  0  0  0  0  0  0  0  0  0  0  0
    4.4513    4.9924   22.8313 C   0  0  0  0  0  0  0  0  0  0  0  0
    3.7805    3.9074   23.5871 C   0  0  0  0  0  0  0  0  0  0  0  0
 35 36  1  0  0  0
 36 34  1  0  0  0
 34 33  1  0  0  0
 33 31  1  0  0  0
 31  1  1  0  0  0
  1  2  2  0  0  0
  2  3  1  0  0  0
  3  4  2  0  0  0
  4  5  1  0  0  0
  5  6  2  0  0  0
  6  7  1  0  0  0
  7 10  1  0  0  0
 10 11  1  0  0  0
 11 12  1  0  0  0
 12 13  1  0  0  0
 13 14  1  0  0  0
 13 15  1  0  0  0
 15 16  1  0  0  0
  7  8  1  0  0  0
  8  9  2  0  0  0
  5 18  1  0  0  0
 18 19  2  0  0  0
 19 20  1  0  0  0
 20 21  2  0  0  0
 21 22  1  0  0  0
 22 23  2  0  0  0
 21 24  1  0  0  0
 24 25  1  0  0  0
 25 26  1  0  0  0
 26 27  1  0  0  0
 27 28  1  0  0  0
 27 29  1  0  0  0
 29 30  1  0  0  0
  9  1  1  0  0  0
 23 18  1  0  0  0
 30 24  1  0  0  0
  8  4  1  0  0  0
 16 10  1  0  0  0
 31 32  1  0  0  0
 14 17  1  0  0  0
M  END
> <minimizedAffinity>
-8.47633

> <CNNscore>
0.3623858690

> <CNNaffinity>
6.9764366150

> <CNN_VS>
2.5281620026

> <CNNaffinity_variance>
0.2759087682

$$$$
[H]O[C@]1([H])C([H])([H])C([H])([H])[C@@]([H])(n2c([H])c(-c3c([H])c([H])c(N4C([H])([H])C([H])([H])N(C([H])([H])[H])C([H])([H])C4([H])[H])c([H])c3[H])c3c([H])nc(N([H])C([H])([H])C([H])([H])C([H])([H])C([H])([H])[H])nc32)C([H])([H])C1([H])[H]


 36 40  0  0  0  0  0  0  0  0999 V2000
    4.5690    1.7114   19.5472 C   0  0  0  0  0  0  0  0  0  0  0  0
    3.9702    1.3247   18.4076 N   0  0  0  0  0  0  0  0  0  0  0  0
    3.6664    2.1713   17.4107 C   0  0  0  0  0  0  0  0  0  0  0  0
    3.9905    3.5044   17.5760 C   0  0  0  0  0  0  0  0  0  0  0  0
    3.8248    4.6152   16.7684 C   0  0  0  0  0  0  0  0  0  0  0  0
    4.3475    5.6724   17.4716 C   0  0  0  0  0  0  0  0  0  0  0  0
    4.8236    5.2739   18.6634 N   0  0  0  0  0  0  0  0  0  0  0  0
    4.6068    3.9261   18.7394 C   0  0  0  0  0  0  0  0  0  0  0  0
    4.8745    3.0097   19.6864 N   0  0  0  0  0  0  0  0  0  0  0  0
    5.4515    6.0640   19.7033 C   0  0  0  0  0  0  0  0  0  0  0  0
    5.6971    7.4699   19.2120 C   0  0  0  0  0  0  0  0  0  0  0  0
    6.1452    8.3579   20.3445 C   0  0  0  0  0  0  0  0  0  0  0  0
    5.0997    8.3418   21.4289 C   0  0  0  0  0  0  0  0  0  0  0  0
    5.3275    9.2743   22.4150 O   0  0  0  0  0  0  0  0  0  0  0  0
    5.0845    6.9376   22.0179 C   0  0  0  0  0  0  0  0  0  0  0  0
    4.5688    6.0224   20.9263 C   0  0  0  0  0  0  0  0  0  0  0  0
    5.2056    8.8304   23.2944 H   0  0  0  0  0  0  0  0  0  0  0  0
    3.2061    4.6347   15.4307 C   0  0  0  0  0  0  0  0  0  0  0  0
    1.9995    5.2588   15.1988 C   0  0  0  0  0  0  0  0  0  0  0  0
    1.4226    5.2721   13.9461 C   0  0  0  0  0  0  0  0  0  0  0  0
    2.0383    4.6510   12.8527 C   0  0  0  0  0  0  0  0  0  0  0  0
    3.2380    4.0336   13.0968 C   0  0  0  0  0  0  0  0  0  0  0  0
    3.8249    4.0193   14.3676 C   0  0  0  0  0  0  0  0  0  0  0  0
    1.4168    4.6811   11.5792 N   0  0  0  0  0  0  0  0  0  0  0  0
   -0.0322    4.7779   11.4741 C   0  0  0  0  0  0  0  0  0  0  0  0
   -0.4614    4.3326   10.0936 C   0  0  0  0  0  0  0  0  0  0  0  0
    0.1177    5.1639    9.0575 N   0  0  0  0  0  0  0  0  0  0  0  0
   -0.7609    6.2608    8.6981 C   0  0  0  0  0  0  0  0  0  0  0  0
    1.4451    5.6035    9.3773 C   0  0  0  0  0  0  0  0  0  0  0  0
    2.1331    4.6239   10.3264 C   0  0  0  0  0  0  0  0  0  0  0  0
    4.8671    0.7518   20.5724 N   0  0  0  0  0  0  0  0  0  0  0  0
    5.8305    0.4216   20.6519 H   0  0  0  0  0  0  0  0  0  0  0  0
    3.8073    0.3007   21.3953 C   0  0  0  0  0  0  0  0  0  0  0  0
    3.4514    1.0840   22.5993 C   0  0  0  0  0  0  0  0  0  0  0  0
    4.1490    3.3160   23.5035 C   0  0  0  0  0  0  0  0  0  0  0  0
    4.5109    1.9034   23.2359 C   0  0  0  0  0  0  0  0  0  0  0  0
 35 36  1  0  0  0
 36 34  1  0  0  0
 34 33  1  0  0  0
 33 31  1  0  0  0
 31  1  1  0  0  0
  1  2  2  0  0  0
  2  3  1  0  0  0
  3  4  2  0  0  0
  4  5  1  0  0  0
  5  6  2  0  0  0
  6  7  1  0  0  0
  7 10  1  0  0  0
 10 11  1  0  0  0
 11 12  1  0  0  0
 12 13  1  0  0  0
 13 14  1  0  0  0
 13 15  1  0  0  0
 15 16  1  0  0  0
  7  8  1  0  0  0
  8  9  2  0  0  0
  5 18  1  0  0  0
 18 19  2  0  0  0
 19 20  1  0  0  0
 20 21  2  0  0  0
 21 22  1  0  0  0
 22 23  2  0  0  0
 21 24  1  0  0  0
 24 25  1  0  0  0
 25 26  1  0  0  0
 26 27  1  0  0  0
 27 28  1  0  0  0
 27 29  1  0  0  0
 29 30  1  0  0  0
  9  1  1  0  0  0
 23 18  1  0  0  0
 30 24  1  0  0  0
  8  4  1  0  0  0
 16 10  1  0  0  0
 31 32  1  0  0  0
 14 17  1  0  0  0
M  END
> <minimizedAffinity>
-7.91928

> <CNNscore>
0.3623643517

> <CNNaffinity>
6.9291396141

> <CNN_VS>
2.5108730793

> <CNNaffinity_variance>
0.3581230938

$$$$
[H]O[C@]1([H])C([H])([H])C([H])([H])[C@@]([H])(n2c([H])c(-c3c([H])c([H])c(N4C([H])([H])C([H])([H])N(C([H])([H])[H])C([H])([H])C4([H])[H])c([H])c3[H])c3c([H])nc(N([H])C([H])([H])C([H])([H])C([H])([H])C([H])([H])[H])nc32)C([H])([H])C1([H])[H]


 36 40  0  0  0  0  0  0  0  0999 V2000
    4.5765    1.7932   19.9956 C   0  0  0  0  0  0  0  0  0  0  0  0
    4.1754    1.0640   18.9400 N   0  0  0  0  0  0  0  0  0  0  0  0
    3.9500    1.5885   17.7248 C   0  0  0  0  0  0  0  0  0  0  0  0
    4.1434    2.9473   17.5633 C   0  0  0  0  0  0  0  0  0  0  0  0
    4.0073    3.7893   16.4743 C   0  0  0  0  0  0  0  0  0  0  0  0
    4.3425    5.0425   16.9241 C   0  0  0  0  0  0  0  0  0  0  0  0
    4.6759    5.0173   18.2257 N   0  0  0  0  0  0  0  0  0  0  0  0
    4.5557    3.7181   18.6343 C   0  0  0  0  0  0  0  0  0  0  0  0
    4.7579    3.1097   19.8163 N   0  0  0  0  0  0  0  0  0  0  0  0
    5.0884    6.1118   19.0812 C   0  0  0  0  0  0  0  0  0  0  0  0
    4.3268    6.0698   20.3837 C   0  0  0  0  0  0  0  0  0  0  0  0
    4.8958    7.0629   21.3644 C   0  0  0  0  0  0  0  0  0  0  0  0
    6.3549    6.7600   21.5843 C   0  0  0  0  0  0  0  0  0  0  0  0
    6.9109    7.4891   22.6106 O   0  0  0  0  0  0  0  0  0  0  0  0
    7.0765    7.0489   20.2748 C   0  0  0  0  0  0  0  0  0  0  0  0
    6.5815    6.0203   19.2788 C   0  0  0  0  0  0  0  0  0  0  0  0
    7.7795    7.8525   22.2964 H   0  0  0  0  0  0  0  0  0  0  0  0
    3.5830    3.3973   15.1183 C   0  0  0  0  0  0  0  0  0  0  0  0
    3.9323    4.1346   14.0076 C   0  0  0  0  0  0  0  0  0  0  0  0
    3.5307    3.7658   12.7407 C   0  0  0  0  0  0  0  0  0  0  0  0
    2.7488    2.6242   12.5266 C   0  0  0  0  0  0  0  0  0  0  0  0
    2.4081    1.8997   13.6398 C   0  0  0  0  0  0  0  0  0  0  0  0
    2.8150    2.2726   14.9262 C   0  0  0  0  0  0  0  0  0  0  0  0
    2.3509    2.2752   11.2118 N   0  0  0  0  0  0  0  0  0  0  0  0
    1.1255    1.5195   10.9943 C   0  0  0  0  0  0  0  0  0  0  0  0
    1.1665    0.8910    9.6190 C   0  0  0  0  0  0  0  0  0  0  0  0
    1.2653    1.8909    8.5748 N   0  0  0  0  0  0  0  0  0  0  0  0
   -0.0419    2.2780    8.0793 C   0  0  0  0  0  0  0  0  0  0  0  0
    2.0638    3.0181    8.9611 C   0  0  0  0  0  0  0  0  0  0  0  0
    3.0906    2.6247   10.0216 C   0  0  0  0  0  0  0  0  0  0  0  0
    4.8010    1.1667   21.2675 N   0  0  0  0  0  0  0  0  0  0  0  0
    4.2364    0.3487   21.5033 H   0  0  0  0  0  0  0  0  0  0  0  0
    5.7710    1.7317   22.1299 C   0  0  0  0  0  0  0  0  0  0  0  0
    5.3258    2.3726   23.3873 C   0  0  0  0  0  0  0  0  0  0  0  0
    3.4086    3.9883   23.3815 C   0  0  0  0  0  0  0  0  0  0  0  0
    4.8763    3.7845   23.3286 C   0  0  0  0  0  0  0  0  0  0  0  0
 35 36  1  0  0  0
 36 34  1  0  0  0
 34 33  1  0  0  0
 33 31  1  0  0  0
 31  1  1  0  0  0
  1  2  2  0  0  0
  2  3  1  0  0  0
  3  4  2  0  0  0
  4  5  1  0  0  0
  5  6  2  0  0  0
  6  7  1  0  0  0
  7 10  1  0  0  0
 10 11  1  0  0  0
 11 12  1  0  0  0
 12 13  1  0  0  0
 13 14  1  0  0  0
 13 15  1  0  0  0
 15 16  1  0  0  0
  7  8  1  0  0  0
  8  9  2  0  0  0
  5 18  1  0  0  0
 18 19  2  0  0  0
 19 20  1  0  0  0
 20 21  2  0  0  0
 21 22  1  0  0  0
 22 23  2  0  0  0
 21 24  1  0  0  0
 24 25  1  0  0  0
 25 26  1  0  0  0
 26 27  1  0  0  0
 27 28  1  0  0  0
 27 29  1  0  0  0
 29 30  1  0  0  0
  9  1  1  0  0  0
 23 18  1  0  0  0
 30 24  1  0  0  0
  8  4  1  0  0  0
 16 10  1  0  0  0
 31 32  1  0  0  0
 14 17  1  0  0  0
M  END
> <minimizedAffinity>
-8.21602

> <CNNscore>
0.3206805587

> <CNNaffinity>
6.8497543335

> <CNN_VS>
2.1965830326

> <CNNaffinity_variance>
0.2110869139

$$$$
[H]O[C@]1([H])C([H])([H])C([H])([H])[C@@]([H])(n2c([H])c(-c3c([H])c([H])c(N4C([H])([H])C([H])([H])N(C([H])([H])[H])C([H])([H])C4([H])[H])c([H])c3[H])c3c([H])nc(N([H])C([H])([H])C([H])([H])C([H])([H])C([H])([H])[H])nc32)C([H])([H])C1([H])[H]


 36 40  0  0  0  0  0  0  0  0999 V2000
    3.4836    1.4538   18.1233 C   0  0  0  0  0  0  0  0  0  0  0  0
    4.1615    1.9361   19.1791 N   0  0  0  0  0  0  0  0  0  0  0  0
    4.5903    3.2057   19.2621 C   0  0  0  0  0  0  0  0  0  0  0  0
    4.3150    4.0495   18.2029 C   0  0  0  0  0  0  0  0  0  0  0  0
    4.6020    5.3823   17.9687 C   0  0  0  0  0  0  0  0  0  0  0  0
    4.0692    5.6705   16.7365 C   0  0  0  0  0  0  0  0  0  0  0  0
    3.4725    4.5915   16.2020 N   0  0  0  0  0  0  0  0  0  0  0  0
    3.6192    3.5764   17.1060 C   0  0  0  0  0  0  0  0  0  0  0  0
    3.2274    2.2901   17.1068 N   0  0  0  0  0  0  0  0  0  0  0  0
    2.7931    4.4643   14.9283 C   0  0  0  0  0  0  0  0  0  0  0  0
    2.2031    5.7918   14.5183 C   0  0  0  0  0  0  0  0  0  0  0  0
    1.6862    5.7295   13.1038 C   0  0  0  0  0  0  0  0  0  0  0  0
    2.8110    5.3333   12.1834 C   0  0  0  0  0  0  0  0  0  0  0  0
    2.4843    5.4414   10.8509 O   0  0  0  0  0  0  0  0  0  0  0  0
    3.1864    3.8974   12.5243 C   0  0  0  0  0  0  0  0  0  0  0  0
    3.7788    3.9305   13.9182 C   0  0  0  0  0  0  0  0  0  0  0  0
    2.7842    4.6146   10.3910 H   0  0  0  0  0  0  0  0  0  0  0  0
    5.3359    6.2867   18.8720 C   0  0  0  0  0  0  0  0  0  0  0  0
    6.6790    6.5459   18.7047 C   0  0  0  0  0  0  0  0  0  0  0  0
    7.3626    7.3907   19.5541 C   0  0  0  0  0  0  0  0  0  0  0  0
    6.7211    8.0232   20.6259 C   0  0  0  0  0  0  0  0  0  0  0  0
    5.3851    7.7568   20.7814 C   0  0  0  0  0  0  0  0  0  0  0  0
    4.6898    6.8998   19.9201 C   0  0  0  0  0  0  0  0  0  0  0  0
    7.4539    8.8833   21.4816 N   0  0  0  0  0  0  0  0  0  0  0  0
    6.7724    9.6221   22.5349 C   0  0  0  0  0  0  0  0  0  0  0  0
    7.6460   10.7744   22.9792 C   0  0  0  0  0  0  0  0  0  0  0  0
    8.9146   10.3136   23.5065 N   0  0  0  0  0  0  0  0  0  0  0  0
    8.8623   10.1325   24.9448 C   0  0  0  0  0  0  0  0  0  0  0  0
    9.4101    9.1538   22.8231 C   0  0  0  0  0  0  0  0  0  0  0  0
    8.8801    9.0929   21.3917 C   0  0  0  0  0  0  0  0  0  0  0  0
    3.0527    0.0847   18.1012 N   0  0  0  0  0  0  0  0  0  0  0  0
    3.2041   -0.4499   17.2439 H   0  0  0  0  0  0  0  0  0  0  0  0
    2.4219   -0.4372   19.2560 C   0  0  0  0  0  0  0  0  0  0  0  0
    3.1567   -0.4271   20.5405 C   0  0  0  0  0  0  0  0  0  0  0  0
    3.5744    0.9784   22.5743 C   0  0  0  0  0  0  0  0  0  0  0  0
    2.5847    0.3533   21.6643 C   0  0  0  0  0  0  0  0  0  0  0  0
 35 36  1  0  0  0
 36 34  1  0  0  0
 34 33  1  0  0  0
 33 31  1  0  0  0
 31  1  1  0  0  0
  1  2  2  0  0  0
  2  3  1  0  0  0
  3  4  2  0  0  0
  4  5  1  0  0  0
  5  6  2  0  0  0
  6  7  1  0  0  0
  7 10  1  0  0  0
 10 11  1  0  0  0
 11 12  1  0  0  0
 12 13  1  0  0  0
 13 14  1  0  0  0
 13 15  1  0  0  0
 15 16  1  0  0  0
  7  8  1  0  0  0
  8  9  2  0  0  0
  5 18  1  0  0  0
 18 19  2  0  0  0
 19 20  1  0  0  0
 20 21  2  0  0  0
 21 22  1  0  0  0
 22 23  2  0  0  0
 21 24  1  0  0  0
 24 25  1  0  0  0
 25 26  1  0  0  0
 26 27  1  0  0  0
 27 28  1  0  0  0
 27 29  1  0  0  0
 29 30  1  0  0  0
  9  1  1  0  0  0
 23 18  1  0  0  0
 30 24  1  0  0  0
  8  4  1  0  0  0
 16 10  1  0  0  0
 31 32  1  0  0  0
 14 17  1  0  0  0
M  END
> <minimizedAffinity>
-7.54391

> <CNNscore>
0.2746559083

> <CNNaffinity>
6.6830720901

> <CNN_VS>
1.8355451822

> <CNNaffinity_variance>
0.1790504754

$$$$
[H]O[C@]1([H])C([H])([H])C([H])([H])[C@@]([H])(n2c([H])c(-c3c([H])c([H])c(N4C([H])([H])C([H])([H])N(C([H])([H])[H])C([H])([H])C4([H])[H])c([H])c3[H])c3c([H])nc(N([H])C([H])([H])C([H])([H])C([H])([H])C([H])([H])[H])nc32)C([H])([H])C1([H])[H]


 36 40  0  0  0  0  0  0  0  0999 V2000
    4.1031    2.3577   17.3164 C   0  0  0  0  0  0  0  0  0  0  0  0
    3.6287    1.5929   16.3180 N   0  0  0  0  0  0  0  0  0  0  0  0
    3.2173    2.0900   15.1405 C   0  0  0  0  0  0  0  0  0  0  0  0
    3.2902    3.4578   14.9576 C   0  0  0  0  0  0  0  0  0  0  0  0
    2.9597    4.2789   13.8946 C   0  0  0  0  0  0  0  0  0  0  0  0
    3.2561    5.5567   14.3006 C   0  0  0  0  0  0  0  0  0  0  0  0
    3.7488    5.5661   15.5508 N   0  0  0  0  0  0  0  0  0  0  0  0
    3.7746    4.2650   15.9699 C   0  0  0  0  0  0  0  0  0  0  0  0
    4.1650    3.6824   17.1173 N   0  0  0  0  0  0  0  0  0  0  0  0
    4.1833    6.6944   16.3496 C   0  0  0  0  0  0  0  0  0  0  0  0
    5.6502    6.5637   16.6805 C   0  0  0  0  0  0  0  0  0  0  0  0
    6.1655    7.8277   17.3197 C   0  0  0  0  0  0  0  0  0  0  0  0
    5.9255    8.9864   16.3875 C   0  0  0  0  0  0  0  0  0  0  0  0
    6.5380   10.1483   16.7985 O   0  0  0  0  0  0  0  0  0  0  0  0
    4.4184    9.1838   16.2944 C   0  0  0  0  0  0  0  0  0  0  0  0
    3.8704    7.9599   15.5897 C   0  0  0  0  0  0  0  0  0  0  0  0
    5.8813   10.8884   16.7203 H   0  0  0  0  0  0  0  0  0  0  0  0
    2.4006    3.8464   12.6012 C   0  0  0  0  0  0  0  0  0  0  0  0
    3.1870    3.2689   11.6280 C   0  0  0  0  0  0  0  0  0  0  0  0
    2.6603    2.8682   10.4178 C   0  0  0  0  0  0  0  0  0  0  0  0
    1.3010    3.0309   10.1241 C   0  0  0  0  0  0  0  0  0  0  0  0
    0.5298    3.6067   11.1006 C   0  0  0  0  0  0  0  0  0  0  0  0
    1.0628    4.0138   12.3293 C   0  0  0  0  0  0  0  0  0  0  0  0
    0.7927    2.6106    8.8695 N   0  0  0  0  0  0  0  0  0  0  0  0
    0.3675    3.5954    7.8850 C   0  0  0  0  0  0  0  0  0  0  0  0
   -0.5346    2.9274    6.8711 C   0  0  0  0  0  0  0  0  0  0  0  0
    0.1470    1.8591    6.1680 N   0  0  0  0  0  0  0  0  0  0  0  0
    0.7542    2.3304    4.9378 C   0  0  0  0  0  0  0  0  0  0  0  0
    1.0727    1.1492    7.0025 C   0  0  0  0  0  0  0  0  0  0  0  0
    0.6594    1.2288    8.4710 C   0  0  0  0  0  0  0  0  0  0  0  0
    4.5280    1.7594   18.5502 N   0  0  0  0  0  0  0  0  0  0  0  0
    4.7301    0.7580   18.5507 H   0  0  0  0  0  0  0  0  0  0  0  0
    4.6179    2.5836   19.6976 C   0  0  0  0  0  0  0  0  0  0  0  0
    4.1087    2.0718   20.9894 C   0  0  0  0  0  0  0  0  0  0  0  0
    3.3418   -0.2900   21.3356 C   0  0  0  0  0  0  0  0  0  0  0  0
    4.4592    0.6837   21.3759 C   0  0  0  0  0  0  0  0  0  0  0  0
 35 36  1  0  0  0
 36 34  1  0  0  0
 34 33  1  0  0  0
 33 31  1  0  0  0
 31  1  1  0  0  0
  1  2  2  0  0  0
  2  3  1  0  0  0
  3  4  2  0  0  0
  4  5  1  0  0  0
  5  6  2  0  0  0
  6  7  1  0  0  0
  7 10  1  0  0  0
 10 11  1  0  0  0
 11 12  1  0  0  0
 12 13  1  0  0  0
 13 14  1  0  0  0
 13 15  1  0  0  0
 15 16  1  0  0  0
  7  8  1  0  0  0
  8  9  2  0  0  0
  5 18  1  0  0  0
 18 19  2  0  0  0
 19 20  1  0  0  0
 20 21  2  0  0  0
 21 22  1  0  0  0
 22 23  2  0  0  0
 21 24  1  0  0  0
 24 25  1  0  0  0
 25 26  1  0  0  0
 26 27  1  0  0  0
 27 28  1  0  0  0
 27 29  1  0  0  0
 29 30  1  0  0  0
  9  1  1  0  0  0
 23 18  1  0  0  0
 30 24  1  0  0  0
  8  4  1  0  0  0
 16 10  1  0  0  0
 31 32  1  0  0  0
 14 17  1  0  0  0
M  END
> <minimizedAffinity>
-6.09310

> <CNNscore>
0.2573064864

> <CNNaffinity>
6.5697021484

> <CNN_VS>
1.6904269457

> <CNNaffinity_variance>
0.3419420719

$$$$
[H]O[C@]1([H])C([H])([H])C([H])([H])[C@@]([H])(n2c([H])c(-c3c([H])c([H])c(N4C([H])([H])C([H])([H])N(C([H])([H])[H])C([H])([H])C4([H])[H])c([H])c3[H])c3c([H])nc(N([H])C([H])([H])C([H])([H])C([H])([H])C([H])([H])[H])nc32)C([H])([H])C1([H])[H]


 36 40  0  0  0  0  0  0  0  0999 V2000
    5.6315    6.0238   18.3804 C   0  0  0  0  0  0  0  0  0  0  0  0
    5.1921    6.2983   17.1401 N   0  0  0  0  0  0  0  0  0  0  0  0
    4.5646    5.3995   16.3648 C   0  0  0  0  0  0  0  0  0  0  0  0
    4.3664    4.1320   16.8785 C   0  0  0  0  0  0  0  0  0  0  0  0
    3.7700    2.9955   16.3626 C   0  0  0  0  0  0  0  0  0  0  0  0
    3.8726    2.0394   17.3426 C   0  0  0  0  0  0  0  0  0  0  0  0
    4.4975    2.5240   18.4292 N   0  0  0  0  0  0  0  0  0  0  0  0
    4.8095    3.8259   18.1517 C   0  0  0  0  0  0  0  0  0  0  0  0
    5.4286    4.7876   18.8589 N   0  0  0  0  0  0  0  0  0  0  0  0
    4.8087    1.8531   19.6754 C   0  0  0  0  0  0  0  0  0  0  0  0
    4.9792    2.8648   20.7825 C   0  0  0  0  0  0  0  0  0  0  0  0
    5.0856    2.1767   22.1194 C   0  0  0  0  0  0  0  0  0  0  0  0
    3.8550    1.3371   22.3426 C   0  0  0  0  0  0  0  0  0  0  0  0
    3.7708    0.8275   23.6182 O   0  0  0  0  0  0  0  0  0  0  0  0
    3.8890    0.2089   21.3203 C   0  0  0  0  0  0  0  0  0  0  0  0
    3.7119    0.8575   19.9628 C   0  0  0  0  0  0  0  0  0  0  0  0
    3.5300   -0.1331   23.5522 H   0  0  0  0  0  0  0  0  0  0  0  0
    3.1595    2.8621   15.0276 C   0  0  0  0  0  0  0  0  0  0  0  0
    2.0356    2.0927   14.8178 C   0  0  0  0  0  0  0  0  0  0  0  0
    1.4692    1.9683   13.5663 C   0  0  0  0  0  0  0  0  0  0  0  0
    2.0120    2.6192   12.4519 C   0  0  0  0  0  0  0  0  0  0  0  0
    3.1300    3.3813   12.6741 C   0  0  0  0  0  0  0  0  0  0  0  0
    3.7060    3.5087   13.9436 C   0  0  0  0  0  0  0  0  0  0  0  0
    1.4066    2.4678   11.1793 N   0  0  0  0  0  0  0  0  0  0  0  0
    1.2517    1.1430   10.5955 C   0  0  0  0  0  0  0  0  0  0  0  0
    1.0264    1.2793    9.1059 C   0  0  0  0  0  0  0  0  0  0  0  0
   -0.1718    2.0394    8.8118 N   0  0  0  0  0  0  0  0  0  0  0  0
   -1.3264    1.1765    8.6491 C   0  0  0  0  0  0  0  0  0  0  0  0
   -0.4024    3.0963    9.7536 C   0  0  0  0  0  0  0  0  0  0  0  0
    0.9082    3.5651   10.3833 C   0  0  0  0  0  0  0  0  0  0  0  0
    6.2936    7.0340   19.1562 N   0  0  0  0  0  0  0  0  0  0  0  0
    7.1404    6.7690   19.6624 H   0  0  0  0  0  0  0  0  0  0  0  0
    5.7229    8.3289   19.1954 C   0  0  0  0  0  0  0  0  0  0  0  0
    4.6165    8.5962   20.1410 C   0  0  0  0  0  0  0  0  0  0  0  0
    6.0853    9.9218   21.6811 C   0  0  0  0  0  0  0  0  0  0  0  0
    4.9647    8.9620   21.5354 C   0  0  0  0  0  0  0  0  0  0  0  0
 35 36  1  0  0  0
 36 34  1  0  0  0
 34 33  1  0  0  0
 33 31  1  0  0  0
 31  1  1  0  0  0
  1  2  2  0  0  0
  2  3  1  0  0  0
  3  4  2  0  0  0
  4  5  1  0  0  0
  5  6  2  0  0  0
  6  7  1  0  0  0
  7 10  1  0  0  0
 10 11  1  0  0  0
 11 12  1  0  0  0
 12 13  1  0  0  0
 13 14  1  0  0  0
 13 15  1  0  0  0
 15 16  1  0  0  0
  7  8  1  0  0  0
  8  9  2  0  0  0
  5 18  1  0  0  0
 18 19  2  0  0  0
 19 20  1  0  0  0
 20 21  2  0  0  0
 21 22  1  0  0  0
 22 23  2  0  0  0
 21 24  1  0  0  0
 24 25  1  0  0  0
 25 26  1  0  0  0
 26 27  1  0  0  0
 27 28  1  0  0  0
 27 29  1  0  0  0
 29 30  1  0  0  0
  9  1  1  0  0  0
 23 18  1  0  0  0
 30 24  1  0  0  0
  8  4  1  0  0  0
 16 10  1  0  0  0
 31 32  1  0  0  0
 14 17  1  0  0  0
M  END
> <minimizedAffinity>
-8.30537

> <CNNscore>
0.1913132668

> <CNNaffinity>
6.4886856079

> <CNN_VS>
1.2413716316

> <CNNaffinity_variance>
0.1227216572

$$$$
[H]C1=C([H])C([H])(F)C([H])([H])C([H])=C1N([H])C(=O)C1(C(=O)N([H])c2c([H])c([H])c(Oc3c([H])c([H])nc4c([H])c(OC([H])([H])C([H])([H])C([H])([H])N5C([H])([H])C([H])([H])C([H])([H])C5([H])[H])c(OC([H])([H])[H])c([H])c34)c(F)c2[H])C([H])([H])C1([H])[H]


 47 52  0  0  0  0  0  0  0  0999 V2000
    3.9938    1.6928   17.2568 C   0  0  0  0  0  0  0  0  0  0  0  0
    4.2635    2.7971   16.4601 C   0  0  0  0  0  0  0  0  0  0  0  0
    3.5066    3.0637   15.3488 C   0  0  0  0  0  0  0  0  0  0  0  0
    2.4297    2.2570   14.9465 C   0  0  0  0  0  0  0  0  0  0  0  0
    2.1658    1.1695   15.7319 C   0  0  0  0  0  0  0  0  0  0  0  0
    2.9447    0.8991   16.8730 C   0  0  0  0  0  0  0  0  0  0  0  0
    2.6015   -0.1926   17.6030 F   0  0  0  0  0  0  0  0  0  0  0  0
    1.7132    2.5988   13.7597 N   0  0  0  0  0  0  0  0  0  0  0  0
    1.2038    3.8419   13.4061 C   0  0  0  0  0  0  0  0  0  0  0  0
    1.3811    4.7973   14.2445 O   0  0  0  0  0  0  0  0  0  0  0  0
    1.5324    1.7389   13.1373 H   0  0  0  0  0  0  0  0  0  0  0  0
    0.4782    4.1679   12.1851 C   0  0  0  0  0  0  0  0  0  0  0  0
    0.9124    3.4269   10.9234 C   0  0  0  0  0  0  0  0  0  0  0  0
    1.3837    4.8141   11.1224 C   0  0  0  0  0  0  0  0  0  0  0  0
   -0.9304    4.6394   12.1933 C   0  0  0  0  0  0  0  0  0  0  0  0
   -1.1238    5.6001   13.0388 O   0  0  0  0  0  0  0  0  0  0  0  0
   -1.9328    4.1355   11.3959 N   0  0  0  0  0  0  0  0  0  0  0  0
   -1.6393    3.4169   10.6646 H   0  0  0  0  0  0  0  0  0  0  0  0
   -3.3265    4.4851   11.3287 C   0  0  0  0  0  0  0  0  0  0  0  0
   -4.2532    3.6708   10.8950 C   0  0  0  0  0  0  0  0  0  0  0  0
   -5.6843    4.0219   10.8234 C   0  0  0  0  0  0  0  0  0  0  0  0
   -6.0640    5.3771   11.2561 C   0  0  0  0  0  0  0  0  0  0  0  0
   -6.6766    6.0244   10.1657 F   0  0  0  0  0  0  0  0  0  0  0  0
   -4.9781    6.2205   11.7244 C   0  0  0  0  0  0  0  0  0  0  0  0
   -3.7412    5.8323   11.7627 C   0  0  0  0  0  0  0  0  0  0  0  0
    4.7391    1.4074   18.3787 O   0  0  0  0  0  0  0  0  0  0  0  0
    5.2842    5.1365   19.9771 C   0  0  0  0  0  0  0  0  0  0  0  0
    5.0919    3.8750   19.4698 C   0  0  0  0  0  0  0  0  0  0  0  0
    4.5876    2.8451   20.2239 C   0  0  0  0  0  0  0  0  0  0  0  0
    4.3989    1.5730   19.6835 C   0  0  0  0  0  0  0  0  0  0  0  0
    3.8858    0.6287   20.5385 C   0  0  0  0  0  0  0  0  0  0  0  0
    3.5771    0.9182   21.8438 C   0  0  0  0  0  0  0  0  0  0  0  0
    3.7748    2.1416   22.3084 N   0  0  0  0  0  0  0  0  0  0  0  0
    4.2787    3.1395   21.5347 C   0  0  0  0  0  0  0  0  0  0  0  0
    4.4606    4.3958   22.0741 C   0  0  0  0  0  0  0  0  0  0  0  0
    4.9670    5.3915   21.2807 C   0  0  0  0  0  0  0  0  0  0  0  0
    5.8276    6.0883   17.7752 C   0  0  0  0  0  0  0  0  0  0  0  0
    5.7987    6.1552   19.1762 O   0  0  0  0  0  0  0  0  0  0  0  0
    5.1347    6.6411   21.8609 O   0  0  0  0  0  0  0  0  0  0  0  0
    6.3661    7.1837   22.2201 C   0  0  0  0  0  0  0  0  0  0  0  0
    6.5078    8.5438   21.5872 C   0  0  0  0  0  0  0  0  0  0  0  0
    5.1879    9.2518   21.4769 C   0  0  0  0  0  0  0  0  0  0  0  0
    4.9541    9.6960   20.1399 N   0  0  0  0  0  0  0  0  0  0  0  0
    3.8246    9.1172   19.4881 C   0  0  0  0  0  0  0  0  0  0  0  0
    3.2100   10.2091   18.6073 C   0  0  0  0  0  0  0  0  0  0  0  0
    4.3528   11.2043   18.5296 C   0  0  0  0  0  0  0  0  0  0  0  0
    4.8991   11.1145   19.9620 C   0  0  0  0  0  0  0  0  0  0  0  0
 37 38  1  0  0  0
 38 27  1  0  0  0
 27 28  2  0  0  0
 28 29  1  0  0  0
 29 30  2  0  0  0
 30 26  1  0  0  0
 26  1  1  0  0  0
  1  2  2  0  0  0
  2  3  1  0  0  0
  3  4  2  0  0  0
  4  8  1  0  0  0
  8  9  1  0  0  0
  9 10  2  0  0  0
  9 12  1  0  0  0
 12 13  1  0  0  0
 13 14  1  0  0  0
 12 15  1  0  0  0
 15 16  2  0  0  0
 15 17  1  0  0  0
 17 19  1  0  0  0
 19 20  2  0  0  0
 20 21  1  0  0  0
 21 22  1  0  0  0
 22 23  1  0  0  0
 22 24  1  0  0  0
 24 25  2  0  0  0
  4  5  1  0  0  0
  5  6  2  0  0  0
  6  7  1  0  0  0
 30 31  1  0  0  0
 31 32  2  0  0  0
 32 33  1  0  0  0
 33 34  2  0  0  0
 34 35  1  0  0  0
 35 36  2  0  0  0
 36 39  1  0  0  0
 39 40  1  0  0  0
 40 41  1  0  0  0
 41 42  1  0  0  0
 42 43  1  0  0  0
 43 44  1  0  0  0
 44 45  1  0  0  0
 45 46  1  0  0  0
 46 47  1  0  0  0
 36 27  1  0  0  0
 47 43  1  0  0  0
 34 29  1  0  0  0
  6  1  1  0  0  0
 14 12  1  0  0  0
 25 19  1  0  0  0
  8 11  1  0  0  0
 17 18  1  0  0  0
M  END
> <minimizedAffinity>
-10.26388

> <CNNscore>
0.3402096331

> <CNNaffinity>
6.9383573532

> <CNN_VS>
2.3604960442

> <CNNaffinity_variance>
0.4126403928

$$$$
[H]C1=C([H])C([H])(F)C([H])([H])C([H])=C1N([H])C(=O)C1(C(=O)N([H])c2c([H])c([H])c(Oc3c([H])c([H])nc4c([H])c(OC([H])([H])C([H])([H])C([H])([H])N5C([H])([H])C([H])([H])C([H])([H])C5([H])[H])c(OC([H])([H])[H])c([H])c34)c(F)c2[H])C([H])([H])C1([H])[H]


 47 52  0  0  0  0  0  0  0  0999 V2000
    3.9906    1.7935   17.1779 C   0  0  0  0  0  0  0  0  0  0  0  0
    4.2982    2.9446   16.4657 C   0  0  0  0  0  0  0  0  0  0  0  0
    3.5815    3.2939   15.3507 C   0  0  0  0  0  0  0  0  0  0  0  0
    2.5098    2.5296   14.8611 C   0  0  0  0  0  0  0  0  0  0  0  0
    2.2085    1.3959   15.5633 C   0  0  0  0  0  0  0  0  0  0  0  0
    2.9464    1.0405   16.7084 C   0  0  0  0  0  0  0  0  0  0  0  0
    2.5676   -0.0926   17.3527 F   0  0  0  0  0  0  0  0  0  0  0  0
    1.8367    2.9583   13.6771 N   0  0  0  0  0  0  0  0  0  0  0  0
    1.2483    4.1938   13.4375 C   0  0  0  0  0  0  0  0  0  0  0  0
    1.2987    5.0510   14.3912 O   0  0  0  0  0  0  0  0  0  0  0  0
    1.7627    2.1692   12.9483 H   0  0  0  0  0  0  0  0  0  0  0  0
    0.5693    4.6104   12.2173 C   0  0  0  0  0  0  0  0  0  0  0  0
    1.1569    4.0927   10.9072 C   0  0  0  0  0  0  0  0  0  0  0  0
    1.4653    5.4792   11.3178 C   0  0  0  0  0  0  0  0  0  0  0  0
   -0.8791    4.9379   12.1796 C   0  0  0  0  0  0  0  0  0  0  0  0
   -1.1926    5.8825   13.0071 O   0  0  0  0  0  0  0  0  0  0  0  0
   -1.8020    4.3279   11.3607 N   0  0  0  0  0  0  0  0  0  0  0  0
   -1.4166    3.6353   10.6472 H   0  0  0  0  0  0  0  0  0  0  0  0
   -3.2212    4.5349   11.2498 C   0  0  0  0  0  0  0  0  0  0  0  0
   -3.8259    5.6168   11.6667 C   0  0  0  0  0  0  0  0  0  0  0  0
   -5.2806    5.8365   11.5562 C   0  0  0  0  0  0  0  0  0  0  0  0
   -6.0774    4.7554   10.9527 C   0  0  0  0  0  0  0  0  0  0  0  0
   -7.0260    4.3333   11.9041 F   0  0  0  0  0  0  0  0  0  0  0  0
   -5.3328    3.5877   10.5149 C   0  0  0  0  0  0  0  0  0  0  0  0
   -4.0470    3.4747   10.6422 C   0  0  0  0  0  0  0  0  0  0  0  0
    4.6953    1.4249   18.3017 O   0  0  0  0  0  0  0  0  0  0  0  0
    5.4330    5.0032   20.1482 C   0  0  0  0  0  0  0  0  0  0  0  0
    5.1745    3.7912   19.5567 C   0  0  0  0  0  0  0  0  0  0  0  0
    4.5793    2.7535   20.2294 C   0  0  0  0  0  0  0  0  0  0  0  0
    4.3247    1.5327   19.6043 C   0  0  0  0  0  0  0  0  0  0  0  0
    3.7231    0.5747   20.3829 C   0  0  0  0  0  0  0  0  0  0  0  0
    3.3921    0.8037   21.6947 C   0  0  0  0  0  0  0  0  0  0  0  0
    3.6549    1.9801   22.2414 N   0  0  0  0  0  0  0  0  0  0  0  0
    4.2482    2.9871   21.5471 C   0  0  0  0  0  0  0  0  0  0  0  0
    4.4950    4.1926   22.1700 C   0  0  0  0  0  0  0  0  0  0  0  0
    5.0913    5.1986   21.4560 C   0  0  0  0  0  0  0  0  0  0  0  0
    6.2605    5.9720   18.0444 C   0  0  0  0  0  0  0  0  0  0  0  0
    6.0392    6.0320   19.4284 O   0  0  0  0  0  0  0  0  0  0  0  0
    5.3221    6.3960   22.1188 O   0  0  0  0  0  0  0  0  0  0  0  0
    6.5422    6.7616   22.6823 C   0  0  0  0  0  0  0  0  0  0  0  0
    6.8173    8.2085   22.3637 C   0  0  0  0  0  0  0  0  0  0  0  0
    8.2713    8.4539   22.0790 C   0  0  0  0  0  0  0  0  0  0  0  0
    8.9506    7.2318   21.7882 N   0  0  0  0  0  0  0  0  0  0  0  0
    9.3244    7.0455   20.4240 C   0  0  0  0  0  0  0  0  0  0  0  0
   10.6707    6.3152   20.4262 C   0  0  0  0  0  0  0  0  0  0  0  0
   10.7099    5.7718   21.8424 C   0  0  0  0  0  0  0  0  0  0  0  0
   10.0868    6.9471   22.6098 C   0  0  0  0  0  0  0  0  0  0  0  0
 37 38  1  0  0  0
 38 27  1  0  0  0
 27 28  2  0  0  0
 28 29  1  0  0  0
 29 30  2  0  0  0
 30 26  1  0  0  0
 26  1  1  0  0  0
  1  2  2  0  0  0
  2  3  1  0  0  0
  3  4  2  0  0  0
  4  8  1  0  0  0
  8  9  1  0  0  0
  9 10  2  0  0  0
  9 12  1  0  0  0
 12 13  1  0  0  0
 13 14  1  0  0  0
 12 15  1  0  0  0
 15 16  2  0  0  0
 15 17  1  0  0  0
 17 19  1  0  0  0
 19 20  2  0  0  0
 20 21  1  0  0  0
 21 22  1  0  0  0
 22 23  1  0  0  0
 22 24  1  0  0  0
 24 25  2  0  0  0
  4  5  1  0  0  0
  5  6  2  0  0  0
  6  7  1  0  0  0
 30 31  1  0  0  0
 31 32  2  0  0  0
 32 33  1  0  0  0
 33 34  2  0  0  0
 34 35  1  0  0  0
 35 36  2  0  0  0
 36 39  1  0  0  0
 39 40  1  0  0  0
 40 41  1  0  0  0
 41 42  1  0  0  0
 42 43  1  0  0  0
 43 44  1  0  0  0
 44 45  1  0  0  0
 45 46  1  0  0  0
 46 47  1  0  0  0
 36 27  1  0  0  0
 47 43  1  0  0  0
 34 29  1  0  0  0
  6  1  1  0  0  0
 14 12  1  0  0  0
 25 19  1  0  0  0
  8 11  1  0  0  0
 17 18  1  0  0  0
M  END
> <minimizedAffinity>
-9.72210

> <CNNscore>
0.3145794272

> <CNNaffinity>
6.9537253380

> <CNN_VS>
2.1874990463

> <CNNaffinity_variance>
0.4128158987

$$$$
[H]C1=C([H])C([H])(F)C([H])([H])C([H])=C1N([H])C(=O)C1(C(=O)N([H])c2c([H])c([H])c(Oc3c([H])c([H])nc4c([H])c(OC([H])([H])C([H])([H])C([H])([H])N5C([H])([H])C([H])([H])C([H])([H])C5([H])[H])c(OC([H])([H])[H])c([H])c34)c(F)c2[H])C([H])([H])C1([H])[H]


 47 52  0  0  0  0  0  0  0  0999 V2000
    4.0538    1.8675   17.6195 C   0  0  0  0  0  0  0  0  0  0  0  0
    4.5663    2.9518   16.9206 C   0  0  0  0  0  0  0  0  0  0  0  0
    3.9680    3.3916   15.7684 C   0  0  0  0  0  0  0  0  0  0  0  0
    2.8208    2.7902   15.2256 C   0  0  0  0  0  0  0  0  0  0  0  0
    2.3178    1.7220   15.9148 C   0  0  0  0  0  0  0  0  0  0  0  0
    2.9343    1.2733   17.0983 C   0  0  0  0  0  0  0  0  0  0  0  0
    2.3579    0.2166   17.7255 F   0  0  0  0  0  0  0  0  0  0  0  0
    2.2811    3.3013   14.0066 N   0  0  0  0  0  0  0  0  0  0  0  0
    1.7106    4.5494   13.7903 C   0  0  0  0  0  0  0  0  0  0  0  0
    1.6440    5.3360   14.8021 O   0  0  0  0  0  0  0  0  0  0  0  0
    2.2982    2.5664   13.2198 H   0  0  0  0  0  0  0  0  0  0  0  0
    1.1693    5.0510   12.5337 C   0  0  0  0  0  0  0  0  0  0  0  0
   -0.2237    5.6713   12.5984 C   0  0  0  0  0  0  0  0  0  0  0  0
   -0.0921    4.2874   12.0949 C   0  0  0  0  0  0  0  0  0  0  0  0
    2.0334    5.5408   11.4292 C   0  0  0  0  0  0  0  0  0  0  0  0
    2.3721    4.5958   10.6121 O   0  0  0  0  0  0  0  0  0  0  0  0
    2.4349    6.8471   11.2653 N   0  0  0  0  0  0  0  0  0  0  0  0
    2.0141    7.5593   11.9384 H   0  0  0  0  0  0  0  0  0  0  0  0
    3.2825    7.4365   10.2637 C   0  0  0  0  0  0  0  0  0  0  0  0
    2.8275    7.9861    9.1678 C   0  0  0  0  0  0  0  0  0  0  0  0
    3.6903    8.5926    8.1362 C   0  0  0  0  0  0  0  0  0  0  0  0
    5.1436    8.5509    8.3691 C   0  0  0  0  0  0  0  0  0  0  0  0
    5.7334    7.8460    7.3020 F   0  0  0  0  0  0  0  0  0  0  0  0
    5.5692    7.9245    9.6085 C   0  0  0  0  0  0  0  0  0  0  0  0
    4.7427    7.4186   10.4706 C   0  0  0  0  0  0  0  0  0  0  0  0
    4.6367    1.4104   18.7800 O   0  0  0  0  0  0  0  0  0  0  0  0
    5.7057    5.0360   20.3517 C   0  0  0  0  0  0  0  0  0  0  0  0
    5.3348    3.8116   19.8530 C   0  0  0  0  0  0  0  0  0  0  0  0
    4.6360    2.8930   20.5956 C   0  0  0  0  0  0  0  0  0  0  0  0
    4.2683    1.6567   20.0642 C   0  0  0  0  0  0  0  0  0  0  0  0
    3.5700    0.8263   20.9061 C   0  0  0  0  0  0  0  0  0  0  0  0
    3.2527    1.1898   22.1906 C   0  0  0  0  0  0  0  0  0  0  0  0
    3.6248    2.3750   22.6474 N   0  0  0  0  0  0  0  0  0  0  0  0
    4.3190    3.2615   21.8856 C   0  0  0  0  0  0  0  0  0  0  0  0
    4.6774    4.4832   22.4159 C   0  0  0  0  0  0  0  0  0  0  0  0
    5.3745    5.3669   21.6346 C   0  0  0  0  0  0  0  0  0  0  0  0
    6.2945    5.9992   18.1665 C   0  0  0  0  0  0  0  0  0  0  0  0
    6.4151    5.9409   19.5629 O   0  0  0  0  0  0  0  0  0  0  0  0
    5.7159    6.5852   22.2051 O   0  0  0  0  0  0  0  0  0  0  0  0
    6.9442    6.8586   22.8020 C   0  0  0  0  0  0  0  0  0  0  0  0
    7.0602    8.3434   23.0312 C   0  0  0  0  0  0  0  0  0  0  0  0
    8.4755    8.8247   22.8874 C   0  0  0  0  0  0  0  0  0  0  0  0
    8.9160    9.4851   24.0746 N   0  0  0  0  0  0  0  0  0  0  0  0
    9.4969   10.7739   23.8820 C   0  0  0  0  0  0  0  0  0  0  0  0
    9.0813   11.6339   25.0793 C   0  0  0  0  0  0  0  0  0  0  0  0
    8.6420   10.5705   26.0687 C   0  0  0  0  0  0  0  0  0  0  0  0
    7.9475    9.5794   25.1234 C   0  0  0  0  0  0  0  0  0  0  0  0
 37 38  1  0  0  0
 38 27  1  0  0  0
 27 28  2  0  0  0
 28 29  1  0  0  0
 29 30  2  0  0  0
 30 26  1  0  0  0
 26  1  1  0  0  0
  1  2  2  0  0  0
  2  3  1  0  0  0
  3  4  2  0  0  0
  4  8  1  0  0  0
  8  9  1  0  0  0
  9 10  2  0  0  0
  9 12  1  0  0  0
 12 13  1  0  0  0
 13 14  1  0  0  0
 12 15  1  0  0  0
 15 16  2  0  0  0
 15 17  1  0  0  0
 17 19  1  0  0  0
 19 20  2  0  0  0
 20 21  1  0  0  0
 21 22  1  0  0  0
 22 23  1  0  0  0
 22 24  1  0  0  0
 24 25  2  0  0  0
  4  5  1  0  0  0
  5  6  2  0  0  0
  6  7  1  0  0  0
 30 31  1  0  0  0
 31 32  2  0  0  0
 32 33  1  0  0  0
 33 34  2  0  0  0
 34 35  1  0  0  0
 35 36  2  0  0  0
 36 39  1  0  0  0
 39 40  1  0  0  0
 40 41  1  0  0  0
 41 42  1  0  0  0
 42 43  1  0  0  0
 43 44  1  0  0  0
 44 45  1  0  0  0
 45 46  1  0  0  0
 46 47  1  0  0  0
 36 27  1  0  0  0
 47 43  1  0  0  0
 34 29  1  0  0  0
  6  1  1  0  0  0
 14 12  1  0  0  0
 25 19  1  0  0  0
  8 11  1  0  0  0
 17 18  1  0  0  0
M  END
> <minimizedAffinity>
-8.45585

> <CNNscore>
0.2189544886

> <CNNaffinity>
6.7735433578

> <CNN_VS>
1.4830976725

> <CNNaffinity_variance>
0.1653833240

$$$$
[H]C1=C([H])C([H])(F)C([H])([H])C([H])=C1N([H])C(=O)C1(C(=O)N([H])c2c([H])c([H])c(Oc3c([H])c([H])nc4c([H])c(OC([H])([H])C([H])([H])C([H])([H])N5C([H])([H])C([H])([H])C([H])([H])C5([H])[H])c(OC([H])([H])[H])c([H])c34)c(F)c2[H])C([H])([H])C1([H])[H]


 47 52  0  0  0  0  0  0  0  0999 V2000
    4.1688    1.6076   17.7290 C   0  0  0  0  0  0  0  0  0  0  0  0
    4.4218    2.7587   16.9957 C   0  0  0  0  0  0  0  0  0  0  0  0
    3.7972    2.9790   15.7956 C   0  0  0  0  0  0  0  0  0  0  0  0
    2.8783    2.0766   15.2357 C   0  0  0  0  0  0  0  0  0  0  0  0
    2.6307    0.9430   15.9589 C   0  0  0  0  0  0  0  0  0  0  0  0
    3.2735    0.7203   17.1915 C   0  0  0  0  0  0  0  0  0  0  0  0
    2.9557   -0.4239   17.8489 F   0  0  0  0  0  0  0  0  0  0  0  0
    2.2955    2.3782   13.9676 N   0  0  0  0  0  0  0  0  0  0  0  0
    2.8371    3.1521   12.9489 C   0  0  0  0  0  0  0  0  0  0  0  0
    3.9894    3.6719   13.1703 O   0  0  0  0  0  0  0  0  0  0  0  0
    1.3005    1.9769   13.8765 H   0  0  0  0  0  0  0  0  0  0  0  0
    2.2240    3.4429   11.6594 C   0  0  0  0  0  0  0  0  0  0  0  0
    1.2502    4.6177   11.6244 C   0  0  0  0  0  0  0  0  0  0  0  0
    0.6982    3.2473   11.6807 C   0  0  0  0  0  0  0  0  0  0  0  0
    2.8882    3.1282   10.3685 C   0  0  0  0  0  0  0  0  0  0  0  0
    2.5438    3.9446    9.4250 O   0  0  0  0  0  0  0  0  0  0  0  0
    3.7793    2.0975   10.1737 N   0  0  0  0  0  0  0  0  0  0  0  0
    4.0684    1.5515   11.0429 H   0  0  0  0  0  0  0  0  0  0  0  0
    4.4629    1.6779    8.9796 C   0  0  0  0  0  0  0  0  0  0  0  0
    5.6111    2.1722    8.5956 C   0  0  0  0  0  0  0  0  0  0  0  0
    6.3183    1.7469    7.3727 C   0  0  0  0  0  0  0  0  0  0  0  0
    5.6670    0.7171    6.5461 C   0  0  0  0  0  0  0  0  0  0  0  0
    5.4515    1.2618    5.2654 F   0  0  0  0  0  0  0  0  0  0  0  0
    4.3953    0.2186    7.0400 C   0  0  0  0  0  0  0  0  0  0  0  0
    3.8414    0.6418    8.1337 C   0  0  0  0  0  0  0  0  0  0  0  0
    4.7826    1.3670   18.9377 O   0  0  0  0  0  0  0  0  0  0  0  0
    5.7164    5.1014   20.3306 C   0  0  0  0  0  0  0  0  0  0  0  0
    5.3895    3.8420   19.8917 C   0  0  0  0  0  0  0  0  0  0  0  0
    4.6687    2.9582   20.6552 C   0  0  0  0  0  0  0  0  0  0  0  0
    4.3469    1.6851   20.1846 C   0  0  0  0  0  0  0  0  0  0  0  0
    3.6203    0.8953   21.0415 C   0  0  0  0  0  0  0  0  0  0  0  0
    3.2338    1.3312   22.2838 C   0  0  0  0  0  0  0  0  0  0  0  0
    3.5645    2.5489   22.6835 N   0  0  0  0  0  0  0  0  0  0  0  0
    4.2822    3.3995   21.9027 C   0  0  0  0  0  0  0  0  0  0  0  0
    4.5950    4.6579   22.3727 C   0  0  0  0  0  0  0  0  0  0  0  0
    5.3167    5.5044   21.5727 C   0  0  0  0  0  0  0  0  0  0  0  0
    5.9895    6.4354   18.2824 C   0  0  0  0  0  0  0  0  0  0  0  0
    6.4503    5.9689   19.5225 O   0  0  0  0  0  0  0  0  0  0  0  0
    5.6105    6.7616   22.0821 O   0  0  0  0  0  0  0  0  0  0  0  0
    5.0499    7.9495   21.6191 C   0  0  0  0  0  0  0  0  0  0  0  0
    6.1216    9.0068   21.5545 C   0  0  0  0  0  0  0  0  0  0  0  0
    6.2910    9.7154   22.8678 C   0  0  0  0  0  0  0  0  0  0  0  0
    7.5505    9.3998   23.4624 N   0  0  0  0  0  0  0  0  0  0  0  0
    7.4984    8.5153   24.5807 C   0  0  0  0  0  0  0  0  0  0  0  0
    8.7453    7.6290   24.5068 C   0  0  0  0  0  0  0  0  0  0  0  0
    9.6166    8.4236   23.5518 C   0  0  0  0  0  0  0  0  0  0  0  0
    8.5570    8.9284   22.5614 C   0  0  0  0  0  0  0  0  0  0  0  0
 37 38  1  0  0  0
 38 27  1  0  0  0
 27 28  2  0  0  0
 28 29  1  0  0  0
 29 30  2  0  0  0
 30 26  1  0  0  0
 26  1  1  0  0  0
  1  2  2  0  0  0
  2  3  1  0  0  0
  3  4  2  0  0  0
  4  8  1  0  0  0
  8  9  1  0  0  0
  9 10  2  0  0  0
  9 12  1  0  0  0
 12 13  1  0  0  0
 13 14  1  0  0  0
 12 15  1  0  0  0
 15 16  2  0  0  0
 15 17  1  0  0  0
 17 19  1  0  0  0
 19 20  2  0  0  0
 20 21  1  0  0  0
 21 22  1  0  0  0
 22 23  1  0  0  0
 22 24  1  0  0  0
 24 25  2  0  0  0
  4  5  1  0  0  0
  5  6  2  0  0  0
  6  7  1  0  0  0
 30 31  1  0  0  0
 31 32  2  0  0  0
 32 33  1  0  0  0
 33 34  2  0  0  0
 34 35  1  0  0  0
 35 36  2  0  0  0
 36 39  1  0  0  0
 39 40  1  0  0  0
 40 41  1  0  0  0
 41 42  1  0  0  0
 42 43  1  0  0  0
 43 44  1  0  0  0
 44 45  1  0  0  0
 45 46  1  0  0  0
 46 47  1  0  0  0
 36 27  1  0  0  0
 47 43  1  0  0  0
 34 29  1  0  0  0
  6  1  1  0  0  0
 14 12  1  0  0  0
 25 19  1  0  0  0
  8 11  1  0  0  0
 17 18  1  0  0  0
M  END
> <minimizedAffinity>
-8.40266

> <CNNscore>
0.2150598168

> <CNNaffinity>
6.7866196632

> <CNN_VS>
1.4595291615

> <CNNaffinity_variance>
0.2617151737

$$$$
[H]C1=C([H])C([H])(F)C([H])([H])C([H])=C1N([H])C(=O)C1(C(=O)N([H])c2c([H])c([H])c(Oc3c([H])c([H])nc4c([H])c(OC([H])([H])C([H])([H])C([H])([H])N5C([H])([H])C([H])([H])C([H])([H])C5([H])[H])c(OC([H])([H])[H])c([H])c34)c(F)c2[H])C([H])([H])C1([H])[H]


 47 52  0  0  0  0  0  0  0  0999 V2000
    3.1251    3.6679   13.1984 C   0  0  0  0  0  0  0  0  0  0  0  0
    4.0578    4.6802   13.0192 C   0  0  0  0  0  0  0  0  0  0  0  0
    4.6520    4.8807   11.8003 C   0  0  0  0  0  0  0  0  0  0  0  0
    4.3660    4.0942   10.6725 C   0  0  0  0  0  0  0  0  0  0  0  0
    3.4477    3.0972   10.8508 C   0  0  0  0  0  0  0  0  0  0  0  0
    2.8388    2.8945   12.1039 C   0  0  0  0  0  0  0  0  0  0  0  0
    1.9271    1.8923   12.1859 F   0  0  0  0  0  0  0  0  0  0  0  0
    5.0531    4.3606    9.4495 N   0  0  0  0  0  0  0  0  0  0  0  0
    6.1610    3.6964    8.9382 C   0  0  0  0  0  0  0  0  0  0  0  0
    6.6377    2.7393    9.6481 O   0  0  0  0  0  0  0  0  0  0  0  0
    4.6515    5.2209    8.9416 H   0  0  0  0  0  0  0  0  0  0  0  0
    6.8436    3.9842    7.6834 C   0  0  0  0  0  0  0  0  0  0  0  0
    6.7718    2.9000    6.6115 C   0  0  0  0  0  0  0  0  0  0  0  0
    8.0073    3.0142    7.4156 C   0  0  0  0  0  0  0  0  0  0  0  0
    7.0384    5.3673    7.1776 C   0  0  0  0  0  0  0  0  0  0  0  0
    7.0569    6.2428    8.1308 O   0  0  0  0  0  0  0  0  0  0  0  0
    7.1936    5.7051    5.8523 N   0  0  0  0  0  0  0  0  0  0  0  0
    7.2644    4.8948    5.1628 H   0  0  0  0  0  0  0  0  0  0  0  0
    7.3619    6.9956    5.2395 C   0  0  0  0  0  0  0  0  0  0  0  0
    8.5154    7.6050    5.1490 C   0  0  0  0  0  0  0  0  0  0  0  0
    8.6959    8.9280    4.5218 C   0  0  0  0  0  0  0  0  0  0  0  0
    7.4918    9.5866    3.9885 C   0  0  0  0  0  0  0  0  0  0  0  0
    7.3393   10.8172    4.6560 F   0  0  0  0  0  0  0  0  0  0  0  0
    6.2502    8.8456    4.1270 C   0  0  0  0  0  0  0  0  0  0  0  0
    6.1767    7.6785    4.6878 C   0  0  0  0  0  0  0  0  0  0  0  0
    2.5140    3.4502   14.4128 O   0  0  0  0  0  0  0  0  0  0  0  0
    4.4557    4.9216   17.7026 C   0  0  0  0  0  0  0  0  0  0  0  0
    3.8073    4.3983   16.6111 C   0  0  0  0  0  0  0  0  0  0  0  0
    3.5125    3.0627   16.4978 C   0  0  0  0  0  0  0  0  0  0  0  0
    2.8500    2.5566   15.3794 C   0  0  0  0  0  0  0  0  0  0  0  0
    2.6107    1.2043   15.3855 C   0  0  0  0  0  0  0  0  0  0  0  0
    2.9987    0.4001   16.4274 C   0  0  0  0  0  0  0  0  0  0  0  0
    3.6246    0.9297   17.4665 N   0  0  0  0  0  0  0  0  0  0  0  0
    3.9038    2.2578   17.5464 C   0  0  0  0  0  0  0  0  0  0  0  0
    4.5568    2.7524   18.6559 C   0  0  0  0  0  0  0  0  0  0  0  0
    4.8287    4.0937   18.7226 C   0  0  0  0  0  0  0  0  0  0  0  0
    3.9013    7.2041   18.4322 C   0  0  0  0  0  0  0  0  0  0  0  0
    4.7357    6.2854   17.7782 O   0  0  0  0  0  0  0  0  0  0  0  0
    5.4867    4.5518   19.8555 O   0  0  0  0  0  0  0  0  0  0  0  0
    5.0063    4.4129   21.1554 C   0  0  0  0  0  0  0  0  0  0  0  0
    6.1107    3.8851   22.0343 C   0  0  0  0  0  0  0  0  0  0  0  0
    5.7433    2.5760   22.6721 C   0  0  0  0  0  0  0  0  0  0  0  0
    4.7663    1.8827   21.8946 N   0  0  0  0  0  0  0  0  0  0  0  0
    5.2357    0.7224   21.2098 C   0  0  0  0  0  0  0  0  0  0  0  0
    4.0952   -0.2997   21.2309 C   0  0  0  0  0  0  0  0  0  0  0  0
    2.9108    0.5858   21.5708 C   0  0  0  0  0  0  0  0  0  0  0  0
    3.5588    1.5426   22.5823 C   0  0  0  0  0  0  0  0  0  0  0  0
 37 38  1  0  0  0
 38 27  1  0  0  0
 27 28  2  0  0  0
 28 29  1  0  0  0
 29 30  2  0  0  0
 30 26  1  0  0  0
 26  1  1  0  0  0
  1  2  2  0  0  0
  2  3  1  0  0  0
  3  4  2  0  0  0
  4  8  1  0  0  0
  8  9  1  0  0  0
  9 10  2  0  0  0
  9 12  1  0  0  0
 12 13  1  0  0  0
 13 14  1  0  0  0
 12 15  1  0  0  0
 15 16  2  0  0  0
 15 17  1  0  0  0
 17 19  1  0  0  0
 19 20  2  0  0  0
 20 21  1  0  0  0
 21 22  1  0  0  0
 22 23  1  0  0  0
 22 24  1  0  0  0
 24 25  2  0  0  0
  4  5  1  0  0  0
  5  6  2  0  0  0
  6  7  1  0  0  0
 30 31  1  0  0  0
 31 32  2  0  0  0
 32 33  1  0  0  0
 33 34  2  0  0  0
 34 35  1  0  0  0
 35 36  2  0  0  0
 36 39  1  0  0  0
 39 40  1  0  0  0
 40 41  1  0  0  0
 41 42  1  0  0  0
 42 43  1  0  0  0
 43 44  1  0  0  0
 44 45  1  0  0  0
 45 46  1  0  0  0
 46 47  1  0  0  0
 36 27  1  0  0  0
 47 43  1  0  0  0
 34 29  1  0  0  0
  6  1  1  0  0  0
 14 12  1  0  0  0
 25 19  1  0  0  0
  8 11  1  0  0  0
 17 18  1  0  0  0
M  END
> <minimizedAffinity>
-8.33212

> <CNNscore>
0.2049529850

> <CNNaffinity>
6.6422262192

> <CNN_VS>
1.3613440990

> <CNNaffinity_variance>
0.1962747872

$$$$
[H]C1=C([H])C([H])(F)C([H])([H])C([H])=C1N([H])C(=O)C1(C(=O)N([H])c2c([H])c([H])c(Oc3c([H])c([H])nc4c([H])c(OC([H])([H])C([H])([H])C([H])([H])N5C([H])([H])C([H])([H])C([H])([H])C5([H])[H])c(OC([H])([H])[H])c([H])c34)c(F)c2[H])C([H])([H])C1([H])[H]


 47 52  0  0  0  0  0  0  0  0999 V2000
    4.1844    1.6656   17.6927 C   0  0  0  0  0  0  0  0  0  0  0  0
    4.6790    2.7501   16.9811 C   0  0  0  0  0  0  0  0  0  0  0  0
    4.1143    3.1258   15.7900 C   0  0  0  0  0  0  0  0  0  0  0  0
    3.0206    2.4556   15.2180 C   0  0  0  0  0  0  0  0  0  0  0  0
    2.5351    1.3874   15.9198 C   0  0  0  0  0  0  0  0  0  0  0  0
    3.1171    1.0047   17.1432 C   0  0  0  0  0  0  0  0  0  0  0  0
    2.5605   -0.0573   17.7794 F   0  0  0  0  0  0  0  0  0  0  0  0
    2.5141    2.9031   13.9603 N   0  0  0  0  0  0  0  0  0  0  0  0
    1.9297    4.1296   13.6704 C   0  0  0  0  0  0  0  0  0  0  0  0
    1.8149    4.9580   14.6439 O   0  0  0  0  0  0  0  0  0  0  0  0
    2.5709    2.1353   13.2076 H   0  0  0  0  0  0  0  0  0  0  0  0
    1.4231    4.5660   12.3756 C   0  0  0  0  0  0  0  0  0  0  0  0
    2.2364    5.6409   11.6597 C   0  0  0  0  0  0  0  0  0  0  0  0
    1.0105    6.0481   12.3791 C   0  0  0  0  0  0  0  0  0  0  0  0
    0.6184    3.6832   11.4926 C   0  0  0  0  0  0  0  0  0  0  0  0
   -0.6545    3.8632   11.6434 O   0  0  0  0  0  0  0  0  0  0  0  0
    1.1421    2.7755   10.6002 N   0  0  0  0  0  0  0  0  0  0  0  0
    2.2022    2.7831   10.4851 H   0  0  0  0  0  0  0  0  0  0  0  0
    0.4763    1.8550    9.7178 C   0  0  0  0  0  0  0  0  0  0  0  0
   -0.0202    2.2002    8.5583 C   0  0  0  0  0  0  0  0  0  0  0  0
   -0.7039    1.2621    7.6479 C   0  0  0  0  0  0  0  0  0  0  0  0
   -0.8360   -0.1332    8.0992 C   0  0  0  0  0  0  0  0  0  0  0  0
   -2.2086   -0.4436    8.1517 F   0  0  0  0  0  0  0  0  0  0  0  0
   -0.2587   -0.4369    9.3971 C   0  0  0  0  0  0  0  0  0  0  0  0
    0.3349    0.4479   10.1365 C   0  0  0  0  0  0  0  0  0  0  0  0
    4.7342    1.2723   18.8920 O   0  0  0  0  0  0  0  0  0  0  0  0
    5.6457    4.9809   20.3662 C   0  0  0  0  0  0  0  0  0  0  0  0
    5.3266    3.7294   19.9001 C   0  0  0  0  0  0  0  0  0  0  0  0
    4.6217    2.8203   20.6486 C   0  0  0  0  0  0  0  0  0  0  0  0
    4.3075    1.5558   20.1503 C   0  0  0  0  0  0  0  0  0  0  0  0
    3.5968    0.7385   20.9946 C   0  0  0  0  0  0  0  0  0  0  0  0
    3.2183    1.1405   22.2508 C   0  0  0  0  0  0  0  0  0  0  0  0
    3.5412    2.3513   22.6767 N   0  0  0  0  0  0  0  0  0  0  0  0
    4.2431    3.2275   21.9101 C   0  0  0  0  0  0  0  0  0  0  0  0
    4.5484    4.4772   22.4075 C   0  0  0  0  0  0  0  0  0  0  0  0
    5.2542    5.3498   21.6215 C   0  0  0  0  0  0  0  0  0  0  0  0
    6.2677    5.9048   18.1733 C   0  0  0  0  0  0  0  0  0  0  0  0
    6.3634    5.8749   19.5726 O   0  0  0  0  0  0  0  0  0  0  0  0
    5.5410    6.5972   22.1584 O   0  0  0  0  0  0  0  0  0  0  0  0
    6.7598    6.9445   22.7361 C   0  0  0  0  0  0  0  0  0  0  0  0
    6.7914    8.4343   22.9596 C   0  0  0  0  0  0  0  0  0  0  0  0
    8.1460    9.0162   22.6731 C   0  0  0  0  0  0  0  0  0  0  0  0
    8.7194    9.5855   23.8507 N   0  0  0  0  0  0  0  0  0  0  0  0
    9.1714   10.9329   23.7251 C   0  0  0  0  0  0  0  0  0  0  0  0
    8.8890   11.6245   25.0622 C   0  0  0  0  0  0  0  0  0  0  0  0
    8.6853   10.4300   25.9756 C   0  0  0  0  0  0  0  0  0  0  0  0
    7.9225    9.4859   25.0347 C   0  0  0  0  0  0  0  0  0  0  0  0
 37 38  1  0  0  0
 38 27  1  0  0  0
 27 28  2  0  0  0
 28 29  1  0  0  0
 29 30  2  0  0  0
 30 26  1  0  0  0
 26  1  1  0  0  0
  1  2  2  0  0  0
  2  3  1  0  0  0
  3  4  2  0  0  0
  4  8  1  0  0  0
  8  9  1  0  0  0
  9 10  2  0  0  0
  9 12  1  0  0  0
 12 13  1  0  0  0
 13 14  1  0  0  0
 12 15  1  0  0  0
 15 16  2  0  0  0
 15 17  1  0  0  0
 17 19  1  0  0  0
 19 20  2  0  0  0
 20 21  1  0  0  0
 21 22  1  0  0  0
 22 23  1  0  0  0
 22 24  1  0  0  0
 24 25  2  0  0  0
  4  5  1  0  0  0
  5  6  2  0  0  0
  6  7  1  0  0  0
 30 31  1  0  0  0
 31 32  2  0  0  0
 32 33  1  0  0  0
 33 34  2  0  0  0
 34 35  1  0  0  0
 35 36  2  0  0  0
 36 39  1  0  0  0
 39 40  1  0  0  0
 40 41  1  0  0  0
 41 42  1  0  0  0
 42 43  1  0  0  0
 43 44  1  0  0  0
 44 45  1  0  0  0
 45 46  1  0  0  0
 46 47  1  0  0  0
 36 27  1  0  0  0
 47 43  1  0  0  0
 34 29  1  0  0  0
  6  1  1  0  0  0
 14 12  1  0  0  0
 25 19  1  0  0  0
  8 11  1  0  0  0
 17 18  1  0  0  0
M  END
> <minimizedAffinity>
-8.24708

> <CNNscore>
0.2021121085

> <CNNaffinity>
6.7919158936

> <CNN_VS>
1.3727284670

> <CNNaffinity_variance>
0.2738335729

$$$$
[H]C1=C([H])C([H])(F)C([H])([H])C([H])=C1N([H])C(=O)C1(C(=O)N([H])c2c([H])c([H])c(Oc3c([H])c([H])nc4c([H])c(OC([H])([H])C([H])([H])C([H])([H])N5C([H])([H])C([H])([H])C([H])([H])C5([H])[H])c(OC([H])([H])[H])c([H])c34)c(F)c2[H])C([H])([H])C1([H])[H]


 47 52  0  0  0  0  0  0  0  0999 V2000
    3.6121    2.8039   15.2413 C   0  0  0  0  0  0  0  0  0  0  0  0
    3.5556    3.9110   14.4058 C   0  0  0  0  0  0  0  0  0  0  0  0
    2.5915    4.0117   13.4367 C   0  0  0  0  0  0  0  0  0  0  0  0
    1.6150    3.0247   13.2251 C   0  0  0  0  0  0  0  0  0  0  0  0
    1.6724    1.9347   14.0484 C   0  0  0  0  0  0  0  0  0  0  0  0
    2.6636    1.8348   15.0432 C   0  0  0  0  0  0  0  0  0  0  0  0
    2.6355    0.7258   15.8253 F   0  0  0  0  0  0  0  0  0  0  0  0
    0.6648    3.2038   12.1745 N   0  0  0  0  0  0  0  0  0  0  0  0
    0.6876    2.6374   10.9062 C   0  0  0  0  0  0  0  0  0  0  0  0
    1.6824    1.8738   10.6336 O   0  0  0  0  0  0  0  0  0  0  0  0
   -0.1002    3.9132   12.4406 H   0  0  0  0  0  0  0  0  0  0  0  0
   -0.2976    2.8321    9.8502 C   0  0  0  0  0  0  0  0  0  0  0  0
   -0.5244    1.6499    8.9120 C   0  0  0  0  0  0  0  0  0  0  0  0
    0.3292    2.7639    8.4469 C   0  0  0  0  0  0  0  0  0  0  0  0
   -1.4464    3.7634    9.9897 C   0  0  0  0  0  0  0  0  0  0  0  0
   -1.0704    4.9967   10.1032 O   0  0  0  0  0  0  0  0  0  0  0  0
   -2.7697    3.3846    9.9917 N   0  0  0  0  0  0  0  0  0  0  0  0
   -2.9677    2.3565    9.7893 H   0  0  0  0  0  0  0  0  0  0  0  0
   -3.9597    4.1784   10.1435 C   0  0  0  0  0  0  0  0  0  0  0  0
   -4.4283    4.9603    9.2059 C   0  0  0  0  0  0  0  0  0  0  0  0
   -5.6480    5.7770    9.3540 C   0  0  0  0  0  0  0  0  0  0  0  0
   -6.3515    5.7024   10.6453 C   0  0  0  0  0  0  0  0  0  0  0  0
   -6.3860    6.9983   11.1955 F   0  0  0  0  0  0  0  0  0  0  0  0
   -5.7688    4.8120   11.6340 C   0  0  0  0  0  0  0  0  0  0  0  0
   -4.6927    4.1199   11.4220 C   0  0  0  0  0  0  0  0  0  0  0  0
    4.5700    2.6830   16.2228 O   0  0  0  0  0  0  0  0  0  0  0  0
    4.2189    6.4879   17.6916 C   0  0  0  0  0  0  0  0  0  0  0  0
    4.3359    5.2003   17.2290 C   0  0  0  0  0  0  0  0  0  0  0  0
    4.3049    4.1107   18.0629 C   0  0  0  0  0  0  0  0  0  0  0  0
    4.4229    2.8121   17.5672 C   0  0  0  0  0  0  0  0  0  0  0  0
    4.3748    1.8071   18.5019 C   0  0  0  0  0  0  0  0  0  0  0  0
    4.2196    2.0637   19.8408 C   0  0  0  0  0  0  0  0  0  0  0  0
    4.1119    3.3144   20.2605 N   0  0  0  0  0  0  0  0  0  0  0  0
    4.1490    4.3722   19.4074 C   0  0  0  0  0  0  0  0  0  0  0  0
    4.0293    5.6536   19.9034 C   0  0  0  0  0  0  0  0  0  0  0  0
    4.0660    6.7091   19.0305 C   0  0  0  0  0  0  0  0  0  0  0  0
    4.1860    7.4213   15.4163 C   0  0  0  0  0  0  0  0  0  0  0  0
    4.2549    7.5674   16.8097 O   0  0  0  0  0  0  0  0  0  0  0  0
    3.9418    7.9821   19.5692 O   0  0  0  0  0  0  0  0  0  0  0  0
    5.0139    8.7748   19.9719 C   0  0  0  0  0  0  0  0  0  0  0  0
    4.9902    8.9089   21.4725 C   0  0  0  0  0  0  0  0  0  0  0  0
    6.3471    8.6881   22.0773 C   0  0  0  0  0  0  0  0  0  0  0  0
    6.8385    7.3824   21.7721 N   0  0  0  0  0  0  0  0  0  0  0  0
    8.2540    7.2233   21.8541 C   0  0  0  0  0  0  0  0  0  0  0  0
    8.5139    5.8124   22.3903 C   0  0  0  0  0  0  0  0  0  0  0  0
    7.1706    5.1506   22.1446 C   0  0  0  0  0  0  0  0  0  0  0  0
    6.2220    6.3084   22.4885 C   0  0  0  0  0  0  0  0  0  0  0  0
 37 38  1  0  0  0
 38 27  1  0  0  0
 27 28  2  0  0  0
 28 29  1  0  0  0
 29 30  2  0  0  0
 30 26  1  0  0  0
 26  1  1  0  0  0
  1  2  2  0  0  0
  2  3  1  0  0  0
  3  4  2  0  0  0
  4  8  1  0  0  0
  8  9  1  0  0  0
  9 10  2  0  0  0
  9 12  1  0  0  0
 12 13  1  0  0  0
 13 14  1  0  0  0
 12 15  1  0  0  0
 15 16  2  0  0  0
 15 17  1  0  0  0
 17 19  1  0  0  0
 19 20  2  0  0  0
 20 21  1  0  0  0
 21 22  1  0  0  0
 22 23  1  0  0  0
 22 24  1  0  0  0
 24 25  2  0  0  0
  4  5  1  0  0  0
  5  6  2  0  0  0
  6  7  1  0  0  0
 30 31  1  0  0  0
 31 32  2  0  0  0
 32 33  1  0  0  0
 33 34  2  0  0  0
 34 35  1  0  0  0
 35 36  2  0  0  0
 36 39  1  0  0  0
 39 40  1  0  0  0
 40 41  1  0  0  0
 41 42  1  0  0  0
 42 43  1  0  0  0
 43 44  1  0  0  0
 44 45  1  0  0  0
 45 46  1  0  0  0
 46 47  1  0  0  0
 36 27  1  0  0  0
 47 43  1  0  0  0
 34 29  1  0  0  0
  6  1  1  0  0  0
 14 12  1  0  0  0
 25 19  1  0  0  0
  8 11  1  0  0  0
 17 18  1  0  0  0
M  END
> <minimizedAffinity>
-8.93441

> <CNNscore>
0.1442827135

> <CNNaffinity>
6.5065827370

> <CNN_VS>
0.9387874007

> <CNNaffinity_variance>
0.3631220758

$$$$
[H]C1=C([H])C([H])(F)C([H])([H])C([H])=C1N([H])C(=O)C1(C(=O)N([H])c2c([H])c([H])c(Oc3c([H])c([H])nc4c([H])c(OC([H])([H])C([H])([H])C([H])([H])N5C([H])([H])C([H])([H])C([H])([H])C5([H])[H])c(OC([H])([H])[H])c([H])c34)c(F)c2[H])C([H])([H])C1([H])[H]


 47 52  0  0  0  0  0  0  0  0999 V2000
    3.5447    1.5245   18.1507 C   0  0  0  0  0  0  0  0  0  0  0  0
    4.0264    2.6639   17.5207 C   0  0  0  0  0  0  0  0  0  0  0  0
    3.9368    2.8060   16.1604 C   0  0  0  0  0  0  0  0  0  0  0  0
    3.3645    1.8315   15.3266 C   0  0  0  0  0  0  0  0  0  0  0  0
    2.8911    0.7097   15.9484 C   0  0  0  0  0  0  0  0  0  0  0  0
    2.9843    0.5673   17.3460 C   0  0  0  0  0  0  0  0  0  0  0  0
    2.4741   -0.5715   17.8800 F   0  0  0  0  0  0  0  0  0  0  0  0
    3.3373    2.0550   13.9166 N   0  0  0  0  0  0  0  0  0  0  0  0
    2.2211    2.1401   13.0938 C   0  0  0  0  0  0  0  0  0  0  0  0
    1.0776    1.9872   13.6559 O   0  0  0  0  0  0  0  0  0  0  0  0
    4.3279    2.0978   13.4969 H   0  0  0  0  0  0  0  0  0  0  0  0
    2.2182    2.3734   11.6554 C   0  0  0  0  0  0  0  0  0  0  0  0
    3.3064    3.2997   11.1195 C   0  0  0  0  0  0  0  0  0  0  0  0
    1.9447    3.8458   11.3031 C   0  0  0  0  0  0  0  0  0  0  0  0
    1.6942    1.3786   10.6847 C   0  0  0  0  0  0  0  0  0  0  0  0
    2.5720    1.0521    9.7912 O   0  0  0  0  0  0  0  0  0  0  0  0
    0.4269    0.8425   10.7152 N   0  0  0  0  0  0  0  0  0  0  0  0
   -0.1778    1.1051   11.5534 H   0  0  0  0  0  0  0  0  0  0  0  0
   -0.2018   -0.0986    9.8273 C   0  0  0  0  0  0  0  0  0  0  0  0
    0.2410   -1.3139    9.6350 C   0  0  0  0  0  0  0  0  0  0  0  0
   -0.3983   -2.2847    8.7266 C   0  0  0  0  0  0  0  0  0  0  0  0
   -1.5926   -1.8311    7.9944 C   0  0  0  0  0  0  0  0  0  0  0  0
   -1.3223   -1.9371    6.6164 F   0  0  0  0  0  0  0  0  0  0  0  0
   -2.0213   -0.4695    8.2627 C   0  0  0  0  0  0  0  0  0  0  0  0
   -1.4051    0.3217    9.0852 C   0  0  0  0  0  0  0  0  0  0  0  0
    3.6219    1.3618   19.5156 O   0  0  0  0  0  0  0  0  0  0  0  0
    4.8471    4.9538   21.0500 C   0  0  0  0  0  0  0  0  0  0  0  0
    4.4618    3.7348   20.5488 C   0  0  0  0  0  0  0  0  0  0  0  0
    5.1428    2.5752   20.8229 C   0  0  0  0  0  0  0  0  0  0  0  0
    4.7286    1.3486   20.3035 C   0  0  0  0  0  0  0  0  0  0  0  0
    5.4918    0.2615   20.6525 C   0  0  0  0  0  0  0  0  0  0  0  0
    6.5935    0.3742   21.4626 C   0  0  0  0  0  0  0  0  0  0  0  0
    6.9448    1.5616   21.9301 N   0  0  0  0  0  0  0  0  0  0  0  0
    6.2491    2.6922   21.6370 C   0  0  0  0  0  0  0  0  0  0  0  0
    6.6622    3.9016   22.1557 C   0  0  0  0  0  0  0  0  0  0  0  0
    5.9489    5.0316   21.8532 C   0  0  0  0  0  0  0  0  0  0  0  0
    3.5800    6.3604   19.4799 C   0  0  0  0  0  0  0  0  0  0  0  0
    4.1264    6.1083   20.7471 O   0  0  0  0  0  0  0  0  0  0  0  0
    6.3968    6.2283   22.3950 O   0  0  0  0  0  0  0  0  0  0  0  0
    7.6664    6.7613   22.1851 C   0  0  0  0  0  0  0  0  0  0  0  0
    7.5302    8.1192   21.5461 C   0  0  0  0  0  0  0  0  0  0  0  0
    7.0883    8.0238   20.1139 C   0  0  0  0  0  0  0  0  0  0  0  0
    6.3621    9.1894   19.7223 N   0  0  0  0  0  0  0  0  0  0  0  0
    5.8386    9.1709   18.3952 C   0  0  0  0  0  0  0  0  0  0  0  0
    4.4892    9.8942   18.4380 C   0  0  0  0  0  0  0  0  0  0  0  0
    4.5963   10.6423   19.7539 C   0  0  0  0  0  0  0  0  0  0  0  0
    5.3181    9.5938   20.6130 C   0  0  0  0  0  0  0  0  0  0  0  0
 37 38  1  0  0  0
 38 27  1  0  0  0
 27 28  2  0  0  0
 28 29  1  0  0  0
 29 30  2  0  0  0
 30 26  1  0  0  0
 26  1  1  0  0  0
  1  2  2  0  0  0
  2  3  1  0  0  0
  3  4  2  0  0  0
  4  8  1  0  0  0
  8  9  1  0  0  0
  9 10  2  0  0  0
  9 12  1  0  0  0
 12 13  1  0  0  0
 13 14  1  0  0  0
 12 15  1  0  0  0
 15 16  2  0  0  0
 15 17  1  0  0  0
 17 19  1  0  0  0
 19 20  2  0  0  0
 20 21  1  0  0  0
 21 22  1  0  0  0
 22 23  1  0  0  0
 22 24  1  0  0  0
 24 25  2  0  0  0
  4  5  1  0  0  0
  5  6  2  0  0  0
  6  7  1  0  0  0
 30 31  1  0  0  0
 31 32  2  0  0  0
 32 33  1  0  0  0
 33 34  2  0  0  0
 34 35  1  0  0  0
 35 36  2  0  0  0
 36 39  1  0  0  0
 39 40  1  0  0  0
 40 41  1  0  0  0
 41 42  1  0  0  0
 42 43  1  0  0  0
 43 44  1  0  0  0
 44 45  1  0  0  0
 45 46  1  0  0  0
 46 47  1  0  0  0
 36 27  1  0  0  0
 47 43  1  0  0  0
 34 29  1  0  0  0
  6  1  1  0  0  0
 14 12  1  0  0  0
 25 19  1  0  0  0
  8 11  1  0  0  0
 17 18  1  0  0  0
M  END
> <minimizedAffinity>
-8.62395

> <CNNscore>
0.1431141645

> <CNNaffinity>
6.7733292580

> <CNN_VS>
0.9693593383

> <CNNaffinity_variance>
0.3973328769

$$$$
[H]C1=C([H])C([H])(F)C([H])([H])C([H])=C1N([H])C(=O)C1(C(=O)N([H])c2c([H])c([H])c(Oc3c([H])c([H])nc4c([H])c(OC([H])([H])C([H])([H])C([H])([H])N5C([H])([H])C([H])([H])C([H])([H])C5([H])[H])c(OC([H])([H])[H])c([H])c34)c(F)c2[H])C([H])([H])C1([H])[H]


 47 52  0  0  0  0  0  0  0  0999 V2000
    1.6026    4.7791   13.9786 C   0  0  0  0  0  0  0  0  0  0  0  0
    1.0327    3.7589   13.2295 C   0  0  0  0  0  0  0  0  0  0  0  0
   -0.1851    3.9279   12.6235 C   0  0  0  0  0  0  0  0  0  0  0  0
   -0.9256    5.1177   12.7155 C   0  0  0  0  0  0  0  0  0  0  0  0
   -0.3631    6.1213   13.4541 C   0  0  0  0  0  0  0  0  0  0  0  0
    0.8881    5.9445   14.0747 C   0  0  0  0  0  0  0  0  0  0  0  0
    1.3780    6.9992   14.7747 F   0  0  0  0  0  0  0  0  0  0  0  0
   -2.1975    5.1941   12.0712 N   0  0  0  0  0  0  0  0  0  0  0  0
   -2.4654    5.6046   10.7713 C   0  0  0  0  0  0  0  0  0  0  0  0
   -1.4597    5.9734   10.0644 O   0  0  0  0  0  0  0  0  0  0  0  0
   -3.0032    4.9453   12.7408 H   0  0  0  0  0  0  0  0  0  0  0  0
   -3.7739    5.6703   10.1334 C   0  0  0  0  0  0  0  0  0  0  0  0
   -4.9333    6.1244   11.0161 C   0  0  0  0  0  0  0  0  0  0  0  0
   -4.7751    4.6785   10.7507 C   0  0  0  0  0  0  0  0  0  0  0  0
   -3.9435    5.9241    8.6797 C   0  0  0  0  0  0  0  0  0  0  0  0
   -3.6943    4.8749    7.9637 O   0  0  0  0  0  0  0  0  0  0  0  0
   -4.3297    7.1260    8.1313 N   0  0  0  0  0  0  0  0  0  0  0  0
   -4.6076    7.8921    8.8189 H   0  0  0  0  0  0  0  0  0  0  0  0
   -4.5028    7.5020    6.7536 C   0  0  0  0  0  0  0  0  0  0  0  0
   -3.5484    7.4317    5.8625 C   0  0  0  0  0  0  0  0  0  0  0  0
   -3.7183    7.8151    4.4481 C   0  0  0  0  0  0  0  0  0  0  0  0
   -5.0424    8.3169    4.0445 C   0  0  0  0  0  0  0  0  0  0  0  0
   -4.8766    9.6223    3.5427 F   0  0  0  0  0  0  0  0  0  0  0  0
   -6.0484    8.3644    5.0912 C   0  0  0  0  0  0  0  0  0  0  0  0
   -5.8197    8.0008    6.3149 C   0  0  0  0  0  0  0  0  0  0  0  0
    2.8256    4.6323   14.5937 O   0  0  0  0  0  0  0  0  0  0  0  0
    3.7037    6.0162   18.3449 C   0  0  0  0  0  0  0  0  0  0  0  0
    3.4174    5.5223   17.0960 C   0  0  0  0  0  0  0  0  0  0  0  0
    3.5007    4.1862   16.7936 C   0  0  0  0  0  0  0  0  0  0  0  0
    3.2013    3.7095   15.5173 C   0  0  0  0  0  0  0  0  0  0  0  0
    3.3202    2.3528   15.3411 C   0  0  0  0  0  0  0  0  0  0  0  0
    3.7089    1.5170   16.3576 C   0  0  0  0  0  0  0  0  0  0  0  0
    3.9817    2.0193   17.5513 N   0  0  0  0  0  0  0  0  0  0  0  0
    3.8915    3.3495   17.8172 C   0  0  0  0  0  0  0  0  0  0  0  0
    4.1864    3.8143   19.0818 C   0  0  0  0  0  0  0  0  0  0  0  0
    4.0882    5.1574   19.3346 C   0  0  0  0  0  0  0  0  0  0  0  0
    4.6208    8.2979   18.2969 C   0  0  0  0  0  0  0  0  0  0  0  0
    3.6059    7.3815   18.6103 O   0  0  0  0  0  0  0  0  0  0  0  0
    4.3930    5.5847   20.6195 O   0  0  0  0  0  0  0  0  0  0  0  0
    3.6351    5.2860   21.7492 C   0  0  0  0  0  0  0  0  0  0  0  0
    4.5261    4.6513   22.7855 C   0  0  0  0  0  0  0  0  0  0  0  0
    4.0241    3.2995   23.2053 C   0  0  0  0  0  0  0  0  0  0  0  0
    4.9201    2.2678   22.7899 N   0  0  0  0  0  0  0  0  0  0  0  0
    4.3721    1.3008   21.8954 C   0  0  0  0  0  0  0  0  0  0  0  0
    5.4882    0.9112   20.9215 C   0  0  0  0  0  0  0  0  0  0  0  0
    6.7150    1.4072   21.6641 C   0  0  0  0  0  0  0  0  0  0  0  0
    6.1714    2.7144   22.2594 C   0  0  0  0  0  0  0  0  0  0  0  0
 37 38  1  0  0  0
 38 27  1  0  0  0
 27 28  2  0  0  0
 28 29  1  0  0  0
 29 30  2  0  0  0
 30 26  1  0  0  0
 26  1  1  0  0  0
  1  2  2  0  0  0
  2  3  1  0  0  0
  3  4  2  0  0  0
  4  8  1  0  0  0
  8  9  1  0  0  0
  9 10  2  0  0  0
  9 12  1  0  0  0
 12 13  1  0  0  0
 13 14  1  0  0  0
 12 15  1  0  0  0
 15 16  2  0  0  0
 15 17  1  0  0  0
 17 19  1  0  0  0
 19 20  2  0  0  0
 20 21  1  0  0  0
 21 22  1  0  0  0
 22 23  1  0  0  0
 22 24  1  0  0  0
 24 25  2  0  0  0
  4  5  1  0  0  0
  5  6  2  0  0  0
  6  7  1  0  0  0
 30 31  1  0  0  0
 31 32  2  0  0  0
 32 33  1  0  0  0
 33 34  2  0  0  0
 34 35  1  0  0  0
 35 36  2  0  0  0
 36 39  1  0  0  0
 39 40  1  0  0  0
 40 41  1  0  0  0
 41 42  1  0  0  0
 42 43  1  0  0  0
 43 44  1  0  0  0
 44 45  1  0  0  0
 45 46  1  0  0  0
 46 47  1  0  0  0
 36 27  1  0  0  0
 47 43  1  0  0  0
 34 29  1  0  0  0
  6  1  1  0  0  0
 14 12  1  0  0  0
 25 19  1  0  0  0
  8 11  1  0  0  0
 17 18  1  0  0  0
M  END
> <minimizedAffinity>
-8.44590

> <CNNscore>
0.1392052621

> <CNNaffinity>
6.4045867920

> <CNN_VS>
0.8915522099

> <CNNaffinity_variance>
0.3520362377

$$$$
[H]O[C@]1([H])C([H])([H])C([H])([H])[C@@]([H])(n2c([H])c(-c3c([H])c([H])c(S(=O)(=O)N4C([H])([H])C([H])([H])OC([H])([H])C4([H])[H])c([H])c3[H])c3c([H])nc(N([H])C([H])([H])C([H])([H])C([H])([H])C([H])([H])[H])nc32)C([H])([H])C1([H])[H]


 38 42  0  0  0  0  0  0  0  0999 V2000
    2.9807    0.1328   18.7771 C   0  0  0  0  0  0  0  0  0  0  0  0
    2.3039   -0.1627   17.6493 N   0  0  0  0  0  0  0  0  0  0  0  0
    2.3628    0.5862   16.5333 C   0  0  0  0  0  0  0  0  0  0  0  0
    3.1452    1.6986   16.5423 C   0  0  0  0  0  0  0  0  0  0  0  0
    3.4046    2.6434   15.5757 C   0  0  0  0  0  0  0  0  0  0  0  0
    4.2754    3.5445   16.1499 C   0  0  0  0  0  0  0  0  0  0  0  0
    4.5237    3.1378   17.4301 N   0  0  0  0  0  0  0  0  0  0  0  0
    3.8495    2.0188   17.6945 C   0  0  0  0  0  0  0  0  0  0  0  0
    3.7591    1.2512   18.7666 N   0  0  0  0  0  0  0  0  0  0  0  0
    5.4155    3.8996   18.2888 C   0  0  0  0  0  0  0  0  0  0  0  0
    6.0509    4.9652   17.4637 C   0  0  0  0  0  0  0  0  0  0  0  0
    6.6437    6.0912   18.2302 C   0  0  0  0  0  0  0  0  0  0  0  0
    5.8323    6.5345   19.4147 C   0  0  0  0  0  0  0  0  0  0  0  0
    6.5412    7.5174   20.0870 O   0  0  0  0  0  0  0  0  0  0  0  0
    5.6382    5.2921   20.2939 C   0  0  0  0  0  0  0  0  0  0  0  0
    4.6989    4.3844   19.5002 C   0  0  0  0  0  0  0  0  0  0  0  0
    6.4631    7.4402   21.0743 H   0  0  0  0  0  0  0  0  0  0  0  0
    2.8975    2.7458   14.1969 C   0  0  0  0  0  0  0  0  0  0  0  0
    1.8100    1.9878   13.7899 C   0  0  0  0  0  0  0  0  0  0  0  0
    1.3246    2.0671   12.5088 C   0  0  0  0  0  0  0  0  0  0  0  0
    1.9367    2.9236   11.6066 C   0  0  0  0  0  0  0  0  0  0  0  0
    3.0119    3.6699   12.0171 C   0  0  0  0  0  0  0  0  0  0  0  0
    3.4954    3.5908   13.2930 C   0  0  0  0  0  0  0  0  0  0  0  0
    1.3184    3.0266    9.9691 S   0  0  0  0  0  0  0  0  0  0  0  0
    2.4422    3.6135    9.1303 O   0  0  0  0  0  0  0  0  0  0  0  0
    1.0273    1.6453    9.4487 O   0  0  0  0  0  0  0  0  0  0  0  0
   -0.0666    4.0221    9.9617 N   0  0  0  0  0  0  0  0  0  0  0  0
   -0.1422    4.9574   11.0369 C   0  0  0  0  0  0  0  0  0  0  0  0
    0.5738    6.2266   10.6339 C   0  0  0  0  0  0  0  0  0  0  0  0
   -0.1663    6.8027    9.5893 O   0  0  0  0  0  0  0  0  0  0  0  0
    0.0447    5.9873    8.4664 C   0  0  0  0  0  0  0  0  0  0  0  0
   -0.4036    4.5813    8.6928 C   0  0  0  0  0  0  0  0  0  0  0  0
    2.8944   -0.6848   19.9432 N   0  0  0  0  0  0  0  0  0  0  0  0
    2.2598   -1.4970   19.9306 H   0  0  0  0  0  0  0  0  0  0  0  0
    3.7114   -0.3178   21.0806 C   0  0  0  0  0  0  0  0  0  0  0  0
    2.9947    0.6513   21.9958 C   0  0  0  0  0  0  0  0  0  0  0  0
    5.3768    1.4200   21.8165 C   0  0  0  0  0  0  0  0  0  0  0  0
    4.0106    1.7474   22.3376 C   0  0  0  0  0  0  0  0  0  0  0  0
 37 38  1  0  0  0
 38 36  1  0  0  0
 36 35  1  0  0  0
 35 33  1  0  0  0
 33  1  1  0  0  0
  1  2  2  0  0  0
  2  3  1  0  0  0
  3  4  2  0  0  0
  4  5  1  0  0  0
  5  6  2  0  0  0
  6  7  1  0  0  0
  7 10  1  0  0  0
 10 11  1  0  0  0
 11 12  1  0  0  0
 12 13  1  0  0  0
 13 14  1  0  0  0
 13 15  1  0  0  0
 15 16  1  0  0  0
  7  8  1  0  0  0
  8  9  2  0  0  0
  5 18  1  0  0  0
 18 19  2  0  0  0
 19 20  1  0  0  0
 20 21  2  0  0  0
 21 22  1  0  0  0
 22 23  2  0  0  0
 21 24  1  0  0  0
 24 25  2  0  0  0
 24 26  2  0  0  0
 24 27  1  0  0  0
 27 28  1  0  0  0
 28 29  1  0  0  0
 29 30  1  0  0  0
 30 31  1  0  0  0
 31 32  1  0  0  0
  9  1  1  0  0  0
 23 18  1  0  0  0
 32 27  1  0  0  0
  8  4  1  0  0  0
 16 10  1  0  0  0
 33 34  1  0  0  0
 14 17  1  0  0  0
M  END
> <minimizedAffinity>
-8.63856

> <CNNscore>
0.9812881351

> <CNNaffinity>
7.7350411415

> <CNN_VS>
7.5903038979

> <CNNaffinity_variance>
0.0487160459

$$$$
[H]O[C@]1([H])C([H])([H])C([H])([H])[C@@]([H])(n2c([H])c(-c3c([H])c([H])c(S(=O)(=O)N4C([H])([H])C([H])([H])OC([H])([H])C4([H])[H])c([H])c3[H])c3c([H])nc(N([H])C([H])([H])C([H])([H])C([H])([H])C([H])([H])[H])nc32)C([H])([H])C1([H])[H]


 38 42  0  0  0  0  0  0  0  0999 V2000
    2.9915    0.0908   18.9472 C   0  0  0  0  0  0  0  0  0  0  0  0
    2.3254   -0.2577   17.8282 N   0  0  0  0  0  0  0  0  0  0  0  0
    2.3835    0.4458   16.6830 C   0  0  0  0  0  0  0  0  0  0  0  0
    3.1537    1.5662   16.6515 C   0  0  0  0  0  0  0  0  0  0  0  0
    3.4092    2.4737   15.6488 C   0  0  0  0  0  0  0  0  0  0  0  0
    4.2665    3.4070   16.1911 C   0  0  0  0  0  0  0  0  0  0  0  0
    4.5108    3.0554   17.4883 N   0  0  0  0  0  0  0  0  0  0  0  0
    3.8470    1.9407   17.7940 C   0  0  0  0  0  0  0  0  0  0  0  0
    3.7579    1.2165   18.8958 N   0  0  0  0  0  0  0  0  0  0  0  0
    5.3887    3.8613   18.3207 C   0  0  0  0  0  0  0  0  0  0  0  0
    6.0000    4.9140   17.4615 C   0  0  0  0  0  0  0  0  0  0  0  0
    6.5713    6.0749   18.1915 C   0  0  0  0  0  0  0  0  0  0  0  0
    5.7537    6.5375   19.3643 C   0  0  0  0  0  0  0  0  0  0  0  0
    6.4438    7.5548   20.0042 O   0  0  0  0  0  0  0  0  0  0  0  0
    5.5874    5.3187   20.2816 C   0  0  0  0  0  0  0  0  0  0  0  0
    4.6651    4.3681   19.5189 C   0  0  0  0  0  0  0  0  0  0  0  0
    6.3696    7.5063   20.9936 H   0  0  0  0  0  0  0  0  0  0  0  0
    2.9101    2.5144   14.2639 C   0  0  0  0  0  0  0  0  0  0  0  0
    3.5699    3.2627   13.3008 C   0  0  0  0  0  0  0  0  0  0  0  0
    3.1189    3.3156   12.0058 C   0  0  0  0  0  0  0  0  0  0  0  0
    1.9804    2.6051   11.6578 C   0  0  0  0  0  0  0  0  0  0  0  0
    1.3335    1.8673   12.6164 C   0  0  0  0  0  0  0  0  0  0  0  0
    1.7827    1.8148   13.9061 C   0  0  0  0  0  0  0  0  0  0  0  0
    1.4021    2.6712   10.0038 S   0  0  0  0  0  0  0  0  0  0  0  0
   -0.0877    2.9610   10.0895 O   0  0  0  0  0  0  0  0  0  0  0  0
    2.0549    3.8195    9.2835 O   0  0  0  0  0  0  0  0  0  0  0  0
    1.7160    1.1751    9.2472 N   0  0  0  0  0  0  0  0  0  0  0  0
    1.5158    1.1607    7.8342 C   0  0  0  0  0  0  0  0  0  0  0  0
    2.7958    1.5899    7.1534 C   0  0  0  0  0  0  0  0  0  0  0  0
    3.7496    0.5904    7.4025 O   0  0  0  0  0  0  0  0  0  0  0  0
    4.0938    0.7093    8.7580 C   0  0  0  0  0  0  0  0  0  0  0  0
    2.9185    0.5279    9.6608 C   0  0  0  0  0  0  0  0  0  0  0  0
    2.9064   -0.6796   20.1450 N   0  0  0  0  0  0  0  0  0  0  0  0
    2.2617   -1.4835   20.1700 H   0  0  0  0  0  0  0  0  0  0  0  0
    3.7390   -0.2791   21.2596 C   0  0  0  0  0  0  0  0  0  0  0  0
    3.0959    0.8246   22.0711 C   0  0  0  0  0  0  0  0  0  0  0  0
    5.5006    1.5115   21.8637 C   0  0  0  0  0  0  0  0  0  0  0  0
    4.2470    1.6378   22.6746 C   0  0  0  0  0  0  0  0  0  0  0  0
 37 38  1  0  0  0
 38 36  1  0  0  0
 36 35  1  0  0  0
 35 33  1  0  0  0
 33  1  1  0  0  0
  1  2  2  0  0  0
  2  3  1  0  0  0
  3  4  2  0  0  0
  4  5  1  0  0  0
  5  6  2  0  0  0
  6  7  1  0  0  0
  7 10  1  0  0  0
 10 11  1  0  0  0
 11 12  1  0  0  0
 12 13  1  0  0  0
 13 14  1  0  0  0
 13 15  1  0  0  0
 15 16  1  0  0  0
  7  8  1  0  0  0
  8  9  2  0  0  0
  5 18  1  0  0  0
 18 19  2  0  0  0
 19 20  1  0  0  0
 20 21  2  0  0  0
 21 22  1  0  0  0
 22 23  2  0  0  0
 21 24  1  0  0  0
 24 25  2  0  0  0
 24 26  2  0  0  0
 24 27  1  0  0  0
 27 28  1  0  0  0
 28 29  1  0  0  0
 29 30  1  0  0  0
 30 31  1  0  0  0
 31 32  1  0  0  0
  9  1  1  0  0  0
 23 18  1  0  0  0
 32 27  1  0  0  0
  8  4  1  0  0  0
 16 10  1  0  0  0
 33 34  1  0  0  0
 14 17  1  0  0  0
M  END
> <minimizedAffinity>
-8.58118

> <CNNscore>
0.9781447053

> <CNNaffinity>
7.8384447098

> <CNN_VS>
7.6671333313

> <CNNaffinity_variance>
0.0517664775

$$$$
[H]O[C@]1([H])C([H])([H])C([H])([H])[C@@]([H])(n2c([H])c(-c3c([H])c([H])c(S(=O)(=O)N4C([H])([H])C([H])([H])OC([H])([H])C4([H])[H])c([H])c3[H])c3c([H])nc(N([H])C([H])([H])C([H])([H])C([H])([H])C([H])([H])[H])nc32)C([H])([H])C1([H])[H]


 38 42  0  0  0  0  0  0  0  0999 V2000
    4.2247    1.4683   19.3179 C   0  0  0  0  0  0  0  0  0  0  0  0
    3.7040    0.7422   18.3085 N   0  0  0  0  0  0  0  0  0  0  0  0
    3.4081    1.2579   17.1018 C   0  0  0  0  0  0  0  0  0  0  0  0
    3.6463    2.5798   16.8882 C   0  0  0  0  0  0  0  0  0  0  0  0
    3.4535    3.3780   15.7837 C   0  0  0  0  0  0  0  0  0  0  0  0
    3.8776    4.6381   16.1477 C   0  0  0  0  0  0  0  0  0  0  0  0
    4.3117    4.5824   17.4417 N   0  0  0  0  0  0  0  0  0  0  0  0
    4.1822    3.3434   17.9157 C   0  0  0  0  0  0  0  0  0  0  0  0
    4.4562    2.7908   19.0846 N   0  0  0  0  0  0  0  0  0  0  0  0
    4.8221    5.7721   18.1029 C   0  0  0  0  0  0  0  0  0  0  0  0
    6.3038    5.7866   17.9462 C   0  0  0  0  0  0  0  0  0  0  0  0
    6.9513    7.1055   18.1657 C   0  0  0  0  0  0  0  0  0  0  0  0
    6.1917    8.2740   17.6041 C   0  0  0  0  0  0  0  0  0  0  0  0
    6.8544    9.4379   17.9600 O   0  0  0  0  0  0  0  0  0  0  0  0
    4.7920    8.2199   18.2305 C   0  0  0  0  0  0  0  0  0  0  0  0
    4.1249    6.9920   17.6112 C   0  0  0  0  0  0  0  0  0  0  0  0
    6.2338   10.1755   18.1999 H   0  0  0  0  0  0  0  0  0  0  0  0
    2.9109    3.0382   14.4576 C   0  0  0  0  0  0  0  0  0  0  0  0
    1.7697    2.2586   14.3438 C   0  0  0  0  0  0  0  0  0  0  0  0
    1.2504    1.9289   13.1171 C   0  0  0  0  0  0  0  0  0  0  0  0
    1.8824    2.3866   11.9712 C   0  0  0  0  0  0  0  0  0  0  0  0
    3.0107    3.1572   12.0923 C   0  0  0  0  0  0  0  0  0  0  0  0
    3.5279    3.4855   13.3141 C   0  0  0  0  0  0  0  0  0  0  0  0
    1.2208    1.9665   10.4027 S   0  0  0  0  0  0  0  0  0  0  0  0
    2.3489    2.1635    9.4029 O   0  0  0  0  0  0  0  0  0  0  0  0
    0.8386    0.5114   10.3863 O   0  0  0  0  0  0  0  0  0  0  0  0
   -0.1071    2.9844   10.0711 N   0  0  0  0  0  0  0  0  0  0  0  0
   -0.0007    4.3053   10.6007 C   0  0  0  0  0  0  0  0  0  0  0  0
    0.7140    5.1803    9.5959 C   0  0  0  0  0  0  0  0  0  0  0  0
   -0.1280    5.2960    8.4785 O   0  0  0  0  0  0  0  0  0  0  0  0
   -0.1009    4.0467    7.8391 C   0  0  0  0  0  0  0  0  0  0  0  0
   -0.5794    2.9444    8.7252 C   0  0  0  0  0  0  0  0  0  0  0  0
    4.5262    0.8877   20.5858 N   0  0  0  0  0  0  0  0  0  0  0  0
    5.4420    0.4324   20.7148 H   0  0  0  0  0  0  0  0  0  0  0  0
    3.5169    0.9758   21.6200 C   0  0  0  0  0  0  0  0  0  0  0  0
    3.7510    2.1608   22.5318 C   0  0  0  0  0  0  0  0  0  0  0  0
    5.5685    2.0680   24.2596 C   0  0  0  0  0  0  0  0  0  0  0  0
    5.2599    2.2027   22.7995 C   0  0  0  0  0  0  0  0  0  0  0  0
 37 38  1  0  0  0
 38 36  1  0  0  0
 36 35  1  0  0  0
 35 33  1  0  0  0
 33  1  1  0  0  0
  1  2  2  0  0  0
  2  3  1  0  0  0
  3  4  2  0  0  0
  4  5  1  0  0  0
  5  6  2  0  0  0
  6  7  1  0  0  0
  7 10  1  0  0  0
 10 11  1  0  0  0
 11 12  1  0  0  0
 12 13  1  0  0  0
 13 14  1  0  0  0
 13 15  1  0  0  0
 15 16  1  0  0  0
  7  8  1  0  0  0
  8  9  2  0  0  0
  5 18  1  0  0  0
 18 19  2  0  0  0
 19 20  1  0  0  0
 20 21  2  0  0  0
 21 22  1  0  0  0
 22 23  2  0  0  0
 21 24  1  0  0  0
 24 25  2  0  0  0
 24 26  2  0  0  0
 24 27  1  0  0  0
 27 28  1  0  0  0
 28 29  1  0  0  0
 29 30  1  0  0  0
 30 31  1  0  0  0
 31 32  1  0  0  0
  9  1  1  0  0  0
 23 18  1  0  0  0
 32 27  1  0  0  0
  8  4  1  0  0  0
 16 10  1  0  0  0
 33 34  1  0  0  0
 14 17  1  0  0  0
M  END
> <minimizedAffinity>
-7.53791

> <CNNscore>
0.6985614896

> <CNNaffinity>
7.3089432716

> <CNN_VS>
5.1057462692

> <CNNaffinity_variance>
0.2605410218

$$$$
[H]O[C@]1([H])C([H])([H])C([H])([H])[C@@]([H])(n2c([H])c(-c3c([H])c([H])c(S(=O)(=O)N4C([H])([H])C([H])([H])OC([H])([H])C4([H])[H])c([H])c3[H])c3c([H])nc(N([H])C([H])([H])C([H])([H])C([H])([H])C([H])([H])[H])nc32)C([H])([H])C1([H])[H]


 38 42  0  0  0  0  0  0  0  0999 V2000
    3.0266    0.6807   17.6692 C   0  0  0  0  0  0  0  0  0  0  0  0
    2.4533    0.7668   16.4522 N   0  0  0  0  0  0  0  0  0  0  0  0
    2.6110    1.8220   15.6329 C   0  0  0  0  0  0  0  0  0  0  0  0
    3.3887    2.8556   16.0530 C   0  0  0  0  0  0  0  0  0  0  0  0
    3.7327    4.0455   15.4529 C   0  0  0  0  0  0  0  0  0  0  0  0
    4.5483    4.7010   16.3501 C   0  0  0  0  0  0  0  0  0  0  0  0
    4.6817    3.9120   17.4572 N   0  0  0  0  0  0  0  0  0  0  0  0
    3.9874    2.7848   17.3031 C   0  0  0  0  0  0  0  0  0  0  0  0
    3.8023    1.7262   18.0724 N   0  0  0  0  0  0  0  0  0  0  0  0
    5.4930    4.3466   18.5824 C   0  0  0  0  0  0  0  0  0  0  0  0
    6.1272    5.6450   18.2189 C   0  0  0  0  0  0  0  0  0  0  0  0
    6.6299    6.4471   19.3639 C   0  0  0  0  0  0  0  0  0  0  0  0
    5.7376    6.4354   20.5728 C   0  0  0  0  0  0  0  0  0  0  0  0
    6.3673    7.1382   21.5877 O   0  0  0  0  0  0  0  0  0  0  0  0
    5.5481    4.9614   20.9547 C   0  0  0  0  0  0  0  0  0  0  0  0
    4.6920    4.3664   19.8370 C   0  0  0  0  0  0  0  0  0  0  0  0
    6.2390    6.7218   22.4804 H   0  0  0  0  0  0  0  0  0  0  0  0
    3.3505    4.5827   14.1361 C   0  0  0  0  0  0  0  0  0  0  0  0
    2.3896    5.5775   14.0349 C   0  0  0  0  0  0  0  0  0  0  0  0
    2.0179    6.0890   12.8170 C   0  0  0  0  0  0  0  0  0  0  0  0
    2.6177    5.5986   11.6672 C   0  0  0  0  0  0  0  0  0  0  0  0
    3.5673    4.6147   11.7759 C   0  0  0  0  0  0  0  0  0  0  0  0
    3.9373    4.1052   12.9890 C   0  0  0  0  0  0  0  0  0  0  0  0
    2.1444    6.2505   10.1098 S   0  0  0  0  0  0  0  0  0  0  0  0
    0.9994    5.3794    9.6187 O   0  0  0  0  0  0  0  0  0  0  0  0
    1.6182    7.6492   10.2839 O   0  0  0  0  0  0  0  0  0  0  0  0
    3.4838    6.1934    9.0553 N   0  0  0  0  0  0  0  0  0  0  0  0
    3.1735    5.8511    7.7051 C   0  0  0  0  0  0  0  0  0  0  0  0
    2.8340    7.1133    6.9450 C   0  0  0  0  0  0  0  0  0  0  0  0
    4.0087    7.8786    6.8725 O   0  0  0  0  0  0  0  0  0  0  0  0
    4.2305    8.3756    8.1662 C   0  0  0  0  0  0  0  0  0  0  0  0
    4.3943    7.2858    9.1734 C   0  0  0  0  0  0  0  0  0  0  0  0
    2.8372   -0.4546   18.5123 N   0  0  0  0  0  0  0  0  0  0  0  0
    2.9166   -1.3953   18.0985 H   0  0  0  0  0  0  0  0  0  0  0  0
    2.5427   -0.2104   19.9086 C   0  0  0  0  0  0  0  0  0  0  0  0
    3.6765   -0.6558   20.8066 C   0  0  0  0  0  0  0  0  0  0  0  0
    3.4095    1.3281   22.3200 C   0  0  0  0  0  0  0  0  0  0  0  0
    4.3155    0.6250   21.3556 C   0  0  0  0  0  0  0  0  0  0  0  0
 37 38  1  0  0  0
 38 36  1  0  0  0
 36 35  1  0  0  0
 35 33  1  0  0  0
 33  1  1  0  0  0
  1  2  2  0  0  0
  2  3  1  0  0  0
  3  4  2  0  0  0
  4  5  1  0  0  0
  5  6  2  0  0  0
  6  7  1  0  0  0
  7 10  1  0  0  0
 10 11  1  0  0  0
 11 12  1  0  0  0
 12 13  1  0  0  0
 13 14  1  0  0  0
 13 15  1  0  0  0
 15 16  1  0  0  0
  7  8  1  0  0  0
  8  9  2  0  0  0
  5 18  1  0  0  0
 18 19  2  0  0  0
 19 20  1  0  0  0
 20 21  2  0  0  0
 21 22  1  0  0  0
 22 23  2  0  0  0
 21 24  1  0  0  0
 24 25  2  0  0  0
 24 26  2  0  0  0
 24 27  1  0  0  0
 27 28  1  0  0  0
 28 29  1  0  0  0
 29 30  1  0  0  0
 30 31  1  0  0  0
 31 32  1  0  0  0
  9  1  1  0  0  0
 23 18  1  0  0  0
 32 27  1  0  0  0
  8  4  1  0  0  0
 16 10  1  0  0  0
 33 34  1  0  0  0
 14 17  1  0  0  0
M  END
> <minimizedAffinity>
-7.47781

> <CNNscore>
0.5701313019

> <CNNaffinity>
6.9129652977

> <CNN_VS>
3.9412980080

> <CNNaffinity_variance>
0.0938528329

$$$$
[H]O[C@]1([H])C([H])([H])C([H])([H])[C@@]([H])(n2c([H])c(-c3c([H])c([H])c(S(=O)(=O)N4C([H])([H])C([H])([H])OC([H])([H])C4([H])[H])c([H])c3[H])c3c([H])nc(N([H])C([H])([H])C([H])([H])C([H])([H])C([H])([H])[H])nc32)C([H])([H])C1([H])[H]


 38 42  0  0  0  0  0  0  0  0999 V2000
    4.0349    1.1004   19.9176 C   0  0  0  0  0  0  0  0  0  0  0  0
    3.7135    0.5200   18.7441 N   0  0  0  0  0  0  0  0  0  0  0  0
    3.6147    1.1974   17.5861 C   0  0  0  0  0  0  0  0  0  0  0  0
    3.8511    2.5367   17.5989 C   0  0  0  0  0  0  0  0  0  0  0  0
    3.8289    3.4799   16.5968 C   0  0  0  0  0  0  0  0  0  0  0  0
    4.1516    4.6783   17.1967 C   0  0  0  0  0  0  0  0  0  0  0  0
    4.3596    4.4447   18.5264 N   0  0  0  0  0  0  0  0  0  0  0  0
    4.1835    3.1517   18.7978 C   0  0  0  0  0  0  0  0  0  0  0  0
    4.2682    2.4430   19.9101 N   0  0  0  0  0  0  0  0  0  0  0  0
    4.7182    5.5324   19.4216 C   0  0  0  0  0  0  0  0  0  0  0  0
    3.9264    5.3784   20.6743 C   0  0  0  0  0  0  0  0  0  0  0  0
    4.4531    6.1156   21.8516 C   0  0  0  0  0  0  0  0  0  0  0  0
    5.9500    6.0960   21.9808 C   0  0  0  0  0  0  0  0  0  0  0  0
    6.3064    6.8933   23.0569 O   0  0  0  0  0  0  0  0  0  0  0  0
    6.5038    6.6604   20.6658 C   0  0  0  0  0  0  0  0  0  0  0  0
    6.1931    5.5970   19.6129 C   0  0  0  0  0  0  0  0  0  0  0  0
    7.1287    7.4238   22.8864 H   0  0  0  0  0  0  0  0  0  0  0  0
    3.5299    3.3260   15.1631 C   0  0  0  0  0  0  0  0  0  0  0  0
    2.8681    2.1987   14.7003 C   0  0  0  0  0  0  0  0  0  0  0  0
    2.5829    2.0356   13.3679 C   0  0  0  0  0  0  0  0  0  0  0  0
    2.9659    3.0201   12.4700 C   0  0  0  0  0  0  0  0  0  0  0  0
    3.6201    4.1321   12.9359 C   0  0  0  0  0  0  0  0  0  0  0  0
    3.9042    4.2944   14.2629 C   0  0  0  0  0  0  0  0  0  0  0  0
    2.6027    2.8140   10.7671 S   0  0  0  0  0  0  0  0  0  0  0  0
    3.9422    2.8075   10.0482 O   0  0  0  0  0  0  0  0  0  0  0  0
    1.9535    1.4750   10.5451 O   0  0  0  0  0  0  0  0  0  0  0  0
    1.6114    4.1029   10.2522 N   0  0  0  0  0  0  0  0  0  0  0  0
    1.7004    4.4135    8.8621 C   0  0  0  0  0  0  0  0  0  0  0  0
    0.7077    3.5608    8.1048 C   0  0  0  0  0  0  0  0  0  0  0  0
   -0.5748    3.9767    8.4958 O   0  0  0  0  0  0  0  0  0  0  0  0
   -0.7493    3.5178    9.8108 C   0  0  0  0  0  0  0  0  0  0  0  0
    0.2732    4.0725   10.7467 C   0  0  0  0  0  0  0  0  0  0  0  0
    4.1306    0.3503   21.1275 N   0  0  0  0  0  0  0  0  0  0  0  0
    4.8378   -0.3970   21.1902 H   0  0  0  0  0  0  0  0  0  0  0  0
    3.2195    0.6899   22.2000 C   0  0  0  0  0  0  0  0  0  0  0  0
    3.5004    2.0681   22.7586 C   0  0  0  0  0  0  0  0  0  0  0  0
    5.9091    2.6097   23.2085 C   0  0  0  0  0  0  0  0  0  0  0  0
    4.6867    1.9075   23.7164 C   0  0  0  0  0  0  0  0  0  0  0  0
 37 38  1  0  0  0
 38 36  1  0  0  0
 36 35  1  0  0  0
 35 33  1  0  0  0
 33  1  1  0  0  0
  1  2  2  0  0  0
  2  3  1  0  0  0
  3  4  2  0  0  0
  4  5  1  0  0  0
  5  6  2  0  0  0
  6  7  1  0  0  0
  7 10  1  0  0  0
 10 11  1  0  0  0
 11 12  1  0  0  0
 12 13  1  0  0  0
 13 14  1  0  0  0
 13 15  1  0  0  0
 15 16  1  0  0  0
  7  8  1  0  0  0
  8  9  2  0  0  0
  5 18  1  0  0  0
 18 19  2  0  0  0
 19 20  1  0  0  0
 20 21  2  0  0  0
 21 22  1  0  0  0
 22 23  2  0  0  0
 21 24  1  0  0  0
 24 25  2  0  0  0
 24 26  2  0  0  0
 24 27  1  0  0  0
 27 28  1  0  0  0
 28 29  1  0  0  0
 29 30  1  0  0  0
 30 31  1  0  0  0
 31 32  1  0  0  0
  9  1  1  0  0  0
 23 18  1  0  0  0
 32 27  1  0  0  0
  8  4  1  0  0  0
 16 10  1  0  0  0
 33 34  1  0  0  0
 14 17  1  0  0  0
M  END
> <minimizedAffinity>
-8.37331

> <CNNscore>
0.5158029199

> <CNNaffinity>
7.1810126305

> <CNN_VS>
3.7039873600

> <CNNaffinity_variance>
0.2043787539

$$$$
[H]O[C@]1([H])C([H])([H])C([H])([H])[C@@]([H])(n2c([H])c(-c3c([H])c([H])c(S(=O)(=O)N4C([H])([H])C([H])([H])OC([H])([H])C4([H])[H])c([H])c3[H])c3c([H])nc(N([H])C([H])([H])C([H])([H])C([H])([H])C([H])([H])[H])nc32)C([H])([H])C1([H])[H]


 38 42  0  0  0  0  0  0  0  0999 V2000
    3.6186    1.7298   17.6093 C   0  0  0  0  0  0  0  0  0  0  0  0
    3.2679    1.2903   16.3841 N   0  0  0  0  0  0  0  0  0  0  0  0
    3.2301    2.0816   15.2968 C   0  0  0  0  0  0  0  0  0  0  0  0
    3.5626    3.3925   15.4401 C   0  0  0  0  0  0  0  0  0  0  0  0
    3.6189    4.4270   14.5340 C   0  0  0  0  0  0  0  0  0  0  0  0
    4.0213    5.5353   15.2482 C   0  0  0  0  0  0  0  0  0  0  0  0
    4.1984    5.1600   16.5497 N   0  0  0  0  0  0  0  0  0  0  0  0
    3.9265    3.8632   16.6939 C   0  0  0  0  0  0  0  0  0  0  0  0
    3.9485    3.0463   17.7326 N   0  0  0  0  0  0  0  0  0  0  0  0
    4.6257    6.1273   17.5472 C   0  0  0  0  0  0  0  0  0  0  0  0
    5.0766    7.3556   16.8345 C   0  0  0  0  0  0  0  0  0  0  0  0
    5.1370    8.5848   17.6666 C   0  0  0  0  0  0  0  0  0  0  0  0
    4.0020    8.7353   18.6396 C   0  0  0  0  0  0  0  0  0  0  0  0
    4.2326    9.8647   19.4089 O   0  0  0  0  0  0  0  0  0  0  0  0
    4.0033    7.4670   19.5033 C   0  0  0  0  0  0  0  0  0  0  0  0
    3.5611    6.3446   18.5648 C   0  0  0  0  0  0  0  0  0  0  0  0
    3.9760    9.7405   20.3605 H   0  0  0  0  0  0  0  0  0  0  0  0
    3.3240    4.4343   13.0913 C   0  0  0  0  0  0  0  0  0  0  0  0
    2.0345    4.6696   12.6387 C   0  0  0  0  0  0  0  0  0  0  0  0
    1.7392    4.6776   11.2986 C   0  0  0  0  0  0  0  0  0  0  0  0
    2.7534    4.4455   10.3823 C   0  0  0  0  0  0  0  0  0  0  0  0
    4.0262    4.2136   10.8381 C   0  0  0  0  0  0  0  0  0  0  0  0
    4.3202    4.2055   12.1728 C   0  0  0  0  0  0  0  0  0  0  0  0
    2.3784    4.4551    8.6694 S   0  0  0  0  0  0  0  0  0  0  0  0
    3.1763    3.3153    8.0569 O   0  0  0  0  0  0  0  0  0  0  0  0
    0.9177    4.1562    8.4680 O   0  0  0  0  0  0  0  0  0  0  0  0
    2.8225    5.9658    8.0138 N   0  0  0  0  0  0  0  0  0  0  0  0
    1.8810    6.5261    7.0994 C   0  0  0  0  0  0  0  0  0  0  0  0
    0.8705    7.3413    7.8743 C   0  0  0  0  0  0  0  0  0  0  0  0
    1.5569    8.4387    8.4178 O   0  0  0  0  0  0  0  0  0  0  0  0
    2.3594    7.9248    9.4484 C   0  0  0  0  0  0  0  0  0  0  0  0
    3.3348    6.9076    8.9555 C   0  0  0  0  0  0  0  0  0  0  0  0
    3.6476    0.8616   18.7411 N   0  0  0  0  0  0  0  0  0  0  0  0
    3.1033   -0.0131   18.7061 H   0  0  0  0  0  0  0  0  0  0  0  0
    4.4471    1.2686   19.8773 C   0  0  0  0  0  0  0  0  0  0  0  0
    3.7006    1.0876   21.1813 C   0  0  0  0  0  0  0  0  0  0  0  0
    6.0661    1.6218   21.8265 C   0  0  0  0  0  0  0  0  0  0  0  0
    4.6399    1.5883   22.2846 C   0  0  0  0  0  0  0  0  0  0  0  0
 37 38  1  0  0  0
 38 36  1  0  0  0
 36 35  1  0  0  0
 35 33  1  0  0  0
 33  1  1  0  0  0
  1  2  2  0  0  0
  2  3  1  0  0  0
  3  4  2  0  0  0
  4  5  1  0  0  0
  5  6  2  0  0  0
  6  7  1  0  0  0
  7 10  1  0  0  0
 10 11  1  0  0  0
 11 12  1  0  0  0
 12 13  1  0  0  0
 13 14  1  0  0  0
 13 15  1  0  0  0
 15 16  1  0  0  0
  7  8  1  0  0  0
  8  9  2  0  0  0
  5 18  1  0  0  0
 18 19  2  0  0  0
 19 20  1  0  0  0
 20 21  2  0  0  0
 21 22  1  0  0  0
 22 23  2  0  0  0
 21 24  1  0  0  0
 24 25  2  0  0  0
 24 26  2  0  0  0
 24 27  1  0  0  0
 27 28  1  0  0  0
 28 29  1  0  0  0
 29 30  1  0  0  0
 30 31  1  0  0  0
 31 32  1  0  0  0
  9  1  1  0  0  0
 23 18  1  0  0  0
 32 27  1  0  0  0
  8  4  1  0  0  0
 16 10  1  0  0  0
 33 34  1  0  0  0
 14 17  1  0  0  0
M  END
> <minimizedAffinity>
-7.02503

> <CNNscore>
0.3406676054

> <CNNaffinity>
6.8988828659

> <CNN_VS>
2.3502259254

> <CNNaffinity_variance>
0.4117492139

$$$$
[H]O[C@]1([H])C([H])([H])C([H])([H])[C@@]([H])(n2c([H])c(-c3c([H])c([H])c(S(=O)(=O)N4C([H])([H])C([H])([H])OC([H])([H])C4([H])[H])c([H])c3[H])c3c([H])nc(N([H])C([H])([H])C([H])([H])C([H])([H])C([H])([H])[H])nc32)C([H])([H])C1([H])[H]


 38 42  0  0  0  0  0  0  0  0999 V2000
    4.1265    1.7700   18.9580 C   0  0  0  0  0  0  0  0  0  0  0  0
    3.5915    1.5206   17.7460 N   0  0  0  0  0  0  0  0  0  0  0  0
    3.3022    2.4837   16.8524 C   0  0  0  0  0  0  0  0  0  0  0  0
    3.5624    3.7757   17.1882 C   0  0  0  0  0  0  0  0  0  0  0  0
    3.3810    4.9545   16.5013 C   0  0  0  0  0  0  0  0  0  0  0  0
    3.8272    5.9542   17.3390 C   0  0  0  0  0  0  0  0  0  0  0  0
    4.2628    5.3747   18.4968 N   0  0  0  0  0  0  0  0  0  0  0  0
    4.1132    4.0518   18.4318 C   0  0  0  0  0  0  0  0  0  0  0  0
    4.3800    3.0706   19.2760 N   0  0  0  0  0  0  0  0  0  0  0  0
    4.7946    6.1887   19.5773 C   0  0  0  0  0  0  0  0  0  0  0  0
    4.1481    5.7500   20.8460 C   0  0  0  0  0  0  0  0  0  0  0  0
    4.8571    6.1484   22.0892 C   0  0  0  0  0  0  0  0  0  0  0  0
    6.3543    6.0470   22.0128 C   0  0  0  0  0  0  0  0  0  0  0  0
    6.8864    6.5347   23.1959 O   0  0  0  0  0  0  0  0  0  0  0  0
    6.7842    6.9062   20.8164 C   0  0  0  0  0  0  0  0  0  0  0  0
    6.2828    6.1538   19.5841 C   0  0  0  0  0  0  0  0  0  0  0  0
    7.7155    7.0634   23.0552 H   0  0  0  0  0  0  0  0  0  0  0  0
    2.8301    5.1867   15.1555 C   0  0  0  0  0  0  0  0  0  0  0  0
    3.3273    4.4921   14.0632 C   0  0  0  0  0  0  0  0  0  0  0  0
    2.8292    4.6965   12.8009 C   0  0  0  0  0  0  0  0  0  0  0  0
    1.8084    5.6168   12.6187 C   0  0  0  0  0  0  0  0  0  0  0  0
    1.3221    6.2997   13.7044 C   0  0  0  0  0  0  0  0  0  0  0  0
    1.8183    6.0962   14.9615 C   0  0  0  0  0  0  0  0  0  0  0  0
    1.1703    5.8798   11.0068 S   0  0  0  0  0  0  0  0  0  0  0  0
    0.6459    7.3065   10.9887 O   0  0  0  0  0  0  0  0  0  0  0  0
    2.2831    5.7844    9.9987 O   0  0  0  0  0  0  0  0  0  0  0  0
   -0.0669    4.7442   10.7088 N   0  0  0  0  0  0  0  0  0  0  0  0
   -0.8647    4.4105   11.8441 C   0  0  0  0  0  0  0  0  0  0  0  0
   -2.0110    5.3914   11.9432 C   0  0  0  0  0  0  0  0  0  0  0  0
   -2.8388    5.1707   10.8311 O   0  0  0  0  0  0  0  0  0  0  0  0
   -2.1374    5.6630    9.7194 C   0  0  0  0  0  0  0  0  0  0  0  0
   -0.8273    4.9742    9.5235 C   0  0  0  0  0  0  0  0  0  0  0  0
    4.4206    0.7227   19.8812 N   0  0  0  0  0  0  0  0  0  0  0  0
    4.2974   -0.2539   19.5753 H   0  0  0  0  0  0  0  0  0  0  0  0
    4.8776    1.1024   21.2015 C   0  0  0  0  0  0  0  0  0  0  0  0
    3.7291    1.2169   22.1804 C   0  0  0  0  0  0  0  0  0  0  0  0
    5.4861    2.5282   23.4014 C   0  0  0  0  0  0  0  0  0  0  0  0
    4.0315    2.4407   23.0528 C   0  0  0  0  0  0  0  0  0  0  0  0
 37 38  1  0  0  0
 38 36  1  0  0  0
 36 35  1  0  0  0
 35 33  1  0  0  0
 33  1  1  0  0  0
  1  2  2  0  0  0
  2  3  1  0  0  0
  3  4  2  0  0  0
  4  5  1  0  0  0
  5  6  2  0  0  0
  6  7  1  0  0  0
  7 10  1  0  0  0
 10 11  1  0  0  0
 11 12  1  0  0  0
 12 13  1  0  0  0
 13 14  1  0  0  0
 13 15  1  0  0  0
 15 16  1  0  0  0
  7  8  1  0  0  0
  8  9  2  0  0  0
  5 18  1  0  0  0
 18 19  2  0  0  0
 19 20  1  0  0  0
 20 21  2  0  0  0
 21 22  1  0  0  0
 22 23  2  0  0  0
 21 24  1  0  0  0
 24 25  2  0  0  0
 24 26  2  0  0  0
 24 27  1  0  0  0
 27 28  1  0  0  0
 28 29  1  0  0  0
 29 30  1  0  0  0
 30 31  1  0  0  0
 31 32  1  0  0  0
  9  1  1  0  0  0
 23 18  1  0  0  0
 32 27  1  0  0  0
  8  4  1  0  0  0
 16 10  1  0  0  0
 33 34  1  0  0  0
 14 17  1  0  0  0
M  END
> <minimizedAffinity>
-7.83661

> <CNNscore>
0.3359428048

> <CNNaffinity>
6.9266166687

> <CNN_VS>
2.3269469738

> <CNNaffinity_variance>
0.2347515076

$$$$
[H]O[C@]1([H])C([H])([H])C([H])([H])[C@@]([H])(n2c([H])c(-c3c([H])c([H])c(S(=O)(=O)N4C([H])([H])C([H])([H])OC([H])([H])C4([H])[H])c([H])c3[H])c3c([H])nc(N([H])C([H])([H])C([H])([H])C([H])([H])C([H])([H])[H])nc32)C([H])([H])C1([H])[H]


 38 42  0  0  0  0  0  0  0  0999 V2000
    4.2302    1.4545   20.2077 C   0  0  0  0  0  0  0  0  0  0  0  0
    3.7608    0.8019   19.1256 N   0  0  0  0  0  0  0  0  0  0  0  0
    3.6340    1.3731   17.9142 C   0  0  0  0  0  0  0  0  0  0  0  0
    3.9978    2.6759   17.7731 C   0  0  0  0  0  0  0  0  0  0  0  0
    3.9851    3.5172   16.6840 C   0  0  0  0  0  0  0  0  0  0  0  0
    4.4684    4.7273   17.1337 C   0  0  0  0  0  0  0  0  0  0  0  0
    4.7599    4.6005   18.4622 N   0  0  0  0  0  0  0  0  0  0  0  0
    4.4834    3.3641   18.8762 C   0  0  0  0  0  0  0  0  0  0  0  0
    4.5895    2.7590   20.0463 N   0  0  0  0  0  0  0  0  0  0  0  0
    5.2922    5.7252   19.2137 C   0  0  0  0  0  0  0  0  0  0  0  0
    5.5894    6.8232   18.2513 C   0  0  0  0  0  0  0  0  0  0  0  0
    5.7252    8.1744   18.8538 C   0  0  0  0  0  0  0  0  0  0  0  0
    4.7392    8.4710   19.9481 C   0  0  0  0  0  0  0  0  0  0  0  0
    5.0379    9.7153   20.4801 O   0  0  0  0  0  0  0  0  0  0  0  0
    4.9126    7.3641   20.9966 C   0  0  0  0  0  0  0  0  0  0  0  0
    4.3799    6.0961   20.3300 C   0  0  0  0  0  0  0  0  0  0  0  0
    4.9272    9.7480   21.4668 H   0  0  0  0  0  0  0  0  0  0  0  0
    3.5578    3.2600   15.2984 C   0  0  0  0  0  0  0  0  0  0  0  0
    2.7518    2.1711   15.0022 C   0  0  0  0  0  0  0  0  0  0  0  0
    2.3455    1.9129   13.7171 C   0  0  0  0  0  0  0  0  0  0  0  0
    2.7511    2.7603   12.6976 C   0  0  0  0  0  0  0  0  0  0  0  0
    3.5482    3.8352   12.9989 C   0  0  0  0  0  0  0  0  0  0  0  0
    3.9530    4.0922   14.2788 C   0  0  0  0  0  0  0  0  0  0  0  0
    2.2333    2.4325   11.0548 S   0  0  0  0  0  0  0  0  0  0  0  0
    1.0178    1.5267   11.1688 O   0  0  0  0  0  0  0  0  0  0  0  0
    1.7949    3.7121   10.3959 O   0  0  0  0  0  0  0  0  0  0  0  0
    3.5103    1.6791   10.2116 N   0  0  0  0  0  0  0  0  0  0  0  0
    3.1677    0.4504    9.5716 C   0  0  0  0  0  0  0  0  0  0  0  0
    2.6437    0.7492    8.1852 C   0  0  0  0  0  0  0  0  0  0  0  0
    3.7165    1.2670    7.4425 O   0  0  0  0  0  0  0  0  0  0  0  0
    3.9503    2.5572    7.9432 C   0  0  0  0  0  0  0  0  0  0  0  0
    4.2939    2.5493    9.3961 C   0  0  0  0  0  0  0  0  0  0  0  0
    4.3511    0.8164   21.4781 N   0  0  0  0  0  0  0  0  0  0  0  0
    4.9325   -0.0316   21.5511 H   0  0  0  0  0  0  0  0  0  0  0  0
    3.6425    1.4065   22.5942 C   0  0  0  0  0  0  0  0  0  0  0  0
    4.5912    1.8670   23.6798 C   0  0  0  0  0  0  0  0  0  0  0  0
    3.4874    4.1071   23.4325 C   0  0  0  0  0  0  0  0  0  0  0  0
    4.7923    3.3712   23.4619 C   0  0  0  0  0  0  0  0  0  0  0  0
 37 38  1  0  0  0
 38 36  1  0  0  0
 36 35  1  0  0  0
 35 33  1  0  0  0
 33  1  1  0  0  0
  1  2  2  0  0  0
  2  3  1  0  0  0
  3  4  2  0  0  0
  4  5  1  0  0  0
  5  6  2  0  0  0
  6  7  1  0  0  0
  7 10  1  0  0  0
 10 11  1  0  0  0
 11 12  1  0  0  0
 12 13  1  0  0  0
 13 14  1  0  0  0
 13 15  1  0  0  0
 15 16  1  0  0  0
  7  8  1  0  0  0
  8  9  2  0  0  0
  5 18  1  0  0  0
 18 19  2  0  0  0
 19 20  1  0  0  0
 20 21  2  0  0  0
 21 22  1  0  0  0
 22 23  2  0  0  0
 21 24  1  0  0  0
 24 25  2  0  0  0
 24 26  2  0  0  0
 24 27  1  0  0  0
 27 28  1  0  0  0
 28 29  1  0  0  0
 29 30  1  0  0  0
 30 31  1  0  0  0
 31 32  1  0  0  0
  9  1  1  0  0  0
 23 18  1  0  0  0
 32 27  1  0  0  0
  8  4  1  0  0  0
 16 10  1  0  0  0
 33 34  1  0  0  0
 14 17  1  0  0  0
M  END
> <minimizedAffinity>
-8.41933

> <CNNscore>
0.3084877729

> <CNNaffinity>
6.9788641930

> <CNN_VS>
2.1528942585

> <CNNaffinity_variance>
0.3249092102

$$$$
[H]O[C@]1([H])C([H])([H])C([H])([H])[C@@]([H])(n2c([H])c(-c3c([H])c([H])c(S(=O)(=O)N4C([H])([H])C([H])([H])OC([H])([H])C4([H])[H])c([H])c3[H])c3c([H])nc(N([H])C([H])([H])C([H])([H])C([H])([H])C([H])([H])[H])nc32)C([H])([H])C1([H])[H]


 38 42  0  0  0  0  0  0  0  0999 V2000
    4.5818    1.7019   20.4152 C   0  0  0  0  0  0  0  0  0  0  0  0
    4.0270    1.0579   19.3688 N   0  0  0  0  0  0  0  0  0  0  0  0
    3.8999    1.6047   18.1463 C   0  0  0  0  0  0  0  0  0  0  0  0
    4.3541    2.8723   17.9552 C   0  0  0  0  0  0  0  0  0  0  0  0
    4.3650    3.6830   16.8430 C   0  0  0  0  0  0  0  0  0  0  0  0
    4.9525    4.8648   17.2408 C   0  0  0  0  0  0  0  0  0  0  0  0
    5.2810    4.7518   18.5620 N   0  0  0  0  0  0  0  0  0  0  0  0
    4.9284    3.5511   19.0208 C   0  0  0  0  0  0  0  0  0  0  0  0
    5.0310    2.9710   20.2039 N   0  0  0  0  0  0  0  0  0  0  0  0
    5.9217    5.8528   19.2621 C   0  0  0  0  0  0  0  0  0  0  0  0
    6.9821    6.4083   18.3749 C   0  0  0  0  0  0  0  0  0  0  0  0
    7.4434    7.7778   18.7196 C   0  0  0  0  0  0  0  0  0  0  0  0
    6.3497    8.7144   19.1490 C   0  0  0  0  0  0  0  0  0  0  0  0
    6.9270    9.9158   19.5283 O   0  0  0  0  0  0  0  0  0  0  0  0
    5.6449    8.0402   20.3335 C   0  0  0  0  0  0  0  0  0  0  0  0
    4.9124    6.8410   19.7320 C   0  0  0  0  0  0  0  0  0  0  0  0
    6.4884   10.3189   20.3232 H   0  0  0  0  0  0  0  0  0  0  0  0
    3.8707    3.4219   15.4807 C   0  0  0  0  0  0  0  0  0  0  0  0
    4.0408    4.3651   14.4785 C   0  0  0  0  0  0  0  0  0  0  0  0
    3.5848    4.1416   13.2037 C   0  0  0  0  0  0  0  0  0  0  0  0
    2.9418    2.9475   12.9162 C   0  0  0  0  0  0  0  0  0  0  0  0
    2.7775    2.0197   13.9131 C   0  0  0  0  0  0  0  0  0  0  0  0
    3.2316    2.2424   15.1828 C   0  0  0  0  0  0  0  0  0  0  0  0
    2.3581    2.6596   11.2880 S   0  0  0  0  0  0  0  0  0  0  0  0
    3.1497    3.5923   10.3855 O   0  0  0  0  0  0  0  0  0  0  0  0
    2.6713    1.2460   10.8791 O   0  0  0  0  0  0  0  0  0  0  0  0
    0.6856    2.9899   11.2328 N   0  0  0  0  0  0  0  0  0  0  0  0
    0.2301    3.9537   12.1817 C   0  0  0  0  0  0  0  0  0  0  0  0
    0.3583    5.3342   11.5784 C   0  0  0  0  0  0  0  0  0  0  0  0
   -0.5531    5.4040   10.5130 O   0  0  0  0  0  0  0  0  0  0  0  0
   -0.0237    4.5970    9.4938 C   0  0  0  0  0  0  0  0  0  0  0  0
    0.1484    3.1778    9.9243 C   0  0  0  0  0  0  0  0  0  0  0  0
    4.7002    1.0905   21.6988 N   0  0  0  0  0  0  0  0  0  0  0  0
    5.3779    0.3232   21.8193 H   0  0  0  0  0  0  0  0  0  0  0  0
    3.8528    1.5916   22.7603 C   0  0  0  0  0  0  0  0  0  0  0  0
    4.5912    2.5633   23.6552 C   0  0  0  0  0  0  0  0  0  0  0  0
    4.4768    4.9531   22.8981 C   0  0  0  0  0  0  0  0  0  0  0  0
    3.7739    3.8603   23.6443 C   0  0  0  0  0  0  0  0  0  0  0  0
 37 38  1  0  0  0
 38 36  1  0  0  0
 36 35  1  0  0  0
 35 33  1  0  0  0
 33  1  1  0  0  0
  1  2  2  0  0  0
  2  3  1  0  0  0
  3  4  2  0  0  0
  4  5  1  0  0  0
  5  6  2  0  0  0
  6  7  1  0  0  0
  7 10  1  0  0  0
 10 11  1  0  0  0
 11 12  1  0  0  0
 12 13  1  0  0  0
 13 14  1  0  0  0
 13 15  1  0  0  0
 15 16  1  0  0  0
  7  8  1  0  0  0
  8  9  2  0  0  0
  5 18  1  0  0  0
 18 19  2  0  0  0
 19 20  1  0  0  0
 20 21  2  0  0  0
 21 22  1  0  0  0
 22 23  2  0  0  0
 21 24  1  0  0  0
 24 25  2  0  0  0
 24 26  2  0  0  0
 24 27  1  0  0  0
 27 28  1  0  0  0
 28 29  1  0  0  0
 29 30  1  0  0  0
 30 31  1  0  0  0
 31 32  1  0  0  0
  9  1  1  0  0  0
 23 18  1  0  0  0
 32 27  1  0  0  0
  8  4  1  0  0  0
 16 10  1  0  0  0
 33 34  1  0  0  0
 14 17  1  0  0  0
M  END
> <minimizedAffinity>
-8.47629

> <CNNscore>
0.2921629250

> <CNNaffinity>
6.9148736000

> <CNN_VS>
2.0202696323

> <CNNaffinity_variance>
0.2815108597

$$$$
[H]O[C@]1([H])C([H])([H])C([H])([H])[C@@]([H])(n2c([H])c(-c3c([H])c([H])c(S(=O)(=O)C([H])([H])[H])c(F)c3[H])c3c([H])nc(N([H])C([H])([H])C([H])([H])C([H])([H])C([H])([H])[H])nc32)C([H])([H])C1([H])[H]


 34 37  0  0  0  0  0  0  0  0999 V2000
    2.9512    0.2196   18.5841 C   0  0  0  0  0  0  0  0  0  0  0  0
    2.3828   -0.1547   17.4244 N   0  0  0  0  0  0  0  0  0  0  0  0
    2.3407    0.6450   16.3366 C   0  0  0  0  0  0  0  0  0  0  0  0
    2.8979    1.8970   16.4016 C   0  0  0  0  0  0  0  0  0  0  0  0
    3.0034    2.9064   15.4769 C   0  0  0  0  0  0  0  0  0  0  0  0
    3.6785    3.9331   16.1478 C   0  0  0  0  0  0  0  0  0  0  0  0
    3.9514    3.5366   17.4036 N   0  0  0  0  0  0  0  0  0  0  0  0
    3.4830    2.2840   17.5932 C   0  0  0  0  0  0  0  0  0  0  0  0
    3.4921    1.4320   18.6508 N   0  0  0  0  0  0  0  0  0  0  0  0
    4.6400    4.3180   18.4104 C   0  0  0  0  0  0  0  0  0  0  0  0
    5.8126    5.0298   17.7826 C   0  0  0  0  0  0  0  0  0  0  0  0
    6.4108    6.0648   18.6826 C   0  0  0  0  0  0  0  0  0  0  0  0
    5.8403    6.0752   20.0651 C   0  0  0  0  0  0  0  0  0  0  0  0
    6.2119    4.9876   20.8359 O   0  0  0  0  0  0  0  0  0  0  0  0
    4.3410    6.1706   20.0503 C   0  0  0  0  0  0  0  0  0  0  0  0
    3.7087    5.3810   18.9526 C   0  0  0  0  0  0  0  0  0  0  0  0
    5.4960    4.7324   21.4748 H   0  0  0  0  0  0  0  0  0  0  0  0
    2.5287    2.9367   14.0992 C   0  0  0  0  0  0  0  0  0  0  0  0
    2.9626    1.9786   13.1952 C   0  0  0  0  0  0  0  0  0  0  0  0
    2.5264    1.9858   11.8745 C   0  0  0  0  0  0  0  0  0  0  0  0
    1.6558    2.9444   11.4412 C   0  0  0  0  0  0  0  0  0  0  0  0
    1.2232    3.8969   12.3360 C   0  0  0  0  0  0  0  0  0  0  0  0
    0.3698    4.8549   11.9538 F   0  0  0  0  0  0  0  0  0  0  0  0
    1.6510    3.8999   13.6545 C   0  0  0  0  0  0  0  0  0  0  0  0
    1.0625    3.0196    9.7975 S   0  0  0  0  0  0  0  0  0  0  0  0
    1.7400    4.4939    9.0535 C   0  0  0  0  0  0  0  0  0  0  0  0
    1.6606    1.8462    9.0587 O   0  0  0  0  0  0  0  0  0  0  0  0
   -0.4183    3.0069    9.7581 O   0  0  0  0  0  0  0  0  0  0  0  0
    2.9401   -0.7013   19.6681 N   0  0  0  0  0  0  0  0  0  0  0  0
    2.4501   -1.6201   19.6081 H   0  0  0  0  0  0  0  0  0  0  0  0
    3.6137   -0.4122   20.9247 C   0  0  0  0  0  0  0  0  0  0  0  0
    2.8921    0.5988   21.7455 C   0  0  0  0  0  0  0  0  0  0  0  0
    3.9304    2.7744   22.4242 C   0  0  0  0  0  0  0  0  0  0  0  0
    3.7654    1.3216   22.7258 C   0  0  0  0  0  0  0  0  0  0  0  0
 33 34  1  0  0  0
 34 32  1  0  0  0
 32 31  1  0  0  0
 31 29  1  0  0  0
 29  1  1  0  0  0
  1  2  2  0  0  0
  2  3  1  0  0  0
  3  4  2  0  0  0
  4  5  1  0  0  0
  5  6  2  0  0  0
  6  7  1  0  0  0
  7 10  1  0  0  0
 10 11  1  0  0  0
 11 12  1  0  0  0
 12 13  1  0  0  0
 13 14  1  0  0  0
 13 15  1  0  0  0
 15 16  1  0  0  0
  7  8  1  0  0  0
  8  9  2  0  0  0
  5 18  1  0  0  0
 18 19  2  0  0  0
 19 20  1  0  0  0
 20 21  2  0  0  0
 21 22  1  0  0  0
 22 23  1  0  0  0
 22 24  2  0  0  0
 21 25  1  0  0  0
 25 26  1  0  0  0
 25 27  2  0  0  0
 25 28  2  0  0  0
  9  1  1  0  0  0
 24 18  1  0  0  0
  8  4  1  0  0  0
 16 10  1  0  0  0
 29 30  1  0  0  0
 14 17  1  0  0  0
M  END
> <minimizedAffinity>
-7.68277

> <CNNscore>
0.9277527332

> <CNNaffinity>
7.4262490273

> <CNN_VS>
6.8897228241

> <CNNaffinity_variance>
0.0476850122

$$$$
[H]O[C@]1([H])C([H])([H])C([H])([H])[C@@]([H])(n2c([H])c(-c3c([H])c([H])c(S(=O)(=O)C([H])([H])[H])c(F)c3[H])c3c([H])nc(N([H])C([H])([H])C([H])([H])C([H])([H])C([H])([H])[H])nc32)C([H])([H])C1([H])[H]


 34 37  0  0  0  0  0  0  0  0999 V2000
    3.7522    1.2590   18.9740 C   0  0  0  0  0  0  0  0  0  0  0  0
    3.5247    0.6520   17.7960 N   0  0  0  0  0  0  0  0  0  0  0  0
    3.4729    1.3215   16.6240 C   0  0  0  0  0  0  0  0  0  0  0  0
    3.6586    2.6808   16.6183 C   0  0  0  0  0  0  0  0  0  0  0  0
    3.6615    3.6049   15.6028 C   0  0  0  0  0  0  0  0  0  0  0  0
    3.9075    4.8285   16.2373 C   0  0  0  0  0  0  0  0  0  0  0  0
    4.0409    4.6224   17.5596 N   0  0  0  0  0  0  0  0  0  0  0  0
    3.8929    3.3071   17.8286 C   0  0  0  0  0  0  0  0  0  0  0  0
    3.9327    2.5760   18.9724 N   0  0  0  0  0  0  0  0  0  0  0  0
    4.3029    5.6409   18.5558 C   0  0  0  0  0  0  0  0  0  0  0  0
    5.7850    5.7122   18.8275 C   0  0  0  0  0  0  0  0  0  0  0  0
    6.1686    6.9128   19.6341 C   0  0  0  0  0  0  0  0  0  0  0  0
    5.0055    7.7043   20.1418 C   0  0  0  0  0  0  0  0  0  0  0  0
    4.2958    7.0781   21.1513 O   0  0  0  0  0  0  0  0  0  0  0  0
    4.0561    8.0736   19.0375 C   0  0  0  0  0  0  0  0  0  0  0  0
    3.8796    6.9930   18.0229 C   0  0  0  0  0  0  0  0  0  0  0  0
    3.3313    7.3114   21.1172 H   0  0  0  0  0  0  0  0  0  0  0  0
    3.4559    3.3945   14.1754 C   0  0  0  0  0  0  0  0  0  0  0  0
    2.6760    2.3351   13.7361 C   0  0  0  0  0  0  0  0  0  0  0  0
    2.4652    2.1110   12.3796 C   0  0  0  0  0  0  0  0  0  0  0  0
    3.0273    2.9370   11.4489 C   0  0  0  0  0  0  0  0  0  0  0  0
    3.8020    3.9894   11.8816 C   0  0  0  0  0  0  0  0  0  0  0  0
    4.3720    4.8238   11.0035 F   0  0  0  0  0  0  0  0  0  0  0  0
    4.0192    4.2228   13.2306 C   0  0  0  0  0  0  0  0  0  0  0  0
    2.8087    2.7203    9.7271 S   0  0  0  0  0  0  0  0  0  0  0  0
    4.3918    2.2601    9.0428 C   0  0  0  0  0  0  0  0  0  0  0  0
    1.8948    1.5321    9.5447 O   0  0  0  0  0  0  0  0  0  0  0  0
    2.2643    3.9444    9.0948 O   0  0  0  0  0  0  0  0  0  0  0  0
    3.7863    0.4583   20.1492 N   0  0  0  0  0  0  0  0  0  0  0  0
    3.3318   -0.4795   20.1927 H   0  0  0  0  0  0  0  0  0  0  0  0
    4.4589    0.9041   21.3597 C   0  0  0  0  0  0  0  0  0  0  0  0
    5.9423    0.8871   21.2337 C   0  0  0  0  0  0  0  0  0  0  0  0
    5.7954    2.5536   23.0973 C   0  0  0  0  0  0  0  0  0  0  0  0
    6.6306    1.9722   22.0050 C   0  0  0  0  0  0  0  0  0  0  0  0
 33 34  1  0  0  0
 34 32  1  0  0  0
 32 31  1  0  0  0
 31 29  1  0  0  0
 29  1  1  0  0  0
  1  2  2  0  0  0
  2  3  1  0  0  0
  3  4  2  0  0  0
  4  5  1  0  0  0
  5  6  2  0  0  0
  6  7  1  0  0  0
  7 10  1  0  0  0
 10 11  1  0  0  0
 11 12  1  0  0  0
 12 13  1  0  0  0
 13 14  1  0  0  0
 13 15  1  0  0  0
 15 16  1  0  0  0
  7  8  1  0  0  0
  8  9  2  0  0  0
  5 18  1  0  0  0
 18 19  2  0  0  0
 19 20  1  0  0  0
 20 21  2  0  0  0
 21 22  1  0  0  0
 22 23  1  0  0  0
 22 24  2  0  0  0
 21 25  1  0  0  0
 25 26  1  0  0  0
 25 27  2  0  0  0
 25 28  2  0  0  0
  9  1  1  0  0  0
 24 18  1  0  0  0
  8  4  1  0  0  0
 16 10  1  0  0  0
 29 30  1  0  0  0
 14 17  1  0  0  0
M  END
> <minimizedAffinity>
-8.16310

> <CNNscore>
0.5063279867

> <CNNaffinity>
7.1130127907

> <CNN_VS>
3.6015174389

> <CNNaffinity_variance>
0.4197095931

$$$$
[H]O[C@]1([H])C([H])([H])C([H])([H])[C@@]([H])(n2c([H])c(-c3c([H])c([H])c(S(=O)(=O)C([H])([H])[H])c(F)c3[H])c3c([H])nc(N([H])C([H])([H])C([H])([H])C([H])([H])C([H])([H])[H])nc32)C([H])([H])C1([H])[H]


 34 37  0  0  0  0  0  0  0  0999 V2000
    2.0811    5.6707   12.5957 C   0  0  0  0  0  0  0  0  0  0  0  0
    1.8002    4.3615   12.7192 N   0  0  0  0  0  0  0  0  0  0  0  0
    2.1579    3.4444   11.7944 C   0  0  0  0  0  0  0  0  0  0  0  0
    2.8381    3.8502   10.6741 C   0  0  0  0  0  0  0  0  0  0  0  0
    3.3206    3.1596    9.5899 C   0  0  0  0  0  0  0  0  0  0  0  0
    3.9209    4.1360    8.7859 C   0  0  0  0  0  0  0  0  0  0  0  0
    3.7918    5.3370    9.3773 N   0  0  0  0  0  0  0  0  0  0  0  0
    3.1280    5.1961   10.5451 C   0  0  0  0  0  0  0  0  0  0  0  0
    2.7400    6.0676   11.5116 N   0  0  0  0  0  0  0  0  0  0  0  0
    4.2824    6.5969    8.8573 C   0  0  0  0  0  0  0  0  0  0  0  0
    5.3791    6.3368    7.8547 C   0  0  0  0  0  0  0  0  0  0  0  0
    5.7508    7.5578    7.0736 C   0  0  0  0  0  0  0  0  0  0  0  0
    5.0863    8.8113    7.5470 C   0  0  0  0  0  0  0  0  0  0  0  0
    5.5579    9.2739    8.7630 O   0  0  0  0  0  0  0  0  0  0  0  0
    3.5945    8.6552    7.6321 C   0  0  0  0  0  0  0  0  0  0  0  0
    3.1672    7.3127    8.1257 C   0  0  0  0  0  0  0  0  0  0  0  0
    4.8432    9.7275    9.2821 H   0  0  0  0  0  0  0  0  0  0  0  0
    3.2412    1.7322    9.3068 C   0  0  0  0  0  0  0  0  0  0  0  0
    2.3366    1.2611    8.3669 C   0  0  0  0  0  0  0  0  0  0  0  0
    2.2395   -0.0963    8.0791 C   0  0  0  0  0  0  0  0  0  0  0  0
    3.0398   -0.9964    8.7224 C   0  0  0  0  0  0  0  0  0  0  0  0
    3.9387   -0.5321    9.6559 C   0  0  0  0  0  0  0  0  0  0  0  0
    4.7425   -1.3795   10.3101 F   0  0  0  0  0  0  0  0  0  0  0  0
    4.0445    0.8182    9.9511 C   0  0  0  0  0  0  0  0  0  0  0  0
    2.9765   -2.7172    8.4154 S   0  0  0  0  0  0  0  0  0  0  0  0
    1.7578   -2.9862    7.1393 C   0  0  0  0  0  0  0  0  0  0  0  0
    4.3120   -3.1101    7.8302 O   0  0  0  0  0  0  0  0  0  0  0  0
    2.6649   -3.4736    9.6503 O   0  0  0  0  0  0  0  0  0  0  0  0
    1.6576    6.5512   13.6295 N   0  0  0  0  0  0  0  0  0  0  0  0
    2.3307    7.1474   14.1582 H   0  0  0  0  0  0  0  0  0  0  0  0
    0.2580    6.6697   14.0082 C   0  0  0  0  0  0  0  0  0  0  0  0
   -0.6231    7.0100   12.8574 C   0  0  0  0  0  0  0  0  0  0  0  0
   -2.9906    7.1678   13.6583 C   0  0  0  0  0  0  0  0  0  0  0  0
   -1.9747    6.3653   12.9149 C   0  0  0  0  0  0  0  0  0  0  0  0
 33 34  1  0  0  0
 34 32  1  0  0  0
 32 31  1  0  0  0
 31 29  1  0  0  0
 29  1  1  0  0  0
  1  2  2  0  0  0
  2  3  1  0  0  0
  3  4  2  0  0  0
  4  5  1  0  0  0
  5  6  2  0  0  0
  6  7  1  0  0  0
  7 10  1  0  0  0
 10 11  1  0  0  0
 11 12  1  0  0  0
 12 13  1  0  0  0
 13 14  1  0  0  0
 13 15  1  0  0  0
 15 16  1  0  0  0
  7  8  1  0  0  0
  8  9  2  0  0  0
  5 18  1  0  0  0
 18 19  2  0  0  0
 19 20  1  0  0  0
 20 21  2  0  0  0
 21 22  1  0  0  0
 22 23  1  0  0  0
 22 24  2  0  0  0
 21 25  1  0  0  0
 25 26  1  0  0  0
 25 27  2  0  0  0
 25 28  2  0  0  0
  9  1  1  0  0  0
 24 18  1  0  0  0
  8  4  1  0  0  0
 16 10  1  0  0  0
 29 30  1  0  0  0
 14 17  1  0  0  0
M  END
> <minimizedAffinity>
-5.40298

> <CNNscore>
0.3741534352

> <CNNaffinity>
6.0197138786

> <CNN_VS>
2.2522966862

> <CNNaffinity_variance>
0.5917367935

$$$$
[H]O[C@]1([H])C([H])([H])C([H])([H])[C@@]([H])(n2c([H])c(-c3c([H])c([H])c(S(=O)(=O)C([H])([H])[H])c(F)c3[H])c3c([H])nc(N([H])C([H])([H])C([H])([H])C([H])([H])C([H])([H])[H])nc32)C([H])([H])C1([H])[H]


 34 37  0  0  0  0  0  0  0  0999 V2000
    4.2919    1.8886   20.1037 C   0  0  0  0  0  0  0  0  0  0  0  0
    4.0171    1.1559   19.0102 N   0  0  0  0  0  0  0  0  0  0  0  0
    3.7952    1.7050   17.7963 C   0  0  0  0  0  0  0  0  0  0  0  0
    3.8491    3.0687   17.6560 C   0  0  0  0  0  0  0  0  0  0  0  0
    3.6714    3.8898   16.5700 C   0  0  0  0  0  0  0  0  0  0  0  0
    3.8562    5.1844   17.0700 C   0  0  0  0  0  0  0  0  0  0  0  0
    4.1284    5.1161   18.3853 N   0  0  0  0  0  0  0  0  0  0  0  0
    4.1317    3.8242   18.7791 C   0  0  0  0  0  0  0  0  0  0  0  0
    4.3450    3.2103   19.9716 N   0  0  0  0  0  0  0  0  0  0  0  0
    4.3816    6.2429   19.2599 C   0  0  0  0  0  0  0  0  0  0  0  0
    5.8651    6.3711   19.5016 C   0  0  0  0  0  0  0  0  0  0  0  0
    6.2340    7.6601   20.1661 C   0  0  0  0  0  0  0  0  0  0  0  0
    5.0613    8.4810   20.5998 C   0  0  0  0  0  0  0  0  0  0  0  0
    4.3761    7.9567   21.6817 O   0  0  0  0  0  0  0  0  0  0  0  0
    4.0919    8.7087   19.4748 C   0  0  0  0  0  0  0  0  0  0  0  0
    3.9252    7.5199   18.5876 C   0  0  0  0  0  0  0  0  0  0  0  0
    3.4068    8.1668   21.6355 H   0  0  0  0  0  0  0  0  0  0  0  0
    3.3577    3.5288   15.1933 C   0  0  0  0  0  0  0  0  0  0  0  0
    2.4400    2.5222   14.9325 C   0  0  0  0  0  0  0  0  0  0  0  0
    2.1240    2.1571   13.6280 C   0  0  0  0  0  0  0  0  0  0  0  0
    2.7168    2.7888   12.5725 C   0  0  0  0  0  0  0  0  0  0  0  0
    3.6283    3.7883   12.8280 C   0  0  0  0  0  0  0  0  0  0  0  0
    4.2331    4.4337   11.8231 F   0  0  0  0  0  0  0  0  0  0  0  0
    3.9512    4.1607   14.1235 C   0  0  0  0  0  0  0  0  0  0  0  0
    2.3718    2.3864   10.9056 S   0  0  0  0  0  0  0  0  0  0  0  0
    1.0417    1.1961   10.9091 C   0  0  0  0  0  0  0  0  0  0  0  0
    1.8337    3.6370   10.2524 O   0  0  0  0  0  0  0  0  0  0  0  0
    3.5771    1.8714   10.2151 O   0  0  0  0  0  0  0  0  0  0  0  0
    4.5090    1.2082   21.3338 N   0  0  0  0  0  0  0  0  0  0  0  0
    5.2366    0.4677   21.4352 H   0  0  0  0  0  0  0  0  0  0  0  0
    3.7260    1.5079   22.5227 C   0  0  0  0  0  0  0  0  0  0  0  0
    4.4448    2.3967   23.4766 C   0  0  0  0  0  0  0  0  0  0  0  0
    4.5273    4.8434   22.9490 C   0  0  0  0  0  0  0  0  0  0  0  0
    3.8072    3.7414   23.6532 C   0  0  0  0  0  0  0  0  0  0  0  0
 33 34  1  0  0  0
 34 32  1  0  0  0
 32 31  1  0  0  0
 31 29  1  0  0  0
 29  1  1  0  0  0
  1  2  2  0  0  0
  2  3  1  0  0  0
  3  4  2  0  0  0
  4  5  1  0  0  0
  5  6  2  0  0  0
  6  7  1  0  0  0
  7 10  1  0  0  0
 10 11  1  0  0  0
 11 12  1  0  0  0
 12 13  1  0  0  0
 13 14  1  0  0  0
 13 15  1  0  0  0
 15 16  1  0  0  0
  7  8  1  0  0  0
  8  9  2  0  0  0
  5 18  1  0  0  0
 18 19  2  0  0  0
 19 20  1  0  0  0
 20 21  2  0  0  0
 21 22  1  0  0  0
 22 23  1  0  0  0
 22 24  2  0  0  0
 21 25  1  0  0  0
 25 26  1  0  0  0
 25 27  2  0  0  0
 25 28  2  0  0  0
  9  1  1  0  0  0
 24 18  1  0  0  0
  8  4  1  0  0  0
 16 10  1  0  0  0
 29 30  1  0  0  0
 14 17  1  0  0  0
M  END
> <minimizedAffinity>
-8.76332

> <CNNscore>
0.3034067452

> <CNNaffinity>
7.0244231224

> <CNN_VS>
2.1312572956

> <CNNaffinity_variance>
0.6937584877

$$$$
[H]O[C@]1([H])C([H])([H])C([H])([H])[C@@]([H])(n2c([H])c(-c3c([H])c([H])c(S(=O)(=O)C([H])([H])[H])c(F)c3[H])c3c([H])nc(N([H])C([H])([H])C([H])([H])C([H])([H])C([H])([H])[H])nc32)C([H])([H])C1([H])[H]


 34 37  0  0  0  0  0  0  0  0999 V2000
    4.4681    2.0355   20.1653 C   0  0  0  0  0  0  0  0  0  0  0  0
    4.1886    1.2872   19.0837 N   0  0  0  0  0  0  0  0  0  0  0  0
    3.9168    1.8208   17.8730 C   0  0  0  0  0  0  0  0  0  0  0  0
    3.9221    3.1846   17.7238 C   0  0  0  0  0  0  0  0  0  0  0  0
    3.6889    3.9924   16.6383 C   0  0  0  0  0  0  0  0  0  0  0  0
    3.8443    5.2956   17.1260 C   0  0  0  0  0  0  0  0  0  0  0  0
    4.1533    5.2448   18.4339 N   0  0  0  0  0  0  0  0  0  0  0  0
    4.2094    3.9562   18.8347 C   0  0  0  0  0  0  0  0  0  0  0  0
    4.4742    3.3573   20.0245 N   0  0  0  0  0  0  0  0  0  0  0  0
    4.3923    6.3848   19.2951 C   0  0  0  0  0  0  0  0  0  0  0  0
    5.8772    6.5727   19.4836 C   0  0  0  0  0  0  0  0  0  0  0  0
    6.2179    7.8785   20.1302 C   0  0  0  0  0  0  0  0  0  0  0  0
    5.0297    8.6545   20.6024 C   0  0  0  0  0  0  0  0  0  0  0  0
    4.4045    8.1087   21.7097 O   0  0  0  0  0  0  0  0  0  0  0  0
    4.0129    8.8383   19.5118 C   0  0  0  0  0  0  0  0  0  0  0  0
    3.8622    7.6396   18.6351 C   0  0  0  0  0  0  0  0  0  0  0  0
    3.4266    8.2801   21.6973 H   0  0  0  0  0  0  0  0  0  0  0  0
    3.3509    3.6125   15.2725 C   0  0  0  0  0  0  0  0  0  0  0  0
    3.9596    4.2535   14.2038 C   0  0  0  0  0  0  0  0  0  0  0  0
    3.6538    3.9113   12.8908 C   0  0  0  0  0  0  0  0  0  0  0  0
    2.7413    2.9299   12.6287 C   0  0  0  0  0  0  0  0  0  0  0  0
    2.1352    2.2917   13.6872 C   0  0  0  0  0  0  0  0  0  0  0  0
    1.2347    1.3239   13.4759 F   0  0  0  0  0  0  0  0  0  0  0  0
    2.4318    2.6241   14.9999 C   0  0  0  0  0  0  0  0  0  0  0  0
    2.3045    2.4439   11.0063 S   0  0  0  0  0  0  0  0  0  0  0  0
    3.1450    3.5412    9.8769 C   0  0  0  0  0  0  0  0  0  0  0  0
    2.8850    1.0672   10.7870 O   0  0  0  0  0  0  0  0  0  0  0  0
    0.8358    2.4665   10.8141 O   0  0  0  0  0  0  0  0  0  0  0  0
    4.7399    1.3705   21.3930 N   0  0  0  0  0  0  0  0  0  0  0  0
    5.5560    0.7309   21.5065 H   0  0  0  0  0  0  0  0  0  0  0  0
    3.8923    1.5458   22.5622 C   0  0  0  0  0  0  0  0  0  0  0  0
    4.4696    2.4931   23.5552 C   0  0  0  0  0  0  0  0  0  0  0  0
    4.4964    4.9221   22.9464 C   0  0  0  0  0  0  0  0  0  0  0  0
    3.7608    3.8119   23.6209 C   0  0  0  0  0  0  0  0  0  0  0  0
 33 34  1  0  0  0
 34 32  1  0  0  0
 32 31  1  0  0  0
 31 29  1  0  0  0
 29  1  1  0  0  0
  1  2  2  0  0  0
  2  3  1  0  0  0
  3  4  2  0  0  0
  4  5  1  0  0  0
  5  6  2  0  0  0
  6  7  1  0  0  0
  7 10  1  0  0  0
 10 11  1  0  0  0
 11 12  1  0  0  0
 12 13  1  0  0  0
 13 14  1  0  0  0
 13 15  1  0  0  0
 15 16  1  0  0  0
  7  8  1  0  0  0
  8  9  2  0  0  0
  5 18  1  0  0  0
 18 19  2  0  0  0
 19 20  1  0  0  0
 20 21  2  0  0  0
 21 22  1  0  0  0
 22 23  1  0  0  0
 22 24  2  0  0  0
 21 25  1  0  0  0
 25 26  1  0  0  0
 25 27  2  0  0  0
 25 28  2  0  0  0
  9  1  1  0  0  0
 24 18  1  0  0  0
  8  4  1  0  0  0
 16 10  1  0  0  0
 29 30  1  0  0  0
 14 17  1  0  0  0
M  END
> <minimizedAffinity>
-8.88369

> <CNNscore>
0.2874690890

> <CNNaffinity>
6.9009728432

> <CNN_VS>
1.9838163853

> <CNNaffinity_variance>
0.6815440059

$$$$
[H]O[C@]1([H])C([H])([H])C([H])([H])[C@@]([H])(n2c([H])c(-c3c([H])c([H])c(S(=O)(=O)C([H])([H])[H])c(F)c3[H])c3c([H])nc(N([H])C([H])([H])C([H])([H])C([H])([H])C([H])([H])[H])nc32)C([H])([H])C1([H])[H]


 34 37  0  0  0  0  0  0  0  0999 V2000
    2.5928    2.3721   13.4137 C   0  0  0  0  0  0  0  0  0  0  0  0
    2.6928    1.5683   14.4869 N   0  0  0  0  0  0  0  0  0  0  0  0
    3.0757    2.0134   15.7033 C   0  0  0  0  0  0  0  0  0  0  0  0
    3.3795    3.3412   15.8676 C   0  0  0  0  0  0  0  0  0  0  0  0
    3.7874    4.0633   16.9618 C   0  0  0  0  0  0  0  0  0  0  0  0
    3.9327    5.3729   16.4885 C   0  0  0  0  0  0  0  0  0  0  0  0
    3.6232    5.4076   15.1801 N   0  0  0  0  0  0  0  0  0  0  0  0
    3.2773    4.1697   14.7652 C   0  0  0  0  0  0  0  0  0  0  0  0
    2.8863    3.6592   13.5690 N   0  0  0  0  0  0  0  0  0  0  0  0
    3.6509    6.5813   14.3315 C   0  0  0  0  0  0  0  0  0  0  0  0
    2.2448    7.0855   14.1210 C   0  0  0  0  0  0  0  0  0  0  0  0
    2.2046    8.4406   13.4876 C   0  0  0  0  0  0  0  0  0  0  0  0
    3.5404    8.9484   13.0465 C   0  0  0  0  0  0  0  0  0  0  0  0
    4.0555    8.2927   11.9421 O   0  0  0  0  0  0  0  0  0  0  0  0
    4.5517    8.8983   14.1565 C   0  0  0  0  0  0  0  0  0  0  0  0
    4.4248    7.6861   15.0183 C   0  0  0  0  0  0  0  0  0  0  0  0
    5.0470    8.2502   11.9734 H   0  0  0  0  0  0  0  0  0  0  0  0
    4.0272    3.6020   18.3233 C   0  0  0  0  0  0  0  0  0  0  0  0
    3.8313    4.4640   19.3919 C   0  0  0  0  0  0  0  0  0  0  0  0
    4.0545    4.0495   20.7008 C   0  0  0  0  0  0  0  0  0  0  0  0
    4.4741    2.7759   20.9586 C   0  0  0  0  0  0  0  0  0  0  0  0
    4.6696    1.9178   19.9001 C   0  0  0  0  0  0  0  0  0  0  0  0
    5.0805    0.6607   20.1073 F   0  0  0  0  0  0  0  0  0  0  0  0
    4.4505    2.3194   18.5916 C   0  0  0  0  0  0  0  0  0  0  0  0
    4.7759    2.1813   22.5756 S   0  0  0  0  0  0  0  0  0  0  0  0
    4.2721    3.4590   23.7158 C   0  0  0  0  0  0  0  0  0  0  0  0
    3.8467    1.0116   22.7959 O   0  0  0  0  0  0  0  0  0  0  0  0
    6.1975    1.8052   22.7547 O   0  0  0  0  0  0  0  0  0  0  0  0
    2.1800    1.7992   12.1788 N   0  0  0  0  0  0  0  0  0  0  0  0
    1.3384    1.1873   12.1071 H   0  0  0  0  0  0  0  0  0  0  0  0
    2.9109    2.0357   10.9434 C   0  0  0  0  0  0  0  0  0  0  0  0
    2.7922    0.9075    9.9792 C   0  0  0  0  0  0  0  0  0  0  0  0
    3.9245   -1.2726    9.4927 C   0  0  0  0  0  0  0  0  0  0  0  0
    4.0839    0.1950    9.7150 C   0  0  0  0  0  0  0  0  0  0  0  0
 33 34  1  0  0  0
 34 32  1  0  0  0
 32 31  1  0  0  0
 31 29  1  0  0  0
 29  1  1  0  0  0
  1  2  2  0  0  0
  2  3  1  0  0  0
  3  4  2  0  0  0
  4  5  1  0  0  0
  5  6  2  0  0  0
  6  7  1  0  0  0
  7 10  1  0  0  0
 10 11  1  0  0  0
 11 12  1  0  0  0
 12 13  1  0  0  0
 13 14  1  0  0  0
 13 15  1  0  0  0
 15 16  1  0  0  0
  7  8  1  0  0  0
  8  9  2  0  0  0
  5 18  1  0  0  0
 18 19  2  0  0  0
 19 20  1  0  0  0
 20 21  2  0  0  0
 21 22  1  0  0  0
 22 23  1  0  0  0
 22 24  2  0  0  0
 21 25  1  0  0  0
 25 26  1  0  0  0
 25 27  2  0  0  0
 25 28  2  0  0  0
  9  1  1  0  0  0
 24 18  1  0  0  0
  8  4  1  0  0  0
 16 10  1  0  0  0
 29 30  1  0  0  0
 14 17  1  0  0  0
M  END
> <minimizedAffinity>
-7.41322

> <CNNscore>
0.2840635478

> <CNNaffinity>
6.5771217346

> <CNN_VS>
1.8683205843

> <CNNaffinity_variance>
0.3000139594

$$$$
[H]O[C@]1([H])C([H])([H])C([H])([H])[C@@]([H])(n2c([H])c(-c3c([H])c([H])c(S(=O)(=O)C([H])([H])[H])c(F)c3[H])c3c([H])nc(N([H])C([H])([H])C([H])([H])C([H])([H])C([H])([H])[H])nc32)C([H])([H])C1([H])[H]


 34 37  0  0  0  0  0  0  0  0999 V2000
    3.4003    4.5301    9.5793 C   0  0  0  0  0  0  0  0  0  0  0  0
    4.2856    4.3652   10.5779 N   0  0  0  0  0  0  0  0  0  0  0  0
    3.9278    4.3513   11.8802 C   0  0  0  0  0  0  0  0  0  0  0  0
    2.6071    4.5112   12.2156 C   0  0  0  0  0  0  0  0  0  0  0  0
    1.9623    4.5392   13.4275 C   0  0  0  0  0  0  0  0  0  0  0  0
    0.6132    4.7333   13.1071 C   0  0  0  0  0  0  0  0  0  0  0  0
    0.4828    4.8140   11.7710 N   0  0  0  0  0  0  0  0  0  0  0  0
    1.6949    4.6808   11.1903 C   0  0  0  0  0  0  0  0  0  0  0  0
    2.1198    4.6852    9.9004 N   0  0  0  0  0  0  0  0  0  0  0  0
   -0.7573    5.0127   11.0491 C   0  0  0  0  0  0  0  0  0  0  0  0
   -1.0855    3.7710   10.2578 C   0  0  0  0  0  0  0  0  0  0  0  0
   -2.4756    3.7881    9.7043 C   0  0  0  0  0  0  0  0  0  0  0  0
   -3.1967    5.0831    9.9040 C   0  0  0  0  0  0  0  0  0  0  0  0
   -2.7208    6.1193    9.1198 O   0  0  0  0  0  0  0  0  0  0  0  0
   -3.1804    5.5157   11.3427 C   0  0  0  0  0  0  0  0  0  0  0  0
   -1.8878    5.2293   12.0321 C   0  0  0  0  0  0  0  0  0  0  0  0
   -2.8090    6.9946    9.5802 H   0  0  0  0  0  0  0  0  0  0  0  0
    2.5248    4.4032   14.7650 C   0  0  0  0  0  0  0  0  0  0  0  0
    2.1920    5.3175   15.7533 C   0  0  0  0  0  0  0  0  0  0  0  0
    2.7160    5.2116   17.0374 C   0  0  0  0  0  0  0  0  0  0  0  0
    3.5746    4.1969   17.3501 C   0  0  0  0  0  0  0  0  0  0  0  0
    3.9071    3.2877   16.3714 C   0  0  0  0  0  0  0  0  0  0  0  0
    4.7452    2.2775   16.6344 F   0  0  0  0  0  0  0  0  0  0  0  0
    3.3913    3.3830   15.0883 C   0  0  0  0  0  0  0  0  0  0  0  0
    4.2744    3.9972   18.9406 S   0  0  0  0  0  0  0  0  0  0  0  0
    3.5119    5.2030   20.0134 C   0  0  0  0  0  0  0  0  0  0  0  0
    3.8480    2.6382   19.4425 O   0  0  0  0  0  0  0  0  0  0  0  0
    5.7484    4.1400   18.9025 O   0  0  0  0  0  0  0  0  0  0  0  0
    3.8850    4.5288    8.2420 N   0  0  0  0  0  0  0  0  0  0  0  0
    3.5548    3.8368    7.5348 H   0  0  0  0  0  0  0  0  0  0  0  0
    4.8713    5.4954    7.7846 C   0  0  0  0  0  0  0  0  0  0  0  0
    4.8509    5.6841    6.3080 C   0  0  0  0  0  0  0  0  0  0  0  0
    5.5695    8.0325    6.7983 C   0  0  0  0  0  0  0  0  0  0  0  0
    4.8280    7.1198    5.8786 C   0  0  0  0  0  0  0  0  0  0  0  0
 33 34  1  0  0  0
 34 32  1  0  0  0
 32 31  1  0  0  0
 31 29  1  0  0  0
 29  1  1  0  0  0
  1  2  2  0  0  0
  2  3  1  0  0  0
  3  4  2  0  0  0
  4  5  1  0  0  0
  5  6  2  0  0  0
  6  7  1  0  0  0
  7 10  1  0  0  0
 10 11  1  0  0  0
 11 12  1  0  0  0
 12 13  1  0  0  0
 13 14  1  0  0  0
 13 15  1  0  0  0
 15 16  1  0  0  0
  7  8  1  0  0  0
  8  9  2  0  0  0
  5 18  1  0  0  0
 18 19  2  0  0  0
 19 20  1  0  0  0
 20 21  2  0  0  0
 21 22  1  0  0  0
 22 23  1  0  0  0
 22 24  2  0  0  0
 21 25  1  0  0  0
 25 26  1  0  0  0
 25 27  2  0  0  0
 25 28  2  0  0  0
  9  1  1  0  0  0
 24 18  1  0  0  0
  8  4  1  0  0  0
 16 10  1  0  0  0
 29 30  1  0  0  0
 14 17  1  0  0  0
M  END
> <minimizedAffinity>
-5.44526

> <CNNscore>
0.2641383410

> <CNNaffinity>
6.2009272575

> <CNN_VS>
1.6379026175

> <CNNaffinity_variance>
0.7765200138

$$$$
[H]O[C@]1([H])C([H])([H])C([H])([H])[C@@]([H])(n2c([H])c(-c3c([H])c([H])c(S(=O)(=O)C([H])([H])[H])c(F)c3[H])c3c([H])nc(N([H])C([H])([H])C([H])([H])C([H])([H])C([H])([H])[H])nc32)C([H])([H])C1([H])[H]


 34 37  0  0  0  0  0  0  0  0999 V2000
    2.2251    5.2551   14.4728 C   0  0  0  0  0  0  0  0  0  0  0  0
    3.5299    5.3159   14.1539 N   0  0  0  0  0  0  0  0  0  0  0  0
    3.9822    5.1853   12.8879 C   0  0  0  0  0  0  0  0  0  0  0  0
    3.0837    4.9813   11.8714 C   0  0  0  0  0  0  0  0  0  0  0  0
    3.2469    4.8171   10.5181 C   0  0  0  0  0  0  0  0  0  0  0  0
    1.9484    4.6504   10.0217 C   0  0  0  0  0  0  0  0  0  0  0  0
    1.0733    4.7150   11.0410 N   0  0  0  0  0  0  0  0  0  0  0  0
    1.7413    4.9186   12.1971 C   0  0  0  0  0  0  0  0  0  0  0  0
    1.3515    5.0576   13.4906 N   0  0  0  0  0  0  0  0  0  0  0  0
   -0.3658    4.5881   10.9342 C   0  0  0  0  0  0  0  0  0  0  0  0
   -0.9680    5.9313   10.6042 C   0  0  0  0  0  0  0  0  0  0  0  0
   -2.4085    5.8385   10.2099 C   0  0  0  0  0  0  0  0  0  0  0  0
   -3.0006    4.4751   10.3762 C   0  0  0  0  0  0  0  0  0  0  0  0
   -3.1918    4.1013   11.6947 O   0  0  0  0  0  0  0  0  0  0  0  0
   -2.1807    3.4219    9.6866 C   0  0  0  0  0  0  0  0  0  0  0  0
   -0.7097    3.6511    9.7963 C   0  0  0  0  0  0  0  0  0  0  0  0
   -3.0804    3.1220   11.8155 H   0  0  0  0  0  0  0  0  0  0  0  0
    4.4796    4.8101    9.7407 C   0  0  0  0  0  0  0  0  0  0  0  0
    5.2766    3.6754    9.7151 C   0  0  0  0  0  0  0  0  0  0  0  0
    6.4587    3.6429    8.9826 C   0  0  0  0  0  0  0  0  0  0  0  0
    6.8585    4.7369    8.2700 C   0  0  0  0  0  0  0  0  0  0  0  0
    6.0697    5.8649    8.2934 C   0  0  0  0  0  0  0  0  0  0  0  0
    6.4238    6.9598    7.6093 F   0  0  0  0  0  0  0  0  0  0  0  0
    4.8898    5.9091    9.0196 C   0  0  0  0  0  0  0  0  0  0  0  0
    8.3304    4.7729    7.3258 S   0  0  0  0  0  0  0  0  0  0  0  0
    9.0089    3.1220    7.3335 C   0  0  0  0  0  0  0  0  0  0  0  0
    7.9326    5.0724    5.9002 O   0  0  0  0  0  0  0  0  0  0  0  0
    9.2878    5.7700    7.8585 O   0  0  0  0  0  0  0  0  0  0  0  0
    1.8576    5.4054   15.8388 N   0  0  0  0  0  0  0  0  0  0  0  0
    1.1574    6.1139   16.1483 H   0  0  0  0  0  0  0  0  0  0  0  0
    2.4394    4.5767   16.8833 C   0  0  0  0  0  0  0  0  0  0  0  0
    2.8204    5.3574   18.0924 C   0  0  0  0  0  0  0  0  0  0  0  0
    3.7896    7.5410   18.8436 C   0  0  0  0  0  0  0  0  0  0  0  0
    3.8088    6.4513   17.8234 C   0  0  0  0  0  0  0  0  0  0  0  0
 33 34  1  0  0  0
 34 32  1  0  0  0
 32 31  1  0  0  0
 31 29  1  0  0  0
 29  1  1  0  0  0
  1  2  2  0  0  0
  2  3  1  0  0  0
  3  4  2  0  0  0
  4  5  1  0  0  0
  5  6  2  0  0  0
  6  7  1  0  0  0
  7 10  1  0  0  0
 10 11  1  0  0  0
 11 12  1  0  0  0
 12 13  1  0  0  0
 13 14  1  0  0  0
 13 15  1  0  0  0
 15 16  1  0  0  0
  7  8  1  0  0  0
  8  9  2  0  0  0
  5 18  1  0  0  0
 18 19  2  0  0  0
 19 20  1  0  0  0
 20 21  2  0  0  0
 21 22  1  0  0  0
 22 23  1  0  0  0
 22 24  2  0  0  0
 21 25  1  0  0  0
 25 26  1  0  0  0
 25 27  2  0  0  0
 25 28  2  0  0  0
  9  1  1  0  0  0
 24 18  1  0  0  0
  8  4  1  0  0  0
 16 10  1  0  0  0
 29 30  1  0  0  0
 14 17  1  0  0  0
M  END
> <minimizedAffinity>
-5.33401

> <CNNscore>
0.2340382040

> <CNNaffinity>
5.8454642296

> <CNN_VS>
1.3680619001

> <CNNaffinity_variance>
0.9942186475

$$$$
[H]O[C@]1([H])C([H])([H])C([H])([H])[C@@]([H])(n2c([H])c(-c3c([H])c([H])c(S(=O)(=O)C([H])([H])[H])c(F)c3[H])c3c([H])nc(N([H])C([H])([H])C([H])([H])C([H])([H])C([H])([H])[H])nc32)C([H])([H])C1([H])[H]


 34 37  0  0  0  0  0  0  0  0999 V2000
    1.5947    2.0911   13.6847 C   0  0  0  0  0  0  0  0  0  0  0  0
    1.9851    1.4841   14.8192 N   0  0  0  0  0  0  0  0  0  0  0  0
    2.5243    2.1537   15.8610 C   0  0  0  0  0  0  0  0  0  0  0  0
    2.6875    3.5131   15.7735 C   0  0  0  0  0  0  0  0  0  0  0  0
    3.1949    4.4375   16.6529 C   0  0  0  0  0  0  0  0  0  0  0  0
    3.0903    5.6612   15.9808 C   0  0  0  0  0  0  0  0  0  0  0  0
    2.5474    5.4550   14.7678 N   0  0  0  0  0  0  0  0  0  0  0  0
    2.2866    4.1394   14.6077 C   0  0  0  0  0  0  0  0  0  0  0  0
    1.7512    3.4082   13.5963 N   0  0  0  0  0  0  0  0  0  0  0  0
    2.2768    6.4736   13.7739 C   0  0  0  0  0  0  0  0  0  0  0  0
    2.4187    7.8392   14.3989 C   0  0  0  0  0  0  0  0  0  0  0  0
    2.4248    8.9412   13.3866 C   0  0  0  0  0  0  0  0  0  0  0  0
    2.1297    8.4904   11.9914 C   0  0  0  0  0  0  0  0  0  0  0  0
    0.8124    8.1190   11.7864 O   0  0  0  0  0  0  0  0  0  0  0  0
    3.0245    7.3602   11.5682 C   0  0  0  0  0  0  0  0  0  0  0  0
    3.2990    6.3816   12.6614 C   0  0  0  0  0  0  0  0  0  0  0  0
    0.7392    7.3937   11.1123 H   0  0  0  0  0  0  0  0  0  0  0  0
    3.7319    4.2266   17.9912 C   0  0  0  0  0  0  0  0  0  0  0  0
    4.4825    3.0933   18.2664 C   0  0  0  0  0  0  0  0  0  0  0  0
    5.0051    2.8672   19.5354 C   0  0  0  0  0  0  0  0  0  0  0  0
    4.7864    3.7647   20.5411 C   0  0  0  0  0  0  0  0  0  0  0  0
    4.0417    4.8906   20.2713 C   0  0  0  0  0  0  0  0  0  0  0  0
    3.8029    5.7964   21.2276 F   0  0  0  0  0  0  0  0  0  0  0  0
    3.5158    5.1267   19.0107 C   0  0  0  0  0  0  0  0  0  0  0  0
    5.4097    3.5505   22.1613 S   0  0  0  0  0  0  0  0  0  0  0  0
    4.0108    3.5089   23.2691 C   0  0  0  0  0  0  0  0  0  0  0  0
    6.0447    2.1813   22.2120 O   0  0  0  0  0  0  0  0  0  0  0  0
    6.3682    4.6229   22.5159 O   0  0  0  0  0  0  0  0  0  0  0  0
    1.0387    1.2902   12.6489 N   0  0  0  0  0  0  0  0  0  0  0  0
    0.5507    0.3901   12.8475 H   0  0  0  0  0  0  0  0  0  0  0  0
    1.1201    1.6832   11.2505 C   0  0  0  0  0  0  0  0  0  0  0  0
    2.4418    1.3710   10.6406 C   0  0  0  0  0  0  0  0  0  0  0  0
    2.5014    3.7982   10.0268 C   0  0  0  0  0  0  0  0  0  0  0  0
    3.2888    2.5782   10.3737 C   0  0  0  0  0  0  0  0  0  0  0  0
 33 34  1  0  0  0
 34 32  1  0  0  0
 32 31  1  0  0  0
 31 29  1  0  0  0
 29  1  1  0  0  0
  1  2  2  0  0  0
  2  3  1  0  0  0
  3  4  2  0  0  0
  4  5  1  0  0  0
  5  6  2  0  0  0
  6  7  1  0  0  0
  7 10  1  0  0  0
 10 11  1  0  0  0
 11 12  1  0  0  0
 12 13  1  0  0  0
 13 14  1  0  0  0
 13 15  1  0  0  0
 15 16  1  0  0  0
  7  8  1  0  0  0
  8  9  2  0  0  0
  5 18  1  0  0  0
 18 19  2  0  0  0
 19 20  1  0  0  0
 20 21  2  0  0  0
 21 22  1  0  0  0
 22 23  1  0  0  0
 22 24  2  0  0  0
 21 25  1  0  0  0
 25 26  1  0  0  0
 25 27  2  0  0  0
 25 28  2  0  0  0
  9  1  1  0  0  0
 24 18  1  0  0  0
  8  4  1  0  0  0
 16 10  1  0  0  0
 29 30  1  0  0  0
 14 17  1  0  0  0
M  END
> <minimizedAffinity>
-7.02252

> <CNNscore>
0.2287754565

> <CNNaffinity>
6.5010614395

> <CNN_VS>
1.4872833490

> <CNNaffinity_variance>
0.2872961462

$$$$
[H]C1=C([H])C([H])(F)C([H])([H])C([H])=C1N([H])C(=O)C1(C(=O)N([H])c2c([H])c([H])c(Oc3c([H])c([H])nc4c([H])c(OC([H])([H])C([H])([H])C([H])([H])N5C([H])([H])C([H])([H])C([H])([H])C([H])([H])C5([H])[H])c(OC([H])([H])[H])c([H])c34)c(F)c2[H])C([H])([H])C1([H])[H]


 48 53  0  0  0  0  0  0  0  0999 V2000
    4.9552    2.1358   21.2107 C   0  0  0  0  0  0  0  0  0  0  0  0
    3.9856    3.1121   21.2979 C   0  0  0  0  0  0  0  0  0  0  0  0
    4.2778    4.3485   21.8753 C   0  0  0  0  0  0  0  0  0  0  0  0
    5.5060    4.6536   22.3731 C   0  0  0  0  0  0  0  0  0  0  0  0
    6.4789    3.6712   22.2848 C   0  0  0  0  0  0  0  0  0  0  0  0
    6.2011    2.4465   21.7169 C   0  0  0  0  0  0  0  0  0  0  0  0
    7.2075    1.5136   21.6890 F   0  0  0  0  0  0  0  0  0  0  0  0
    5.8559    5.8812   23.0037 N   0  0  0  0  0  0  0  0  0  0  0  0
    6.5441    6.9012   22.3567 C   0  0  0  0  0  0  0  0  0  0  0  0
    6.8221    6.6767   21.1133 O   0  0  0  0  0  0  0  0  0  0  0  0
    5.5065    5.9426   24.0007 H   0  0  0  0  0  0  0  0  0  0  0  0
    7.0062    8.2146   22.8605 C   0  0  0  0  0  0  0  0  0  0  0  0
    7.1423    8.3278   24.3496 C   0  0  0  0  0  0  0  0  0  0  0  0
    8.3525    8.1041   23.5376 C   0  0  0  0  0  0  0  0  0  0  0  0
    6.6840    9.4983   22.2176 C   0  0  0  0  0  0  0  0  0  0  0  0
    6.4043   10.4447   23.0773 O   0  0  0  0  0  0  0  0  0  0  0  0
    6.6335    9.8204   20.8689 N   0  0  0  0  0  0  0  0  0  0  0  0
    6.7899    9.1107   20.1329 H   0  0  0  0  0  0  0  0  0  0  0  0
    6.3104   11.1411   20.4063 C   0  0  0  0  0  0  0  0  0  0  0  0
    7.2232   12.0893   20.3329 C   0  0  0  0  0  0  0  0  0  0  0  0
    6.9052   13.4541   19.8597 C   0  0  0  0  0  0  0  0  0  0  0  0
    5.5220   13.7060   19.4252 C   0  0  0  0  0  0  0  0  0  0  0  0
    5.5573   14.1538   18.0912 F   0  0  0  0  0  0  0  0  0  0  0  0
    4.5903   12.5840   19.5512 C   0  0  0  0  0  0  0  0  0  0  0  0
    4.9506   11.4075   20.0006 C   0  0  0  0  0  0  0  0  0  0  0  0
    4.6898    0.9005   20.6441 O   0  0  0  0  0  0  0  0  0  0  0  0
    5.0068    3.1192   17.1769 C   0  0  0  0  0  0  0  0  0  0  0  0
    4.9039    2.3799   18.3353 C   0  0  0  0  0  0  0  0  0  0  0  0
    3.9100    1.4324   18.4870 C   0  0  0  0  0  0  0  0  0  0  0  0
    3.7842    0.6658   19.6544 C   0  0  0  0  0  0  0  0  0  0  0  0
    2.7877   -0.2743   19.7833 C   0  0  0  0  0  0  0  0  0  0  0  0
    1.8916   -0.4691   18.7466 C   0  0  0  0  0  0  0  0  0  0  0  0
    2.0152    0.2676   17.6304 N   0  0  0  0  0  0  0  0  0  0  0  0
    2.9896    1.1926   17.4912 C   0  0  0  0  0  0  0  0  0  0  0  0
    3.1049    1.9459   16.3280 C   0  0  0  0  0  0  0  0  0  0  0  0
    4.1007    2.9026   16.1627 C   0  0  0  0  0  0  0  0  0  0  0  0
    5.9926    5.2662   17.7869 C   0  0  0  0  0  0  0  0  0  0  0  0
    6.0047    4.0736   17.0177 O   0  0  0  0  0  0  0  0  0  0  0  0
    4.2195    3.6571   15.0051 O   0  0  0  0  0  0  0  0  0  0  0  0
    3.0819    4.4062   14.5997 C   0  0  0  0  0  0  0  0  0  0  0  0
    2.8273    5.4929   15.6338 C   0  0  0  0  0  0  0  0  0  0  0  0
    3.6567    6.6840   15.2789 C   0  0  0  0  0  0  0  0  0  0  0  0
    3.3725    7.1188   13.9463 N   0  0  0  0  0  0  0  0  0  0  0  0
    2.2391    8.0466   13.9533 C   0  0  0  0  0  0  0  0  0  0  0  0
    2.6696    9.4552   13.7043 C   0  0  0  0  0  0  0  0  0  0  0  0
    3.9664    9.8338   14.3876 C   0  0  0  0  0  0  0  0  0  0  0  0
    5.0689    8.8648   14.1193 C   0  0  0  0  0  0  0  0  0  0  0  0
    4.5175    7.7255   13.3060 C   0  0  0  0  0  0  0  0  0  0  0  0
 37 38  1  0  0  0
 38 27  1  0  0  0
 27 28  2  0  0  0
 28 29  1  0  0  0
 29 30  2  0  0  0
 30 26  1  0  0  0
 26  1  1  0  0  0
  1  2  2  0  0  0
  2  3  1  0  0  0
  3  4  2  0  0  0
  4  8  1  0  0  0
  8  9  1  0  0  0
  9 10  2  0  0  0
  9 12  1  0  0  0
 12 13  1  0  0  0
 13 14  1  0  0  0
 12 15  1  0  0  0
 15 16  2  0  0  0
 15 17  1  0  0  0
 17 19  1  0  0  0
 19 20  2  0  0  0
 20 21  1  0  0  0
 21 22  1  0  0  0
 22 23  1  0  0  0
 22 24  1  0  0  0
 24 25  2  0  0  0
  4  5  1  0  0  0
  5  6  2  0  0  0
  6  7  1  0  0  0
 30 31  1  0  0  0
 31 32  2  0  0  0
 32 33  1  0  0  0
 33 34  2  0  0  0
 34 35  1  0  0  0
 35 36  2  0  0  0
 36 39  1  0  0  0
 39 40  1  0  0  0
 40 41  1  0  0  0
 41 42  1  0  0  0
 42 43  1  0  0  0
 43 44  1  0  0  0
 44 45  1  0  0  0
 45 46  1  0  0  0
 46 47  1  0  0  0
 47 48  1  0  0  0
 36 27  1  0  0  0
 48 43  1  0  0  0
 34 29  1  0  0  0
  6  1  1  0  0  0
 14 12  1  0  0  0
 25 19  1  0  0  0
  8 11  1  0  0  0
 17 18  1  0  0  0
M  END
> <minimizedAffinity>
-9.26700

> <CNNscore>
0.6549619436

> <CNNaffinity>
7.8260850906

> <CNN_VS>
5.1257877350

> <CNNaffinity_variance>
0.1685351878

$$$$
[H]C1=C([H])C([H])(F)C([H])([H])C([H])=C1N([H])C(=O)C1(C(=O)N([H])c2c([H])c([H])c(Oc3c([H])c([H])nc4c([H])c(OC([H])([H])C([H])([H])C([H])([H])N5C([H])([H])C([H])([H])C([H])([H])C([H])([H])C5([H])[H])c(OC([H])([H])[H])c([H])c34)c(F)c2[H])C([H])([H])C1([H])[H]


 48 53  0  0  0  0  0  0  0  0999 V2000
    4.0243    1.8560   17.2691 C   0  0  0  0  0  0  0  0  0  0  0  0
    4.5824    2.9177   16.5894 C   0  0  0  0  0  0  0  0  0  0  0  0
    3.9466    3.4512   15.4676 C   0  0  0  0  0  0  0  0  0  0  0  0
    2.7685    2.9659   14.9921 C   0  0  0  0  0  0  0  0  0  0  0  0
    2.2094    1.8990   15.6763 C   0  0  0  0  0  0  0  0  0  0  0  0
    2.8290    1.3640   16.7851 C   0  0  0  0  0  0  0  0  0  0  0  0
    2.2292    0.2907   17.3950 F   0  0  0  0  0  0  0  0  0  0  0  0
    2.0896    3.4432   13.8353 N   0  0  0  0  0  0  0  0  0  0  0  0
    1.6527    4.7555   13.6952 C   0  0  0  0  0  0  0  0  0  0  0  0
    1.9366    5.5398   14.6842 O   0  0  0  0  0  0  0  0  0  0  0  0
    1.9861    2.7020   13.0871 H   0  0  0  0  0  0  0  0  0  0  0  0
    0.9179    5.4076   12.5874 C   0  0  0  0  0  0  0  0  0  0  0  0
    1.3582    6.8000   12.2468 C   0  0  0  0  0  0  0  0  0  0  0  0
    1.8231    5.6797   11.4086 C   0  0  0  0  0  0  0  0  0  0  0  0
   -0.5053    5.1722   12.2977 C   0  0  0  0  0  0  0  0  0  0  0  0
   -0.9311    4.0140   12.7337 O   0  0  0  0  0  0  0  0  0  0  0  0
   -1.4173    5.9858   11.6406 N   0  0  0  0  0  0  0  0  0  0  0  0
   -1.1388    6.8900   11.2227 H   0  0  0  0  0  0  0  0  0  0  0  0
   -2.7892    5.6051   11.4514 C   0  0  0  0  0  0  0  0  0  0  0  0
   -3.1329    4.6671   10.5913 C   0  0  0  0  0  0  0  0  0  0  0  0
   -4.5413    4.2652   10.3847 C   0  0  0  0  0  0  0  0  0  0  0  0
   -5.5554    4.9293   11.2190 C   0  0  0  0  0  0  0  0  0  0  0  0
   -6.2513    3.9368   11.9346 F   0  0  0  0  0  0  0  0  0  0  0  0
   -5.0641    5.9566   12.1389 C   0  0  0  0  0  0  0  0  0  0  0  0
   -3.7962    6.2671   12.2465 C   0  0  0  0  0  0  0  0  0  0  0  0
    4.6364    1.3077   18.3836 O   0  0  0  0  0  0  0  0  0  0  0  0
    5.6139    4.9639   20.0333 C   0  0  0  0  0  0  0  0  0  0  0  0
    5.2887    3.7446   19.4796 C   0  0  0  0  0  0  0  0  0  0  0  0
    4.6179    2.7869   20.2155 C   0  0  0  0  0  0  0  0  0  0  0  0
    4.2737    1.5393   19.6757 C   0  0  0  0  0  0  0  0  0  0  0  0
    3.6035    0.6008   20.4263 C   0  0  0  0  0  0  0  0  0  0  0  0
    3.2623    0.8880   21.7365 C   0  0  0  0  0  0  0  0  0  0  0  0
    3.5943    2.0839   22.2499 N   0  0  0  0  0  0  0  0  0  0  0  0
    4.2512    3.0139   21.5232 C   0  0  0  0  0  0  0  0  0  0  0  0
    4.5859    4.2482   22.0693 C   0  0  0  0  0  0  0  0  0  0  0  0
    5.2609    5.2207   21.3393 C   0  0  0  0  0  0  0  0  0  0  0  0
    6.2992    5.8842   17.8799 C   0  0  0  0  0  0  0  0  0  0  0  0
    6.2883    5.9319   19.2982 O   0  0  0  0  0  0  0  0  0  0  0  0
    5.5979    6.4529   21.8795 O   0  0  0  0  0  0  0  0  0  0  0  0
    6.6472    6.4758   22.8378 C   0  0  0  0  0  0  0  0  0  0  0  0
    7.9449    6.8221   22.1229 C   0  0  0  0  0  0  0  0  0  0  0  0
    8.0291    8.3083   21.9940 C   0  0  0  0  0  0  0  0  0  0  0  0
    7.5162    8.9472   23.1663 N   0  0  0  0  0  0  0  0  0  0  0  0
    8.6123    9.5497   23.9286 C   0  0  0  0  0  0  0  0  0  0  0  0
    8.6151   11.0394   23.8191 C   0  0  0  0  0  0  0  0  0  0  0  0
    8.2751   11.5570   22.4376 C   0  0  0  0  0  0  0  0  0  0  0  0
    7.0198   10.9663   21.8885 C   0  0  0  0  0  0  0  0  0  0  0  0
    6.5093    9.9381   22.8610 C   0  0  0  0  0  0  0  0  0  0  0  0
 37 38  1  0  0  0
 38 27  1  0  0  0
 27 28  2  0  0  0
 28 29  1  0  0  0
 29 30  2  0  0  0
 30 26  1  0  0  0
 26  1  1  0  0  0
  1  2  2  0  0  0
  2  3  1  0  0  0
  3  4  2  0  0  0
  4  8  1  0  0  0
  8  9  1  0  0  0
  9 10  2  0  0  0
  9 12  1  0  0  0
 12 13  1  0  0  0
 13 14  1  0  0  0
 12 15  1  0  0  0
 15 16  2  0  0  0
 15 17  1  0  0  0
 17 19  1  0  0  0
 19 20  2  0  0  0
 20 21  1  0  0  0
 21 22  1  0  0  0
 22 23  1  0  0  0
 22 24  1  0  0  0
 24 25  2  0  0  0
  4  5  1  0  0  0
  5  6  2  0  0  0
  6  7  1  0  0  0
 30 31  1  0  0  0
 31 32  2  0  0  0
 32 33  1  0  0  0
 33 34  2  0  0  0
 34 35  1  0  0  0
 35 36  2  0  0  0
 36 39  1  0  0  0
 39 40  1  0  0  0
 40 41  1  0  0  0
 41 42  1  0  0  0
 42 43  1  0  0  0
 43 44  1  0  0  0
 44 45  1  0  0  0
 45 46  1  0  0  0
 46 47  1  0  0  0
 47 48  1  0  0  0
 36 27  1  0  0  0
 48 43  1  0  0  0
 34 29  1  0  0  0
  6  1  1  0  0  0
 14 12  1  0  0  0
 25 19  1  0  0  0
  8 11  1  0  0  0
 17 18  1  0  0  0
M  END
> <minimizedAffinity>
-9.14680

> <CNNscore>
0.2460424900

> <CNNaffinity>
6.8649263382

> <CNN_VS>
1.6890635490

> <CNNaffinity_variance>
0.3171572983

$$$$
[H]C1=C([H])C([H])(F)C([H])([H])C([H])=C1N([H])C(=O)C1(C(=O)N([H])c2c([H])c([H])c(Oc3c([H])c([H])nc4c([H])c(OC([H])([H])C([H])([H])C([H])([H])N5C([H])([H])C([H])([H])C([H])([H])C([H])([H])C5([H])[H])c(OC([H])([H])[H])c([H])c34)c(F)c2[H])C([H])([H])C1([H])[H]


 48 53  0  0  0  0  0  0  0  0999 V2000
    3.9442    1.9282   17.2989 C   0  0  0  0  0  0  0  0  0  0  0  0
    4.5870    3.0127   16.7408 C   0  0  0  0  0  0  0  0  0  0  0  0
    4.0202    3.6911   15.6610 C   0  0  0  0  0  0  0  0  0  0  0  0
    2.8303    3.3297   15.1106 C   0  0  0  0  0  0  0  0  0  0  0  0
    2.1861    2.2396   15.6726 C   0  0  0  0  0  0  0  0  0  0  0  0
    2.7370    1.5621   16.7390 C   0  0  0  0  0  0  0  0  0  0  0  0
    2.0541    0.4753   17.2254 F   0  0  0  0  0  0  0  0  0  0  0  0
    2.2183    3.9583   13.9894 N   0  0  0  0  0  0  0  0  0  0  0  0
    1.4856    5.1361   14.0819 C   0  0  0  0  0  0  0  0  0  0  0  0
    1.4216    5.6542   15.2657 O   0  0  0  0  0  0  0  0  0  0  0  0
    2.4108    3.4510   13.0808 H   0  0  0  0  0  0  0  0  0  0  0  0
    0.7689    5.9032   13.0377 C   0  0  0  0  0  0  0  0  0  0  0  0
    0.9779    7.3878   13.0639 C   0  0  0  0  0  0  0  0  0  0  0  0
    1.7319    6.5784   12.0893 C   0  0  0  0  0  0  0  0  0  0  0  0
   -0.5453    5.5213   12.4973 C   0  0  0  0  0  0  0  0  0  0  0  0
   -0.8727    4.2849   12.7749 O   0  0  0  0  0  0  0  0  0  0  0  0
   -1.4445    6.2722   11.7537 N   0  0  0  0  0  0  0  0  0  0  0  0
   -1.2294    7.2377   11.4517 H   0  0  0  0  0  0  0  0  0  0  0  0
   -2.7045    5.7440   11.3107 C   0  0  0  0  0  0  0  0  0  0  0  0
   -2.8143    5.0794   10.1777 C   0  0  0  0  0  0  0  0  0  0  0  0
   -4.1050    4.5306    9.7080 C   0  0  0  0  0  0  0  0  0  0  0  0
   -5.2706    4.7180   10.5864 C   0  0  0  0  0  0  0  0  0  0  0  0
   -5.7963    3.4485   10.8925 F   0  0  0  0  0  0  0  0  0  0  0  0
   -5.0368    5.4724   11.8190 C   0  0  0  0  0  0  0  0  0  0  0  0
   -3.8606    5.9430   12.1523 C   0  0  0  0  0  0  0  0  0  0  0  0
    4.4866    1.2373   18.3694 O   0  0  0  0  0  0  0  0  0  0  0  0
    5.6463    4.7393   20.2232 C   0  0  0  0  0  0  0  0  0  0  0  0
    5.2604    3.5716   19.6014 C   0  0  0  0  0  0  0  0  0  0  0  0
    4.5469    2.6057   20.2847 C   0  0  0  0  0  0  0  0  0  0  0  0
    4.1406    1.4099   19.6753 C   0  0  0  0  0  0  0  0  0  0  0  0
    3.4287    0.4623   20.3743 C   0  0  0  0  0  0  0  0  0  0  0  0
    3.1070    0.6882   21.7014 C   0  0  0  0  0  0  0  0  0  0  0  0
    3.4985    1.8346   22.2814 N   0  0  0  0  0  0  0  0  0  0  0  0
    4.1968    2.7730   21.6059 C   0  0  0  0  0  0  0  0  0  0  0  0
    4.5929    3.9557   22.2208 C   0  0  0  0  0  0  0  0  0  0  0  0
    5.3113    4.9357   21.5443 C   0  0  0  0  0  0  0  0  0  0  0  0
    5.9052    6.2081   18.2921 C   0  0  0  0  0  0  0  0  0  0  0  0
    6.3638    5.7152   19.5413 O   0  0  0  0  0  0  0  0  0  0  0  0
    5.7096    6.1164   22.1532 O   0  0  0  0  0  0  0  0  0  0  0  0
    4.8978    7.2630   21.9381 C   0  0  0  0  0  0  0  0  0  0  0  0
    5.8065    8.4711   21.7659 C   0  0  0  0  0  0  0  0  0  0  0  0
    5.0280    9.5533   21.0910 C   0  0  0  0  0  0  0  0  0  0  0  0
    5.0035    9.3507   19.6755 N   0  0  0  0  0  0  0  0  0  0  0  0
    3.6187    9.2989   19.2009 C   0  0  0  0  0  0  0  0  0  0  0  0
    3.2398   10.5335   18.4501 C   0  0  0  0  0  0  0  0  0  0  0  0
    3.7926   11.8112   19.0449 C   0  0  0  0  0  0  0  0  0  0  0  0
    5.2622   11.7474   19.2950 C   0  0  0  0  0  0  0  0  0  0  0  0
    5.7453   10.3629   18.9585 C   0  0  0  0  0  0  0  0  0  0  0  0
 37 38  1  0  0  0
 38 27  1  0  0  0
 27 28  2  0  0  0
 28 29  1  0  0  0
 29 30  2  0  0  0
 30 26  1  0  0  0
 26  1  1  0  0  0
  1  2  2  0  0  0
  2  3  1  0  0  0
  3  4  2  0  0  0
  4  8  1  0  0  0
  8  9  1  0  0  0
  9 10  2  0  0  0
  9 12  1  0  0  0
 12 13  1  0  0  0
 13 14  1  0  0  0
 12 15  1  0  0  0
 15 16  2  0  0  0
 15 17  1  0  0  0
 17 19  1  0  0  0
 19 20  2  0  0  0
 20 21  1  0  0  0
 21 22  1  0  0  0
 22 23  1  0  0  0
 22 24  1  0  0  0
 24 25  2  0  0  0
  4  5  1  0  0  0
  5  6  2  0  0  0
  6  7  1  0  0  0
 30 31  1  0  0  0
 31 32  2  0  0  0
 32 33  1  0  0  0
 33 34  2  0  0  0
 34 35  1  0  0  0
 35 36  2  0  0  0
 36 39  1  0  0  0
 39 40  1  0  0  0
 40 41  1  0  0  0
 41 42  1  0  0  0
 42 43  1  0  0  0
 43 44  1  0  0  0
 44 45  1  0  0  0
 45 46  1  0  0  0
 46 47  1  0  0  0
 47 48  1  0  0  0
 36 27  1  0  0  0
 48 43  1  0  0  0
 34 29  1  0  0  0
  6  1  1  0  0  0
 14 12  1  0  0  0
 25 19  1  0  0  0
  8 11  1  0  0  0
 17 18  1  0  0  0
M  END
> <minimizedAffinity>
-9.71799

> <CNNscore>
0.2385653108

> <CNNaffinity>
7.0318365097

> <CNN_VS>
1.6775522232

> <CNNaffinity_variance>
0.3683207929

$$$$
[H]C1=C([H])C([H])(F)C([H])([H])C([H])=C1N([H])C(=O)C1(C(=O)N([H])c2c([H])c([H])c(Oc3c([H])c([H])nc4c([H])c(OC([H])([H])C([H])([H])C([H])([H])N5C([H])([H])C([H])([H])C([H])([H])C([H])([H])C5([H])[H])c(OC([H])([H])[H])c([H])c34)c(F)c2[H])C([H])([H])C1([H])[H]


 48 53  0  0  0  0  0  0  0  0999 V2000
    3.1168    7.5579   11.7630 C   0  0  0  0  0  0  0  0  0  0  0  0
    1.9369    7.9454   12.3618 C   0  0  0  0  0  0  0  0  0  0  0  0
    1.9318    8.4112   13.6772 C   0  0  0  0  0  0  0  0  0  0  0  0
    3.0632    8.5071   14.4257 C   0  0  0  0  0  0  0  0  0  0  0  0
    4.2477    8.1170   13.8224 C   0  0  0  0  0  0  0  0  0  0  0  0
    4.2641    7.6551   12.5240 C   0  0  0  0  0  0  0  0  0  0  0  0
    5.4712    7.2613   12.0025 F   0  0  0  0  0  0  0  0  0  0  0  0
    3.1183    8.9406   15.7807 N   0  0  0  0  0  0  0  0  0  0  0  0
    3.3759   10.2557   16.1502 C   0  0  0  0  0  0  0  0  0  0  0  0
    3.5312   11.0841   15.1686 O   0  0  0  0  0  0  0  0  0  0  0  0
    2.9094    8.1629   16.4674 H   0  0  0  0  0  0  0  0  0  0  0  0
    3.4940   10.8680   17.4932 C   0  0  0  0  0  0  0  0  0  0  0  0
    3.3111   12.3553   17.5474 C   0  0  0  0  0  0  0  0  0  0  0  0
    2.1874   11.4838   17.9366 C   0  0  0  0  0  0  0  0  0  0  0  0
    4.3880   10.3641   18.5477 C   0  0  0  0  0  0  0  0  0  0  0  0
    5.4547   11.1047   18.7106 O   0  0  0  0  0  0  0  0  0  0  0  0
    4.2543    9.2440   19.3556 N   0  0  0  0  0  0  0  0  0  0  0  0
    3.4653    8.5842   19.2463 H   0  0  0  0  0  0  0  0  0  0  0  0
    5.2248    8.8987   20.3565 C   0  0  0  0  0  0  0  0  0  0  0  0
    5.1765    9.4106   21.5703 C   0  0  0  0  0  0  0  0  0  0  0  0
    6.1692    9.0655   22.6110 C   0  0  0  0  0  0  0  0  0  0  0  0
    7.2019    8.0812   22.2500 C   0  0  0  0  0  0  0  0  0  0  0  0
    7.1186    7.0075   23.1565 F   0  0  0  0  0  0  0  0  0  0  0  0
    7.1639    7.5789   20.8756 C   0  0  0  0  0  0  0  0  0  0  0  0
    6.2578    7.9527   20.0067 C   0  0  0  0  0  0  0  0  0  0  0  0
    3.1479    7.0905   10.4599 O   0  0  0  0  0  0  0  0  0  0  0  0
   -0.2651    6.7189    8.1667 C   0  0  0  0  0  0  0  0  0  0  0  0
    0.8739    6.8463    8.9319 C   0  0  0  0  0  0  0  0  0  0  0  0
    1.6190    5.7381    9.2862 C   0  0  0  0  0  0  0  0  0  0  0  0
    2.7824    5.8403   10.0623 C   0  0  0  0  0  0  0  0  0  0  0  0
    3.5105    4.7232   10.4018 C   0  0  0  0  0  0  0  0  0  0  0  0
    3.0909    3.4758    9.9733 C   0  0  0  0  0  0  0  0  0  0  0  0
    1.9758    3.3822    9.2306 N   0  0  0  0  0  0  0  0  0  0  0  0
    1.2529    4.4712    8.8899 C   0  0  0  0  0  0  0  0  0  0  0  0
    0.1015    4.3572    8.1185 C   0  0  0  0  0  0  0  0  0  0  0  0
   -0.6573    5.4646    7.7552 C   0  0  0  0  0  0  0  0  0  0  0  0
   -0.6823    8.5884    6.6553 C   0  0  0  0  0  0  0  0  0  0  0  0
   -1.0189    7.8298    7.8065 O   0  0  0  0  0  0  0  0  0  0  0  0
   -1.8068    5.3563    6.9869 O   0  0  0  0  0  0  0  0  0  0  0  0
   -2.8851    4.6100    7.5348 C   0  0  0  0  0  0  0  0  0  0  0  0
   -3.4919    5.4092    8.6785 C   0  0  0  0  0  0  0  0  0  0  0  0
   -4.8876    4.9252    8.9024 C   0  0  0  0  0  0  0  0  0  0  0  0
   -5.6871    5.9479    9.5028 N   0  0  0  0  0  0  0  0  0  0  0  0
   -7.1041    5.7056    9.2218 C   0  0  0  0  0  0  0  0  0  0  0  0
   -7.8384    5.2254   10.4307 C   0  0  0  0  0  0  0  0  0  0  0  0
   -7.0542    4.2493   11.2816 C   0  0  0  0  0  0  0  0  0  0  0  0
   -5.6896    4.7449   11.6262 C   0  0  0  0  0  0  0  0  0  0  0  0
   -5.4665    6.0582   10.9270 C   0  0  0  0  0  0  0  0  0  0  0  0
 37 38  1  0  0  0
 38 27  1  0  0  0
 27 28  2  0  0  0
 28 29  1  0  0  0
 29 30  2  0  0  0
 30 26  1  0  0  0
 26  1  1  0  0  0
  1  2  2  0  0  0
  2  3  1  0  0  0
  3  4  2  0  0  0
  4  8  1  0  0  0
  8  9  1  0  0  0
  9 10  2  0  0  0
  9 12  1  0  0  0
 12 13  1  0  0  0
 13 14  1  0  0  0
 12 15  1  0  0  0
 15 16  2  0  0  0
 15 17  1  0  0  0
 17 19  1  0  0  0
 19 20  2  0  0  0
 20 21  1  0  0  0
 21 22  1  0  0  0
 22 23  1  0  0  0
 22 24  1  0  0  0
 24 25  2  0  0  0
  4  5  1  0  0  0
  5  6  2  0  0  0
  6  7  1  0  0  0
 30 31  1  0  0  0
 31 32  2  0  0  0
 32 33  1  0  0  0
 33 34  2  0  0  0
 34 35  1  0  0  0
 35 36  2  0  0  0
 36 39  1  0  0  0
 39 40  1  0  0  0
 40 41  1  0  0  0
 41 42  1  0  0  0
 42 43  1  0  0  0
 43 44  1  0  0  0
 44 45  1  0  0  0
 45 46  1  0  0  0
 46 47  1  0  0  0
 47 48  1  0  0  0
 36 27  1  0  0  0
 48 43  1  0  0  0
 34 29  1  0  0  0
  6  1  1  0  0  0
 14 12  1  0  0  0
 25 19  1  0  0  0
  8 11  1  0  0  0
 17 18  1  0  0  0
M  END
> <minimizedAffinity>
-7.35709

> <CNNscore>
0.2210716009

> <CNNaffinity>
6.4849128723

> <CNN_VS>
1.4336301088

> <CNNaffinity_variance>
0.2577979565

$$$$
[H]C1=C([H])C([H])(F)C([H])([H])C([H])=C1N([H])C(=O)C1(C(=O)N([H])c2c([H])c([H])c(Oc3c([H])c([H])nc4c([H])c(OC([H])([H])C([H])([H])C([H])([H])N5C([H])([H])C([H])([H])C([H])([H])C([H])([H])C5([H])[H])c(OC([H])([H])[H])c([H])c34)c(F)c2[H])C([H])([H])C1([H])[H]


 48 53  0  0  0  0  0  0  0  0999 V2000
    3.8805    1.7023   16.9866 C   0  0  0  0  0  0  0  0  0  0  0  0
    4.0392    2.8894   16.3036 C   0  0  0  0  0  0  0  0  0  0  0  0
    3.2374    3.1818   15.1995 C   0  0  0  0  0  0  0  0  0  0  0  0
    2.2770    2.3328   14.7450 C   0  0  0  0  0  0  0  0  0  0  0  0
    2.1193    1.1405   15.4326 C   0  0  0  0  0  0  0  0  0  0  0  0
    2.9060    0.8414   16.5240 C   0  0  0  0  0  0  0  0  0  0  0  0
    2.7104   -0.3705   17.1380 F   0  0  0  0  0  0  0  0  0  0  0  0
    1.4525    2.5580   13.6064 N   0  0  0  0  0  0  0  0  0  0  0  0
    1.8479    2.2582   12.3078 C   0  0  0  0  0  0  0  0  0  0  0  0
    3.0194    1.7200   12.1984 O   0  0  0  0  0  0  0  0  0  0  0  0
    0.5006    2.9440   13.8610 H   0  0  0  0  0  0  0  0  0  0  0  0
    1.1384    2.4483   11.0222 C   0  0  0  0  0  0  0  0  0  0  0  0
    0.1983    3.6152   10.9656 C   0  0  0  0  0  0  0  0  0  0  0  0
    1.5355    3.7463   10.3586 C   0  0  0  0  0  0  0  0  0  0  0  0
    0.7304    1.3434   10.1403 C   0  0  0  0  0  0  0  0  0  0  0  0
   -0.4656    1.5076    9.6347 O   0  0  0  0  0  0  0  0  0  0  0  0
    1.4210    0.1906    9.7946 N   0  0  0  0  0  0  0  0  0  0  0  0
    2.3474   -0.0313   10.1976 H   0  0  0  0  0  0  0  0  0  0  0  0
    0.8762   -0.7919    8.8999 C   0  0  0  0  0  0  0  0  0  0  0  0
    1.1580   -0.7846    7.6122 C   0  0  0  0  0  0  0  0  0  0  0  0
    0.6036   -1.7891    6.6786 C   0  0  0  0  0  0  0  0  0  0  0  0
   -0.2510   -2.8387    7.2559 C   0  0  0  0  0  0  0  0  0  0  0  0
    0.3181   -4.0875    6.9427 F   0  0  0  0  0  0  0  0  0  0  0  0
   -0.5004   -2.7503    8.6957 C   0  0  0  0  0  0  0  0  0  0  0  0
    0.0161   -1.8126    9.4505 C   0  0  0  0  0  0  0  0  0  0  0  0
    4.6648    1.3881   18.0838 O   0  0  0  0  0  0  0  0  0  0  0  0
    5.0876    5.1872   19.6436 C   0  0  0  0  0  0  0  0  0  0  0  0
    4.9473    3.9203   19.1198 C   0  0  0  0  0  0  0  0  0  0  0  0
    4.4677    2.8812   19.8938 C   0  0  0  0  0  0  0  0  0  0  0  0
    4.3137    1.5836   19.3851 C   0  0  0  0  0  0  0  0  0  0  0  0
    3.8322    0.5638   20.1734 C   0  0  0  0  0  0  0  0  0  0  0  0
    3.4939    0.8180   21.4912 C   0  0  0  0  0  0  0  0  0  0  0  0
    3.6434    2.0620   21.9747 N   0  0  0  0  0  0  0  0  0  0  0  0
    4.1140    3.0718   21.2109 C   0  0  0  0  0  0  0  0  0  0  0  0
    4.2611    4.3549   21.7264 C   0  0  0  0  0  0  0  0  0  0  0  0
    4.7425    5.4094   20.9580 C   0  0  0  0  0  0  0  0  0  0  0  0
    6.6605    6.0405   17.9847 C   0  0  0  0  0  0  0  0  0  0  0  0
    5.5690    6.2371   18.8701 O   0  0  0  0  0  0  0  0  0  0  0  0
    4.8919    6.6906   21.4676 O   0  0  0  0  0  0  0  0  0  0  0  0
    6.2154    7.1988   21.5668 C   0  0  0  0  0  0  0  0  0  0  0  0
    6.1592    8.5600   22.2444 C   0  0  0  0  0  0  0  0  0  0  0  0
    5.1656    9.4068   21.5176 C   0  0  0  0  0  0  0  0  0  0  0  0
    5.4305    9.4031   20.1121 N   0  0  0  0  0  0  0  0  0  0  0  0
    4.1716    9.4545   19.3651 C   0  0  0  0  0  0  0  0  0  0  0  0
    3.9508   10.7908   18.7351 C   0  0  0  0  0  0  0  0  0  0  0  0
    4.3679   11.9586   19.6035 C   0  0  0  0  0  0  0  0  0  0  0  0
    5.7559   11.8217   20.1338 C   0  0  0  0  0  0  0  0  0  0  0  0
    6.3006   10.4848   19.7100 C   0  0  0  0  0  0  0  0  0  0  0  0
 37 38  1  0  0  0
 38 27  1  0  0  0
 27 28  2  0  0  0
 28 29  1  0  0  0
 29 30  2  0  0  0
 30 26  1  0  0  0
 26  1  1  0  0  0
  1  2  2  0  0  0
  2  3  1  0  0  0
  3  4  2  0  0  0
  4  8  1  0  0  0
  8  9  1  0  0  0
  9 10  2  0  0  0
  9 12  1  0  0  0
 12 13  1  0  0  0
 13 14  1  0  0  0
 12 15  1  0  0  0
 15 16  2  0  0  0
 15 17  1  0  0  0
 17 19  1  0  0  0
 19 20  2  0  0  0
 20 21  1  0  0  0
 21 22  1  0  0  0
 22 23  1  0  0  0
 22 24  1  0  0  0
 24 25  2  0  0  0
  4  5  1  0  0  0
  5  6  2  0  0  0
  6  7  1  0  0  0
 30 31  1  0  0  0
 31 32  2  0  0  0
 32 33  1  0  0  0
 33 34  2  0  0  0
 34 35  1  0  0  0
 35 36  2  0  0  0
 36 39  1  0  0  0
 39 40  1  0  0  0
 40 41  1  0  0  0
 41 42  1  0  0  0
 42 43  1  0  0  0
 43 44  1  0  0  0
 44 45  1  0  0  0
 45 46  1  0  0  0
 46 47  1  0  0  0
 47 48  1  0  0  0
 36 27  1  0  0  0
 48 43  1  0  0  0
 34 29  1  0  0  0
  6  1  1  0  0  0
 14 12  1  0  0  0
 25 19  1  0  0  0
  8 11  1  0  0  0
 17 18  1  0  0  0
M  END
> <minimizedAffinity>
-8.57599

> <CNNscore>
0.2076317370

> <CNNaffinity>
6.9215736389

> <CNN_VS>
1.4371383190

> <CNNaffinity_variance>
0.3150072098

$$$$
[H]C1=C([H])C([H])(F)C([H])([H])C([H])=C1N([H])C(=O)C1(C(=O)N([H])c2c([H])c([H])c(Oc3c([H])c([H])nc4c([H])c(OC([H])([H])C([H])([H])C([H])([H])N5C([H])([H])C([H])([H])C([H])([H])C([H])([H])C5([H])[H])c(OC([H])([H])[H])c([H])c34)c(F)c2[H])C([H])([H])C1([H])[H]


 48 53  0  0  0  0  0  0  0  0999 V2000
    3.8925    2.0017   16.8385 C   0  0  0  0  0  0  0  0  0  0  0  0
    4.1837    3.2741   16.3946 C   0  0  0  0  0  0  0  0  0  0  0  0
    3.4856    3.8240   15.3186 C   0  0  0  0  0  0  0  0  0  0  0  0
    2.5021    3.1522   14.6622 C   0  0  0  0  0  0  0  0  0  0  0  0
    2.2111    1.8739   15.1096 C   0  0  0  0  0  0  0  0  0  0  0  0
    2.8946    1.3209   16.1711 C   0  0  0  0  0  0  0  0  0  0  0  0
    2.5697    0.0395   16.5406 F   0  0  0  0  0  0  0  0  0  0  0  0
    1.7790    3.6442   13.5387 N   0  0  0  0  0  0  0  0  0  0  0  0
    2.3526    3.8333   12.2866 C   0  0  0  0  0  0  0  0  0  0  0  0
    3.5982    3.4960   12.1939 O   0  0  0  0  0  0  0  0  0  0  0  0
    0.7571    3.8159   13.7536 H   0  0  0  0  0  0  0  0  0  0  0  0
    1.7636    4.3535   11.0317 C   0  0  0  0  0  0  0  0  0  0  0  0
    1.2676    3.3169   10.0684 C   0  0  0  0  0  0  0  0  0  0  0  0
    0.2947    4.0148   10.9287 C   0  0  0  0  0  0  0  0  0  0  0  0
    2.2148    5.5843   10.3633 C   0  0  0  0  0  0  0  0  0  0  0  0
    2.2071    6.6275   11.1535 O   0  0  0  0  0  0  0  0  0  0  0  0
    2.6248    5.7753    9.0515 N   0  0  0  0  0  0  0  0  0  0  0  0
    2.6054    5.0087    8.3574 H   0  0  0  0  0  0  0  0  0  0  0  0
    3.0509    7.0552    8.5587 C   0  0  0  0  0  0  0  0  0  0  0  0
    4.3261    7.3852    8.5068 C   0  0  0  0  0  0  0  0  0  0  0  0
    4.7799    8.6997    8.0029 C   0  0  0  0  0  0  0  0  0  0  0  0
    3.7434    9.6222    7.5129 C   0  0  0  0  0  0  0  0  0  0  0  0
    4.0408    9.9434    6.1750 F   0  0  0  0  0  0  0  0  0  0  0  0
    2.3600    9.1555    7.6190 C   0  0  0  0  0  0  0  0  0  0  0  0
    2.0413    7.9788    8.0980 C   0  0  0  0  0  0  0  0  0  0  0  0
    4.5720    1.4331   17.9027 O   0  0  0  0  0  0  0  0  0  0  0  0
    5.5087    4.9759   19.8044 C   0  0  0  0  0  0  0  0  0  0  0  0
    5.1970    3.7947   19.1667 C   0  0  0  0  0  0  0  0  0  0  0  0
    4.5591    2.7709   19.8403 C   0  0  0  0  0  0  0  0  0  0  0  0
    4.2293    1.5601   19.2147 C   0  0  0  0  0  0  0  0  0  0  0  0
    3.5919    0.5544   19.9044 C   0  0  0  0  0  0  0  0  0  0  0  0
    3.2700    0.7359   21.2381 C   0  0  0  0  0  0  0  0  0  0  0  0
    3.5881    1.8969   21.8338 N   0  0  0  0  0  0  0  0  0  0  0  0
    4.2128    2.8921   21.1675 C   0  0  0  0  0  0  0  0  0  0  0  0
    4.5335    4.0890   21.7986 C   0  0  0  0  0  0  0  0  0  0  0  0
    5.1754    5.1272   21.1320 C   0  0  0  0  0  0  0  0  0  0  0  0
    5.4905    6.7123   18.0903 C   0  0  0  0  0  0  0  0  0  0  0  0
    6.1499    6.0099   19.1323 O   0  0  0  0  0  0  0  0  0  0  0  0
    5.4983    6.3224   21.7570 O   0  0  0  0  0  0  0  0  0  0  0  0
    6.5927    6.3052   22.6635 C   0  0  0  0  0  0  0  0  0  0  0  0
    7.8380    6.7718   21.9240 C   0  0  0  0  0  0  0  0  0  0  0  0
    8.0818    8.2047   22.2703 C   0  0  0  0  0  0  0  0  0  0  0  0
    8.1431    9.0070   21.0879 N   0  0  0  0  0  0  0  0  0  0  0  0
    6.7938    9.4118   20.6868 C   0  0  0  0  0  0  0  0  0  0  0  0
    6.5408   10.8584   20.9601 C   0  0  0  0  0  0  0  0  0  0  0  0
    7.1255   11.3507   22.2669 C   0  0  0  0  0  0  0  0  0  0  0  0
    8.5680   11.0037   22.4253 C   0  0  0  0  0  0  0  0  0  0  0  0
    8.9910   10.1664   21.2491 C   0  0  0  0  0  0  0  0  0  0  0  0
 37 38  1  0  0  0
 38 27  1  0  0  0
 27 28  2  0  0  0
 28 29  1  0  0  0
 29 30  2  0  0  0
 30 26  1  0  0  0
 26  1  1  0  0  0
  1  2  2  0  0  0
  2  3  1  0  0  0
  3  4  2  0  0  0
  4  8  1  0  0  0
  8  9  1  0  0  0
  9 10  2  0  0  0
  9 12  1  0  0  0
 12 13  1  0  0  0
 13 14  1  0  0  0
 12 15  1  0  0  0
 15 16  2  0  0  0
 15 17  1  0  0  0
 17 19  1  0  0  0
 19 20  2  0  0  0
 20 21  1  0  0  0
 21 22  1  0  0  0
 22 23  1  0  0  0
 22 24  1  0  0  0
 24 25  2  0  0  0
  4  5  1  0  0  0
  5  6  2  0  0  0
  6  7  1  0  0  0
 30 31  1  0  0  0
 31 32  2  0  0  0
 32 33  1  0  0  0
 33 34  2  0  0  0
 34 35  1  0  0  0
 35 36  2  0  0  0
 36 39  1  0  0  0
 39 40  1  0  0  0
 40 41  1  0  0  0
 41 42  1  0  0  0
 42 43  1  0  0  0
 43 44  1  0  0  0
 44 45  1  0  0  0
 45 46  1  0  0  0
 46 47  1  0  0  0
 47 48  1  0  0  0
 36 27  1  0  0  0
 48 43  1  0  0  0
 34 29  1  0  0  0
  6  1  1  0  0  0
 14 12  1  0  0  0
 25 19  1  0  0  0
  8 11  1  0  0  0
 17 18  1  0  0  0
M  END
> <minimizedAffinity>
-8.42282

> <CNNscore>
0.1906526089

> <CNNaffinity>
6.8720459938

> <CNN_VS>
1.3101735115

> <CNNaffinity_variance>
0.2111684084

$$$$
[H]C1=C([H])C([H])(F)C([H])([H])C([H])=C1N([H])C(=O)C1(C(=O)N([H])c2c([H])c([H])c(Oc3c([H])c([H])nc4c([H])c(OC([H])([H])C([H])([H])C([H])([H])N5C([H])([H])C([H])([H])C([H])([H])C([H])([H])C5([H])[H])c(OC([H])([H])[H])c([H])c34)c(F)c2[H])C([H])([H])C1([H])[H]


 48 53  0  0  0  0  0  0  0  0999 V2000
    3.9802    1.9588   16.9057 C   0  0  0  0  0  0  0  0  0  0  0  0
    4.4452    3.1134   16.3127 C   0  0  0  0  0  0  0  0  0  0  0  0
    3.7827    3.6585   15.2120 C   0  0  0  0  0  0  0  0  0  0  0  0
    2.6677    3.0954   14.6744 C   0  0  0  0  0  0  0  0  0  0  0  0
    2.2022    1.9353   15.2715 C   0  0  0  0  0  0  0  0  0  0  0  0
    2.8489    1.3881   16.3587 C   0  0  0  0  0  0  0  0  0  0  0  0
    2.3450    0.2227   16.8801 F   0  0  0  0  0  0  0  0  0  0  0  0
    1.9686    3.5830   13.5339 N   0  0  0  0  0  0  0  0  0  0  0  0
    1.3099    4.8070   13.5096 C   0  0  0  0  0  0  0  0  0  0  0  0
    1.4018    5.5045   14.5954 O   0  0  0  0  0  0  0  0  0  0  0  0
    2.0350    2.9300   12.7038 H   0  0  0  0  0  0  0  0  0  0  0  0
    0.5222    5.4498   12.4332 C   0  0  0  0  0  0  0  0  0  0  0  0
   -0.8688    4.9230   12.2431 C   0  0  0  0  0  0  0  0  0  0  0  0
   -0.6780    6.1810   12.9880 C   0  0  0  0  0  0  0  0  0  0  0  0
    1.1089    5.9739   11.1897 C   0  0  0  0  0  0  0  0  0  0  0  0
    2.2493    5.4090   10.8846 O   0  0  0  0  0  0  0  0  0  0  0  0
    0.6305    6.9573   10.3356 N   0  0  0  0  0  0  0  0  0  0  0  0
   -0.2358    7.4837   10.5414 H   0  0  0  0  0  0  0  0  0  0  0  0
    1.3298    7.3450    9.1426 C   0  0  0  0  0  0  0  0  0  0  0  0
    0.9797    6.8863    7.9574 C   0  0  0  0  0  0  0  0  0  0  0  0
    1.6909    7.2756    6.7203 C   0  0  0  0  0  0  0  0  0  0  0  0
    2.7916    8.2425    6.8578 C   0  0  0  0  0  0  0  0  0  0  0  0
    2.5010    9.3546    6.0453 F   0  0  0  0  0  0  0  0  0  0  0  0
    3.0974    8.6847    8.2193 C   0  0  0  0  0  0  0  0  0  0  0  0
    2.4278    8.2742    9.2676 C   0  0  0  0  0  0  0  0  0  0  0  0
    4.6207    1.3972   17.9975 O   0  0  0  0  0  0  0  0  0  0  0  0
    5.4239    4.9732   19.8981 C   0  0  0  0  0  0  0  0  0  0  0  0
    5.1569    3.7809   19.2607 C   0  0  0  0  0  0  0  0  0  0  0  0
    4.5135    2.7516   19.9206 C   0  0  0  0  0  0  0  0  0  0  0  0
    4.2285    1.5295   19.2949 C   0  0  0  0  0  0  0  0  0  0  0  0
    3.5847    0.5184   19.9707 C   0  0  0  0  0  0  0  0  0  0  0  0
    3.2115    0.7057   21.2903 C   0  0  0  0  0  0  0  0  0  0  0  0
    3.4869    1.8775   21.8859 N   0  0  0  0  0  0  0  0  0  0  0  0
    4.1173    2.8781   21.2333 C   0  0  0  0  0  0  0  0  0  0  0  0
    4.3933    4.0862   21.8641 C   0  0  0  0  0  0  0  0  0  0  0  0
    5.0401    5.1301   21.2112 C   0  0  0  0  0  0  0  0  0  0  0  0
    5.4154    6.7305   18.2053 C   0  0  0  0  0  0  0  0  0  0  0  0
    6.0703    6.0129   19.2397 O   0  0  0  0  0  0  0  0  0  0  0  0
    5.3186    6.3365   21.8361 O   0  0  0  0  0  0  0  0  0  0  0  0
    6.4947    6.3986   22.6315 C   0  0  0  0  0  0  0  0  0  0  0  0
    7.3053    7.6114   22.1989 C   0  0  0  0  0  0  0  0  0  0  0  0
    8.7095    7.1712   21.9404 C   0  0  0  0  0  0  0  0  0  0  0  0
    9.1958    6.3718   23.0221 N   0  0  0  0  0  0  0  0  0  0  0  0
   10.2509    5.4740   22.5464 C   0  0  0  0  0  0  0  0  0  0  0  0
   11.6024    5.9033   23.0159 C   0  0  0  0  0  0  0  0  0  0  0  0
   11.8142    7.4022   22.9983 C   0  0  0  0  0  0  0  0  0  0  0  0
   10.7260    8.1509   23.6922 C   0  0  0  0  0  0  0  0  0  0  0  0
    9.6728    7.1694   24.1290 C   0  0  0  0  0  0  0  0  0  0  0  0
 37 38  1  0  0  0
 38 27  1  0  0  0
 27 28  2  0  0  0
 28 29  1  0  0  0
 29 30  2  0  0  0
 30 26  1  0  0  0
 26  1  1  0  0  0
  1  2  2  0  0  0
  2  3  1  0  0  0
  3  4  2  0  0  0
  4  8  1  0  0  0
  8  9  1  0  0  0
  9 10  2  0  0  0
  9 12  1  0  0  0
 12 13  1  0  0  0
 13 14  1  0  0  0
 12 15  1  0  0  0
 15 16  2  0  0  0
 15 17  1  0  0  0
 17 19  1  0  0  0
 19 20  2  0  0  0
 20 21  1  0  0  0
 21 22  1  0  0  0
 22 23  1  0  0  0
 22 24  1  0  0  0
 24 25  2  0  0  0
  4  5  1  0  0  0
  5  6  2  0  0  0
  6  7  1  0  0  0
 30 31  1  0  0  0
 31 32  2  0  0  0
 32 33  1  0  0  0
 33 34  2  0  0  0
 34 35  1  0  0  0
 35 36  2  0  0  0
 36 39  1  0  0  0
 39 40  1  0  0  0
 40 41  1  0  0  0
 41 42  1  0  0  0
 42 43  1  0  0  0
 43 44  1  0  0  0
 44 45  1  0  0  0
 45 46  1  0  0  0
 46 47  1  0  0  0
 47 48  1  0  0  0
 36 27  1  0  0  0
 48 43  1  0  0  0
 34 29  1  0  0  0
  6  1  1  0  0  0
 14 12  1  0  0  0
 25 19  1  0  0  0
  8 11  1  0  0  0
 17 18  1  0  0  0
M  END
> <minimizedAffinity>
-8.70189

> <CNNscore>
0.1821558475

> <CNNaffinity>
6.7647185326

> <CNN_VS>
1.2322330475

> <CNNaffinity_variance>
0.2953773141

$$$$
[H]C1=C([H])C([H])(F)C([H])([H])C([H])=C1N([H])C(=O)C1(C(=O)N([H])c2c([H])c([H])c(Oc3c([H])c([H])nc4c([H])c(OC([H])([H])C([H])([H])C([H])([H])N5C([H])([H])C([H])([H])C([H])([H])C([H])([H])C5([H])[H])c(OC([H])([H])[H])c([H])c34)c(F)c2[H])C([H])([H])C1([H])[H]


 48 53  0  0  0  0  0  0  0  0999 V2000
    3.4243    6.9779   12.1255 C   0  0  0  0  0  0  0  0  0  0  0  0
    2.3689    6.6007   12.9285 C   0  0  0  0  0  0  0  0  0  0  0  0
    2.3630    6.9245   14.2859 C   0  0  0  0  0  0  0  0  0  0  0  0
    3.3736    7.6138   14.8799 C   0  0  0  0  0  0  0  0  0  0  0  0
    4.4332    7.9918   14.0714 C   0  0  0  0  0  0  0  0  0  0  0  0
    4.4496    7.6769   12.7297 C   0  0  0  0  0  0  0  0  0  0  0  0
    5.5453    8.0611   11.9979 F   0  0  0  0  0  0  0  0  0  0  0  0
    3.4421    7.9436   16.2632 N   0  0  0  0  0  0  0  0  0  0  0  0
    4.1275    7.1749   17.1969 C   0  0  0  0  0  0  0  0  0  0  0  0
    4.7398    6.1410   16.7173 O   0  0  0  0  0  0  0  0  0  0  0  0
    2.9454    8.8495   16.4924 H   0  0  0  0  0  0  0  0  0  0  0  0
    4.2786    7.3530   18.6590 C   0  0  0  0  0  0  0  0  0  0  0  0
    5.2254    8.4340   19.0873 C   0  0  0  0  0  0  0  0  0  0  0  0
    3.7766    8.7063   19.1056 C   0  0  0  0  0  0  0  0  0  0  0  0
    4.1910    6.2525   19.6319 C   0  0  0  0  0  0  0  0  0  0  0  0
    3.0800    5.5683   19.5313 O   0  0  0  0  0  0  0  0  0  0  0  0
    5.0969    5.8662   20.6094 N   0  0  0  0  0  0  0  0  0  0  0  0
    5.9702    6.3929   20.7819 H   0  0  0  0  0  0  0  0  0  0  0  0
    4.8591    4.7473   21.4778 C   0  0  0  0  0  0  0  0  0  0  0  0
    5.3484    3.5521   21.2133 C   0  0  0  0  0  0  0  0  0  0  0  0
    5.1110    2.3903   22.0973 C   0  0  0  0  0  0  0  0  0  0  0  0
    4.3346    2.6309   23.3239 C   0  0  0  0  0  0  0  0  0  0  0  0
    5.1244    2.2467   24.4240 F   0  0  0  0  0  0  0  0  0  0  0  0
    3.8375    3.9940   23.5175 C   0  0  0  0  0  0  0  0  0  0  0  0
    4.0775    4.9652   22.6720 C   0  0  0  0  0  0  0  0  0  0  0  0
    3.4546    6.6671   10.7764 O   0  0  0  0  0  0  0  0  0  0  0  0
    0.1537    6.2875    8.3258 C   0  0  0  0  0  0  0  0  0  0  0  0
    1.2550    6.4176    9.1439 C   0  0  0  0  0  0  0  0  0  0  0  0
    2.0685    5.3348    9.4170 C   0  0  0  0  0  0  0  0  0  0  0  0
    3.1957    5.4404   10.2444 C   0  0  0  0  0  0  0  0  0  0  0  0
    3.9934    4.3490   10.5013 C   0  0  0  0  0  0  0  0  0  0  0  0
    3.6813    3.1245    9.9368 C   0  0  0  0  0  0  0  0  0  0  0  0
    2.6006    3.0275    9.1454 N   0  0  0  0  0  0  0  0  0  0  0  0
    1.8102    4.0914    8.8847 C   0  0  0  0  0  0  0  0  0  0  0  0
    0.6957    3.9744    8.0613 C   0  0  0  0  0  0  0  0  0  0  0  0
   -0.1310    5.0564    7.7785 C   0  0  0  0  0  0  0  0  0  0  0  0
   -0.4489    8.1667    6.8908 C   0  0  0  0  0  0  0  0  0  0  0  0
   -0.6684    7.3730    8.0466 O   0  0  0  0  0  0  0  0  0  0  0  0
   -1.2442    4.9448    6.9588 O   0  0  0  0  0  0  0  0  0  0  0  0
   -2.2729    4.0589    7.3791 C   0  0  0  0  0  0  0  0  0  0  0  0
   -3.5239    4.8756    7.6674 C   0  0  0  0  0  0  0  0  0  0  0  0
   -3.6782    4.9932    9.1489 C   0  0  0  0  0  0  0  0  0  0  0  0
   -4.8689    4.3329    9.5870 N   0  0  0  0  0  0  0  0  0  0  0  0
   -4.7220    3.9082   10.9812 C   0  0  0  0  0  0  0  0  0  0  0  0
   -5.5367    4.7485   11.9092 C   0  0  0  0  0  0  0  0  0  0  0  0
   -5.5462    6.2216   11.5599 C   0  0  0  0  0  0  0  0  0  0  0  0
   -5.8969    6.4780   10.1325 C   0  0  0  0  0  0  0  0  0  0  0  0
   -6.0471    5.1554    9.4314 C   0  0  0  0  0  0  0  0  0  0  0  0
 37 38  1  0  0  0
 38 27  1  0  0  0
 27 28  2  0  0  0
 28 29  1  0  0  0
 29 30  2  0  0  0
 30 26  1  0  0  0
 26  1  1  0  0  0
  1  2  2  0  0  0
  2  3  1  0  0  0
  3  4  2  0  0  0
  4  8  1  0  0  0
  8  9  1  0  0  0
  9 10  2  0  0  0
  9 12  1  0  0  0
 12 13  1  0  0  0
 13 14  1  0  0  0
 12 15  1  0  0  0
 15 16  2  0  0  0
 15 17  1  0  0  0
 17 19  1  0  0  0
 19 20  2  0  0  0
 20 21  1  0  0  0
 21 22  1  0  0  0
 22 23  1  0  0  0
 22 24  1  0  0  0
 24 25  2  0  0  0
  4  5  1  0  0  0
  5  6  2  0  0  0
  6  7  1  0  0  0
 30 31  1  0  0  0
 31 32  2  0  0  0
 32 33  1  0  0  0
 33 34  2  0  0  0
 34 35  1  0  0  0
 35 36  2  0  0  0
 36 39  1  0  0  0
 39 40  1  0  0  0
 40 41  1  0  0  0
 41 42  1  0  0  0
 42 43  1  0  0  0
 43 44  1  0  0  0
 44 45  1  0  0  0
 45 46  1  0  0  0
 46 47  1  0  0  0
 47 48  1  0  0  0
 36 27  1  0  0  0
 48 43  1  0  0  0
 34 29  1  0  0  0
  6  1  1  0  0  0
 14 12  1  0  0  0
 25 19  1  0  0  0
  8 11  1  0  0  0
 17 18  1  0  0  0
M  END
> <minimizedAffinity>
-7.78443

> <CNNscore>
0.1721215695

> <CNNaffinity>
6.5193262100

> <CNN_VS>
1.1221166849

> <CNNaffinity_variance>
0.6805640459

$$$$
[H]C1=C([H])C([H])(F)C([H])([H])C([H])=C1N([H])C(=O)C1(C(=O)N([H])c2c([H])c([H])c(Oc3c([H])c([H])nc4c([H])c(OC([H])([H])C([H])([H])C([H])([H])N5C([H])([H])C([H])([H])C([H])([H])C([H])([H])C5([H])[H])c(OC([H])([H])[H])c([H])c34)c(F)c2[H])C([H])([H])C1([H])[H]


 48 53  0  0  0  0  0  0  0  0999 V2000
    3.6612    2.6643   15.9788 C   0  0  0  0  0  0  0  0  0  0  0  0
    3.3436    3.9356   15.5501 C   0  0  0  0  0  0  0  0  0  0  0  0
    2.3361    4.1312   14.6045 C   0  0  0  0  0  0  0  0  0  0  0  0
    1.6272    3.1038   14.0648 C   0  0  0  0  0  0  0  0  0  0  0  0
    1.9479    1.8272   14.4966 C   0  0  0  0  0  0  0  0  0  0  0  0
    2.9414    1.6224   15.4297 C   0  0  0  0  0  0  0  0  0  0  0  0
    3.2216    0.3277   15.7891 F   0  0  0  0  0  0  0  0  0  0  0  0
    0.6139    3.2354   13.0733 N   0  0  0  0  0  0  0  0  0  0  0  0
    0.8882    3.4306   11.7245 C   0  0  0  0  0  0  0  0  0  0  0  0
    2.1441    3.4512   11.4144 O   0  0  0  0  0  0  0  0  0  0  0  0
   -0.3619    3.1349   13.4704 H   0  0  0  0  0  0  0  0  0  0  0  0
   -0.0295    3.6116   10.5767 C   0  0  0  0  0  0  0  0  0  0  0  0
    0.6280    3.8680    9.2536 C   0  0  0  0  0  0  0  0  0  0  0  0
    0.1386    2.5105    9.5559 C   0  0  0  0  0  0  0  0  0  0  0  0
   -1.3609    4.2293   10.6815 C   0  0  0  0  0  0  0  0  0  0  0  0
   -1.3567    5.3385   11.3761 O   0  0  0  0  0  0  0  0  0  0  0  0
   -2.5749    3.7997   10.1647 N   0  0  0  0  0  0  0  0  0  0  0  0
   -2.6632    2.9057    9.6521 H   0  0  0  0  0  0  0  0  0  0  0  0
   -3.7931    4.5371   10.3514 C   0  0  0  0  0  0  0  0  0  0  0  0
   -4.6163    4.2696   11.3456 C   0  0  0  0  0  0  0  0  0  0  0  0
   -5.8748    5.0194   11.5499 C   0  0  0  0  0  0  0  0  0  0  0  0
   -6.1565    6.1205   10.6152 C   0  0  0  0  0  0  0  0  0  0  0  0
   -6.3091    7.3022   11.3647 F   0  0  0  0  0  0  0  0  0  0  0  0
   -5.1769    6.3289    9.5476 C   0  0  0  0  0  0  0  0  0  0  0  0
   -4.0929    5.6038    9.4258 C   0  0  0  0  0  0  0  0  0  0  0  0
    4.6578    2.4437   16.9145 O   0  0  0  0  0  0  0  0  0  0  0  0
    5.8920    5.3225   19.6043 C   0  0  0  0  0  0  0  0  0  0  0  0
    5.4808    4.3637   18.7039 C   0  0  0  0  0  0  0  0  0  0  0  0
    4.8842    3.1944   19.1348 C   0  0  0  0  0  0  0  0  0  0  0  0
    4.4552    2.2038   18.2397 C   0  0  0  0  0  0  0  0  0  0  0  0
    3.8613    1.0475   18.6909 C   0  0  0  0  0  0  0  0  0  0  0  0
    3.6833    0.8540   20.0497 C   0  0  0  0  0  0  0  0  0  0  0  0
    4.0960    1.8049   20.9036 N   0  0  0  0  0  0  0  0  0  0  0  0
    4.6794    2.9447   20.4734 C   0  0  0  0  0  0  0  0  0  0  0  0
    5.0994    3.9205   21.3707 C   0  0  0  0  0  0  0  0  0  0  0  0
    5.7011    5.1016   20.9500 C   0  0  0  0  0  0  0  0  0  0  0  0
    6.4793    6.8624   17.8049 C   0  0  0  0  0  0  0  0  0  0  0  0
    6.4924    6.5012   19.1773 O   0  0  0  0  0  0  0  0  0  0  0  0
    6.1227    6.0774   21.8409 O   0  0  0  0  0  0  0  0  0  0  0  0
    7.4704    6.0097   22.2870 C   0  0  0  0  0  0  0  0  0  0  0  0
    7.8623    7.3705   22.8436 C   0  0  0  0  0  0  0  0  0  0  0  0
    7.6832    8.3894   21.7656 C   0  0  0  0  0  0  0  0  0  0  0  0
    7.1618    9.6078   22.3033 N   0  0  0  0  0  0  0  0  0  0  0  0
    7.4469   10.7194   21.3931 C   0  0  0  0  0  0  0  0  0  0  0  0
    6.2202   11.1843   20.6787 C   0  0  0  0  0  0  0  0  0  0  0  0
    5.2966   10.0653   20.2465 C   0  0  0  0  0  0  0  0  0  0  0  0
    4.9653    9.1242   21.3560 C   0  0  0  0  0  0  0  0  0  0  0  0
    5.7447    9.5303   22.5771 C   0  0  0  0  0  0  0  0  0  0  0  0
 37 38  1  0  0  0
 38 27  1  0  0  0
 27 28  2  0  0  0
 28 29  1  0  0  0
 29 30  2  0  0  0
 30 26  1  0  0  0
 26  1  1  0  0  0
  1  2  2  0  0  0
  2  3  1  0  0  0
  3  4  2  0  0  0
  4  8  1  0  0  0
  8  9  1  0  0  0
  9 10  2  0  0  0
  9 12  1  0  0  0
 12 13  1  0  0  0
 13 14  1  0  0  0
 12 15  1  0  0  0
 15 16  2  0  0  0
 15 17  1  0  0  0
 17 19  1  0  0  0
 19 20  2  0  0  0
 20 21  1  0  0  0
 21 22  1  0  0  0
 22 23  1  0  0  0
 22 24  1  0  0  0
 24 25  2  0  0  0
  4  5  1  0  0  0
  5  6  2  0  0  0
  6  7  1  0  0  0
 30 31  1  0  0  0
 31 32  2  0  0  0
 32 33  1  0  0  0
 33 34  2  0  0  0
 34 35  1  0  0  0
 35 36  2  0  0  0
 36 39  1  0  0  0
 39 40  1  0  0  0
 40 41  1  0  0  0
 41 42  1  0  0  0
 42 43  1  0  0  0
 43 44  1  0  0  0
 44 45  1  0  0  0
 45 46  1  0  0  0
 46 47  1  0  0  0
 47 48  1  0  0  0
 36 27  1  0  0  0
 48 43  1  0  0  0
 34 29  1  0  0  0
  6  1  1  0  0  0
 14 12  1  0  0  0
 25 19  1  0  0  0
  8 11  1  0  0  0
 17 18  1  0  0  0
M  END
> <minimizedAffinity>
-9.34191

> <CNNscore>
0.1554065496

> <CNNaffinity>
6.4929246902

> <CNN_VS>
1.0090429783

> <CNNaffinity_variance>
0.3461838663

$$$$
[H]O[C@]1([H])C([H])([H])C([H])([H])[C@@]([H])(n2c([H])c(-c3c([H])c([H])c(S(=O)(=O)N4C([H])([H])C([H])([H])N(C([H])([H])[H])C([H])([H])C4([H])[H])c([H])c3[H])c3c([H])nc(N([H])C([H])([H])C([H])([H])C([H])([H])C([H])([H])[H])nc32)C([H])([H])C1([H])[H]


 39 43  0  0  0  0  0  0  0  0999 V2000
    2.9242    0.3667   18.0432 C   0  0  0  0  0  0  0  0  0  0  0  0
    2.3274    0.2169   16.8444 N   0  0  0  0  0  0  0  0  0  0  0  0
    2.4349    1.0876   15.8479 C   0  0  0  0  0  0  0  0  0  0  0  0
    3.2098    2.2353   16.0340 C   0  0  0  0  0  0  0  0  0  0  0  0
    3.5409    3.3106   15.2748 C   0  0  0  0  0  0  0  0  0  0  0  0
    4.3437    4.0992   16.0449 C   0  0  0  0  0  0  0  0  0  0  0  0
    4.5317    3.5624   17.2610 N   0  0  0  0  0  0  0  0  0  0  0  0
    3.8238    2.3948   17.2596 C   0  0  0  0  0  0  0  0  0  0  0  0
    3.6705    1.4713   18.2239 N   0  0  0  0  0  0  0  0  0  0  0  0
    5.3108    4.0698   18.3787 C   0  0  0  0  0  0  0  0  0  0  0  0
    6.1891    5.2195   17.9631 C   0  0  0  0  0  0  0  0  0  0  0  0
    5.9144    6.4823   18.7295 C   0  0  0  0  0  0  0  0  0  0  0  0
    5.8948    6.2931   20.2146 C   0  0  0  0  0  0  0  0  0  0  0  0
    7.1743    6.2213   20.7623 O   0  0  0  0  0  0  0  0  0  0  0  0
    5.0810    5.0966   20.6390 C   0  0  0  0  0  0  0  0  0  0  0  0
    4.3422    4.5783   19.4333 C   0  0  0  0  0  0  0  0  0  0  0  0
    7.4782    7.1152   21.0413 H   0  0  0  0  0  0  0  0  0  0  0  0
    3.1302    3.5815   13.9058 C   0  0  0  0  0  0  0  0  0  0  0  0
    4.0147    4.0276   12.9413 C   0  0  0  0  0  0  0  0  0  0  0  0
    3.6007    4.2755   11.6489 C   0  0  0  0  0  0  0  0  0  0  0  0
    2.2951    4.0958   11.2446 C   0  0  0  0  0  0  0  0  0  0  0  0
    1.4055    3.6512   12.1993 C   0  0  0  0  0  0  0  0  0  0  0  0
    1.8156    3.4029   13.4899 C   0  0  0  0  0  0  0  0  0  0  0  0
    1.7691    4.4095    9.6050 S   0  0  0  0  0  0  0  0  0  0  0  0
    2.9863    4.5278    8.7486 O   0  0  0  0  0  0  0  0  0  0  0  0
    0.9363    3.2259    9.1785 O   0  0  0  0  0  0  0  0  0  0  0  0
    0.7954    5.8051    9.5776 N   0  0  0  0  0  0  0  0  0  0  0  0
    0.6094    6.3901    8.2962 C   0  0  0  0  0  0  0  0  0  0  0  0
    1.8114    7.1185    7.8389 C   0  0  0  0  0  0  0  0  0  0  0  0
    2.5318    7.8595    8.7806 N   0  0  0  0  0  0  0  0  0  0  0  0
    3.8460    8.2579    8.4217 C   0  0  0  0  0  0  0  0  0  0  0  0
    2.2667    7.6960   10.1435 C   0  0  0  0  0  0  0  0  0  0  0  0
    1.1397    6.8157   10.5219 C   0  0  0  0  0  0  0  0  0  0  0  0
    2.7690   -0.6069   19.0737 N   0  0  0  0  0  0  0  0  0  0  0  0
    2.7535   -1.6062   18.7899 H   0  0  0  0  0  0  0  0  0  0  0  0
    2.6362   -0.2654   20.4592 C   0  0  0  0  0  0  0  0  0  0  0  0
    3.8996   -0.3117   21.2526 C   0  0  0  0  0  0  0  0  0  0  0  0
    5.7660    1.3500   21.2244 C   0  0  0  0  0  0  0  0  0  0  0  0
    4.3675    1.0629   21.6819 C   0  0  0  0  0  0  0  0  0  0  0  0
 38 39  1  0  0  0
 39 37  1  0  0  0
 37 36  1  0  0  0
 36 34  1  0  0  0
 34  1  1  0  0  0
  1  2  2  0  0  0
  2  3  1  0  0  0
  3  4  2  0  0  0
  4  5  1  0  0  0
  5  6  2  0  0  0
  6  7  1  0  0  0
  7 10  1  0  0  0
 10 11  1  0  0  0
 11 12  1  0  0  0
 12 13  1  0  0  0
 13 14  1  0  0  0
 13 15  1  0  0  0
 15 16  1  0  0  0
  7  8  1  0  0  0
  8  9  2  0  0  0
  5 18  1  0  0  0
 18 19  2  0  0  0
 19 20  1  0  0  0
 20 21  2  0  0  0
 21 22  1  0  0  0
 22 23  2  0  0  0
 21 24  1  0  0  0
 24 25  2  0  0  0
 24 26  2  0  0  0
 24 27  1  0  0  0
 27 28  1  0  0  0
 28 29  1  0  0  0
 29 30  1  0  0  0
 30 31  1  0  0  0
 30 32  1  0  0  0
 32 33  1  0  0  0
  9  1  1  0  0  0
 23 18  1  0  0  0
 33 27  1  0  0  0
  8  4  1  0  0  0
 16 10  1  0  0  0
 34 35  1  0  0  0
 14 17  1  0  0  0
M  END
> <minimizedAffinity>
-8.01846

> <CNNscore>
0.9104224443

> <CNNaffinity>
7.4585180283

> <CNN_VS>
6.7904024124

> <CNNaffinity_variance>
0.0248951372

$$$$
[H]O[C@]1([H])C([H])([H])C([H])([H])[C@@]([H])(n2c([H])c(-c3c([H])c([H])c(S(=O)(=O)N4C([H])([H])C([H])([H])N(C([H])([H])[H])C([H])([H])C4([H])[H])c([H])c3[H])c3c([H])nc(N([H])C([H])([H])C([H])([H])C([H])([H])C([H])([H])[H])nc32)C([H])([H])C1([H])[H]


 39 43  0  0  0  0  0  0  0  0999 V2000
    3.5111    0.7531   19.2996 C   0  0  0  0  0  0  0  0  0  0  0  0
    2.8325    0.2399   18.2546 N   0  0  0  0  0  0  0  0  0  0  0  0
    2.7617    0.8162   17.0606 C   0  0  0  0  0  0  0  0  0  0  0  0
    3.4246    2.0290   16.8552 C   0  0  0  0  0  0  0  0  0  0  0  0
    3.5742    2.8831   15.8111 C   0  0  0  0  0  0  0  0  0  0  0  0
    4.3528    3.9103   16.2561 C   0  0  0  0  0  0  0  0  0  0  0  0
    4.7000    3.7369   17.5413 N   0  0  0  0  0  0  0  0  0  0  0  0
    4.1214    2.5599   17.9216 C   0  0  0  0  0  0  0  0  0  0  0  0
    4.1497    1.9207   19.1034 N   0  0  0  0  0  0  0  0  0  0  0  0
    5.5145    4.5859   18.3954 C   0  0  0  0  0  0  0  0  0  0  0  0
    6.3802    5.5147   17.5869 C   0  0  0  0  0  0  0  0  0  0  0  0
    6.1311    6.9662   17.8843 C   0  0  0  0  0  0  0  0  0  0  0  0
    6.1583    7.2949   19.3447 C   0  0  0  0  0  0  0  0  0  0  0  0
    7.4543    7.3992   19.8462 O   0  0  0  0  0  0  0  0  0  0  0  0
    5.3571    6.3243   20.1756 C   0  0  0  0  0  0  0  0  0  0  0  0
    4.5802    5.4347   19.2413 C   0  0  0  0  0  0  0  0  0  0  0  0
    7.7678    8.3311   19.7945 H   0  0  0  0  0  0  0  0  0  0  0  0
    3.0212    2.7427   14.4729 C   0  0  0  0  0  0  0  0  0  0  0  0
    3.5747    3.3706   13.3726 C   0  0  0  0  0  0  0  0  0  0  0  0
    3.0325    3.2199   12.1131 C   0  0  0  0  0  0  0  0  0  0  0  0
    1.9184    2.4430   11.8771 C   0  0  0  0  0  0  0  0  0  0  0  0
    1.3590    1.8128   12.9681 C   0  0  0  0  0  0  0  0  0  0  0  0
    1.8979    1.9613   14.2263 C   0  0  0  0  0  0  0  0  0  0  0  0
    1.2300    2.2507   10.2794 S   0  0  0  0  0  0  0  0  0  0  0  0
    2.2834    2.6034    9.2818 O   0  0  0  0  0  0  0  0  0  0  0  0
    0.8382    0.8002   10.1434 O   0  0  0  0  0  0  0  0  0  0  0  0
   -0.1673    3.2126   10.1430 N   0  0  0  0  0  0  0  0  0  0  0  0
   -0.6330    3.4216    8.8170 C   0  0  0  0  0  0  0  0  0  0  0  0
    0.2063    4.3895    8.0800 C   0  0  0  0  0  0  0  0  0  0  0  0
    0.6875    5.5058    8.7711 N   0  0  0  0  0  0  0  0  0  0  0  0
    1.7532    6.2269    8.1722 C   0  0  0  0  0  0  0  0  0  0  0  0
    0.5905    5.5548   10.1649 C   0  0  0  0  0  0  0  0  0  0  0  0
   -0.1313    4.4548   10.8411 C   0  0  0  0  0  0  0  0  0  0  0  0
    3.5483    0.0834   20.5581 N   0  0  0  0  0  0  0  0  0  0  0  0
    3.9918   -0.8557   20.5880 H   0  0  0  0  0  0  0  0  0  0  0  0
    3.0076    0.6461   21.7602 C   0  0  0  0  0  0  0  0  0  0  0  0
    4.0104    1.2251   22.7020 C   0  0  0  0  0  0  0  0  0  0  0  0
    5.5153    3.1846   22.3267 C   0  0  0  0  0  0  0  0  0  0  0  0
    4.1107    2.7319   22.5905 C   0  0  0  0  0  0  0  0  0  0  0  0
 38 39  1  0  0  0
 39 37  1  0  0  0
 37 36  1  0  0  0
 36 34  1  0  0  0
 34  1  1  0  0  0
  1  2  2  0  0  0
  2  3  1  0  0  0
  3  4  2  0  0  0
  4  5  1  0  0  0
  5  6  2  0  0  0
  6  7  1  0  0  0
  7 10  1  0  0  0
 10 11  1  0  0  0
 11 12  1  0  0  0
 12 13  1  0  0  0
 13 14  1  0  0  0
 13 15  1  0  0  0
 15 16  1  0  0  0
  7  8  1  0  0  0
  8  9  2  0  0  0
  5 18  1  0  0  0
 18 19  2  0  0  0
 19 20  1  0  0  0
 20 21  2  0  0  0
 21 22  1  0  0  0
 22 23  2  0  0  0
 21 24  1  0  0  0
 24 25  2  0  0  0
 24 26  2  0  0  0
 24 27  1  0  0  0
 27 28  1  0  0  0
 28 29  1  0  0  0
 29 30  1  0  0  0
 30 31  1  0  0  0
 30 32  1  0  0  0
 32 33  1  0  0  0
  9  1  1  0  0  0
 23 18  1  0  0  0
 33 27  1  0  0  0
  8  4  1  0  0  0
 16 10  1  0  0  0
 34 35  1  0  0  0
 14 17  1  0  0  0
M  END
> <minimizedAffinity>
-7.88865

> <CNNscore>
0.8833171129

> <CNNaffinity>
7.5893449783

> <CNN_VS>
6.7037982941

> <CNNaffinity_variance>
0.1908636391

$$$$
[H]O[C@]1([H])C([H])([H])C([H])([H])[C@@]([H])(n2c([H])c(-c3c([H])c([H])c(S(=O)(=O)N4C([H])([H])C([H])([H])N(C([H])([H])[H])C([H])([H])C4([H])[H])c([H])c3[H])c3c([H])nc(N([H])C([H])([H])C([H])([H])C([H])([H])C([H])([H])[H])nc32)C([H])([H])C1([H])[H]


 39 43  0  0  0  0  0  0  0  0999 V2000
    3.5089    0.8105   19.1685 C   0  0  0  0  0  0  0  0  0  0  0  0
    2.8944    0.3348   18.0676 N   0  0  0  0  0  0  0  0  0  0  0  0
    2.9002    0.9489   16.8906 C   0  0  0  0  0  0  0  0  0  0  0  0
    3.5795    2.1635   16.7655 C   0  0  0  0  0  0  0  0  0  0  0  0
    3.7972    3.0492   15.7604 C   0  0  0  0  0  0  0  0  0  0  0  0
    4.5509    4.0571   16.2853 C   0  0  0  0  0  0  0  0  0  0  0  0
    4.8170    3.8410   17.5833 N   0  0  0  0  0  0  0  0  0  0  0  0
    4.2111    2.6562   17.8893 C   0  0  0  0  0  0  0  0  0  0  0  0
    4.1633    1.9798   19.0496 N   0  0  0  0  0  0  0  0  0  0  0  0
    5.5805    4.6576   18.5129 C   0  0  0  0  0  0  0  0  0  0  0  0
    6.4022    5.6929   17.7926 C   0  0  0  0  0  0  0  0  0  0  0  0
    6.0759    7.1003   18.2048 C   0  0  0  0  0  0  0  0  0  0  0  0
    6.0761    7.3088   19.6874 C   0  0  0  0  0  0  0  0  0  0  0  0
    7.3615    7.4379   20.2100 O   0  0  0  0  0  0  0  0  0  0  0  0
    5.3209    6.2335   20.4273 C   0  0  0  0  0  0  0  0  0  0  0  0
    4.5976    5.3850   19.4149 C   0  0  0  0  0  0  0  0  0  0  0  0
    7.6264    8.3857   20.2381 H   0  0  0  0  0  0  0  0  0  0  0  0
    3.3277    2.9546   14.3868 C   0  0  0  0  0  0  0  0  0  0  0  0
    2.4478    1.9728   13.9703 C   0  0  0  0  0  0  0  0  0  0  0  0
    2.0157    1.9057   12.6619 C   0  0  0  0  0  0  0  0  0  0  0  0
    2.4300    2.8028   11.7007 C   0  0  0  0  0  0  0  0  0  0  0  0
    3.3076    3.7855   12.1061 C   0  0  0  0  0  0  0  0  0  0  0  0
    3.7406    3.8551   13.4112 C   0  0  0  0  0  0  0  0  0  0  0  0
    1.8819    2.7187   10.0405 S   0  0  0  0  0  0  0  0  0  0  0  0
    0.7044    1.8019    9.9932 O   0  0  0  0  0  0  0  0  0  0  0  0
    1.4791    4.1167    9.6413 O   0  0  0  0  0  0  0  0  0  0  0  0
    3.1642    2.2103    9.0437 N   0  0  0  0  0  0  0  0  0  0  0  0
    2.7913    1.8097    7.7324 C   0  0  0  0  0  0  0  0  0  0  0  0
    2.1452    0.4804    7.7209 C   0  0  0  0  0  0  0  0  0  0  0  0
    2.6533   -0.5074    8.5702 N   0  0  0  0  0  0  0  0  0  0  0  0
    1.8321   -1.6405    8.8078 C   0  0  0  0  0  0  0  0  0  0  0  0
    3.5641   -0.1605    9.5724 C   0  0  0  0  0  0  0  0  0  0  0  0
    4.0396    1.2397    9.6121 C   0  0  0  0  0  0  0  0  0  0  0  0
    3.4652    0.1011   20.4049 N   0  0  0  0  0  0  0  0  0  0  0  0
    3.8460   -0.8655   20.4162 H   0  0  0  0  0  0  0  0  0  0  0  0
    2.9263    0.6604   21.6093 C   0  0  0  0  0  0  0  0  0  0  0  0
    3.9359    1.1342   22.6013 C   0  0  0  0  0  0  0  0  0  0  0  0
    5.6045    2.9639   22.2647 C   0  0  0  0  0  0  0  0  0  0  0  0
    4.1671    2.6288   22.5274 C   0  0  0  0  0  0  0  0  0  0  0  0
 38 39  1  0  0  0
 39 37  1  0  0  0
 37 36  1  0  0  0
 36 34  1  0  0  0
 34  1  1  0  0  0
  1  2  2  0  0  0
  2  3  1  0  0  0
  3  4  2  0  0  0
  4  5  1  0  0  0
  5  6  2  0  0  0
  6  7  1  0  0  0
  7 10  1  0  0  0
 10 11  1  0  0  0
 11 12  1  0  0  0
 12 13  1  0  0  0
 13 14  1  0  0  0
 13 15  1  0  0  0
 15 16  1  0  0  0
  7  8  1  0  0  0
  8  9  2  0  0  0
  5 18  1  0  0  0
 18 19  2  0  0  0
 19 20  1  0  0  0
 20 21  2  0  0  0
 21 22  1  0  0  0
 22 23  2  0  0  0
 21 24  1  0  0  0
 24 25  2  0  0  0
 24 26  2  0  0  0
 24 27  1  0  0  0
 27 28  1  0  0  0
 28 29  1  0  0  0
 29 30  1  0  0  0
 30 31  1  0  0  0
 30 32  1  0  0  0
 32 33  1  0  0  0
  9  1  1  0  0  0
 23 18  1  0  0  0
 33 27  1  0  0  0
  8  4  1  0  0  0
 16 10  1  0  0  0
 34 35  1  0  0  0
 14 17  1  0  0  0
M  END
> <minimizedAffinity>
-7.99581

> <CNNscore>
0.7797023058

> <CNNaffinity>
7.5908699036

> <CNN_VS>
5.9186186790

> <CNNaffinity_variance>
0.1831265092

$$$$
[H]O[C@]1([H])C([H])([H])C([H])([H])[C@@]([H])(n2c([H])c(-c3c([H])c([H])c(S(=O)(=O)N4C([H])([H])C([H])([H])N(C([H])([H])[H])C([H])([H])C4([H])[H])c([H])c3[H])c3c([H])nc(N([H])C([H])([H])C([H])([H])C([H])([H])C([H])([H])[H])nc32)C([H])([H])C1([H])[H]


 39 43  0  0  0  0  0  0  0  0999 V2000
    3.7490    1.2627   18.8136 C   0  0  0  0  0  0  0  0  0  0  0  0
    3.5453    0.6512   17.6302 N   0  0  0  0  0  0  0  0  0  0  0  0
    3.4992    1.2860   16.4651 C   0  0  0  0  0  0  0  0  0  0  0  0
    3.6701    2.6726   16.4438 C   0  0  0  0  0  0  0  0  0  0  0  0
    3.6853    3.6291   15.4810 C   0  0  0  0  0  0  0  0  0  0  0  0
    3.9013    4.8170   16.1149 C   0  0  0  0  0  0  0  0  0  0  0  0
    4.0229    4.6463   17.4409 N   0  0  0  0  0  0  0  0  0  0  0  0
    3.8791    3.3050   17.6525 C   0  0  0  0  0  0  0  0  0  0  0  0
    3.9136    2.5977   18.7947 N   0  0  0  0  0  0  0  0  0  0  0  0
    4.2580    5.6387   18.4771 C   0  0  0  0  0  0  0  0  0  0  0  0
    3.2203    5.5584   19.5646 C   0  0  0  0  0  0  0  0  0  0  0  0
    3.8049    5.2945   20.9232 C   0  0  0  0  0  0  0  0  0  0  0  0
    4.9315    6.2129   21.2826 C   0  0  0  0  0  0  0  0  0  0  0  0
    4.4882    7.4663   21.7003 O   0  0  0  0  0  0  0  0  0  0  0  0
    5.9386    6.3630   20.1702 C   0  0  0  0  0  0  0  0  0  0  0  0
    5.6134    5.3529   19.1016 C   0  0  0  0  0  0  0  0  0  0  0  0
    4.3761    7.4818   22.6783 H   0  0  0  0  0  0  0  0  0  0  0  0
    3.5099    3.4397   14.0493 C   0  0  0  0  0  0  0  0  0  0  0  0
    4.1300    4.2468   13.1135 C   0  0  0  0  0  0  0  0  0  0  0  0
    3.9491    4.0453   11.7609 C   0  0  0  0  0  0  0  0  0  0  0  0
    3.1482    3.0388   11.2650 C   0  0  0  0  0  0  0  0  0  0  0  0
    2.5254    2.2287   12.1903 C   0  0  0  0  0  0  0  0  0  0  0  0
    2.7040    2.4272   13.5409 C   0  0  0  0  0  0  0  0  0  0  0  0
    2.9185    2.7820    9.5490 S   0  0  0  0  0  0  0  0  0  0  0  0
    1.5022    2.3608    9.3348 O   0  0  0  0  0  0  0  0  0  0  0  0
    3.1853    4.1023    8.8694 O   0  0  0  0  0  0  0  0  0  0  0  0
    4.0471    1.6378    8.9894 N   0  0  0  0  0  0  0  0  0  0  0  0
    5.4030    2.0622    9.0108 C   0  0  0  0  0  0  0  0  0  0  0  0
    5.7036    3.0148    7.9215 C   0  0  0  0  0  0  0  0  0  0  0  0
    5.1251    2.7885    6.6688 N   0  0  0  0  0  0  0  0  0  0  0  0
    5.1322    3.8692    5.7487 C   0  0  0  0  0  0  0  0  0  0  0  0
    4.0994    1.8477    6.5371 C   0  0  0  0  0  0  0  0  0  0  0  0
    3.7494    1.0437    7.7285 C   0  0  0  0  0  0  0  0  0  0  0  0
    3.7880    0.5223   20.0319 N   0  0  0  0  0  0  0  0  0  0  0  0
    4.1287   -0.4581   19.9857 H   0  0  0  0  0  0  0  0  0  0  0  0
    3.3829    1.0691   21.2931 C   0  0  0  0  0  0  0  0  0  0  0  0
    4.4732    1.2297   22.2997 C   0  0  0  0  0  0  0  0  0  0  0  0
    6.9036    1.2290   21.7178 C   0  0  0  0  0  0  0  0  0  0  0  0
    5.6406    2.0350   21.7691 C   0  0  0  0  0  0  0  0  0  0  0  0
 38 39  1  0  0  0
 39 37  1  0  0  0
 37 36  1  0  0  0
 36 34  1  0  0  0
 34  1  1  0  0  0
  1  2  2  0  0  0
  2  3  1  0  0  0
  3  4  2  0  0  0
  4  5  1  0  0  0
  5  6  2  0  0  0
  6  7  1  0  0  0
  7 10  1  0  0  0
 10 11  1  0  0  0
 11 12  1  0  0  0
 12 13  1  0  0  0
 13 14  1  0  0  0
 13 15  1  0  0  0
 15 16  1  0  0  0
  7  8  1  0  0  0
  8  9  2  0  0  0
  5 18  1  0  0  0
 18 19  2  0  0  0
 19 20  1  0  0  0
 20 21  2  0  0  0
 21 22  1  0  0  0
 22 23  2  0  0  0
 21 24  1  0  0  0
 24 25  2  0  0  0
 24 26  2  0  0  0
 24 27  1  0  0  0
 27 28  1  0  0  0
 28 29  1  0  0  0
 29 30  1  0  0  0
 30 31  1  0  0  0
 30 32  1  0  0  0
 32 33  1  0  0  0
  9  1  1  0  0  0
 23 18  1  0  0  0
 33 27  1  0  0  0
  8  4  1  0  0  0
 16 10  1  0  0  0
 34 35  1  0  0  0
 14 17  1  0  0  0
M  END
> <minimizedAffinity>
-8.40412

> <CNNscore>
0.5364933014

> <CNNaffinity>
7.2189207077

> <CNN_VS>
3.8729026318

> <CNNaffinity_variance>
0.3700973392

$$$$
[H]O[C@]1([H])C([H])([H])C([H])([H])[C@@]([H])(n2c([H])c(-c3c([H])c([H])c(S(=O)(=O)N4C([H])([H])C([H])([H])N(C([H])([H])[H])C([H])([H])C4([H])[H])c([H])c3[H])c3c([H])nc(N([H])C([H])([H])C([H])([H])C([H])([H])C([H])([H])[H])nc32)C([H])([H])C1([H])[H]


 39 43  0  0  0  0  0  0  0  0999 V2000
    3.2084    0.7572   18.2330 C   0  0  0  0  0  0  0  0  0  0  0  0
    2.9364    0.8028   16.9140 N   0  0  0  0  0  0  0  0  0  0  0  0
    3.1474    1.8673   16.1492 C   0  0  0  0  0  0  0  0  0  0  0  0
    3.6837    3.0201   16.7286 C   0  0  0  0  0  0  0  0  0  0  0  0
    4.0248    4.2560   16.2831 C   0  0  0  0  0  0  0  0  0  0  0  0
    4.5031    4.9408   17.3609 C   0  0  0  0  0  0  0  0  0  0  0  0
    4.4768    4.1840   18.4695 N   0  0  0  0  0  0  0  0  0  0  0  0
    3.9645    2.9799   18.0792 C   0  0  0  0  0  0  0  0  0  0  0  0
    3.7247    1.8664   18.7923 N   0  0  0  0  0  0  0  0  0  0  0  0
    4.8915    4.5208   19.8217 C   0  0  0  0  0  0  0  0  0  0  0  0
    5.9266    5.6137   19.8260 C   0  0  0  0  0  0  0  0  0  0  0  0
    5.5029    6.8281   20.6026 C   0  0  0  0  0  0  0  0  0  0  0  0
    5.0016    6.5179   21.9789 C   0  0  0  0  0  0  0  0  0  0  0  0
    6.0341    6.2808   22.8843 O   0  0  0  0  0  0  0  0  0  0  0  0
    4.0217    5.3718   21.9977 C   0  0  0  0  0  0  0  0  0  0  0  0
    3.6724    5.0279   20.5737 C   0  0  0  0  0  0  0  0  0  0  0  0
    6.2894    7.1157   23.3393 H   0  0  0  0  0  0  0  0  0  0  0  0
    3.9110    4.7643   14.9248 C   0  0  0  0  0  0  0  0  0  0  0  0
    4.1104    3.9643   13.8150 C   0  0  0  0  0  0  0  0  0  0  0  0
    3.9947    4.4700   12.5368 C   0  0  0  0  0  0  0  0  0  0  0  0
    3.6770    5.7886   12.2904 C   0  0  0  0  0  0  0  0  0  0  0  0
    3.4763    6.5945   13.3907 C   0  0  0  0  0  0  0  0  0  0  0  0
    3.5910    6.0927   14.6677 C   0  0  0  0  0  0  0  0  0  0  0  0
    3.5293    6.4310   10.6690 S   0  0  0  0  0  0  0  0  0  0  0  0
    3.4837    5.2775    9.7222 O   0  0  0  0  0  0  0  0  0  0  0  0
    2.2353    7.2051   10.6211 O   0  0  0  0  0  0  0  0  0  0  0  0
    4.8194    7.4973   10.3604 N   0  0  0  0  0  0  0  0  0  0  0  0
    5.0864    7.7452    8.9870 C   0  0  0  0  0  0  0  0  0  0  0  0
    5.7655    6.6036    8.3388 C   0  0  0  0  0  0  0  0  0  0  0  0
    6.7437    5.9185    9.0660 N   0  0  0  0  0  0  0  0  0  0  0  0
    7.1311    4.6409    8.5841 C   0  0  0  0  0  0  0  0  0  0  0  0
    6.8768    6.1477   10.4387 C   0  0  0  0  0  0  0  0  0  0  0  0
    6.0369    7.2055   11.0417 C   0  0  0  0  0  0  0  0  0  0  0  0
    2.9584   -0.4191   18.9996 N   0  0  0  0  0  0  0  0  0  0  0  0
    3.0996   -1.3354   18.5306 H   0  0  0  0  0  0  0  0  0  0  0  0
    2.5281   -0.3857   20.3662 C   0  0  0  0  0  0  0  0  0  0  0  0
    3.6228   -0.3801   21.3808 C   0  0  0  0  0  0  0  0  0  0  0  0
    4.8858    1.6148   22.1998 C   0  0  0  0  0  0  0  0  0  0  0  0
    3.5958    0.8533   22.2587 C   0  0  0  0  0  0  0  0  0  0  0  0
 38 39  1  0  0  0
 39 37  1  0  0  0
 37 36  1  0  0  0
 36 34  1  0  0  0
 34  1  1  0  0  0
  1  2  2  0  0  0
  2  3  1  0  0  0
  3  4  2  0  0  0
  4  5  1  0  0  0
  5  6  2  0  0  0
  6  7  1  0  0  0
  7 10  1  0  0  0
 10 11  1  0  0  0
 11 12  1  0  0  0
 12 13  1  0  0  0
 13 14  1  0  0  0
 13 15  1  0  0  0
 15 16  1  0  0  0
  7  8  1  0  0  0
  8  9  2  0  0  0
  5 18  1  0  0  0
 18 19  2  0  0  0
 19 20  1  0  0  0
 20 21  2  0  0  0
 21 22  1  0  0  0
 22 23  2  0  0  0
 21 24  1  0  0  0
 24 25  2  0  0  0
 24 26  2  0  0  0
 24 27  1  0  0  0
 27 28  1  0  0  0
 28 29  1  0  0  0
 29 30  1  0  0  0
 30 31  1  0  0  0
 30 32  1  0  0  0
 32 33  1  0  0  0
  9  1  1  0  0  0
 23 18  1  0  0  0
 33 27  1  0  0  0
  8  4  1  0  0  0
 16 10  1  0  0  0
 34 35  1  0  0  0
 14 17  1  0  0  0
M  END
> <minimizedAffinity>
-8.04521

> <CNNscore>
0.4904424846

> <CNNaffinity>
7.2025022507

> <CNN_VS>
3.5324130058

> <CNNaffinity_variance>
0.2291872948

$$$$
[H]O[C@]1([H])C([H])([H])C([H])([H])[C@@]([H])(n2c([H])c(-c3c([H])c([H])c(S(=O)(=O)N4C([H])([H])C([H])([H])N(C([H])([H])[H])C([H])([H])C4([H])[H])c([H])c3[H])c3c([H])nc(N([H])C([H])([H])C([H])([H])C([H])([H])C([H])([H])[H])nc32)C([H])([H])C1([H])[H]


 39 43  0  0  0  0  0  0  0  0999 V2000
    4.5397    1.8962   20.0207 C   0  0  0  0  0  0  0  0  0  0  0  0
    4.4393    1.1317   18.9156 N   0  0  0  0  0  0  0  0  0  0  0  0
    4.0777    1.5931   17.7244 C   0  0  0  0  0  0  0  0  0  0  0  0
    3.7790    2.9512   17.5880 C   0  0  0  0  0  0  0  0  0  0  0  0
    3.3878    3.7563   16.5677 C   0  0  0  0  0  0  0  0  0  0  0  0
    3.2583    5.0101   17.0880 C   0  0  0  0  0  0  0  0  0  0  0  0
    3.5529    5.0267   18.3977 N   0  0  0  0  0  0  0  0  0  0  0  0
    3.8798    3.7397   18.7161 C   0  0  0  0  0  0  0  0  0  0  0  0
    4.2524    3.2040   19.8910 N   0  0  0  0  0  0  0  0  0  0  0  0
    3.5434    6.1445   19.3272 C   0  0  0  0  0  0  0  0  0  0  0  0
    4.5237    5.9373   20.4506 C   0  0  0  0  0  0  0  0  0  0  0  0
    5.5611    7.0204   20.5393 C   0  0  0  0  0  0  0  0  0  0  0  0
    4.9887    8.4040   20.5356 C   0  0  0  0  0  0  0  0  0  0  0  0
    4.4745    8.7742   21.7768 O   0  0  0  0  0  0  0  0  0  0  0  0
    3.9472    8.6010   19.4629 C   0  0  0  0  0  0  0  0  0  0  0  0
    3.9610    7.3914   18.5658 C   0  0  0  0  0  0  0  0  0  0  0  0
    5.1632    9.2335   22.3099 H   0  0  0  0  0  0  0  0  0  0  0  0
    3.1516    3.3724   15.1846 C   0  0  0  0  0  0  0  0  0  0  0  0
    2.2747    2.3622   14.8352 C   0  0  0  0  0  0  0  0  0  0  0  0
    2.0665    2.0183   13.5156 C   0  0  0  0  0  0  0  0  0  0  0  0
    2.7125    2.6532   12.4764 C   0  0  0  0  0  0  0  0  0  0  0  0
    3.5890    3.6620   12.8146 C   0  0  0  0  0  0  0  0  0  0  0  0
    3.7989    4.0076   14.1307 C   0  0  0  0  0  0  0  0  0  0  0  0
    2.4486    2.2179   10.8018 S   0  0  0  0  0  0  0  0  0  0  0  0
    2.9842    3.3225    9.9520 O   0  0  0  0  0  0  0  0  0  0  0  0
    3.2154    0.9423   10.5551 O   0  0  0  0  0  0  0  0  0  0  0  0
    0.7923    1.9218   10.5458 N   0  0  0  0  0  0  0  0  0  0  0  0
    0.4955    0.7829    9.7497 C   0  0  0  0  0  0  0  0  0  0  0  0
    0.7593    1.0242    8.3156 C   0  0  0  0  0  0  0  0  0  0  0  0
    0.4320    2.2762    7.7861 N   0  0  0  0  0  0  0  0  0  0  0  0
    0.9969    2.6141    6.5286 C   0  0  0  0  0  0  0  0  0  0  0  0
    0.1148    3.3324    8.6454 C   0  0  0  0  0  0  0  0  0  0  0  0
    0.0294    3.0371   10.0923 C   0  0  0  0  0  0  0  0  0  0  0  0
    4.9345    1.3386   21.2726 N   0  0  0  0  0  0  0  0  0  0  0  0
    4.3239    0.6057   21.6842 H   0  0  0  0  0  0  0  0  0  0  0  0
    6.1188    1.7433   21.9708 C   0  0  0  0  0  0  0  0  0  0  0  0
    5.9345    2.8533   22.9515 C   0  0  0  0  0  0  0  0  0  0  0  0
    3.7738    3.9677   23.5307 C   0  0  0  0  0  0  0  0  0  0  0  0
    4.6279    2.7486   23.7097 C   0  0  0  0  0  0  0  0  0  0  0  0
 38 39  1  0  0  0
 39 37  1  0  0  0
 37 36  1  0  0  0
 36 34  1  0  0  0
 34  1  1  0  0  0
  1  2  2  0  0  0
  2  3  1  0  0  0
  3  4  2  0  0  0
  4  5  1  0  0  0
  5  6  2  0  0  0
  6  7  1  0  0  0
  7 10  1  0  0  0
 10 11  1  0  0  0
 11 12  1  0  0  0
 12 13  1  0  0  0
 13 14  1  0  0  0
 13 15  1  0  0  0
 15 16  1  0  0  0
  7  8  1  0  0  0
  8  9  2  0  0  0
  5 18  1  0  0  0
 18 19  2  0  0  0
 19 20  1  0  0  0
 20 21  2  0  0  0
 21 22  1  0  0  0
 22 23  2  0  0  0
 21 24  1  0  0  0
 24 25  2  0  0  0
 24 26  2  0  0  0
 24 27  1  0  0  0
 27 28  1  0  0  0
 28 29  1  0  0  0
 29 30  1  0  0  0
 30 31  1  0  0  0
 30 32  1  0  0  0
 32 33  1  0  0  0
  9  1  1  0  0  0
 23 18  1  0  0  0
 33 27  1  0  0  0
  8  4  1  0  0  0
 16 10  1  0  0  0
 34 35  1  0  0  0
 14 17  1  0  0  0
M  END
> <minimizedAffinity>
-8.96484

> <CNNscore>
0.3259637654

> <CNNaffinity>
6.9760003090

> <CNN_VS>
2.2739233971

> <CNNaffinity_variance>
0.2732605934

$$$$
[H]O[C@]1([H])C([H])([H])C([H])([H])[C@@]([H])(n2c([H])c(-c3c([H])c([H])c(S(=O)(=O)N4C([H])([H])C([H])([H])N(C([H])([H])[H])C([H])([H])C4([H])[H])c([H])c3[H])c3c([H])nc(N([H])C([H])([H])C([H])([H])C([H])([H])C([H])([H])[H])nc32)C([H])([H])C1([H])[H]


 39 43  0  0  0  0  0  0  0  0999 V2000
    4.4288    1.9285   19.9862 C   0  0  0  0  0  0  0  0  0  0  0  0
    4.3705    1.1888   18.8614 N   0  0  0  0  0  0  0  0  0  0  0  0
    4.0934    1.6838   17.6611 C   0  0  0  0  0  0  0  0  0  0  0  0
    3.8441    3.0530   17.5359 C   0  0  0  0  0  0  0  0  0  0  0  0
    3.5379    3.8892   16.5117 C   0  0  0  0  0  0  0  0  0  0  0  0
    3.4158    5.1362   17.0496 C   0  0  0  0  0  0  0  0  0  0  0  0
    3.6333    5.1186   18.3743 N   0  0  0  0  0  0  0  0  0  0  0  0
    3.9022    3.8163   18.6842 C   0  0  0  0  0  0  0  0  0  0  0  0
    4.1889    3.2469   19.8673 N   0  0  0  0  0  0  0  0  0  0  0  0
    3.6028    6.2182   19.3249 C   0  0  0  0  0  0  0  0  0  0  0  0
    4.5576    5.9890   20.4657 C   0  0  0  0  0  0  0  0  0  0  0  0
    5.5926    7.0699   20.5986 C   0  0  0  0  0  0  0  0  0  0  0  0
    5.0204    8.4534   20.6089 C   0  0  0  0  0  0  0  0  0  0  0  0
    4.4784    8.7998   21.8452 O   0  0  0  0  0  0  0  0  0  0  0  0
    4.0032    8.6716   19.5171 C   0  0  0  0  0  0  0  0  0  0  0  0
    4.0373    7.4795   18.5973 C   0  0  0  0  0  0  0  0  0  0  0  0
    5.1548    9.2484   22.4023 H   0  0  0  0  0  0  0  0  0  0  0  0
    3.3718    3.5393   15.1095 C   0  0  0  0  0  0  0  0  0  0  0  0
    2.6906    2.4066   14.7038 C   0  0  0  0  0  0  0  0  0  0  0  0
    2.5451    2.0979   13.3673 C   0  0  0  0  0  0  0  0  0  0  0  0
    3.0640    2.8904   12.3657 C   0  0  0  0  0  0  0  0  0  0  0  0
    3.7451    4.0221   12.7601 C   0  0  0  0  0  0  0  0  0  0  0  0
    3.8920    4.3330   14.0932 C   0  0  0  0  0  0  0  0  0  0  0  0
    2.8793    2.4997   10.6696 S   0  0  0  0  0  0  0  0  0  0  0  0
    3.9657    3.1962    9.9187 O   0  0  0  0  0  0  0  0  0  0  0  0
    3.0278    1.0034   10.5465 O   0  0  0  0  0  0  0  0  0  0  0  0
    1.3199    2.9419   10.1510 N   0  0  0  0  0  0  0  0  0  0  0  0
    1.2732    3.7170    8.9610 C   0  0  0  0  0  0  0  0  0  0  0  0
    1.6833    5.1176    9.1945 C   0  0  0  0  0  0  0  0  0  0  0  0
    1.2690    5.7379   10.3772 N   0  0  0  0  0  0  0  0  0  0  0  0
    1.9407    6.9310   10.7510 C   0  0  0  0  0  0  0  0  0  0  0  0
    0.7141    4.9712   11.4062 C   0  0  0  0  0  0  0  0  0  0  0  0
    0.4849    3.5337   11.1430 C   0  0  0  0  0  0  0  0  0  0  0  0
    4.7324    1.3351   21.2470 N   0  0  0  0  0  0  0  0  0  0  0  0
    4.0312    0.6836   21.6510 H   0  0  0  0  0  0  0  0  0  0  0  0
    5.9451    1.5984   21.9640 C   0  0  0  0  0  0  0  0  0  0  0  0
    5.8780    2.7245   22.9412 C   0  0  0  0  0  0  0  0  0  0  0  0
    3.8119    4.0000   23.5328 C   0  0  0  0  0  0  0  0  0  0  0  0
    4.5868    2.7321   23.7321 C   0  0  0  0  0  0  0  0  0  0  0  0
 38 39  1  0  0  0
 39 37  1  0  0  0
 37 36  1  0  0  0
 36 34  1  0  0  0
 34  1  1  0  0  0
  1  2  2  0  0  0
  2  3  1  0  0  0
  3  4  2  0  0  0
  4  5  1  0  0  0
  5  6  2  0  0  0
  6  7  1  0  0  0
  7 10  1  0  0  0
 10 11  1  0  0  0
 11 12  1  0  0  0
 12 13  1  0  0  0
 13 14  1  0  0  0
 13 15  1  0  0  0
 15 16  1  0  0  0
  7  8  1  0  0  0
  8  9  2  0  0  0
  5 18  1  0  0  0
 18 19  2  0  0  0
 19 20  1  0  0  0
 20 21  2  0  0  0
 21 22  1  0  0  0
 22 23  2  0  0  0
 21 24  1  0  0  0
 24 25  2  0  0  0
 24 26  2  0  0  0
 24 27  1  0  0  0
 27 28  1  0  0  0
 28 29  1  0  0  0
 29 30  1  0  0  0
 30 31  1  0  0  0
 30 32  1  0  0  0
 32 33  1  0  0  0
  9  1  1  0  0  0
 23 18  1  0  0  0
 33 27  1  0  0  0
  8  4  1  0  0  0
 16 10  1  0  0  0
 34 35  1  0  0  0
 14 17  1  0  0  0
M  END
> <minimizedAffinity>
-9.17729

> <CNNscore>
0.2740720212

> <CNNaffinity>
7.1319656372

> <CNN_VS>
1.9546722174

> <CNNaffinity_variance>
0.3756391406

$$$$
[H]O[C@]1([H])C([H])([H])C([H])([H])[C@@]([H])(n2c([H])c(-c3c([H])c([H])c(S(=O)(=O)N4C([H])([H])C([H])([H])N(C([H])([H])[H])C([H])([H])C4([H])[H])c([H])c3[H])c3c([H])nc(N([H])C([H])([H])C([H])([H])C([H])([H])C([H])([H])[H])nc32)C([H])([H])C1([H])[H]


 39 43  0  0  0  0  0  0  0  0999 V2000
    4.5036    1.9303   19.9558 C   0  0  0  0  0  0  0  0  0  0  0  0
    4.4418    1.1960   18.8276 N   0  0  0  0  0  0  0  0  0  0  0  0
    4.1424    1.6937   17.6337 C   0  0  0  0  0  0  0  0  0  0  0  0
    3.8718    3.0598   17.5196 C   0  0  0  0  0  0  0  0  0  0  0  0
    3.5406    3.8972   16.5041 C   0  0  0  0  0  0  0  0  0  0  0  0
    3.4074    5.1393   17.0507 C   0  0  0  0  0  0  0  0  0  0  0  0
    3.6419    5.1175   18.3724 N   0  0  0  0  0  0  0  0  0  0  0  0
    3.9334    3.8174   18.6714 C   0  0  0  0  0  0  0  0  0  0  0  0
    4.2432    3.2457   19.8475 N   0  0  0  0  0  0  0  0  0  0  0  0
    3.6076    6.2112   19.3296 C   0  0  0  0  0  0  0  0  0  0  0  0
    4.6088    6.0094   20.4353 C   0  0  0  0  0  0  0  0  0  0  0  0
    5.6109    7.1241   20.5382 C   0  0  0  0  0  0  0  0  0  0  0  0
    4.9931    8.4874   20.5761 C   0  0  0  0  0  0  0  0  0  0  0  0
    4.4832    8.8097   21.8324 O   0  0  0  0  0  0  0  0  0  0  0  0
    3.9317    8.6758   19.5215 C   0  0  0  0  0  0  0  0  0  0  0  0
    3.9737    7.4897   18.5945 C   0  0  0  0  0  0  0  0  0  0  0  0
    5.1633    9.2785   22.3682 H   0  0  0  0  0  0  0  0  0  0  0  0
    3.3618    3.5528   15.1021 C   0  0  0  0  0  0  0  0  0  0  0  0
    3.8557    4.3385   14.0772 C   0  0  0  0  0  0  0  0  0  0  0  0
    3.6745    3.9889   12.7550 C   0  0  0  0  0  0  0  0  0  0  0  0
    2.9979    2.8483   12.3790 C   0  0  0  0  0  0  0  0  0  0  0  0
    2.5016    2.0583   13.3938 C   0  0  0  0  0  0  0  0  0  0  0  0
    2.6807    2.4044   14.7142 C   0  0  0  0  0  0  0  0  0  0  0  0
    2.7681    2.4037   10.7018 S   0  0  0  0  0  0  0  0  0  0  0  0
    3.1447    0.9665   10.5536 O   0  0  0  0  0  0  0  0  0  0  0  0
    1.3045    2.6006   10.3934 O   0  0  0  0  0  0  0  0  0  0  0  0
    3.6834    3.4393    9.7087 N   0  0  0  0  0  0  0  0  0  0  0  0
    3.0723    3.7944    8.4760 C   0  0  0  0  0  0  0  0  0  0  0  0
    3.1106    2.6867    7.4983 C   0  0  0  0  0  0  0  0  0  0  0  0
    4.2661    1.9018    7.4355 N   0  0  0  0  0  0  0  0  0  0  0  0
    4.1656    0.6562    6.7625 C   0  0  0  0  0  0  0  0  0  0  0  0
    5.2317    2.0055    8.4411 C   0  0  0  0  0  0  0  0  0  0  0  0
    5.0323    3.0403    9.4791 C   0  0  0  0  0  0  0  0  0  0  0  0
    4.8317    1.3343   21.2092 N   0  0  0  0  0  0  0  0  0  0  0  0
    4.1607    0.6453   21.6021 H   0  0  0  0  0  0  0  0  0  0  0  0
    6.0291    1.6439   21.9333 C   0  0  0  0  0  0  0  0  0  0  0  0
    5.9037    2.7428   22.9354 C   0  0  0  0  0  0  0  0  0  0  0  0
    3.8022    3.9793   23.4836 C   0  0  0  0  0  0  0  0  0  0  0  0
    4.5802    2.7115   23.6705 C   0  0  0  0  0  0  0  0  0  0  0  0
 38 39  1  0  0  0
 39 37  1  0  0  0
 37 36  1  0  0  0
 36 34  1  0  0  0
 34  1  1  0  0  0
  1  2  2  0  0  0
  2  3  1  0  0  0
  3  4  2  0  0  0
  4  5  1  0  0  0
  5  6  2  0  0  0
  6  7  1  0  0  0
  7 10  1  0  0  0
 10 11  1  0  0  0
 11 12  1  0  0  0
 12 13  1  0  0  0
 13 14  1  0  0  0
 13 15  1  0  0  0
 15 16  1  0  0  0
  7  8  1  0  0  0
  8  9  2  0  0  0
  5 18  1  0  0  0
 18 19  2  0  0  0
 19 20  1  0  0  0
 20 21  2  0  0  0
 21 22  1  0  0  0
 22 23  2  0  0  0
 21 24  1  0  0  0
 24 25  2  0  0  0
 24 26  2  0  0  0
 24 27  1  0  0  0
 27 28  1  0  0  0
 28 29  1  0  0  0
 29 30  1  0  0  0
 30 31  1  0  0  0
 30 32  1  0  0  0
 32 33  1  0  0  0
  9  1  1  0  0  0
 23 18  1  0  0  0
 33 27  1  0  0  0
  8  4  1  0  0  0
 16 10  1  0  0  0
 34 35  1  0  0  0
 14 17  1  0  0  0
M  END
> <minimizedAffinity>
-8.95858

> <CNNscore>
0.2383423299

> <CNNaffinity>
6.8542699814

> <CNN_VS>
1.6336627007

> <CNNaffinity_variance>
0.3850429952

$$$$
[H]O[C@]1([H])C([H])([H])C([H])([H])[C@@]([H])(n2c([H])c(-c3c([H])c([H])c(S(=O)(=O)N4C([H])([H])C([H])([H])N(C([H])([H])[H])C([H])([H])C4([H])[H])c([H])c3[H])c3c([H])nc(N([H])C([H])([H])C([H])([H])C([H])([H])C([H])([H])[H])nc32)C([H])([H])C1([H])[H]


 39 43  0  0  0  0  0  0  0  0999 V2000
    4.4183    1.9332   19.9074 C   0  0  0  0  0  0  0  0  0  0  0  0
    4.3667    1.2086   18.7724 N   0  0  0  0  0  0  0  0  0  0  0  0
    4.0997    1.7202   17.5768 C   0  0  0  0  0  0  0  0  0  0  0  0
    3.8546    3.0916   17.4680 C   0  0  0  0  0  0  0  0  0  0  0  0
    3.5579    3.9421   16.4528 C   0  0  0  0  0  0  0  0  0  0  0  0
    3.4347    5.1822   17.0064 C   0  0  0  0  0  0  0  0  0  0  0  0
    3.6424    5.1464   18.3322 N   0  0  0  0  0  0  0  0  0  0  0  0
    3.9059    3.8394   18.6268 C   0  0  0  0  0  0  0  0  0  0  0  0
    4.1825    3.2536   19.8043 N   0  0  0  0  0  0  0  0  0  0  0  0
    3.6074    6.2334   19.2971 C   0  0  0  0  0  0  0  0  0  0  0  0
    4.6083    6.0240   20.4018 C   0  0  0  0  0  0  0  0  0  0  0  0
    5.6100    7.1382   20.5130 C   0  0  0  0  0  0  0  0  0  0  0  0
    4.9919    8.5010   20.5602 C   0  0  0  0  0  0  0  0  0  0  0  0
    4.4815    8.8143   21.8185 O   0  0  0  0  0  0  0  0  0  0  0  0
    3.9308    8.6966   19.5066 C   0  0  0  0  0  0  0  0  0  0  0  0
    3.9735    7.5171   18.5712 C   0  0  0  0  0  0  0  0  0  0  0  0
    5.1612    9.2795   22.3579 H   0  0  0  0  0  0  0  0  0  0  0  0
    3.4014    3.6113   15.0448 C   0  0  0  0  0  0  0  0  0  0  0  0
    2.7063    2.4947   14.6186 C   0  0  0  0  0  0  0  0  0  0  0  0
    2.5703    2.2040   13.2770 C   0  0  0  0  0  0  0  0  0  0  0  0
    3.1128    2.9995   12.2905 C   0  0  0  0  0  0  0  0  0  0  0  0
    3.8079    4.1152   12.7054 C   0  0  0  0  0  0  0  0  0  0  0  0
    3.9454    4.4082   14.0436 C   0  0  0  0  0  0  0  0  0  0  0  0
    2.9403    2.6316   10.5880 S   0  0  0  0  0  0  0  0  0  0  0  0
    1.8769    3.5207   10.0332 O   0  0  0  0  0  0  0  0  0  0  0  0
    4.2693    2.9295    9.9390 O   0  0  0  0  0  0  0  0  0  0  0  0
    2.5937    0.9765   10.3964 N   0  0  0  0  0  0  0  0  0  0  0  0
    3.5839    0.2249    9.7082 C   0  0  0  0  0  0  0  0  0  0  0  0
    3.5645    0.4827    8.2530 C   0  0  0  0  0  0  0  0  0  0  0  0
    2.3236    0.6297    7.6255 N   0  0  0  0  0  0  0  0  0  0  0  0
    2.3187    1.2118    6.3310 C   0  0  0  0  0  0  0  0  0  0  0  0
    1.1689    0.7867    8.3978 C   0  0  0  0  0  0  0  0  0  0  0  0
    1.3057    0.6736    9.8664 C   0  0  0  0  0  0  0  0  0  0  0  0
    4.7112    1.3223   21.1624 N   0  0  0  0  0  0  0  0  0  0  0  0
    4.0051    0.6679   21.5528 H   0  0  0  0  0  0  0  0  0  0  0  0
    5.9197    1.5721   21.8911 C   0  0  0  0  0  0  0  0  0  0  0  0
    5.8487    2.6841   22.8843 C   0  0  0  0  0  0  0  0  0  0  0  0
    3.8016    3.9685   23.5210 C   0  0  0  0  0  0  0  0  0  0  0  0
    4.5542    2.6804   23.6699 C   0  0  0  0  0  0  0  0  0  0  0  0
 38 39  1  0  0  0
 39 37  1  0  0  0
 37 36  1  0  0  0
 36 34  1  0  0  0
 34  1  1  0  0  0
  1  2  2  0  0  0
  2  3  1  0  0  0
  3  4  2  0  0  0
  4  5  1  0  0  0
  5  6  2  0  0  0
  6  7  1  0  0  0
  7 10  1  0  0  0
 10 11  1  0  0  0
 11 12  1  0  0  0
 12 13  1  0  0  0
 13 14  1  0  0  0
 13 15  1  0  0  0
 15 16  1  0  0  0
  7  8  1  0  0  0
  8  9  2  0  0  0
  5 18  1  0  0  0
 18 19  2  0  0  0
 19 20  1  0  0  0
 20 21  2  0  0  0
 21 22  1  0  0  0
 22 23  2  0  0  0
 21 24  1  0  0  0
 24 25  2  0  0  0
 24 26  2  0  0  0
 24 27  1  0  0  0
 27 28  1  0  0  0
 28 29  1  0  0  0
 29 30  1  0  0  0
 30 31  1  0  0  0
 30 32  1  0  0  0
 32 33  1  0  0  0
  9  1  1  0  0  0
 23 18  1  0  0  0
 33 27  1  0  0  0
  8  4  1  0  0  0
 16 10  1  0  0  0
 34 35  1  0  0  0
 14 17  1  0  0  0
M  END
> <minimizedAffinity>
-8.96905

> <CNNscore>
0.2005622685

> <CNNaffinity>
6.8418121338

> <CNN_VS>
1.3722093105

> <CNNaffinity_variance>
0.3960368633

$$$$
[H]c1nc(N([H])c2c([H])c(N([H])C(=O)c3c([H])c([H])c(C([H])([H])N4C([H])([H])C([H])([H])N(C([H])([H])[H])C([H])([H])C4([H])[H])c([H])c3[H])c([H])c([H])c2C([H])([H])[H])nc(-c2c([H])nc([H])c([H])c2[H])c1[H]


 39 43  0  0  0  0  0  0  0  0999 V2000
    3.0927    0.8918   17.4286 C   0  0  0  0  0  0  0  0  0  0  0  0
    2.5015   -0.1427   18.1128 C   0  0  0  0  0  0  0  0  0  0  0  0
    2.7101   -0.3031   19.4802 C   0  0  0  0  0  0  0  0  0  0  0  0
    3.4969    0.5381   20.2125 C   0  0  0  0  0  0  0  0  0  0  0  0
    3.6743    0.3034   21.6784 C   0  0  0  0  0  0  0  0  0  0  0  0
    4.1176    1.6071   19.5495 C   0  0  0  0  0  0  0  0  0  0  0  0
    3.9023    1.7505   18.2043 C   0  0  0  0  0  0  0  0  0  0  0  0
    2.4666    2.2921   15.4433 C   0  0  0  0  0  0  0  0  0  0  0  0
    2.0687    3.2941   16.0820 O   0  0  0  0  0  0  0  0  0  0  0  0
    2.9590    1.1240   16.0383 N   0  0  0  0  0  0  0  0  0  0  0  0
    3.2717    0.3182   15.4106 H   0  0  0  0  0  0  0  0  0  0  0  0
    2.2663    2.6925   11.2511 C   0  0  0  0  0  0  0  0  0  0  0  0
    1.3668    1.8901   11.9154 C   0  0  0  0  0  0  0  0  0  0  0  0
    1.4121    1.7389   13.2928 C   0  0  0  0  0  0  0  0  0  0  0  0
    2.3843    2.4152   13.9828 C   0  0  0  0  0  0  0  0  0  0  0  0
    3.2778    3.2157   13.2953 C   0  0  0  0  0  0  0  0  0  0  0  0
    3.2441    3.3741   11.9325 C   0  0  0  0  0  0  0  0  0  0  0  0
    2.1361    2.8000    9.7796 C   0  0  0  0  0  0  0  0  0  0  0  0
   -0.3256    6.2363    6.7728 C   0  0  0  0  0  0  0  0  0  0  0  0
    0.5082    5.0919    7.0858 N   0  0  0  0  0  0  0  0  0  0  0  0
   -0.0139    4.3430    8.2142 C   0  0  0  0  0  0  0  0  0  0  0  0
    0.8036    4.7525    9.4204 C   0  0  0  0  0  0  0  0  0  0  0  0
    2.1637    4.1924    9.3462 N   0  0  0  0  0  0  0  0  0  0  0  0
    2.6026    4.2818    7.9541 C   0  0  0  0  0  0  0  0  0  0  0  0
    1.8841    5.4524    7.2849 C   0  0  0  0  0  0  0  0  0  0  0  0
    4.9183    2.4527   20.3203 N   0  0  0  0  0  0  0  0  0  0  0  0
    5.6199    1.9612   20.9896 H   0  0  0  0  0  0  0  0  0  0  0  0
    4.9800    3.8582   20.3858 C   0  0  0  0  0  0  0  0  0  0  0  0
    3.8838    4.5935   19.9997 N   0  0  0  0  0  0  0  0  0  0  0  0
    3.8239    5.9110   20.0163 C   0  0  0  0  0  0  0  0  0  0  0  0
    4.9295    6.6407   20.4493 C   0  0  0  0  0  0  0  0  0  0  0  0
    6.0370    5.9200   20.8401 C   0  0  0  0  0  0  0  0  0  0  0  0
    6.0167    4.5763   20.7927 N   0  0  0  0  0  0  0  0  0  0  0  0
    7.2386    6.6350   21.3084 C   0  0  0  0  0  0  0  0  0  0  0  0
    8.0883    7.2690   20.4307 C   0  0  0  0  0  0  0  0  0  0  0  0
    9.2054    7.9299   20.9087 C   0  0  0  0  0  0  0  0  0  0  0  0
    9.4891    7.9688   22.2472 C   0  0  0  0  0  0  0  0  0  0  0  0
    8.6695    7.3574   23.0919 N   0  0  0  0  0  0  0  0  0  0  0  0
    7.5570    6.6970   22.6389 C   0  0  0  0  0  0  0  0  0  0  0  0
 19 20  1  0  0  0
 20 21  1  0  0  0
 21 22  1  0  0  0
 22 23  1  0  0  0
 23 18  1  0  0  0
 18 12  1  0  0  0
 12 13  2  0  0  0
 13 14  1  0  0  0
 14 15  2  0  0  0
 15 16  1  0  0  0
 16 17  2  0  0  0
 15  8  1  0  0  0
  8  9  2  0  0  0
  8 10  1  0  0  0
 10  1  1  0  0  0
  1  2  2  0  0  0
  2  3  1  0  0  0
  3  4  2  0  0  0
  4  5  1  0  0  0
  4  6  1  0  0  0
  6 26  1  0  0  0
 26 28  1  0  0  0
 28 29  2  0  0  0
 29 30  1  0  0  0
 30 31  2  0  0  0
 31 32  1  0  0  0
 32 33  2  0  0  0
 32 34  1  0  0  0
 34 35  2  0  0  0
 35 36  1  0  0  0
 36 37  2  0  0  0
 37 38  1  0  0  0
 38 39  2  0  0  0
  6  7  2  0  0  0
 23 24  1  0  0  0
 24 25  1  0  0  0
 25 20  1  0  0  0
 17 12  1  0  0  0
  7  1  1  0  0  0
 33 28  1  0  0  0
 39 34  1  0  0  0
 10 11  1  0  0  0
 26 27  1  0  0  0
M  END
> <minimizedAffinity>
-8.26025

> <CNNscore>
0.2915297747

> <CNNaffinity>
6.5168547630

> <CNN_VS>
1.8998571634

> <CNNaffinity_variance>
0.0424533635

$$$$
[H]c1nc(N([H])c2c([H])c(N([H])C(=O)c3c([H])c([H])c(C([H])([H])N4C([H])([H])C([H])([H])N(C([H])([H])[H])C([H])([H])C4([H])[H])c([H])c3[H])c([H])c([H])c2C([H])([H])[H])nc(-c2c([H])nc([H])c([H])c2[H])c1[H]


 39 43  0  0  0  0  0  0  0  0999 V2000
    4.6913    2.5994   18.7740 C   0  0  0  0  0  0  0  0  0  0  0  0
    4.6671    1.3502   19.3457 C   0  0  0  0  0  0  0  0  0  0  0  0
    4.9147    1.1849   20.7060 C   0  0  0  0  0  0  0  0  0  0  0  0
    5.1906    2.2293   21.5403 C   0  0  0  0  0  0  0  0  0  0  0  0
    5.4460    1.9753   22.9914 C   0  0  0  0  0  0  0  0  0  0  0  0
    5.2238    3.5208   20.9939 C   0  0  0  0  0  0  0  0  0  0  0  0
    4.9782    3.6660   19.6541 C   0  0  0  0  0  0  0  0  0  0  0  0
    3.4864    2.2845   16.5961 C   0  0  0  0  0  0  0  0  0  0  0  0
    2.6592    1.4345   17.0002 O   0  0  0  0  0  0  0  0  0  0  0  0
    4.4747    2.8654   17.4003 N   0  0  0  0  0  0  0  0  0  0  0  0
    5.1394    3.5796   16.9652 H   0  0  0  0  0  0  0  0  0  0  0  0
    3.1399    3.3890   12.5420 C   0  0  0  0  0  0  0  0  0  0  0  0
    2.4779    2.2804   13.0183 C   0  0  0  0  0  0  0  0  0  0  0  0
    2.5769    1.8937   14.3461 C   0  0  0  0  0  0  0  0  0  0  0  0
    3.3577    2.6506   15.1803 C   0  0  0  0  0  0  0  0  0  0  0  0
    4.0139    3.7603   14.6807 C   0  0  0  0  0  0  0  0  0  0  0  0
    3.9247    4.1540   13.3691 C   0  0  0  0  0  0  0  0  0  0  0  0
    2.9685    3.7305   11.1110 C   0  0  0  0  0  0  0  0  0  0  0  0
    0.3240    6.2963    7.4597 C   0  0  0  0  0  0  0  0  0  0  0  0
    1.4308    6.0047    8.3501 N   0  0  0  0  0  0  0  0  0  0  0  0
    1.6700    4.5771    8.4556 C   0  0  0  0  0  0  0  0  0  0  0  0
    1.0390    4.1278    9.7560 C   0  0  0  0  0  0  0  0  0  0  0  0
    1.8194    4.6061   10.9098 N   0  0  0  0  0  0  0  0  0  0  0  0
    2.2646    5.9660   10.6084 C   0  0  0  0  0  0  0  0  0  0  0  0
    1.2692    6.6082    9.6434 C   0  0  0  0  0  0  0  0  0  0  0  0
    5.5093    4.5722   21.8676 N   0  0  0  0  0  0  0  0  0  0  0  0
    4.8125    4.7069   22.6911 H   0  0  0  0  0  0  0  0  0  0  0  0
    6.5617    5.5083   21.8719 C   0  0  0  0  0  0  0  0  0  0  0  0
    6.4283    6.6662   21.1422 N   0  0  0  0  0  0  0  0  0  0  0  0
    7.3435    7.6132   21.0690 C   0  0  0  0  0  0  0  0  0  0  0  0
    8.5406    7.4631   21.7667 C   0  0  0  0  0  0  0  0  0  0  0  0
    8.6913    6.3084   22.5034 C   0  0  0  0  0  0  0  0  0  0  0  0
    7.7086    5.3909   22.5251 N   0  0  0  0  0  0  0  0  0  0  0  0
    9.9360    6.0912   23.2637 C   0  0  0  0  0  0  0  0  0  0  0  0
   11.0257    5.4674   22.7002 C   0  0  0  0  0  0  0  0  0  0  0  0
   12.1760    5.2824   23.4458 C   0  0  0  0  0  0  0  0  0  0  0  0
   12.2573    5.7092   24.7438 C   0  0  0  0  0  0  0  0  0  0  0  0
   11.2065    6.3103   25.2856 N   0  0  0  0  0  0  0  0  0  0  0  0
   10.0572    6.5034   24.5641 C   0  0  0  0  0  0  0  0  0  0  0  0
 19 20  1  0  0  0
 20 21  1  0  0  0
 21 22  1  0  0  0
 22 23  1  0  0  0
 23 18  1  0  0  0
 18 12  1  0  0  0
 12 13  2  0  0  0
 13 14  1  0  0  0
 14 15  2  0  0  0
 15 16  1  0  0  0
 16 17  2  0  0  0
 15  8  1  0  0  0
  8  9  2  0  0  0
  8 10  1  0  0  0
 10  1  1  0  0  0
  1  2  2  0  0  0
  2  3  1  0  0  0
  3  4  2  0  0  0
  4  5  1  0  0  0
  4  6  1  0  0  0
  6 26  1  0  0  0
 26 28  1  0  0  0
 28 29  2  0  0  0
 29 30  1  0  0  0
 30 31  2  0  0  0
 31 32  1  0  0  0
 32 33  2  0  0  0
 32 34  1  0  0  0
 34 35  2  0  0  0
 35 36  1  0  0  0
 36 37  2  0  0  0
 37 38  1  0  0  0
 38 39  2  0  0  0
  6  7  2  0  0  0
 23 24  1  0  0  0
 24 25  1  0  0  0
 25 20  1  0  0  0
 17 12  1  0  0  0
  7  1  1  0  0  0
 33 28  1  0  0  0
 39 34  1  0  0  0
 10 11  1  0  0  0
 26 27  1  0  0  0
M  END
> <minimizedAffinity>
-8.65814

> <CNNscore>
0.2767514884

> <CNNaffinity>
6.4342699051

> <CNN_VS>
1.7806937695

> <CNNaffinity_variance>
0.0841378570

$$$$
[H]c1nc(N([H])c2c([H])c(N([H])C(=O)c3c([H])c([H])c(C([H])([H])N4C([H])([H])C([H])([H])N(C([H])([H])[H])C([H])([H])C4([H])[H])c([H])c3[H])c([H])c([H])c2C([H])([H])[H])nc(-c2c([H])nc([H])c([H])c2[H])c1[H]


 39 43  0  0  0  0  0  0  0  0999 V2000
    3.2502    1.1308   16.9825 C   0  0  0  0  0  0  0  0  0  0  0  0
    2.4553    0.0698   17.3435 C   0  0  0  0  0  0  0  0  0  0  0  0
    2.4401   -0.3941   18.6563 C   0  0  0  0  0  0  0  0  0  0  0  0
    3.1962    0.1628   19.6469 C   0  0  0  0  0  0  0  0  0  0  0  0
    3.1278   -0.3889   21.0347 C   0  0  0  0  0  0  0  0  0  0  0  0
    4.0208    1.2488   19.3176 C   0  0  0  0  0  0  0  0  0  0  0  0
    4.0242    1.6926   18.0217 C   0  0  0  0  0  0  0  0  0  0  0  0
    2.8554    2.8969   15.2450 C   0  0  0  0  0  0  0  0  0  0  0  0
    2.2442    3.7041   15.9832 O   0  0  0  0  0  0  0  0  0  0  0  0
    3.3501    1.6587   15.6725 N   0  0  0  0  0  0  0  0  0  0  0  0
    3.8556    1.0345   14.9682 H   0  0  0  0  0  0  0  0  0  0  0  0
    3.3923    4.2057   11.2733 C   0  0  0  0  0  0  0  0  0  0  0  0
    2.3816    3.3245   11.5830 C   0  0  0  0  0  0  0  0  0  0  0  0
    2.1848    2.8763   12.8801 C   0  0  0  0  0  0  0  0  0  0  0  0
    3.0300    3.3375   13.8555 C   0  0  0  0  0  0  0  0  0  0  0  0
    4.0388    4.2224   13.5222 C   0  0  0  0  0  0  0  0  0  0  0  0
    4.2446    4.6738   12.2427 C   0  0  0  0  0  0  0  0  0  0  0  0
    3.5215    4.6360    9.8619 C   0  0  0  0  0  0  0  0  0  0  0  0
    2.6889    9.0619    7.2878 C   0  0  0  0  0  0  0  0  0  0  0  0
    3.1494    7.7020    7.4913 N   0  0  0  0  0  0  0  0  0  0  0  0
    2.2145    6.9358    8.2947 C   0  0  0  0  0  0  0  0  0  0  0  0
    2.7775    6.9024    9.6992 C   0  0  0  0  0  0  0  0  0  0  0  0
    3.9581    6.0246    9.7698 N   0  0  0  0  0  0  0  0  0  0  0  0
    4.7358    6.2319    8.5489 C   0  0  0  0  0  0  0  0  0  0  0  0
    4.4779    7.6472    8.0344 C   0  0  0  0  0  0  0  0  0  0  0  0
    4.7853    1.8002   20.3480 N   0  0  0  0  0  0  0  0  0  0  0  0
    5.6623    1.2304   20.6447 H   0  0  0  0  0  0  0  0  0  0  0  0
    4.6189    2.9880   21.0862 C   0  0  0  0  0  0  0  0  0  0  0  0
    4.4317    2.9084   22.4463 N   0  0  0  0  0  0  0  0  0  0  0  0
    4.2644    3.9484   23.2400 C   0  0  0  0  0  0  0  0  0  0  0  0
    4.2724    5.2318   22.6968 C   0  0  0  0  0  0  0  0  0  0  0  0
    4.4589    5.3304   21.3351 C   0  0  0  0  0  0  0  0  0  0  0  0
    4.6221    4.2191   20.5960 N   0  0  0  0  0  0  0  0  0  0  0  0
    4.4772    6.6615   20.7008 C   0  0  0  0  0  0  0  0  0  0  0  0
    5.0041    7.7590   21.3428 C   0  0  0  0  0  0  0  0  0  0  0  0
    5.0035    8.9912   20.7143 C   0  0  0  0  0  0  0  0  0  0  0  0
    4.4862    9.1469   19.4566 C   0  0  0  0  0  0  0  0  0  0  0  0
    3.9788    8.0885   18.8392 N   0  0  0  0  0  0  0  0  0  0  0  0
    3.9697    6.8585   19.4442 C   0  0  0  0  0  0  0  0  0  0  0  0
 19 20  1  0  0  0
 20 21  1  0  0  0
 21 22  1  0  0  0
 22 23  1  0  0  0
 23 18  1  0  0  0
 18 12  1  0  0  0
 12 13  2  0  0  0
 13 14  1  0  0  0
 14 15  2  0  0  0
 15 16  1  0  0  0
 16 17  2  0  0  0
 15  8  1  0  0  0
  8  9  2  0  0  0
  8 10  1  0  0  0
 10  1  1  0  0  0
  1  2  2  0  0  0
  2  3  1  0  0  0
  3  4  2  0  0  0
  4  5  1  0  0  0
  4  6  1  0  0  0
  6 26  1  0  0  0
 26 28  1  0  0  0
 28 29  2  0  0  0
 29 30  1  0  0  0
 30 31  2  0  0  0
 31 32  1  0  0  0
 32 33  2  0  0  0
 32 34  1  0  0  0
 34 35  2  0  0  0
 35 36  1  0  0  0
 36 37  2  0  0  0
 37 38  1  0  0  0
 38 39  2  0  0  0
  6  7  2  0  0  0
 23 24  1  0  0  0
 24 25  1  0  0  0
 25 20  1  0  0  0
 17 12  1  0  0  0
  7  1  1  0  0  0
 33 28  1  0  0  0
 39 34  1  0  0  0
 10 11  1  0  0  0
 26 27  1  0  0  0
M  END
> <minimizedAffinity>
-9.22312

> <CNNscore>
0.2423325628

> <CNNaffinity>
6.6877784729

> <CNN_VS>
1.6206665039

> <CNNaffinity_variance>
0.1048541069

$$$$
[H]c1nc(N([H])c2c([H])c(N([H])C(=O)c3c([H])c([H])c(C([H])([H])N4C([H])([H])C([H])([H])N(C([H])([H])[H])C([H])([H])C4([H])[H])c([H])c3[H])c([H])c([H])c2C([H])([H])[H])nc(-c2c([H])nc([H])c([H])c2[H])c1[H]


 39 43  0  0  0  0  0  0  0  0999 V2000
    4.0664    5.2106   16.2296 C   0  0  0  0  0  0  0  0  0  0  0  0
    4.3756    3.9307   16.6223 C   0  0  0  0  0  0  0  0  0  0  0  0
    4.4536    3.5996   17.9725 C   0  0  0  0  0  0  0  0  0  0  0  0
    4.2324    4.5042   18.9704 C   0  0  0  0  0  0  0  0  0  0  0  0
    4.3335    4.0758   20.3992 C   0  0  0  0  0  0  0  0  0  0  0  0
    3.9135    5.8217   18.6094 C   0  0  0  0  0  0  0  0  0  0  0  0
    3.8411    6.1309   17.2769 C   0  0  0  0  0  0  0  0  0  0  0  0
    2.8090    5.8177   14.1452 C   0  0  0  0  0  0  0  0  0  0  0  0
    1.6591    5.5922   14.5888 O   0  0  0  0  0  0  0  0  0  0  0  0
    3.9856    5.6477   14.8852 N   0  0  0  0  0  0  0  0  0  0  0  0
    4.9229    5.8617   14.4196 H   0  0  0  0  0  0  0  0  0  0  0  0
    2.9778    7.1178   10.1381 C   0  0  0  0  0  0  0  0  0  0  0  0
    2.5417    7.9703   11.1265 C   0  0  0  0  0  0  0  0  0  0  0  0
    2.4740    7.5674   12.4514 C   0  0  0  0  0  0  0  0  0  0  0  0
    2.8562    6.2867   12.7549 C   0  0  0  0  0  0  0  0  0  0  0  0
    3.2910    5.4469   11.7462 C   0  0  0  0  0  0  0  0  0  0  0  0
    3.3627    5.8328   10.4312 C   0  0  0  0  0  0  0  0  0  0  0  0
    3.0244    7.6380    8.7521 C   0  0  0  0  0  0  0  0  0  0  0  0
    0.1826    9.5637    4.8631 C   0  0  0  0  0  0  0  0  0  0  0  0
    1.3392    9.4144    5.7250 N   0  0  0  0  0  0  0  0  0  0  0  0
    1.5735    8.0239    6.0689 C   0  0  0  0  0  0  0  0  0  0  0  0
    1.0193    7.8240    7.4631 C   0  0  0  0  0  0  0  0  0  0  0  0
    1.8720    8.4850    8.4657 N   0  0  0  0  0  0  0  0  0  0  0  0
    2.3085    9.7615    7.9014 C   0  0  0  0  0  0  0  0  0  0  0  0
    1.2612   10.2405    6.8973 C   0  0  0  0  0  0  0  0  0  0  0  0
    3.6930    6.7285   19.6483 N   0  0  0  0  0  0  0  0  0  0  0  0
    2.7845    6.5761   20.2257 H   0  0  0  0  0  0  0  0  0  0  0  0
    4.4542    7.8279   20.0905 C   0  0  0  0  0  0  0  0  0  0  0  0
    4.1340    9.0867   19.6389 N   0  0  0  0  0  0  0  0  0  0  0  0
    4.7729   10.1887   19.9813 C   0  0  0  0  0  0  0  0  0  0  0  0
    5.8520   10.1089   20.8597 C   0  0  0  0  0  0  0  0  0  0  0  0
    6.1869    8.8549   21.3223 C   0  0  0  0  0  0  0  0  0  0  0  0
    5.4835    7.7805   20.9237 N   0  0  0  0  0  0  0  0  0  0  0  0
    7.3196    8.7052   22.2546 C   0  0  0  0  0  0  0  0  0  0  0  0
    8.5100    9.3663   22.0550 C   0  0  0  0  0  0  0  0  0  0  0  0
    9.5495    9.2005   22.9524 C   0  0  0  0  0  0  0  0  0  0  0  0
    9.4213    8.3863   24.0452 C   0  0  0  0  0  0  0  0  0  0  0  0
    8.2736    7.7497   24.2363 N   0  0  0  0  0  0  0  0  0  0  0  0
    7.2311    7.9004   23.3591 C   0  0  0  0  0  0  0  0  0  0  0  0
 19 20  1  0  0  0
 20 21  1  0  0  0
 21 22  1  0  0  0
 22 23  1  0  0  0
 23 18  1  0  0  0
 18 12  1  0  0  0
 12 13  2  0  0  0
 13 14  1  0  0  0
 14 15  2  0  0  0
 15 16  1  0  0  0
 16 17  2  0  0  0
 15  8  1  0  0  0
  8  9  2  0  0  0
  8 10  1  0  0  0
 10  1  1  0  0  0
  1  2  2  0  0  0
  2  3  1  0  0  0
  3  4  2  0  0  0
  4  5  1  0  0  0
  4  6  1  0  0  0
  6 26  1  0  0  0
 26 28  1  0  0  0
 28 29  2  0  0  0
 29 30  1  0  0  0
 30 31  2  0  0  0
 31 32  1  0  0  0
 32 33  2  0  0  0
 32 34  1  0  0  0
 34 35  2  0  0  0
 35 36  1  0  0  0
 36 37  2  0  0  0
 37 38  1  0  0  0
 38 39  2  0  0  0
  6  7  2  0  0  0
 23 24  1  0  0  0
 24 25  1  0  0  0
 25 20  1  0  0  0
 17 12  1  0  0  0
  7  1  1  0  0  0
 33 28  1  0  0  0
 39 34  1  0  0  0
 10 11  1  0  0  0
 26 27  1  0  0  0
M  END
> <minimizedAffinity>
-7.76089

> <CNNscore>
0.2095239758

> <CNNaffinity>
5.6749997139

> <CNN_VS>
1.1890485287

> <CNNaffinity_variance>
0.2318893224

$$$$
[H]c1nc(N([H])c2c([H])c(N([H])C(=O)c3c([H])c([H])c(C([H])([H])N4C([H])([H])C([H])([H])N(C([H])([H])[H])C([H])([H])C4([H])[H])c([H])c3[H])c([H])c([H])c2C([H])([H])[H])nc(-c2c([H])nc([H])c([H])c2[H])c1[H]


 39 43  0  0  0  0  0  0  0  0999 V2000
    4.8288    2.6901   19.6014 C   0  0  0  0  0  0  0  0  0  0  0  0
    4.9309    1.4543   20.1932 C   0  0  0  0  0  0  0  0  0  0  0  0
    5.2602    1.3355   21.5410 C   0  0  0  0  0  0  0  0  0  0  0  0
    5.4970    2.4143   22.3429 C   0  0  0  0  0  0  0  0  0  0  0  0
    5.8456    2.2094   23.7823 C   0  0  0  0  0  0  0  0  0  0  0  0
    5.4020    3.6935   21.7751 C   0  0  0  0  0  0  0  0  0  0  0  0
    5.0773    3.7928   20.4480 C   0  0  0  0  0  0  0  0  0  0  0  0
    3.8166    2.0375   17.4005 C   0  0  0  0  0  0  0  0  0  0  0  0
    3.3669    0.9254   17.7625 O   0  0  0  0  0  0  0  0  0  0  0  0
    4.5219    2.9114   18.2369 N   0  0  0  0  0  0  0  0  0  0  0  0
    4.8711    3.8384   17.8370 H   0  0  0  0  0  0  0  0  0  0  0  0
    3.0814    3.0932   13.3855 C   0  0  0  0  0  0  0  0  0  0  0  0
    2.5483    1.9370   13.9078 C   0  0  0  0  0  0  0  0  0  0  0  0
    2.7766    1.5651   15.2238 C   0  0  0  0  0  0  0  0  0  0  0  0
    3.5537    2.3860   15.9989 C   0  0  0  0  0  0  0  0  0  0  0  0
    4.0794    3.5428   15.4537 C   0  0  0  0  0  0  0  0  0  0  0  0
    3.8614    3.9224   14.1531 C   0  0  0  0  0  0  0  0  0  0  0  0
    2.7771    3.4137   11.9718 C   0  0  0  0  0  0  0  0  0  0  0  0
   -1.7733    5.7910   11.2299 C   0  0  0  0  0  0  0  0  0  0  0  0
   -0.6029    5.0091   10.8813 N   0  0  0  0  0  0  0  0  0  0  0  0
   -0.2161    4.1167   11.9585 C   0  0  0  0  0  0  0  0  0  0  0  0
    0.9429    4.7780   12.6728 C   0  0  0  0  0  0  0  0  0  0  0  0
    2.1623    4.7306   11.8482 N   0  0  0  0  0  0  0  0  0  0  0  0
    1.7677    4.9781   10.4621 C   0  0  0  0  0  0  0  0  0  0  0  0
    0.4978    5.8275   10.4551 C   0  0  0  0  0  0  0  0  0  0  0  0
    5.6499    4.7807   22.6157 N   0  0  0  0  0  0  0  0  0  0  0  0
    5.6443    4.5668   23.6816 H   0  0  0  0  0  0  0  0  0  0  0  0
    5.9116    6.1331   22.3220 C   0  0  0  0  0  0  0  0  0  0  0  0
    4.9249    6.8929   21.7387 N   0  0  0  0  0  0  0  0  0  0  0  0
    5.0529    8.1658   21.4177 C   0  0  0  0  0  0  0  0  0  0  0  0
    6.2579    8.8178   21.6732 C   0  0  0  0  0  0  0  0  0  0  0  0
    7.2580    8.0715   22.2575 C   0  0  0  0  0  0  0  0  0  0  0  0
    7.0463    6.7771   22.5538 N   0  0  0  0  0  0  0  0  0  0  0  0
    8.5565    8.7050   22.5528 C   0  0  0  0  0  0  0  0  0  0  0  0
    8.7345    9.5025   23.6602 C   0  0  0  0  0  0  0  0  0  0  0  0
    9.9681   10.0789   23.9035 C   0  0  0  0  0  0  0  0  0  0  0  0
   11.0268    9.8731   23.0607 C   0  0  0  0  0  0  0  0  0  0  0  0
   10.8539    9.1044   21.9938 N   0  0  0  0  0  0  0  0  0  0  0  0
    9.6396    8.5237   21.7346 C   0  0  0  0  0  0  0  0  0  0  0  0
 19 20  1  0  0  0
 20 21  1  0  0  0
 21 22  1  0  0  0
 22 23  1  0  0  0
 23 18  1  0  0  0
 18 12  1  0  0  0
 12 13  2  0  0  0
 13 14  1  0  0  0
 14 15  2  0  0  0
 15 16  1  0  0  0
 16 17  2  0  0  0
 15  8  1  0  0  0
  8  9  2  0  0  0
  8 10  1  0  0  0
 10  1  1  0  0  0
  1  2  2  0  0  0
  2  3  1  0  0  0
  3  4  2  0  0  0
  4  5  1  0  0  0
  4  6  1  0  0  0
  6 26  1  0  0  0
 26 28  1  0  0  0
 28 29  2  0  0  0
 29 30  1  0  0  0
 30 31  2  0  0  0
 31 32  1  0  0  0
 32 33  2  0  0  0
 32 34  1  0  0  0
 34 35  2  0  0  0
 35 36  1  0  0  0
 36 37  2  0  0  0
 37 38  1  0  0  0
 38 39  2  0  0  0
  6  7  2  0  0  0
 23 24  1  0  0  0
 24 25  1  0  0  0
 25 20  1  0  0  0
 17 12  1  0  0  0
  7  1  1  0  0  0
 33 28  1  0  0  0
 39 34  1  0  0  0
 10 11  1  0  0  0
 26 27  1  0  0  0
M  END
> <minimizedAffinity>
-9.16028

> <CNNscore>
0.2019015253

> <CNNaffinity>
6.4374656677

> <CNN_VS>
1.2997341156

> <CNNaffinity_variance>
0.1666971892

$$$$
[H]c1nc(N([H])c2c([H])c(N([H])C(=O)c3c([H])c([H])c(C([H])([H])N4C([H])([H])C([H])([H])N(C([H])([H])[H])C([H])([H])C4([H])[H])c([H])c3[H])c([H])c([H])c2C([H])([H])[H])nc(-c2c([H])nc([H])c([H])c2[H])c1[H]


 39 43  0  0  0  0  0  0  0  0999 V2000
    4.2138    8.9063   18.4853 C   0  0  0  0  0  0  0  0  0  0  0  0
    4.8065   10.0992   18.8221 C   0  0  0  0  0  0  0  0  0  0  0  0
    5.3296   10.2994   20.0970 C   0  0  0  0  0  0  0  0  0  0  0  0
    5.2887    9.3451   21.0720 C   0  0  0  0  0  0  0  0  0  0  0  0
    5.8715    9.6315   22.4186 C   0  0  0  0  0  0  0  0  0  0  0  0
    4.6918    8.1130   20.7663 C   0  0  0  0  0  0  0  0  0  0  0  0
    4.1820    7.9325   19.5077 C   0  0  0  0  0  0  0  0  0  0  0  0
    4.3026    8.0781   16.1188 C   0  0  0  0  0  0  0  0  0  0  0  0
    5.5212    7.7865   16.1041 O   0  0  0  0  0  0  0  0  0  0  0  0
    3.6354    8.6167   17.2258 N   0  0  0  0  0  0  0  0  0  0  0  0
    2.5935    8.8378   17.1424 H   0  0  0  0  0  0  0  0  0  0  0  0
    2.2191    7.3727   12.5220 C   0  0  0  0  0  0  0  0  0  0  0  0
    2.8997    6.3497   13.1419 C   0  0  0  0  0  0  0  0  0  0  0  0
    3.5949    6.5551   14.3237 C   0  0  0  0  0  0  0  0  0  0  0  0
    3.5871    7.8145   14.8643 C   0  0  0  0  0  0  0  0  0  0  0  0
    2.8969    8.8276   14.2248 C   0  0  0  0  0  0  0  0  0  0  0  0
    2.2050    8.6380   13.0549 C   0  0  0  0  0  0  0  0  0  0  0  0
    1.4978    7.0579   11.2672 C   0  0  0  0  0  0  0  0  0  0  0  0
   -2.8957    4.8809    9.5744 C   0  0  0  0  0  0  0  0  0  0  0  0
   -2.0655    5.8292   10.2914 N   0  0  0  0  0  0  0  0  0  0  0  0
   -0.8847    6.1896    9.5284 C   0  0  0  0  0  0  0  0  0  0  0  0
    0.2610    5.3798   10.0963 C   0  0  0  0  0  0  0  0  0  0  0  0
    0.6495    5.8820   11.4252 N   0  0  0  0  0  0  0  0  0  0  0  0
   -0.5769    6.2336   12.1400 C   0  0  0  0  0  0  0  0  0  0  0  0
   -1.7214    5.3721   11.6088 C   0  0  0  0  0  0  0  0  0  0  0  0
    4.6614    7.1537   21.7807 N   0  0  0  0  0  0  0  0  0  0  0  0
    4.1316    7.4382   22.6864 H   0  0  0  0  0  0  0  0  0  0  0  0
    5.2058    5.8562   21.8401 C   0  0  0  0  0  0  0  0  0  0  0  0
    6.4910    5.6917   22.3012 N   0  0  0  0  0  0  0  0  0  0  0  0
    7.1063    4.5294   22.4011 C   0  0  0  0  0  0  0  0  0  0  0  0
    6.4378    3.3667   22.0221 C   0  0  0  0  0  0  0  0  0  0  0  0
    5.1489    3.5128   21.5576 C   0  0  0  0  0  0  0  0  0  0  0  0
    4.5936    4.7354   21.4867 N   0  0  0  0  0  0  0  0  0  0  0  0
    4.3891    2.3196   21.1412 C   0  0  0  0  0  0  0  0  0  0  0  0
    3.7166    1.5384   22.0532 C   0  0  0  0  0  0  0  0  0  0  0  0
    3.0143    0.4269   21.6234 C   0  0  0  0  0  0  0  0  0  0  0  0
    2.9719    0.0816   20.2996 C   0  0  0  0  0  0  0  0  0  0  0  0
    3.6204    0.8352   19.4218 N   0  0  0  0  0  0  0  0  0  0  0  0
    4.3222    1.9409   19.8268 C   0  0  0  0  0  0  0  0  0  0  0  0
 19 20  1  0  0  0
 20 21  1  0  0  0
 21 22  1  0  0  0
 22 23  1  0  0  0
 23 18  1  0  0  0
 18 12  1  0  0  0
 12 13  2  0  0  0
 13 14  1  0  0  0
 14 15  2  0  0  0
 15 16  1  0  0  0
 16 17  2  0  0  0
 15  8  1  0  0  0
  8  9  2  0  0  0
  8 10  1  0  0  0
 10  1  1  0  0  0
  1  2  2  0  0  0
  2  3  1  0  0  0
  3  4  2  0  0  0
  4  5  1  0  0  0
  4  6  1  0  0  0
  6 26  1  0  0  0
 26 28  1  0  0  0
 28 29  2  0  0  0
 29 30  1  0  0  0
 30 31  2  0  0  0
 31 32  1  0  0  0
 32 33  2  0  0  0
 32 34  1  0  0  0
 34 35  2  0  0  0
 35 36  1  0  0  0
 36 37  2  0  0  0
 37 38  1  0  0  0
 38 39  2  0  0  0
  6  7  2  0  0  0
 23 24  1  0  0  0
 24 25  1  0  0  0
 25 20  1  0  0  0
 17 12  1  0  0  0
  7  1  1  0  0  0
 33 28  1  0  0  0
 39 34  1  0  0  0
 10 11  1  0  0  0
 26 27  1  0  0  0
M  END
> <minimizedAffinity>
-9.46524

> <CNNscore>
0.1865983158

> <CNNaffinity>
6.1992311478

> <CNN_VS>
1.1567660570

> <CNNaffinity_variance>
0.3387082517

$$$$
[H]c1nc(N([H])c2c([H])c(N([H])C(=O)c3c([H])c([H])c(C([H])([H])N4C([H])([H])C([H])([H])N(C([H])([H])[H])C([H])([H])C4([H])[H])c([H])c3[H])c([H])c([H])c2C([H])([H])[H])nc(-c2c([H])nc([H])c([H])c2[H])c1[H]


 39 43  0  0  0  0  0  0  0  0999 V2000
    4.0031    2.1533   18.3727 C   0  0  0  0  0  0  0  0  0  0  0  0
    3.7231    0.9057   18.8756 C   0  0  0  0  0  0  0  0  0  0  0  0
    3.7325    0.6730   20.2484 C   0  0  0  0  0  0  0  0  0  0  0  0
    4.0135    1.6470   21.1624 C   0  0  0  0  0  0  0  0  0  0  0  0
    4.0044    1.3231   22.6219 C   0  0  0  0  0  0  0  0  0  0  0  0
    4.3041    2.9347   20.6877 C   0  0  0  0  0  0  0  0  0  0  0  0
    4.2909    3.1467   19.3344 C   0  0  0  0  0  0  0  0  0  0  0  0
    2.9443    2.4928   16.1237 C   0  0  0  0  0  0  0  0  0  0  0  0
    1.7732    2.2003   16.4600 O   0  0  0  0  0  0  0  0  0  0  0  0
    4.0398    2.4817   16.9959 N   0  0  0  0  0  0  0  0  0  0  0  0
    5.0037    2.7425   16.6162 H   0  0  0  0  0  0  0  0  0  0  0  0
    3.4384    3.6035   12.0867 C   0  0  0  0  0  0  0  0  0  0  0  0
    2.7443    2.4605   12.4120 C   0  0  0  0  0  0  0  0  0  0  0  0
    2.5695    2.0711   13.7311 C   0  0  0  0  0  0  0  0  0  0  0  0
    3.1103    2.8607   14.7123 C   0  0  0  0  0  0  0  0  0  0  0  0
    3.8040    4.0046   14.3630 C   0  0  0  0  0  0  0  0  0  0  0  0
    3.9843    4.4014   13.0617 C   0  0  0  0  0  0  0  0  0  0  0  0
    3.5675    3.9449   10.6512 C   0  0  0  0  0  0  0  0  0  0  0  0
    1.3919    7.5914    7.6716 C   0  0  0  0  0  0  0  0  0  0  0  0
    2.0236    7.0329    8.8514 N   0  0  0  0  0  0  0  0  0  0  0  0
    3.0658    6.0853    8.5017 C   0  0  0  0  0  0  0  0  0  0  0  0
    2.4686    4.7046    8.6683 C   0  0  0  0  0  0  0  0  0  0  0  0
    2.2915    4.3788   10.0936 N   0  0  0  0  0  0  0  0  0  0  0  0
    1.8286    5.5903   10.7691 C   0  0  0  0  0  0  0  0  0  0  0  0
    1.0741    6.4581    9.7630 C   0  0  0  0  0  0  0  0  0  0  0  0
    4.5893    3.9133   21.6422 N   0  0  0  0  0  0  0  0  0  0  0  0
    3.9362    3.9327   22.5111 H   0  0  0  0  0  0  0  0  0  0  0  0
    5.5938    4.8998   21.6804 C   0  0  0  0  0  0  0  0  0  0  0  0
    6.8092    4.5937   22.2465 N   0  0  0  0  0  0  0  0  0  0  0  0
    7.8227    5.4326   22.3402 C   0  0  0  0  0  0  0  0  0  0  0  0
    7.6876    6.7270   21.8414 C   0  0  0  0  0  0  0  0  0  0  0  0
    6.4761    7.0511   21.2706 C   0  0  0  0  0  0  0  0  0  0  0  0
    5.4923    6.1361   21.2146 N   0  0  0  0  0  0  0  0  0  0  0  0
    6.2716    8.4056   20.7248 C   0  0  0  0  0  0  0  0  0  0  0  0
    7.3089    9.1278   20.1804 C   0  0  0  0  0  0  0  0  0  0  0  0
    7.0770   10.3955   19.6778 C   0  0  0  0  0  0  0  0  0  0  0  0
    5.8280   10.9546   19.7094 C   0  0  0  0  0  0  0  0  0  0  0  0
    4.8293   10.2575   20.2343 N   0  0  0  0  0  0  0  0  0  0  0  0
    5.0377    8.9996   20.7376 C   0  0  0  0  0  0  0  0  0  0  0  0
 19 20  1  0  0  0
 20 21  1  0  0  0
 21 22  1  0  0  0
 22 23  1  0  0  0
 23 18  1  0  0  0
 18 12  1  0  0  0
 12 13  2  0  0  0
 13 14  1  0  0  0
 14 15  2  0  0  0
 15 16  1  0  0  0
 16 17  2  0  0  0
 15  8  1  0  0  0
  8  9  2  0  0  0
  8 10  1  0  0  0
 10  1  1  0  0  0
  1  2  2  0  0  0
  2  3  1  0  0  0
  3  4  2  0  0  0
  4  5  1  0  0  0
  4  6  1  0  0  0
  6 26  1  0  0  0
 26 28  1  0  0  0
 28 29  2  0  0  0
 29 30  1  0  0  0
 30 31  2  0  0  0
 31 32  1  0  0  0
 32 33  2  0  0  0
 32 34  1  0  0  0
 34 35  2  0  0  0
 35 36  1  0  0  0
 36 37  2  0  0  0
 37 38  1  0  0  0
 38 39  2  0  0  0
  6  7  2  0  0  0
 23 24  1  0  0  0
 24 25  1  0  0  0
 25 20  1  0  0  0
 17 12  1  0  0  0
  7  1  1  0  0  0
 33 28  1  0  0  0
 39 34  1  0  0  0
 10 11  1  0  0  0
 26 27  1  0  0  0
M  END
> <minimizedAffinity>
-8.48956

> <CNNscore>
0.1811994314

> <CNNaffinity>
6.3725786209

> <CNN_VS>
1.1547076702

> <CNNaffinity_variance>
0.2192676067

$$$$
[H]c1nc(N([H])c2c([H])c(N([H])C(=O)c3c([H])c([H])c(C([H])([H])N4C([H])([H])C([H])([H])N(C([H])([H])[H])C([H])([H])C4([H])[H])c([H])c3[H])c([H])c([H])c2C([H])([H])[H])nc(-c2c([H])nc([H])c([H])c2[H])c1[H]


 39 43  0  0  0  0  0  0  0  0999 V2000
    4.0502    7.3027   17.8334 C   0  0  0  0  0  0  0  0  0  0  0  0
    3.8359    8.6124   18.1893 C   0  0  0  0  0  0  0  0  0  0  0  0
    4.1770    9.0698   19.4595 C   0  0  0  0  0  0  0  0  0  0  0  0
    4.7340    8.2653   20.4111 C   0  0  0  0  0  0  0  0  0  0  0  0
    5.0746    8.8271   21.7541 C   0  0  0  0  0  0  0  0  0  0  0  0
    4.9688    6.9213   20.0853 C   0  0  0  0  0  0  0  0  0  0  0  0
    4.6273    6.4873   18.8317 C   0  0  0  0  0  0  0  0  0  0  0  0
    2.8120    5.6946   16.3585 C   0  0  0  0  0  0  0  0  0  0  0  0
    2.1769    5.1110   17.2674 O   0  0  0  0  0  0  0  0  0  0  0  0
    3.7174    6.7402   16.5773 N   0  0  0  0  0  0  0  0  0  0  0  0
    4.2162    7.1742   15.7383 H   0  0  0  0  0  0  0  0  0  0  0  0
    2.1011    4.2640   12.4568 C   0  0  0  0  0  0  0  0  0  0  0  0
    1.1940    5.1016   13.0649 C   0  0  0  0  0  0  0  0  0  0  0  0
    1.4021    5.5842   14.3479 C   0  0  0  0  0  0  0  0  0  0  0  0
    2.5448    5.2026   15.0014 C   0  0  0  0  0  0  0  0  0  0  0  0
    3.4426    4.3604   14.3717 C   0  0  0  0  0  0  0  0  0  0  0  0
    3.2488    3.8756   13.1026 C   0  0  0  0  0  0  0  0  0  0  0  0
    1.7990    3.8051   11.0813 C   0  0  0  0  0  0  0  0  0  0  0  0
    0.2784    4.9733    6.2614 C   0  0  0  0  0  0  0  0  0  0  0  0
    1.1889    4.5559    7.3100 N   0  0  0  0  0  0  0  0  0  0  0  0
    0.5293    3.7044    8.2828 C   0  0  0  0  0  0  0  0  0  0  0  0
    0.2064    4.5795    9.4748 C   0  0  0  0  0  0  0  0  0  0  0  0
    1.4297    4.9226   10.2197 N   0  0  0  0  0  0  0  0  0  0  0  0
    2.4854    5.1786    9.2407 C   0  0  0  0  0  0  0  0  0  0  0  0
    1.8455    5.6661    7.9418 C   0  0  0  0  0  0  0  0  0  0  0  0
    5.5383    6.1185   21.0760 N   0  0  0  0  0  0  0  0  0  0  0  0
    6.0649    6.6449   21.8681 H   0  0  0  0  0  0  0  0  0  0  0  0
    5.5516    4.7192   21.2349 C   0  0  0  0  0  0  0  0  0  0  0  0
    6.3059    4.1689   22.2446 N   0  0  0  0  0  0  0  0  0  0  0  0
    6.3972    2.8762   22.4900 C   0  0  0  0  0  0  0  0  0  0  0  0
    5.6940    1.9768   21.6907 C   0  0  0  0  0  0  0  0  0  0  0  0
    4.9328    2.5108   20.6739 C   0  0  0  0  0  0  0  0  0  0  0  0
    4.8937    3.8423   20.4904 N   0  0  0  0  0  0  0  0  0  0  0  0
    4.1654    1.6104   19.7935 C   0  0  0  0  0  0  0  0  0  0  0  0
    4.1975    1.7413   18.4239 C   0  0  0  0  0  0  0  0  0  0  0  0
    3.4641    0.8767   17.6315 C   0  0  0  0  0  0  0  0  0  0  0  0
    2.6995   -0.1160   18.1824 C   0  0  0  0  0  0  0  0  0  0  0  0
    2.6695   -0.2410   19.5025 N   0  0  0  0  0  0  0  0  0  0  0  0
    3.3889    0.6053   20.3057 C   0  0  0  0  0  0  0  0  0  0  0  0
 19 20  1  0  0  0
 20 21  1  0  0  0
 21 22  1  0  0  0
 22 23  1  0  0  0
 23 18  1  0  0  0
 18 12  1  0  0  0
 12 13  2  0  0  0
 13 14  1  0  0  0
 14 15  2  0  0  0
 15 16  1  0  0  0
 16 17  2  0  0  0
 15  8  1  0  0  0
  8  9  2  0  0  0
  8 10  1  0  0  0
 10  1  1  0  0  0
  1  2  2  0  0  0
  2  3  1  0  0  0
  3  4  2  0  0  0
  4  5  1  0  0  0
  4  6  1  0  0  0
  6 26  1  0  0  0
 26 28  1  0  0  0
 28 29  2  0  0  0
 29 30  1  0  0  0
 30 31  2  0  0  0
 31 32  1  0  0  0
 32 33  2  0  0  0
 32 34  1  0  0  0
 34 35  2  0  0  0
 35 36  1  0  0  0
 36 37  2  0  0  0
 37 38  1  0  0  0
 38 39  2  0  0  0
  6  7  2  0  0  0
 23 24  1  0  0  0
 24 25  1  0  0  0
 25 20  1  0  0  0
 17 12  1  0  0  0
  7  1  1  0  0  0
 33 28  1  0  0  0
 39 34  1  0  0  0
 10 11  1  0  0  0
 26 27  1  0  0  0
M  END
> <minimizedAffinity>
-8.78676

> <CNNscore>
0.1797087342

> <CNNaffinity>
6.5101022720

> <CNN_VS>
1.1699222326

> <CNNaffinity_variance>
0.2272365093

$$$$
[H]c1nc(N([H])c2c([H])c(N([H])C(=O)c3c([H])c([H])c(C([H])([H])N4C([H])([H])C([H])([H])N(C([H])([H])[H])C([H])([H])C4([H])[H])c([H])c3[H])c([H])c([H])c2C([H])([H])[H])nc(-c2c([H])nc([H])c([H])c2[H])c1[H]


 39 43  0  0  0  0  0  0  0  0999 V2000
    3.3323    1.0383   16.9588 C   0  0  0  0  0  0  0  0  0  0  0  0
    2.4524    0.0678   17.3733 C   0  0  0  0  0  0  0  0  0  0  0  0
    2.3913   -0.3130   18.7113 C   0  0  0  0  0  0  0  0  0  0  0  0
    3.1829    0.2407   19.6754 C   0  0  0  0  0  0  0  0  0  0  0  0
    3.0611   -0.2187   21.0929 C   0  0  0  0  0  0  0  0  0  0  0  0
    4.0941    1.2357   19.2914 C   0  0  0  0  0  0  0  0  0  0  0  0
    4.1418    1.5986   17.9713 C   0  0  0  0  0  0  0  0  0  0  0  0
    2.9267    2.6361   15.0675 C   0  0  0  0  0  0  0  0  0  0  0  0
    2.2058    3.4424   15.7002 O   0  0  0  0  0  0  0  0  0  0  0  0
    3.4831    1.4763   15.6207 N   0  0  0  0  0  0  0  0  0  0  0  0
    4.0825    0.8457   15.0008 H   0  0  0  0  0  0  0  0  0  0  0  0
    3.5849    3.5934   11.0146 C   0  0  0  0  0  0  0  0  0  0  0  0
    4.1884    4.3296   12.0085 C   0  0  0  0  0  0  0  0  0  0  0  0
    3.9869    4.0378   13.3488 C   0  0  0  0  0  0  0  0  0  0  0  0
    3.1639    2.9876   13.6621 C   0  0  0  0  0  0  0  0  0  0  0  0
    2.5677    2.2613   12.6477 C   0  0  0  0  0  0  0  0  0  0  0  0
    2.7585    2.5395   11.3175 C   0  0  0  0  0  0  0  0  0  0  0  0
    3.8651    3.9730    9.6106 C   0  0  0  0  0  0  0  0  0  0  0  0
    8.0781    2.7216    6.8550 C   0  0  0  0  0  0  0  0  0  0  0  0
    6.8101    3.3660    7.1373 N   0  0  0  0  0  0  0  0  0  0  0  0
    6.7338    3.8149    8.5154 C   0  0  0  0  0  0  0  0  0  0  0  0
    5.9108    2.7859    9.2603 C   0  0  0  0  0  0  0  0  0  0  0  0
    4.4907    2.8761    8.8807 N   0  0  0  0  0  0  0  0  0  0  0  0
    4.4337    3.1272    7.4412 C   0  0  0  0  0  0  0  0  0  0  0  0
    5.6858    2.5430    6.7889 C   0  0  0  0  0  0  0  0  0  0  0  0
    4.8934    1.7858   20.2957 N   0  0  0  0  0  0  0  0  0  0  0  0
    5.7883    1.2236   20.5507 H   0  0  0  0  0  0  0  0  0  0  0  0
    4.7435    2.9641   21.0525 C   0  0  0  0  0  0  0  0  0  0  0  0
    4.6380    2.8704   22.4204 N   0  0  0  0  0  0  0  0  0  0  0  0
    4.4938    3.9005   23.2314 C   0  0  0  0  0  0  0  0  0  0  0  0
    4.4409    5.1877   22.6995 C   0  0  0  0  0  0  0  0  0  0  0  0
    4.5451    5.3004   21.3302 C   0  0  0  0  0  0  0  0  0  0  0  0
    4.6901    4.1984   20.5734 N   0  0  0  0  0  0  0  0  0  0  0  0
    4.4960    6.6361   20.7073 C   0  0  0  0  0  0  0  0  0  0  0  0
    4.9647    7.7536   21.3596 C   0  0  0  0  0  0  0  0  0  0  0  0
    4.9018    8.9895   20.7417 C   0  0  0  0  0  0  0  0  0  0  0  0
    4.3793    9.1292   19.4843 C   0  0  0  0  0  0  0  0  0  0  0  0
    3.9279    8.0515   18.8568 N   0  0  0  0  0  0  0  0  0  0  0  0
    3.9810    6.8175   19.4514 C   0  0  0  0  0  0  0  0  0  0  0  0
 19 20  1  0  0  0
 20 21  1  0  0  0
 21 22  1  0  0  0
 22 23  1  0  0  0
 23 18  1  0  0  0
 18 12  1  0  0  0
 12 13  2  0  0  0
 13 14  1  0  0  0
 14 15  2  0  0  0
 15 16  1  0  0  0
 16 17  2  0  0  0
 15  8  1  0  0  0
  8  9  2  0  0  0
  8 10  1  0  0  0
 10  1  1  0  0  0
  1  2  2  0  0  0
  2  3  1  0  0  0
  3  4  2  0  0  0
  4  5  1  0  0  0
  4  6  1  0  0  0
  6 26  1  0  0  0
 26 28  1  0  0  0
 28 29  2  0  0  0
 29 30  1  0  0  0
 30 31  2  0  0  0
 31 32  1  0  0  0
 32 33  2  0  0  0
 32 34  1  0  0  0
 34 35  2  0  0  0
 35 36  1  0  0  0
 36 37  2  0  0  0
 37 38  1  0  0  0
 38 39  2  0  0  0
  6  7  2  0  0  0
 23 24  1  0  0  0
 24 25  1  0  0  0
 25 20  1  0  0  0
 17 12  1  0  0  0
  7  1  1  0  0  0
 33 28  1  0  0  0
 39 34  1  0  0  0
 10 11  1  0  0  0
 26 27  1  0  0  0
M  END
> <minimizedAffinity>
-9.47774

> <CNNscore>
0.1796532571

> <CNNaffinity>
6.6107358932

> <CNN_VS>
1.1876401901

> <CNNaffinity_variance>
0.1237583980

$$$$
[H]c1nc2c([H])c(OC([H])([H])C([H])([H])C([H])([H])N3C([H])([H])C([H])([H])OC([H])([H])C3([H])[H])c(OC([H])([H])[H])c([H])c2c(Oc2c([H])c([H])c(N([H])C(=O)C3(C(=O)N([H])c4c([H])c([H])c(F)c([H])c4[H])C([H])([H])C3([H])[H])c([H])c2F)c1[H]


 48 53  0  0  0  0  0  0  0  0999 V2000
    5.2411    3.2474   22.1928 C   0  0  0  0  0  0  0  0  0  0  0  0
    6.4532    3.8096   21.8230 C   0  0  0  0  0  0  0  0  0  0  0  0
    6.6412    5.1936   21.8058 C   0  0  0  0  0  0  0  0  0  0  0  0
    5.6438    6.0722   22.1536 C   0  0  0  0  0  0  0  0  0  0  0  0
    4.4380    5.5060   22.5217 C   0  0  0  0  0  0  0  0  0  0  0  0
    4.2372    4.1214   22.5414 C   0  0  0  0  0  0  0  0  0  0  0  0
    3.0195    3.6130   22.8908 F   0  0  0  0  0  0  0  0  0  0  0  0
    5.8139    7.4879   22.1270 N   0  0  0  0  0  0  0  0  0  0  0  0
    6.0014    8.2662   20.9645 C   0  0  0  0  0  0  0  0  0  0  0  0
    6.0779    7.7850   19.8179 O   0  0  0  0  0  0  0  0  0  0  0  0
    5.7930    7.9991   23.0455 H   0  0  0  0  0  0  0  0  0  0  0  0
    6.0844    9.7688   21.1362 C   0  0  0  0  0  0  0  0  0  0  0  0
    5.0289   10.5575   20.3774 C   0  0  0  0  0  0  0  0  0  0  0  0
    6.4397   10.4394   19.8301 C   0  0  0  0  0  0  0  0  0  0  0  0
    6.6683   10.2840   22.3822 C   0  0  0  0  0  0  0  0  0  0  0  0
    6.0912    9.9228   23.4892 O   0  0  0  0  0  0  0  0  0  0  0  0
    7.7753   11.1357   22.5000 N   0  0  0  0  0  0  0  0  0  0  0  0
    8.2358   11.5065   21.6131 H   0  0  0  0  0  0  0  0  0  0  0  0
    8.3191   11.5821   23.7504 C   0  0  0  0  0  0  0  0  0  0  0  0
    9.0167   10.7218   24.5312 C   0  0  0  0  0  0  0  0  0  0  0  0
    9.4991   11.1304   25.7571 C   0  0  0  0  0  0  0  0  0  0  0  0
    9.2585   12.4364   26.1781 C   0  0  0  0  0  0  0  0  0  0  0  0
    9.7114   12.9059   27.3744 F   0  0  0  0  0  0  0  0  0  0  0  0
    8.5436   13.3302   25.3853 C   0  0  0  0  0  0  0  0  0  0  0  0
    8.0890   12.8729   24.1806 C   0  0  0  0  0  0  0  0  0  0  0  0
    5.1085    1.8558   22.1874 O   0  0  0  0  0  0  0  0  0  0  0  0
    4.5961    3.4628   18.4559 C   0  0  0  0  0  0  0  0  0  0  0  0
    4.7546    2.9047   19.7061 C   0  0  0  0  0  0  0  0  0  0  0  0
    4.1639    1.6701   20.0105 C   0  0  0  0  0  0  0  0  0  0  0  0
    4.3475    1.1297   21.2903 C   0  0  0  0  0  0  0  0  0  0  0  0
    3.7763   -0.0745   21.5904 C   0  0  0  0  0  0  0  0  0  0  0  0
    3.0269   -0.7224   20.6084 C   0  0  0  0  0  0  0  0  0  0  0  0
    2.8690   -0.1775   19.3868 N   0  0  0  0  0  0  0  0  0  0  0  0
    3.4191    0.9947   19.0733 C   0  0  0  0  0  0  0  0  0  0  0  0
    3.2524    1.5414   17.8221 C   0  0  0  0  0  0  0  0  0  0  0  0
    3.8277    2.7432   17.5281 C   0  0  0  0  0  0  0  0  0  0  0  0
    6.4803    4.8221   17.7163 C   0  0  0  0  0  0  0  0  0  0  0  0
    5.1526    4.6636   18.1029 O   0  0  0  0  0  0  0  0  0  0  0  0
    3.6352    3.2568   16.2789 O   0  0  0  0  0  0  0  0  0  0  0  0
    2.5383    2.9252   15.4516 C   0  0  0  0  0  0  0  0  0  0  0  0
    2.7992    3.2629   14.0074 C   0  0  0  0  0  0  0  0  0  0  0  0
    3.4487    4.6104   13.9329 C   0  0  0  0  0  0  0  0  0  0  0  0
    2.5907    5.6900   14.3863 N   0  0  0  0  0  0  0  0  0  0  0  0
    1.6988    5.9645   13.2360 C   0  0  0  0  0  0  0  0  0  0  0  0
    0.9153    7.2223   13.4017 C   0  0  0  0  0  0  0  0  0  0  0  0
    1.6411    8.2628   14.0098 O   0  0  0  0  0  0  0  0  0  0  0  0
    2.9786    8.0421   13.7513 C   0  0  0  0  0  0  0  0  0  0  0  0
    3.4540    6.8582   14.5961 C   0  0  0  0  0  0  0  0  0  0  0  0
 37 38  1  0  0  0
 38 27  1  0  0  0
 27 28  2  0  0  0
 28 29  1  0  0  0
 29 30  2  0  0  0
 30 26  1  0  0  0
 26  1  1  0  0  0
  1  2  2  0  0  0
  2  3  1  0  0  0
  3  4  2  0  0  0
  4  8  1  0  0  0
  8  9  1  0  0  0
  9 10  2  0  0  0
  9 12  1  0  0  0
 12 13  1  0  0  0
 13 14  1  0  0  0
 12 15  1  0  0  0
 15 16  2  0  0  0
 15 17  1  0  0  0
 17 19  1  0  0  0
 19 20  2  0  0  0
 20 21  1  0  0  0
 21 22  2  0  0  0
 22 23  1  0  0  0
 22 24  1  0  0  0
 24 25  2  0  0  0
  4  5  1  0  0  0
  5  6  2  0  0  0
  6  7  1  0  0  0
 30 31  1  0  0  0
 31 32  2  0  0  0
 32 33  1  0  0  0
 33 34  2  0  0  0
 34 35  1  0  0  0
 35 36  2  0  0  0
 36 39  1  0  0  0
 39 40  1  0  0  0
 40 41  1  0  0  0
 41 42  1  0  0  0
 42 43  1  0  0  0
 43 44  1  0  0  0
 44 45  1  0  0  0
 45 46  1  0  0  0
 46 47  1  0  0  0
 47 48  1  0  0  0
 36 27  1  0  0  0
 48 43  1  0  0  0
 34 29  1  0  0  0
  6  1  1  0  0  0
 14 12  1  0  0  0
 25 19  1  0  0  0
  8 11  1  0  0  0
 17 18  1  0  0  0
M  END
> <minimizedAffinity>
-8.71468

> <CNNscore>
0.4856494665

> <CNNaffinity>
7.5361547470

> <CNN_VS>
3.6599295139

> <CNNaffinity_variance>
0.1532265991

$$$$
[H]c1nc2c([H])c(OC([H])([H])C([H])([H])C([H])([H])N3C([H])([H])C([H])([H])OC([H])([H])C3([H])[H])c(OC([H])([H])[H])c([H])c2c(Oc2c([H])c([H])c(N([H])C(=O)C3(C(=O)N([H])c4c([H])c([H])c(F)c([H])c4[H])C([H])([H])C3([H])[H])c([H])c2F)c1[H]


 48 53  0  0  0  0  0  0  0  0999 V2000
    4.9363    2.7752   21.3007 C   0  0  0  0  0  0  0  0  0  0  0  0
    3.8666    3.6412   21.1341 C   0  0  0  0  0  0  0  0  0  0  0  0
    4.0108    5.0204   21.3022 C   0  0  0  0  0  0  0  0  0  0  0  0
    5.2127    5.5953   21.6381 C   0  0  0  0  0  0  0  0  0  0  0  0
    6.2753    4.7270   21.8024 C   0  0  0  0  0  0  0  0  0  0  0  0
    6.1429    3.3438   21.6383 C   0  0  0  0  0  0  0  0  0  0  0  0
    7.2188    2.5269   21.8345 F   0  0  0  0  0  0  0  0  0  0  0  0
    5.3739    6.9994   21.8284 N   0  0  0  0  0  0  0  0  0  0  0  0
    6.0641    7.8679   20.9557 C   0  0  0  0  0  0  0  0  0  0  0  0
    6.6506    7.4861   19.9250 O   0  0  0  0  0  0  0  0  0  0  0  0
    4.9399    7.4287   22.6844 H   0  0  0  0  0  0  0  0  0  0  0  0
    6.0580    9.3449   21.2915 C   0  0  0  0  0  0  0  0  0  0  0  0
    7.2468    9.8179   22.1132 C   0  0  0  0  0  0  0  0  0  0  0  0
    5.9085    9.5563   22.7797 C   0  0  0  0  0  0  0  0  0  0  0  0
    5.3612   10.2531   20.3705 C   0  0  0  0  0  0  0  0  0  0  0  0
    5.4431   11.5236   20.6317 O   0  0  0  0  0  0  0  0  0  0  0  0
    4.6058    9.8905   19.2469 N   0  0  0  0  0  0  0  0  0  0  0  0
    4.4604    8.8557   19.0367 H   0  0  0  0  0  0  0  0  0  0  0  0
    3.9715   10.8282   18.3654 C   0  0  0  0  0  0  0  0  0  0  0  0
    4.7117   11.5160   17.4623 C   0  0  0  0  0  0  0  0  0  0  0  0
    4.1163   12.4553   16.6463 C   0  0  0  0  0  0  0  0  0  0  0  0
    2.7474   12.6849   16.7652 C   0  0  0  0  0  0  0  0  0  0  0  0
    2.0960   13.5938   15.9867 F   0  0  0  0  0  0  0  0  0  0  0  0
    1.9756   11.9848   17.6887 C   0  0  0  0  0  0  0  0  0  0  0  0
    2.6165   11.0661   18.4714 C   0  0  0  0  0  0  0  0  0  0  0  0
    4.7329    1.4034   21.1241 O   0  0  0  0  0  0  0  0  0  0  0  0
    4.8112    2.8185   17.2821 C   0  0  0  0  0  0  0  0  0  0  0  0
    4.7671    2.3289   18.5697 C   0  0  0  0  0  0  0  0  0  0  0  0
    3.8624    1.3135   18.9106 C   0  0  0  0  0  0  0  0  0  0  0  0
    3.8459    0.8365   20.2281 C   0  0  0  0  0  0  0  0  0  0  0  0
    2.9680   -0.1549   20.5641 C   0  0  0  0  0  0  0  0  0  0  0  0
    2.1160   -0.6556   19.5796 C   0  0  0  0  0  0  0  0  0  0  0  0
    2.1560   -0.1768   18.3214 N   0  0  0  0  0  0  0  0  0  0  0  0
    3.0058    0.7883   17.9727 C   0  0  0  0  0  0  0  0  0  0  0  0
    3.0390    1.2690   16.6843 C   0  0  0  0  0  0  0  0  0  0  0  0
    3.9200    2.2576   16.3548 C   0  0  0  0  0  0  0  0  0  0  0  0
    5.8762    4.9886   17.6002 C   0  0  0  0  0  0  0  0  0  0  0  0
    5.6762    3.8066   16.8928 O   0  0  0  0  0  0  0  0  0  0  0  0
    3.9196    2.7132   15.0688 O   0  0  0  0  0  0  0  0  0  0  0  0
    3.0106    3.6763   14.5749 C   0  0  0  0  0  0  0  0  0  0  0  0
    3.7162    4.8272   13.9078 C   0  0  0  0  0  0  0  0  0  0  0  0
    3.4832    6.0708   14.7093 C   0  0  0  0  0  0  0  0  0  0  0  0
    3.9537    7.2768   14.0524 N   0  0  0  0  0  0  0  0  0  0  0  0
    4.8680    7.9033   15.0351 C   0  0  0  0  0  0  0  0  0  0  0  0
    5.2532    9.2937   14.6589 C   0  0  0  0  0  0  0  0  0  0  0  0
    4.2039   10.0335   14.0836 O   0  0  0  0  0  0  0  0  0  0  0  0
    3.0181    9.5044   14.5511 C   0  0  0  0  0  0  0  0  0  0  0  0
    2.7860    8.1490   13.8801 C   0  0  0  0  0  0  0  0  0  0  0  0
 37 38  1  0  0  0
 38 27  1  0  0  0
 27 28  2  0  0  0
 28 29  1  0  0  0
 29 30  2  0  0  0
 30 26  1  0  0  0
 26  1  1  0  0  0
  1  2  2  0  0  0
  2  3  1  0  0  0
  3  4  2  0  0  0
  4  8  1  0  0  0
  8  9  1  0  0  0
  9 10  2  0  0  0
  9 12  1  0  0  0
 12 13  1  0  0  0
 13 14  1  0  0  0
 12 15  1  0  0  0
 15 16  2  0  0  0
 15 17  1  0  0  0
 17 19  1  0  0  0
 19 20  2  0  0  0
 20 21  1  0  0  0
 21 22  2  0  0  0
 22 23  1  0  0  0
 22 24  1  0  0  0
 24 25  2  0  0  0
  4  5  1  0  0  0
  5  6  2  0  0  0
  6  7  1  0  0  0
 30 31  1  0  0  0
 31 32  2  0  0  0
 32 33  1  0  0  0
 33 34  2  0  0  0
 34 35  1  0  0  0
 35 36  2  0  0  0
 36 39  1  0  0  0
 39 40  1  0  0  0
 40 41  1  0  0  0
 41 42  1  0  0  0
 42 43  1  0  0  0
 43 44  1  0  0  0
 44 45  1  0  0  0
 45 46  1  0  0  0
 46 47  1  0  0  0
 47 48  1  0  0  0
 36 27  1  0  0  0
 48 43  1  0  0  0
 34 29  1  0  0  0
  6  1  1  0  0  0
 14 12  1  0  0  0
 25 19  1  0  0  0
  8 11  1  0  0  0
 17 18  1  0  0  0
M  END
> <minimizedAffinity>
-9.17760

> <CNNscore>
0.4586631060

> <CNNaffinity>
7.2701354027

> <CNN_VS>
3.3345429897

> <CNNaffinity_variance>
0.4402422905

$$$$
[H]c1nc2c([H])c(OC([H])([H])C([H])([H])C([H])([H])N3C([H])([H])C([H])([H])OC([H])([H])C3([H])[H])c(OC([H])([H])[H])c([H])c2c(Oc2c([H])c([H])c(N([H])C(=O)C3(C(=O)N([H])c4c([H])c([H])c(F)c([H])c4[H])C([H])([H])C3([H])[H])c([H])c2F)c1[H]


 48 53  0  0  0  0  0  0  0  0999 V2000
    4.0032    2.6326   16.0172 C   0  0  0  0  0  0  0  0  0  0  0  0
    4.2156    3.9493   16.3954 C   0  0  0  0  0  0  0  0  0  0  0  0
    3.8159    5.0151   15.5857 C   0  0  0  0  0  0  0  0  0  0  0  0
    3.1916    4.8222   14.3770 C   0  0  0  0  0  0  0  0  0  0  0  0
    2.9822    3.5076   14.0057 C   0  0  0  0  0  0  0  0  0  0  0  0
    3.3795    2.4318   14.8073 C   0  0  0  0  0  0  0  0  0  0  0  0
    3.1700    1.1511   14.3840 F   0  0  0  0  0  0  0  0  0  0  0  0
    2.7907    5.8983   13.5314 N   0  0  0  0  0  0  0  0  0  0  0  0
    3.4410    6.2870   12.3404 C   0  0  0  0  0  0  0  0  0  0  0  0
    4.4778    5.7445   11.9127 O   0  0  0  0  0  0  0  0  0  0  0  0
    1.9381    6.4465   13.8105 H   0  0  0  0  0  0  0  0  0  0  0  0
    2.8150    7.4081   11.5371 C   0  0  0  0  0  0  0  0  0  0  0  0
    2.2004    8.5232   12.3683 C   0  0  0  0  0  0  0  0  0  0  0  0
    1.3203    7.4517   11.7509 C   0  0  0  0  0  0  0  0  0  0  0  0
    3.3492    7.6680   10.1932 C   0  0  0  0  0  0  0  0  0  0  0  0
    2.5229    7.5261    9.2002 O   0  0  0  0  0  0  0  0  0  0  0  0
    4.6614    8.0400    9.8701 N   0  0  0  0  0  0  0  0  0  0  0  0
    5.3852    8.1029   10.6501 H   0  0  0  0  0  0  0  0  0  0  0  0
    5.1173    8.3101    8.5368 C   0  0  0  0  0  0  0  0  0  0  0  0
    5.0440    9.5679    8.0379 C   0  0  0  0  0  0  0  0  0  0  0  0
    5.4337    9.8248    6.7399 C   0  0  0  0  0  0  0  0  0  0  0  0
    5.9017    8.7747    5.9532 C   0  0  0  0  0  0  0  0  0  0  0  0
    6.3078    8.9604    4.6659 F   0  0  0  0  0  0  0  0  0  0  0  0
    5.9824    7.4780    6.4539 C   0  0  0  0  0  0  0  0  0  0  0  0
    5.5835    7.2801    7.7457 C   0  0  0  0  0  0  0  0  0  0  0  0
    4.4283    1.6057   16.8652 O   0  0  0  0  0  0  0  0  0  0  0  0
    5.2332    2.2600   20.8267 C   0  0  0  0  0  0  0  0  0  0  0  0
    4.9463    2.0246   19.4993 C   0  0  0  0  0  0  0  0  0  0  0  0
    3.8990    1.1632   19.1432 C   0  0  0  0  0  0  0  0  0  0  0  0
    3.6322    0.9482   17.7845 C   0  0  0  0  0  0  0  0  0  0  0  0
    2.6108    0.1120   17.4328 C   0  0  0  0  0  0  0  0  0  0  0  0
    1.8701   -0.5008   18.4436 C   0  0  0  0  0  0  0  0  0  0  0  0
    2.1504   -0.2737   19.7413 N   0  0  0  0  0  0  0  0  0  0  0  0
    3.1409    0.5396   20.1054 C   0  0  0  0  0  0  0  0  0  0  0  0
    3.4177    0.7653   21.4338 C   0  0  0  0  0  0  0  0  0  0  0  0
    4.4377    1.6036   21.7781 C   0  0  0  0  0  0  0  0  0  0  0  0
    7.4395    2.6529   21.7873 C   0  0  0  0  0  0  0  0  0  0  0  0
    6.2418    3.0936   21.2317 O   0  0  0  0  0  0  0  0  0  0  0  0
    4.6864    1.7981   23.1054 O   0  0  0  0  0  0  0  0  0  0  0  0
    4.4541    3.0186   23.7794 C   0  0  0  0  0  0  0  0  0  0  0  0
    3.4142    3.8572   23.0845 C   0  0  0  0  0  0  0  0  0  0  0  0
    3.9814    5.2190   22.8254 C   0  0  0  0  0  0  0  0  0  0  0  0
    4.7378    5.3028   21.5892 N   0  0  0  0  0  0  0  0  0  0  0  0
    5.5155    6.5575   21.7133 C   0  0  0  0  0  0  0  0  0  0  0  0
    6.1588    6.9657   20.4316 C   0  0  0  0  0  0  0  0  0  0  0  0
    5.3599    6.7270   19.2985 O   0  0  0  0  0  0  0  0  0  0  0  0
    4.0425    6.7407   19.7091 C   0  0  0  0  0  0  0  0  0  0  0  0
    3.7620    5.4644   20.5050 C   0  0  0  0  0  0  0  0  0  0  0  0
 37 38  1  0  0  0
 38 27  1  0  0  0
 27 28  2  0  0  0
 28 29  1  0  0  0
 29 30  2  0  0  0
 30 26  1  0  0  0
 26  1  1  0  0  0
  1  2  2  0  0  0
  2  3  1  0  0  0
  3  4  2  0  0  0
  4  8  1  0  0  0
  8  9  1  0  0  0
  9 10  2  0  0  0
  9 12  1  0  0  0
 12 13  1  0  0  0
 13 14  1  0  0  0
 12 15  1  0  0  0
 15 16  2  0  0  0
 15 17  1  0  0  0
 17 19  1  0  0  0
 19 20  2  0  0  0
 20 21  1  0  0  0
 21 22  2  0  0  0
 22 23  1  0  0  0
 22 24  1  0  0  0
 24 25  2  0  0  0
  4  5  1  0  0  0
  5  6  2  0  0  0
  6  7  1  0  0  0
 30 31  1  0  0  0
 31 32  2  0  0  0
 32 33  1  0  0  0
 33 34  2  0  0  0
 34 35  1  0  0  0
 35 36  2  0  0  0
 36 39  1  0  0  0
 39 40  1  0  0  0
 40 41  1  0  0  0
 41 42  1  0  0  0
 42 43  1  0  0  0
 43 44  1  0  0  0
 44 45  1  0  0  0
 45 46  1  0  0  0
 46 47  1  0  0  0
 47 48  1  0  0  0
 36 27  1  0  0  0
 48 43  1  0  0  0
 34 29  1  0  0  0
  6  1  1  0  0  0
 14 12  1  0  0  0
 25 19  1  0  0  0
  8 11  1  0  0  0
 17 18  1  0  0  0
M  END
> <minimizedAffinity>
-8.29864

> <CNNscore>
0.3871250153

> <CNNaffinity>
7.0653371811

> <CNN_VS>
2.7351686954

> <CNNaffinity_variance>
0.2691618800

$$$$
[H]c1nc2c([H])c(OC([H])([H])C([H])([H])C([H])([H])N3C([H])([H])C([H])([H])OC([H])([H])C3([H])[H])c(OC([H])([H])[H])c([H])c2c(Oc2c([H])c([H])c(N([H])C(=O)C3(C(=O)N([H])c4c([H])c([H])c(F)c([H])c4[H])C([H])([H])C3([H])[H])c([H])c2F)c1[H]


 48 53  0  0  0  0  0  0  0  0999 V2000
    4.2222    1.7222   17.4404 C   0  0  0  0  0  0  0  0  0  0  0  0
    4.4671    2.8808   16.7195 C   0  0  0  0  0  0  0  0  0  0  0  0
    3.7903    3.1569   15.5292 C   0  0  0  0  0  0  0  0  0  0  0  0
    2.8478    2.3038   15.0081 C   0  0  0  0  0  0  0  0  0  0  0  0
    2.6077    1.1508   15.7313 C   0  0  0  0  0  0  0  0  0  0  0  0
    3.2803    0.8625   16.9238 C   0  0  0  0  0  0  0  0  0  0  0  0
    3.0229   -0.3017   17.5885 F   0  0  0  0  0  0  0  0  0  0  0  0
    2.1586    2.5629   13.7868 N   0  0  0  0  0  0  0  0  0  0  0  0
    2.7036    3.2262   12.6663 C   0  0  0  0  0  0  0  0  0  0  0  0
    3.8559    3.6993   12.6387 O   0  0  0  0  0  0  0  0  0  0  0  0
    1.1647    2.2294   13.7072 H   0  0  0  0  0  0  0  0  0  0  0  0
    1.8362    3.3356   11.4295 C   0  0  0  0  0  0  0  0  0  0  0  0
    1.8787    2.1248   10.5107 C   0  0  0  0  0  0  0  0  0  0  0  0
    2.6846    3.3678   10.1801 C   0  0  0  0  0  0  0  0  0  0  0  0
    0.6450    4.1925   11.5027 C   0  0  0  0  0  0  0  0  0  0  0  0
    0.6502    5.2620   10.7643 O   0  0  0  0  0  0  0  0  0  0  0  0
   -0.4909    3.9832   12.2968 N   0  0  0  0  0  0  0  0  0  0  0  0
   -0.5058    3.1527   12.9648 H   0  0  0  0  0  0  0  0  0  0  0  0
   -1.6396    4.8429   12.3027 C   0  0  0  0  0  0  0  0  0  0  0  0
   -1.6601    5.9401   13.0978 C   0  0  0  0  0  0  0  0  0  0  0  0
   -2.7807    6.7430   13.1460 C   0  0  0  0  0  0  0  0  0  0  0  0
   -3.8866    6.4091   12.3675 C   0  0  0  0  0  0  0  0  0  0  0  0
   -5.0225    7.1617   12.3637 F   0  0  0  0  0  0  0  0  0  0  0  0
   -3.8783    5.2848   11.5461 C   0  0  0  0  0  0  0  0  0  0  0  0
   -2.7425    4.5251   11.5368 C   0  0  0  0  0  0  0  0  0  0  0  0
    4.9325    1.4955   18.6229 O   0  0  0  0  0  0  0  0  0  0  0  0
    5.2129    5.3610   19.9452 C   0  0  0  0  0  0  0  0  0  0  0  0
    5.1106    4.0538   19.5206 C   0  0  0  0  0  0  0  0  0  0  0  0
    4.5580    3.0774   20.3615 C   0  0  0  0  0  0  0  0  0  0  0  0
    4.4661    1.7584   19.8974 C   0  0  0  0  0  0  0  0  0  0  0  0
    3.9258    0.8043   20.7122 C   0  0  0  0  0  0  0  0  0  0  0  0
    3.4860    1.1799   21.9816 C   0  0  0  0  0  0  0  0  0  0  0  0
    3.5873    2.4564   22.3991 N   0  0  0  0  0  0  0  0  0  0  0  0
    4.1094    3.4023   21.6195 C   0  0  0  0  0  0  0  0  0  0  0  0
    4.2068    4.7032   22.0556 C   0  0  0  0  0  0  0  0  0  0  0  0
    4.7453    5.6518   21.2358 C   0  0  0  0  0  0  0  0  0  0  0  0
    7.0417    6.3486   18.6702 C   0  0  0  0  0  0  0  0  0  0  0  0
    5.7408    6.3557   19.1653 O   0  0  0  0  0  0  0  0  0  0  0  0
    4.8311    6.9299   21.7052 O   0  0  0  0  0  0  0  0  0  0  0  0
    6.0500    7.5741   22.0171 C   0  0  0  0  0  0  0  0  0  0  0  0
    6.1237    8.9573   21.4263 C   0  0  0  0  0  0  0  0  0  0  0  0
    4.7681    9.3422   20.9190 C   0  0  0  0  0  0  0  0  0  0  0  0
    4.7886    9.8828   19.5719 N   0  0  0  0  0  0  0  0  0  0  0  0
    4.8167   11.3517   19.7608 C   0  0  0  0  0  0  0  0  0  0  0  0
    4.5722   12.1002   18.4947 C   0  0  0  0  0  0  0  0  0  0  0  0
    3.6065   11.5030   17.6639 O   0  0  0  0  0  0  0  0  0  0  0  0
    2.7648   10.7644   18.4705 C   0  0  0  0  0  0  0  0  0  0  0  0
    3.5112    9.5172   18.9487 C   0  0  0  0  0  0  0  0  0  0  0  0
 37 38  1  0  0  0
 38 27  1  0  0  0
 27 28  2  0  0  0
 28 29  1  0  0  0
 29 30  2  0  0  0
 30 26  1  0  0  0
 26  1  1  0  0  0
  1  2  2  0  0  0
  2  3  1  0  0  0
  3  4  2  0  0  0
  4  8  1  0  0  0
  8  9  1  0  0  0
  9 10  2  0  0  0
  9 12  1  0  0  0
 12 13  1  0  0  0
 13 14  1  0  0  0
 12 15  1  0  0  0
 15 16  2  0  0  0
 15 17  1  0  0  0
 17 19  1  0  0  0
 19 20  2  0  0  0
 20 21  1  0  0  0
 21 22  2  0  0  0
 22 23  1  0  0  0
 22 24  1  0  0  0
 24 25  2  0  0  0
  4  5  1  0  0  0
  5  6  2  0  0  0
  6  7  1  0  0  0
 30 31  1  0  0  0
 31 32  2  0  0  0
 32 33  1  0  0  0
 33 34  2  0  0  0
 34 35  1  0  0  0
 35 36  2  0  0  0
 36 39  1  0  0  0
 39 40  1  0  0  0
 40 41  1  0  0  0
 41 42  1  0  0  0
 42 43  1  0  0  0
 43 44  1  0  0  0
 44 45  1  0  0  0
 45 46  1  0  0  0
 46 47  1  0  0  0
 47 48  1  0  0  0
 36 27  1  0  0  0
 48 43  1  0  0  0
 34 29  1  0  0  0
  6  1  1  0  0  0
 14 12  1  0  0  0
 25 19  1  0  0  0
  8 11  1  0  0  0
 17 18  1  0  0  0
M  END
> <minimizedAffinity>
-9.82117

> <CNNscore>
0.2887133062

> <CNNaffinity>
7.1525397301

> <CNN_VS>
2.0650334358

> <CNNaffinity_variance>
0.2527728379

$$$$
[H]c1nc2c([H])c(OC([H])([H])C([H])([H])C([H])([H])N3C([H])([H])C([H])([H])OC([H])([H])C3([H])[H])c(OC([H])([H])[H])c([H])c2c(Oc2c([H])c([H])c(N([H])C(=O)C3(C(=O)N([H])c4c([H])c([H])c(F)c([H])c4[H])C([H])([H])C3([H])[H])c([H])c2F)c1[H]


 48 53  0  0  0  0  0  0  0  0999 V2000
    4.2037    1.4590   17.8805 C   0  0  0  0  0  0  0  0  0  0  0  0
    4.5097    2.5712   17.1116 C   0  0  0  0  0  0  0  0  0  0  0  0
    3.8933    2.7988   15.8790 C   0  0  0  0  0  0  0  0  0  0  0  0
    2.9532    1.9409   15.3611 C   0  0  0  0  0  0  0  0  0  0  0  0
    2.6521    0.8342   16.1322 C   0  0  0  0  0  0  0  0  0  0  0  0
    3.2639    0.5948   17.3676 C   0  0  0  0  0  0  0  0  0  0  0  0
    2.9478   -0.5258   18.0802 F   0  0  0  0  0  0  0  0  0  0  0  0
    2.3255    2.1501   14.0978 N   0  0  0  0  0  0  0  0  0  0  0  0
    2.8790    2.8755   13.0209 C   0  0  0  0  0  0  0  0  0  0  0  0
    3.9810    3.4544   13.0740 O   0  0  0  0  0  0  0  0  0  0  0  0
    1.3748    1.7263   13.9494 H   0  0  0  0  0  0  0  0  0  0  0  0
    2.0892    2.9191   11.7292 C   0  0  0  0  0  0  0  0  0  0  0  0
    1.0180    1.8477   11.5993 C   0  0  0  0  0  0  0  0  0  0  0  0
    2.3538    1.6867   10.8966 C   0  0  0  0  0  0  0  0  0  0  0  0
    1.9516    4.2171   11.0548 C   0  0  0  0  0  0  0  0  0  0  0  0
    1.2370    5.1167   11.6624 O   0  0  0  0  0  0  0  0  0  0  0  0
    2.4999    4.5813    9.8173 N   0  0  0  0  0  0  0  0  0  0  0  0
    3.0373    3.8504    9.2576 H   0  0  0  0  0  0  0  0  0  0  0  0
    2.3550    5.8787    9.2221 C   0  0  0  0  0  0  0  0  0  0  0  0
    3.2529    6.8550    9.4994 C   0  0  0  0  0  0  0  0  0  0  0  0
    3.0915    8.1187    8.9705 C   0  0  0  0  0  0  0  0  0  0  0  0
    1.9949    8.3742    8.1502 C   0  0  0  0  0  0  0  0  0  0  0  0
    1.7794    9.5979    7.5910 F   0  0  0  0  0  0  0  0  0  0  0  0
    1.0654    7.3798    7.8572 C   0  0  0  0  0  0  0  0  0  0  0  0
    1.2739    6.1466    8.4075 C   0  0  0  0  0  0  0  0  0  0  0  0
    4.8552    1.2797   19.1043 O   0  0  0  0  0  0  0  0  0  0  0  0
    5.7350    5.1186   20.2256 C   0  0  0  0  0  0  0  0  0  0  0  0
    5.4289    3.8231   19.8685 C   0  0  0  0  0  0  0  0  0  0  0  0
    4.6741    3.0114   20.7271 C   0  0  0  0  0  0  0  0  0  0  0  0
    4.3783    1.7000   20.3319 C   0  0  0  0  0  0  0  0  0  0  0  0
    3.6406    0.9065   21.1640 C   0  0  0  0  0  0  0  0  0  0  0  0
    3.2097    1.4329   22.3819 C   0  0  0  0  0  0  0  0  0  0  0  0
    3.5098    2.6979   22.7336 N   0  0  0  0  0  0  0  0  0  0  0  0
    4.2262    3.4887   21.9358 C   0  0  0  0  0  0  0  0  0  0  0  0
    4.5258    4.7797   22.3045 C   0  0  0  0  0  0  0  0  0  0  0  0
    5.2609    5.5677   21.4676 C   0  0  0  0  0  0  0  0  0  0  0  0
    6.2149    6.1527   18.0703 C   0  0  0  0  0  0  0  0  0  0  0  0
    6.4656    5.9564   19.4253 O   0  0  0  0  0  0  0  0  0  0  0  0
    5.5434    6.8403   21.8700 O   0  0  0  0  0  0  0  0  0  0  0  0
    4.7928    7.9736   21.4827 C   0  0  0  0  0  0  0  0  0  0  0  0
    5.5854    9.2470   21.6157 C   0  0  0  0  0  0  0  0  0  0  0  0
    5.2349   10.1588   20.4803 C   0  0  0  0  0  0  0  0  0  0  0  0
    6.3932   10.7622   19.8466 N   0  0  0  0  0  0  0  0  0  0  0  0
    7.3802   10.9121   20.9409 C   0  0  0  0  0  0  0  0  0  0  0  0
    8.5452   11.7585   20.5542 C   0  0  0  0  0  0  0  0  0  0  0  0
    8.2006   12.8563   19.7447 O   0  0  0  0  0  0  0  0  0  0  0  0
    6.8849   13.1738   20.0140 C   0  0  0  0  0  0  0  0  0  0  0  0
    5.9843   12.0994   19.4010 C   0  0  0  0  0  0  0  0  0  0  0  0
 37 38  1  0  0  0
 38 27  1  0  0  0
 27 28  2  0  0  0
 28 29  1  0  0  0
 29 30  2  0  0  0
 30 26  1  0  0  0
 26  1  1  0  0  0
  1  2  2  0  0  0
  2  3  1  0  0  0
  3  4  2  0  0  0
  4  8  1  0  0  0
  8  9  1  0  0  0
  9 10  2  0  0  0
  9 12  1  0  0  0
 12 13  1  0  0  0
 13 14  1  0  0  0
 12 15  1  0  0  0
 15 16  2  0  0  0
 15 17  1  0  0  0
 17 19  1  0  0  0
 19 20  2  0  0  0
 20 21  1  0  0  0
 21 22  2  0  0  0
 22 23  1  0  0  0
 22 24  1  0  0  0
 24 25  2  0  0  0
  4  5  1  0  0  0
  5  6  2  0  0  0
  6  7  1  0  0  0
 30 31  1  0  0  0
 31 32  2  0  0  0
 32 33  1  0  0  0
 33 34  2  0  0  0
 34 35  1  0  0  0
 35 36  2  0  0  0
 36 39  1  0  0  0
 39 40  1  0  0  0
 40 41  1  0  0  0
 41 42  1  0  0  0
 42 43  1  0  0  0
 43 44  1  0  0  0
 44 45  1  0  0  0
 45 46  1  0  0  0
 46 47  1  0  0  0
 47 48  1  0  0  0
 36 27  1  0  0  0
 48 43  1  0  0  0
 34 29  1  0  0  0
  6  1  1  0  0  0
 14 12  1  0  0  0
 25 19  1  0  0  0
  8 11  1  0  0  0
 17 18  1  0  0  0
M  END
> <minimizedAffinity>
-8.35131

> <CNNscore>
0.2810293734

> <CNNaffinity>
6.8545737267

> <CNN_VS>
1.9263365269

> <CNNaffinity_variance>
0.1963159144

$$$$
[H]c1nc2c([H])c(OC([H])([H])C([H])([H])C([H])([H])N3C([H])([H])C([H])([H])OC([H])([H])C3([H])[H])c(OC([H])([H])[H])c([H])c2c(Oc2c([H])c([H])c(N([H])C(=O)C3(C(=O)N([H])c4c([H])c([H])c(F)c([H])c4[H])C([H])([H])C3([H])[H])c([H])c2F)c1[H]


 48 53  0  0  0  0  0  0  0  0999 V2000
    2.8875    3.0662   14.1626 C   0  0  0  0  0  0  0  0  0  0  0  0
    2.6422    2.2836   13.0449 C   0  0  0  0  0  0  0  0  0  0  0  0
    1.6932    2.6531   12.0889 C   0  0  0  0  0  0  0  0  0  0  0  0
    0.9542    3.8062   12.1984 C   0  0  0  0  0  0  0  0  0  0  0  0
    1.2034    4.5824   13.3144 C   0  0  0  0  0  0  0  0  0  0  0  0
    2.1502    4.2221   14.2795 C   0  0  0  0  0  0  0  0  0  0  0  0
    2.3424    5.0125   15.3758 F   0  0  0  0  0  0  0  0  0  0  0  0
   -0.0291    4.1906   11.2397 N   0  0  0  0  0  0  0  0  0  0  0  0
    0.2072    4.9979   10.1062 C   0  0  0  0  0  0  0  0  0  0  0  0
    1.3144    5.5023    9.8381 O   0  0  0  0  0  0  0  0  0  0  0  0
   -1.0108    3.8419   11.3811 H   0  0  0  0  0  0  0  0  0  0  0  0
   -0.9530    5.2306    9.1607 C   0  0  0  0  0  0  0  0  0  0  0  0
   -0.5763    5.2828    7.6884 C   0  0  0  0  0  0  0  0  0  0  0  0
   -0.8187    6.5645    8.4646 C   0  0  0  0  0  0  0  0  0  0  0  0
   -2.2852    4.7825    9.5888 C   0  0  0  0  0  0  0  0  0  0  0  0
   -2.4567    3.5002    9.7130 O   0  0  0  0  0  0  0  0  0  0  0  0
   -3.3943    5.5940    9.8641 N   0  0  0  0  0  0  0  0  0  0  0  0
   -3.3131    6.6458    9.7108 H   0  0  0  0  0  0  0  0  0  0  0  0
   -4.6650    5.0982   10.3089 C   0  0  0  0  0  0  0  0  0  0  0  0
   -5.6715    4.9198    9.4192 C   0  0  0  0  0  0  0  0  0  0  0  0
   -6.9106    4.4913    9.8477 C   0  0  0  0  0  0  0  0  0  0  0  0
   -7.1101    4.2461   11.2045 C   0  0  0  0  0  0  0  0  0  0  0  0
   -8.3068    3.8158   11.6936 F   0  0  0  0  0  0  0  0  0  0  0  0
   -6.0843    4.4251   12.1288 C   0  0  0  0  0  0  0  0  0  0  0  0
   -4.8775    4.8508   11.6497 C   0  0  0  0  0  0  0  0  0  0  0  0
    3.8457    2.6451   15.0893 O   0  0  0  0  0  0  0  0  0  0  0  0
    5.3110    4.0196   18.6576 C   0  0  0  0  0  0  0  0  0  0  0  0
    4.8104    3.5382   17.4671 C   0  0  0  0  0  0  0  0  0  0  0  0
    4.0869    2.3375   17.4372 C   0  0  0  0  0  0  0  0  0  0  0  0
    3.5893    1.8780   16.2104 C   0  0  0  0  0  0  0  0  0  0  0  0
    2.8813    0.7102   16.1769 C   0  0  0  0  0  0  0  0  0  0  0  0
    2.6813    0.0150   17.3696 C   0  0  0  0  0  0  0  0  0  0  0  0
    3.1718    0.4827   18.5335 N   0  0  0  0  0  0  0  0  0  0  0  0
    3.8631    1.6203   18.5882 C   0  0  0  0  0  0  0  0  0  0  0  0
    4.3584    2.0894   19.7827 C   0  0  0  0  0  0  0  0  0  0  0  0
    5.0627    3.2579   19.8094 C   0  0  0  0  0  0  0  0  0  0  0  0
    6.0231    6.1734   17.7635 C   0  0  0  0  0  0  0  0  0  0  0  0
    6.0215    5.1873   18.7459 O   0  0  0  0  0  0  0  0  0  0  0  0
    5.5435    3.6883   21.0115 O   0  0  0  0  0  0  0  0  0  0  0  0
    4.8330    4.5451   21.8826 C   0  0  0  0  0  0  0  0  0  0  0  0
    5.6477    5.7482   22.2783 C   0  0  0  0  0  0  0  0  0  0  0  0
    7.1022    5.4120   22.1559 C   0  0  0  0  0  0  0  0  0  0  0  0
    7.9697    6.5743   22.2171 N   0  0  0  0  0  0  0  0  0  0  0  0
    7.2261    7.5504   23.0468 C   0  0  0  0  0  0  0  0  0  0  0  0
    7.8286    8.9139   23.0115 C   0  0  0  0  0  0  0  0  0  0  0  0
    8.3235    9.2791   21.7461 O   0  0  0  0  0  0  0  0  0  0  0  0
    7.6162    8.5636   20.8015 C   0  0  0  0  0  0  0  0  0  0  0  0
    8.0680    7.1026   20.8514 C   0  0  0  0  0  0  0  0  0  0  0  0
 37 38  1  0  0  0
 38 27  1  0  0  0
 27 28  2  0  0  0
 28 29  1  0  0  0
 29 30  2  0  0  0
 30 26  1  0  0  0
 26  1  1  0  0  0
  1  2  2  0  0  0
  2  3  1  0  0  0
  3  4  2  0  0  0
  4  8  1  0  0  0
  8  9  1  0  0  0
  9 10  2  0  0  0
  9 12  1  0  0  0
 12 13  1  0  0  0
 13 14  1  0  0  0
 12 15  1  0  0  0
 15 16  2  0  0  0
 15 17  1  0  0  0
 17 19  1  0  0  0
 19 20  2  0  0  0
 20 21  1  0  0  0
 21 22  2  0  0  0
 22 23  1  0  0  0
 22 24  1  0  0  0
 24 25  2  0  0  0
  4  5  1  0  0  0
  5  6  2  0  0  0
  6  7  1  0  0  0
 30 31  1  0  0  0
 31 32  2  0  0  0
 32 33  1  0  0  0
 33 34  2  0  0  0
 34 35  1  0  0  0
 35 36  2  0  0  0
 36 39  1  0  0  0
 39 40  1  0  0  0
 40 41  1  0  0  0
 41 42  1  0  0  0
 42 43  1  0  0  0
 43 44  1  0  0  0
 44 45  1  0  0  0
 45 46  1  0  0  0
 46 47  1  0  0  0
 47 48  1  0  0  0
 36 27  1  0  0  0
 48 43  1  0  0  0
 34 29  1  0  0  0
  6  1  1  0  0  0
 14 12  1  0  0  0
 25 19  1  0  0  0
  8 11  1  0  0  0
 17 18  1  0  0  0
M  END
> <minimizedAffinity>
-8.60784

> <CNNscore>
0.1905375421

> <CNNaffinity>
6.6308922768

> <CNN_VS>
1.2634339333

> <CNNaffinity_variance>
0.2660098672

$$$$
[H]c1nc2c([H])c(OC([H])([H])C([H])([H])C([H])([H])N3C([H])([H])C([H])([H])OC([H])([H])C3([H])[H])c(OC([H])([H])[H])c([H])c2c(Oc2c([H])c([H])c(N([H])C(=O)C3(C(=O)N([H])c4c([H])c([H])c(F)c([H])c4[H])C([H])([H])C3([H])[H])c([H])c2F)c1[H]


 48 53  0  0  0  0  0  0  0  0999 V2000
    4.1611    1.5399   17.7815 C   0  0  0  0  0  0  0  0  0  0  0  0
    4.4810    2.6663   17.0395 C   0  0  0  0  0  0  0  0  0  0  0  0
    3.8590    2.9373   15.8185 C   0  0  0  0  0  0  0  0  0  0  0  0
    2.8993    2.1104   15.2864 C   0  0  0  0  0  0  0  0  0  0  0  0
    2.5842    0.9894   16.0308 C   0  0  0  0  0  0  0  0  0  0  0  0
    3.2015    0.7065   17.2542 C   0  0  0  0  0  0  0  0  0  0  0  0
    2.8708   -0.4266   17.9399 F   0  0  0  0  0  0  0  0  0  0  0  0
    2.2653    2.3641   14.0344 N   0  0  0  0  0  0  0  0  0  0  0  0
    2.8107    3.1327   12.9836 C   0  0  0  0  0  0  0  0  0  0  0  0
    3.9100    3.7148   13.0543 O   0  0  0  0  0  0  0  0  0  0  0  0
    1.3161    1.9413   13.8737 H   0  0  0  0  0  0  0  0  0  0  0  0
    2.0154    3.2211   11.6976 C   0  0  0  0  0  0  0  0  0  0  0  0
    1.3886    4.5797   11.4266 C   0  0  0  0  0  0  0  0  0  0  0  0
    0.5500    3.4456   11.9873 C   0  0  0  0  0  0  0  0  0  0  0  0
    2.3937    2.3254   10.5961 C   0  0  0  0  0  0  0  0  0  0  0  0
    3.5241    2.5739   10.0049 O   0  0  0  0  0  0  0  0  0  0  0  0
    1.6553    1.2387   10.1079 N   0  0  0  0  0  0  0  0  0  0  0  0
    0.6932    1.0424   10.5227 H   0  0  0  0  0  0  0  0  0  0  0  0
    2.0927    0.3795    9.0453 C   0  0  0  0  0  0  0  0  0  0  0  0
    2.8545   -0.7064    9.3226 C   0  0  0  0  0  0  0  0  0  0  0  0
    3.3201   -1.5082    8.3014 C   0  0  0  0  0  0  0  0  0  0  0  0
    2.9962   -1.1849    6.9856 C   0  0  0  0  0  0  0  0  0  0  0  0
    3.4184   -1.9372    5.9309 F   0  0  0  0  0  0  0  0  0  0  0  0
    2.2141   -0.0723    6.6873 C   0  0  0  0  0  0  0  0  0  0  0  0
    1.7796    0.6869    7.7370 C   0  0  0  0  0  0  0  0  0  0  0  0
    4.8190    1.3166   18.9946 O   0  0  0  0  0  0  0  0  0  0  0  0
    5.7306    5.1472   20.1193 C   0  0  0  0  0  0  0  0  0  0  0  0
    5.4143    3.8544   19.7613 C   0  0  0  0  0  0  0  0  0  0  0  0
    4.6766    3.0391   20.6312 C   0  0  0  0  0  0  0  0  0  0  0  0
    4.3696    1.7306   20.2347 C   0  0  0  0  0  0  0  0  0  0  0  0
    3.6485    0.9335   21.0779 C   0  0  0  0  0  0  0  0  0  0  0  0
    3.2451    1.4534   22.3079 C   0  0  0  0  0  0  0  0  0  0  0  0
    3.5553    2.7158   22.6605 N   0  0  0  0  0  0  0  0  0  0  0  0
    4.2559    3.5100   21.8521 C   0  0  0  0  0  0  0  0  0  0  0  0
    4.5660    4.7981   22.2219 C   0  0  0  0  0  0  0  0  0  0  0  0
    5.2844    5.5897   21.3739 C   0  0  0  0  0  0  0  0  0  0  0  0
    6.1554    6.2061   17.9645 C   0  0  0  0  0  0  0  0  0  0  0  0
    6.4454    5.9883   19.3083 O   0  0  0  0  0  0  0  0  0  0  0  0
    5.5781    6.8594   21.7776 O   0  0  0  0  0  0  0  0  0  0  0  0
    4.8051    7.9926   21.4370 C   0  0  0  0  0  0  0  0  0  0  0  0
    5.5852    9.2722   21.5848 C   0  0  0  0  0  0  0  0  0  0  0  0
    5.2262   10.1932   20.4596 C   0  0  0  0  0  0  0  0  0  0  0  0
    6.3808   10.7822   19.8058 N   0  0  0  0  0  0  0  0  0  0  0  0
    5.8131   11.8113   18.9042 C   0  0  0  0  0  0  0  0  0  0  0  0
    6.8163   12.3516   17.9425 C   0  0  0  0  0  0  0  0  0  0  0  0
    7.7058   11.3793   17.4499 O   0  0  0  0  0  0  0  0  0  0  0  0
    7.0663   10.1583   17.5196 C   0  0  0  0  0  0  0  0  0  0  0  0
    6.9877    9.7273   18.9857 C   0  0  0  0  0  0  0  0  0  0  0  0
 37 38  1  0  0  0
 38 27  1  0  0  0
 27 28  2  0  0  0
 28 29  1  0  0  0
 29 30  2  0  0  0
 30 26  1  0  0  0
 26  1  1  0  0  0
  1  2  2  0  0  0
  2  3  1  0  0  0
  3  4  2  0  0  0
  4  8  1  0  0  0
  8  9  1  0  0  0
  9 10  2  0  0  0
  9 12  1  0  0  0
 12 13  1  0  0  0
 13 14  1  0  0  0
 12 15  1  0  0  0
 15 16  2  0  0  0
 15 17  1  0  0  0
 17 19  1  0  0  0
 19 20  2  0  0  0
 20 21  1  0  0  0
 21 22  2  0  0  0
 22 23  1  0  0  0
 22 24  1  0  0  0
 24 25  2  0  0  0
  4  5  1  0  0  0
  5  6  2  0  0  0
  6  7  1  0  0  0
 30 31  1  0  0  0
 31 32  2  0  0  0
 32 33  1  0  0  0
 33 34  2  0  0  0
 34 35  1  0  0  0
 35 36  2  0  0  0
 36 39  1  0  0  0
 39 40  1  0  0  0
 40 41  1  0  0  0
 41 42  1  0  0  0
 42 43  1  0  0  0
 43 44  1  0  0  0
 44 45  1  0  0  0
 45 46  1  0  0  0
 46 47  1  0  0  0
 47 48  1  0  0  0
 36 27  1  0  0  0
 48 43  1  0  0  0
 34 29  1  0  0  0
  6  1  1  0  0  0
 14 12  1  0  0  0
 25 19  1  0  0  0
  8 11  1  0  0  0
 17 18  1  0  0  0
M  END
> <minimizedAffinity>
-8.34323

> <CNNscore>
0.1904525310

> <CNNaffinity>
6.7954397202

> <CNN_VS>
1.2942086458

> <CNNaffinity_variance>
0.2420178652

$$$$
[H]c1nc2c([H])c(OC([H])([H])C([H])([H])C([H])([H])N3C([H])([H])C([H])([H])OC([H])([H])C3([H])[H])c(OC([H])([H])[H])c([H])c2c(Oc2c([H])c([H])c(N([H])C(=O)C3(C(=O)N([H])c4c([H])c([H])c(F)c([H])c4[H])C([H])([H])C3([H])[H])c([H])c2F)c1[H]


 48 53  0  0  0  0  0  0  0  0999 V2000
    4.2773    1.7863   17.4663 C   0  0  0  0  0  0  0  0  0  0  0  0
    4.5991    2.9404   16.7689 C   0  0  0  0  0  0  0  0  0  0  0  0
    3.9613    3.2714   15.5711 C   0  0  0  0  0  0  0  0  0  0  0  0
    2.9835    2.4795   15.0191 C   0  0  0  0  0  0  0  0  0  0  0  0
    2.6668    1.3307   15.7190 C   0  0  0  0  0  0  0  0  0  0  0  0
    3.2997    0.9877   16.9188 C   0  0  0  0  0  0  0  0  0  0  0  0
    2.9662   -0.1705   17.5597 F   0  0  0  0  0  0  0  0  0  0  0  0
    2.3331    2.7948   13.7898 N   0  0  0  0  0  0  0  0  0  0  0  0
    1.6049    3.9759   13.5305 C   0  0  0  0  0  0  0  0  0  0  0  0
    1.4169    4.8696   14.3779 O   0  0  0  0  0  0  0  0  0  0  0  0
    2.4036    2.0961   13.0073 H   0  0  0  0  0  0  0  0  0  0  0  0
    1.0525    4.1629   12.1326 C   0  0  0  0  0  0  0  0  0  0  0  0
    1.0395    5.6008   11.6382 C   0  0  0  0  0  0  0  0  0  0  0  0
   -0.2311    4.9586   12.1648 C   0  0  0  0  0  0  0  0  0  0  0  0
    1.1686    3.0378   11.1948 C   0  0  0  0  0  0  0  0  0  0  0  0
    2.3725    2.6468   10.8998 O   0  0  0  0  0  0  0  0  0  0  0  0
    0.1158    2.3512   10.5746 N   0  0  0  0  0  0  0  0  0  0  0  0
   -0.8834    2.6839   10.7397 H   0  0  0  0  0  0  0  0  0  0  0  0
    0.2918    1.2370    9.6880 C   0  0  0  0  0  0  0  0  0  0  0  0
    0.3292   -0.0236   10.1840 C   0  0  0  0  0  0  0  0  0  0  0  0
    0.5483   -1.0952    9.3435 C   0  0  0  0  0  0  0  0  0  0  0  0
    0.7301   -0.8617    7.9822 C   0  0  0  0  0  0  0  0  0  0  0  0
    0.9448   -1.8748    7.0968 F   0  0  0  0  0  0  0  0  0  0  0  0
    0.6936    0.4285    7.4600 C   0  0  0  0  0  0  0  0  0  0  0  0
    0.4731    1.4527    8.3372 C   0  0  0  0  0  0  0  0  0  0  0  0
    4.9514    1.5028   18.6577 O   0  0  0  0  0  0  0  0  0  0  0  0
    5.7837    5.2021   20.2044 C   0  0  0  0  0  0  0  0  0  0  0  0
    5.4938    3.9512   19.7036 C   0  0  0  0  0  0  0  0  0  0  0  0
    4.7565    3.0358   20.4681 C   0  0  0  0  0  0  0  0  0  0  0  0
    4.4769    1.7736   19.9276 C   0  0  0  0  0  0  0  0  0  0  0  0
    3.7563    0.8795   20.6676 C   0  0  0  0  0  0  0  0  0  0  0  0
    3.3261    1.2574   21.9397 C   0  0  0  0  0  0  0  0  0  0  0  0
    3.6104    2.4785   22.4316 N   0  0  0  0  0  0  0  0  0  0  0  0
    4.3100    3.3657   21.7255 C   0  0  0  0  0  0  0  0  0  0  0  0
    4.5935    4.6106   22.2373 C   0  0  0  0  0  0  0  0  0  0  0  0
    5.3116    5.4997   21.4918 C   0  0  0  0  0  0  0  0  0  0  0  0
    6.1416    6.5956   18.2359 C   0  0  0  0  0  0  0  0  0  0  0  0
    6.4968    6.1363   19.5009 O   0  0  0  0  0  0  0  0  0  0  0  0
    5.5785    6.7224   22.0350 O   0  0  0  0  0  0  0  0  0  0  0  0
    4.8686    7.9005   21.7098 C   0  0  0  0  0  0  0  0  0  0  0  0
    5.7074    9.1359   21.9046 C   0  0  0  0  0  0  0  0  0  0  0  0
    7.1296    8.7266   22.1348 C   0  0  0  0  0  0  0  0  0  0  0  0
    7.7269    9.3487   23.3025 N   0  0  0  0  0  0  0  0  0  0  0  0
    9.1829    9.3297   23.0305 C   0  0  0  0  0  0  0  0  0  0  0  0
    9.9975    9.6835   24.2282 C   0  0  0  0  0  0  0  0  0  0  0  0
    9.4865    9.1635   25.4315 O   0  0  0  0  0  0  0  0  0  0  0  0
    8.7566    8.0348   25.1189 C   0  0  0  0  0  0  0  0  0  0  0  0
    7.4537    8.4637   24.4410 C   0  0  0  0  0  0  0  0  0  0  0  0
 37 38  1  0  0  0
 38 27  1  0  0  0
 27 28  2  0  0  0
 28 29  1  0  0  0
 29 30  2  0  0  0
 30 26  1  0  0  0
 26  1  1  0  0  0
  1  2  2  0  0  0
  2  3  1  0  0  0
  3  4  2  0  0  0
  4  8  1  0  0  0
  8  9  1  0  0  0
  9 10  2  0  0  0
  9 12  1  0  0  0
 12 13  1  0  0  0
 13 14  1  0  0  0
 12 15  1  0  0  0
 15 16  2  0  0  0
 15 17  1  0  0  0
 17 19  1  0  0  0
 19 20  2  0  0  0
 20 21  1  0  0  0
 21 22  2  0  0  0
 22 23  1  0  0  0
 22 24  1  0  0  0
 24 25  2  0  0  0
  4  5  1  0  0  0
  5  6  2  0  0  0
  6  7  1  0  0  0
 30 31  1  0  0  0
 31 32  2  0  0  0
 32 33  1  0  0  0
 33 34  2  0  0  0
 34 35  1  0  0  0
 35 36  2  0  0  0
 36 39  1  0  0  0
 39 40  1  0  0  0
 40 41  1  0  0  0
 41 42  1  0  0  0
 42 43  1  0  0  0
 43 44  1  0  0  0
 44 45  1  0  0  0
 45 46  1  0  0  0
 46 47  1  0  0  0
 47 48  1  0  0  0
 36 27  1  0  0  0
 48 43  1  0  0  0
 34 29  1  0  0  0
  6  1  1  0  0  0
 14 12  1  0  0  0
 25 19  1  0  0  0
  8 11  1  0  0  0
 17 18  1  0  0  0
M  END
> <minimizedAffinity>
-8.46895

> <CNNscore>
0.1901899576

> <CNNaffinity>
6.8758468628

> <CNN_VS>
1.3077169657

> <CNNaffinity_variance>
0.2112971246

$$$$
[H]c1nc2c([H])c(OC([H])([H])C([H])([H])C([H])([H])N3C([H])([H])C([H])([H])OC([H])([H])C3([H])[H])c(OC([H])([H])[H])c([H])c2c(Oc2c([H])c([H])c(N([H])C(=O)C3(C(=O)N([H])c4c([H])c([H])c(F)c([H])c4[H])C([H])([H])C3([H])[H])c([H])c2F)c1[H]


 48 53  0  0  0  0  0  0  0  0999 V2000
    3.9935    2.6453   16.2041 C   0  0  0  0  0  0  0  0  0  0  0  0
    3.7204    3.8487   15.5723 C   0  0  0  0  0  0  0  0  0  0  0  0
    2.8040    3.9300   14.5212 C   0  0  0  0  0  0  0  0  0  0  0  0
    2.1233    2.8306   14.0567 C   0  0  0  0  0  0  0  0  0  0  0  0
    2.3994    1.6340   14.6907 C   0  0  0  0  0  0  0  0  0  0  0  0
    3.3163    1.5397   15.7434 C   0  0  0  0  0  0  0  0  0  0  0  0
    3.5704    0.3293   16.3211 F   0  0  0  0  0  0  0  0  0  0  0  0
    1.1960    2.8931   12.9751 N   0  0  0  0  0  0  0  0  0  0  0  0
    1.5204    3.2099   11.6384 C   0  0  0  0  0  0  0  0  0  0  0  0
    2.6687    3.5122   11.2611 O   0  0  0  0  0  0  0  0  0  0  0  0
    0.1876    2.6810   13.1841 H   0  0  0  0  0  0  0  0  0  0  0  0
    0.4051    3.1473   10.6156 C   0  0  0  0  0  0  0  0  0  0  0  0
    0.3198    1.8403    9.8431 C   0  0  0  0  0  0  0  0  0  0  0  0
    0.9653    3.0621    9.2153 C   0  0  0  0  0  0  0  0  0  0  0  0
   -0.7898    3.9679   10.8549 C   0  0  0  0  0  0  0  0  0  0  0  0
   -0.7077    4.8547   11.8015 O   0  0  0  0  0  0  0  0  0  0  0  0
   -2.0139    3.8844   10.1772 N   0  0  0  0  0  0  0  0  0  0  0  0
   -2.1426    3.1262    9.4391 H   0  0  0  0  0  0  0  0  0  0  0  0
   -3.1386    4.7366   10.4367 C   0  0  0  0  0  0  0  0  0  0  0  0
   -3.6662    4.8007   11.6833 C   0  0  0  0  0  0  0  0  0  0  0  0
   -4.7781    5.5792   11.9284 C   0  0  0  0  0  0  0  0  0  0  0  0
   -5.3479    6.2954   10.8782 C   0  0  0  0  0  0  0  0  0  0  0  0
   -6.4428    7.0875   11.0528 F   0  0  0  0  0  0  0  0  0  0  0  0
   -4.8153    6.2385    9.5930 C   0  0  0  0  0  0  0  0  0  0  0  0
   -3.7136    5.4520    9.4064 C   0  0  0  0  0  0  0  0  0  0  0  0
    4.9234    2.6222   17.2476 O   0  0  0  0  0  0  0  0  0  0  0  0
    5.6711    5.9187   19.5591 C   0  0  0  0  0  0  0  0  0  0  0  0
    5.4131    4.7978   18.7999 C   0  0  0  0  0  0  0  0  0  0  0  0
    4.8660    3.6513   19.3931 C   0  0  0  0  0  0  0  0  0  0  0  0
    4.6133    2.5300   18.5917 C   0  0  0  0  0  0  0  0  0  0  0  0
    4.0775    1.4116   19.1648 C   0  0  0  0  0  0  0  0  0  0  0  0
    3.8030    1.4272   20.5324 C   0  0  0  0  0  0  0  0  0  0  0  0
    4.0566    2.5209   21.2764 N   0  0  0  0  0  0  0  0  0  0  0  0
    4.5771    3.6221   20.7366 C   0  0  0  0  0  0  0  0  0  0  0  0
    4.8309    4.7340   21.5057 C   0  0  0  0  0  0  0  0  0  0  0  0
    5.3638    5.8486   20.9264 C   0  0  0  0  0  0  0  0  0  0  0  0
    7.5627    7.2703   18.8238 C   0  0  0  0  0  0  0  0  0  0  0  0
    6.2016    7.0664   19.0321 O   0  0  0  0  0  0  0  0  0  0  0  0
    5.6075    6.9296   21.7222 O   0  0  0  0  0  0  0  0  0  0  0  0
    6.6740    7.0024   22.6468 C   0  0  0  0  0  0  0  0  0  0  0  0
    7.3869    8.3272   22.5819 C   0  0  0  0  0  0  0  0  0  0  0  0
    6.4054    9.4220   22.8672 C   0  0  0  0  0  0  0  0  0  0  0  0
    7.0172   10.6134   23.4272 N   0  0  0  0  0  0  0  0  0  0  0  0
    7.1222   11.5500   22.2845 C   0  0  0  0  0  0  0  0  0  0  0  0
    7.9688   12.7388   22.5897 C   0  0  0  0  0  0  0  0  0  0  0  0
    9.0955   12.4414   23.3782 O   0  0  0  0  0  0  0  0  0  0  0  0
    9.4173   11.1173   23.1593 C   0  0  0  0  0  0  0  0  0  0  0  0
    8.3721   10.2369   23.8474 C   0  0  0  0  0  0  0  0  0  0  0  0
 37 38  1  0  0  0
 38 27  1  0  0  0
 27 28  2  0  0  0
 28 29  1  0  0  0
 29 30  2  0  0  0
 30 26  1  0  0  0
 26  1  1  0  0  0
  1  2  2  0  0  0
  2  3  1  0  0  0
  3  4  2  0  0  0
  4  8  1  0  0  0
  8  9  1  0  0  0
  9 10  2  0  0  0
  9 12  1  0  0  0
 12 13  1  0  0  0
 13 14  1  0  0  0
 12 15  1  0  0  0
 15 16  2  0  0  0
 15 17  1  0  0  0
 17 19  1  0  0  0
 19 20  2  0  0  0
 20 21  1  0  0  0
 21 22  2  0  0  0
 22 23  1  0  0  0
 22 24  1  0  0  0
 24 25  2  0  0  0
  4  5  1  0  0  0
  5  6  2  0  0  0
  6  7  1  0  0  0
 30 31  1  0  0  0
 31 32  2  0  0  0
 32 33  1  0  0  0
 33 34  2  0  0  0
 34 35  1  0  0  0
 35 36  2  0  0  0
 36 39  1  0  0  0
 39 40  1  0  0  0
 40 41  1  0  0  0
 41 42  1  0  0  0
 42 43  1  0  0  0
 43 44  1  0  0  0
 44 45  1  0  0  0
 45 46  1  0  0  0
 46 47  1  0  0  0
 47 48  1  0  0  0
 36 27  1  0  0  0
 48 43  1  0  0  0
 34 29  1  0  0  0
  6  1  1  0  0  0
 14 12  1  0  0  0
 25 19  1  0  0  0
  8 11  1  0  0  0
 17 18  1  0  0  0
M  END
> <minimizedAffinity>
-8.93897

> <CNNscore>
0.1764133573

> <CNNaffinity>
6.5443596840

> <CNN_VS>
1.1545124054

> <CNNaffinity_variance>
0.2832642198

$$$$
[H]O[C@]1([H])C([H])([H])C([H])([H])[C@@]([H])(n2c([H])c(-c3c([H])c([H])c(S(=O)(=O)N4C([H])([H])C([H])([H])OC([H])([H])C4([H])[H])c(F)c3[H])c3c([H])nc(N([H])C([H])([H])C([H])([H])C([H])([H])C([H])([H])[H])nc32)C([H])([H])C1([H])[H]


 39 43  0  0  0  0  0  0  0  0999 V2000
    3.0561    0.2887   18.6049 C   0  0  0  0  0  0  0  0  0  0  0  0
    2.4950   -0.1435   17.4677 N   0  0  0  0  0  0  0  0  0  0  0  0
    2.5138    0.5547   16.3224 C   0  0  0  0  0  0  0  0  0  0  0  0
    3.1431    1.7812   16.3128 C   0  0  0  0  0  0  0  0  0  0  0  0
    3.3278    2.7148   15.3168 C   0  0  0  0  0  0  0  0  0  0  0  0
    4.0251    3.7381   15.8894 C   0  0  0  0  0  0  0  0  0  0  0  0
    4.2736    3.4675   17.1933 N   0  0  0  0  0  0  0  0  0  0  0  0
    3.7304    2.2479   17.4787 C   0  0  0  0  0  0  0  0  0  0  0  0
    3.6617    1.4863   18.5665 N   0  0  0  0  0  0  0  0  0  0  0  0
    4.9706    4.2683   18.1509 C   0  0  0  0  0  0  0  0  0  0  0  0
    5.8134    5.2709   17.3967 C   0  0  0  0  0  0  0  0  0  0  0  0
    5.3761    6.6515   17.7990 C   0  0  0  0  0  0  0  0  0  0  0  0
    5.6935    6.8046   19.2811 C   0  0  0  0  0  0  0  0  0  0  0  0
    6.9950    6.3189   19.4489 O   0  0  0  0  0  0  0  0  0  0  0  0
    4.7481    5.8920   20.0290 C   0  0  0  0  0  0  0  0  0  0  0  0
    4.0532    4.9116   19.1461 C   0  0  0  0  0  0  0  0  0  0  0  0
    7.2179    6.3106   20.4072 H   0  0  0  0  0  0  0  0  0  0  0  0
    2.8942    2.6751   13.9190 C   0  0  0  0  0  0  0  0  0  0  0  0
    1.7823    1.9596   13.5282 C   0  0  0  0  0  0  0  0  0  0  0  0
    1.3639    1.9152   12.2249 C   0  0  0  0  0  0  0  0  0  0  0  0
    2.0436    2.5991   11.1946 C   0  0  0  0  0  0  0  0  0  0  0  0
    3.1403    3.3032   11.5975 C   0  0  0  0  0  0  0  0  0  0  0  0
    3.8308    4.0339   10.6785 F   0  0  0  0  0  0  0  0  0  0  0  0
    3.5694    3.3490   12.9281 C   0  0  0  0  0  0  0  0  0  0  0  0
    1.4750    2.4465    9.5519 S   0  0  0  0  0  0  0  0  0  0  0  0
   -0.0288    2.2328    9.5338 O   0  0  0  0  0  0  0  0  0  0  0  0
    1.6775    3.7774    8.8127 O   0  0  0  0  0  0  0  0  0  0  0  0
    2.2739    1.2689    8.6544 N   0  0  0  0  0  0  0  0  0  0  0  0
    3.6652    1.1770    8.7827 C   0  0  0  0  0  0  0  0  0  0  0  0
    4.1574    0.2302    7.6684 C   0  0  0  0  0  0  0  0  0  0  0  0
    3.9373    0.7731    6.4261 O   0  0  0  0  0  0  0  0  0  0  0  0
    2.6795    1.2888    6.2306 C   0  0  0  0  0  0  0  0  0  0  0  0
    1.7294    1.0034    7.3578 C   0  0  0  0  0  0  0  0  0  0  0  0
    3.0080   -0.5044   19.8068 N   0  0  0  0  0  0  0  0  0  0  0  0
    3.2066   -1.4973   19.6870 H   0  0  0  0  0  0  0  0  0  0  0  0
    2.7271    0.1619   21.0277 C   0  0  0  0  0  0  0  0  0  0  0  0
    3.8655    0.4151   21.9516 C   0  0  0  0  0  0  0  0  0  0  0  0
    5.8284    1.8982   21.4806 C   0  0  0  0  0  0  0  0  0  0  0  0
    5.1587    0.5992   21.2712 C   0  0  0  0  0  0  0  0  0  0  0  0
 38 39  1  0  0  0
 39 37  1  0  0  0
 37 36  1  0  0  0
 36 34  1  0  0  0
 34  1  1  0  0  0
  1  2  2  0  0  0
  2  3  1  0  0  0
  3  4  2  0  0  0
  4  5  1  0  0  0
  5  6  2  0  0  0
  6  7  1  0  0  0
  7 10  1  0  0  0
 10 11  1  0  0  0
 11 12  1  0  0  0
 12 13  1  0  0  0
 13 14  1  0  0  0
 13 15  1  0  0  0
 15 16  1  0  0  0
  7  8  1  0  0  0
  8  9  2  0  0  0
  5 18  1  0  0  0
 18 19  2  0  0  0
 19 20  1  0  0  0
 20 21  2  0  0  0
 21 22  1  0  0  0
 22 23  1  0  0  0
 22 24  2  0  0  0
 21 25  1  0  0  0
 25 26  2  0  0  0
 25 27  2  0  0  0
 25 28  1  0  0  0
 28 29  1  0  0  0
 29 30  1  0  0  0
 30 31  1  0  0  0
 31 32  1  0  0  0
 32 33  1  0  0  0
  9  1  1  0  0  0
 24 18  1  0  0  0
 33 28  1  0  0  0
  8  4  1  0  0  0
 16 10  1  0  0  0
 34 35  1  0  0  0
 14 17  1  0  0  0
M  END
> <minimizedAffinity>
-7.84170

> <CNNscore>
0.9525184631

> <CNNaffinity>
7.7951612473

> <CNN_VS>
7.4250349998

> <CNNaffinity_variance>
0.0831852928

$$$$
[H]O[C@]1([H])C([H])([H])C([H])([H])[C@@]([H])(n2c([H])c(-c3c([H])c([H])c(S(=O)(=O)N4C([H])([H])C([H])([H])OC([H])([H])C4([H])[H])c(F)c3[H])c3c([H])nc(N([H])C([H])([H])C([H])([H])C([H])([H])C([H])([H])[H])nc32)C([H])([H])C1([H])[H]


 39 43  0  0  0  0  0  0  0  0999 V2000
    3.5919    1.0825   19.1707 C   0  0  0  0  0  0  0  0  0  0  0  0
    3.2601    0.5078   18.0069 N   0  0  0  0  0  0  0  0  0  0  0  0
    3.2161    1.1707   16.8414 C   0  0  0  0  0  0  0  0  0  0  0  0
    3.5285    2.5133   16.8389 C   0  0  0  0  0  0  0  0  0  0  0  0
    3.5739    3.4474   15.8273 C   0  0  0  0  0  0  0  0  0  0  0  0
    3.9469    4.6191   16.4181 C   0  0  0  0  0  0  0  0  0  0  0  0
    4.1311    4.4388   17.7480 N   0  0  0  0  0  0  0  0  0  0  0  0
    3.8746    3.1283   18.0322 C   0  0  0  0  0  0  0  0  0  0  0  0
    3.8911    2.3909   19.1386 N   0  0  0  0  0  0  0  0  0  0  0  0
    4.5218    5.4011   18.7306 C   0  0  0  0  0  0  0  0  0  0  0  0
    3.3312    5.6680   19.6226 C   0  0  0  0  0  0  0  0  0  0  0  0
    3.7085    5.3079   21.0322 C   0  0  0  0  0  0  0  0  0  0  0  0
    4.8214    6.2598   21.4519 C   0  0  0  0  0  0  0  0  0  0  0  0
    4.4061    7.5365   21.0576 O   0  0  0  0  0  0  0  0  0  0  0  0
    6.0440    5.8894   20.6430 C   0  0  0  0  0  0  0  0  0  0  0  0
    5.7408    4.9852   19.4967 C   0  0  0  0  0  0  0  0  0  0  0  0
    5.1313    8.1802   21.2241 H   0  0  0  0  0  0  0  0  0  0  0  0
    3.2947    3.2802   14.3999 C   0  0  0  0  0  0  0  0  0  0  0  0
    3.9865    3.9898   13.4412 C   0  0  0  0  0  0  0  0  0  0  0  0
    3.7376    3.8421   12.1026 C   0  0  0  0  0  0  0  0  0  0  0  0
    2.7558    2.9535   11.6153 C   0  0  0  0  0  0  0  0  0  0  0  0
    2.0814    2.2581   12.5758 C   0  0  0  0  0  0  0  0  0  0  0  0
    1.1484    1.3414   12.1956 F   0  0  0  0  0  0  0  0  0  0  0  0
    2.3339    2.4083   13.9434 C   0  0  0  0  0  0  0  0  0  0  0  0
    2.4649    2.8651    9.8969 S   0  0  0  0  0  0  0  0  0  0  0  0
    3.6284    3.4756    9.1347 O   0  0  0  0  0  0  0  0  0  0  0  0
    2.4513    1.3947    9.4535 O   0  0  0  0  0  0  0  0  0  0  0  0
    0.9969    3.5294    9.4130 N   0  0  0  0  0  0  0  0  0  0  0  0
    0.2848    4.2962   10.3433 C   0  0  0  0  0  0  0  0  0  0  0  0
   -1.1166    4.5398    9.7458 C   0  0  0  0  0  0  0  0  0  0  0  0
   -1.8146    3.3627    9.6278 O   0  0  0  0  0  0  0  0  0  0  0  0
   -1.1166    2.3267    9.0570 C   0  0  0  0  0  0  0  0  0  0  0  0
    0.2232    2.7306    8.5122 C   0  0  0  0  0  0  0  0  0  0  0  0
    3.6254    0.3214   20.3937 N   0  0  0  0  0  0  0  0  0  0  0  0
    3.0037   -0.4861   20.4266 H   0  0  0  0  0  0  0  0  0  0  0  0
    4.5271    0.7379   21.4071 C   0  0  0  0  0  0  0  0  0  0  0  0
    5.9776    0.7491   21.0758 C   0  0  0  0  0  0  0  0  0  0  0  0
    5.9775    2.7409   22.5948 C   0  0  0  0  0  0  0  0  0  0  0  0
    6.7559    1.7460   21.8304 C   0  0  0  0  0  0  0  0  0  0  0  0
 38 39  1  0  0  0
 39 37  1  0  0  0
 37 36  1  0  0  0
 36 34  1  0  0  0
 34  1  1  0  0  0
  1  2  2  0  0  0
  2  3  1  0  0  0
  3  4  2  0  0  0
  4  5  1  0  0  0
  5  6  2  0  0  0
  6  7  1  0  0  0
  7 10  1  0  0  0
 10 11  1  0  0  0
 11 12  1  0  0  0
 12 13  1  0  0  0
 13 14  1  0  0  0
 13 15  1  0  0  0
 15 16  1  0  0  0
  7  8  1  0  0  0
  8  9  2  0  0  0
  5 18  1  0  0  0
 18 19  2  0  0  0
 19 20  1  0  0  0
 20 21  2  0  0  0
 21 22  1  0  0  0
 22 23  1  0  0  0
 22 24  2  0  0  0
 21 25  1  0  0  0
 25 26  2  0  0  0
 25 27  2  0  0  0
 25 28  1  0  0  0
 28 29  1  0  0  0
 29 30  1  0  0  0
 30 31  1  0  0  0
 31 32  1  0  0  0
 32 33  1  0  0  0
  9  1  1  0  0  0
 24 18  1  0  0  0
 33 28  1  0  0  0
  8  4  1  0  0  0
 16 10  1  0  0  0
 34 35  1  0  0  0
 14 17  1  0  0  0
M  END
> <minimizedAffinity>
-8.41893

> <CNNscore>
0.6080759764

> <CNNaffinity>
7.3893494606

> <CNN_VS>
4.4932856560

> <CNNaffinity_variance>
0.3416689336

$$$$
[H]O[C@]1([H])C([H])([H])C([H])([H])[C@@]([H])(n2c([H])c(-c3c([H])c([H])c(S(=O)(=O)N4C([H])([H])C([H])([H])OC([H])([H])C4([H])[H])c(F)c3[H])c3c([H])nc(N([H])C([H])([H])C([H])([H])C([H])([H])C([H])([H])[H])nc32)C([H])([H])C1([H])[H]


 39 43  0  0  0  0  0  0  0  0999 V2000
    3.8209    1.0531   19.2544 C   0  0  0  0  0  0  0  0  0  0  0  0
    3.0885    0.6175   18.2206 N   0  0  0  0  0  0  0  0  0  0  0  0
    2.9375    1.3067   17.0796 C   0  0  0  0  0  0  0  0  0  0  0  0
    3.5683    2.5268   16.9624 C   0  0  0  0  0  0  0  0  0  0  0  0
    3.6060    3.4509   15.9414 C   0  0  0  0  0  0  0  0  0  0  0  0
    4.3916    4.4717   16.3911 C   0  0  0  0  0  0  0  0  0  0  0  0
    4.8347    4.2088   17.6439 N   0  0  0  0  0  0  0  0  0  0  0  0
    4.3313    2.9968   18.0203 C   0  0  0  0  0  0  0  0  0  0  0  0
    4.4237    2.2443   19.1127 N   0  0  0  0  0  0  0  0  0  0  0  0
    5.6770    5.0101   18.4760 C   0  0  0  0  0  0  0  0  0  0  0  0
    6.4191    5.9840   17.5900 C   0  0  0  0  0  0  0  0  0  0  0  0
    6.0688    7.3790   18.0263 C   0  0  0  0  0  0  0  0  0  0  0  0
    6.6004    7.5485   19.4439 C   0  0  0  0  0  0  0  0  0  0  0  0
    7.9038    7.0396   19.4305 O   0  0  0  0  0  0  0  0  0  0  0  0
    5.7576    6.6664   20.3370 C   0  0  0  0  0  0  0  0  0  0  0  0
    4.9249    5.6866   19.5817 C   0  0  0  0  0  0  0  0  0  0  0  0
    8.2631    7.0415   20.3464 H   0  0  0  0  0  0  0  0  0  0  0  0
    2.9631    3.4046   14.6269 C   0  0  0  0  0  0  0  0  0  0  0  0
    2.0560    4.3655   14.2330 C   0  0  0  0  0  0  0  0  0  0  0  0
    1.4485    4.3361   13.0059 C   0  0  0  0  0  0  0  0  0  0  0  0
    1.7106    3.3199   12.0627 C   0  0  0  0  0  0  0  0  0  0  0  0
    2.6108    2.3780   12.4668 C   0  0  0  0  0  0  0  0  0  0  0  0
    2.9616    1.3853   11.6026 F   0  0  0  0  0  0  0  0  0  0  0  0
    3.2316    2.4061   13.7200 C   0  0  0  0  0  0  0  0  0  0  0  0
    0.8534    3.3272   10.5427 S   0  0  0  0  0  0  0  0  0  0  0  0
    0.1765    1.9867   10.3143 O   0  0  0  0  0  0  0  0  0  0  0  0
   -0.3072    4.3307   10.6126 O   0  0  0  0  0  0  0  0  0  0  0  0
    1.7976    3.7717    9.2231 N   0  0  0  0  0  0  0  0  0  0  0  0
    1.6562    5.0718    8.7226 C   0  0  0  0  0  0  0  0  0  0  0  0
    2.4097    5.1196    7.3772 C   0  0  0  0  0  0  0  0  0  0  0  0
    1.8146    4.3010    6.4485 O   0  0  0  0  0  0  0  0  0  0  0  0
    1.5115    3.0380    6.8950 C   0  0  0  0  0  0  0  0  0  0  0  0
    2.0480    2.7383    8.2651 C   0  0  0  0  0  0  0  0  0  0  0  0
    3.9510    0.2697   20.4567 N   0  0  0  0  0  0  0  0  0  0  0  0
    4.5524   -0.5504   20.3846 H   0  0  0  0  0  0  0  0  0  0  0  0
    3.2699    0.7214   21.6168 C   0  0  0  0  0  0  0  0  0  0  0  0
    4.0640    1.4539   22.6398 C   0  0  0  0  0  0  0  0  0  0  0  0
    6.0334    2.9439   22.2202 C   0  0  0  0  0  0  0  0  0  0  0  0
    5.4955    1.5721   22.3142 C   0  0  0  0  0  0  0  0  0  0  0  0
 38 39  1  0  0  0
 39 37  1  0  0  0
 37 36  1  0  0  0
 36 34  1  0  0  0
 34  1  1  0  0  0
  1  2  2  0  0  0
  2  3  1  0  0  0
  3  4  2  0  0  0
  4  5  1  0  0  0
  5  6  2  0  0  0
  6  7  1  0  0  0
  7 10  1  0  0  0
 10 11  1  0  0  0
 11 12  1  0  0  0
 12 13  1  0  0  0
 13 14  1  0  0  0
 13 15  1  0  0  0
 15 16  1  0  0  0
  7  8  1  0  0  0
  8  9  2  0  0  0
  5 18  1  0  0  0
 18 19  2  0  0  0
 19 20  1  0  0  0
 20 21  2  0  0  0
 21 22  1  0  0  0
 22 23  1  0  0  0
 22 24  2  0  0  0
 21 25  1  0  0  0
 25 26  2  0  0  0
 25 27  2  0  0  0
 25 28  1  0  0  0
 28 29  1  0  0  0
 29 30  1  0  0  0
 30 31  1  0  0  0
 31 32  1  0  0  0
 32 33  1  0  0  0
  9  1  1  0  0  0
 24 18  1  0  0  0
 33 28  1  0  0  0
  8  4  1  0  0  0
 16 10  1  0  0  0
 34 35  1  0  0  0
 14 17  1  0  0  0
M  END
> <minimizedAffinity>
-7.22425

> <CNNscore>
0.5726256371

> <CNNaffinity>
7.3482589722

> <CNN_VS>
4.2078013420

> <CNNaffinity_variance>
0.3196197152

$$$$
[H]O[C@]1([H])C([H])([H])C([H])([H])[C@@]([H])(n2c([H])c(-c3c([H])c([H])c(S(=O)(=O)N4C([H])([H])C([H])([H])OC([H])([H])C4([H])[H])c(F)c3[H])c3c([H])nc(N([H])C([H])([H])C([H])([H])C([H])([H])C([H])([H])[H])nc32)C([H])([H])C1([H])[H]


 39 43  0  0  0  0  0  0  0  0999 V2000
    4.1876    1.4960   19.3844 C   0  0  0  0  0  0  0  0  0  0  0  0
    3.8211    0.7721   18.3183 N   0  0  0  0  0  0  0  0  0  0  0  0
    3.5701    1.3058   17.1135 C   0  0  0  0  0  0  0  0  0  0  0  0
    3.6953    2.6703   16.9621 C   0  0  0  0  0  0  0  0  0  0  0  0
    3.5110    3.4981   15.8765 C   0  0  0  0  0  0  0  0  0  0  0  0
    3.7791    4.7601   16.3201 C   0  0  0  0  0  0  0  0  0  0  0  0
    4.1195    4.7366   17.6310 N   0  0  0  0  0  0  0  0  0  0  0  0
    4.0734    3.4387   18.0523 C   0  0  0  0  0  0  0  0  0  0  0  0
    4.3016    2.8221   19.2080 N   0  0  0  0  0  0  0  0  0  0  0  0
    4.4730    5.8327   18.4782 C   0  0  0  0  0  0  0  0  0  0  0  0
    3.4418    5.9238   19.5793 C   0  0  0  0  0  0  0  0  0  0  0  0
    4.1446    5.7601   20.8978 C   0  0  0  0  0  0  0  0  0  0  0  0
    5.0874    6.9470   21.0498 C   0  0  0  0  0  0  0  0  0  0  0  0
    4.3429    8.0784   20.6981 O   0  0  0  0  0  0  0  0  0  0  0  0
    6.1869    6.7680   20.0276 C   0  0  0  0  0  0  0  0  0  0  0  0
    5.8742    5.7332   19.0004 C   0  0  0  0  0  0  0  0  0  0  0  0
    4.9321    8.8663   20.6915 H   0  0  0  0  0  0  0  0  0  0  0  0
    3.1144    3.1570   14.5091 C   0  0  0  0  0  0  0  0  0  0  0  0
    2.1556    2.1998   14.2532 C   0  0  0  0  0  0  0  0  0  0  0  0
    1.7732    1.8719   12.9796 C   0  0  0  0  0  0  0  0  0  0  0  0
    2.3356    2.4925   11.8439 C   0  0  0  0  0  0  0  0  0  0  0  0
    3.2812    3.4379   12.1138 C   0  0  0  0  0  0  0  0  0  0  0  0
    3.8440    4.1235   11.0801 F   0  0  0  0  0  0  0  0  0  0  0  0
    3.6734    3.7733   13.4139 C   0  0  0  0  0  0  0  0  0  0  0  0
    1.8304    1.9781   10.2548 S   0  0  0  0  0  0  0  0  0  0  0  0
    0.6059    1.0848   10.3559 O   0  0  0  0  0  0  0  0  0  0  0  0
    1.3468    3.1942    9.4511 O   0  0  0  0  0  0  0  0  0  0  0  0
    3.0474    1.2524    9.3478 N   0  0  0  0  0  0  0  0  0  0  0  0
    3.7619    0.1991    9.9314 C   0  0  0  0  0  0  0  0  0  0  0  0
    4.9702   -0.0860    9.0153 C   0  0  0  0  0  0  0  0  0  0  0  0
    5.8366    0.9796    8.9948 O   0  0  0  0  0  0  0  0  0  0  0  0
    5.2470    2.2058    8.8066 C   0  0  0  0  0  0  0  0  0  0  0  0
    3.7822    2.1272    8.4858 C   0  0  0  0  0  0  0  0  0  0  0  0
    4.4475    0.8697   20.6556 N   0  0  0  0  0  0  0  0  0  0  0  0
    3.6223    0.5943   21.1873 H   0  0  0  0  0  0  0  0  0  0  0  0
    5.8017    0.6676   21.0285 C   0  0  0  0  0  0  0  0  0  0  0  0
    6.4724    1.7494   21.7990 C   0  0  0  0  0  0  0  0  0  0  0  0
    5.4157    2.1786   24.0291 C   0  0  0  0  0  0  0  0  0  0  0  0
    5.5526    2.5645   22.6105 C   0  0  0  0  0  0  0  0  0  0  0  0
 38 39  1  0  0  0
 39 37  1  0  0  0
 37 36  1  0  0  0
 36 34  1  0  0  0
 34  1  1  0  0  0
  1  2  2  0  0  0
  2  3  1  0  0  0
  3  4  2  0  0  0
  4  5  1  0  0  0
  5  6  2  0  0  0
  6  7  1  0  0  0
  7 10  1  0  0  0
 10 11  1  0  0  0
 11 12  1  0  0  0
 12 13  1  0  0  0
 13 14  1  0  0  0
 13 15  1  0  0  0
 15 16  1  0  0  0
  7  8  1  0  0  0
  8  9  2  0  0  0
  5 18  1  0  0  0
 18 19  2  0  0  0
 19 20  1  0  0  0
 20 21  2  0  0  0
 21 22  1  0  0  0
 22 23  1  0  0  0
 22 24  2  0  0  0
 21 25  1  0  0  0
 25 26  2  0  0  0
 25 27  2  0  0  0
 25 28  1  0  0  0
 28 29  1  0  0  0
 29 30  1  0  0  0
 30 31  1  0  0  0
 31 32  1  0  0  0
 32 33  1  0  0  0
  9  1  1  0  0  0
 24 18  1  0  0  0
 33 28  1  0  0  0
  8  4  1  0  0  0
 16 10  1  0  0  0
 34 35  1  0  0  0
 14 17  1  0  0  0
M  END
> <minimizedAffinity>
-8.64193

> <CNNscore>
0.3863556385

> <CNNaffinity>
7.2835121155

> <CNN_VS>
2.8140258789

> <CNNaffinity_variance>
0.3870375752

$$$$
[H]O[C@]1([H])C([H])([H])C([H])([H])[C@@]([H])(n2c([H])c(-c3c([H])c([H])c(S(=O)(=O)N4C([H])([H])C([H])([H])OC([H])([H])C4([H])[H])c(F)c3[H])c3c([H])nc(N([H])C([H])([H])C([H])([H])C([H])([H])C([H])([H])[H])nc32)C([H])([H])C1([H])[H]


 39 43  0  0  0  0  0  0  0  0999 V2000
    1.2538    2.4321   12.3513 C   0  0  0  0  0  0  0  0  0  0  0  0
    1.2919    1.5658   13.3725 N   0  0  0  0  0  0  0  0  0  0  0  0
    1.9914    1.7794   14.4971 C   0  0  0  0  0  0  0  0  0  0  0  0
    2.7091    2.9509   14.6100 C   0  0  0  0  0  0  0  0  0  0  0  0
    3.5077    3.4495   15.6156 C   0  0  0  0  0  0  0  0  0  0  0  0
    3.9586    4.6575   15.1695 C   0  0  0  0  0  0  0  0  0  0  0  0
    3.4681    4.9165   13.9337 N   0  0  0  0  0  0  0  0  0  0  0  0
    2.6838    3.8616   13.5649 C   0  0  0  0  0  0  0  0  0  0  0  0
    1.9620    3.5644   12.4885 N   0  0  0  0  0  0  0  0  0  0  0  0
    3.6911    6.0641   13.1107 C   0  0  0  0  0  0  0  0  0  0  0  0
    4.4499    5.6178   11.8821 C   0  0  0  0  0  0  0  0  0  0  0  0
    3.6207    5.9443   10.6718 C   0  0  0  0  0  0  0  0  0  0  0  0
    3.4987    7.4616   10.6121 C   0  0  0  0  0  0  0  0  0  0  0  0
    4.7870    7.9612   10.8328 O   0  0  0  0  0  0  0  0  0  0  0  0
    2.6248    7.8776   11.7738 C   0  0  0  0  0  0  0  0  0  0  0  0
    2.4251    6.7943   12.7789 C   0  0  0  0  0  0  0  0  0  0  0  0
    4.7491    8.9423   10.8950 H   0  0  0  0  0  0  0  0  0  0  0  0
    3.8398    2.8582   16.9131 C   0  0  0  0  0  0  0  0  0  0  0  0
    4.6798    3.4943   17.8024 C   0  0  0  0  0  0  0  0  0  0  0  0
    4.9975    2.9541   19.0202 C   0  0  0  0  0  0  0  0  0  0  0  0
    4.4861    1.7098   19.4458 C   0  0  0  0  0  0  0  0  0  0  0  0
    3.6559    1.0940   18.5556 C   0  0  0  0  0  0  0  0  0  0  0  0
    3.0768   -0.0893   18.9016 F   0  0  0  0  0  0  0  0  0  0  0  0
    3.3310    1.6440   17.3112 C   0  0  0  0  0  0  0  0  0  0  0  0
    4.9836    1.0681   20.9904 S   0  0  0  0  0  0  0  0  0  0  0  0
    4.2102   -0.2006   21.3065 O   0  0  0  0  0  0  0  0  0  0  0  0
    6.4470    0.6093   20.9085 O   0  0  0  0  0  0  0  0  0  0  0  0
    4.8940    2.1737   22.2553 N   0  0  0  0  0  0  0  0  0  0  0  0
    3.6541    2.7670   22.5222 C   0  0  0  0  0  0  0  0  0  0  0  0
    3.9113    3.9165   23.5186 C   0  0  0  0  0  0  0  0  0  0  0  0
    4.6762    4.9037   22.9468 O   0  0  0  0  0  0  0  0  0  0  0  0
    5.7904    4.4620   22.2761 C   0  0  0  0  0  0  0  0  0  0  0  0
    6.0521    2.9930   22.4445 C   0  0  0  0  0  0  0  0  0  0  0  0
    0.4829    2.1524   11.1665 N   0  0  0  0  0  0  0  0  0  0  0  0
   -0.4164    2.6287   11.1042 H   0  0  0  0  0  0  0  0  0  0  0  0
    1.0499    1.2830   10.1989 C   0  0  0  0  0  0  0  0  0  0  0  0
    1.9621    1.8807    9.1868 C   0  0  0  0  0  0  0  0  0  0  0  0
    3.7032    0.1978    9.8278 C   0  0  0  0  0  0  0  0  0  0  0  0
    3.3858    1.5785    9.4120 C   0  0  0  0  0  0  0  0  0  0  0  0
 38 39  1  0  0  0
 39 37  1  0  0  0
 37 36  1  0  0  0
 36 34  1  0  0  0
 34  1  1  0  0  0
  1  2  2  0  0  0
  2  3  1  0  0  0
  3  4  2  0  0  0
  4  5  1  0  0  0
  5  6  2  0  0  0
  6  7  1  0  0  0
  7 10  1  0  0  0
 10 11  1  0  0  0
 11 12  1  0  0  0
 12 13  1  0  0  0
 13 14  1  0  0  0
 13 15  1  0  0  0
 15 16  1  0  0  0
  7  8  1  0  0  0
  8  9  2  0  0  0
  5 18  1  0  0  0
 18 19  2  0  0  0
 19 20  1  0  0  0
 20 21  2  0  0  0
 21 22  1  0  0  0
 22 23  1  0  0  0
 22 24  2  0  0  0
 21 25  1  0  0  0
 25 26  2  0  0  0
 25 27  2  0  0  0
 25 28  1  0  0  0
 28 29  1  0  0  0
 29 30  1  0  0  0
 30 31  1  0  0  0
 31 32  1  0  0  0
 32 33  1  0  0  0
  9  1  1  0  0  0
 24 18  1  0  0  0
 33 28  1  0  0  0
  8  4  1  0  0  0
 16 10  1  0  0  0
 34 35  1  0  0  0
 14 17  1  0  0  0
M  END
> <minimizedAffinity>
-8.33477

> <CNNscore>
0.3778188527

> <CNNaffinity>
7.0504584312

> <CNN_VS>
2.6637961864

> <CNNaffinity_variance>
0.1075452715

$$$$
[H]O[C@]1([H])C([H])([H])C([H])([H])[C@@]([H])(n2c([H])c(-c3c([H])c([H])c(S(=O)(=O)N4C([H])([H])C([H])([H])OC([H])([H])C4([H])[H])c(F)c3[H])c3c([H])nc(N([H])C([H])([H])C([H])([H])C([H])([H])C([H])([H])[H])nc32)C([H])([H])C1([H])[H]


 39 43  0  0  0  0  0  0  0  0999 V2000
    4.4705    1.9521   20.0909 C   0  0  0  0  0  0  0  0  0  0  0  0
    4.3184    1.2105   18.9856 N   0  0  0  0  0  0  0  0  0  0  0  0
    3.9762    1.7222   17.7936 C   0  0  0  0  0  0  0  0  0  0  0  0
    3.7699    3.0819   17.6989 C   0  0  0  0  0  0  0  0  0  0  0  0
    3.4179    3.8893   16.6397 C   0  0  0  0  0  0  0  0  0  0  0  0
    3.3599    5.1571   17.1403 C   0  0  0  0  0  0  0  0  0  0  0  0
    3.6619    5.1567   18.4608 N   0  0  0  0  0  0  0  0  0  0  0  0
    3.9218    3.8683   18.8305 C   0  0  0  0  0  0  0  0  0  0  0  0
    4.2632    3.2731   19.9694 N   0  0  0  0  0  0  0  0  0  0  0  0
    3.7166    6.2659   19.3613 C   0  0  0  0  0  0  0  0  0  0  0  0
    4.8546    6.0281   20.3271 C   0  0  0  0  0  0  0  0  0  0  0  0
    5.8334    7.1604   20.1899 C   0  0  0  0  0  0  0  0  0  0  0  0
    5.1121    8.4279   20.6305 C   0  0  0  0  0  0  0  0  0  0  0  0
    4.4567    8.1037   21.8236 O   0  0  0  0  0  0  0  0  0  0  0  0
    4.0648    8.7242   19.5811 C   0  0  0  0  0  0  0  0  0  0  0  0
    3.8203    7.5826   18.6533 C   0  0  0  0  0  0  0  0  0  0  0  0
    3.8992    8.8639   22.1052 H   0  0  0  0  0  0  0  0  0  0  0  0
    3.1514    3.5253   15.2469 C   0  0  0  0  0  0  0  0  0  0  0  0
    3.8643    4.0820   14.2063 C   0  0  0  0  0  0  0  0  0  0  0  0
    3.6273    3.7495   12.8990 C   0  0  0  0  0  0  0  0  0  0  0  0
    2.6370    2.8144   12.5300 C   0  0  0  0  0  0  0  0  0  0  0  0
    1.9417    2.2718   13.5707 C   0  0  0  0  0  0  0  0  0  0  0  0
    0.9987    1.3236   13.3123 F   0  0  0  0  0  0  0  0  0  0  0  0
    2.1820    2.6109   14.9063 C   0  0  0  0  0  0  0  0  0  0  0  0
    2.3632    2.4873   10.8379 S   0  0  0  0  0  0  0  0  0  0  0  0
    3.2568    3.3673    9.9809 O   0  0  0  0  0  0  0  0  0  0  0  0
    2.8156    1.0563   10.5119 O   0  0  0  0  0  0  0  0  0  0  0  0
    0.7522    2.6038   10.3671 N   0  0  0  0  0  0  0  0  0  0  0  0
    0.3816    2.0272    9.1461 C   0  0  0  0  0  0  0  0  0  0  0  0
   -1.0497    2.5127    8.8361 C   0  0  0  0  0  0  0  0  0  0  0  0
   -1.0760    3.8697    8.6254 O   0  0  0  0  0  0  0  0  0  0  0  0
   -0.4035    4.6174    9.5609 C   0  0  0  0  0  0  0  0  0  0  0  0
    0.0867    3.8168   10.7330 C   0  0  0  0  0  0  0  0  0  0  0  0
    4.8421    1.3498   21.3459 N   0  0  0  0  0  0  0  0  0  0  0  0
    4.2332    0.5994   21.6711 H   0  0  0  0  0  0  0  0  0  0  0  0
    6.0168    1.8245   21.9848 C   0  0  0  0  0  0  0  0  0  0  0  0
    5.8670    2.9337   22.9652 C   0  0  0  0  0  0  0  0  0  0  0  0
    3.6910    4.0256   23.5540 C   0  0  0  0  0  0  0  0  0  0  0  0
    4.6125    2.8863   23.7351 C   0  0  0  0  0  0  0  0  0  0  0  0
 38 39  1  0  0  0
 39 37  1  0  0  0
 37 36  1  0  0  0
 36 34  1  0  0  0
 34  1  1  0  0  0
  1  2  2  0  0  0
  2  3  1  0  0  0
  3  4  2  0  0  0
  4  5  1  0  0  0
  5  6  2  0  0  0
  6  7  1  0  0  0
  7 10  1  0  0  0
 10 11  1  0  0  0
 11 12  1  0  0  0
 12 13  1  0  0  0
 13 14  1  0  0  0
 13 15  1  0  0  0
 15 16  1  0  0  0
  7  8  1  0  0  0
  8  9  2  0  0  0
  5 18  1  0  0  0
 18 19  2  0  0  0
 19 20  1  0  0  0
 20 21  2  0  0  0
 21 22  1  0  0  0
 22 23  1  0  0  0
 22 24  2  0  0  0
 21 25  1  0  0  0
 25 26  2  0  0  0
 25 27  2  0  0  0
 25 28  1  0  0  0
 28 29  1  0  0  0
 29 30  1  0  0  0
 30 31  1  0  0  0
 31 32  1  0  0  0
 32 33  1  0  0  0
  9  1  1  0  0  0
 24 18  1  0  0  0
 33 28  1  0  0  0
  8  4  1  0  0  0
 16 10  1  0  0  0
 34 35  1  0  0  0
 14 17  1  0  0  0
M  END
> <minimizedAffinity>
-9.10895

> <CNNscore>
0.2676687539

> <CNNaffinity>
7.0370879173

> <CNN_VS>
1.8836085796

> <CNNaffinity_variance>
0.2823254168

$$$$
[H]O[C@]1([H])C([H])([H])C([H])([H])[C@@]([H])(n2c([H])c(-c3c([H])c([H])c(S(=O)(=O)N4C([H])([H])C([H])([H])OC([H])([H])C4([H])[H])c(F)c3[H])c3c([H])nc(N([H])C([H])([H])C([H])([H])C([H])([H])C([H])([H])[H])nc32)C([H])([H])C1([H])[H]


 39 43  0  0  0  0  0  0  0  0999 V2000
    4.3811    1.8701   19.9750 C   0  0  0  0  0  0  0  0  0  0  0  0
    4.2340    1.1496   18.8552 N   0  0  0  0  0  0  0  0  0  0  0  0
    3.9182    1.6866   17.6671 C   0  0  0  0  0  0  0  0  0  0  0  0
    3.7352    3.0509   17.5924 C   0  0  0  0  0  0  0  0  0  0  0  0
    3.4123    3.8816   16.5419 C   0  0  0  0  0  0  0  0  0  0  0  0
    3.3669    5.1415   17.0631 C   0  0  0  0  0  0  0  0  0  0  0  0
    3.6488    5.1141   18.3877 N   0  0  0  0  0  0  0  0  0  0  0  0
    3.8824    3.8157   18.7393 C   0  0  0  0  0  0  0  0  0  0  0  0
    4.1969    3.1960   19.8729 N   0  0  0  0  0  0  0  0  0  0  0  0
    3.7076    6.2071   19.3076 C   0  0  0  0  0  0  0  0  0  0  0  0
    4.8629    5.9624   20.2508 C   0  0  0  0  0  0  0  0  0  0  0  0
    5.8289    7.1064   20.1193 C   0  0  0  0  0  0  0  0  0  0  0  0
    5.1031    8.3586   20.5945 C   0  0  0  0  0  0  0  0  0  0  0  0
    4.4697    8.0064   21.7915 O   0  0  0  0  0  0  0  0  0  0  0  0
    4.0365    8.6642   19.5673 C   0  0  0  0  0  0  0  0  0  0  0  0
    3.7878    7.5376   18.6226 C   0  0  0  0  0  0  0  0  0  0  0  0
    3.9098    8.7559   22.0959 H   0  0  0  0  0  0  0  0  0  0  0  0
    3.1611    3.5452   15.1393 C   0  0  0  0  0  0  0  0  0  0  0  0
    3.8886    4.1189   14.1181 C   0  0  0  0  0  0  0  0  0  0  0  0
    3.6661    3.8124   12.8020 C   0  0  0  0  0  0  0  0  0  0  0  0
    2.6768    2.8885   12.4033 C   0  0  0  0  0  0  0  0  0  0  0  0
    1.9671    2.3288   13.4250 C   0  0  0  0  0  0  0  0  0  0  0  0
    1.0237    1.3893   13.1374 F   0  0  0  0  0  0  0  0  0  0  0  0
    2.1926    2.6414   14.7697 C   0  0  0  0  0  0  0  0  0  0  0  0
    2.4221    2.5948   10.7021 S   0  0  0  0  0  0  0  0  0  0  0  0
    2.4416    1.1028   10.4175 O   0  0  0  0  0  0  0  0  0  0  0  0
    1.0040    3.0365   10.3116 O   0  0  0  0  0  0  0  0  0  0  0  0
    3.4820    3.4265    9.6946 N   0  0  0  0  0  0  0  0  0  0  0  0
    2.9356    4.2704    8.7200 C   0  0  0  0  0  0  0  0  0  0  0  0
    4.0893    4.6767    7.7796 C   0  0  0  0  0  0  0  0  0  0  0  0
    4.5745    3.5894    7.0949 O   0  0  0  0  0  0  0  0  0  0  0  0
    4.8221    2.4794    7.8650 C   0  0  0  0  0  0  0  0  0  0  0  0
    4.6776    2.7246    9.3394 C   0  0  0  0  0  0  0  0  0  0  0  0
    4.7239    1.2409   21.2251 N   0  0  0  0  0  0  0  0  0  0  0  0
    5.6258    0.7660   21.2459 H   0  0  0  0  0  0  0  0  0  0  0  0
    3.8075    1.3660   22.3013 C   0  0  0  0  0  0  0  0  0  0  0  0
    4.3424    1.8271   23.6109 C   0  0  0  0  0  0  0  0  0  0  0  0
    3.5367    4.1827   23.3341 C   0  0  0  0  0  0  0  0  0  0  0  0
    4.6485    3.2669   23.6586 C   0  0  0  0  0  0  0  0  0  0  0  0
 38 39  1  0  0  0
 39 37  1  0  0  0
 37 36  1  0  0  0
 36 34  1  0  0  0
 34  1  1  0  0  0
  1  2  2  0  0  0
  2  3  1  0  0  0
  3  4  2  0  0  0
  4  5  1  0  0  0
  5  6  2  0  0  0
  6  7  1  0  0  0
  7 10  1  0  0  0
 10 11  1  0  0  0
 11 12  1  0  0  0
 12 13  1  0  0  0
 13 14  1  0  0  0
 13 15  1  0  0  0
 15 16  1  0  0  0
  7  8  1  0  0  0
  8  9  2  0  0  0
  5 18  1  0  0  0
 18 19  2  0  0  0
 19 20  1  0  0  0
 20 21  2  0  0  0
 21 22  1  0  0  0
 22 23  1  0  0  0
 22 24  2  0  0  0
 21 25  1  0  0  0
 25 26  2  0  0  0
 25 27  2  0  0  0
 25 28  1  0  0  0
 28 29  1  0  0  0
 29 30  1  0  0  0
 30 31  1  0  0  0
 31 32  1  0  0  0
 32 33  1  0  0  0
  9  1  1  0  0  0
 24 18  1  0  0  0
 33 28  1  0  0  0
  8  4  1  0  0  0
 16 10  1  0  0  0
 34 35  1  0  0  0
 14 17  1  0  0  0
M  END
> <minimizedAffinity>
-8.85901

> <CNNscore>
0.2450130284

> <CNNaffinity>
6.9640645981

> <CNN_VS>
1.7062865496

> <CNNaffinity_variance>
0.3477503657

$$$$
[H]O[C@]1([H])C([H])([H])C([H])([H])[C@@]([H])(n2c([H])c(-c3c([H])c([H])c(S(=O)(=O)N4C([H])([H])C([H])([H])OC([H])([H])C4([H])[H])c(F)c3[H])c3c([H])nc(N([H])C([H])([H])C([H])([H])C([H])([H])C([H])([H])[H])nc32)C([H])([H])C1([H])[H]


 39 43  0  0  0  0  0  0  0  0999 V2000
    3.1799    1.5303   16.5712 C   0  0  0  0  0  0  0  0  0  0  0  0
    2.5576    1.3336   15.4012 N   0  0  0  0  0  0  0  0  0  0  0  0
    2.1402    2.3325   14.6090 C   0  0  0  0  0  0  0  0  0  0  0  0
    2.3624    3.6300   15.0182 C   0  0  0  0  0  0  0  0  0  0  0  0
    2.0599    4.8435   14.4405 C   0  0  0  0  0  0  0  0  0  0  0  0
    2.5218    5.7932   15.3042 C   0  0  0  0  0  0  0  0  0  0  0  0
    3.0937    5.2097   16.3846 N   0  0  0  0  0  0  0  0  0  0  0  0
    3.0048    3.8566   16.2258 C   0  0  0  0  0  0  0  0  0  0  0  0
    3.3829    2.8038   16.9446 N   0  0  0  0  0  0  0  0  0  0  0  0
    3.6979    5.8364   17.5187 C   0  0  0  0  0  0  0  0  0  0  0  0
    2.8712    5.4950   18.7370 C   0  0  0  0  0  0  0  0  0  0  0  0
    3.7514    4.7687   19.7152 C   0  0  0  0  0  0  0  0  0  0  0  0
    4.8335    5.7479   20.1522 C   0  0  0  0  0  0  0  0  0  0  0  0
    4.1744    6.9486   20.4384 O   0  0  0  0  0  0  0  0  0  0  0  0
    5.7299    5.9740   18.9558 C   0  0  0  0  0  0  0  0  0  0  0  0
    5.1440    5.4769   17.6778 C   0  0  0  0  0  0  0  0  0  0  0  0
    4.8398    7.6449   20.6393 H   0  0  0  0  0  0  0  0  0  0  0  0
    1.3884    5.1219   13.1696 C   0  0  0  0  0  0  0  0  0  0  0  0
    0.2882    4.3983   12.7610 C   0  0  0  0  0  0  0  0  0  0  0  0
   -0.3511    4.6489   11.5760 C   0  0  0  0  0  0  0  0  0  0  0  0
    0.0742    5.6650   10.6940 C   0  0  0  0  0  0  0  0  0  0  0  0
    1.1626    6.3724   11.1131 C   0  0  0  0  0  0  0  0  0  0  0  0
    1.6144    7.4048   10.3481 F   0  0  0  0  0  0  0  0  0  0  0  0
    1.8171    6.1172   12.3227 C   0  0  0  0  0  0  0  0  0  0  0  0
   -0.7641    5.8832    9.1790 S   0  0  0  0  0  0  0  0  0  0  0  0
   -2.2666    5.8460    9.3994 O   0  0  0  0  0  0  0  0  0  0  0  0
   -0.4947    7.2967    8.6422 O   0  0  0  0  0  0  0  0  0  0  0  0
   -0.2932    4.8100    7.9720 N   0  0  0  0  0  0  0  0  0  0  0  0
    1.0669    4.7444    7.6457 C   0  0  0  0  0  0  0  0  0  0  0  0
    1.1787    3.9118    6.3516 C   0  0  0  0  0  0  0  0  0  0  0  0
    0.5779    4.5549    5.2972 O   0  0  0  0  0  0  0  0  0  0  0  0
   -0.6759    5.0520    5.5564 C   0  0  0  0  0  0  0  0  0  0  0  0
   -1.2209    4.6442    6.8949 C   0  0  0  0  0  0  0  0  0  0  0  0
    3.6094    0.4192   17.3817 N   0  0  0  0  0  0  0  0  0  0  0  0
    4.3972   -0.1143   17.0150 H   0  0  0  0  0  0  0  0  0  0  0  0
    2.9314    0.1943   18.6078 C   0  0  0  0  0  0  0  0  0  0  0  0
    3.5603    0.7212   19.8490 C   0  0  0  0  0  0  0  0  0  0  0  0
    3.4211    0.8602   22.3461 C   0  0  0  0  0  0  0  0  0  0  0  0
    2.8472    0.3529   21.0838 C   0  0  0  0  0  0  0  0  0  0  0  0
 38 39  1  0  0  0
 39 37  1  0  0  0
 37 36  1  0  0  0
 36 34  1  0  0  0
 34  1  1  0  0  0
  1  2  2  0  0  0
  2  3  1  0  0  0
  3  4  2  0  0  0
  4  5  1  0  0  0
  5  6  2  0  0  0
  6  7  1  0  0  0
  7 10  1  0  0  0
 10 11  1  0  0  0
 11 12  1  0  0  0
 12 13  1  0  0  0
 13 14  1  0  0  0
 13 15  1  0  0  0
 15 16  1  0  0  0
  7  8  1  0  0  0
  8  9  2  0  0  0
  5 18  1  0  0  0
 18 19  2  0  0  0
 19 20  1  0  0  0
 20 21  2  0  0  0
 21 22  1  0  0  0
 22 23  1  0  0  0
 22 24  2  0  0  0
 21 25  1  0  0  0
 25 26  2  0  0  0
 25 27  2  0  0  0
 25 28  1  0  0  0
 28 29  1  0  0  0
 29 30  1  0  0  0
 30 31  1  0  0  0
 31 32  1  0  0  0
 32 33  1  0  0  0
  9  1  1  0  0  0
 24 18  1  0  0  0
 33 28  1  0  0  0
  8  4  1  0  0  0
 16 10  1  0  0  0
 34 35  1  0  0  0
 14 17  1  0  0  0
M  END
> <minimizedAffinity>
-7.04597

> <CNNscore>
0.2254103720

> <CNNaffinity>
6.6253881454

> <CNN_VS>
1.4934312105

> <CNNaffinity_variance>
0.0823205709

$$$$
[H]O[C@]1([H])C([H])([H])C([H])([H])[C@@]([H])(n2c([H])c(-c3c([H])c([H])c(S(=O)(=O)N4C([H])([H])C([H])([H])OC([H])([H])C4([H])[H])c(F)c3[H])c3c([H])nc(N([H])C([H])([H])C([H])([H])C([H])([H])C([H])([H])[H])nc32)C([H])([H])C1([H])[H]


 39 43  0  0  0  0  0  0  0  0999 V2000
    4.5010    1.9047   20.1047 C   0  0  0  0  0  0  0  0  0  0  0  0
    4.3545    1.1596   19.0010 N   0  0  0  0  0  0  0  0  0  0  0  0
    4.0110    1.6665   17.8073 C   0  0  0  0  0  0  0  0  0  0  0  0
    3.7973    3.0248   17.7090 C   0  0  0  0  0  0  0  0  0  0  0  0
    3.4423    3.8277   16.6474 C   0  0  0  0  0  0  0  0  0  0  0  0
    3.3765    5.0963   17.1450 C   0  0  0  0  0  0  0  0  0  0  0  0
    3.6768    5.1007   18.4658 N   0  0  0  0  0  0  0  0  0  0  0  0
    3.9433    3.8148   18.8389 C   0  0  0  0  0  0  0  0  0  0  0  0
    4.2865    3.2241   19.9797 N   0  0  0  0  0  0  0  0  0  0  0  0
    3.7241    6.2124   19.3637 C   0  0  0  0  0  0  0  0  0  0  0  0
    4.8853    6.0014   20.3079 C   0  0  0  0  0  0  0  0  0  0  0  0
    5.8361    7.1548   20.1506 C   0  0  0  0  0  0  0  0  0  0  0  0
    5.0956    8.4068   20.6033 C   0  0  0  0  0  0  0  0  0  0  0  0
    4.4703    8.0703   21.8091 O   0  0  0  0  0  0  0  0  0  0  0  0
    4.0221    8.6782   19.5737 C   0  0  0  0  0  0  0  0  0  0  0  0
    3.7852    7.5299   18.6523 C   0  0  0  0  0  0  0  0  0  0  0  0
    3.9017    8.8184   22.1004 H   0  0  0  0  0  0  0  0  0  0  0  0
    3.1796    3.4588   15.2552 C   0  0  0  0  0  0  0  0  0  0  0  0
    2.2504    2.4944   14.9270 C   0  0  0  0  0  0  0  0  0  0  0  0
    1.9929    2.1407   13.6293 C   0  0  0  0  0  0  0  0  0  0  0  0
    2.6618    2.7402   12.5410 C   0  0  0  0  0  0  0  0  0  0  0  0
    3.5765    3.6930   12.8821 C   0  0  0  0  0  0  0  0  0  0  0  0
    4.2360    4.3596   11.8941 F   0  0  0  0  0  0  0  0  0  0  0  0
    3.8413    4.0549   14.2071 C   0  0  0  0  0  0  0  0  0  0  0  0
    2.3125    2.1934   10.9210 S   0  0  0  0  0  0  0  0  0  0  0  0
    1.1468    1.2195   10.9348 O   0  0  0  0  0  0  0  0  0  0  0  0
    1.8096    3.3745   10.0778 O   0  0  0  0  0  0  0  0  0  0  0  0
    3.6399    1.5518   10.1107 N   0  0  0  0  0  0  0  0  0  0  0  0
    4.2897    2.3613    9.1710 C   0  0  0  0  0  0  0  0  0  0  0  0
    5.2674    1.4536    8.3959 C   0  0  0  0  0  0  0  0  0  0  0  0
    4.5898    0.5101    7.6631 O   0  0  0  0  0  0  0  0  0  0  0  0
    3.6012   -0.1567    8.3446 C   0  0  0  0  0  0  0  0  0  0  0  0
    3.5671    0.1538    9.8133 C   0  0  0  0  0  0  0  0  0  0  0  0
    4.8742    1.3074   21.3617 N   0  0  0  0  0  0  0  0  0  0  0  0
    4.2832    0.5384   21.6761 H   0  0  0  0  0  0  0  0  0  0  0  0
    6.0269    1.8126   22.0172 C   0  0  0  0  0  0  0  0  0  0  0  0
    5.8282    2.5224   23.3097 C   0  0  0  0  0  0  0  0  0  0  0  0
    3.9119    4.1271   23.4736 C   0  0  0  0  0  0  0  0  0  0  0  0
    4.4150    2.7510   23.6557 C   0  0  0  0  0  0  0  0  0  0  0  0
 38 39  1  0  0  0
 39 37  1  0  0  0
 37 36  1  0  0  0
 36 34  1  0  0  0
 34  1  1  0  0  0
  1  2  2  0  0  0
  2  3  1  0  0  0
  3  4  2  0  0  0
  4  5  1  0  0  0
  5  6  2  0  0  0
  6  7  1  0  0  0
  7 10  1  0  0  0
 10 11  1  0  0  0
 11 12  1  0  0  0
 12 13  1  0  0  0
 13 14  1  0  0  0
 13 15  1  0  0  0
 15 16  1  0  0  0
  7  8  1  0  0  0
  8  9  2  0  0  0
  5 18  1  0  0  0
 18 19  2  0  0  0
 19 20  1  0  0  0
 20 21  2  0  0  0
 21 22  1  0  0  0
 22 23  1  0  0  0
 22 24  2  0  0  0
 21 25  1  0  0  0
 25 26  2  0  0  0
 25 27  2  0  0  0
 25 28  1  0  0  0
 28 29  1  0  0  0
 29 30  1  0  0  0
 30 31  1  0  0  0
 31 32  1  0  0  0
 32 33  1  0  0  0
  9  1  1  0  0  0
 24 18  1  0  0  0
 33 28  1  0  0  0
  8  4  1  0  0  0
 16 10  1  0  0  0
 34 35  1  0  0  0
 14 17  1  0  0  0
M  END
> <minimizedAffinity>
-9.11168

> <CNNscore>
0.2153379619

> <CNNaffinity>
6.8973007202

> <CNN_VS>
1.4852507114

> <CNNaffinity_variance>
0.4600679278

$$$$
[H]OC1([H])C([H])([H])C([H])([H])C([H])(n2c([H])c(-c3c([H])c([H])c(S(=O)(=O)N4C([H])([H])C([H])([H])OC([H])([H])C4([H])[H])c([H])c3[H])c3c([H])nc(N([H])C([H])([H])C([H])([H])C([H])([H])C([H])([H])[H])nc32)C([H])([H])C1([H])[H]


 38 42  0  0  0  0  0  0  0  0999 V2000
    2.9819    0.3701   18.0817 C   0  0  0  0  0  0  0  0  0  0  0  0
    2.3444    0.1925   16.9157 N   0  0  0  0  0  0  0  0  0  0  0  0
    2.3395    1.0938   15.9291 C   0  0  0  0  0  0  0  0  0  0  0  0
    3.0346    2.2795   16.1259 C   0  0  0  0  0  0  0  0  0  0  0  0
    3.2532    3.4023   15.3732 C   0  0  0  0  0  0  0  0  0  0  0  0
    4.0440    4.2537   16.1334 C   0  0  0  0  0  0  0  0  0  0  0  0
    4.3089    3.6805   17.3203 N   0  0  0  0  0  0  0  0  0  0  0  0
    3.6978    2.4643   17.3386 C   0  0  0  0  0  0  0  0  0  0  0  0
    3.6542    1.5129   18.2760 N   0  0  0  0  0  0  0  0  0  0  0  0
    5.0951    4.2201   18.4098 C   0  0  0  0  0  0  0  0  0  0  0  0
    4.1930    4.7161   19.5030 C   0  0  0  0  0  0  0  0  0  0  0  0
    5.0651    4.9392   20.7341 C   0  0  0  0  0  0  0  0  0  0  0  0
    6.3218    5.6797   20.4248 C   0  0  0  0  0  0  0  0  0  0  0  0
    6.5056    6.7178   21.3458 O   0  0  0  0  0  0  0  0  0  0  0  0
    6.3601    6.2853   19.0528 C   0  0  0  0  0  0  0  0  0  0  0  0
    6.0400    5.3092   17.9572 C   0  0  0  0  0  0  0  0  0  0  0  0
    6.7950    6.3937   22.2317 H   0  0  0  0  0  0  0  0  0  0  0  0
    2.7368    3.6429   14.0218 C   0  0  0  0  0  0  0  0  0  0  0  0
    3.1691    2.8915   12.9451 C   0  0  0  0  0  0  0  0  0  0  0  0
    2.7025    3.1009   11.6684 C   0  0  0  0  0  0  0  0  0  0  0  0
    1.7648    4.1131   11.4988 C   0  0  0  0  0  0  0  0  0  0  0  0
    1.3306    4.8617   12.5568 C   0  0  0  0  0  0  0  0  0  0  0  0
    1.8048    4.6417   13.8242 C   0  0  0  0  0  0  0  0  0  0  0  0
    1.1361    4.4280    9.8766 S   0  0  0  0  0  0  0  0  0  0  0  0
    2.2929    4.2656    8.9089 O   0  0  0  0  0  0  0  0  0  0  0  0
    0.0958    3.4376    9.5184 O   0  0  0  0  0  0  0  0  0  0  0  0
    0.5922    6.0403    9.8043 N   0  0  0  0  0  0  0  0  0  0  0  0
    1.4414    6.9254    9.0855 C   0  0  0  0  0  0  0  0  0  0  0  0
    0.8951    7.3228    7.7240 C   0  0  0  0  0  0  0  0  0  0  0  0
   -0.4108    7.7939    7.8255 O   0  0  0  0  0  0  0  0  0  0  0  0
   -1.2029    6.7614    8.2700 C   0  0  0  0  0  0  0  0  0  0  0  0
   -0.8109    6.1913    9.5919 C   0  0  0  0  0  0  0  0  0  0  0  0
    2.9402   -0.6497   19.0971 N   0  0  0  0  0  0  0  0  0  0  0  0
    3.2173   -1.6051   18.8161 H   0  0  0  0  0  0  0  0  0  0  0  0
    2.5232   -0.2889   20.4192 C   0  0  0  0  0  0  0  0  0  0  0  0
    3.6996   -0.1194   21.3517 C   0  0  0  0  0  0  0  0  0  0  0  0
    4.6144    1.7991   22.6952 C   0  0  0  0  0  0  0  0  0  0  0  0
    3.3727    1.0469   22.2666 C   0  0  0  0  0  0  0  0  0  0  0  0
 37 38  1  0  0  0
 38 36  1  0  0  0
 36 35  1  0  0  0
 35 33  1  0  0  0
 33  1  1  0  0  0
  1  2  2  0  0  0
  2  3  1  0  0  0
  3  4  2  0  0  0
  4  5  1  0  0  0
  5  6  2  0  0  0
  6  7  1  0  0  0
  7 10  1  0  0  0
 10 11  1  0  0  0
 11 12  1  0  0  0
 12 13  1  0  0  0
 13 14  1  0  0  0
 13 15  1  0  0  0
 15 16  1  0  0  0
  7  8  1  0  0  0
  8  9  2  0  0  0
  5 18  1  0  0  0
 18 19  2  0  0  0
 19 20  1  0  0  0
 20 21  2  0  0  0
 21 22  1  0  0  0
 22 23  2  0  0  0
 21 24  1  0  0  0
 24 25  2  0  0  0
 24 26  2  0  0  0
 24 27  1  0  0  0
 27 28  1  0  0  0
 28 29  1  0  0  0
 29 30  1  0  0  0
 30 31  1  0  0  0
 31 32  1  0  0  0
  9  1  1  0  0  0
 23 18  1  0  0  0
 32 27  1  0  0  0
  8  4  1  0  0  0
 16 10  1  0  0  0
 33 34  1  0  0  0
 14 17  1  0  0  0
M  END
> <minimizedAffinity>
-7.72736

> <CNNscore>
0.8808109760

> <CNNaffinity>
7.3253493309

> <CNN_VS>
6.4522480965

> <CNNaffinity_variance>
0.0530002005

$$$$
[H]OC1([H])C([H])([H])C([H])([H])C([H])(n2c([H])c(-c3c([H])c([H])c(S(=O)(=O)N4C([H])([H])C([H])([H])OC([H])([H])C4([H])[H])c([H])c3[H])c3c([H])nc(N([H])C([H])([H])C([H])([H])C([H])([H])C([H])([H])[H])nc32)C([H])([H])C1([H])[H]


 38 42  0  0  0  0  0  0  0  0999 V2000
    3.5724    0.9716   19.2043 C   0  0  0  0  0  0  0  0  0  0  0  0
    3.0429    0.7989   17.9847 N   0  0  0  0  0  0  0  0  0  0  0  0
    3.0265    1.7471   17.0431 C   0  0  0  0  0  0  0  0  0  0  0  0
    3.5902    2.9786   17.3481 C   0  0  0  0  0  0  0  0  0  0  0  0
    3.7575    4.1548   16.6672 C   0  0  0  0  0  0  0  0  0  0  0  0
    4.4058    5.0329   17.5256 C   0  0  0  0  0  0  0  0  0  0  0  0
    4.6345    4.4241   18.7023 N   0  0  0  0  0  0  0  0  0  0  0  0
    4.1411    3.1583   18.6166 C   0  0  0  0  0  0  0  0  0  0  0  0
    4.1177    2.1587   19.5031 N   0  0  0  0  0  0  0  0  0  0  0  0
    5.2832    4.9742   19.8740 C   0  0  0  0  0  0  0  0  0  0  0  0
    4.2558    5.3908   20.8867 C   0  0  0  0  0  0  0  0  0  0  0  0
    4.9941    5.6257   22.2004 C   0  0  0  0  0  0  0  0  0  0  0  0
    6.2311    6.4404   22.0296 C   0  0  0  0  0  0  0  0  0  0  0  0
    6.2692    7.4606   22.9873 O   0  0  0  0  0  0  0  0  0  0  0  0
    6.3650    7.0850   20.6817 C   0  0  0  0  0  0  0  0  0  0  0  0
    6.2044    6.1242   19.5387 C   0  0  0  0  0  0  0  0  0  0  0  0
    6.4914    7.1278   23.8893 H   0  0  0  0  0  0  0  0  0  0  0  0
    3.3226    4.4188   15.2917 C   0  0  0  0  0  0  0  0  0  0  0  0
    4.0118    3.9023   14.2106 C   0  0  0  0  0  0  0  0  0  0  0  0
    3.6257    4.1390   12.9119 C   0  0  0  0  0  0  0  0  0  0  0  0
    2.4982    4.9303   12.7245 C   0  0  0  0  0  0  0  0  0  0  0  0
    1.8096    5.4459   13.7867 C   0  0  0  0  0  0  0  0  0  0  0  0
    2.2062    5.2015   15.0761 C   0  0  0  0  0  0  0  0  0  0  0  0
    1.9617    5.2706   11.0747 S   0  0  0  0  0  0  0  0  0  0  0  0
    2.1126    3.9867   10.2811 O   0  0  0  0  0  0  0  0  0  0  0  0
    0.5320    5.6541   11.0591 O   0  0  0  0  0  0  0  0  0  0  0  0
    2.9881    6.4492   10.3979 N   0  0  0  0  0  0  0  0  0  0  0  0
    3.2296    7.5782   11.2275 C   0  0  0  0  0  0  0  0  0  0  0  0
    4.6205    7.5981   11.8401 C   0  0  0  0  0  0  0  0  0  0  0  0
    5.6000    7.4266   10.8662 O   0  0  0  0  0  0  0  0  0  0  0  0
    5.4407    6.1760   10.3170 C   0  0  0  0  0  0  0  0  0  0  0  0
    4.1110    5.9300    9.6865 C   0  0  0  0  0  0  0  0  0  0  0  0
    3.5515   -0.1000   20.1654 N   0  0  0  0  0  0  0  0  0  0  0  0
    3.0759   -0.9741   19.8854 H   0  0  0  0  0  0  0  0  0  0  0  0
    4.1810    0.1020   21.4363 C   0  0  0  0  0  0  0  0  0  0  0  0
    3.2699    0.8168   22.4063 C   0  0  0  0  0  0  0  0  0  0  0  0
    5.5353    1.8862   22.6221 C   0  0  0  0  0  0  0  0  0  0  0  0
    4.0740    1.9534   23.0109 C   0  0  0  0  0  0  0  0  0  0  0  0
 37 38  1  0  0  0
 38 36  1  0  0  0
 36 35  1  0  0  0
 35 33  1  0  0  0
 33  1  1  0  0  0
  1  2  2  0  0  0
  2  3  1  0  0  0
  3  4  2  0  0  0
  4  5  1  0  0  0
  5  6  2  0  0  0
  6  7  1  0  0  0
  7 10  1  0  0  0
 10 11  1  0  0  0
 11 12  1  0  0  0
 12 13  1  0  0  0
 13 14  1  0  0  0
 13 15  1  0  0  0
 15 16  1  0  0  0
  7  8  1  0  0  0
  8  9  2  0  0  0
  5 18  1  0  0  0
 18 19  2  0  0  0
 19 20  1  0  0  0
 20 21  2  0  0  0
 21 22  1  0  0  0
 22 23  2  0  0  0
 21 24  1  0  0  0
 24 25  2  0  0  0
 24 26  2  0  0  0
 24 27  1  0  0  0
 27 28  1  0  0  0
 28 29  1  0  0  0
 29 30  1  0  0  0
 30 31  1  0  0  0
 31 32  1  0  0  0
  9  1  1  0  0  0
 23 18  1  0  0  0
 32 27  1  0  0  0
  8  4  1  0  0  0
 16 10  1  0  0  0
 33 34  1  0  0  0
 14 17  1  0  0  0
M  END
> <minimizedAffinity>
-7.82660

> <CNNscore>
0.5345439315

> <CNNaffinity>
7.2659096718

> <CNN_VS>
3.8839478493

> <CNNaffinity_variance>
0.1725288332

$$$$
[H]OC1([H])C([H])([H])C([H])([H])C([H])(n2c([H])c(-c3c([H])c([H])c(S(=O)(=O)N4C([H])([H])C([H])([H])OC([H])([H])C4([H])[H])c([H])c3[H])c3c([H])nc(N([H])C([H])([H])C([H])([H])C([H])([H])C([H])([H])[H])nc32)C([H])([H])C1([H])[H]


 38 42  0  0  0  0  0  0  0  0999 V2000
    4.0510    1.4712   19.8101 C   0  0  0  0  0  0  0  0  0  0  0  0
    3.7164    0.8111   18.6922 N   0  0  0  0  0  0  0  0  0  0  0  0
    3.6106    1.3910   17.4929 C   0  0  0  0  0  0  0  0  0  0  0  0
    3.8622    2.7535   17.4031 C   0  0  0  0  0  0  0  0  0  0  0  0
    3.8561    3.6674   16.3833 C   0  0  0  0  0  0  0  0  0  0  0  0
    4.1995    4.8944   16.9351 C   0  0  0  0  0  0  0  0  0  0  0  0
    4.4123    4.7499   18.2547 N   0  0  0  0  0  0  0  0  0  0  0  0
    4.2104    3.4402   18.5658 C   0  0  0  0  0  0  0  0  0  0  0  0
    4.2949    2.7864   19.7282 N   0  0  0  0  0  0  0  0  0  0  0  0
    4.7886    5.7713   19.2094 C   0  0  0  0  0  0  0  0  0  0  0  0
    3.9743    5.6329   20.4634 C   0  0  0  0  0  0  0  0  0  0  0  0
    4.6479    6.4906   21.5295 C   0  0  0  0  0  0  0  0  0  0  0  0
    5.0095    7.8495   21.0335 C   0  0  0  0  0  0  0  0  0  0  0  0
    4.5886    8.8216   21.9486 O   0  0  0  0  0  0  0  0  0  0  0  0
    4.4144    8.1995   19.7017 C   0  0  0  0  0  0  0  0  0  0  0  0
    4.6677    7.1665   18.6414 C   0  0  0  0  0  0  0  0  0  0  0  0
    5.1550    8.8549   22.7559 H   0  0  0  0  0  0  0  0  0  0  0  0
    3.5394    3.3841   14.9797 C   0  0  0  0  0  0  0  0  0  0  0  0
    2.8171    2.2616   14.6204 C   0  0  0  0  0  0  0  0  0  0  0  0
    2.5112    1.9728   13.3110 C   0  0  0  0  0  0  0  0  0  0  0  0
    2.9631    2.8665   12.3469 C   0  0  0  0  0  0  0  0  0  0  0  0
    3.6780    3.9794   12.6916 C   0  0  0  0  0  0  0  0  0  0  0  0
    3.9756    4.2545   14.0012 C   0  0  0  0  0  0  0  0  0  0  0  0
    2.6022    2.5397   10.6473 S   0  0  0  0  0  0  0  0  0  0  0  0
    3.8603    2.8434    9.8560 O   0  0  0  0  0  0  0  0  0  0  0  0
    2.2696    1.1108   10.4494 O   0  0  0  0  0  0  0  0  0  0  0  0
    1.3718    3.6002   10.1357 N   0  0  0  0  0  0  0  0  0  0  0  0
    0.2385    3.6576   10.9923 C   0  0  0  0  0  0  0  0  0  0  0  0
    0.1574    4.9356   11.8110 C   0  0  0  0  0  0  0  0  0  0  0  0
    0.2755    6.0599   10.9989 O   0  0  0  0  0  0  0  0  0  0  0  0
    1.5284    6.0465   10.4322 C   0  0  0  0  0  0  0  0  0  0  0  0
    1.8324    4.8424    9.6052 C   0  0  0  0  0  0  0  0  0  0  0  0
    4.1443    0.7747   21.0666 N   0  0  0  0  0  0  0  0  0  0  0  0
    4.6989   -0.0977   21.0810 H   0  0  0  0  0  0  0  0  0  0  0  0
    3.4738    1.3208   22.2086 C   0  0  0  0  0  0  0  0  0  0  0  0
    4.4353    1.6146   23.3362 C   0  0  0  0  0  0  0  0  0  0  0  0
    3.3759    3.8739   23.6460 C   0  0  0  0  0  0  0  0  0  0  0  0
    4.6528    3.1168   23.3502 C   0  0  0  0  0  0  0  0  0  0  0  0
 37 38  1  0  0  0
 38 36  1  0  0  0
 36 35  1  0  0  0
 35 33  1  0  0  0
 33  1  1  0  0  0
  1  2  2  0  0  0
  2  3  1  0  0  0
  3  4  2  0  0  0
  4  5  1  0  0  0
  5  6  2  0  0  0
  6  7  1  0  0  0
  7 10  1  0  0  0
 10 11  1  0  0  0
 11 12  1  0  0  0
 12 13  1  0  0  0
 13 14  1  0  0  0
 13 15  1  0  0  0
 15 16  1  0  0  0
  7  8  1  0  0  0
  8  9  2  0  0  0
  5 18  1  0  0  0
 18 19  2  0  0  0
 19 20  1  0  0  0
 20 21  2  0  0  0
 21 22  1  0  0  0
 22 23  2  0  0  0
 21 24  1  0  0  0
 24 25  2  0  0  0
 24 26  2  0  0  0
 24 27  1  0  0  0
 27 28  1  0  0  0
 28 29  1  0  0  0
 29 30  1  0  0  0
 30 31  1  0  0  0
 31 32  1  0  0  0
  9  1  1  0  0  0
 23 18  1  0  0  0
 32 27  1  0  0  0
  8  4  1  0  0  0
 16 10  1  0  0  0
 33 34  1  0  0  0
 14 17  1  0  0  0
M  END
> <minimizedAffinity>
-9.04267

> <CNNscore>
0.4190340936

> <CNNaffinity>
7.1548261642

> <CNN_VS>
2.9981160164

> <CNNaffinity_variance>
0.5495749712

$$$$
[H]OC1([H])C([H])([H])C([H])([H])C([H])(n2c([H])c(-c3c([H])c([H])c(S(=O)(=O)N4C([H])([H])C([H])([H])OC([H])([H])C4([H])[H])c([H])c3[H])c3c([H])nc(N([H])C([H])([H])C([H])([H])C([H])([H])C([H])([H])[H])nc32)C([H])([H])C1([H])[H]


 38 42  0  0  0  0  0  0  0  0999 V2000
    4.1217    1.4084   19.6387 C   0  0  0  0  0  0  0  0  0  0  0  0
    3.7747    0.7480   18.5247 N   0  0  0  0  0  0  0  0  0  0  0  0
    3.6255    1.3332   17.3326 C   0  0  0  0  0  0  0  0  0  0  0  0
    3.8428    2.7018   17.2464 C   0  0  0  0  0  0  0  0  0  0  0  0
    3.7898    3.6219   16.2337 C   0  0  0  0  0  0  0  0  0  0  0  0
    4.1181    4.8531   16.7856 C   0  0  0  0  0  0  0  0  0  0  0  0
    4.3671    4.7049   18.0984 N   0  0  0  0  0  0  0  0  0  0  0  0
    4.2038    3.3887   18.4050 C   0  0  0  0  0  0  0  0  0  0  0  0
    4.3326    2.7295   19.5602 N   0  0  0  0  0  0  0  0  0  0  0  0
    4.7432    5.7286   19.0507 C   0  0  0  0  0  0  0  0  0  0  0  0
    3.9571    5.5686   20.3201 C   0  0  0  0  0  0  0  0  0  0  0  0
    4.6357    6.4337   21.3770 C   0  0  0  0  0  0  0  0  0  0  0  0
    4.9615    7.8016   20.8811 C   0  0  0  0  0  0  0  0  0  0  0  0
    4.5407    8.7610   21.8096 O   0  0  0  0  0  0  0  0  0  0  0  0
    4.3331    8.1467   19.5633 C   0  0  0  0  0  0  0  0  0  0  0  0
    4.5846    7.1240   18.4927 C   0  0  0  0  0  0  0  0  0  0  0  0
    5.1225    8.8011   22.6055 H   0  0  0  0  0  0  0  0  0  0  0  0
    3.4448    3.3406   14.8363 C   0  0  0  0  0  0  0  0  0  0  0  0
    2.6246    2.2799   14.5003 C   0  0  0  0  0  0  0  0  0  0  0  0
    2.2901    1.9938   13.1973 C   0  0  0  0  0  0  0  0  0  0  0  0
    2.8166    2.8249   12.2151 C   0  0  0  0  0  0  0  0  0  0  0  0
    3.6286    3.8764   12.5367 C   0  0  0  0  0  0  0  0  0  0  0  0
    3.9535    4.1495   13.8403 C   0  0  0  0  0  0  0  0  0  0  0  0
    2.4228    2.4983   10.5227 S   0  0  0  0  0  0  0  0  0  0  0  0
    1.2159    1.5794   10.5133 O   0  0  0  0  0  0  0  0  0  0  0  0
    2.0528    3.7487    9.8220 O   0  0  0  0  0  0  0  0  0  0  0  0
    3.7322    1.6796    9.8046 N   0  0  0  0  0  0  0  0  0  0  0  0
    3.5565    0.2753    9.6689 C   0  0  0  0  0  0  0  0  0  0  0  0
    3.2864   -0.1701    8.2411 C   0  0  0  0  0  0  0  0  0  0  0  0
    4.2426    0.3394    7.3673 O   0  0  0  0  0  0  0  0  0  0  0  0
    4.1337    1.7103    7.3685 C   0  0  0  0  0  0  0  0  0  0  0  0
    4.3295    2.3562    8.6991 C   0  0  0  0  0  0  0  0  0  0  0  0
    4.2627    0.7060   20.8874 N   0  0  0  0  0  0  0  0  0  0  0  0
    3.7418   -0.1811   20.9898 H   0  0  0  0  0  0  0  0  0  0  0  0
    5.1036    1.2670   21.9024 C   0  0  0  0  0  0  0  0  0  0  0  0
    4.3139    1.6708   23.1252 C   0  0  0  0  0  0  0  0  0  0  0  0
    3.4199    3.9637   23.6410 C   0  0  0  0  0  0  0  0  0  0  0  0
    4.6566    3.1214   23.4124 C   0  0  0  0  0  0  0  0  0  0  0  0
 37 38  1  0  0  0
 38 36  1  0  0  0
 36 35  1  0  0  0
 35 33  1  0  0  0
 33  1  1  0  0  0
  1  2  2  0  0  0
  2  3  1  0  0  0
  3  4  2  0  0  0
  4  5  1  0  0  0
  5  6  2  0  0  0
  6  7  1  0  0  0
  7 10  1  0  0  0
 10 11  1  0  0  0
 11 12  1  0  0  0
 12 13  1  0  0  0
 13 14  1  0  0  0
 13 15  1  0  0  0
 15 16  1  0  0  0
  7  8  1  0  0  0
  8  9  2  0  0  0
  5 18  1  0  0  0
 18 19  2  0  0  0
 19 20  1  0  0  0
 20 21  2  0  0  0
 21 22  1  0  0  0
 22 23  2  0  0  0
 21 24  1  0  0  0
 24 25  2  0  0  0
 24 26  2  0  0  0
 24 27  1  0  0  0
 27 28  1  0  0  0
 28 29  1  0  0  0
 29 30  1  0  0  0
 30 31  1  0  0  0
 31 32  1  0  0  0
  9  1  1  0  0  0
 23 18  1  0  0  0
 32 27  1  0  0  0
  8  4  1  0  0  0
 16 10  1  0  0  0
 33 34  1  0  0  0
 14 17  1  0  0  0
M  END
> <minimizedAffinity>
-8.79761

> <CNNscore>
0.4032605290

> <CNNaffinity>
7.0781602859

> <CNN_VS>
2.8543426991

> <CNNaffinity_variance>
0.3912672997

$$$$
[H]OC1([H])C([H])([H])C([H])([H])C([H])(n2c([H])c(-c3c([H])c([H])c(S(=O)(=O)N4C([H])([H])C([H])([H])OC([H])([H])C4([H])[H])c([H])c3[H])c3c([H])nc(N([H])C([H])([H])C([H])([H])C([H])([H])C([H])([H])[H])nc32)C([H])([H])C1([H])[H]


 38 42  0  0  0  0  0  0  0  0999 V2000
    3.6539    1.1806   19.0304 C   0  0  0  0  0  0  0  0  0  0  0  0
    3.1763    1.0993   17.7803 N   0  0  0  0  0  0  0  0  0  0  0  0
    3.2536    2.0942   16.8914 C   0  0  0  0  0  0  0  0  0  0  0  0
    3.8632    3.2769   17.2881 C   0  0  0  0  0  0  0  0  0  0  0  0
    4.1224    4.4761   16.6800 C   0  0  0  0  0  0  0  0  0  0  0  0
    4.7716    5.2731   17.6134 C   0  0  0  0  0  0  0  0  0  0  0  0
    4.9119    4.5933   18.7648 N   0  0  0  0  0  0  0  0  0  0  0  0
    4.3600    3.3615   18.5884 C   0  0  0  0  0  0  0  0  0  0  0  0
    4.2432    2.3202   19.4176 N   0  0  0  0  0  0  0  0  0  0  0  0
    5.5297    5.0472   19.9930 C   0  0  0  0  0  0  0  0  0  0  0  0
    4.4793    5.3184   21.0313 C   0  0  0  0  0  0  0  0  0  0  0  0
    5.1984    5.4481   22.3700 C   0  0  0  0  0  0  0  0  0  0  0  0
    6.4028    6.3240   22.2958 C   0  0  0  0  0  0  0  0  0  0  0  0
    6.3930    7.2429   23.3518 O   0  0  0  0  0  0  0  0  0  0  0  0
    6.5198    7.1065   21.0213 C   0  0  0  0  0  0  0  0  0  0  0  0
    6.4062    6.2607   19.7855 C   0  0  0  0  0  0  0  0  0  0  0  0
    6.6221    6.8295   24.2180 H   0  0  0  0  0  0  0  0  0  0  0  0
    3.7689    4.8332   15.3022 C   0  0  0  0  0  0  0  0  0  0  0  0
    3.2096    6.0609   15.0012 C   0  0  0  0  0  0  0  0  0  0  0  0
    2.8662    6.4171   13.7180 C   0  0  0  0  0  0  0  0  0  0  0  0
    3.1065    5.4807   12.7189 C   0  0  0  0  0  0  0  0  0  0  0  0
    3.6592    4.2640   13.0060 C   0  0  0  0  0  0  0  0  0  0  0  0
    3.9965    3.9226   14.2902 C   0  0  0  0  0  0  0  0  0  0  0  0
    2.6784    5.8855   11.0520 S   0  0  0  0  0  0  0  0  0  0  0  0
    3.0090    7.3519   10.8484 O   0  0  0  0  0  0  0  0  0  0  0  0
    3.4895    5.0957   10.0981 O   0  0  0  0  0  0  0  0  0  0  0  0
    1.0002    5.6760   10.8520 N   0  0  0  0  0  0  0  0  0  0  0  0
    0.5130    4.3875   11.2041 C   0  0  0  0  0  0  0  0  0  0  0  0
   -0.2577    4.3642   12.5139 C   0  0  0  0  0  0  0  0  0  0  0  0
   -1.2523    5.3379   12.5281 O   0  0  0  0  0  0  0  0  0  0  0  0
   -0.6440    6.5695   12.4629 C   0  0  0  0  0  0  0  0  0  0  0  0
    0.2041    6.7897   11.2553 C   0  0  0  0  0  0  0  0  0  0  0  0
    3.5323    0.0635   19.9303 N   0  0  0  0  0  0  0  0  0  0  0  0
    2.9734   -0.7435   19.6059 H   0  0  0  0  0  0  0  0  0  0  0  0
    4.1822    0.1317   21.2051 C   0  0  0  0  0  0  0  0  0  0  0  0
    3.2938    0.7570   22.2549 C   0  0  0  0  0  0  0  0  0  0  0  0
    5.5837    1.7530   22.5501 C   0  0  0  0  0  0  0  0  0  0  0  0
    4.1359    1.7832   22.9909 C   0  0  0  0  0  0  0  0  0  0  0  0
 37 38  1  0  0  0
 38 36  1  0  0  0
 36 35  1  0  0  0
 35 33  1  0  0  0
 33  1  1  0  0  0
  1  2  2  0  0  0
  2  3  1  0  0  0
  3  4  2  0  0  0
  4  5  1  0  0  0
  5  6  2  0  0  0
  6  7  1  0  0  0
  7 10  1  0  0  0
 10 11  1  0  0  0
 11 12  1  0  0  0
 12 13  1  0  0  0
 13 14  1  0  0  0
 13 15  1  0  0  0
 15 16  1  0  0  0
  7  8  1  0  0  0
  8  9  2  0  0  0
  5 18  1  0  0  0
 18 19  2  0  0  0
 19 20  1  0  0  0
 20 21  2  0  0  0
 21 22  1  0  0  0
 22 23  2  0  0  0
 21 24  1  0  0  0
 24 25  2  0  0  0
 24 26  2  0  0  0
 24 27  1  0  0  0
 27 28  1  0  0  0
 28 29  1  0  0  0
 29 30  1  0  0  0
 30 31  1  0  0  0
 31 32  1  0  0  0
  9  1  1  0  0  0
 23 18  1  0  0  0
 32 27  1  0  0  0
  8  4  1  0  0  0
 16 10  1  0  0  0
 33 34  1  0  0  0
 14 17  1  0  0  0
M  END
> <minimizedAffinity>
-8.28080

> <CNNscore>
0.3796158731

> <CNNaffinity>
7.0863294601

> <CNN_VS>
2.6900830269

> <CNNaffinity_variance>
0.2099295855

$$$$
[H]OC1([H])C([H])([H])C([H])([H])C([H])(n2c([H])c(-c3c([H])c([H])c(S(=O)(=O)N4C([H])([H])C([H])([H])OC([H])([H])C4([H])[H])c([H])c3[H])c3c([H])nc(N([H])C([H])([H])C([H])([H])C([H])([H])C([H])([H])[H])nc32)C([H])([H])C1([H])[H]


 38 42  0  0  0  0  0  0  0  0999 V2000
    3.6407    1.6365   17.6764 C   0  0  0  0  0  0  0  0  0  0  0  0
    3.2647    1.5417   16.3930 N   0  0  0  0  0  0  0  0  0  0  0  0
    3.1108    2.5959   15.5863 C   0  0  0  0  0  0  0  0  0  0  0  0
    3.3549    3.8585   16.1097 C   0  0  0  0  0  0  0  0  0  0  0  0
    3.3065    5.1324   15.6099 C   0  0  0  0  0  0  0  0  0  0  0  0
    3.6678    5.9880   16.6421 C   0  0  0  0  0  0  0  0  0  0  0  0
    3.9320    5.2710   17.7483 N   0  0  0  0  0  0  0  0  0  0  0  0
    3.7461    3.9572   17.4445 C   0  0  0  0  0  0  0  0  0  0  0  0
    3.8775    2.8532   18.1859 N   0  0  0  0  0  0  0  0  0  0  0  0
    4.3423    5.7627   19.0468 C   0  0  0  0  0  0  0  0  0  0  0  0
    5.6699    5.1733   19.4276 C   0  0  0  0  0  0  0  0  0  0  0  0
    6.1947    5.9824   20.6091 C   0  0  0  0  0  0  0  0  0  0  0  0
    5.1609    6.2067   21.6599 C   0  0  0  0  0  0  0  0  0  0  0  0
    5.6874    5.9080   22.9220 O   0  0  0  0  0  0  0  0  0  0  0  0
    3.9167    5.3866   21.4872 C   0  0  0  0  0  0  0  0  0  0  0  0
    3.3098    5.4983   20.1181 C   0  0  0  0  0  0  0  0  0  0  0  0
    6.3128    6.5988   23.2467 H   0  0  0  0  0  0  0  0  0  0  0  0
    2.9363    5.5029   14.2400 C   0  0  0  0  0  0  0  0  0  0  0  0
    2.1187    4.6927   13.4747 C   0  0  0  0  0  0  0  0  0  0  0  0
    1.7609    5.0168   12.1868 C   0  0  0  0  0  0  0  0  0  0  0  0
    2.2607    6.2090   11.6755 C   0  0  0  0  0  0  0  0  0  0  0  0
    3.0698    7.0173   12.4240 C   0  0  0  0  0  0  0  0  0  0  0  0
    3.4182    6.6813   13.7067 C   0  0  0  0  0  0  0  0  0  0  0  0
    1.8361    6.6707   10.0226 S   0  0  0  0  0  0  0  0  0  0  0  0
    1.7631    5.3944    9.2060 O   0  0  0  0  0  0  0  0  0  0  0  0
    0.5040    7.3153    9.9862 O   0  0  0  0  0  0  0  0  0  0  0  0
    3.0803    7.6471    9.3907 N   0  0  0  0  0  0  0  0  0  0  0  0
    4.2005    6.9333    8.8838 C   0  0  0  0  0  0  0  0  0  0  0  0
    4.2761    6.9160    7.3659 C   0  0  0  0  0  0  0  0  0  0  0  0
    4.1769    8.2026    6.8440 O   0  0  0  0  0  0  0  0  0  0  0  0
    2.9329    8.6960    7.1604 C   0  0  0  0  0  0  0  0  0  0  0  0
    2.6349    8.7631    8.6208 C   0  0  0  0  0  0  0  0  0  0  0  0
    3.7848    0.4523   18.4823 N   0  0  0  0  0  0  0  0  0  0  0  0
    4.4354   -0.2741   18.1392 H   0  0  0  0  0  0  0  0  0  0  0  0
    3.0301    0.3483   19.6954 C   0  0  0  0  0  0  0  0  0  0  0  0
    3.9234    0.1408   20.8958 C   0  0  0  0  0  0  0  0  0  0  0  0
    5.7427    1.8328   21.2828 C   0  0  0  0  0  0  0  0  0  0  0  0
    4.2695    1.5182   21.4314 C   0  0  0  0  0  0  0  0  0  0  0  0
 37 38  1  0  0  0
 38 36  1  0  0  0
 36 35  1  0  0  0
 35 33  1  0  0  0
 33  1  1  0  0  0
  1  2  2  0  0  0
  2  3  1  0  0  0
  3  4  2  0  0  0
  4  5  1  0  0  0
  5  6  2  0  0  0
  6  7  1  0  0  0
  7 10  1  0  0  0
 10 11  1  0  0  0
 11 12  1  0  0  0
 12 13  1  0  0  0
 13 14  1  0  0  0
 13 15  1  0  0  0
 15 16  1  0  0  0
  7  8  1  0  0  0
  8  9  2  0  0  0
  5 18  1  0  0  0
 18 19  2  0  0  0
 19 20  1  0  0  0
 20 21  2  0  0  0
 21 22  1  0  0  0
 22 23  2  0  0  0
 21 24  1  0  0  0
 24 25  2  0  0  0
 24 26  2  0  0  0
 24 27  1  0  0  0
 27 28  1  0  0  0
 28 29  1  0  0  0
 29 30  1  0  0  0
 30 31  1  0  0  0
 31 32  1  0  0  0
  9  1  1  0  0  0
 23 18  1  0  0  0
 32 27  1  0  0  0
  8  4  1  0  0  0
 16 10  1  0  0  0
 33 34  1  0  0  0
 14 17  1  0  0  0
M  END
> <minimizedAffinity>
-7.40349

> <CNNscore>
0.2879009545

> <CNNaffinity>
6.6983246803

> <CNN_VS>
1.9284540415

> <CNNaffinity_variance>
0.2389692813

$$$$
[H]OC1([H])C([H])([H])C([H])([H])C([H])(n2c([H])c(-c3c([H])c([H])c(S(=O)(=O)N4C([H])([H])C([H])([H])OC([H])([H])C4([H])[H])c([H])c3[H])c3c([H])nc(N([H])C([H])([H])C([H])([H])C([H])([H])C([H])([H])[H])nc32)C([H])([H])C1([H])[H]


 38 42  0  0  0  0  0  0  0  0999 V2000
    4.6757    2.0033   19.6154 C   0  0  0  0  0  0  0  0  0  0  0  0
    4.4017    1.2268   18.5573 N   0  0  0  0  0  0  0  0  0  0  0  0
    4.1251    1.7038   17.3400 C   0  0  0  0  0  0  0  0  0  0  0  0
    4.1222    3.0811   17.1647 C   0  0  0  0  0  0  0  0  0  0  0  0
    3.8937    3.9148   16.1027 C   0  0  0  0  0  0  0  0  0  0  0  0
    4.0421    5.2149   16.5673 C   0  0  0  0  0  0  0  0  0  0  0  0
    4.3524    5.1919   17.8753 N   0  0  0  0  0  0  0  0  0  0  0  0
    4.4073    3.8889   18.2651 C   0  0  0  0  0  0  0  0  0  0  0  0
    4.6742    3.3333   19.4508 N   0  0  0  0  0  0  0  0  0  0  0  0
    4.5931    6.3206   18.7495 C   0  0  0  0  0  0  0  0  0  0  0  0
    4.0074    7.5693   18.1557 C   0  0  0  0  0  0  0  0  0  0  0  0
    3.9861    8.6209   19.2602 C   0  0  0  0  0  0  0  0  0  0  0  0
    5.2726    8.6964   20.0102 C   0  0  0  0  0  0  0  0  0  0  0  0
    5.6802   10.0302   20.1296 O   0  0  0  0  0  0  0  0  0  0  0  0
    6.4014    7.9371   19.3781 C   0  0  0  0  0  0  0  0  0  0  0  0
    6.0601    6.5098   19.0593 C   0  0  0  0  0  0  0  0  0  0  0  0
    5.1481   10.5330   20.7912 H   0  0  0  0  0  0  0  0  0  0  0  0
    3.5533    3.4940   14.7397 C   0  0  0  0  0  0  0  0  0  0  0  0
    3.9895    4.2078   13.6393 C   0  0  0  0  0  0  0  0  0  0  0  0
    3.6801    3.8352   12.3521 C   0  0  0  0  0  0  0  0  0  0  0  0
    2.8994    2.6955   12.1968 C   0  0  0  0  0  0  0  0  0  0  0  0
    2.4630    1.9825   13.2783 C   0  0  0  0  0  0  0  0  0  0  0  0
    2.7793    2.3660   14.5559 C   0  0  0  0  0  0  0  0  0  0  0  0
    2.4678    2.1754   10.5631 S   0  0  0  0  0  0  0  0  0  0  0  0
    2.7513    3.3397    9.6331 O   0  0  0  0  0  0  0  0  0  0  0  0
    3.3096    1.0340   10.1390 O   0  0  0  0  0  0  0  0  0  0  0  0
    0.7984    1.8411   10.5187 N   0  0  0  0  0  0  0  0  0  0  0  0
    0.0028    2.8525    9.9142 C   0  0  0  0  0  0  0  0  0  0  0  0
   -0.5070    2.4817    8.5312 C   0  0  0  0  0  0  0  0  0  0  0  0
   -1.1346    1.2394    8.5443 O   0  0  0  0  0  0  0  0  0  0  0  0
   -0.1952    0.2907    8.8738 C   0  0  0  0  0  0  0  0  0  0  0  0
    0.4650    0.4914   10.1967 C   0  0  0  0  0  0  0  0  0  0  0  0
    4.9643    1.4131   20.8964 N   0  0  0  0  0  0  0  0  0  0  0  0
    5.9103    1.5681   21.2835 H   0  0  0  0  0  0  0  0  0  0  0  0
    3.9406    0.6558   21.5524 C   0  0  0  0  0  0  0  0  0  0  0  0
    3.4153    1.3663   22.7777 C   0  0  0  0  0  0  0  0  0  0  0  0
    3.9697    3.7061   23.5126 C   0  0  0  0  0  0  0  0  0  0  0  0
    4.5053    2.3173   23.2373 C   0  0  0  0  0  0  0  0  0  0  0  0
 37 38  1  0  0  0
 38 36  1  0  0  0
 36 35  1  0  0  0
 35 33  1  0  0  0
 33  1  1  0  0  0
  1  2  2  0  0  0
  2  3  1  0  0  0
  3  4  2  0  0  0
  4  5  1  0  0  0
  5  6  2  0  0  0
  6  7  1  0  0  0
  7 10  1  0  0  0
 10 11  1  0  0  0
 11 12  1  0  0  0
 12 13  1  0  0  0
 13 14  1  0  0  0
 13 15  1  0  0  0
 15 16  1  0  0  0
  7  8  1  0  0  0
  8  9  2  0  0  0
  5 18  1  0  0  0
 18 19  2  0  0  0
 19 20  1  0  0  0
 20 21  2  0  0  0
 21 22  1  0  0  0
 22 23  2  0  0  0
 21 24  1  0  0  0
 24 25  2  0  0  0
 24 26  2  0  0  0
 24 27  1  0  0  0
 27 28  1  0  0  0
 28 29  1  0  0  0
 29 30  1  0  0  0
 30 31  1  0  0  0
 31 32  1  0  0  0
  9  1  1  0  0  0
 23 18  1  0  0  0
 32 27  1  0  0  0
  8  4  1  0  0  0
 16 10  1  0  0  0
 33 34  1  0  0  0
 14 17  1  0  0  0
M  END
> <minimizedAffinity>
-8.06720

> <CNNscore>
0.2565238476

> <CNNaffinity>
6.8782868385

> <CNN_VS>
1.7644445896

> <CNNaffinity_variance>
0.2748570740

$$$$
[H]OC1([H])C([H])([H])C([H])([H])C([H])(n2c([H])c(-c3c([H])c([H])c(S(=O)(=O)N4C([H])([H])C([H])([H])OC([H])([H])C4([H])[H])c([H])c3[H])c3c([H])nc(N([H])C([H])([H])C([H])([H])C([H])([H])C([H])([H])[H])nc32)C([H])([H])C1([H])[H]


 38 42  0  0  0  0  0  0  0  0999 V2000
    4.0160    1.6812   18.3175 C   0  0  0  0  0  0  0  0  0  0  0  0
    3.6394    1.2958   17.0899 N   0  0  0  0  0  0  0  0  0  0  0  0
    3.4706    2.1397   16.0676 C   0  0  0  0  0  0  0  0  0  0  0  0
    3.6989    3.4906   16.2929 C   0  0  0  0  0  0  0  0  0  0  0  0
    3.6332    4.6189   15.5198 C   0  0  0  0  0  0  0  0  0  0  0  0
    3.9847    5.6890   16.3319 C   0  0  0  0  0  0  0  0  0  0  0  0
    4.2599    5.2422   17.5697 N   0  0  0  0  0  0  0  0  0  0  0  0
    4.0907    3.8916   17.5697 C   0  0  0  0  0  0  0  0  0  0  0  0
    4.2376    2.9841   18.5396 N   0  0  0  0  0  0  0  0  0  0  0  0
    4.6656    6.0182   18.7228 C   0  0  0  0  0  0  0  0  0  0  0  0
    3.7873    5.6973   19.8977 C   0  0  0  0  0  0  0  0  0  0  0  0
    4.4723    6.2672   21.1354 C   0  0  0  0  0  0  0  0  0  0  0  0
    4.9537    7.6644   20.9369 C   0  0  0  0  0  0  0  0  0  0  0  0
    4.5632    8.4641   22.0174 O   0  0  0  0  0  0  0  0  0  0  0  0
    4.4466    8.3206   19.6868 C   0  0  0  0  0  0  0  0  0  0  0  0
    4.6722    7.5040   18.4468 C   0  0  0  0  0  0  0  0  0  0  0  0
    5.0933    8.2895   22.8312 H   0  0  0  0  0  0  0  0  0  0  0  0
    3.2561    4.6675   14.1034 C   0  0  0  0  0  0  0  0  0  0  0  0
    4.1161    4.2220   13.1172 C   0  0  0  0  0  0  0  0  0  0  0  0
    3.7867    4.2609   11.7825 C   0  0  0  0  0  0  0  0  0  0  0  0
    2.5361    4.7736   11.4573 C   0  0  0  0  0  0  0  0  0  0  0  0
    1.6782    5.2166   12.4248 C   0  0  0  0  0  0  0  0  0  0  0  0
    2.0203    5.1717   13.7517 C   0  0  0  0  0  0  0  0  0  0  0  0
    2.0644    4.8516    9.7552 S   0  0  0  0  0  0  0  0  0  0  0  0
    0.8818    5.7970    9.6614 O   0  0  0  0  0  0  0  0  0  0  0  0
    3.1630    5.4083    8.9339 O   0  0  0  0  0  0  0  0  0  0  0  0
    1.5606    3.3033    9.2557 N   0  0  0  0  0  0  0  0  0  0  0  0
    2.5896    2.4877    8.7103 C   0  0  0  0  0  0  0  0  0  0  0  0
    3.0399    1.3722    9.6392 C   0  0  0  0  0  0  0  0  0  0  0  0
    1.9537    0.6327   10.0986 O   0  0  0  0  0  0  0  0  0  0  0  0
    1.1609    1.4644   10.8542 C   0  0  0  0  0  0  0  0  0  0  0  0
    0.6366    2.6608   10.1331 C   0  0  0  0  0  0  0  0  0  0  0  0
    4.1767    0.7102   19.3682 N   0  0  0  0  0  0  0  0  0  0  0  0
    4.8773   -0.0349   19.2173 H   0  0  0  0  0  0  0  0  0  0  0  0
    3.3692    0.8289   20.5454 C   0  0  0  0  0  0  0  0  0  0  0  0
    4.2112    0.9196   21.7964 C   0  0  0  0  0  0  0  0  0  0  0  0
    6.2870    2.2904   22.1628 C   0  0  0  0  0  0  0  0  0  0  0  0
    5.6363    1.1916   21.3501 C   0  0  0  0  0  0  0  0  0  0  0  0
 37 38  1  0  0  0
 38 36  1  0  0  0
 36 35  1  0  0  0
 35 33  1  0  0  0
 33  1  1  0  0  0
  1  2  2  0  0  0
  2  3  1  0  0  0
  3  4  2  0  0  0
  4  5  1  0  0  0
  5  6  2  0  0  0
  6  7  1  0  0  0
  7 10  1  0  0  0
 10 11  1  0  0  0
 11 12  1  0  0  0
 12 13  1  0  0  0
 13 14  1  0  0  0
 13 15  1  0  0  0
 15 16  1  0  0  0
  7  8  1  0  0  0
  8  9  2  0  0  0
  5 18  1  0  0  0
 18 19  2  0  0  0
 19 20  1  0  0  0
 20 21  2  0  0  0
 21 22  1  0  0  0
 22 23  2  0  0  0
 21 24  1  0  0  0
 24 25  2  0  0  0
 24 26  2  0  0  0
 24 27  1  0  0  0
 27 28  1  0  0  0
 28 29  1  0  0  0
 29 30  1  0  0  0
 30 31  1  0  0  0
 31 32  1  0  0  0
  9  1  1  0  0  0
 23 18  1  0  0  0
 32 27  1  0  0  0
  8  4  1  0  0  0
 16 10  1  0  0  0
 33 34  1  0  0  0
 14 17  1  0  0  0
M  END
> <minimizedAffinity>
-7.85287

> <CNNscore>
0.2467785627

> <CNNaffinity>
6.8720445633

> <CNN_VS>
1.6958732605

> <CNNaffinity_variance>
0.4167826176

$$$$
[H]OC1([H])C([H])([H])C([H])([H])C([H])(n2c([H])c(-c3c([H])c([H])c(S(=O)(=O)N4C([H])([H])C([H])([H])OC([H])([H])C4([H])[H])c([H])c3[H])c3c([H])nc(N([H])C([H])([H])C([H])([H])C([H])([H])C([H])([H])[H])nc32)C([H])([H])C1([H])[H]


 38 42  0  0  0  0  0  0  0  0999 V2000
    4.0454    2.5660   19.6437 C   0  0  0  0  0  0  0  0  0  0  0  0
    3.8674    1.7988   18.5587 N   0  0  0  0  0  0  0  0  0  0  0  0
    3.6592    2.2870   17.3322 C   0  0  0  0  0  0  0  0  0  0  0  0
    3.6260    3.6662   17.1765 C   0  0  0  0  0  0  0  0  0  0  0  0
    3.4443    4.5098   16.1133 C   0  0  0  0  0  0  0  0  0  0  0  0
    3.5210    5.8060   16.6052 C   0  0  0  0  0  0  0  0  0  0  0  0
    3.7428    5.7712   17.9307 N   0  0  0  0  0  0  0  0  0  0  0  0
    3.8112    4.4642   18.3050 C   0  0  0  0  0  0  0  0  0  0  0  0
    4.0142    3.8978   19.4982 N   0  0  0  0  0  0  0  0  0  0  0  0
    3.8892    6.8923   18.8351 C   0  0  0  0  0  0  0  0  0  0  0  0
    3.8137    8.1846   18.0740 C   0  0  0  0  0  0  0  0  0  0  0  0
    3.6246    9.2965   19.1006 C   0  0  0  0  0  0  0  0  0  0  0  0
    4.5568    9.1780   20.2582 C   0  0  0  0  0  0  0  0  0  0  0  0
    5.1601   10.4145   20.5164 O   0  0  0  0  0  0  0  0  0  0  0  0
    5.6551    8.1743   20.0665 C   0  0  0  0  0  0  0  0  0  0  0  0
    5.1628    6.8194   19.6453 C   0  0  0  0  0  0  0  0  0  0  0  0
    4.5456   11.0553   20.9470 H   0  0  0  0  0  0  0  0  0  0  0  0
    3.2098    4.1011   14.7245 C   0  0  0  0  0  0  0  0  0  0  0  0
    4.1347    4.3690   13.7328 C   0  0  0  0  0  0  0  0  0  0  0  0
    3.9356    3.9992   12.4231 C   0  0  0  0  0  0  0  0  0  0  0  0
    2.7499    3.3355   12.1295 C   0  0  0  0  0  0  0  0  0  0  0  0
    1.8289    3.0657   13.1028 C   0  0  0  0  0  0  0  0  0  0  0  0
    2.0410    3.4404   14.4044 C   0  0  0  0  0  0  0  0  0  0  0  0
    2.4411    2.8427   10.4599 S   0  0  0  0  0  0  0  0  0  0  0  0
    3.7553    2.9525    9.7104 O   0  0  0  0  0  0  0  0  0  0  0  0
    1.9985    1.4310   10.4055 O   0  0  0  0  0  0  0  0  0  0  0  0
    1.3293    3.9299    9.7655 N   0  0  0  0  0  0  0  0  0  0  0  0
   -0.0371    3.5727    9.9290 C   0  0  0  0  0  0  0  0  0  0  0  0
   -0.7722    4.4259   10.9496 C   0  0  0  0  0  0  0  0  0  0  0  0
   -0.5982    5.7820   10.6882 O   0  0  0  0  0  0  0  0  0  0  0  0
    0.7373    6.0760   10.8332 C   0  0  0  0  0  0  0  0  0  0  0  0
    1.6517    5.3094    9.9375 C   0  0  0  0  0  0  0  0  0  0  0  0
    4.2647    1.9640   20.9330 N   0  0  0  0  0  0  0  0  0  0  0  0
    3.8584    1.0264   21.0898 H   0  0  0  0  0  0  0  0  0  0  0  0
    5.0218    2.6867   21.9110 C   0  0  0  0  0  0  0  0  0  0  0  0
    6.3975    2.0938   22.1058 C   0  0  0  0  0  0  0  0  0  0  0  0
    7.4652    0.1104   20.9885 C   0  0  0  0  0  0  0  0  0  0  0  0
    6.2871    0.6120   21.7958 C   0  0  0  0  0  0  0  0  0  0  0  0
 37 38  1  0  0  0
 38 36  1  0  0  0
 36 35  1  0  0  0
 35 33  1  0  0  0
 33  1  1  0  0  0
  1  2  2  0  0  0
  2  3  1  0  0  0
  3  4  2  0  0  0
  4  5  1  0  0  0
  5  6  2  0  0  0
  6  7  1  0  0  0
  7 10  1  0  0  0
 10 11  1  0  0  0
 11 12  1  0  0  0
 12 13  1  0  0  0
 13 14  1  0  0  0
 13 15  1  0  0  0
 15 16  1  0  0  0
  7  8  1  0  0  0
  8  9  2  0  0  0
  5 18  1  0  0  0
 18 19  2  0  0  0
 19 20  1  0  0  0
 20 21  2  0  0  0
 21 22  1  0  0  0
 22 23  2  0  0  0
 21 24  1  0  0  0
 24 25  2  0  0  0
 24 26  2  0  0  0
 24 27  1  0  0  0
 27 28  1  0  0  0
 28 29  1  0  0  0
 29 30  1  0  0  0
 30 31  1  0  0  0
 31 32  1  0  0  0
  9  1  1  0  0  0
 23 18  1  0  0  0
 32 27  1  0  0  0
  8  4  1  0  0  0
 16 10  1  0  0  0
 33 34  1  0  0  0
 14 17  1  0  0  0
M  END
> <minimizedAffinity>
-7.45177

> <CNNscore>
0.2213577330

> <CNNaffinity>
6.6923398972

> <CNN_VS>
1.4814012051

> <CNNaffinity_variance>
0.4741353095

$$$$
[H]c1nc(N([H])[H])c2c(-c3c([H])c([H])c(N([H])C(=O)c4c([H])c([H])c([H])n(-c5c([H])c([H])c(F)c([H])c5[H])c4=O)c([H])c3[H])c([H])c(C3([H])C([H])([H])C3([H])[H])n2n1


 39 44  0  0  0  0  0  0  0  0999 V2000
    3.7861    3.1280   17.3737 C   0  0  0  0  0  0  0  0  0  0  0  0
    2.7930    4.0792   17.3866 C   0  0  0  0  0  0  0  0  0  0  0  0
    2.2930    4.6060   16.2277 C   0  0  0  0  0  0  0  0  0  0  0  0
    2.7853    4.1848   14.9886 C   0  0  0  0  0  0  0  0  0  0  0  0
    3.7794    3.2307   15.0113 C   0  0  0  0  0  0  0  0  0  0  0  0
    4.2806    2.7014   16.1961 C   0  0  0  0  0  0  0  0  0  0  0  0
    2.3116    0.3710   17.7670 N   0  0  0  0  0  0  0  0  0  0  0  0
    3.0007    0.4369   19.0067 C   0  0  0  0  0  0  0  0  0  0  0  0
    2.8118   -0.5896   19.8591 N   0  0  0  0  0  0  0  0  0  0  0  0
    3.4620   -0.5832   21.0487 C   0  0  0  0  0  0  0  0  0  0  0  0
    4.2876    0.4230   21.3905 N   0  0  0  0  0  0  0  0  0  0  0  0
    4.4666    1.4181   20.5567 N   0  0  0  0  0  0  0  0  0  0  0  0
    5.2508    2.5128   20.7035 C   0  0  0  0  0  0  0  0  0  0  0  0
    5.1061    3.2588   19.5565 C   0  0  0  0  0  0  0  0  0  0  0  0
    4.2189    2.6159   18.6902 C   0  0  0  0  0  0  0  0  0  0  0  0
    3.8402    1.4702   19.3452 C   0  0  0  0  0  0  0  0  0  0  0  0
    1.2647    0.4773   17.7216 H   0  0  0  0  0  0  0  0  0  0  0  0
    2.7887    0.2152   16.8494 H   0  0  0  0  0  0  0  0  0  0  0  0
    6.1276    2.9017   21.8319 C   0  0  0  0  0  0  0  0  0  0  0  0
    5.6220    2.8696   23.2271 C   0  0  0  0  0  0  0  0  0  0  0  0
    5.7195    4.1883   22.5511 C   0  0  0  0  0  0  0  0  0  0  0  0
    2.2266    4.7730   13.8289 N   0  0  0  0  0  0  0  0  0  0  0  0
    2.6148    4.5757   12.4932 C   0  0  0  0  0  0  0  0  0  0  0  0
    3.5811    3.8116   12.1354 O   0  0  0  0  0  0  0  0  0  0  0  0
    1.4410    5.4677   14.0278 H   0  0  0  0  0  0  0  0  0  0  0  0
    1.9092    5.2643   11.3954 C   0  0  0  0  0  0  0  0  0  0  0  0
    2.5769    6.2987   10.7275 C   0  0  0  0  0  0  0  0  0  0  0  0
    1.9363    6.9786    9.7326 C   0  0  0  0  0  0  0  0  0  0  0  0
    0.6479    6.6410    9.3983 C   0  0  0  0  0  0  0  0  0  0  0  0
    0.0187    5.6459   10.0450 N   0  0  0  0  0  0  0  0  0  0  0  0
    0.6463    4.9590   11.0406 C   0  0  0  0  0  0  0  0  0  0  0  0
   -0.0458    4.0534   11.5634 O   0  0  0  0  0  0  0  0  0  0  0  0
   -1.3104    5.3040    9.6729 C   0  0  0  0  0  0  0  0  0  0  0  0
   -1.5797    4.4367    8.6581 C   0  0  0  0  0  0  0  0  0  0  0  0
   -2.8735    4.1023    8.2886 C   0  0  0  0  0  0  0  0  0  0  0  0
   -3.9098    4.6938    9.0036 C   0  0  0  0  0  0  0  0  0  0  0  0
   -5.1755    4.3804    8.6538 F   0  0  0  0  0  0  0  0  0  0  0  0
   -3.6706    5.5677   10.0277 C   0  0  0  0  0  0  0  0  0  0  0  0
   -2.3558    5.8694   10.3581 C   0  0  0  0  0  0  0  0  0  0  0  0
  7  8  1  0  0  0
  8  9  2  0  0  0
  9 10  1  0  0  0
 10 11  2  0  0  0
 11 12  1  0  0  0
 12 13  1  0  0  0
 13 14  2  0  0  0
 14 15  1  0  0  0
 15  1  1  0  0  0
  1  2  2  0  0  0
  2  3  1  0  0  0
  3  4  2  0  0  0
  4 22  1  0  0  0
 22 23  1  0  0  0
 23 24  2  0  0  0
 23 26  1  0  0  0
 26 27  2  0  0  0
 27 28  1  0  0  0
 28 29  2  0  0  0
 29 30  1  0  0  0
 30 33  1  0  0  0
 33 34  2  0  0  0
 34 35  1  0  0  0
 35 36  2  0  0  0
 36 37  1  0  0  0
 36 38  1  0  0  0
 38 39  2  0  0  0
 30 31  1  0  0  0
 31 32  2  0  0  0
  4  5  1  0  0  0
  5  6  2  0  0  0
 15 16  2  0  0  0
 13 19  1  0  0  0
 19 20  1  0  0  0
 20 21  1  0  0  0
 16  8  1  0  0  0
 21 19  1  0  0  0
 16 12  1  0  0  0
  6  1  1  0  0  0
 31 26  1  0  0  0
 39 33  1  0  0  0
  7 17  1  0  0  0
  7 18  1  0  0  0
 22 25  1  0  0  0
M  END
> <minimizedAffinity>
-8.06399

> <CNNscore>
0.4779805839

> <CNNaffinity>
6.7720932961

> <CNN_VS>
3.2369291782

> <CNNaffinity_variance>
0.9649873972

$$$$
[H]c1nc(N([H])[H])c2c(-c3c([H])c([H])c(N([H])C(=O)c4c([H])c([H])c([H])n(-c5c([H])c([H])c(F)c([H])c5[H])c4=O)c([H])c3[H])c([H])c(C3([H])C([H])([H])C3([H])[H])n2n1


 39 44  0  0  0  0  0  0  0  0999 V2000
    3.6656    3.2449   17.0181 C   0  0  0  0  0  0  0  0  0  0  0  0
    2.6942    4.2182   17.0380 C   0  0  0  0  0  0  0  0  0  0  0  0
    2.2081    4.7663   15.8830 C   0  0  0  0  0  0  0  0  0  0  0  0
    2.6926    4.3447   14.6409 C   0  0  0  0  0  0  0  0  0  0  0  0
    3.6647    3.3681   14.6567 C   0  0  0  0  0  0  0  0  0  0  0  0
    4.1520    2.8173   15.8376 C   0  0  0  0  0  0  0  0  0  0  0  0
    2.1672    0.4943   17.3633 N   0  0  0  0  0  0  0  0  0  0  0  0
    2.8475    0.5382   18.6088 C   0  0  0  0  0  0  0  0  0  0  0  0
    2.6444   -0.4982   19.4458 N   0  0  0  0  0  0  0  0  0  0  0  0
    3.2858   -0.5129   20.6401 C   0  0  0  0  0  0  0  0  0  0  0  0
    4.1165    0.4823   21.0016 N   0  0  0  0  0  0  0  0  0  0  0  0
    4.3092    1.4871   20.1827 N   0  0  0  0  0  0  0  0  0  0  0  0
    5.1007    2.5736   20.3500 C   0  0  0  0  0  0  0  0  0  0  0  0
    4.9702    3.3361   19.2122 C   0  0  0  0  0  0  0  0  0  0  0  0
    4.0846    2.7118   18.3307 C   0  0  0  0  0  0  0  0  0  0  0  0
    3.6923    1.5603   18.9674 C   0  0  0  0  0  0  0  0  0  0  0  0
    1.1214    0.6093   17.3117 H   0  0  0  0  0  0  0  0  0  0  0  0
    2.6498    0.3472   16.4472 H   0  0  0  0  0  0  0  0  0  0  0  0
    5.9720    2.9405   21.4899 C   0  0  0  0  0  0  0  0  0  0  0  0
    5.6343    2.5070   22.8688 C   0  0  0  0  0  0  0  0  0  0  0  0
    5.3478    3.9143   22.4906 C   0  0  0  0  0  0  0  0  0  0  0  0
    2.1492    4.9554   13.4857 N   0  0  0  0  0  0  0  0  0  0  0  0
    1.1668    4.4408   12.6232 C   0  0  0  0  0  0  0  0  0  0  0  0
    0.6191    3.2901   12.7697 O   0  0  0  0  0  0  0  0  0  0  0  0
    2.5795    5.9034   13.2505 H   0  0  0  0  0  0  0  0  0  0  0  0
    0.7012    5.2230   11.4618 C   0  0  0  0  0  0  0  0  0  0  0  0
   -0.6775    5.2986   11.2264 C   0  0  0  0  0  0  0  0  0  0  0  0
   -1.1361    5.9838   10.1389 C   0  0  0  0  0  0  0  0  0  0  0  0
   -0.2427    6.5903    9.2905 C   0  0  0  0  0  0  0  0  0  0  0  0
    1.0771    6.5121    9.5279 N   0  0  0  0  0  0  0  0  0  0  0  0
    1.5488    5.8309   10.6098 C   0  0  0  0  0  0  0  0  0  0  0  0
    2.7978    5.8339   10.7218 O   0  0  0  0  0  0  0  0  0  0  0  0
    1.9835    7.1595    8.6440 C   0  0  0  0  0  0  0  0  0  0  0  0
    2.4107    8.4362    8.8495 C   0  0  0  0  0  0  0  0  0  0  0  0
    3.2915    9.0737    7.9893 C   0  0  0  0  0  0  0  0  0  0  0  0
    3.7347    8.3514    6.8862 C   0  0  0  0  0  0  0  0  0  0  0  0
    4.5906    8.9595    6.0376 F   0  0  0  0  0  0  0  0  0  0  0  0
    3.3239    7.0680    6.6539 C   0  0  0  0  0  0  0  0  0  0  0  0
    2.4404    6.4751    7.5464 C   0  0  0  0  0  0  0  0  0  0  0  0
  7  8  1  0  0  0
  8  9  2  0  0  0
  9 10  1  0  0  0
 10 11  2  0  0  0
 11 12  1  0  0  0
 12 13  1  0  0  0
 13 14  2  0  0  0
 14 15  1  0  0  0
 15  1  1  0  0  0
  1  2  2  0  0  0
  2  3  1  0  0  0
  3  4  2  0  0  0
  4 22  1  0  0  0
 22 23  1  0  0  0
 23 24  2  0  0  0
 23 26  1  0  0  0
 26 27  2  0  0  0
 27 28  1  0  0  0
 28 29  2  0  0  0
 29 30  1  0  0  0
 30 33  1  0  0  0
 33 34  2  0  0  0
 34 35  1  0  0  0
 35 36  2  0  0  0
 36 37  1  0  0  0
 36 38  1  0  0  0
 38 39  2  0  0  0
 30 31  1  0  0  0
 31 32  2  0  0  0
  4  5  1  0  0  0
  5  6  2  0  0  0
 15 16  2  0  0  0
 13 19  1  0  0  0
 19 20  1  0  0  0
 20 21  1  0  0  0
 16  8  1  0  0  0
 21 19  1  0  0  0
 16 12  1  0  0  0
  6  1  1  0  0  0
 31 26  1  0  0  0
 39 33  1  0  0  0
  7 17  1  0  0  0
  7 18  1  0  0  0
 22 25  1  0  0  0
M  END
> <minimizedAffinity>
-8.45669

> <CNNscore>
0.4756559134

> <CNNaffinity>
6.7553739548

> <CNN_VS>
3.2132334709

> <CNNaffinity_variance>
0.6334649324

$$$$
[H]c1nc(N([H])[H])c2c(-c3c([H])c([H])c(N([H])C(=O)c4c([H])c([H])c([H])n(-c5c([H])c([H])c(F)c([H])c5[H])c4=O)c([H])c3[H])c([H])c(C3([H])C([H])([H])C3([H])[H])n2n1


 39 44  0  0  0  0  0  0  0  0999 V2000
    2.8771    4.4284   15.1164 C   0  0  0  0  0  0  0  0  0  0  0  0
    3.8229    4.3116   14.1249 C   0  0  0  0  0  0  0  0  0  0  0  0
    3.6829    4.9524   12.9247 C   0  0  0  0  0  0  0  0  0  0  0  0
    2.5624    5.7507   12.6752 C   0  0  0  0  0  0  0  0  0  0  0  0
    1.6344    5.8465   13.6895 C   0  0  0  0  0  0  0  0  0  0  0  0
    1.7870    5.1904   14.9067 C   0  0  0  0  0  0  0  0  0  0  0  0
    2.1110    1.4155   14.6009 N   0  0  0  0  0  0  0  0  0  0  0  0
    2.5027    1.3187   15.9623 C   0  0  0  0  0  0  0  0  0  0  0  0
    2.4195    0.0996   16.5304 N   0  0  0  0  0  0  0  0  0  0  0  0
    2.7994   -0.0495   17.8232 C   0  0  0  0  0  0  0  0  0  0  0  0
    3.2557    0.9914   18.5439 N   0  0  0  0  0  0  0  0  0  0  0  0
    3.3339    2.1742   17.9849 N   0  0  0  0  0  0  0  0  0  0  0  0
    3.7667    3.3378   18.5268 C   0  0  0  0  0  0  0  0  0  0  0  0
    3.6639    4.2939   17.5428 C   0  0  0  0  0  0  0  0  0  0  0  0
    3.1592    3.7122   16.3774 C   0  0  0  0  0  0  0  0  0  0  0  0
    2.9658    2.3889   16.6883 C   0  0  0  0  0  0  0  0  0  0  0  0
    1.1018    1.3114   14.3178 H   0  0  0  0  0  0  0  0  0  0  0  0
    2.7827    1.5893   13.8184 H   0  0  0  0  0  0  0  0  0  0  0  0
    4.2751    3.6129   19.8903 C   0  0  0  0  0  0  0  0  0  0  0  0
    5.5124    4.4084   20.0889 C   0  0  0  0  0  0  0  0  0  0  0  0
    5.6015    2.9330   20.2327 C   0  0  0  0  0  0  0  0  0  0  0  0
    2.4780    6.3824   11.4116 N   0  0  0  0  0  0  0  0  0  0  0  0
    1.8557    5.8983   10.2488 C   0  0  0  0  0  0  0  0  0  0  0  0
    1.2677    4.7607   10.1738 O   0  0  0  0  0  0  0  0  0  0  0  0
    2.9837    7.3209   11.3589 H   0  0  0  0  0  0  0  0  0  0  0  0
    1.8499    6.6995    9.0097 C   0  0  0  0  0  0  0  0  0  0  0  0
    0.6244    6.9089    8.3645 C   0  0  0  0  0  0  0  0  0  0  0  0
    0.5927    7.6145    7.1967 C   0  0  0  0  0  0  0  0  0  0  0  0
    1.7597    8.1104    6.6695 C   0  0  0  0  0  0  0  0  0  0  0  0
    2.9286    7.9043    7.2985 N   0  0  0  0  0  0  0  0  0  0  0  0
    2.9749    7.2013    8.4649 C   0  0  0  0  0  0  0  0  0  0  0  0
    4.1232    7.0806    8.9539 O   0  0  0  0  0  0  0  0  0  0  0  0
    4.1229    8.4388    6.7420 C   0  0  0  0  0  0  0  0  0  0  0  0
    4.6192    9.6505    7.1162 C   0  0  0  0  0  0  0  0  0  0  0  0
    5.7812   10.1783    6.5745 C   0  0  0  0  0  0  0  0  0  0  0  0
    6.4381    9.4134    5.6161 C   0  0  0  0  0  0  0  0  0  0  0  0
    7.5696    9.9150    5.0771 F   0  0  0  0  0  0  0  0  0  0  0  0
    5.9644    8.1931    5.2207 C   0  0  0  0  0  0  0  0  0  0  0  0
    4.7957    7.7098    5.7944 C   0  0  0  0  0  0  0  0  0  0  0  0
  7  8  1  0  0  0
  8  9  2  0  0  0
  9 10  1  0  0  0
 10 11  2  0  0  0
 11 12  1  0  0  0
 12 13  1  0  0  0
 13 14  2  0  0  0
 14 15  1  0  0  0
 15  1  1  0  0  0
  1  2  2  0  0  0
  2  3  1  0  0  0
  3  4  2  0  0  0
  4 22  1  0  0  0
 22 23  1  0  0  0
 23 24  2  0  0  0
 23 26  1  0  0  0
 26 27  2  0  0  0
 27 28  1  0  0  0
 28 29  2  0  0  0
 29 30  1  0  0  0
 30 33  1  0  0  0
 33 34  2  0  0  0
 34 35  1  0  0  0
 35 36  2  0  0  0
 36 37  1  0  0  0
 36 38  1  0  0  0
 38 39  2  0  0  0
 30 31  1  0  0  0
 31 32  2  0  0  0
  4  5  1  0  0  0
  5  6  2  0  0  0
 15 16  2  0  0  0
 13 19  1  0  0  0
 19 20  1  0  0  0
 20 21  1  0  0  0
 16  8  1  0  0  0
 21 19  1  0  0  0
 16 12  1  0  0  0
  6  1  1  0  0  0
 31 26  1  0  0  0
 39 33  1  0  0  0
  7 17  1  0  0  0
  7 18  1  0  0  0
 22 25  1  0  0  0
M  END
> <minimizedAffinity>
-7.97955

> <CNNscore>
0.4689913094

> <CNNaffinity>
6.5484285355

> <CNN_VS>
3.0711560249

> <CNNaffinity_variance>
0.6212247610

$$$$
[H]c1nc(N([H])[H])c2c(-c3c([H])c([H])c(N([H])C(=O)c4c([H])c([H])c([H])n(-c5c([H])c([H])c(F)c([H])c5[H])c4=O)c([H])c3[H])c([H])c(C3([H])C([H])([H])C3([H])[H])n2n1


 39 44  0  0  0  0  0  0  0  0999 V2000
    4.0810    3.5055   17.9427 C   0  0  0  0  0  0  0  0  0  0  0  0
    3.0849    4.4381   17.7718 C   0  0  0  0  0  0  0  0  0  0  0  0
    2.8371    5.0034   16.5512 C   0  0  0  0  0  0  0  0  0  0  0  0
    3.5991    4.6418   15.4360 C   0  0  0  0  0  0  0  0  0  0  0  0
    4.5884    3.7048   15.6418 C   0  0  0  0  0  0  0  0  0  0  0  0
    4.8318    3.1360   16.8878 C   0  0  0  0  0  0  0  0  0  0  0  0
    2.9207    0.5783   17.8168 N   0  0  0  0  0  0  0  0  0  0  0  0
    3.2593    0.6275   19.1949 C   0  0  0  0  0  0  0  0  0  0  0  0
    2.9939   -0.4752   19.9227 N   0  0  0  0  0  0  0  0  0  0  0  0
    3.3155   -0.4856   21.2397 C   0  0  0  0  0  0  0  0  0  0  0  0
    3.8917    0.5784   21.8287 N   0  0  0  0  0  0  0  0  0  0  0  0
    4.1468    1.6475   21.1148 N   0  0  0  0  0  0  0  0  0  0  0  0
    4.7215    2.8092   21.5088 C   0  0  0  0  0  0  0  0  0  0  0  0
    4.7774    3.6186   20.3976 C   0  0  0  0  0  0  0  0  0  0  0  0
    4.2283    2.9473   19.3027 C   0  0  0  0  0  0  0  0  0  0  0  0
    3.8462    1.7201   19.7855 C   0  0  0  0  0  0  0  0  0  0  0  0
    1.9147    0.5693   17.5051 H   0  0  0  0  0  0  0  0  0  0  0  0
    3.6304    0.5469   17.0493 H   0  0  0  0  0  0  0  0  0  0  0  0
    5.2267    3.2079   22.8425 C   0  0  0  0  0  0  0  0  0  0  0  0
    4.9004    2.4022   24.0457 C   0  0  0  0  0  0  0  0  0  0  0  0
    4.1510    3.6658   23.8285 C   0  0  0  0  0  0  0  0  0  0  0  0
    3.2927    5.2674   14.2041 N   0  0  0  0  0  0  0  0  0  0  0  0
    3.6389    6.5643   13.7895 C   0  0  0  0  0  0  0  0  0  0  0  0
    4.2965    7.3942   14.5135 O   0  0  0  0  0  0  0  0  0  0  0  0
    2.7009    4.6696   13.5470 H   0  0  0  0  0  0  0  0  0  0  0  0
    3.2466    7.0571   12.4551 C   0  0  0  0  0  0  0  0  0  0  0  0
    2.1360    7.9058   12.3647 C   0  0  0  0  0  0  0  0  0  0  0  0
    1.7270    8.3478   11.1401 C   0  0  0  0  0  0  0  0  0  0  0  0
    2.4079    7.9569   10.0134 C   0  0  0  0  0  0  0  0  0  0  0  0
    3.4727    7.1440   10.1132 N   0  0  0  0  0  0  0  0  0  0  0  0
    3.8917    6.6949   11.3295 C   0  0  0  0  0  0  0  0  0  0  0  0
    4.8965    5.9458   11.2891 O   0  0  0  0  0  0  0  0  0  0  0  0
    4.1713    6.7631    8.9347 C   0  0  0  0  0  0  0  0  0  0  0  0
    5.1948    7.5037    8.4263 C   0  0  0  0  0  0  0  0  0  0  0  0
    5.8772    7.1393    7.2758 C   0  0  0  0  0  0  0  0  0  0  0  0
    5.4742    5.9672    6.6443 C   0  0  0  0  0  0  0  0  0  0  0  0
    6.1271    5.6003    5.5210 F   0  0  0  0  0  0  0  0  0  0  0  0
    4.4505    5.2025    7.1313 C   0  0  0  0  0  0  0  0  0  0  0  0
    3.7992    5.6123    8.2874 C   0  0  0  0  0  0  0  0  0  0  0  0
  7  8  1  0  0  0
  8  9  2  0  0  0
  9 10  1  0  0  0
 10 11  2  0  0  0
 11 12  1  0  0  0
 12 13  1  0  0  0
 13 14  2  0  0  0
 14 15  1  0  0  0
 15  1  1  0  0  0
  1  2  2  0  0  0
  2  3  1  0  0  0
  3  4  2  0  0  0
  4 22  1  0  0  0
 22 23  1  0  0  0
 23 24  2  0  0  0
 23 26  1  0  0  0
 26 27  2  0  0  0
 27 28  1  0  0  0
 28 29  2  0  0  0
 29 30  1  0  0  0
 30 33  1  0  0  0
 33 34  2  0  0  0
 34 35  1  0  0  0
 35 36  2  0  0  0
 36 37  1  0  0  0
 36 38  1  0  0  0
 38 39  2  0  0  0
 30 31  1  0  0  0
 31 32  2  0  0  0
  4  5  1  0  0  0
  5  6  2  0  0  0
 15 16  2  0  0  0
 13 19  1  0  0  0
 19 20  1  0  0  0
 20 21  1  0  0  0
 16  8  1  0  0  0
 21 19  1  0  0  0
 16 12  1  0  0  0
  6  1  1  0  0  0
 31 26  1  0  0  0
 39 33  1  0  0  0
  7 17  1  0  0  0
  7 18  1  0  0  0
 22 25  1  0  0  0
M  END
> <minimizedAffinity>
-8.10119

> <CNNscore>
0.3165952265

> <CNNaffinity>
6.5764579773

> <CNN_VS>
2.0820751190

> <CNNaffinity_variance>
0.7184398770

$$$$
[H]c1nc(N([H])[H])c2c(-c3c([H])c([H])c(N([H])C(=O)c4c([H])c([H])c([H])n(-c5c([H])c([H])c(F)c([H])c5[H])c4=O)c([H])c3[H])c([H])c(C3([H])C([H])([H])C3([H])[H])n2n1


 39 44  0  0  0  0  0  0  0  0999 V2000
    2.2304    4.4200   11.8113 C   0  0  0  0  0  0  0  0  0  0  0  0
    2.4548    3.0642   11.8596 C   0  0  0  0  0  0  0  0  0  0  0  0
    2.5038    2.3900   13.0487 C   0  0  0  0  0  0  0  0  0  0  0  0
    2.3242    3.0713   14.2565 C   0  0  0  0  0  0  0  0  0  0  0  0
    2.1011    4.4285   14.1723 C   0  0  0  0  0  0  0  0  0  0  0  0
    2.0531    5.1043   12.9573 C   0  0  0  0  0  0  0  0  0  0  0  0
   -0.6519    3.7958   10.7008 N   0  0  0  0  0  0  0  0  0  0  0  0
   -0.1210    4.4818    9.5767 C   0  0  0  0  0  0  0  0  0  0  0  0
   -0.9355    4.6196    8.5120 N   0  0  0  0  0  0  0  0  0  0  0  0
   -0.4822    5.2833    7.4202 C   0  0  0  0  0  0  0  0  0  0  0  0
    0.7582    5.8039    7.3816 N   0  0  0  0  0  0  0  0  0  0  0  0
    1.5449    5.6660    8.4207 N   0  0  0  0  0  0  0  0  0  0  0  0
    2.8121    6.1152    8.5864 C   0  0  0  0  0  0  0  0  0  0  0  0
    3.2074    5.7260    9.8455 C   0  0  0  0  0  0  0  0  0  0  0  0
    2.1697    5.0256   10.4650 C   0  0  0  0  0  0  0  0  0  0  0  0
    1.1476    5.0080    9.5484 C   0  0  0  0  0  0  0  0  0  0  0  0
   -0.8415    2.7603   10.6649 H   0  0  0  0  0  0  0  0  0  0  0  0
   -0.8823    4.2647   11.6068 H   0  0  0  0  0  0  0  0  0  0  0  0
    3.6696    6.8863    7.6573 C   0  0  0  0  0  0  0  0  0  0  0  0
    4.9797    7.4209    8.1060 C   0  0  0  0  0  0  0  0  0  0  0  0
    3.8369    8.3647    8.0117 C   0  0  0  0  0  0  0  0  0  0  0  0
    2.3905    2.3141   15.4503 N   0  0  0  0  0  0  0  0  0  0  0  0
    3.4410    2.2691   16.3820 C   0  0  0  0  0  0  0  0  0  0  0  0
    4.5343    2.9286   16.2585 O   0  0  0  0  0  0  0  0  0  0  0  0
    1.5411    1.6899   15.6183 H   0  0  0  0  0  0  0  0  0  0  0  0
    3.3391    1.4284   17.5904 C   0  0  0  0  0  0  0  0  0  0  0  0
    2.5632    0.2643   17.5215 C   0  0  0  0  0  0  0  0  0  0  0  0
    2.4200   -0.5136   18.6336 C   0  0  0  0  0  0  0  0  0  0  0  0
    3.0375   -0.1473   19.8042 C   0  0  0  0  0  0  0  0  0  0  0  0
    3.7803    0.9706   19.8573 N   0  0  0  0  0  0  0  0  0  0  0  0
    3.9315    1.7568   18.7546 C   0  0  0  0  0  0  0  0  0  0  0  0
    4.6497    2.7692   18.9324 O   0  0  0  0  0  0  0  0  0  0  0  0
    4.4220    1.3235   21.0762 C   0  0  0  0  0  0  0  0  0  0  0  0
    5.7737    1.2605   21.2295 C   0  0  0  0  0  0  0  0  0  0  0  0
    6.4046    1.5999   22.4166 C   0  0  0  0  0  0  0  0  0  0  0  0
    5.5948    2.0161   23.4682 C   0  0  0  0  0  0  0  0  0  0  0  0
    6.1941    2.3473   24.6317 F   0  0  0  0  0  0  0  0  0  0  0  0
    4.2351    2.0901   23.3440 C   0  0  0  0  0  0  0  0  0  0  0  0
    3.6526    1.7386   22.1333 C   0  0  0  0  0  0  0  0  0  0  0  0
  7  8  1  0  0  0
  8  9  2  0  0  0
  9 10  1  0  0  0
 10 11  2  0  0  0
 11 12  1  0  0  0
 12 13  1  0  0  0
 13 14  2  0  0  0
 14 15  1  0  0  0
 15  1  1  0  0  0
  1  2  2  0  0  0
  2  3  1  0  0  0
  3  4  2  0  0  0
  4 22  1  0  0  0
 22 23  1  0  0  0
 23 24  2  0  0  0
 23 26  1  0  0  0
 26 27  2  0  0  0
 27 28  1  0  0  0
 28 29  2  0  0  0
 29 30  1  0  0  0
 30 33  1  0  0  0
 33 34  2  0  0  0
 34 35  1  0  0  0
 35 36  2  0  0  0
 36 37  1  0  0  0
 36 38  1  0  0  0
 38 39  2  0  0  0
 30 31  1  0  0  0
 31 32  2  0  0  0
  4  5  1  0  0  0
  5  6  2  0  0  0
 15 16  2  0  0  0
 13 19  1  0  0  0
 19 20  1  0  0  0
 20 21  1  0  0  0
 16  8  1  0  0  0
 21 19  1  0  0  0
 16 12  1  0  0  0
  6  1  1  0  0  0
 31 26  1  0  0  0
 39 33  1  0  0  0
  7 17  1  0  0  0
  7 18  1  0  0  0
 22 25  1  0  0  0
M  END
> <minimizedAffinity>
-8.44629

> <CNNscore>
0.2114378214

> <CNNaffinity>
6.3673768044

> <CNN_VS>
1.3463042974

> <CNNaffinity_variance>
0.2441424131

$$$$
[H]c1nc(N([H])[H])c2c(-c3c([H])c([H])c(N([H])C(=O)c4c([H])c([H])c([H])n(-c5c([H])c([H])c(F)c([H])c5[H])c4=O)c([H])c3[H])c([H])c(C3([H])C([H])([H])C3([H])[H])n2n1


 39 44  0  0  0  0  0  0  0  0999 V2000
    3.9080    4.1756   17.5446 C   0  0  0  0  0  0  0  0  0  0  0  0
    2.6814    4.7779   17.3899 C   0  0  0  0  0  0  0  0  0  0  0  0
    2.1814    5.0729   16.1514 C   0  0  0  0  0  0  0  0  0  0  0  0
    2.9137    4.7651   15.0008 C   0  0  0  0  0  0  0  0  0  0  0  0
    4.1381    4.1620   15.1913 C   0  0  0  0  0  0  0  0  0  0  0  0
    4.6371    3.8662   16.4557 C   0  0  0  0  0  0  0  0  0  0  0  0
    3.3824    1.0993   17.9802 N   0  0  0  0  0  0  0  0  0  0  0  0
    3.8565    1.4326   19.2764 C   0  0  0  0  0  0  0  0  0  0  0  0
    3.9129    0.4309   20.1761 N   0  0  0  0  0  0  0  0  0  0  0  0
    4.3761    0.6936   21.4228 C   0  0  0  0  0  0  0  0  0  0  0  0
    4.7785    1.9285   21.7750 N   0  0  0  0  0  0  0  0  0  0  0  0
    4.7209    2.8979   20.8950 N   0  0  0  0  0  0  0  0  0  0  0  0
    5.0792    4.1958   21.0431 C   0  0  0  0  0  0  0  0  0  0  0  0
    4.8378    4.8121   19.8369 C   0  0  0  0  0  0  0  0  0  0  0  0
    4.3220    3.8814   18.9320 C   0  0  0  0  0  0  0  0  0  0  0  0
    4.2635    2.6975   19.6248 C   0  0  0  0  0  0  0  0  0  0  0  0
    2.3721    0.8484   17.8197 H   0  0  0  0  0  0  0  0  0  0  0  0
    3.9914    1.0812   17.1302 H   0  0  0  0  0  0  0  0  0  0  0  0
    5.6368    4.8924   22.2251 C   0  0  0  0  0  0  0  0  0  0  0  0
    6.2452    6.2396   22.0906 C   0  0  0  0  0  0  0  0  0  0  0  0
    7.1555    5.0724   22.2100 C   0  0  0  0  0  0  0  0  0  0  0  0
    2.3399    5.1004   13.7513 N   0  0  0  0  0  0  0  0  0  0  0  0
    2.0414    6.3820   13.2592 C   0  0  0  0  0  0  0  0  0  0  0  0
    2.2468    7.4650   13.9152 O   0  0  0  0  0  0  0  0  0  0  0  0
    2.0859    4.2574   13.1480 H   0  0  0  0  0  0  0  0  0  0  0  0
    1.4520    6.5539   11.9174 C   0  0  0  0  0  0  0  0  0  0  0  0
    0.1164    6.1764   11.7295 C   0  0  0  0  0  0  0  0  0  0  0  0
   -0.4450    6.2890   10.4907 C   0  0  0  0  0  0  0  0  0  0  0  0
    0.3042    6.7708    9.4455 C   0  0  0  0  0  0  0  0  0  0  0  0
    1.5837    7.1312    9.6386 N   0  0  0  0  0  0  0  0  0  0  0  0
    2.1570    7.0236   10.8702 C   0  0  0  0  0  0  0  0  0  0  0  0
    3.3538    7.3943   10.9206 O   0  0  0  0  0  0  0  0  0  0  0  0
    2.3367    7.6405    8.5453 C   0  0  0  0  0  0  0  0  0  0  0  0
    2.3979    8.9715    8.2636 C   0  0  0  0  0  0  0  0  0  0  0  0
    3.1275    9.4736    7.1969 C   0  0  0  0  0  0  0  0  0  0  0  0
    3.8099    8.5542    6.4070 C   0  0  0  0  0  0  0  0  0  0  0  0
    4.5227    9.0273    5.3627 F   0  0  0  0  0  0  0  0  0  0  0  0
    3.7679    7.2120    6.6654 C   0  0  0  0  0  0  0  0  0  0  0  0
    3.0219    6.7607    7.7464 C   0  0  0  0  0  0  0  0  0  0  0  0
  7  8  1  0  0  0
  8  9  2  0  0  0
  9 10  1  0  0  0
 10 11  2  0  0  0
 11 12  1  0  0  0
 12 13  1  0  0  0
 13 14  2  0  0  0
 14 15  1  0  0  0
 15  1  1  0  0  0
  1  2  2  0  0  0
  2  3  1  0  0  0
  3  4  2  0  0  0
  4 22  1  0  0  0
 22 23  1  0  0  0
 23 24  2  0  0  0
 23 26  1  0  0  0
 26 27  2  0  0  0
 27 28  1  0  0  0
 28 29  2  0  0  0
 29 30  1  0  0  0
 30 33  1  0  0  0
 33 34  2  0  0  0
 34 35  1  0  0  0
 35 36  2  0  0  0
 36 37  1  0  0  0
 36 38  1  0  0  0
 38 39  2  0  0  0
 30 31  1  0  0  0
 31 32  2  0  0  0
  4  5  1  0  0  0
  5  6  2  0  0  0
 15 16  2  0  0  0
 13 19  1  0  0  0
 19 20  1  0  0  0
 20 21  1  0  0  0
 16  8  1  0  0  0
 21 19  1  0  0  0
 16 12  1  0  0  0
  6  1  1  0  0  0
 31 26  1  0  0  0
 39 33  1  0  0  0
  7 17  1  0  0  0
  7 18  1  0  0  0
 22 25  1  0  0  0
M  END
> <minimizedAffinity>
-8.38826

> <CNNscore>
0.1406325400

> <CNNaffinity>
6.1463804245

> <CNN_VS>
0.8643810749

> <CNNaffinity_variance>
0.5425169468

$$$$
[H]c1nc(N([H])[H])c2c(-c3c([H])c([H])c(N([H])C(=O)c4c([H])c([H])c([H])n(-c5c([H])c([H])c(F)c([H])c5[H])c4=O)c([H])c3[H])c([H])c(C3([H])C([H])([H])C3([H])[H])n2n1


 39 44  0  0  0  0  0  0  0  0999 V2000
    2.2447    4.8300   12.9207 C   0  0  0  0  0  0  0  0  0  0  0  0
    3.4621    4.5097   13.4743 C   0  0  0  0  0  0  0  0  0  0  0  0
    3.7624    4.8244   14.7711 C   0  0  0  0  0  0  0  0  0  0  0  0
    2.8278    5.4861   15.5734 C   0  0  0  0  0  0  0  0  0  0  0  0
    1.6183    5.7919   14.9881 C   0  0  0  0  0  0  0  0  0  0  0  0
    1.3232    5.4670   13.6680 C   0  0  0  0  0  0  0  0  0  0  0  0
    1.0392    1.9217   13.0570 N   0  0  0  0  0  0  0  0  0  0  0  0
    1.1092    2.0707   11.6467 C   0  0  0  0  0  0  0  0  0  0  0  0
    0.6887    1.0262   10.9064 N   0  0  0  0  0  0  0  0  0  0  0  0
    0.7179    1.1256    9.5547 C   0  0  0  0  0  0  0  0  0  0  0  0
    1.1556    2.2418    8.9435 N   0  0  0  0  0  0  0  0  0  0  0  0
    1.5631    3.2538    9.6697 N   0  0  0  0  0  0  0  0  0  0  0  0
    2.0297    4.4565    9.2566 C   0  0  0  0  0  0  0  0  0  0  0  0
    2.3211    5.1778   10.3914 C   0  0  0  0  0  0  0  0  0  0  0  0
    2.0313    4.4087   11.5208 C   0  0  0  0  0  0  0  0  0  0  0  0
    1.5592    3.2149   11.0340 C   0  0  0  0  0  0  0  0  0  0  0  0
    1.6788    1.2565   13.5649 H   0  0  0  0  0  0  0  0  0  0  0  0
    0.3655    2.4474   13.6600 H   0  0  0  0  0  0  0  0  0  0  0  0
    2.2119    4.9771    7.8822 C   0  0  0  0  0  0  0  0  0  0  0  0
    2.3459    6.4351    7.6384 C   0  0  0  0  0  0  0  0  0  0  0  0
    1.0384    5.7961    7.3426 C   0  0  0  0  0  0  0  0  0  0  0  0
    3.2040    5.7849   16.9046 N   0  0  0  0  0  0  0  0  0  0  0  0
    3.9954    6.8551   17.3542 C   0  0  0  0  0  0  0  0  0  0  0  0
    4.5162    7.7338   16.5783 O   0  0  0  0  0  0  0  0  0  0  0  0
    2.8569    5.0777   17.6248 H   0  0  0  0  0  0  0  0  0  0  0  0
    4.2816    7.0269   18.7915 C   0  0  0  0  0  0  0  0  0  0  0  0
    4.4846    8.3262   19.2737 C   0  0  0  0  0  0  0  0  0  0  0  0
    4.7877    8.5135   20.5911 C   0  0  0  0  0  0  0  0  0  0  0  0
    4.8891    7.4285   21.4268 C   0  0  0  0  0  0  0  0  0  0  0  0
    4.6905    6.1874   20.9528 N   0  0  0  0  0  0  0  0  0  0  0  0
    4.3876    5.9859   19.6396 C   0  0  0  0  0  0  0  0  0  0  0  0
    4.2236    4.7839   19.3225 O   0  0  0  0  0  0  0  0  0  0  0  0
    4.7868    5.0795   21.8390 C   0  0  0  0  0  0  0  0  0  0  0  0
    5.8800    4.2680   21.8702 C   0  0  0  0  0  0  0  0  0  0  0  0
    5.9780    3.1843   22.7294 C   0  0  0  0  0  0  0  0  0  0  0  0
    4.9007    2.9480   23.5771 C   0  0  0  0  0  0  0  0  0  0  0  0
    4.9798    1.8947   24.4178 F   0  0  0  0  0  0  0  0  0  0  0  0
    3.7900    3.7457   23.5690 C   0  0  0  0  0  0  0  0  0  0  0  0
    3.7418    4.8186   22.6886 C   0  0  0  0  0  0  0  0  0  0  0  0
  7  8  1  0  0  0
  8  9  2  0  0  0
  9 10  1  0  0  0
 10 11  2  0  0  0
 11 12  1  0  0  0
 12 13  1  0  0  0
 13 14  2  0  0  0
 14 15  1  0  0  0
 15  1  1  0  0  0
  1  2  2  0  0  0
  2  3  1  0  0  0
  3  4  2  0  0  0
  4 22  1  0  0  0
 22 23  1  0  0  0
 23 24  2  0  0  0
 23 26  1  0  0  0
 26 27  2  0  0  0
 27 28  1  0  0  0
 28 29  2  0  0  0
 29 30  1  0  0  0
 30 33  1  0  0  0
 33 34  2  0  0  0
 34 35  1  0  0  0
 35 36  2  0  0  0
 36 37  1  0  0  0
 36 38  1  0  0  0
 38 39  2  0  0  0
 30 31  1  0  0  0
 31 32  2  0  0  0
  4  5  1  0  0  0
  5  6  2  0  0  0
 15 16  2  0  0  0
 13 19  1  0  0  0
 19 20  1  0  0  0
 20 21  1  0  0  0
 16  8  1  0  0  0
 21 19  1  0  0  0
 16 12  1  0  0  0
  6  1  1  0  0  0
 31 26  1  0  0  0
 39 33  1  0  0  0
  7 17  1  0  0  0
  7 18  1  0  0  0
 22 25  1  0  0  0
M  END
> <minimizedAffinity>
-8.34109

> <CNNscore>
0.1305489540

> <CNNaffinity>
6.1118507385

> <CNN_VS>
0.7978957295

> <CNNaffinity_variance>
0.8220894933

$$$$
[H]c1nc(N([H])[H])c2c(-c3c([H])c([H])c(N([H])C(=O)c4c([H])c([H])c([H])n(-c5c([H])c([H])c(F)c([H])c5[H])c4=O)c([H])c3[H])c([H])c(C3([H])C([H])([H])C3([H])[H])n2n1


 39 44  0  0  0  0  0  0  0  0999 V2000
    3.6422    4.1624   17.7513 C   0  0  0  0  0  0  0  0  0  0  0  0
    4.6711    4.0743   16.8432 C   0  0  0  0  0  0  0  0  0  0  0  0
    4.5299    4.5202   15.5579 C   0  0  0  0  0  0  0  0  0  0  0  0
    3.3226    5.0828   15.1326 C   0  0  0  0  0  0  0  0  0  0  0  0
    2.3127    5.1563   16.0673 C   0  0  0  0  0  0  0  0  0  0  0  0
    2.4672    4.6998   17.3723 C   0  0  0  0  0  0  0  0  0  0  0  0
    3.8205    6.7245   19.5772 N   0  0  0  0  0  0  0  0  0  0  0  0
    4.1112    5.7331   20.5512 C   0  0  0  0  0  0  0  0  0  0  0  0
    4.3508    6.1677   21.8040 N   0  0  0  0  0  0  0  0  0  0  0  0
    4.6151    5.2590   22.7748 C   0  0  0  0  0  0  0  0  0  0  0  0
    4.6414    3.9397   22.5111 N   0  0  0  0  0  0  0  0  0  0  0  0
    4.4075    3.5240   21.2904 N   0  0  0  0  0  0  0  0  0  0  0  0
    4.3802    2.2536   20.8211 C   0  0  0  0  0  0  0  0  0  0  0  0
    4.0856    2.3346   19.4796 C   0  0  0  0  0  0  0  0  0  0  0  0
    3.9301    3.6742   19.1157 C   0  0  0  0  0  0  0  0  0  0  0  0
    4.1365    4.3887   20.2698 C   0  0  0  0  0  0  0  0  0  0  0  0
    4.5639    7.3919   19.2434 H   0  0  0  0  0  0  0  0  0  0  0  0
    2.8761    6.8500   19.1458 H   0  0  0  0  0  0  0  0  0  0  0  0
    4.6005    0.9771   21.5388 C   0  0  0  0  0  0  0  0  0  0  0  0
    3.8363   -0.2400   21.1672 C   0  0  0  0  0  0  0  0  0  0  0  0
    3.4183    0.5010   22.3844 C   0  0  0  0  0  0  0  0  0  0  0  0
    3.2427    5.5207   13.7891 N   0  0  0  0  0  0  0  0  0  0  0  0
    3.3791    6.8318   13.3032 C   0  0  0  0  0  0  0  0  0  0  0  0
    3.5896    7.8526   14.0509 O   0  0  0  0  0  0  0  0  0  0  0  0
    3.0199    4.7451   13.0905 H   0  0  0  0  0  0  0  0  0  0  0  0
    3.2798    7.1123   11.8580 C   0  0  0  0  0  0  0  0  0  0  0  0
    2.3107    8.0276   11.4280 C   0  0  0  0  0  0  0  0  0  0  0  0
    2.1703    8.2795   10.0941 C   0  0  0  0  0  0  0  0  0  0  0  0
    2.9795    7.6347    9.1911 C   0  0  0  0  0  0  0  0  0  0  0  0
    3.9065    6.7603    9.6160 N   0  0  0  0  0  0  0  0  0  0  0  0
    4.0572    6.4990   10.9448 C   0  0  0  0  0  0  0  0  0  0  0  0
    4.9569    5.6676   11.2124 O   0  0  0  0  0  0  0  0  0  0  0  0
    4.7429    6.1144    8.6645 C   0  0  0  0  0  0  0  0  0  0  0  0
    4.3983    4.9348    8.0776 C   0  0  0  0  0  0  0  0  0  0  0  0
    5.2113    4.2987    7.1521 C   0  0  0  0  0  0  0  0  0  0  0  0
    6.4159    4.9180    6.8352 C   0  0  0  0  0  0  0  0  0  0  0  0
    7.2200    4.3094    5.9375 F   0  0  0  0  0  0  0  0  0  0  0  0
    6.7887    6.1027    7.4074 C   0  0  0  0  0  0  0  0  0  0  0  0
    5.9379    6.6986    8.3292 C   0  0  0  0  0  0  0  0  0  0  0  0
  7  8  1  0  0  0
  8  9  2  0  0  0
  9 10  1  0  0  0
 10 11  2  0  0  0
 11 12  1  0  0  0
 12 13  1  0  0  0
 13 14  2  0  0  0
 14 15  1  0  0  0
 15  1  1  0  0  0
  1  2  2  0  0  0
  2  3  1  0  0  0
  3  4  2  0  0  0
  4 22  1  0  0  0
 22 23  1  0  0  0
 23 24  2  0  0  0
 23 26  1  0  0  0
 26 27  2  0  0  0
 27 28  1  0  0  0
 28 29  2  0  0  0
 29 30  1  0  0  0
 30 33  1  0  0  0
 33 34  2  0  0  0
 34 35  1  0  0  0
 35 36  2  0  0  0
 36 37  1  0  0  0
 36 38  1  0  0  0
 38 39  2  0  0  0
 30 31  1  0  0  0
 31 32  2  0  0  0
  4  5  1  0  0  0
  5  6  2  0  0  0
 15 16  2  0  0  0
 13 19  1  0  0  0
 19 20  1  0  0  0
 20 21  1  0  0  0
 16  8  1  0  0  0
 21 19  1  0  0  0
 16 12  1  0  0  0
  6  1  1  0  0  0
 31 26  1  0  0  0
 39 33  1  0  0  0
  7 17  1  0  0  0
  7 18  1  0  0  0
 22 25  1  0  0  0
M  END
> <minimizedAffinity>
-8.05950

> <CNNscore>
0.1259230524

> <CNNaffinity>
6.2300653458

> <CNN_VS>
0.7845088243

> <CNNaffinity_variance>
0.5445917845

$$$$
[H]c1nc(N([H])[H])c2c(-c3c([H])c([H])c(N([H])C(=O)c4c([H])c([H])c([H])n(-c5c([H])c([H])c(F)c([H])c5[H])c4=O)c([H])c3[H])c([H])c(C3([H])C([H])([H])C3([H])[H])n2n1


 39 44  0  0  0  0  0  0  0  0999 V2000
    3.6808    2.5936   16.8382 C   0  0  0  0  0  0  0  0  0  0  0  0
    2.8141    1.5948   16.4609 C   0  0  0  0  0  0  0  0  0  0  0  0
    2.4485    1.4218   15.1543 C   0  0  0  0  0  0  0  0  0  0  0  0
    2.9535    2.2656   14.1604 C   0  0  0  0  0  0  0  0  0  0  0  0
    3.8194    3.2553   14.5722 C   0  0  0  0  0  0  0  0  0  0  0  0
    4.1848    3.4223   15.9041 C   0  0  0  0  0  0  0  0  0  0  0  0
    2.9275    5.5023   17.7881 N   0  0  0  0  0  0  0  0  0  0  0  0
    3.4535    4.9965   19.0062 C   0  0  0  0  0  0  0  0  0  0  0  0
    3.4645    5.8402   20.0569 N   0  0  0  0  0  0  0  0  0  0  0  0
    3.9396    5.3995   21.2477 C   0  0  0  0  0  0  0  0  0  0  0  0
    4.3966    4.1427   21.3980 N   0  0  0  0  0  0  0  0  0  0  0  0
    4.3831    3.3276   20.3718 N   0  0  0  0  0  0  0  0  0  0  0  0
    4.7869    2.0359   20.3134 C   0  0  0  0  0  0  0  0  0  0  0  0
    4.5671    1.6116   19.0232 C   0  0  0  0  0  0  0  0  0  0  0  0
    4.0210    2.6567   18.2745 C   0  0  0  0  0  0  0  0  0  0  0  0
    3.9186    3.7117   19.1472 C   0  0  0  0  0  0  0  0  0  0  0  0
    3.4425    6.2389   17.2389 H   0  0  0  0  0  0  0  0  0  0  0  0
    2.0209    5.1842   17.3751 H   0  0  0  0  0  0  0  0  0  0  0  0
    5.3522    1.1744   21.3771 C   0  0  0  0  0  0  0  0  0  0  0  0
    6.4080    1.6891   22.2845 C   0  0  0  0  0  0  0  0  0  0  0  0
    6.8180    0.7852   21.1799 C   0  0  0  0  0  0  0  0  0  0  0  0
    2.5318    2.0337   12.8295 N   0  0  0  0  0  0  0  0  0  0  0  0
    1.3660    2.5052   12.2031 C   0  0  0  0  0  0  0  0  0  0  0  0
    0.4837    3.2296   12.7880 O   0  0  0  0  0  0  0  0  0  0  0  0
    3.1807    1.3958   12.2715 H   0  0  0  0  0  0  0  0  0  0  0  0
    1.0848    2.1765   10.7923 C   0  0  0  0  0  0  0  0  0  0  0  0
    0.6803    0.8709   10.4864 C   0  0  0  0  0  0  0  0  0  0  0  0
    0.4490    0.5273    9.1860 C   0  0  0  0  0  0  0  0  0  0  0  0
    0.6144    1.4636    8.1951 C   0  0  0  0  0  0  0  0  0  0  0  0
    1.0011    2.7130    8.5014 N   0  0  0  0  0  0  0  0  0  0  0  0
    1.2359    3.0696    9.7954 C   0  0  0  0  0  0  0  0  0  0  0  0
    1.5883    4.2631    9.9500 O   0  0  0  0  0  0  0  0  0  0  0  0
    1.1527    3.6702    7.4608 C   0  0  0  0  0  0  0  0  0  0  0  0
    2.3444    3.8806    6.8362 C   0  0  0  0  0  0  0  0  0  0  0  0
    2.4990    4.8149    5.8236 C   0  0  0  0  0  0  0  0  0  0  0  0
    1.3733    5.5457    5.4581 C   0  0  0  0  0  0  0  0  0  0  0  0
    1.5084    6.4615    4.4754 F   0  0  0  0  0  0  0  0  0  0  0  0
    0.1634    5.3562    6.0664 C   0  0  0  0  0  0  0  0  0  0  0  0
    0.0620    4.4077    7.0758 C   0  0  0  0  0  0  0  0  0  0  0  0
  7  8  1  0  0  0
  8  9  2  0  0  0
  9 10  1  0  0  0
 10 11  2  0  0  0
 11 12  1  0  0  0
 12 13  1  0  0  0
 13 14  2  0  0  0
 14 15  1  0  0  0
 15  1  1  0  0  0
  1  2  2  0  0  0
  2  3  1  0  0  0
  3  4  2  0  0  0
  4 22  1  0  0  0
 22 23  1  0  0  0
 23 24  2  0  0  0
 23 26  1  0  0  0
 26 27  2  0  0  0
 27 28  1  0  0  0
 28 29  2  0  0  0
 29 30  1  0  0  0
 30 33  1  0  0  0
 33 34  2  0  0  0
 34 35  1  0  0  0
 35 36  2  0  0  0
 36 37  1  0  0  0
 36 38  1  0  0  0
 38 39  2  0  0  0
 30 31  1  0  0  0
 31 32  2  0  0  0
  4  5  1  0  0  0
  5  6  2  0  0  0
 15 16  2  0  0  0
 13 19  1  0  0  0
 19 20  1  0  0  0
 20 21  1  0  0  0
 16  8  1  0  0  0
 21 19  1  0  0  0
 16 12  1  0  0  0
  6  1  1  0  0  0
 31 26  1  0  0  0
 39 33  1  0  0  0
  7 17  1  0  0  0
  7 18  1  0  0  0
 22 25  1  0  0  0
M  END
> <minimizedAffinity>
-8.48623

> <CNNscore>
0.1223306805

> <CNNaffinity>
6.0464644432

> <CNN_VS>
0.7396681309

> <CNNaffinity_variance>
0.2149188966

$$$$
[H]OC1([H])C([H])([H])C([H])([H])C([H])(n2c([H])c(-c3c([H])c([H])c(S(=O)(=O)C([H])([H])[H])c([H])c3[H])c3c([H])nc(N([H])C([H])([H])C([H])([H])C([H])([H])C([H])([H])[H])nc32)C([H])([H])C1([H])[H]


 33 36  0  0  0  0  0  0  0  0999 V2000
    2.9837    0.2451   18.8189 C   0  0  0  0  0  0  0  0  0  0  0  0
    2.2849   -0.1908   17.7364 N   0  0  0  0  0  0  0  0  0  0  0  0
    2.3335    0.4876   16.5950 C   0  0  0  0  0  0  0  0  0  0  0  0
    3.0988    1.6316   16.5287 C   0  0  0  0  0  0  0  0  0  0  0  0
    3.3716    2.5465   15.5586 C   0  0  0  0  0  0  0  0  0  0  0  0
    4.2154    3.4896   16.0878 C   0  0  0  0  0  0  0  0  0  0  0  0
    4.4828    3.1916   17.3710 N   0  0  0  0  0  0  0  0  0  0  0  0
    3.8172    2.0785   17.6441 C   0  0  0  0  0  0  0  0  0  0  0  0
    3.7345    1.3658   18.7570 N   0  0  0  0  0  0  0  0  0  0  0  0
    5.3484    4.0070   18.1974 C   0  0  0  0  0  0  0  0  0  0  0  0
    4.5607    4.4139   19.4081 C   0  0  0  0  0  0  0  0  0  0  0  0
    5.2819    5.3193   20.3403 C   0  0  0  0  0  0  0  0  0  0  0  0
    6.0824    6.3933   19.6654 C   0  0  0  0  0  0  0  0  0  0  0  0
    7.0474    6.8276   20.5994 O   0  0  0  0  0  0  0  0  0  0  0  0
    6.8183    5.9167   18.4609 C   0  0  0  0  0  0  0  0  0  0  0  0
    5.8244    5.2449   17.5029 C   0  0  0  0  0  0  0  0  0  0  0  0
    7.5225    6.0178   20.9262 H   0  0  0  0  0  0  0  0  0  0  0  0
    2.8294    2.4809   14.1850 C   0  0  0  0  0  0  0  0  0  0  0  0
    1.6528    1.8154   13.9696 C   0  0  0  0  0  0  0  0  0  0  0  0
    1.1328    1.7499   12.6992 C   0  0  0  0  0  0  0  0  0  0  0  0
    1.7871    2.3494   11.6386 C   0  0  0  0  0  0  0  0  0  0  0  0
    2.9768    3.0163   11.8882 C   0  0  0  0  0  0  0  0  0  0  0  0
    3.4900    3.0782   13.1572 C   0  0  0  0  0  0  0  0  0  0  0  0
    1.1056    2.2499   10.0430 S   0  0  0  0  0  0  0  0  0  0  0  0
    2.4593    2.2947    8.8804 C   0  0  0  0  0  0  0  0  0  0  0  0
    0.1492    3.3628    9.8248 O   0  0  0  0  0  0  0  0  0  0  0  0
    0.3931    0.9148    9.9418 O   0  0  0  0  0  0  0  0  0  0  0  0
    2.8906   -0.5195   20.0005 N   0  0  0  0  0  0  0  0  0  0  0  0
    2.0268   -1.0830   20.1611 H   0  0  0  0  0  0  0  0  0  0  0  0
    3.9302   -0.5532   20.9849 C   0  0  0  0  0  0  0  0  0  0  0  0
    4.3206    0.8024   21.4775 C   0  0  0  0  0  0  0  0  0  0  0  0
    3.8502    2.7615   22.8417 C   0  0  0  0  0  0  0  0  0  0  0  0
    3.4238    1.3166   22.5702 C   0  0  0  0  0  0  0  0  0  0  0  0
 32 33  1  0  0  0
 33 31  1  0  0  0
 31 30  1  0  0  0
 30 28  1  0  0  0
 28  1  1  0  0  0
  1  2  2  0  0  0
  2  3  1  0  0  0
  3  4  2  0  0  0
  4  5  1  0  0  0
  5  6  2  0  0  0
  6  7  1  0  0  0
  7 10  1  0  0  0
 10 11  1  0  0  0
 11 12  1  0  0  0
 12 13  1  0  0  0
 13 14  1  0  0  0
 13 15  1  0  0  0
 15 16  1  0  0  0
  7  8  1  0  0  0
  8  9  2  0  0  0
  5 18  1  0  0  0
 18 19  2  0  0  0
 19 20  1  0  0  0
 20 21  2  0  0  0
 21 22  1  0  0  0
 22 23  2  0  0  0
 21 24  1  0  0  0
 24 25  1  0  0  0
 24 26  2  0  0  0
 24 27  2  0  0  0
  9  1  1  0  0  0
 23 18  1  0  0  0
  8  4  1  0  0  0
 16 10  1  0  0  0
 28 29  1  0  0  0
 14 17  1  0  0  0
M  END
> <minimizedAffinity>
-8.05031

> <CNNscore>
0.9716878533

> <CNNaffinity>
7.4643158913

> <CNN_VS>
7.2529850006

> <CNNaffinity_variance>
0.0422484912

$$$$
[H]OC1([H])C([H])([H])C([H])([H])C([H])(n2c([H])c(-c3c([H])c([H])c(S(=O)(=O)C([H])([H])[H])c([H])c3[H])c3c([H])nc(N([H])C([H])([H])C([H])([H])C([H])([H])C([H])([H])[H])nc32)C([H])([H])C1([H])[H]


 33 36  0  0  0  0  0  0  0  0999 V2000
    4.1502    1.6942   20.0273 C   0  0  0  0  0  0  0  0  0  0  0  0
    3.9658    0.9379   18.9118 N   0  0  0  0  0  0  0  0  0  0  0  0
    3.7486    1.5230   17.7389 C   0  0  0  0  0  0  0  0  0  0  0  0
    3.7140    2.8990   17.6738 C   0  0  0  0  0  0  0  0  0  0  0  0
    3.5210    3.8062   16.6776 C   0  0  0  0  0  0  0  0  0  0  0  0
    3.5952    5.0617   17.2247 C   0  0  0  0  0  0  0  0  0  0  0  0
    3.8311    4.9692   18.5448 N   0  0  0  0  0  0  0  0  0  0  0  0
    3.9039    3.6755   18.8231 C   0  0  0  0  0  0  0  0  0  0  0  0
    4.1167    3.0428   19.9666 N   0  0  0  0  0  0  0  0  0  0  0  0
    3.9613    6.1324   19.3976 C   0  0  0  0  0  0  0  0  0  0  0  0
    3.8496    7.3460   18.5220 C   0  0  0  0  0  0  0  0  0  0  0  0
    4.0299    8.6396   19.2311 C   0  0  0  0  0  0  0  0  0  0  0  0
    5.1339    8.6409   20.2464 C   0  0  0  0  0  0  0  0  0  0  0  0
    4.8689    9.7070   21.1327 O   0  0  0  0  0  0  0  0  0  0  0  0
    5.1925    7.3949   21.0610 C   0  0  0  0  0  0  0  0  0  0  0  0
    5.2725    6.1861   20.1181 C   0  0  0  0  0  0  0  0  0  0  0  0
    3.9335    9.5966   21.4506 H   0  0  0  0  0  0  0  0  0  0  0  0
    3.2838    3.4433   15.2643 C   0  0  0  0  0  0  0  0  0  0  0  0
    3.8723    4.1926   14.2815 C   0  0  0  0  0  0  0  0  0  0  0  0
    3.6659    3.8651   12.9629 C   0  0  0  0  0  0  0  0  0  0  0  0
    2.8701    2.7869   12.6213 C   0  0  0  0  0  0  0  0  0  0  0  0
    2.2877    2.0470   13.6390 C   0  0  0  0  0  0  0  0  0  0  0  0
    2.4975    2.3786   14.9518 C   0  0  0  0  0  0  0  0  0  0  0  0
    2.6270    2.3966   10.9453 S   0  0  0  0  0  0  0  0  0  0  0  0
    0.8839    2.5722   10.6034 C   0  0  0  0  0  0  0  0  0  0  0  0
    3.1125    1.0233   10.6642 O   0  0  0  0  0  0  0  0  0  0  0  0
    3.4089    3.4093   10.1307 O   0  0  0  0  0  0  0  0  0  0  0  0
    4.3764    1.0129   21.2414 N   0  0  0  0  0  0  0  0  0  0  0  0
    5.1239    0.2851   21.2712 H   0  0  0  0  0  0  0  0  0  0  0  0
    3.6238    1.2791   22.4304 C   0  0  0  0  0  0  0  0  0  0  0  0
    4.4615    1.7925   23.5564 C   0  0  0  0  0  0  0  0  0  0  0  0
    3.5946    4.0628   23.4374 C   0  0  0  0  0  0  0  0  0  0  0  0
    4.8761    3.2275   23.3799 C   0  0  0  0  0  0  0  0  0  0  0  0
 32 33  1  0  0  0
 33 31  1  0  0  0
 31 30  1  0  0  0
 30 28  1  0  0  0
 28  1  1  0  0  0
  1  2  2  0  0  0
  2  3  1  0  0  0
  3  4  2  0  0  0
  4  5  1  0  0  0
  5  6  2  0  0  0
  6  7  1  0  0  0
  7 10  1  0  0  0
 10 11  1  0  0  0
 11 12  1  0  0  0
 12 13  1  0  0  0
 13 14  1  0  0  0
 13 15  1  0  0  0
 15 16  1  0  0  0
  7  8  1  0  0  0
  8  9  2  0  0  0
  5 18  1  0  0  0
 18 19  2  0  0  0
 19 20  1  0  0  0
 20 21  2  0  0  0
 21 22  1  0  0  0
 22 23  2  0  0  0
 21 24  1  0  0  0
 24 25  1  0  0  0
 24 26  2  0  0  0
 24 27  2  0  0  0
  9  1  1  0  0  0
 23 18  1  0  0  0
  8  4  1  0  0  0
 16 10  1  0  0  0
 28 29  1  0  0  0
 14 17  1  0  0  0
M  END
> <minimizedAffinity>
-8.41835

> <CNNscore>
0.4508991241

> <CNNaffinity>
7.0385856628

> <CNN_VS>
3.1736922264

> <CNNaffinity_variance>
0.5376086831

$$$$
[H]OC1([H])C([H])([H])C([H])([H])C([H])(n2c([H])c(-c3c([H])c([H])c(S(=O)(=O)C([H])([H])[H])c([H])c3[H])c3c([H])nc(N([H])C([H])([H])C([H])([H])C([H])([H])C([H])([H])[H])nc32)C([H])([H])C1([H])[H]


 33 36  0  0  0  0  0  0  0  0999 V2000
    4.2923    1.9057   19.3201 C   0  0  0  0  0  0  0  0  0  0  0  0
    3.8776    1.1181   18.2915 N   0  0  0  0  0  0  0  0  0  0  0  0
    3.7015    1.6397   17.0823 C   0  0  0  0  0  0  0  0  0  0  0  0
    3.9448    2.9825   16.8910 C   0  0  0  0  0  0  0  0  0  0  0  0
    3.8710    3.8270   15.8261 C   0  0  0  0  0  0  0  0  0  0  0  0
    4.2397    5.0787   16.2489 C   0  0  0  0  0  0  0  0  0  0  0  0
    4.5455    5.0449   17.5575 N   0  0  0  0  0  0  0  0  0  0  0  0
    4.3714    3.7913   17.9510 C   0  0  0  0  0  0  0  0  0  0  0  0
    4.5314    3.2219   19.1356 N   0  0  0  0  0  0  0  0  0  0  0  0
    4.9718    6.2192   18.2897 C   0  0  0  0  0  0  0  0  0  0  0  0
    6.3581    5.9526   18.7984 C   0  0  0  0  0  0  0  0  0  0  0  0
    6.9292    7.0385   19.6373 C   0  0  0  0  0  0  0  0  0  0  0  0
    5.9606    7.6455   20.6084 C   0  0  0  0  0  0  0  0  0  0  0  0
    6.4731    8.9148   20.9529 O   0  0  0  0  0  0  0  0  0  0  0  0
    4.6019    7.8595   20.0359 C   0  0  0  0  0  0  0  0  0  0  0  0
    4.0897    6.5327   19.4581 C   0  0  0  0  0  0  0  0  0  0  0  0
    6.6555    9.3964   20.1026 H   0  0  0  0  0  0  0  0  0  0  0  0
    3.4641    3.4100   14.4675 C   0  0  0  0  0  0  0  0  0  0  0  0
    2.6012    2.3566   14.3298 C   0  0  0  0  0  0  0  0  0  0  0  0
    2.2091    1.9600   13.0738 C   0  0  0  0  0  0  0  0  0  0  0  0
    2.6784    2.6151   11.9499 C   0  0  0  0  0  0  0  0  0  0  0  0
    3.5512    3.6786   12.1214 C   0  0  0  0  0  0  0  0  0  0  0  0
    3.9382    4.0692   13.3765 C   0  0  0  0  0  0  0  0  0  0  0  0
    2.1653    2.0912   10.3743 S   0  0  0  0  0  0  0  0  0  0  0  0
    2.6512    3.3519    9.2078 C   0  0  0  0  0  0  0  0  0  0  0  0
    0.7000    1.8601   10.3640 O   0  0  0  0  0  0  0  0  0  0  0  0
    2.9045    0.8028   10.0670 O   0  0  0  0  0  0  0  0  0  0  0  0
    4.4604    1.2917   20.5787 N   0  0  0  0  0  0  0  0  0  0  0  0
    4.4367    0.2495   20.6305 H   0  0  0  0  0  0  0  0  0  0  0  0
    4.6614    2.0387   21.7839 C   0  0  0  0  0  0  0  0  0  0  0  0
    6.1020    2.3004   22.0826 C   0  0  0  0  0  0  0  0  0  0  0  0
    5.0972    4.4780   22.4933 C   0  0  0  0  0  0  0  0  0  0  0  0
    6.4228    3.7637   22.2174 C   0  0  0  0  0  0  0  0  0  0  0  0
 32 33  1  0  0  0
 33 31  1  0  0  0
 31 30  1  0  0  0
 30 28  1  0  0  0
 28  1  1  0  0  0
  1  2  2  0  0  0
  2  3  1  0  0  0
  3  4  2  0  0  0
  4  5  1  0  0  0
  5  6  2  0  0  0
  6  7  1  0  0  0
  7 10  1  0  0  0
 10 11  1  0  0  0
 11 12  1  0  0  0
 12 13  1  0  0  0
 13 14  1  0  0  0
 13 15  1  0  0  0
 15 16  1  0  0  0
  7  8  1  0  0  0
  8  9  2  0  0  0
  5 18  1  0  0  0
 18 19  2  0  0  0
 19 20  1  0  0  0
 20 21  2  0  0  0
 21 22  1  0  0  0
 22 23  2  0  0  0
 21 24  1  0  0  0
 24 25  1  0  0  0
 24 26  2  0  0  0
 24 27  2  0  0  0
  9  1  1  0  0  0
 23 18  1  0  0  0
  8  4  1  0  0  0
 16 10  1  0  0  0
 28 29  1  0  0  0
 14 17  1  0  0  0
M  END
> <minimizedAffinity>
-7.61429

> <CNNscore>
0.3971265256

> <CNNaffinity>
6.7697768211

> <CNN_VS>
2.6884579659

> <CNNaffinity_variance>
0.4335482121

$$$$
[H]OC1([H])C([H])([H])C([H])([H])C([H])(n2c([H])c(-c3c([H])c([H])c(S(=O)(=O)C([H])([H])[H])c([H])c3[H])c3c([H])nc(N([H])C([H])([H])C([H])([H])C([H])([H])C([H])([H])[H])nc32)C([H])([H])C1([H])[H]


 33 36  0  0  0  0  0  0  0  0999 V2000
    3.4092    2.5731   16.6589 C   0  0  0  0  0  0  0  0  0  0  0  0
    3.0437    1.4202   16.0365 N   0  0  0  0  0  0  0  0  0  0  0  0
    2.7902    1.4189   14.7323 C   0  0  0  0  0  0  0  0  0  0  0  0
    2.9036    2.5976   14.0275 C   0  0  0  0  0  0  0  0  0  0  0  0
    2.7257    2.9566   12.7267 C   0  0  0  0  0  0  0  0  0  0  0  0
    2.9875    4.2984   12.6156 C   0  0  0  0  0  0  0  0  0  0  0  0
    3.3274    4.7963   13.8171 N   0  0  0  0  0  0  0  0  0  0  0  0
    3.2798    3.7831   14.6701 C   0  0  0  0  0  0  0  0  0  0  0  0
    3.5210    3.7297   15.9709 N   0  0  0  0  0  0  0  0  0  0  0  0
    3.6614    6.1911   14.0176 C   0  0  0  0  0  0  0  0  0  0  0  0
    4.0206    6.3635   15.4643 C   0  0  0  0  0  0  0  0  0  0  0  0
    4.3283    7.7617   15.8633 C   0  0  0  0  0  0  0  0  0  0  0  0
    3.4132    8.7910   15.2693 C   0  0  0  0  0  0  0  0  0  0  0  0
    4.0960   10.0248   15.3311 O   0  0  0  0  0  0  0  0  0  0  0  0
    3.0868    8.5393   13.8376 C   0  0  0  0  0  0  0  0  0  0  0  0
    2.5289    7.1161   13.6963 C   0  0  0  0  0  0  0  0  0  0  0  0
    4.9874    9.8864   14.9134 H   0  0  0  0  0  0  0  0  0  0  0  0
    2.3255    2.0173   11.6577 C   0  0  0  0  0  0  0  0  0  0  0  0
    3.2881    1.5147   10.8245 C   0  0  0  0  0  0  0  0  0  0  0  0
    2.9331    0.6363    9.8290 C   0  0  0  0  0  0  0  0  0  0  0  0
    1.6137    0.2568    9.6622 C   0  0  0  0  0  0  0  0  0  0  0  0
    0.6614    0.7827   10.5218 C   0  0  0  0  0  0  0  0  0  0  0  0
    1.0219    1.6580   11.5125 C   0  0  0  0  0  0  0  0  0  0  0  0
    1.1944   -0.8556    8.3946 S   0  0  0  0  0  0  0  0  0  0  0  0
   -0.3589   -0.3144    7.7013 C   0  0  0  0  0  0  0  0  0  0  0  0
    1.1119   -2.2360    8.9317 O   0  0  0  0  0  0  0  0  0  0  0  0
    2.2806   -0.7642    7.3399 O   0  0  0  0  0  0  0  0  0  0  0  0
    3.6645    2.5081   18.0445 N   0  0  0  0  0  0  0  0  0  0  0  0
    3.3345    3.2930   18.6482 H   0  0  0  0  0  0  0  0  0  0  0  0
    4.3559    1.4118   18.6538 C   0  0  0  0  0  0  0  0  0  0  0  0
    3.5293    0.6787   19.6599 C   0  0  0  0  0  0  0  0  0  0  0  0
    5.5704    1.0479   20.9319 C   0  0  0  0  0  0  0  0  0  0  0  0
    4.0676    0.7863   21.0603 C   0  0  0  0  0  0  0  0  0  0  0  0
 32 33  1  0  0  0
 33 31  1  0  0  0
 31 30  1  0  0  0
 30 28  1  0  0  0
 28  1  1  0  0  0
  1  2  2  0  0  0
  2  3  1  0  0  0
  3  4  2  0  0  0
  4  5  1  0  0  0
  5  6  2  0  0  0
  6  7  1  0  0  0
  7 10  1  0  0  0
 10 11  1  0  0  0
 11 12  1  0  0  0
 12 13  1  0  0  0
 13 14  1  0  0  0
 13 15  1  0  0  0
 15 16  1  0  0  0
  7  8  1  0  0  0
  8  9  2  0  0  0
  5 18  1  0  0  0
 18 19  2  0  0  0
 19 20  1  0  0  0
 20 21  2  0  0  0
 21 22  1  0  0  0
 22 23  2  0  0  0
 21 24  1  0  0  0
 24 25  1  0  0  0
 24 26  2  0  0  0
 24 27  2  0  0  0
  9  1  1  0  0  0
 23 18  1  0  0  0
  8  4  1  0  0  0
 16 10  1  0  0  0
 28 29  1  0  0  0
 14 17  1  0  0  0
M  END
> <minimizedAffinity>
-6.25140

> <CNNscore>
0.3662696183

> <CNNaffinity>
6.5915708542

> <CNN_VS>
2.4142920971

> <CNNaffinity_variance>
0.4842446744

$$$$
[H]OC1([H])C([H])([H])C([H])([H])C([H])(n2c([H])c(-c3c([H])c([H])c(S(=O)(=O)C([H])([H])[H])c([H])c3[H])c3c([H])nc(N([H])C([H])([H])C([H])([H])C([H])([H])C([H])([H])[H])nc32)C([H])([H])C1([H])[H]


 33 36  0  0  0  0  0  0  0  0999 V2000
    3.4398    1.0904   18.4283 C   0  0  0  0  0  0  0  0  0  0  0  0
    4.2490    1.6936   19.3402 N   0  0  0  0  0  0  0  0  0  0  0  0
    4.6745    2.9354   19.1348 C   0  0  0  0  0  0  0  0  0  0  0  0
    4.2839    3.5956   17.9901 C   0  0  0  0  0  0  0  0  0  0  0  0
    4.5202    4.8306   17.4688 C   0  0  0  0  0  0  0  0  0  0  0  0
    3.8518    4.9239   16.2747 C   0  0  0  0  0  0  0  0  0  0  0  0
    3.1976    3.7755   16.0289 N   0  0  0  0  0  0  0  0  0  0  0  0
    3.4511    2.9729   17.0527 C   0  0  0  0  0  0  0  0  0  0  0  0
    3.0555    1.7349   17.3056 N   0  0  0  0  0  0  0  0  0  0  0  0
    2.3995    3.5718   14.8379 C   0  0  0  0  0  0  0  0  0  0  0  0
    3.1086    2.5568   13.9902 C   0  0  0  0  0  0  0  0  0  0  0  0
    2.4557    2.2755   12.6850 C   0  0  0  0  0  0  0  0  0  0  0  0
    1.9289    3.4908   11.9814 C   0  0  0  0  0  0  0  0  0  0  0  0
    0.9564    3.0386   11.0636 O   0  0  0  0  0  0  0  0  0  0  0  0
    1.2579    4.4599   12.8925 C   0  0  0  0  0  0  0  0  0  0  0  0
    2.2205    4.8210   14.0325 C   0  0  0  0  0  0  0  0  0  0  0  0
    0.3172    2.4713   11.5715 H   0  0  0  0  0  0  0  0  0  0  0  0
    5.3563    5.8581   18.1248 C   0  0  0  0  0  0  0  0  0  0  0  0
    5.6357    7.0144   17.4477 C   0  0  0  0  0  0  0  0  0  0  0  0
    6.4073    7.9816   18.0458 C   0  0  0  0  0  0  0  0  0  0  0  0
    6.9028    7.7969   19.3237 C   0  0  0  0  0  0  0  0  0  0  0  0
    6.6026    6.6154   19.9842 C   0  0  0  0  0  0  0  0  0  0  0  0
    5.8327    5.6549   19.3824 C   0  0  0  0  0  0  0  0  0  0  0  0
    7.8758    9.0377   20.0545 S   0  0  0  0  0  0  0  0  0  0  0  0
    6.8997    9.7907   21.3453 C   0  0  0  0  0  0  0  0  0  0  0  0
    8.2996   10.0247   19.0312 O   0  0  0  0  0  0  0  0  0  0  0  0
    9.0865    8.3576   20.6644 O   0  0  0  0  0  0  0  0  0  0  0  0
    3.0226   -0.2282   18.7048 N   0  0  0  0  0  0  0  0  0  0  0  0
    3.1973   -0.9657   17.9872 H   0  0  0  0  0  0  0  0  0  0  0  0
    2.3712   -0.5941   19.9267 C   0  0  0  0  0  0  0  0  0  0  0  0
    3.2696   -0.5228   21.1186 C   0  0  0  0  0  0  0  0  0  0  0  0
    4.0591    1.2973   22.5272 C   0  0  0  0  0  0  0  0  0  0  0  0
    2.8201    0.4860   22.1398 C   0  0  0  0  0  0  0  0  0  0  0  0
 32 33  1  0  0  0
 33 31  1  0  0  0
 31 30  1  0  0  0
 30 28  1  0  0  0
 28  1  1  0  0  0
  1  2  2  0  0  0
  2  3  1  0  0  0
  3  4  2  0  0  0
  4  5  1  0  0  0
  5  6  2  0  0  0
  6  7  1  0  0  0
  7 10  1  0  0  0
 10 11  1  0  0  0
 11 12  1  0  0  0
 12 13  1  0  0  0
 13 14  1  0  0  0
 13 15  1  0  0  0
 15 16  1  0  0  0
  7  8  1  0  0  0
  8  9  2  0  0  0
  5 18  1  0  0  0
 18 19  2  0  0  0
 19 20  1  0  0  0
 20 21  2  0  0  0
 21 22  1  0  0  0
 22 23  2  0  0  0
 21 24  1  0  0  0
 24 25  1  0  0  0
 24 26  2  0  0  0
 24 27  2  0  0  0
  9  1  1  0  0  0
 23 18  1  0  0  0
  8  4  1  0  0  0
 16 10  1  0  0  0
 28 29  1  0  0  0
 14 17  1  0  0  0
M  END
> <minimizedAffinity>
-6.60711

> <CNNscore>
0.3079276979

> <CNNaffinity>
6.5665793419

> <CNN_VS>
2.0220315456

> <CNNaffinity_variance>
0.2596872747

$$$$
[H]OC1([H])C([H])([H])C([H])([H])C([H])(n2c([H])c(-c3c([H])c([H])c(S(=O)(=O)C([H])([H])[H])c([H])c3[H])c3c([H])nc(N([H])C([H])([H])C([H])([H])C([H])([H])C([H])([H])[H])nc32)C([H])([H])C1([H])[H]


 33 36  0  0  0  0  0  0  0  0999 V2000
    4.5344    5.9742    9.0484 C   0  0  0  0  0  0  0  0  0  0  0  0
    5.3289    5.9591   10.1524 N   0  0  0  0  0  0  0  0  0  0  0  0
    4.8147    5.6541   11.3389 C   0  0  0  0  0  0  0  0  0  0  0  0
    3.4725    5.3558   11.4297 C   0  0  0  0  0  0  0  0  0  0  0  0
    2.6342    5.0123   12.4456 C   0  0  0  0  0  0  0  0  0  0  0  0
    1.3793    4.8357   11.9210 C   0  0  0  0  0  0  0  0  0  0  0  0
    1.4048    5.0595   10.5958 N   0  0  0  0  0  0  0  0  0  0  0  0
    2.6565    5.3721   10.2922 C   0  0  0  0  0  0  0  0  0  0  0  0
    3.2187    5.6823    9.1343 N   0  0  0  0  0  0  0  0  0  0  0  0
    0.2252    4.9493    9.7630 C   0  0  0  0  0  0  0  0  0  0  0  0
   -0.3507    6.3271    9.6155 C   0  0  0  0  0  0  0  0  0  0  0  0
   -1.6162    6.3891    8.8385 C   0  0  0  0  0  0  0  0  0  0  0  0
   -2.5836    5.2836    9.1412 C   0  0  0  0  0  0  0  0  0  0  0  0
   -3.4588    5.1968    8.0371 O   0  0  0  0  0  0  0  0  0  0  0  0
   -1.9338    3.9517    9.2940 C   0  0  0  0  0  0  0  0  0  0  0  0
   -0.8239    4.0567   10.3494 C   0  0  0  0  0  0  0  0  0  0  0  0
   -2.8943    5.1220    7.2223 H   0  0  0  0  0  0  0  0  0  0  0  0
    3.0600    4.8625   13.8532 C   0  0  0  0  0  0  0  0  0  0  0  0
    2.8770    5.9104   14.7146 C   0  0  0  0  0  0  0  0  0  0  0  0
    3.2627    5.7851   16.0276 C   0  0  0  0  0  0  0  0  0  0  0  0
    3.8333    4.6113   16.4852 C   0  0  0  0  0  0  0  0  0  0  0  0
    4.0056    3.5675   15.5890 C   0  0  0  0  0  0  0  0  0  0  0  0
    3.6188    3.6987   14.2810 C   0  0  0  0  0  0  0  0  0  0  0  0
    4.3113    4.4819   18.1510 S   0  0  0  0  0  0  0  0  0  0  0  0
    3.2658    5.5796   19.0934 C   0  0  0  0  0  0  0  0  0  0  0  0
    5.7481    4.8205   18.2987 O   0  0  0  0  0  0  0  0  0  0  0  0
    4.0605    3.0488   18.5798 O   0  0  0  0  0  0  0  0  0  0  0  0
    5.1407    6.3056    7.8188 N   0  0  0  0  0  0  0  0  0  0  0  0
    5.4428    5.5304    7.1886 H   0  0  0  0  0  0  0  0  0  0  0  0
    5.3574    7.6586    7.4022 C   0  0  0  0  0  0  0  0  0  0  0  0
    4.3201    8.1557    6.4484 C   0  0  0  0  0  0  0  0  0  0  0  0
    5.8820   10.0148    6.2920 C   0  0  0  0  0  0  0  0  0  0  0  0
    4.4009    9.6378    6.2049 C   0  0  0  0  0  0  0  0  0  0  0  0
 32 33  1  0  0  0
 33 31  1  0  0  0
 31 30  1  0  0  0
 30 28  1  0  0  0
 28  1  1  0  0  0
  1  2  2  0  0  0
  2  3  1  0  0  0
  3  4  2  0  0  0
  4  5  1  0  0  0
  5  6  2  0  0  0
  6  7  1  0  0  0
  7 10  1  0  0  0
 10 11  1  0  0  0
 11 12  1  0  0  0
 12 13  1  0  0  0
 13 14  1  0  0  0
 13 15  1  0  0  0
 15 16  1  0  0  0
  7  8  1  0  0  0
  8  9  2  0  0  0
  5 18  1  0  0  0
 18 19  2  0  0  0
 19 20  1  0  0  0
 20 21  2  0  0  0
 21 22  1  0  0  0
 22 23  2  0  0  0
 21 24  1  0  0  0
 24 25  1  0  0  0
 24 26  2  0  0  0
 24 27  2  0  0  0
  9  1  1  0  0  0
 23 18  1  0  0  0
  8  4  1  0  0  0
 16 10  1  0  0  0
 28 29  1  0  0  0
 14 17  1  0  0  0
M  END
> <minimizedAffinity>
-5.34575

> <CNNscore>
0.2653663456

> <CNNaffinity>
6.0003938675

> <CNN_VS>
1.5923025608

> <CNNaffinity_variance>
0.7803468704

$$$$
[H]OC1([H])C([H])([H])C([H])([H])C([H])(n2c([H])c(-c3c([H])c([H])c(S(=O)(=O)C([H])([H])[H])c([H])c3[H])c3c([H])nc(N([H])C([H])([H])C([H])([H])C([H])([H])C([H])([H])[H])nc32)C([H])([H])C1([H])[H]


 33 36  0  0  0  0  0  0  0  0999 V2000
    4.6068    1.6309   19.6932 C   0  0  0  0  0  0  0  0  0  0  0  0
    3.9602    1.1791   18.5851 N   0  0  0  0  0  0  0  0  0  0  0  0
    3.7086    2.0069   17.5768 C   0  0  0  0  0  0  0  0  0  0  0  0
    4.1117    3.3211   17.6736 C   0  0  0  0  0  0  0  0  0  0  0  0
    4.0239    4.4119   16.8642 C   0  0  0  0  0  0  0  0  0  0  0  0
    4.6144    5.4689   17.5087 C   0  0  0  0  0  0  0  0  0  0  0  0
    5.0741    5.0712   18.7076 N   0  0  0  0  0  0  0  0  0  0  0  0
    4.7770    3.7840   18.8151 C   0  0  0  0  0  0  0  0  0  0  0  0
    5.0030    2.9182   19.7909 N   0  0  0  0  0  0  0  0  0  0  0  0
    5.7492    5.9691   19.6214 C   0  0  0  0  0  0  0  0  0  0  0  0
    4.6947    6.6472   20.4459 C   0  0  0  0  0  0  0  0  0  0  0  0
    5.2125    7.6627   21.3997 C   0  0  0  0  0  0  0  0  0  0  0  0
    6.2990    8.5357   20.8455 C   0  0  0  0  0  0  0  0  0  0  0  0
    6.9910    9.0738   21.9519 O   0  0  0  0  0  0  0  0  0  0  0  0
    7.2943    7.7937   20.0218 C   0  0  0  0  0  0  0  0  0  0  0  0
    6.5535    7.0203   18.9219 C   0  0  0  0  0  0  0  0  0  0  0  0
    7.2480    8.3106   22.5347 H   0  0  0  0  0  0  0  0  0  0  0  0
    3.3954    4.3996   15.5263 C   0  0  0  0  0  0  0  0  0  0  0  0
    4.0148    3.7223   14.5109 C   0  0  0  0  0  0  0  0  0  0  0  0
    3.4407    3.6969   13.2626 C   0  0  0  0  0  0  0  0  0  0  0  0
    2.2445    4.3488   13.0242 C   0  0  0  0  0  0  0  0  0  0  0  0
    1.6410    5.0261   14.0726 C   0  0  0  0  0  0  0  0  0  0  0  0
    2.2185    5.0476   15.3150 C   0  0  0  0  0  0  0  0  0  0  0  0
    1.5421    4.2994   11.4353 S   0  0  0  0  0  0  0  0  0  0  0  0
    2.0656    2.7756   10.6671 C   0  0  0  0  0  0  0  0  0  0  0  0
    1.9616    5.4883   10.6534 O   0  0  0  0  0  0  0  0  0  0  0  0
    0.0356    4.2884   11.6108 O   0  0  0  0  0  0  0  0  0  0  0  0
    4.8439    0.7025   20.7283 N   0  0  0  0  0  0  0  0  0  0  0  0
    5.8178    0.3556   20.8715 H   0  0  0  0  0  0  0  0  0  0  0  0
    3.8051    0.2188   21.5873 C   0  0  0  0  0  0  0  0  0  0  0  0
    3.3114    1.2466   22.5530 C   0  0  0  0  0  0  0  0  0  0  0  0
    4.1806    3.3445   23.4269 C   0  0  0  0  0  0  0  0  0  0  0  0
    4.4036    1.8301   23.4069 C   0  0  0  0  0  0  0  0  0  0  0  0
 32 33  1  0  0  0
 33 31  1  0  0  0
 31 30  1  0  0  0
 30 28  1  0  0  0
 28  1  1  0  0  0
  1  2  2  0  0  0
  2  3  1  0  0  0
  3  4  2  0  0  0
  4  5  1  0  0  0
  5  6  2  0  0  0
  6  7  1  0  0  0
  7 10  1  0  0  0
 10 11  1  0  0  0
 11 12  1  0  0  0
 12 13  1  0  0  0
 13 14  1  0  0  0
 13 15  1  0  0  0
 15 16  1  0  0  0
  7  8  1  0  0  0
  8  9  2  0  0  0
  5 18  1  0  0  0
 18 19  2  0  0  0
 19 20  1  0  0  0
 20 21  2  0  0  0
 21 22  1  0  0  0
 22 23  2  0  0  0
 21 24  1  0  0  0
 24 25  1  0  0  0
 24 26  2  0  0  0
 24 27  2  0  0  0
  9  1  1  0  0  0
 23 18  1  0  0  0
  8  4  1  0  0  0
 16 10  1  0  0  0
 28 29  1  0  0  0
 14 17  1  0  0  0
M  END
> <minimizedAffinity>
-7.57450

> <CNNscore>
0.2618662417

> <CNNaffinity>
6.7130217552

> <CNN_VS>
1.7579138279

> <CNNaffinity_variance>
0.2815601230

$$$$
[H]OC1([H])C([H])([H])C([H])([H])C([H])(n2c([H])c(-c3c([H])c([H])c(S(=O)(=O)C([H])([H])[H])c([H])c3[H])c3c([H])nc(N([H])C([H])([H])C([H])([H])C([H])([H])C([H])([H])[H])nc32)C([H])([H])C1([H])[H]


 33 36  0  0  0  0  0  0  0  0999 V2000
    4.4318    1.8190   19.5704 C   0  0  0  0  0  0  0  0  0  0  0  0
    4.1237    1.3459   18.3328 N   0  0  0  0  0  0  0  0  0  0  0  0
    3.7965    2.1895   17.3598 C   0  0  0  0  0  0  0  0  0  0  0  0
    3.7754    3.5414   17.6254 C   0  0  0  0  0  0  0  0  0  0  0  0
    3.4951    4.6564   16.8967 C   0  0  0  0  0  0  0  0  0  0  0  0
    3.6429    5.7478   17.7142 C   0  0  0  0  0  0  0  0  0  0  0  0
    4.0107    5.3482   18.9439 N   0  0  0  0  0  0  0  0  0  0  0  0
    4.0927    4.0261   18.8998 C   0  0  0  0  0  0  0  0  0  0  0  0
    4.4118    3.1433   19.8336 N   0  0  0  0  0  0  0  0  0  0  0  0
    4.2441    6.2781   20.0292 C   0  0  0  0  0  0  0  0  0  0  0  0
    4.2752    7.6577   19.4397 C   0  0  0  0  0  0  0  0  0  0  0  0
    4.5745    8.7403   20.4132 C   0  0  0  0  0  0  0  0  0  0  0  0
    5.6531    8.4050   21.4000 C   0  0  0  0  0  0  0  0  0  0  0  0
    5.4827    9.2749   22.4984 O   0  0  0  0  0  0  0  0  0  0  0  0
    5.5670    7.0127   21.9232 C   0  0  0  0  0  0  0  0  0  0  0  0
    5.5398    6.0361   20.7390 C   0  0  0  0  0  0  0  0  0  0  0  0
    4.5350    9.1969   22.7883 H   0  0  0  0  0  0  0  0  0  0  0  0
    3.1098    4.6356   15.4697 C   0  0  0  0  0  0  0  0  0  0  0  0
    1.9439    5.2441   15.0906 C   0  0  0  0  0  0  0  0  0  0  0  0
    1.5743    5.2380   13.7670 C   0  0  0  0  0  0  0  0  0  0  0  0
    2.3690    4.6233   12.8166 C   0  0  0  0  0  0  0  0  0  0  0  0
    3.5441    4.0155   13.2312 C   0  0  0  0  0  0  0  0  0  0  0  0
    3.9071    4.0251   14.5525 C   0  0  0  0  0  0  0  0  0  0  0  0
    1.8759    4.6315   11.1502 S   0  0  0  0  0  0  0  0  0  0  0  0
    0.1928    5.2234   11.0941 C   0  0  0  0  0  0  0  0  0  0  0  0
    2.0059    3.2717   10.5715 O   0  0  0  0  0  0  0  0  0  0  0  0
    2.7811    5.6045   10.4191 O   0  0  0  0  0  0  0  0  0  0  0  0
    4.7706    0.8723   20.5595 N   0  0  0  0  0  0  0  0  0  0  0  0
    5.7707    0.5888   20.6544 H   0  0  0  0  0  0  0  0  0  0  0  0
    3.8007    0.2868   21.4355 C   0  0  0  0  0  0  0  0  0  0  0  0
    3.3877    1.1936   22.5491 C   0  0  0  0  0  0  0  0  0  0  0  0
    4.2028    3.2647   23.5322 C   0  0  0  0  0  0  0  0  0  0  0  0
    4.5528    1.7948   23.2865 C   0  0  0  0  0  0  0  0  0  0  0  0
 32 33  1  0  0  0
 33 31  1  0  0  0
 31 30  1  0  0  0
 30 28  1  0  0  0
 28  1  1  0  0  0
  1  2  2  0  0  0
  2  3  1  0  0  0
  3  4  2  0  0  0
  4  5  1  0  0  0
  5  6  2  0  0  0
  6  7  1  0  0  0
  7 10  1  0  0  0
 10 11  1  0  0  0
 11 12  1  0  0  0
 12 13  1  0  0  0
 13 14  1  0  0  0
 13 15  1  0  0  0
 15 16  1  0  0  0
  7  8  1  0  0  0
  8  9  2  0  0  0
  5 18  1  0  0  0
 18 19  2  0  0  0
 19 20  1  0  0  0
 20 21  2  0  0  0
 21 22  1  0  0  0
 22 23  2  0  0  0
 21 24  1  0  0  0
 24 25  1  0  0  0
 24 26  2  0  0  0
 24 27  2  0  0  0
  9  1  1  0  0  0
 23 18  1  0  0  0
  8  4  1  0  0  0
 16 10  1  0  0  0
 28 29  1  0  0  0
 14 17  1  0  0  0
M  END
> <minimizedAffinity>
-8.04346

> <CNNscore>
0.2574156523

> <CNNaffinity>
6.7738633156

> <CNN_VS>
1.7436984777

> <CNNaffinity_variance>
0.3573663235

$$$$
[H]OC1([H])C([H])([H])C([H])([H])C([H])(n2c([H])c(-c3c([H])c([H])c(S(=O)(=O)C([H])([H])[H])c([H])c3[H])c3c([H])nc(N([H])C([H])([H])C([H])([H])C([H])([H])C([H])([H])[H])nc32)C([H])([H])C1([H])[H]


 33 36  0  0  0  0  0  0  0  0999 V2000
    1.1810    2.2297   11.8794 C   0  0  0  0  0  0  0  0  0  0  0  0
    1.0737    1.4482   12.9875 N   0  0  0  0  0  0  0  0  0  0  0  0
    1.7823    1.7332   14.0747 C   0  0  0  0  0  0  0  0  0  0  0  0
    2.6210    2.8265   14.0590 C   0  0  0  0  0  0  0  0  0  0  0  0
    3.4682    3.3967   14.9590 C   0  0  0  0  0  0  0  0  0  0  0  0
    4.0482    4.4886   14.3652 C   0  0  0  0  0  0  0  0  0  0  0  0
    3.5867    4.6222   13.1097 N   0  0  0  0  0  0  0  0  0  0  0  0
    2.7300    3.6294   12.9174 C   0  0  0  0  0  0  0  0  0  0  0  0
    2.0021    3.3016   11.8611 N   0  0  0  0  0  0  0  0  0  0  0  0
    4.0175    5.6883   12.2294 C   0  0  0  0  0  0  0  0  0  0  0  0
    5.2188    5.1932   11.4788 C   0  0  0  0  0  0  0  0  0  0  0  0
    5.8370    6.1940   10.5704 C   0  0  0  0  0  0  0  0  0  0  0  0
    5.9226    7.5785   11.1407 C   0  0  0  0  0  0  0  0  0  0  0  0
    6.0582    8.4602   10.0468 O   0  0  0  0  0  0  0  0  0  0  0  0
    4.7013    7.9889   11.8886 C   0  0  0  0  0  0  0  0  0  0  0  0
    4.3979    6.9361   12.9639 C   0  0  0  0  0  0  0  0  0  0  0  0
    5.3208    8.2542    9.4127 H   0  0  0  0  0  0  0  0  0  0  0  0
    3.6814    2.8877   16.3303 C   0  0  0  0  0  0  0  0  0  0  0  0
    3.9964    3.7752   17.3235 C   0  0  0  0  0  0  0  0  0  0  0  0
    4.1926    3.3186   18.6048 C   0  0  0  0  0  0  0  0  0  0  0  0
    4.0748    1.9723   18.8984 C   0  0  0  0  0  0  0  0  0  0  0  0
    3.7545    1.0978   17.8713 C   0  0  0  0  0  0  0  0  0  0  0  0
    3.5601    1.5594   16.5959 C   0  0  0  0  0  0  0  0  0  0  0  0
    4.3286    1.4239   20.5279 S   0  0  0  0  0  0  0  0  0  0  0  0
    3.2411    0.0347   20.7993 C   0  0  0  0  0  0  0  0  0  0  0  0
    4.0697    2.5272   21.4852 O   0  0  0  0  0  0  0  0  0  0  0  0
    5.7713    0.9667   20.6279 O   0  0  0  0  0  0  0  0  0  0  0  0
    0.4024    1.8740   10.7584 N   0  0  0  0  0  0  0  0  0  0  0  0
   -0.2532    2.5835   10.3631 H   0  0  0  0  0  0  0  0  0  0  0  0
    0.4754    0.5828   10.1432 C   0  0  0  0  0  0  0  0  0  0  0  0
    1.4449    0.5241    9.0076 C   0  0  0  0  0  0  0  0  0  0  0  0
    3.7166    0.1971    9.8156 C   0  0  0  0  0  0  0  0  0  0  0  0
    2.5138   -0.5176    9.1945 C   0  0  0  0  0  0  0  0  0  0  0  0
 32 33  1  0  0  0
 33 31  1  0  0  0
 31 30  1  0  0  0
 30 28  1  0  0  0
 28  1  1  0  0  0
  1  2  2  0  0  0
  2  3  1  0  0  0
  3  4  2  0  0  0
  4  5  1  0  0  0
  5  6  2  0  0  0
  6  7  1  0  0  0
  7 10  1  0  0  0
 10 11  1  0  0  0
 11 12  1  0  0  0
 12 13  1  0  0  0
 13 14  1  0  0  0
 13 15  1  0  0  0
 15 16  1  0  0  0
  7  8  1  0  0  0
  8  9  2  0  0  0
  5 18  1  0  0  0
 18 19  2  0  0  0
 19 20  1  0  0  0
 20 21  2  0  0  0
 21 22  1  0  0  0
 22 23  2  0  0  0
 21 24  1  0  0  0
 24 25  1  0  0  0
 24 26  2  0  0  0
 24 27  2  0  0  0
  9  1  1  0  0  0
 23 18  1  0  0  0
  8  4  1  0  0  0
 16 10  1  0  0  0
 28 29  1  0  0  0
 14 17  1  0  0  0
M  END
> <minimizedAffinity>
-7.10444

> <CNNscore>
0.2384697199

> <CNNaffinity>
6.1931428909

> <CNN_VS>
1.4768770933

> <CNNaffinity_variance>
0.0458454974

$$$$
[H]c1nc2c([H])c(OC([H])([H])[H])c(OC([H])([H])[H])c([H])c2c(Oc2c([H])c([H])c(N([H])C(=O)N([H])c3c([H])c([H])c(F)c([H])c3F)c([H])c2F)c1[H]


 36 39  0  0  0  0  0  0  0  0999 V2000
    5.0885    2.0427   21.1805 C   0  0  0  0  0  0  0  0  0  0  0  0
    3.9982    2.9077   21.3182 C   0  0  0  0  0  0  0  0  0  0  0  0
    4.1223    4.1359   21.8934 C   0  0  0  0  0  0  0  0  0  0  0  0
    5.3525    4.6159   22.3866 C   0  0  0  0  0  0  0  0  0  0  0  0
    6.4065    3.7676   22.2479 C   0  0  0  0  0  0  0  0  0  0  0  0
    6.2862    2.5010   21.6572 C   0  0  0  0  0  0  0  0  0  0  0  0
    7.3869    1.7020   21.5826 F   0  0  0  0  0  0  0  0  0  0  0  0
    5.4116    5.8757   22.9351 N   0  0  0  0  0  0  0  0  0  0  0  0
    6.4705    6.8108   22.7566 C   0  0  0  0  0  0  0  0  0  0  0  0
    7.4766    6.5573   22.0682 O   0  0  0  0  0  0  0  0  0  0  0  0
    6.3604    8.0677   23.3902 N   0  0  0  0  0  0  0  0  0  0  0  0
    4.5992    6.1899   23.5467 H   0  0  0  0  0  0  0  0  0  0  0  0
    5.4685    8.2047   23.9608 H   0  0  0  0  0  0  0  0  0  0  0  0
    7.2763    9.1092   23.3415 C   0  0  0  0  0  0  0  0  0  0  0  0
    7.2376   10.1555   22.4778 C   0  0  0  0  0  0  0  0  0  0  0  0
    8.2135   11.1602   22.5091 C   0  0  0  0  0  0  0  0  0  0  0  0
    9.2404   11.1267   23.4084 C   0  0  0  0  0  0  0  0  0  0  0  0
   10.1898   12.0861   23.4534 F   0  0  0  0  0  0  0  0  0  0  0  0
    9.2578   10.0496   24.2787 C   0  0  0  0  0  0  0  0  0  0  0  0
    8.3199    9.0643   24.2640 C   0  0  0  0  0  0  0  0  0  0  0  0
    8.4027    8.0419   25.1465 F   0  0  0  0  0  0  0  0  0  0  0  0
    4.9269    0.7996   20.5936 O   0  0  0  0  0  0  0  0  0  0  0  0
    4.0048    2.9602   16.2016 C   0  0  0  0  0  0  0  0  0  0  0  0
    2.9966    2.0421   16.4064 C   0  0  0  0  0  0  0  0  0  0  0  0
    2.9552    1.2643   17.5428 C   0  0  0  0  0  0  0  0  0  0  0  0
    1.9559    0.3647   17.7301 N   0  0  0  0  0  0  0  0  0  0  0  0
    1.9165   -0.3933   18.8379 C   0  0  0  0  0  0  0  0  0  0  0  0
    2.8791   -0.2953   19.8278 C   0  0  0  0  0  0  0  0  0  0  0  0
    3.9054    0.5942   19.6897 C   0  0  0  0  0  0  0  0  0  0  0  0
    3.9125    1.3678   18.5190 C   0  0  0  0  0  0  0  0  0  0  0  0
    4.9264    2.2975   18.3031 C   0  0  0  0  0  0  0  0  0  0  0  0
    4.9838    3.0820   17.1756 C   0  0  0  0  0  0  0  0  0  0  0  0
    2.9153    4.5387   14.7591 C   0  0  0  0  0  0  0  0  0  0  0  0
    4.0597    3.7593   15.0489 O   0  0  0  0  0  0  0  0  0  0  0  0
    5.9923    4.0067   16.9610 O   0  0  0  0  0  0  0  0  0  0  0  0
    6.0964    5.2090   17.7005 C   0  0  0  0  0  0  0  0  0  0  0  0
 33 34  1  0  0  0
 34 23  1  0  0  0
 23 24  2  0  0  0
 24 25  1  0  0  0
 25 26  2  0  0  0
 26 27  1  0  0  0
 27 28  2  0  0  0
 28 29  1  0  0  0
 29 22  1  0  0  0
 22  1  1  0  0  0
  1  2  2  0  0  0
  2  3  1  0  0  0
  3  4  2  0  0  0
  4  8  1  0  0  0
  8  9  1  0  0  0
  9 10  2  0  0  0
  9 11  1  0  0  0
 11 14  1  0  0  0
 14 15  2  0  0  0
 15 16  1  0  0  0
 16 17  2  0  0  0
 17 18  1  0  0  0
 17 19  1  0  0  0
 19 20  2  0  0  0
 20 21  1  0  0  0
  4  5  1  0  0  0
  5  6  2  0  0  0
  6  7  1  0  0  0
 29 30  2  0  0  0
 30 31  1  0  0  0
 31 32  2  0  0  0
 32 35  1  0  0  0
 35 36  1  0  0  0
 32 23  1  0  0  0
 30 25  1  0  0  0
  6  1  1  0  0  0
 20 14  1  0  0  0
  8 12  1  0  0  0
 11 13  1  0  0  0
M  END
> <minimizedAffinity>
-8.68723

> <CNNscore>
0.5981090069

> <CNNaffinity>
6.9926743507

> <CNN_VS>
4.1823816299

> <CNNaffinity_variance>
0.1565538049

$$$$
[H]c1nc2c([H])c(OC([H])([H])[H])c(OC([H])([H])[H])c([H])c2c(Oc2c([H])c([H])c(N([H])C(=O)N([H])c3c([H])c([H])c(F)c([H])c3F)c([H])c2F)c1[H]


 36 39  0  0  0  0  0  0  0  0999 V2000
    3.6553    4.2020   15.0305 C   0  0  0  0  0  0  0  0  0  0  0  0
    3.9065    3.9656   13.6751 C   0  0  0  0  0  0  0  0  0  0  0  0
    3.2236    4.6161   12.6927 C   0  0  0  0  0  0  0  0  0  0  0  0
    2.2220    5.5671   12.9744 C   0  0  0  0  0  0  0  0  0  0  0  0
    1.9852    5.7900   14.2950 C   0  0  0  0  0  0  0  0  0  0  0  0
    2.6840    5.1234   15.3124 C   0  0  0  0  0  0  0  0  0  0  0  0
    2.3654    5.3851   16.6106 F   0  0  0  0  0  0  0  0  0  0  0  0
    1.5874    6.2039   11.9335 N   0  0  0  0  0  0  0  0  0  0  0  0
    2.2069    6.6527   10.7325 C   0  0  0  0  0  0  0  0  0  0  0  0
    3.4244    6.5087   10.5148 O   0  0  0  0  0  0  0  0  0  0  0  0
    1.3968    7.2822    9.7626 N   0  0  0  0  0  0  0  0  0  0  0  0
    0.5416    6.3800   12.0225 H   0  0  0  0  0  0  0  0  0  0  0  0
    0.3658    7.3661   10.0266 H   0  0  0  0  0  0  0  0  0  0  0  0
    1.8045    7.7866    8.5357 C   0  0  0  0  0  0  0  0  0  0  0  0
    2.3929    8.9928    8.3335 C   0  0  0  0  0  0  0  0  0  0  0  0
    2.7689    9.4122    7.0507 C   0  0  0  0  0  0  0  0  0  0  0  0
    2.5586    8.6252    5.9548 C   0  0  0  0  0  0  0  0  0  0  0  0
    2.9144    9.0126    4.7110 F   0  0  0  0  0  0  0  0  0  0  0  0
    1.9570    7.3995    6.1871 C   0  0  0  0  0  0  0  0  0  0  0  0
    1.5847    6.9745    7.4246 C   0  0  0  0  0  0  0  0  0  0  0  0
    1.0013    5.7628    7.5738 F   0  0  0  0  0  0  0  0  0  0  0  0
    4.3658    3.5210   16.0039 O   0  0  0  0  0  0  0  0  0  0  0  0
    4.4370    1.9385   20.7260 C   0  0  0  0  0  0  0  0  0  0  0  0
    3.7426    0.9903   20.0051 C   0  0  0  0  0  0  0  0  0  0  0  0
    3.5391    1.1276   18.6494 C   0  0  0  0  0  0  0  0  0  0  0  0
    2.8532    0.1852   17.9533 N   0  0  0  0  0  0  0  0  0  0  0  0
    2.6550    0.3199   16.6319 C   0  0  0  0  0  0  0  0  0  0  0  0
    3.1335    1.4105   15.9264 C   0  0  0  0  0  0  0  0  0  0  0  0
    3.8305    2.3867   16.5780 C   0  0  0  0  0  0  0  0  0  0  0  0
    4.0168    2.2108   17.9577 C   0  0  0  0  0  0  0  0  0  0  0  0
    4.7167    3.1629   18.6944 C   0  0  0  0  0  0  0  0  0  0  0  0
    4.9293    3.0426   20.0473 C   0  0  0  0  0  0  0  0  0  0  0  0
    3.6628    1.1203   22.8451 C   0  0  0  0  0  0  0  0  0  0  0  0
    4.6520    1.8119   22.1073 O   0  0  0  0  0  0  0  0  0  0  0  0
    5.6255    3.9896   20.7798 O   0  0  0  0  0  0  0  0  0  0  0  0
    5.0663    5.2388   21.1406 C   0  0  0  0  0  0  0  0  0  0  0  0
 33 34  1  0  0  0
 34 23  1  0  0  0
 23 24  2  0  0  0
 24 25  1  0  0  0
 25 26  2  0  0  0
 26 27  1  0  0  0
 27 28  2  0  0  0
 28 29  1  0  0  0
 29 22  1  0  0  0
 22  1  1  0  0  0
  1  2  2  0  0  0
  2  3  1  0  0  0
  3  4  2  0  0  0
  4  8  1  0  0  0
  8  9  1  0  0  0
  9 10  2  0  0  0
  9 11  1  0  0  0
 11 14  1  0  0  0
 14 15  2  0  0  0
 15 16  1  0  0  0
 16 17  2  0  0  0
 17 18  1  0  0  0
 17 19  1  0  0  0
 19 20  2  0  0  0
 20 21  1  0  0  0
  4  5  1  0  0  0
  5  6  2  0  0  0
  6  7  1  0  0  0
 29 30  2  0  0  0
 30 31  1  0  0  0
 31 32  2  0  0  0
 32 35  1  0  0  0
 35 36  1  0  0  0
 32 23  1  0  0  0
 30 25  1  0  0  0
  6  1  1  0  0  0
 20 14  1  0  0  0
  8 12  1  0  0  0
 11 13  1  0  0  0
M  END
> <minimizedAffinity>
-7.99280

> <CNNscore>
0.4203914702

> <CNNaffinity>
6.5004639626

> <CNN_VS>
2.7327396870

> <CNNaffinity_variance>
0.5018437505

$$$$
[H]c1nc2c([H])c(OC([H])([H])[H])c(OC([H])([H])[H])c([H])c2c(Oc2c([H])c([H])c(N([H])C(=O)N([H])c3c([H])c([H])c(F)c([H])c3F)c([H])c2F)c1[H]


 36 39  0  0  0  0  0  0  0  0999 V2000
    4.0130    2.7289   16.1161 C   0  0  0  0  0  0  0  0  0  0  0  0
    3.7939    3.6414   15.0791 C   0  0  0  0  0  0  0  0  0  0  0  0
    2.8528    3.4265   14.1185 C   0  0  0  0  0  0  0  0  0  0  0  0
    2.0398    2.2751   14.1045 C   0  0  0  0  0  0  0  0  0  0  0  0
    2.2603    1.3941   15.1170 C   0  0  0  0  0  0  0  0  0  0  0  0
    3.2282    1.6082   16.1095 C   0  0  0  0  0  0  0  0  0  0  0  0
    3.4041    0.6615   17.0729 F   0  0  0  0  0  0  0  0  0  0  0  0
    1.0928    2.1323   13.1174 N   0  0  0  0  0  0  0  0  0  0  0  0
    1.3536    1.7993   11.7578 C   0  0  0  0  0  0  0  0  0  0  0  0
    2.5057    1.6080   11.3261 O   0  0  0  0  0  0  0  0  0  0  0  0
    0.2542    1.6854   10.8794 N   0  0  0  0  0  0  0  0  0  0  0  0
    0.0727    2.2798   13.3826 H   0  0  0  0  0  0  0  0  0  0  0  0
   -0.6978    1.8647   11.3282 H   0  0  0  0  0  0  0  0  0  0  0  0
    0.2954    1.3718    9.5281 C   0  0  0  0  0  0  0  0  0  0  0  0
    0.4029    2.2657    8.5125 C   0  0  0  0  0  0  0  0  0  0  0  0
    0.4362    1.8469    7.1761 C   0  0  0  0  0  0  0  0  0  0  0  0
    0.3620    0.5248    6.8428 C   0  0  0  0  0  0  0  0  0  0  0  0
    0.3927    0.1026    5.5604 F   0  0  0  0  0  0  0  0  0  0  0  0
    0.2529   -0.3674    7.8964 C   0  0  0  0  0  0  0  0  0  0  0  0
    0.2189    0.0195    9.2002 C   0  0  0  0  0  0  0  0  0  0  0  0
    0.1108   -0.9110   10.1766 F   0  0  0  0  0  0  0  0  0  0  0  0
    4.9801    2.9768   17.0749 O   0  0  0  0  0  0  0  0  0  0  0  0
    4.2740    2.5383   21.9857 C   0  0  0  0  0  0  0  0  0  0  0  0
    4.2107    3.8856   21.6992 C   0  0  0  0  0  0  0  0  0  0  0  0
    4.3685    4.3531   20.4129 C   0  0  0  0  0  0  0  0  0  0  0  0
    4.3035    5.6827   20.1466 N   0  0  0  0  0  0  0  0  0  0  0  0
    4.4578    6.1377   18.8925 C   0  0  0  0  0  0  0  0  0  0  0  0
    4.6873    5.2850   17.8265 C   0  0  0  0  0  0  0  0  0  0  0  0
    4.7610    3.9386   18.0390 C   0  0  0  0  0  0  0  0  0  0  0  0
    4.5952    3.5017   19.3622 C   0  0  0  0  0  0  0  0  0  0  0  0
    4.6575    2.1433   19.6616 C   0  0  0  0  0  0  0  0  0  0  0  0
    4.5024    1.6587   20.9388 C   0  0  0  0  0  0  0  0  0  0  0  0
    5.2311    2.1582   24.1534 C   0  0  0  0  0  0  0  0  0  0  0  0
    4.1151    2.0477   23.2912 O   0  0  0  0  0  0  0  0  0  0  0  0
    4.5643    0.3076   21.2364 O   0  0  0  0  0  0  0  0  0  0  0  0
    3.4565   -0.5599   21.0837 C   0  0  0  0  0  0  0  0  0  0  0  0
 33 34  1  0  0  0
 34 23  1  0  0  0
 23 24  2  0  0  0
 24 25  1  0  0  0
 25 26  2  0  0  0
 26 27  1  0  0  0
 27 28  2  0  0  0
 28 29  1  0  0  0
 29 22  1  0  0  0
 22  1  1  0  0  0
  1  2  2  0  0  0
  2  3  1  0  0  0
  3  4  2  0  0  0
  4  8  1  0  0  0
  8  9  1  0  0  0
  9 10  2  0  0  0
  9 11  1  0  0  0
 11 14  1  0  0  0
 14 15  2  0  0  0
 15 16  1  0  0  0
 16 17  2  0  0  0
 17 18  1  0  0  0
 17 19  1  0  0  0
 19 20  2  0  0  0
 20 21  1  0  0  0
  4  5  1  0  0  0
  5  6  2  0  0  0
  6  7  1  0  0  0
 29 30  2  0  0  0
 30 31  1  0  0  0
 31 32  2  0  0  0
 32 35  1  0  0  0
 35 36  1  0  0  0
 32 23  1  0  0  0
 30 25  1  0  0  0
  6  1  1  0  0  0
 20 14  1  0  0  0
  8 12  1  0  0  0
 11 13  1  0  0  0
M  END
> <minimizedAffinity>
-8.15374

> <CNNscore>
0.3493819237

> <CNNaffinity>
6.4868941307

> <CNN_VS>
2.2664034367

> <CNNaffinity_variance>
0.1173060760

$$$$
[H]c1nc2c([H])c(OC([H])([H])[H])c(OC([H])([H])[H])c([H])c2c(Oc2c([H])c([H])c(N([H])C(=O)N([H])c3c([H])c([H])c(F)c([H])c3F)c([H])c2F)c1[H]


 36 39  0  0  0  0  0  0  0  0999 V2000
    5.4945    6.0561   18.9359 C   0  0  0  0  0  0  0  0  0  0  0  0
    4.3827    6.8764   19.1522 C   0  0  0  0  0  0  0  0  0  0  0  0
    3.6629    7.3994   18.1212 C   0  0  0  0  0  0  0  0  0  0  0  0
    3.9885    7.1504   16.7725 C   0  0  0  0  0  0  0  0  0  0  0  0
    5.0710    6.3515   16.5726 C   0  0  0  0  0  0  0  0  0  0  0  0
    5.8176    5.8099   17.6294 C   0  0  0  0  0  0  0  0  0  0  0  0
    6.9051    5.0418   17.3415 F   0  0  0  0  0  0  0  0  0  0  0  0
    3.2048    7.6917   15.7805 N   0  0  0  0  0  0  0  0  0  0  0  0
    2.3502    6.9624   14.9056 C   0  0  0  0  0  0  0  0  0  0  0  0
    2.2392    5.7234   14.9599 O   0  0  0  0  0  0  0  0  0  0  0  0
    1.6080    7.6856   13.9468 N   0  0  0  0  0  0  0  0  0  0  0  0
    3.2305    8.7474   15.6476 H   0  0  0  0  0  0  0  0  0  0  0  0
    1.7603    8.7421   13.9667 H   0  0  0  0  0  0  0  0  0  0  0  0
    0.7260    7.1660   13.0098 C   0  0  0  0  0  0  0  0  0  0  0  0
    0.9973    6.9666   11.6950 C   0  0  0  0  0  0  0  0  0  0  0  0
    0.0351    6.4344   10.8269 C   0  0  0  0  0  0  0  0  0  0  0  0
   -1.2118    6.0957   11.2685 C   0  0  0  0  0  0  0  0  0  0  0  0
   -2.1519    5.5815   10.4465 F   0  0  0  0  0  0  0  0  0  0  0  0
   -1.4642    6.3085   12.6135 C   0  0  0  0  0  0  0  0  0  0  0  0
   -0.5435    6.8241   13.4721 C   0  0  0  0  0  0  0  0  0  0  0  0
   -0.8630    7.0038   14.7746 F   0  0  0  0  0  0  0  0  0  0  0  0
    6.2060    5.5433   20.0068 O   0  0  0  0  0  0  0  0  0  0  0  0
    3.7655    1.2203   20.4096 C   0  0  0  0  0  0  0  0  0  0  0  0
    3.6614    1.8450   21.6344 C   0  0  0  0  0  0  0  0  0  0  0  0
    4.2356    3.0764   21.8622 C   0  0  0  0  0  0  0  0  0  0  0  0
    4.1243    3.6789   23.0737 N   0  0  0  0  0  0  0  0  0  0  0  0
    4.6846    4.8791   23.2950 C   0  0  0  0  0  0  0  0  0  0  0  0
    5.3923    5.5499   22.3126 C   0  0  0  0  0  0  0  0  0  0  0  0
    5.5336    4.9891   21.0761 C   0  0  0  0  0  0  0  0  0  0  0  0
    4.9348    3.7347   20.8835 C   0  0  0  0  0  0  0  0  0  0  0  0
    5.0344    3.0958   19.6502 C   0  0  0  0  0  0  0  0  0  0  0  0
    4.4681    1.8674   19.4049 C   0  0  0  0  0  0  0  0  0  0  0  0
    3.3988   -1.0368   21.1381 C   0  0  0  0  0  0  0  0  0  0  0  0
    3.1858   -0.0341   20.1632 O   0  0  0  0  0  0  0  0  0  0  0  0
    4.5673    1.2322   18.1782 O   0  0  0  0  0  0  0  0  0  0  0  0
    4.1960    1.8554   16.9629 C   0  0  0  0  0  0  0  0  0  0  0  0
 33 34  1  0  0  0
 34 23  1  0  0  0
 23 24  2  0  0  0
 24 25  1  0  0  0
 25 26  2  0  0  0
 26 27  1  0  0  0
 27 28  2  0  0  0
 28 29  1  0  0  0
 29 22  1  0  0  0
 22  1  1  0  0  0
  1  2  2  0  0  0
  2  3  1  0  0  0
  3  4  2  0  0  0
  4  8  1  0  0  0
  8  9  1  0  0  0
  9 10  2  0  0  0
  9 11  1  0  0  0
 11 14  1  0  0  0
 14 15  2  0  0  0
 15 16  1  0  0  0
 16 17  2  0  0  0
 17 18  1  0  0  0
 17 19  1  0  0  0
 19 20  2  0  0  0
 20 21  1  0  0  0
  4  5  1  0  0  0
  5  6  2  0  0  0
  6  7  1  0  0  0
 29 30  2  0  0  0
 30 31  1  0  0  0
 31 32  2  0  0  0
 32 35  1  0  0  0
 35 36  1  0  0  0
 32 23  1  0  0  0
 30 25  1  0  0  0
  6  1  1  0  0  0
 20 14  1  0  0  0
  8 12  1  0  0  0
 11 13  1  0  0  0
M  END
> <minimizedAffinity>
-8.54129

> <CNNscore>
0.3014785051

> <CNNaffinity>
6.5874776840

> <CNN_VS>
1.9859828949

> <CNNaffinity_variance>
0.1358083934

$$$$
[H]c1nc2c([H])c(OC([H])([H])[H])c(OC([H])([H])[H])c([H])c2c(Oc2c([H])c([H])c(N([H])C(=O)N([H])c3c([H])c([H])c(F)c([H])c3F)c([H])c2F)c1[H]


 36 39  0  0  0  0  0  0  0  0999 V2000
    3.9538    1.4596   17.6226 C   0  0  0  0  0  0  0  0  0  0  0  0
    3.9433    2.6222   16.8453 C   0  0  0  0  0  0  0  0  0  0  0  0
    3.0971    2.7738   15.7891 C   0  0  0  0  0  0  0  0  0  0  0  0
    2.1791    1.7737   15.4096 C   0  0  0  0  0  0  0  0  0  0  0  0
    2.1969    0.6473   16.1716 C   0  0  0  0  0  0  0  0  0  0  0  0
    3.0660    0.4836   17.2605 C   0  0  0  0  0  0  0  0  0  0  0  0
    3.0386   -0.6881   17.9546 F   0  0  0  0  0  0  0  0  0  0  0  0
    1.3373    2.0020   14.3462 N   0  0  0  0  0  0  0  0  0  0  0  0
    1.7151    2.0062   12.9734 C   0  0  0  0  0  0  0  0  0  0  0  0
    2.8862    1.8031   12.6023 O   0  0  0  0  0  0  0  0  0  0  0  0
    0.7130    2.2514   12.0095 N   0  0  0  0  0  0  0  0  0  0  0  0
    0.3113    2.1913   14.5566 H   0  0  0  0  0  0  0  0  0  0  0  0
   -0.2628    2.4156   12.4102 H   0  0  0  0  0  0  0  0  0  0  0  0
    0.8744    2.2973   10.6319 C   0  0  0  0  0  0  0  0  0  0  0  0
    1.2727    3.3813    9.9188 C   0  0  0  0  0  0  0  0  0  0  0  0
    1.4055    3.3257    8.5253 C   0  0  0  0  0  0  0  0  0  0  0  0
    1.1401    2.1807    7.8304 C   0  0  0  0  0  0  0  0  0  0  0  0
    1.2627    2.1084    6.4874 F   0  0  0  0  0  0  0  0  0  0  0  0
    0.7356    1.0888    8.5802 C   0  0  0  0  0  0  0  0  0  0  0  0
    0.6006    1.1228    9.9335 C   0  0  0  0  0  0  0  0  0  0  0  0
    0.2004    0.0146   10.5988 F   0  0  0  0  0  0  0  0  0  0  0  0
    4.8292    1.3368   18.6878 O   0  0  0  0  0  0  0  0  0  0  0  0
    5.1742    5.4827   21.4264 C   0  0  0  0  0  0  0  0  0  0  0  0
    4.5222    4.5508   22.2060 C   0  0  0  0  0  0  0  0  0  0  0  0
    4.2626    3.2810   21.7389 C   0  0  0  0  0  0  0  0  0  0  0  0
    3.6196    2.3745   22.5186 N   0  0  0  0  0  0  0  0  0  0  0  0
    3.3666    1.1370   22.0625 C   0  0  0  0  0  0  0  0  0  0  0  0
    3.7438    0.7322   20.7937 C   0  0  0  0  0  0  0  0  0  0  0  0
    4.3940    1.6043   19.9690 C   0  0  0  0  0  0  0  0  0  0  0  0
    4.6399    2.8876   20.4808 C   0  0  0  0  0  0  0  0  0  0  0  0
    5.2976    3.8356   19.7012 C   0  0  0  0  0  0  0  0  0  0  0  0
    5.5652    5.1070   20.1505 C   0  0  0  0  0  0  0  0  0  0  0  0
    6.6248    6.9507   22.6513 C   0  0  0  0  0  0  0  0  0  0  0  0
    5.4455    6.7799   21.8890 O   0  0  0  0  0  0  0  0  0  0  0  0
    6.2193    6.0497   19.3750 O   0  0  0  0  0  0  0  0  0  0  0  0
    5.5917    6.7231   18.2999 C   0  0  0  0  0  0  0  0  0  0  0  0
 33 34  1  0  0  0
 34 23  1  0  0  0
 23 24  2  0  0  0
 24 25  1  0  0  0
 25 26  2  0  0  0
 26 27  1  0  0  0
 27 28  2  0  0  0
 28 29  1  0  0  0
 29 22  1  0  0  0
 22  1  1  0  0  0
  1  2  2  0  0  0
  2  3  1  0  0  0
  3  4  2  0  0  0
  4  8  1  0  0  0
  8  9  1  0  0  0
  9 10  2  0  0  0
  9 11  1  0  0  0
 11 14  1  0  0  0
 14 15  2  0  0  0
 15 16  1  0  0  0
 16 17  2  0  0  0
 17 18  1  0  0  0
 17 19  1  0  0  0
 19 20  2  0  0  0
 20 21  1  0  0  0
  4  5  1  0  0  0
  5  6  2  0  0  0
  6  7  1  0  0  0
 29 30  2  0  0  0
 30 31  1  0  0  0
 31 32  2  0  0  0
 32 35  1  0  0  0
 35 36  1  0  0  0
 32 23  1  0  0  0
 30 25  1  0  0  0
  6  1  1  0  0  0
 20 14  1  0  0  0
  8 12  1  0  0  0
 11 13  1  0  0  0
M  END
> <minimizedAffinity>
-8.55106

> <CNNscore>
0.2731215060

> <CNNaffinity>
6.5432372093

> <CNN_VS>
1.7870987654

> <CNNaffinity_variance>
0.2612877488

$$$$
[H]c1nc2c([H])c(OC([H])([H])[H])c(OC([H])([H])[H])c([H])c2c(Oc2c([H])c([H])c(N([H])C(=O)N([H])c3c([H])c([H])c(F)c([H])c3F)c([H])c2F)c1[H]


 36 39  0  0  0  0  0  0  0  0999 V2000
    3.5125    3.4286   15.7502 C   0  0  0  0  0  0  0  0  0  0  0  0
    3.4891    3.1990   14.3709 C   0  0  0  0  0  0  0  0  0  0  0  0
    2.6705    3.9002   13.5385 C   0  0  0  0  0  0  0  0  0  0  0  0
    1.7954    4.9001   14.0090 C   0  0  0  0  0  0  0  0  0  0  0  0
    1.8257    5.1160   15.3515 C   0  0  0  0  0  0  0  0  0  0  0  0
    2.6656    4.3973   16.2151 C   0  0  0  0  0  0  0  0  0  0  0  0
    2.6136    4.6569   17.5512 F   0  0  0  0  0  0  0  0  0  0  0  0
    1.0123    5.5858   13.1101 N   0  0  0  0  0  0  0  0  0  0  0  0
   -0.2202    5.1280   12.5633 C   0  0  0  0  0  0  0  0  0  0  0  0
   -0.7114    4.0222   12.8569 O   0  0  0  0  0  0  0  0  0  0  0  0
   -0.8981    5.9711   11.6561 N   0  0  0  0  0  0  0  0  0  0  0  0
    1.3466    6.5441   12.7899 H   0  0  0  0  0  0  0  0  0  0  0  0
   -0.4103    6.8999   11.4582 H   0  0  0  0  0  0  0  0  0  0  0  0
   -2.1026    5.7118   11.0174 C   0  0  0  0  0  0  0  0  0  0  0  0
   -2.2402    5.2040    9.7663 C   0  0  0  0  0  0  0  0  0  0  0  0
   -3.5054    4.9778    9.2088 C   0  0  0  0  0  0  0  0  0  0  0  0
   -4.6484    5.2588    9.9010 C   0  0  0  0  0  0  0  0  0  0  0  0
   -5.8762    5.0473    9.3800 F   0  0  0  0  0  0  0  0  0  0  0  0
   -4.4817    5.7758   11.1750 C   0  0  0  0  0  0  0  0  0  0  0  0
   -3.2622    6.0026   11.7337 C   0  0  0  0  0  0  0  0  0  0  0  0
   -3.1782    6.5104   12.9850 F   0  0  0  0  0  0  0  0  0  0  0  0
    4.3548    2.6957   16.5684 O   0  0  0  0  0  0  0  0  0  0  0  0
    4.7414    2.2245   21.5117 C   0  0  0  0  0  0  0  0  0  0  0  0
    3.9632    1.1725   21.0771 C   0  0  0  0  0  0  0  0  0  0  0  0
    3.6597    1.0083   19.7433 C   0  0  0  0  0  0  0  0  0  0  0  0
    2.8921   -0.0327   19.3309 N   0  0  0  0  0  0  0  0  0  0  0  0
    2.5964   -0.1918   18.0307 C   0  0  0  0  0  0  0  0  0  0  0  0
    3.0534    0.6854   17.0624 C   0  0  0  0  0  0  0  0  0  0  0  0
    3.8297    1.7488   17.4230 C   0  0  0  0  0  0  0  0  0  0  0  0
    4.1167    1.8817   18.7901 C   0  0  0  0  0  0  0  0  0  0  0  0
    4.9017    2.9407   19.2388 C   0  0  0  0  0  0  0  0  0  0  0  0
    5.2147    3.1203   20.5654 C   0  0  0  0  0  0  0  0  0  0  0  0
    4.1540    3.1729   23.6365 C   0  0  0  0  0  0  0  0  0  0  0  0
    5.0587    2.4043   22.8671 O   0  0  0  0  0  0  0  0  0  0  0  0
    5.9955    4.1737   21.0113 O   0  0  0  0  0  0  0  0  0  0  0  0
    5.5422    5.5145   21.0104 C   0  0  0  0  0  0  0  0  0  0  0  0
 33 34  1  0  0  0
 34 23  1  0  0  0
 23 24  2  0  0  0
 24 25  1  0  0  0
 25 26  2  0  0  0
 26 27  1  0  0  0
 27 28  2  0  0  0
 28 29  1  0  0  0
 29 22  1  0  0  0
 22  1  1  0  0  0
  1  2  2  0  0  0
  2  3  1  0  0  0
  3  4  2  0  0  0
  4  8  1  0  0  0
  8  9  1  0  0  0
  9 10  2  0  0  0
  9 11  1  0  0  0
 11 14  1  0  0  0
 14 15  2  0  0  0
 15 16  1  0  0  0
 16 17  2  0  0  0
 17 18  1  0  0  0
 17 19  1  0  0  0
 19 20  2  0  0  0
 20 21  1  0  0  0
  4  5  1  0  0  0
  5  6  2  0  0  0
  6  7  1  0  0  0
 29 30  2  0  0  0
 30 31  1  0  0  0
 31 32  2  0  0  0
 32 35  1  0  0  0
 35 36  1  0  0  0
 32 23  1  0  0  0
 30 25  1  0  0  0
  6  1  1  0  0  0
 20 14  1  0  0  0
  8 12  1  0  0  0
 11 13  1  0  0  0
M  END
> <minimizedAffinity>
-8.82759

> <CNNscore>
0.2512491941

> <CNNaffinity>
6.4226670265

> <CNN_VS>
1.6136898994

> <CNNaffinity_variance>
0.1732191741

$$$$
[H]c1nc2c([H])c(OC([H])([H])[H])c(OC([H])([H])[H])c([H])c2c(Oc2c([H])c([H])c(N([H])C(=O)N([H])c3c([H])c([H])c(F)c([H])c3F)c([H])c2F)c1[H]


 36 39  0  0  0  0  0  0  0  0999 V2000
    4.1297    1.3552   18.0984 C   0  0  0  0  0  0  0  0  0  0  0  0
    4.3533    2.2995   17.0913 C   0  0  0  0  0  0  0  0  0  0  0  0
    3.5801    2.3538   15.9715 C   0  0  0  0  0  0  0  0  0  0  0  0
    2.5074    1.4659   15.7529 C   0  0  0  0  0  0  0  0  0  0  0  0
    2.2980    0.5517   16.7379 C   0  0  0  0  0  0  0  0  0  0  0  0
    3.0905    0.4892   17.8936 C   0  0  0  0  0  0  0  0  0  0  0  0
    2.8304   -0.4758   18.8190 F   0  0  0  0  0  0  0  0  0  0  0  0
    1.7527    1.5914   14.6100 N   0  0  0  0  0  0  0  0  0  0  0  0
    1.4553    2.8125   13.9406 C   0  0  0  0  0  0  0  0  0  0  0  0
    1.8619    3.9154   14.3510 O   0  0  0  0  0  0  0  0  0  0  0  0
    0.6691    2.7533   12.7694 N   0  0  0  0  0  0  0  0  0  0  0  0
    1.3525    0.7044   14.1790 H   0  0  0  0  0  0  0  0  0  0  0  0
    0.3614    1.7711   12.4860 H   0  0  0  0  0  0  0  0  0  0  0  0
    0.2714    3.8211   11.9771 C   0  0  0  0  0  0  0  0  0  0  0  0
   -0.8357    4.5813   12.1735 C   0  0  0  0  0  0  0  0  0  0  0  0
   -1.1513    5.6414   11.3137 C   0  0  0  0  0  0  0  0  0  0  0  0
   -0.3588    5.9514   10.2459 C   0  0  0  0  0  0  0  0  0  0  0  0
   -0.6469    6.9694    9.4066 F   0  0  0  0  0  0  0  0  0  0  0  0
    0.7647    5.1615   10.0669 C   0  0  0  0  0  0  0  0  0  0  0  0
    1.0881    4.1281   10.8904 C   0  0  0  0  0  0  0  0  0  0  0  0
    2.2033    3.4000   10.6519 F   0  0  0  0  0  0  0  0  0  0  0  0
    4.9365    1.3256   19.2227 O   0  0  0  0  0  0  0  0  0  0  0  0
    5.1213    5.8481   21.3014 C   0  0  0  0  0  0  0  0  0  0  0  0
    4.4514    5.0348   22.1908 C   0  0  0  0  0  0  0  0  0  0  0  0
    4.2265    3.7037   21.9156 C   0  0  0  0  0  0  0  0  0  0  0  0
    3.5653    2.9156   22.8014 N   0  0  0  0  0  0  0  0  0  0  0  0
    3.3462    1.6183   22.5323 C   0  0  0  0  0  0  0  0  0  0  0  0
    3.7777    1.0308   21.3556 C   0  0  0  0  0  0  0  0  0  0  0  0
    4.4483    1.7782   20.4308 C   0  0  0  0  0  0  0  0  0  0  0  0
    4.6576    3.1291   20.7476 C   0  0  0  0  0  0  0  0  0  0  0  0
    5.3330    3.9585   19.8559 C   0  0  0  0  0  0  0  0  0  0  0  0
    5.5664    5.2886   20.1136 C   0  0  0  0  0  0  0  0  0  0  0  0
    6.5035    7.5133   22.3387 C   0  0  0  0  0  0  0  0  0  0  0  0
    5.3576    7.2057   21.5683 O   0  0  0  0  0  0  0  0  0  0  0  0
    6.2382    6.1132   19.2267 O   0  0  0  0  0  0  0  0  0  0  0  0
    6.1026    5.9965   17.8227 C   0  0  0  0  0  0  0  0  0  0  0  0
 33 34  1  0  0  0
 34 23  1  0  0  0
 23 24  2  0  0  0
 24 25  1  0  0  0
 25 26  2  0  0  0
 26 27  1  0  0  0
 27 28  2  0  0  0
 28 29  1  0  0  0
 29 22  1  0  0  0
 22  1  1  0  0  0
  1  2  2  0  0  0
  2  3  1  0  0  0
  3  4  2  0  0  0
  4  8  1  0  0  0
  8  9  1  0  0  0
  9 10  2  0  0  0
  9 11  1  0  0  0
 11 14  1  0  0  0
 14 15  2  0  0  0
 15 16  1  0  0  0
 16 17  2  0  0  0
 17 18  1  0  0  0
 17 19  1  0  0  0
 19 20  2  0  0  0
 20 21  1  0  0  0
  4  5  1  0  0  0
  5  6  2  0  0  0
  6  7  1  0  0  0
 29 30  2  0  0  0
 30 31  1  0  0  0
 31 32  2  0  0  0
 32 35  1  0  0  0
 35 36  1  0  0  0
 32 23  1  0  0  0
 30 25  1  0  0  0
  6  1  1  0  0  0
 20 14  1  0  0  0
  8 12  1  0  0  0
 11 13  1  0  0  0
M  END
> <minimizedAffinity>
-9.25749

> <CNNscore>
0.2409817874

> <CNNaffinity>
6.4157385826

> <CNN_VS>
1.5460761786

> <CNNaffinity_variance>
0.3649528623

$$$$
[H]c1nc2c([H])c(OC([H])([H])[H])c(OC([H])([H])[H])c([H])c2c(Oc2c([H])c([H])c(N([H])C(=O)N([H])c3c([H])c([H])c(F)c([H])c3F)c([H])c2F)c1[H]


 36 39  0  0  0  0  0  0  0  0999 V2000
    2.7228    3.0586   13.6509 C   0  0  0  0  0  0  0  0  0  0  0  0
    2.1615    1.8313   14.0178 C   0  0  0  0  0  0  0  0  0  0  0  0
    2.4685    1.2236   15.1972 C   0  0  0  0  0  0  0  0  0  0  0  0
    3.3688    1.7879   16.1235 C   0  0  0  0  0  0  0  0  0  0  0  0
    3.9090    2.9813   15.7577 C   0  0  0  0  0  0  0  0  0  0  0  0
    3.5981    3.6129   14.5444 C   0  0  0  0  0  0  0  0  0  0  0  0
    4.2055    4.7942   14.2424 F   0  0  0  0  0  0  0  0  0  0  0  0
    3.6162    1.1315   17.3064 N   0  0  0  0  0  0  0  0  0  0  0  0
    4.0495    1.7391   18.5191 C   0  0  0  0  0  0  0  0  0  0  0  0
    4.2569    2.9630   18.6160 O   0  0  0  0  0  0  0  0  0  0  0  0
    4.2467    0.9094   19.6442 N   0  0  0  0  0  0  0  0  0  0  0  0
    3.4728    0.0771   17.3288 H   0  0  0  0  0  0  0  0  0  0  0  0
    4.0472   -0.1261   19.4772 H   0  0  0  0  0  0  0  0  0  0  0  0
    4.6631    1.3032   20.9081 C   0  0  0  0  0  0  0  0  0  0  0  0
    5.8940    1.7819   21.2209 C   0  0  0  0  0  0  0  0  0  0  0  0
    6.2176    2.1537   22.5322 C   0  0  0  0  0  0  0  0  0  0  0  0
    5.3088    2.0496   23.5460 C   0  0  0  0  0  0  0  0  0  0  0  0
    5.6027    2.4033   24.8158 F   0  0  0  0  0  0  0  0  0  0  0  0
    4.0603    1.5588   23.2017 C   0  0  0  0  0  0  0  0  0  0  0  0
    3.7270    1.1924   21.9347 C   0  0  0  0  0  0  0  0  0  0  0  0
    2.4859    0.7208   21.6740 F   0  0  0  0  0  0  0  0  0  0  0  0
    2.3912    3.6476   12.4429 O   0  0  0  0  0  0  0  0  0  0  0  0
    2.2847    0.4665    8.6118 C   0  0  0  0  0  0  0  0  0  0  0  0
    3.3854    1.2746    8.4201 C   0  0  0  0  0  0  0  0  0  0  0  0
    3.7048    2.2745    9.3125 C   0  0  0  0  0  0  0  0  0  0  0  0
    4.7920    3.0619    9.1099 N   0  0  0  0  0  0  0  0  0  0  0  0
    5.1025    4.0365    9.9800 C   0  0  0  0  0  0  0  0  0  0  0  0
    4.3400    4.2815   11.1090 C   0  0  0  0  0  0  0  0  0  0  0  0
    3.2366    3.5182   11.3606 C   0  0  0  0  0  0  0  0  0  0  0  0
    2.9444    2.5105   10.4288 C   0  0  0  0  0  0  0  0  0  0  0  0
    1.8351    1.6894   10.6136 C   0  0  0  0  0  0  0  0  0  0  0  0
    1.5011    0.6870    9.7340 C   0  0  0  0  0  0  0  0  0  0  0  0
    1.7060   -0.1706    6.3716 C   0  0  0  0  0  0  0  0  0  0  0  0
    1.9471   -0.5558    7.7113 O   0  0  0  0  0  0  0  0  0  0  0  0
    0.3977   -0.1295    9.9181 O   0  0  0  0  0  0  0  0  0  0  0  0
   -0.8684    0.1586    9.3550 C   0  0  0  0  0  0  0  0  0  0  0  0
 33 34  1  0  0  0
 34 23  1  0  0  0
 23 24  2  0  0  0
 24 25  1  0  0  0
 25 26  2  0  0  0
 26 27  1  0  0  0
 27 28  2  0  0  0
 28 29  1  0  0  0
 29 22  1  0  0  0
 22  1  1  0  0  0
  1  2  2  0  0  0
  2  3  1  0  0  0
  3  4  2  0  0  0
  4  8  1  0  0  0
  8  9  1  0  0  0
  9 10  2  0  0  0
  9 11  1  0  0  0
 11 14  1  0  0  0
 14 15  2  0  0  0
 15 16  1  0  0  0
 16 17  2  0  0  0
 17 18  1  0  0  0
 17 19  1  0  0  0
 19 20  2  0  0  0
 20 21  1  0  0  0
  4  5  1  0  0  0
  5  6  2  0  0  0
  6  7  1  0  0  0
 29 30  2  0  0  0
 30 31  1  0  0  0
 31 32  2  0  0  0
 32 35  1  0  0  0
 35 36  1  0  0  0
 32 23  1  0  0  0
 30 25  1  0  0  0
  6  1  1  0  0  0
 20 14  1  0  0  0
  8 12  1  0  0  0
 11 13  1  0  0  0
M  END
> <minimizedAffinity>
-8.03698

> <CNNscore>
0.2389313281

> <CNNaffinity>
6.4953918457

> <CNN_VS>
1.5519526005

> <CNNaffinity_variance>
0.1485464275

$$$$
[H]c1nc2c([H])c(OC([H])([H])[H])c(OC([H])([H])[H])c([H])c2c(Oc2c([H])c([H])c(N([H])C(=O)N([H])c3c([H])c([H])c(F)c([H])c3F)c([H])c2F)c1[H]


 36 39  0  0  0  0  0  0  0  0999 V2000
    2.6229    3.3491   13.7738 C   0  0  0  0  0  0  0  0  0  0  0  0
    3.6023    3.7937   14.6677 C   0  0  0  0  0  0  0  0  0  0  0  0
    3.9391    3.0815   15.7785 C   0  0  0  0  0  0  0  0  0  0  0  0
    3.3259    1.8539   16.1010 C   0  0  0  0  0  0  0  0  0  0  0  0
    2.3751    1.4301   15.2256 C   0  0  0  0  0  0  0  0  0  0  0  0
    2.0225    2.1584   14.0798 C   0  0  0  0  0  0  0  0  0  0  0  0
    1.0394    1.6761   13.2696 F   0  0  0  0  0  0  0  0  0  0  0  0
    3.7304    1.1753   17.2268 N   0  0  0  0  0  0  0  0  0  0  0  0
    4.0428    1.7646   18.4848 C   0  0  0  0  0  0  0  0  0  0  0  0
    3.9817    2.9927   18.6807 O   0  0  0  0  0  0  0  0  0  0  0  0
    4.4348    0.9111   19.5389 N   0  0  0  0  0  0  0  0  0  0  0  0
    3.8192    0.1166   17.1635 H   0  0  0  0  0  0  0  0  0  0  0  0
    4.4616   -0.1264   19.2884 H   0  0  0  0  0  0  0  0  0  0  0  0
    4.7780    1.2847   20.8307 C   0  0  0  0  0  0  0  0  0  0  0  0
    5.9996    1.7225   21.2283 C   0  0  0  0  0  0  0  0  0  0  0  0
    6.2463    2.0768   22.5610 C   0  0  0  0  0  0  0  0  0  0  0  0
    5.2692    1.9957   23.5113 C   0  0  0  0  0  0  0  0  0  0  0  0
    5.4885    2.3329   24.8005 F   0  0  0  0  0  0  0  0  0  0  0  0
    4.0318    1.5464   23.0810 C   0  0  0  0  0  0  0  0  0  0  0  0
    3.7725    1.1977   21.7918 C   0  0  0  0  0  0  0  0  0  0  0  0
    2.5375    0.7670   21.4456 F   0  0  0  0  0  0  0  0  0  0  0  0
    2.3026    4.0992   12.6554 O   0  0  0  0  0  0  0  0  0  0  0  0
    4.9816    2.6481    8.7151 C   0  0  0  0  0  0  0  0  0  0  0  0
    5.4194    3.9140    9.0423 C   0  0  0  0  0  0  0  0  0  0  0  0
    4.8756    4.6096   10.1000 C   0  0  0  0  0  0  0  0  0  0  0  0
    5.3174    5.8553   10.4098 N   0  0  0  0  0  0  0  0  0  0  0  0
    4.7866    6.5328   11.4406 C   0  0  0  0  0  0  0  0  0  0  0  0
    3.7780    6.0011   12.2255 C   0  0  0  0  0  0  0  0  0  0  0  0
    3.2977    4.7517   11.9577 C   0  0  0  0  0  0  0  0  0  0  0  0
    3.8769    4.0756   10.8730 C   0  0  0  0  0  0  0  0  0  0  0  0
    3.4415    2.7969   10.5347 C   0  0  0  0  0  0  0  0  0  0  0  0
    3.9723    2.0881    9.4831 C   0  0  0  0  0  0  0  0  0  0  0  0
    6.9349    1.9430    7.5123 C   0  0  0  0  0  0  0  0  0  0  0  0
    5.5262    1.9278    7.6406 O   0  0  0  0  0  0  0  0  0  0  0  0
    3.5392    0.8163    9.1469 O   0  0  0  0  0  0  0  0  0  0  0  0
    4.0479   -0.3518    9.7633 C   0  0  0  0  0  0  0  0  0  0  0  0
 33 34  1  0  0  0
 34 23  1  0  0  0
 23 24  2  0  0  0
 24 25  1  0  0  0
 25 26  2  0  0  0
 26 27  1  0  0  0
 27 28  2  0  0  0
 28 29  1  0  0  0
 29 22  1  0  0  0
 22  1  1  0  0  0
  1  2  2  0  0  0
  2  3  1  0  0  0
  3  4  2  0  0  0
  4  8  1  0  0  0
  8  9  1  0  0  0
  9 10  2  0  0  0
  9 11  1  0  0  0
 11 14  1  0  0  0
 14 15  2  0  0  0
 15 16  1  0  0  0
 16 17  2  0  0  0
 17 18  1  0  0  0
 17 19  1  0  0  0
 19 20  2  0  0  0
 20 21  1  0  0  0
  4  5  1  0  0  0
  5  6  2  0  0  0
  6  7  1  0  0  0
 29 30  2  0  0  0
 30 31  1  0  0  0
 31 32  2  0  0  0
 32 35  1  0  0  0
 35 36  1  0  0  0
 32 23  1  0  0  0
 30 25  1  0  0  0
  6  1  1  0  0  0
 20 14  1  0  0  0
  8 12  1  0  0  0
 11 13  1  0  0  0
M  END
> <minimizedAffinity>
-8.20524

> <CNNscore>
0.2116553634

> <CNNaffinity>
6.4354338646

> <CNN_VS>
1.3620940447

> <CNNaffinity_variance>
0.1137189418

$$$$
