[H]c1c([H])c(Cl)c(-c2c([H])c3c([H])nc(N([H])C([H])([H])[H])nc3n(C([H])([H])[H])c2=O)c(Cl)c1[H]
     RDKit          3D

 34 36  0  0  0  0  0  0  0  0999 V2000
    5.9432   -0.1351    0.7073 C   0  0  0  0  0  0  0  0  0  0  0  0
    4.9341   -0.0847   -0.3255 N   0  0  0  0  0  0  0  0  0  0  0  0
    3.5534   -0.0679   -0.0034 C   0  0  0  0  0  0  0  0  0  0  0  0
    3.1759   -0.0995    1.2877 N   0  0  0  0  0  0  0  0  0  0  0  0
    1.8667   -0.0848    1.6345 C   0  0  0  0  0  0  0  0  0  0  0  0
    0.8830   -0.0372    0.6805 C   0  0  0  0  0  0  0  0  0  0  0  0
   -0.4401   -0.0232    1.0594 C   0  0  0  0  0  0  0  0  0  0  0  0
   -1.3934    0.0257    0.0394 C   0  0  0  0  0  0  0  0  0  0  0  0
   -2.8186    0.0434    0.3600 C   0  0  0  0  0  0  0  0  0  0  0  0
   -3.5522   -1.1211    0.4847 C   0  0  0  0  0  0  0  0  0  0  0  0
   -2.7141   -2.6336    0.2445 Cl  0  0  0  0  0  0  0  0  0  0  0  0
   -4.8980   -1.1170    0.7870 C   0  0  0  0  0  0  0  0  0  0  0  0
   -5.5495    0.0933    0.9749 C   0  0  0  0  0  0  0  0  0  0  0  0
   -4.8427    1.2754    0.8568 C   0  0  0  0  0  0  0  0  0  0  0  0
   -3.4873    1.2337    0.5511 C   0  0  0  0  0  0  0  0  0  0  0  0
   -2.6513    2.7657    0.4160 Cl  0  0  0  0  0  0  0  0  0  0  0  0
   -0.9473    0.0564   -1.2661 C   0  0  0  0  0  0  0  0  0  0  0  0
   -1.7865    0.1009   -2.2125 O   0  0  0  0  0  0  0  0  0  0  0  0
    0.3493    0.0417   -1.6055 N   0  0  0  0  0  0  0  0  0  0  0  0
    0.7696    0.0759   -3.0107 C   0  0  0  0  0  0  0  0  0  0  0  0
    1.2833   -0.0052   -0.6392 C   0  0  0  0  0  0  0  0  0  0  0  0
    2.6053   -0.0215   -0.9409 N   0  0  0  0  0  0  0  0  0  0  0  0
    6.8112   -0.7467    0.3226 H   0  0  0  0  0  0  0  0  0  0  0  0
    6.2754    0.8835    0.9999 H   0  0  0  0  0  0  0  0  0  0  0  0
    5.5398   -0.7162    1.5654 H   0  0  0  0  0  0  0  0  0  0  0  0
    5.2481   -0.0610   -1.3143 H   0  0  0  0  0  0  0  0  0  0  0  0
    1.5687   -0.1098    2.6601 H   0  0  0  0  0  0  0  0  0  0  0  0
   -0.7686   -0.0481    2.0975 H   0  0  0  0  0  0  0  0  0  0  0  0
   -5.4867   -2.0185    0.8882 H   0  0  0  0  0  0  0  0  0  0  0  0
   -6.6202    0.0724    1.2145 H   0  0  0  0  0  0  0  0  0  0  0  0
   -5.3759    2.2064    1.0085 H   0  0  0  0  0  0  0  0  0  0  0  0
    1.4281    0.9395   -3.2099 H   0  0  0  0  0  0  0  0  0  0  0  0
   -0.1368    0.2102   -3.6252 H   0  0  0  0  0  0  0  0  0  0  0  0
    1.2340   -0.8929   -3.2870 H   0  0  0  0  0  0  0  0  0  0  0  0
  1  2  1  0
  2  3  1  0
  3  4  2  0
  4  5  1  0
  5  6  2  0
  6  7  1  0
  7  8  2  0
  8  9  1  0
  9 10  2  0
 10 11  1  0
 10 12  1  0
 12 13  2  0
 13 14  1  0
 14 15  2  0
 15 16  1  0
  8 17  1  0
 17 18  2  0
 17 19  1  0
 19 20  1  0
 19 21  1  0
 21 22  2  0
 22  3  1  0
 21  6  1  0
 15  9  1  0
  1 23  1  0
  1 24  1  0
  1 25  1  0
  2 26  1  0
  5 27  1  0
  7 28  1  0
 12 29  1  0
 13 30  1  0
 14 31  1  0
 20 32  1  0
 20 33  1  0
 20 34  1  0
M  END
$$$$
[H]OC(=O)C(F)(F)F.[H]OC(=O)C(F)(F)F
     RDKit          3D

 16 14  0  0  0  0  0  0  0  0999 V2000
   -1.4839   -0.4635    0.3845 O   0  0  0  0  0  0  0  0  0  0  0  0
   -0.4239   -0.3865   -0.5079 C   0  0  0  0  0  0  0  0  0  0  0  0
   -0.6220   -0.8081   -1.6672 O   0  0  0  0  0  0  0  0  0  0  0  0
    0.8663    0.1848   -0.0385 C   0  0  0  0  0  0  0  0  0  0  0  0
    0.6683    1.4762    0.3786 F   0  0  0  0  0  0  0  0  0  0  0  0
    1.7941    0.1720   -1.0648 F   0  0  0  0  0  0  0  0  0  0  0  0
    1.2846   -0.5451    1.0514 F   0  0  0  0  0  0  0  0  0  0  0  0
   -1.4839   -0.4635    0.3845 O   0  0  0  0  0  0  0  0  0  0  0  0
   -0.4239   -0.3865   -0.5079 C   0  0  0  0  0  0  0  0  0  0  0  0
   -0.6220   -0.8081   -1.6672 O   0  0  0  0  0  0  0  0  0  0  0  0
    0.8663    0.1848   -0.0385 C   0  0  0  0  0  0  0  0  0  0  0  0
    0.6683    1.4762    0.3786 F   0  0  0  0  0  0  0  0  0  0  0  0
    1.7941    0.1720   -1.0648 F   0  0  0  0  0  0  0  0  0  0  0  0
    1.2846   -0.5451    1.0514 F   0  0  0  0  0  0  0  0  0  0  0  0
   -2.0834    0.3704    0.4279 H   0  0  0  0  0  0  0  0  0  0  0  0
   -2.0834    0.3704    0.4279 H   0  0  0  0  0  0  0  0  0  0  0  0
  1  2  1  0
  2  3  2  0
  2  4  1  0
  4  5  1  0
  4  6  1  0
  4  7  1  0
  8  9  1  0
  9 10  2  0
  9 11  1  0
 11 12  1  0
 11 13  1  0
 11 14  1  0
  1 15  1  0
  8 16  1  0
M  END
$$$$
[H]OC(=O)C([H])([H])Oc1c([H])c([H])c([H])n2c(C([H])([H])c3c([H])c([H])c([H])c([H])c3[H])c(C([H])([H])C([H])([H])[H])c(C(=O)C(=O)N([H])[H])c12
     RDKit          3D

 48 50  0  0  0  0  0  0  0  0999 V2000
    1.5434    2.4215    1.4785 C   0  0  0  0  0  0  0  0  0  0  0  0
    1.2294    2.3096    0.0042 C   0  0  0  0  0  0  0  0  0  0  0  0
    0.5525    1.0327   -0.3505 C   0  0  0  0  0  0  0  0  0  0  0  0
   -0.7881    0.7377   -0.0551 C   0  0  0  0  0  0  0  0  0  0  0  0
   -1.6906    1.6452    0.6606 C   0  0  0  0  0  0  0  0  0  0  0  0
   -1.7916    1.6144    1.8997 O   0  0  0  0  0  0  0  0  0  0  0  0
   -2.5011    2.6190   -0.0841 C   0  0  0  0  0  0  0  0  0  0  0  0
   -3.3849    3.5151    0.5719 N   0  0  0  0  0  0  0  0  0  0  0  0
   -2.4039    2.6538   -1.3344 O   0  0  0  0  0  0  0  0  0  0  0  0
   -1.0540   -0.5034   -0.5507 C   0  0  0  0  0  0  0  0  0  0  0  0
   -2.2238   -1.2541   -0.5262 C   0  0  0  0  0  0  0  0  0  0  0  0
   -3.3820   -0.7616    0.0796 O   0  0  0  0  0  0  0  0  0  0  0  0
   -4.5679   -1.5214    0.1046 C   0  0  0  0  0  0  0  0  0  0  0  0
   -5.6312   -0.7607    0.8068 C   0  0  0  0  0  0  0  0  0  0  0  0
   -5.3608    0.5009    1.3176 O   0  0  0  0  0  0  0  0  0  0  0  0
   -6.7765   -1.2624    0.9376 O   0  0  0  0  0  0  0  0  0  0  0  0
   -2.2079   -2.4964   -1.1156 C   0  0  0  0  0  0  0  0  0  0  0  0
   -1.0670   -2.9739   -1.7086 C   0  0  0  0  0  0  0  0  0  0  0  0
    0.0539   -2.1736   -1.6940 C   0  0  0  0  0  0  0  0  0  0  0  0
    0.0562   -0.9508   -1.1195 N   0  0  0  0  0  0  0  0  0  0  0  0
    1.0711   -0.0411   -1.0215 C   0  0  0  0  0  0  0  0  0  0  0  0
    2.4107   -0.2447   -1.5586 C   0  0  0  0  0  0  0  0  0  0  0  0
    3.4632   -0.6074   -0.5906 C   0  0  0  0  0  0  0  0  0  0  0  0
    3.6356   -1.9309   -0.1841 C   0  0  0  0  0  0  0  0  0  0  0  0
    4.6269   -2.2964    0.7064 C   0  0  0  0  0  0  0  0  0  0  0  0
    5.4964   -1.3611    1.2365 C   0  0  0  0  0  0  0  0  0  0  0  0
    5.3329   -0.0526    0.8405 C   0  0  0  0  0  0  0  0  0  0  0  0
    4.3425    0.3032   -0.0473 C   0  0  0  0  0  0  0  0  0  0  0  0
    2.6369    2.6154    1.5872 H   0  0  0  0  0  0  0  0  0  0  0  0
    1.0147    3.2458    1.9785 H   0  0  0  0  0  0  0  0  0  0  0  0
    1.3376    1.4240    1.9272 H   0  0  0  0  0  0  0  0  0  0  0  0
    0.5719    3.1734   -0.2304 H   0  0  0  0  0  0  0  0  0  0  0  0
    2.1179    2.4313   -0.6229 H   0  0  0  0  0  0  0  0  0  0  0  0
   -4.3962    3.3703    0.7095 H   0  0  0  0  0  0  0  0  0  0  0  0
   -2.9591    4.3978    0.9444 H   0  0  0  0  0  0  0  0  0  0  0  0
   -4.8901   -1.7854   -0.9342 H   0  0  0  0  0  0  0  0  0  0  0  0
   -4.4035   -2.5089    0.6058 H   0  0  0  0  0  0  0  0  0  0  0  0
   -6.1048    1.1865    1.4855 H   0  0  0  0  0  0  0  0  0  0  0  0
   -3.1279   -3.0947   -1.0997 H   0  0  0  0  0  0  0  0  0  0  0  0
   -1.0579   -3.9647   -2.1778 H   0  0  0  0  0  0  0  0  0  0  0  0
    0.9577   -2.5766   -2.1755 H   0  0  0  0  0  0  0  0  0  0  0  0
    2.7499    0.6343   -2.1956 H   0  0  0  0  0  0  0  0  0  0  0  0
    2.3795   -1.0809   -2.3245 H   0  0  0  0  0  0  0  0  0  0  0  0
    2.9471   -2.6636   -0.6080 H   0  0  0  0  0  0  0  0  0  0  0  0
    4.7212   -3.3421    0.9930 H   0  0  0  0  0  0  0  0  0  0  0  0
    6.2662   -1.6683    1.9323 H   0  0  0  0  0  0  0  0  0  0  0  0
    6.0159    0.7081    1.2524 H   0  0  0  0  0  0  0  0  0  0  0  0
    4.2397    1.3378   -0.3385 H   0  0  0  0  0  0  0  0  0  0  0  0
  1  2  1  0
  2  3  1  0
  3  4  1  0
  4  5  1  0
  5  6  2  0
  5  7  1  0
  7  8  1  0
  7  9  2  0
  4 10  2  0
 10 11  1  0
 11 12  1  0
 12 13  1  0
 13 14  1  0
 14 15  1  0
 14 16  2  0
 11 17  2  0
 17 18  1  0
 18 19  2  0
 19 20  1  0
 20 21  1  0
 21 22  1  0
 22 23  1  0
 23 24  2  0
 24 25  1  0
 25 26  2  0
 26 27  1  0
 27 28  2  0
 21  3  2  0
 28 23  1  0
 20 10  1  0
  1 29  1  0
  1 30  1  0
  1 31  1  0
  2 32  1  0
  2 33  1  0
  8 34  1  0
  8 35  1  0
 13 36  1  0
 13 37  1  0
 15 38  1  0
 17 39  1  0
 18 40  1  0
 19 41  1  0
 22 42  1  0
 22 43  1  0
 24 44  1  0
 25 45  1  0
 26 46  1  0
 27 47  1  0
 28 48  1  0
M  END
$$$$
[H]N=C(N([H])[H])N([H])C([H])([H])C([H])([H])C([H])([H])[C@@]([H])(C(=O)c1nc2c([H])c([H])c([H])c([H])c2s1)N([H])C(=O)[C@@]([H])(N([H])C(=O)[C@@]([H])(N([H])C(=O)OC([H])([H])c1c([H])c([H])c([H])c([H])c1[H])C([H])([H])C([H])([H])C(=O)N([H])[H])C([H])([H])C([H])([H])C([H])([H])N([H])C(=N[H])N([H])[H]
     RDKit          3D

 93 95  0  0  0  0  0  0  0  0999 V2000
    2.1373   -6.7778    0.0725 N   0  0  0  0  0  0  0  0  0  0  0  0
    1.5756   -5.7975    0.9342 C   0  0  0  0  0  0  0  0  0  0  0  0
    1.6005   -6.0072    2.2026 N   0  0  0  0  0  0  0  0  0  0  0  0
    0.9866   -4.5884    0.4834 N   0  0  0  0  0  0  0  0  0  0  0  0
   -0.3182   -4.1416    0.9203 C   0  0  0  0  0  0  0  0  0  0  0  0
   -0.6514   -2.7800    0.3022 C   0  0  0  0  0  0  0  0  0  0  0  0
    0.3779   -1.8127    0.7654 C   0  0  0  0  0  0  0  0  0  0  0  0
    0.1152   -0.4172    0.1731 C   0  0  2  0  0  0  0  0  0  0  0  0
    1.2013    0.4069    0.7055 N   0  0  0  0  0  0  0  0  0  0  0  0
    2.4338    0.5828    0.0592 C   0  0  0  0  0  0  0  0  0  0  0  0
    2.6470   -0.0004   -1.0232 O   0  0  0  0  0  0  0  0  0  0  0  0
    3.4718    1.4400    0.6359 C   0  0  2  0  0  0  0  0  0  0  0  0
    3.3124    2.8825    0.2132 C   0  0  0  0  0  0  0  0  0  0  0  0
    3.3718    3.1822   -1.2206 C   0  0  0  0  0  0  0  0  0  0  0  0
    4.6012    2.9553   -1.9539 C   0  0  0  0  0  0  0  0  0  0  0  0
    4.6027    2.4929   -3.2833 N   0  0  0  0  0  0  0  0  0  0  0  0
    5.7092    3.1766   -1.4084 O   0  0  0  0  0  0  0  0  0  0  0  0
    4.8033    0.9729    0.4052 N   0  0  0  0  0  0  0  0  0  0  0  0
    5.7273    0.9835    1.4995 C   0  0  0  0  0  0  0  0  0  0  0  0
    5.4099    1.3869    2.6408 O   0  0  0  0  0  0  0  0  0  0  0  0
    7.0114    0.5327    1.2903 O   0  0  0  0  0  0  0  0  0  0  0  0
    7.9767    0.5148    2.3251 C   0  0  0  0  0  0  0  0  0  0  0  0
    9.2807   -0.0096    1.8903 C   0  0  0  0  0  0  0  0  0  0  0  0
   10.1637    0.8462    1.2485 C   0  0  0  0  0  0  0  0  0  0  0  0
   11.4041    0.4765    0.8086 C   0  0  0  0  0  0  0  0  0  0  0  0
   11.8460   -0.8378    0.9984 C   0  0  0  0  0  0  0  0  0  0  0  0
   10.9658   -1.6866    1.6361 C   0  0  0  0  0  0  0  0  0  0  0  0
    9.7193   -1.2982    2.0740 C   0  0  0  0  0  0  0  0  0  0  0  0
   -1.1962    0.0895    0.5546 C   0  0  0  0  0  0  0  0  0  0  0  0
   -1.2323    0.7213    1.6827 O   0  0  0  0  0  0  0  0  0  0  0  0
   -2.4015   -0.0181   -0.1366 N   0  0  0  0  0  0  0  0  0  0  0  0
   -3.6686    0.5650    0.4244 C   0  0  1  0  0  0  0  0  0  0  0  0
   -4.0044    1.9113   -0.0213 C   0  0  0  0  0  0  0  0  0  0  0  0
   -5.0093    2.6672    0.7392 C   0  0  0  0  0  0  0  0  0  0  0  0
   -6.3919    2.5452    1.0423 C   0  0  0  0  0  0  0  0  0  0  0  0
   -7.4292    2.7072    0.0900 N   0  0  0  0  0  0  0  0  0  0  0  0
   -7.7142    3.9535   -0.5196 C   0  0  0  0  0  0  0  0  0  0  0  0
   -8.2388    4.0018   -1.8420 N   0  0  0  0  0  0  0  0  0  0  0  0
   -7.5108    5.0469    0.0874 N   0  0  0  0  0  0  0  0  0  0  0  0
   -4.6367   -0.5108    0.3068 C   0  0  0  0  0  0  0  0  0  0  0  0
   -4.4370   -1.5720    1.0313 O   0  0  0  0  0  0  0  0  0  0  0  0
   -5.7968   -0.5389   -0.5621 C   0  0  0  0  0  0  0  0  0  0  0  0
   -6.8214   -1.3633   -0.5820 N   0  0  0  0  0  0  0  0  0  0  0  0
   -7.6785   -1.3625   -1.5496 C   0  0  0  0  0  0  0  0  0  0  0  0
   -8.8042   -2.2098   -1.6549 C   0  0  0  0  0  0  0  0  0  0  0  0
   -9.6233   -2.1012   -2.7310 C   0  0  0  0  0  0  0  0  0  0  0  0
   -9.4478   -1.2120   -3.7578 C   0  0  0  0  0  0  0  0  0  0  0  0
   -8.3548   -0.3796   -3.6681 C   0  0  0  0  0  0  0  0  0  0  0  0
   -7.4848   -0.4633   -2.5689 C   0  0  0  0  0  0  0  0  0  0  0  0
   -6.0698    0.3215   -2.0553 S   0  0  0  0  0  0  0  0  0  0  0  0
    1.5593   -7.4987   -0.3630 H   0  0  0  0  0  0  0  0  0  0  0  0
    3.1657   -6.7968   -0.1489 H   0  0  0  0  0  0  0  0  0  0  0  0
    2.0053   -6.8522    2.6696 H   0  0  0  0  0  0  0  0  0  0  0  0
    1.5184   -4.0039   -0.1968 H   0  0  0  0  0  0  0  0  0  0  0  0
   -1.0999   -4.8511    0.6044 H   0  0  0  0  0  0  0  0  0  0  0  0
   -0.3390   -4.0612    2.0187 H   0  0  0  0  0  0  0  0  0  0  0  0
   -0.5763   -2.8940   -0.7933 H   0  0  0  0  0  0  0  0  0  0  0  0
   -1.6755   -2.5273    0.5738 H   0  0  0  0  0  0  0  0  0  0  0  0
    1.3648   -2.0978    0.3714 H   0  0  0  0  0  0  0  0  0  0  0  0
    0.4633   -1.7662    1.8706 H   0  0  0  0  0  0  0  0  0  0  0  0
    0.2891   -0.5439   -0.8997 H   0  0  0  0  0  0  0  0  0  0  0  0
    0.9923    0.8610    1.6229 H   0  0  0  0  0  0  0  0  0  0  0  0
    3.3146    1.4706    1.7551 H   0  0  0  0  0  0  0  0  0  0  0  0
    4.0800    3.4675    0.7779 H   0  0  0  0  0  0  0  0  0  0  0  0
    2.3282    3.2234    0.6356 H   0  0  0  0  0  0  0  0  0  0  0  0
    3.0665    4.2750   -1.3301 H   0  0  0  0  0  0  0  0  0  0  0  0
    2.4789    2.6644   -1.7031 H   0  0  0  0  0  0  0  0  0  0  0  0
    5.4240    2.5632   -3.9094 H   0  0  0  0  0  0  0  0  0  0  0  0
    3.7352    2.0573   -3.6609 H   0  0  0  0  0  0  0  0  0  0  0  0
    5.0941    0.6103   -0.5240 H   0  0  0  0  0  0  0  0  0  0  0  0
    7.6064   -0.1506    3.1313 H   0  0  0  0  0  0  0  0  0  0  0  0
    8.1410    1.5462    2.7354 H   0  0  0  0  0  0  0  0  0  0  0  0
    9.8473    1.8755    1.0846 H   0  0  0  0  0  0  0  0  0  0  0  0
   12.0754    1.1469    0.3136 H   0  0  0  0  0  0  0  0  0  0  0  0
   12.8223   -1.1403    0.6517 H   0  0  0  0  0  0  0  0  0  0  0  0
   11.2935   -2.7067    1.7915 H   0  0  0  0  0  0  0  0  0  0  0  0
    9.0433   -1.9861    2.5757 H   0  0  0  0  0  0  0  0  0  0  0  0
   -2.4907   -0.4846   -1.0369 H   0  0  0  0  0  0  0  0  0  0  0  0
   -3.4235    0.7046    1.5567 H   0  0  0  0  0  0  0  0  0  0  0  0
   -3.0222    2.5307    0.1104 H   0  0  0  0  0  0  0  0  0  0  0  0
   -4.2076    1.9565   -1.1464 H   0  0  0  0  0  0  0  0  0  0  0  0
   -4.8632    3.8007    0.3908 H   0  0  0  0  0  0  0  0  0  0  0  0
   -4.4688    2.8414    1.7891 H   0  0  0  0  0  0  0  0  0  0  0  0
   -6.6115    1.5559    1.6236 H   0  0  0  0  0  0  0  0  0  0  0  0
   -6.6421    3.2915    1.8944 H   0  0  0  0  0  0  0  0  0  0  0  0
   -8.0295    1.8850   -0.1777 H   0  0  0  0  0  0  0  0  0  0  0  0
   -7.6639    4.3646   -2.6393 H   0  0  0  0  0  0  0  0  0  0  0  0
   -9.1997    3.6873   -2.0881 H   0  0  0  0  0  0  0  0  0  0  0  0
   -7.1271    5.0558    1.0564 H   0  0  0  0  0  0  0  0  0  0  0  0
   -9.0378   -2.9489   -0.8989 H   0  0  0  0  0  0  0  0  0  0  0  0
  -10.4912   -2.7700   -2.7964 H   0  0  0  0  0  0  0  0  0  0  0  0
  -10.1332   -1.1825   -4.5690 H   0  0  0  0  0  0  0  0  0  0  0  0
   -8.1369    0.3505   -4.4278 H   0  0  0  0  0  0  0  0  0  0  0  0
  1  2  1  0
  2  3  2  3
  2  4  1  0
  4  5  1  0
  5  6  1  0
  6  7  1  0
  7  8  1  0
  8  9  1  0
  9 10  1  0
 10 11  2  0
 10 12  1  0
 12 13  1  0
 13 14  1  0
 14 15  1  0
 15 16  1  0
 15 17  2  0
 12 18  1  0
 18 19  1  0
 19 20  2  0
 19 21  1  0
 21 22  1  0
 22 23  1  0
 23 24  2  0
 24 25  1  0
 25 26  2  0
 26 27  1  0
 27 28  2  0
  8 29  1  0
 29 30  2  0
 29 31  1  0
 31 32  1  0
 32 33  1  0
 33 34  1  0
 34 35  1  0
 35 36  1  0
 36 37  1  0
 37 38  1  0
 37 39  2  3
 32 40  1  0
 40 41  2  0
 40 42  1  0
 42 43  2  0
 43 44  1  0
 44 45  2  0
 45 46  1  0
 46 47  2  0
 47 48  1  0
 48 49  2  0
 49 50  1  0
 28 23  1  0
 50 42  1  0
 49 44  1  0
  1 51  1  0
  1 52  1  0
  3 53  1  0
  4 54  1  0
  5 55  1  0
  5 56  1  0
  6 57  1  0
  6 58  1  0
  7 59  1  0
  7 60  1  0
  8 61  1  6
  9 62  1  0
 12 63  1  1
 13 64  1  0
 13 65  1  0
 14 66  1  0
 14 67  1  0
 16 68  1  0
 16 69  1  0
 18 70  1  0
 22 71  1  0
 22 72  1  0
 24 73  1  0
 25 74  1  0
 26 75  1  0
 27 76  1  0
 28 77  1  0
 31 78  1  0
 32 79  1  1
 33 80  1  0
 33 81  1  0
 34 82  1  0
 34 83  1  0
 35 84  1  0
 35 85  1  0
 36 86  1  0
 38 87  1  0
 38 88  1  0
 39 89  1  0
 45 90  1  0
 46 91  1  0
 47 92  1  0
 48 93  1  0
M  END
$$$$
[H]c1nc(Cl)c([H])c([H])c1N1C([H])([H])C([H])([H])[C@@]2([H])C([H])([H])N([H])C([H])([H])[C@@]2([H])C1([H])[H]
     RDKit          3D

 32 34  0  0  0  0  0  0  0  0999 V2000
    6.5450    0.3683   -0.6277 Cl  0  0  0  0  0  0  0  0  0  0  0  0
    4.8118    0.2452   -0.5524 C   0  0  0  0  0  0  0  0  0  0  0  0
    4.1923    0.3546    0.6851 C   0  0  0  0  0  0  0  0  0  0  0  0
    2.8276    0.2704    0.8454 C   0  0  0  0  0  0  0  0  0  0  0  0
    2.0579    0.0687   -0.2812 C   0  0  0  0  0  0  0  0  0  0  0  0
    2.7026   -0.0357   -1.4945 C   0  0  0  0  0  0  0  0  0  0  0  0
    4.0359    0.0516   -1.6107 N   0  0  0  0  0  0  0  0  0  0  0  0
    0.6517   -0.0332   -0.2441 N   0  0  0  0  0  0  0  0  0  0  0  0
   -0.0511   -0.2693   -1.4600 C   0  0  0  0  0  0  0  0  0  0  0  0
   -1.5336   -0.3275   -1.3778 C   0  0  0  0  0  0  0  0  0  0  0  0
   -2.0315    0.6521   -0.3392 C   0  0  1  0  0  0  0  0  0  0  0  0
   -3.5036    0.4643   -0.0582 C   0  0  0  0  0  0  0  0  0  0  0  0
   -3.6157   -0.5137    0.9787 N   0  0  0  0  0  0  0  0  0  0  0  0
   -2.2749   -0.9334    1.3439 C   0  0  0  0  0  0  0  0  0  0  0  0
   -1.4599    0.2860    1.0163 C   0  0  1  0  0  0  0  0  0  0  0  0
   -0.0064    0.1057    1.0154 C   0  0  0  0  0  0  0  0  0  0  0  0
    4.7914    0.5148    1.5875 H   0  0  0  0  0  0  0  0  0  0  0  0
    2.3397    0.3516    1.7849 H   0  0  0  0  0  0  0  0  0  0  0  0
    2.1213   -0.1965   -2.4133 H   0  0  0  0  0  0  0  0  0  0  0  0
    0.3600   -1.1424   -2.0152 H   0  0  0  0  0  0  0  0  0  0  0  0
    0.1931    0.6107   -2.1332 H   0  0  0  0  0  0  0  0  0  0  0  0
   -1.9357   -1.3470   -1.2067 H   0  0  0  0  0  0  0  0  0  0  0  0
   -1.9544    0.0040   -2.3488 H   0  0  0  0  0  0  0  0  0  0  0  0
   -1.7542    1.6654   -0.6059 H   0  0  0  0  0  0  0  0  0  0  0  0
   -4.0872    0.2292   -0.9626 H   0  0  0  0  0  0  0  0  0  0  0  0
   -3.8739    1.4366    0.3614 H   0  0  0  0  0  0  0  0  0  0  0  0
   -4.2229   -1.3194    0.7077 H   0  0  0  0  0  0  0  0  0  0  0  0
   -2.0230   -1.8249    0.7724 H   0  0  0  0  0  0  0  0  0  0  0  0
   -2.2505   -1.1555    2.4323 H   0  0  0  0  0  0  0  0  0  0  0  0
   -1.7644    1.0761    1.7215 H   0  0  0  0  0  0  0  0  0  0  0  0
    0.4491    1.0368    1.4811 H   0  0  0  0  0  0  0  0  0  0  0  0
    0.2635   -0.6933    1.7417 H   0  0  0  0  0  0  0  0  0  0  0  0
  1  2  1  0
  2  3  2  0
  3  4  1  0
  4  5  2  0
  5  6  1  0
  6  7  2  0
  5  8  1  0
  8  9  1  0
  9 10  1  0
 10 11  1  0
 11 12  1  0
 12 13  1  0
 13 14  1  0
 14 15  1  0
 15 16  1  0
  7  2  1  0
 16  8  1  0
 15 11  1  0
  3 17  1  0
  4 18  1  0
  6 19  1  0
  9 20  1  0
  9 21  1  0
 10 22  1  0
 10 23  1  0
 11 24  1  6
 12 25  1  0
 12 26  1  0
 13 27  1  0
 14 28  1  0
 14 29  1  0
 15 30  1  1
 16 31  1  0
 16 32  1  0
M  END
$$$$
[H]c1nc(N([H])[H])c([H])c([H])c1C(=O)N([H])c1sc(N([H])c2c([H])c([H])c3c([H])c([H])c([H])c([H])c3c2[H])nc1C(=O)N([H])[H]
     RDKit          3D

 45 48  0  0  0  0  0  0  0  0999 V2000
    0.1921   -2.7188    1.7936 N   0  0  0  0  0  0  0  0  0  0  0  0
    1.1669   -1.7797    1.3915 C   0  0  0  0  0  0  0  0  0  0  0  0
    2.3125   -1.9115    1.8073 O   0  0  0  0  0  0  0  0  0  0  0  0
    0.8080   -0.6504    0.4769 C   0  0  0  0  0  0  0  0  0  0  0  0
   -0.4618   -0.3506    0.3618 N   0  0  0  0  0  0  0  0  0  0  0  0
   -0.8732    0.7229   -0.2412 C   0  0  0  0  0  0  0  0  0  0  0  0
   -2.1973    1.2293   -0.4724 N   0  0  0  0  0  0  0  0  0  0  0  0
   -3.4120    0.6684   -0.0898 C   0  0  0  0  0  0  0  0  0  0  0  0
   -3.5930   -0.5075    0.6008 C   0  0  0  0  0  0  0  0  0  0  0  0
   -4.8248   -1.0054    0.9477 C   0  0  0  0  0  0  0  0  0  0  0  0
   -5.9581   -0.3198    0.6034 C   0  0  0  0  0  0  0  0  0  0  0  0
   -7.2214   -0.7786    0.9291 C   0  0  0  0  0  0  0  0  0  0  0  0
   -8.3272   -0.0682    0.5692 C   0  0  0  0  0  0  0  0  0  0  0  0
   -8.2424    1.1194   -0.1236 C   0  0  0  0  0  0  0  0  0  0  0  0
   -6.9864    1.5593   -0.4380 C   0  0  0  0  0  0  0  0  0  0  0  0
   -5.8290    0.8634   -0.0889 C   0  0  0  0  0  0  0  0  0  0  0  0
   -4.5953    1.3461   -0.4271 C   0  0  0  0  0  0  0  0  0  0  0  0
    0.6100    1.4280   -0.7201 S   0  0  0  0  0  0  0  0  0  0  0  0
    1.7109    0.1990   -0.0669 C   0  0  0  0  0  0  0  0  0  0  0  0
    3.0950    0.2002   -0.3609 N   0  0  0  0  0  0  0  0  0  0  0  0
    4.0394   -0.7742   -0.5611 C   0  0  0  0  0  0  0  0  0  0  0  0
    3.9397   -2.0274   -0.5765 O   0  0  0  0  0  0  0  0  0  0  0  0
    5.4526   -0.3128   -0.8095 C   0  0  0  0  0  0  0  0  0  0  0  0
    5.9262    0.8665   -0.2981 C   0  0  0  0  0  0  0  0  0  0  0  0
    7.2313    1.2490   -0.5682 C   0  0  0  0  0  0  0  0  0  0  0  0
    8.0431    0.4555   -1.3398 C   0  0  0  0  0  0  0  0  0  0  0  0
    9.3925    0.8710   -1.6072 N   0  0  0  0  0  0  0  0  0  0  0  0
    7.5527   -0.6968   -1.8285 N   0  0  0  0  0  0  0  0  0  0  0  0
    6.2923   -1.0907   -1.5824 C   0  0  0  0  0  0  0  0  0  0  0  0
    0.2506   -3.1302    2.7377 H   0  0  0  0  0  0  0  0  0  0  0  0
   -0.5725   -2.9975    1.1611 H   0  0  0  0  0  0  0  0  0  0  0  0
   -2.2125    2.1471   -1.0038 H   0  0  0  0  0  0  0  0  0  0  0  0
   -2.7144   -1.0852    0.8945 H   0  0  0  0  0  0  0  0  0  0  0  0
   -4.9260   -1.9318    1.4898 H   0  0  0  0  0  0  0  0  0  0  0  0
   -7.2735   -1.7215    1.4785 H   0  0  0  0  0  0  0  0  0  0  0  0
   -9.2991   -0.4579    0.8410 H   0  0  0  0  0  0  0  0  0  0  0  0
   -9.1438    1.6767   -0.4044 H   0  0  0  0  0  0  0  0  0  0  0  0
   -6.8788    2.4937   -0.9850 H   0  0  0  0  0  0  0  0  0  0  0  0
   -4.5464    2.2848   -0.9738 H   0  0  0  0  0  0  0  0  0  0  0  0
    3.4897    1.2220   -0.4432 H   0  0  0  0  0  0  0  0  0  0  0  0
    5.2984    1.4847    0.3093 H   0  0  0  0  0  0  0  0  0  0  0  0
    7.6098    2.1963   -0.1570 H   0  0  0  0  0  0  0  0  0  0  0  0
    9.5767    1.5433   -2.3792 H   0  0  0  0  0  0  0  0  0  0  0  0
   10.1837    0.5207   -1.0544 H   0  0  0  0  0  0  0  0  0  0  0  0
    5.9148   -2.0310   -1.9898 H   0  0  0  0  0  0  0  0  0  0  0  0
  1  2  1  0
  2  3  2  0
  2  4  1  0
  4  5  1  0
  5  6  2  0
  6  7  1  0
  7  8  1  0
  8  9  2  0
  9 10  1  0
 10 11  2  0
 11 12  1  0
 12 13  2  0
 13 14  1  0
 14 15  2  0
 15 16  1  0
 16 17  2  0
  6 18  1  0
 18 19  1  0
 19 20  1  0
 20 21  1  0
 21 22  2  0
 21 23  1  0
 23 24  2  0
 24 25  1  0
 25 26  2  0
 26 27  1  0
 26 28  1  0
 28 29  2  0
 19  4  2  0
 29 23  1  0
 17  8  1  0
 16 11  1  0
  1 30  1  0
  1 31  1  0
  7 32  1  0
  9 33  1  0
 10 34  1  0
 12 35  1  0
 13 36  1  0
 14 37  1  0
 15 38  1  0
 17 39  1  0
 20 40  1  0
 24 41  1  0
 25 42  1  0
 27 43  1  0
 27 44  1  0
 29 45  1  0
M  END
$$$$
[H]c1nc(N([H])c2c([H])c([H])c(N3C([H])([H])C([H])([H])N(C([H])([H])[H])C([H])([H])C3([H])[H])c([H])c2OC([H])([H])[H])nc2c1C([H])([H])C([H])([H])c1c(C(=O)N([H])[H])nn(C([H])([H])[H])c1-2
     RDKit          3D

 61 65  0  0  0  0  0  0  0  0999 V2000
    2.2719    3.5887   -0.7274 C   0  0  0  0  0  0  0  0  0  0  0  0
    1.3283    2.5675   -0.5175 O   0  0  0  0  0  0  0  0  0  0  0  0
    1.7612    1.2782   -0.3511 C   0  0  0  0  0  0  0  0  0  0  0  0
    3.0808    0.9601   -0.3837 C   0  0  0  0  0  0  0  0  0  0  0  0
    3.5394   -0.3263   -0.2193 C   0  0  0  0  0  0  0  0  0  0  0  0
    2.6165   -1.3192   -0.0149 C   0  0  0  0  0  0  0  0  0  0  0  0
    1.2613   -1.0147    0.0218 C   0  0  0  0  0  0  0  0  0  0  0  0
    0.8038    0.2741   -0.1430 C   0  0  0  0  0  0  0  0  0  0  0  0
   -0.5491    0.6400   -0.1156 N   0  0  0  0  0  0  0  0  0  0  0  0
   -1.6700   -0.1914    0.0770 C   0  0  0  0  0  0  0  0  0  0  0  0
   -1.6100   -1.5016    0.2694 N   0  0  0  0  0  0  0  0  0  0  0  0
   -2.6614   -2.3102    0.4544 C   0  0  0  0  0  0  0  0  0  0  0  0
   -3.9065   -1.7027    0.4394 C   0  0  0  0  0  0  0  0  0  0  0  0
   -5.0728   -2.5646    0.6413 C   0  0  0  0  0  0  0  0  0  0  0  0
   -6.3869   -1.8883    0.6114 C   0  0  0  0  0  0  0  0  0  0  0  0
   -6.4066   -0.4476    0.4002 C   0  0  0  0  0  0  0  0  0  0  0  0
   -7.4824    0.4455    0.3325 C   0  0  0  0  0  0  0  0  0  0  0  0
   -6.9698    1.6448    0.1237 N   0  0  0  0  0  0  0  0  0  0  0  0
   -5.6702    1.6117    0.0504 N   0  0  0  0  0  0  0  0  0  0  0  0
   -4.7390    2.6992   -0.1669 C   0  0  0  0  0  0  0  0  0  0  0  0
   -5.3085    0.3092    0.2219 C   0  0  0  0  0  0  0  0  0  0  0  0
   -3.9950   -0.3487    0.2421 C   0  0  0  0  0  0  0  0  0  0  0  0
   -2.9151    0.4276    0.0601 N   0  0  0  0  0  0  0  0  0  0  0  0
   -8.8788    0.0781    0.4711 C   0  0  0  0  0  0  0  0  0  0  0  0
   -9.8749    1.0877    0.3816 N   0  0  0  0  0  0  0  0  0  0  0  0
   -9.2472   -1.1011    0.6680 O   0  0  0  0  0  0  0  0  0  0  0  0
    4.9314   -0.5888   -0.2669 N   0  0  0  0  0  0  0  0  0  0  0  0
    5.8594    0.4941   -0.5558 C   0  0  0  0  0  0  0  0  0  0  0  0
    7.1950   -0.0818   -1.0444 C   0  0  0  0  0  0  0  0  0  0  0  0
    7.7798   -0.9032   -0.0345 N   0  0  0  0  0  0  0  0  0  0  0  0
    8.3188    0.0002    0.9946 C   0  0  0  0  0  0  0  0  0  0  0  0
    6.8730   -1.7866    0.6186 C   0  0  0  0  0  0  0  0  0  0  0  0
    5.5122   -1.8878   -0.0411 C   0  0  0  0  0  0  0  0  0  0  0  0
    2.9693    3.6866    0.1524 H   0  0  0  0  0  0  0  0  0  0  0  0
    2.9110    3.3016   -1.5865 H   0  0  0  0  0  0  0  0  0  0  0  0
    1.8101    4.5865   -0.8475 H   0  0  0  0  0  0  0  0  0  0  0  0
    3.7943    1.7836   -0.5492 H   0  0  0  0  0  0  0  0  0  0  0  0
    2.9719   -2.3277    0.1132 H   0  0  0  0  0  0  0  0  0  0  0  0
    0.6270   -1.8611    0.1868 H   0  0  0  0  0  0  0  0  0  0  0  0
   -0.7360    1.6976   -0.2625 H   0  0  0  0  0  0  0  0  0  0  0  0
   -2.4879   -3.3607    0.6011 H   0  0  0  0  0  0  0  0  0  0  0  0
   -4.9899   -3.3803   -0.1414 H   0  0  0  0  0  0  0  0  0  0  0  0
   -4.9487   -3.1381    1.6054 H   0  0  0  0  0  0  0  0  0  0  0  0
   -6.9216   -2.1733    1.5772 H   0  0  0  0  0  0  0  0  0  0  0  0
   -7.0081   -2.4285   -0.1636 H   0  0  0  0  0  0  0  0  0  0  0  0
   -4.0448    2.7663    0.6970 H   0  0  0  0  0  0  0  0  0  0  0  0
   -4.0875    2.4908   -1.0654 H   0  0  0  0  0  0  0  0  0  0  0  0
   -5.2629    3.6304   -0.3874 H   0  0  0  0  0  0  0  0  0  0  0  0
   -9.9182    1.6589   -0.4892 H   0  0  0  0  0  0  0  0  0  0  0  0
  -10.5541    1.2712    1.1507 H   0  0  0  0  0  0  0  0  0  0  0  0
    6.0578    1.1337    0.3067 H   0  0  0  0  0  0  0  0  0  0  0  0
    5.5034    1.1106   -1.4161 H   0  0  0  0  0  0  0  0  0  0  0  0
    7.0601   -0.6013   -2.0231 H   0  0  0  0  0  0  0  0  0  0  0  0
    7.8301    0.8026   -1.2599 H   0  0  0  0  0  0  0  0  0  0  0  0
    7.4347    0.2408    1.6457 H   0  0  0  0  0  0  0  0  0  0  0  0
    8.7292    0.9158    0.5699 H   0  0  0  0  0  0  0  0  0  0  0  0
    9.0031   -0.5944    1.6064 H   0  0  0  0  0  0  0  0  0  0  0  0
    6.7025   -1.5418    1.6752 H   0  0  0  0  0  0  0  0  0  0  0  0
    7.3152   -2.8238    0.5491 H   0  0  0  0  0  0  0  0  0  0  0  0
    5.5440   -2.4717   -0.9863 H   0  0  0  0  0  0  0  0  0  0  0  0
    4.9075   -2.5160    0.6761 H   0  0  0  0  0  0  0  0  0  0  0  0
  1  2  1  0
  2  3  1  0
  3  4  2  0
  4  5  1  0
  5  6  2  0
  6  7  1  0
  7  8  2  0
  8  9  1  0
  9 10  1  0
 10 11  2  0
 11 12  1  0
 12 13  2  0
 13 14  1  0
 14 15  1  0
 15 16  1  0
 16 17  1  0
 17 18  2  0
 18 19  1  0
 19 20  1  0
 19 21  1  0
 21 22  1  0
 22 23  2  0
 17 24  1  0
 24 25  1  0
 24 26  2  0
  5 27  1  0
 27 28  1  0
 28 29  1  0
 29 30  1  0
 30 31  1  0
 30 32  1  0
 32 33  1  0
  8  3  1  0
 23 10  1  0
 33 27  1  0
 22 13  1  0
 21 16  2  0
  1 34  1  0
  1 35  1  0
  1 36  1  0
  4 37  1  0
  6 38  1  0
  7 39  1  0
  9 40  1  0
 12 41  1  0
 14 42  1  0
 14 43  1  0
 15 44  1  0
 15 45  1  0
 20 46  1  0
 20 47  1  0
 20 48  1  0
 25 49  1  0
 25 50  1  0
 28 51  1  0
 28 52  1  0
 29 53  1  0
 29 54  1  0
 31 55  1  0
 31 56  1  0
 31 57  1  0
 32 58  1  0
 32 59  1  0
 33 60  1  0
 33 61  1  0
M  END
$$$$
[H]O[C@@]1([H])C([H])([H])C([H])([H])[C@]2([H])[C@]1(C([H])([H])[H])C([H])([H])C([H])([H])[C@]1([H])[C@]3(C([H])([H])[H])C(=C([H])C(=O)C([H])([H])C3([H])[H])C([H])([H])C([H])([H])[C@@]21[H]
     RDKit          3D

 49 52  0  0  0  0  0  0  0  0999 V2000
    2.6003    1.3949    0.7370 C   0  0  0  0  0  0  0  0  0  0  0  0
    2.3315    0.4990   -0.4424 C   0  0  2  0  0  0  0  0  0  0  0  0
    1.5103    1.1614   -1.4949 C   0  0  0  0  0  0  0  0  0  0  0  0
    0.1483    1.4556   -0.9170 C   0  0  0  0  0  0  0  0  0  0  0  0
   -0.5369    0.1560   -0.5507 C   0  0  1  0  0  0  0  0  0  0  0  0
    0.2754   -0.6369    0.4710 C   0  0  1  0  0  0  0  0  0  0  0  0
   -0.3169   -2.0384    0.5263 C   0  0  0  0  0  0  0  0  0  0  0  0
   -1.7749   -2.0482    0.8169 C   0  0  0  0  0  0  0  0  0  0  0  0
   -2.5405   -0.9871    0.1457 C   0  0  0  0  0  0  0  0  0  0  0  0
   -3.7658   -1.2727   -0.2625 C   0  0  0  0  0  0  0  0  0  0  0  0
   -4.6079   -0.3042   -0.9341 C   0  0  0  0  0  0  0  0  0  0  0  0
   -5.6066   -0.6232   -1.6118 O   0  0  0  0  0  0  0  0  0  0  0  0
   -4.2087    1.1393   -0.7699 C   0  0  0  0  0  0  0  0  0  0  0  0
   -2.7163    1.1869   -1.0278 C   0  0  0  0  0  0  0  0  0  0  0  0
   -1.9296    0.3620   -0.0560 C   0  0  2  0  0  0  0  0  0  0  0  0
   -1.9459    1.0713    1.2829 C   0  0  0  0  0  0  0  0  0  0  0  0
    1.6457   -0.7900   -0.0472 C   0  0  2  0  0  0  0  0  0  0  0  0
    2.6444   -1.3862    0.8737 C   0  0  0  0  0  0  0  0  0  0  0  0
    3.9631   -1.0731    0.1623 C   0  0  0  0  0  0  0  0  0  0  0  0
    3.6050   -0.1289   -0.9688 C   0  0  2  0  0  0  0  0  0  0  0  0
    4.5812    0.7519   -1.2889 O   0  0  0  0  0  0  0  0  0  0  0  0
    3.6756    1.2716    1.0471 H   0  0  0  0  0  0  0  0  0  0  0  0
    1.9625    1.2047    1.6015 H   0  0  0  0  0  0  0  0  0  0  0  0
    2.4819    2.4492    0.4115 H   0  0  0  0  0  0  0  0  0  0  0  0
    1.9872    2.1545   -1.7263 H   0  0  0  0  0  0  0  0  0  0  0  0
    1.4562    0.5158   -2.3781 H   0  0  0  0  0  0  0  0  0  0  0  0
   -0.4734    1.9510   -1.6671 H   0  0  0  0  0  0  0  0  0  0  0  0
    0.2714    2.1214   -0.0498 H   0  0  0  0  0  0  0  0  0  0  0  0
   -0.5888   -0.4547   -1.4753 H   0  0  0  0  0  0  0  0  0  0  0  0
    0.1940   -0.1895    1.4684 H   0  0  0  0  0  0  0  0  0  0  0  0
   -0.0876   -2.5040   -0.4691 H   0  0  0  0  0  0  0  0  0  0  0  0
    0.2474   -2.5825    1.3004 H   0  0  0  0  0  0  0  0  0  0  0  0
   -2.1698   -3.0559    0.5263 H   0  0  0  0  0  0  0  0  0  0  0  0
   -1.9002   -2.0016    1.9294 H   0  0  0  0  0  0  0  0  0  0  0  0
   -4.1853   -2.2671   -0.1012 H   0  0  0  0  0  0  0  0  0  0  0  0
   -4.4637    1.4087    0.2637 H   0  0  0  0  0  0  0  0  0  0  0  0
   -4.7180    1.7173   -1.5432 H   0  0  0  0  0  0  0  0  0  0  0  0
   -2.5697    0.8169   -2.0700 H   0  0  0  0  0  0  0  0  0  0  0  0
   -2.4147    2.2480   -0.9356 H   0  0  0  0  0  0  0  0  0  0  0  0
   -2.6695    1.9362    1.2729 H   0  0  0  0  0  0  0  0  0  0  0  0
   -2.2828    0.4031    2.1004 H   0  0  0  0  0  0  0  0  0  0  0  0
   -0.9566    1.5164    1.5155 H   0  0  0  0  0  0  0  0  0  0  0  0
    1.6091   -1.4204   -0.9702 H   0  0  0  0  0  0  0  0  0  0  0  0
    2.6340   -0.7940    1.8359 H   0  0  0  0  0  0  0  0  0  0  0  0
    2.5188   -2.4554    1.0564 H   0  0  0  0  0  0  0  0  0  0  0  0
    4.3735   -2.0337   -0.2265 H   0  0  0  0  0  0  0  0  0  0  0  0
    4.6899   -0.6220    0.8558 H   0  0  0  0  0  0  0  0  0  0  0  0
    3.3380   -0.7531   -1.8418 H   0  0  0  0  0  0  0  0  0  0  0  0
    4.6855    1.5297   -0.7163 H   0  0  0  0  0  0  0  0  0  0  0  0
  2  1  1  1
  2  3  1  0
  3  4  1  0
  4  5  1  0
  5  6  1  0
  6  7  1  0
  7  8  1  0
  8  9  1  0
  9 10  2  0
 10 11  1  0
 11 12  2  0
 11 13  1  0
 13 14  1  0
 14 15  1  0
 15 16  1  1
  6 17  1  0
 17 18  1  0
 18 19  1  0
 19 20  1  0
 20 21  1  0
 17  2  1  0
 20  2  1  0
 15  5  1  0
 15  9  1  0
  1 22  1  0
  1 23  1  0
  1 24  1  0
  3 25  1  0
  3 26  1  0
  4 27  1  0
  4 28  1  0
  5 29  1  6
  6 30  1  1
  7 31  1  0
  7 32  1  0
  8 33  1  0
  8 34  1  0
 10 35  1  0
 13 36  1  0
 13 37  1  0
 14 38  1  0
 14 39  1  0
 16 40  1  0
 16 41  1  0
 16 42  1  0
 17 43  1  6
 18 44  1  0
 18 45  1  0
 19 46  1  0
 19 47  1  0
 20 48  1  6
 21 49  1  0
M  END
$$$$
[H]c1c([H])c(N2C([H])([H])N([H])C(=O)C23C([H])([H])C([H])([H])N(C(=O)c2c([H])c([H])c(C(F)(F)F)c([H])c2[H])C([H])([H])C3([H])[H])c([H])c([H])c1Cl
     RDKit          3D

 49 52  0  0  0  0  0  0  0  0999 V2000
    8.5086   -0.2397   -0.0132 F   0  0  0  0  0  0  0  0  0  0  0  0
    7.6862    0.8403    0.0240 C   0  0  0  0  0  0  0  0  0  0  0  0
    7.7469    1.6355   -1.0903 F   0  0  0  0  0  0  0  0  0  0  0  0
    7.9372    1.6013    1.1854 F   0  0  0  0  0  0  0  0  0  0  0  0
    6.2704    0.3715    0.2073 C   0  0  0  0  0  0  0  0  0  0  0  0
    5.2071    1.1391   -0.1684 C   0  0  0  0  0  0  0  0  0  0  0  0
    3.9012    0.7751    0.0462 C   0  0  0  0  0  0  0  0  0  0  0  0
    3.5906   -0.4242    0.6761 C   0  0  0  0  0  0  0  0  0  0  0  0
    4.6856   -1.2211    1.0620 C   0  0  0  0  0  0  0  0  0  0  0  0
    5.9670   -0.8294    0.8332 C   0  0  0  0  0  0  0  0  0  0  0  0
    2.2885   -0.9227    0.9639 C   0  0  0  0  0  0  0  0  0  0  0  0
    2.2317   -1.7673    1.9728 O   0  0  0  0  0  0  0  0  0  0  0  0
    1.0253   -0.6940    0.3940 N   0  0  0  0  0  0  0  0  0  0  0  0
    0.8124   -0.0317   -0.8299 C   0  0  0  0  0  0  0  0  0  0  0  0
   -0.4714    0.7631   -0.8238 C   0  0  0  0  0  0  0  0  0  0  0  0
   -1.6263   -0.2109   -0.6564 C   0  0  0  0  0  0  0  0  0  0  0  0
   -1.4370   -1.1135    0.4922 C   0  0  0  0  0  0  0  0  0  0  0  0
   -0.1633   -1.0546    1.2231 C   0  0  0  0  0  0  0  0  0  0  0  0
   -2.9281    0.3806   -0.8191 N   0  0  0  0  0  0  0  0  0  0  0  0
   -2.7723    1.1115   -2.1089 C   0  0  0  0  0  0  0  0  0  0  0  0
   -2.1107    0.0575   -2.8992 N   0  0  0  0  0  0  0  0  0  0  0  0
   -1.6380   -0.9677   -1.9958 C   0  0  0  0  0  0  0  0  0  0  0  0
   -1.3327   -2.1344   -2.2140 O   0  0  0  0  0  0  0  0  0  0  0  0
   -4.1355    0.3534   -0.1607 C   0  0  0  0  0  0  0  0  0  0  0  0
   -4.7399   -0.8586    0.0945 C   0  0  0  0  0  0  0  0  0  0  0  0
   -5.9692   -0.9679    0.6924 C   0  0  0  0  0  0  0  0  0  0  0  0
   -6.6736    0.1611    1.0771 C   0  0  0  0  0  0  0  0  0  0  0  0
   -8.2601   -0.0044    1.8207 Cl  0  0  0  0  0  0  0  0  0  0  0  0
   -6.0882    1.3740    0.8357 C   0  0  0  0  0  0  0  0  0  0  0  0
   -4.8505    1.4750    0.2306 C   0  0  0  0  0  0  0  0  0  0  0  0
    5.4071    2.0974   -0.6594 H   0  0  0  0  0  0  0  0  0  0  0  0
    3.1330    1.4438   -0.2481 H   0  0  0  0  0  0  0  0  0  0  0  0
    4.5335   -2.1742    1.5525 H   0  0  0  0  0  0  0  0  0  0  0  0
    6.8266   -1.4387    1.1138 H   0  0  0  0  0  0  0  0  0  0  0  0
    0.6013   -0.8783   -1.5953 H   0  0  0  0  0  0  0  0  0  0  0  0
    1.6278    0.4917   -1.3112 H   0  0  0  0  0  0  0  0  0  0  0  0
   -0.5465    1.1482   -1.8982 H   0  0  0  0  0  0  0  0  0  0  0  0
   -0.4797    1.5794   -0.1056 H   0  0  0  0  0  0  0  0  0  0  0  0
   -2.2412   -0.8426    1.2632 H   0  0  0  0  0  0  0  0  0  0  0  0
   -1.6963   -2.1695    0.2436 H   0  0  0  0  0  0  0  0  0  0  0  0
   -0.2041   -0.3033    2.0847 H   0  0  0  0  0  0  0  0  0  0  0  0
    0.0393   -2.0181    1.7238 H   0  0  0  0  0  0  0  0  0  0  0  0
   -2.1834    2.0141   -1.9591 H   0  0  0  0  0  0  0  0  0  0  0  0
   -3.7396    1.4095   -2.5339 H   0  0  0  0  0  0  0  0  0  0  0  0
   -2.0127    0.0434   -3.9344 H   0  0  0  0  0  0  0  0  0  0  0  0
   -4.2214   -1.7682   -0.2007 H   0  0  0  0  0  0  0  0  0  0  0  0
   -6.4495   -1.9375    0.8862 H   0  0  0  0  0  0  0  0  0  0  0  0
   -6.6342    2.2470    1.1305 H   0  0  0  0  0  0  0  0  0  0  0  0
   -4.4217    2.4592    0.0540 H   0  0  0  0  0  0  0  0  0  0  0  0
  1  2  1  0
  2  3  1  0
  2  4  1  0
  2  5  1  0
  5  6  2  0
  6  7  1  0
  7  8  2  0
  8  9  1  0
  9 10  2  0
  8 11  1  0
 11 12  2  0
 11 13  1  0
 13 14  1  0
 14 15  1  0
 15 16  1  0
 16 17  1  0
 17 18  1  0
 16 19  1  0
 19 20  1  0
 20 21  1  0
 21 22  1  0
 22 23  2  0
 19 24  1  0
 24 25  2  0
 25 26  1  0
 26 27  2  0
 27 28  1  0
 27 29  1  0
 29 30  2  0
 10  5  1  0
 18 13  1  0
 30 24  1  0
 22 16  1  0
  6 31  1  0
  7 32  1  0
  9 33  1  0
 10 34  1  0
 14 35  1  0
 14 36  1  0
 15 37  1  0
 15 38  1  0
 17 39  1  0
 17 40  1  0
 18 41  1  0
 18 42  1  0
 20 43  1  0
 20 44  1  0
 21 45  1  0
 25 46  1  0
 26 47  1  0
 29 48  1  0
 30 49  1  0
M  END
$$$$
[H]O[C@]1([H])[C@@]([H])(C([H])([H])OP(=O)(O[H])OP(=O)(O[H])OP(=O)(O[H])O[H])OC([H])(n2c([H])nc3c(N([H])[H])nc([H])nc32)[C@]1([H])O[H]
     RDKit          3D

 47 49  0  0  0  0  0  0  0  0999 V2000
   -7.8226   -0.0029   -0.2489 N   0  0  0  0  0  0  0  0  0  0  0  0
   -6.4743    0.1532    0.1724 C   0  0  0  0  0  0  0  0  0  0  0  0
   -6.1391    0.3925    1.4522 N   0  0  0  0  0  0  0  0  0  0  0  0
   -4.8595    0.5385    1.8397 C   0  0  0  0  0  0  0  0  0  0  0  0
   -3.8315    0.4511    0.9509 N   0  0  0  0  0  0  0  0  0  0  0  0
   -4.1161    0.2128   -0.3412 C   0  0  0  0  0  0  0  0  0  0  0  0
   -3.3493    0.0762   -1.4223 N   0  0  0  0  0  0  0  0  0  0  0  0
   -4.1568   -0.1518   -2.4630 C   0  0  0  0  0  0  0  0  0  0  0  0
   -5.4259   -0.1613   -2.0542 N   0  0  0  0  0  0  0  0  0  0  0  0
   -5.4182    0.0640   -0.7369 C   0  0  0  0  0  0  0  0  0  0  0  0
   -1.8986    0.1488   -1.5283 C   0  0  0  0  0  0  0  0  0  0  0  0
   -1.2917    0.6581   -0.4153 O   0  0  0  0  0  0  0  0  0  0  0  0
   -0.4301   -0.2727    0.1074 C   0  0  2  0  0  0  0  0  0  0  0  0
    0.6570    0.2979    0.9504 C   0  0  0  0  0  0  0  0  0  0  0  0
    1.4784    1.1905    0.2735 O   0  0  0  0  0  0  0  0  0  0  0  0
    2.6763    1.7992    1.2594 P   0  0  0  0  0  0  0  0  0  0  0  0
    3.8978    2.5215    0.3256 O   0  0  0  0  0  0  0  0  0  0  0  0
    2.0811    2.9183    2.1157 O   0  0  0  0  0  0  0  0  0  0  0  0
    3.3382    0.6715    2.3020 O   0  0  0  0  0  0  0  0  0  0  0  0
    4.5551   -0.2453    1.6227 P   0  0  0  0  0  0  0  0  0  0  0  0
    5.6233   -0.7012    2.8674 O   0  0  0  0  0  0  0  0  0  0  0  0
    4.0590   -1.5123    0.9853 O   0  0  0  0  0  0  0  0  0  0  0  0
    5.4776    0.6824    0.5269 O   0  0  0  0  0  0  0  0  0  0  0  0
    6.9105   -0.1132    0.1295 P   0  0  0  0  0  0  0  0  0  0  0  0
    7.2814    0.2147   -1.4965 O   0  0  0  0  0  0  0  0  0  0  0  0
    8.2192    0.4652    1.0483 O   0  0  0  0  0  0  0  0  0  0  0  0
    6.7669   -1.6133    0.2547 O   0  0  0  0  0  0  0  0  0  0  0  0
    0.0601   -1.0259   -1.0948 C   0  0  1  0  0  0  0  0  0  0  0  0
    0.6422   -2.2336   -0.8097 O   0  0  0  0  0  0  0  0  0  0  0  0
   -1.2844   -1.2028   -1.8193 C   0  0  1  0  0  0  0  0  0  0  0  0
   -1.9421   -2.2262   -1.1737 O   0  0  0  0  0  0  0  0  0  0  0  0
   -8.3903    0.8408   -0.5445 H   0  0  0  0  0  0  0  0  0  0  0  0
   -8.3093   -0.9237   -0.2885 H   0  0  0  0  0  0  0  0  0  0  0  0
   -4.6751    0.7288    2.8872 H   0  0  0  0  0  0  0  0  0  0  0  0
   -3.8601   -0.3103   -3.5006 H   0  0  0  0  0  0  0  0  0  0  0  0
   -1.6886    0.7863   -2.4364 H   0  0  0  0  0  0  0  0  0  0  0  0
   -1.0174   -0.9710    0.7304 H   0  0  0  0  0  0  0  0  0  0  0  0
    0.1947    0.7390    1.8555 H   0  0  0  0  0  0  0  0  0  0  0  0
    1.2949   -0.5390    1.3055 H   0  0  0  0  0  0  0  0  0  0  0  0
    3.5154    2.7463   -0.5772 H   0  0  0  0  0  0  0  0  0  0  0  0
    5.6493   -0.0240    3.5871 H   0  0  0  0  0  0  0  0  0  0  0  0
    6.4390    0.2548   -2.0142 H   0  0  0  0  0  0  0  0  0  0  0  0
    8.2348    0.0887    1.9483 H   0  0  0  0  0  0  0  0  0  0  0  0
    0.6617   -0.3763   -1.7647 H   0  0  0  0  0  0  0  0  0  0  0  0
    0.3518   -2.9713   -1.4080 H   0  0  0  0  0  0  0  0  0  0  0  0
   -1.1371   -1.3838   -2.8987 H   0  0  0  0  0  0  0  0  0  0  0  0
   -2.5475   -1.9536   -0.4612 H   0  0  0  0  0  0  0  0  0  0  0  0
  1  2  1  0
  2  3  2  0
  3  4  1  0
  4  5  2  0
  5  6  1  0
  6  7  1  0
  7  8  1  0
  8  9  2  0
  9 10  1  0
  7 11  1  0
 11 12  1  0
 12 13  1  0
 13 14  1  0
 14 15  1  0
 15 16  1  0
 16 17  1  0
 16 18  2  0
 16 19  1  0
 19 20  1  0
 20 21  1  0
 20 22  2  0
 20 23  1  0
 23 24  1  0
 24 25  1  0
 24 26  1  0
 24 27  2  0
 13 28  1  0
 28 29  1  0
 28 30  1  0
 30 31  1  0
 10  2  1  0
 30 11  1  0
 10  6  2  0
  1 32  1  0
  1 33  1  0
  4 34  1  0
  8 35  1  0
 11 36  1  0
 13 37  1  1
 14 38  1  0
 14 39  1  0
 17 40  1  0
 21 41  1  0
 25 42  1  0
 26 43  1  0
 28 44  1  6
 29 45  1  0
 30 46  1  6
 31 47  1  0
M  END
$$$$
[H]c1nc(N([H])c2c([H])c(OC([H])([H])[H])c(OC([H])([H])[H])c(OC([H])([H])[H])c2[H])nc(N([H])c2nc3c(c([H])c2[H])OC(C([H])([H])[H])(C([H])([H])[H])C(=O)N3[H])c1Cl
     RDKit          3D

 57 60  0  0  0  0  0  0  0  0999 V2000
   -5.7062    2.0896   -1.8319 C   0  0  0  0  0  0  0  0  0  0  0  0
   -5.8757    0.7103   -1.5773 O   0  0  0  0  0  0  0  0  0  0  0  0
   -4.7959   -0.0108   -1.0921 C   0  0  0  0  0  0  0  0  0  0  0  0
   -3.5546    0.6057   -0.8546 C   0  0  0  0  0  0  0  0  0  0  0  0
   -2.4789   -0.0483   -0.3850 C   0  0  0  0  0  0  0  0  0  0  0  0
   -1.2186    0.5079   -0.1103 N   0  0  0  0  0  0  0  0  0  0  0  0
   -0.9117    1.8809   -0.0236 C   0  0  0  0  0  0  0  0  0  0  0  0
   -1.7316    2.9097   -0.1714 N   0  0  0  0  0  0  0  0  0  0  0  0
   -1.4116    4.2063   -0.0835 C   0  0  0  0  0  0  0  0  0  0  0  0
   -0.0987    4.5091    0.1879 C   0  0  0  0  0  0  0  0  0  0  0  0
    0.4772    6.1441    0.3337 Cl  0  0  0  0  0  0  0  0  0  0  0  0
    0.8252    3.4820    0.3568 C   0  0  0  0  0  0  0  0  0  0  0  0
    2.1825    3.7433    0.6365 N   0  0  0  0  0  0  0  0  0  0  0  0
    3.0945    2.6700    0.8022 C   0  0  0  0  0  0  0  0  0  0  0  0
    4.4463    2.9300    1.0807 C   0  0  0  0  0  0  0  0  0  0  0  0
    5.3106    1.8710    1.2370 C   0  0  0  0  0  0  0  0  0  0  0  0
    4.8871    0.5652    1.1279 C   0  0  0  0  0  0  0  0  0  0  0  0
    5.7441   -0.5124    1.2823 O   0  0  0  0  0  0  0  0  0  0  0  0
    5.4343   -1.8103    0.8128 C   0  0  0  0  0  0  0  0  0  0  0  0
    6.1434   -2.8503    1.6735 C   0  0  0  0  0  0  0  0  0  0  0  0
    5.8365   -1.9300   -0.6291 C   0  0  0  0  0  0  0  0  0  0  0  0
    3.9767   -2.1074    0.8967 C   0  0  0  0  0  0  0  0  0  0  0  0
    3.5689   -3.2887    1.1041 O   0  0  0  0  0  0  0  0  0  0  0  0
    3.0836   -1.0158    0.7347 N   0  0  0  0  0  0  0  0  0  0  0  0
    3.5483    0.3295    0.8525 C   0  0  0  0  0  0  0  0  0  0  0  0
    2.7303    1.3839    0.7055 N   0  0  0  0  0  0  0  0  0  0  0  0
    0.3907    2.2269    0.2465 N   0  0  0  0  0  0  0  0  0  0  0  0
   -2.6318   -1.4191   -0.1275 C   0  0  0  0  0  0  0  0  0  0  0  0
   -3.8340   -2.0366   -0.3532 C   0  0  0  0  0  0  0  0  0  0  0  0
   -3.9830   -3.3837   -0.0998 O   0  0  0  0  0  0  0  0  0  0  0  0
   -2.8768   -4.1092    0.3943 C   0  0  0  0  0  0  0  0  0  0  0  0
   -4.9390   -1.3516   -0.8380 C   0  0  0  0  0  0  0  0  0  0  0  0
   -6.1583   -1.9773   -1.0668 O   0  0  0  0  0  0  0  0  0  0  0  0
   -7.0957   -2.0233   -0.0210 C   0  0  0  0  0  0  0  0  0  0  0  0
   -4.8687    2.3174   -2.4925 H   0  0  0  0  0  0  0  0  0  0  0  0
   -5.5637    2.6727   -0.8941 H   0  0  0  0  0  0  0  0  0  0  0  0
   -6.6363    2.4225   -2.3663 H   0  0  0  0  0  0  0  0  0  0  0  0
   -3.5355    1.6514   -1.0934 H   0  0  0  0  0  0  0  0  0  0  0  0
   -0.3837   -0.1446    0.0512 H   0  0  0  0  0  0  0  0  0  0  0  0
   -2.1496    4.9788   -0.2193 H   0  0  0  0  0  0  0  0  0  0  0  0
    2.5200    4.7290    0.7224 H   0  0  0  0  0  0  0  0  0  0  0  0
    4.7319    3.9487    1.1567 H   0  0  0  0  0  0  0  0  0  0  0  0
    6.3555    2.0985    1.4528 H   0  0  0  0  0  0  0  0  0  0  0  0
    5.5589   -2.9828    2.6041 H   0  0  0  0  0  0  0  0  0  0  0  0
    7.1729   -2.5542    1.9049 H   0  0  0  0  0  0  0  0  0  0  0  0
    6.1742   -3.8286    1.1243 H   0  0  0  0  0  0  0  0  0  0  0  0
    5.4932   -2.9015   -1.0386 H   0  0  0  0  0  0  0  0  0  0  0  0
    5.4295   -1.0745   -1.1817 H   0  0  0  0  0  0  0  0  0  0  0  0
    6.9550   -1.8603   -0.6837 H   0  0  0  0  0  0  0  0  0  0  0  0
    2.0871   -1.1991    0.5296 H   0  0  0  0  0  0  0  0  0  0  0  0
   -1.7787   -1.9895    0.2564 H   0  0  0  0  0  0  0  0  0  0  0  0
   -2.1240   -4.1909   -0.4168 H   0  0  0  0  0  0  0  0  0  0  0  0
   -3.2486   -5.1338    0.6530 H   0  0  0  0  0  0  0  0  0  0  0  0
   -2.4656   -3.6018    1.3024 H   0  0  0  0  0  0  0  0  0  0  0  0
   -7.3670   -3.1031    0.1453 H   0  0  0  0  0  0  0  0  0  0  0  0
   -8.0343   -1.4880   -0.2936 H   0  0  0  0  0  0  0  0  0  0  0  0
   -6.7005   -1.6569    0.9464 H   0  0  0  0  0  0  0  0  0  0  0  0
  1  2  1  0
  2  3  1  0
  3  4  2  0
  4  5  1  0
  5  6  1  0
  6  7  1  0
  7  8  2  0
  8  9  1  0
  9 10  2  0
 10 11  1  0
 10 12  1  0
 12 13  1  0
 13 14  1  0
 14 15  2  0
 15 16  1  0
 16 17  2  0
 17 18  1  0
 18 19  1  0
 19 20  1  0
 19 21  1  0
 19 22  1  0
 22 23  2  0
 22 24  1  0
 24 25  1  0
 25 26  2  0
 12 27  2  0
  5 28  2  0
 28 29  1  0
 29 30  1  0
 30 31  1  0
 29 32  2  0
 32 33  1  0
 33 34  1  0
 32  3  1  0
 27  7  1  0
 26 14  1  0
 25 17  1  0
  1 35  1  0
  1 36  1  0
  1 37  1  0
  4 38  1  0
  6 39  1  0
  9 40  1  0
 13 41  1  0
 15 42  1  0
 16 43  1  0
 20 44  1  0
 20 45  1  0
 20 46  1  0
 21 47  1  0
 21 48  1  0
 21 49  1  0
 24 50  1  0
 28 51  1  0
 31 52  1  0
 31 53  1  0
 31 54  1  0
 34 55  1  0
 34 56  1  0
 34 57  1  0
M  END
$$$$
[H]c1c([H])c([C@]([H])(N([H])[C@]([H])(C(=O)N([H])C2(C#N)C([H])([H])C2([H])[H])C([H])([H])C(F)(C([H])([H])[H])C([H])([H])[H])C(F)(F)F)c([H])c([H])c1-c1c([H])c([H])c(S(=O)(=O)C([H])([H])[H])c([H])c1[H]
     RDKit          3D

 63 65  0  0  0  0  0  0  0  0999 V2000
   -5.5217   -3.0463    0.8900 C   0  0  0  0  0  0  0  0  0  0  0  0
   -4.8726   -2.3416   -0.2940 C   0  0  0  0  0  0  0  0  0  0  0  0
   -4.0963   -3.4074   -1.0477 C   0  0  0  0  0  0  0  0  0  0  0  0
   -5.8265   -1.7196   -1.0096 F   0  0  0  0  0  0  0  0  0  0  0  0
   -3.8515   -1.3886    0.3765 C   0  0  0  0  0  0  0  0  0  0  0  0
   -3.0918   -0.6408   -0.6035 C   0  0  2  0  0  0  0  0  0  0  0  0
   -1.9731    0.2089   -0.1867 N   0  0  0  0  0  0  0  0  0  0  0  0
   -0.9952   -0.3439    0.6324 C   0  0  1  0  0  0  0  0  0  0  0  0
    0.4306   -0.1060    0.3006 C   0  0  0  0  0  0  0  0  0  0  0  0
    1.0668    1.0952    0.5097 C   0  0  0  0  0  0  0  0  0  0  0  0
    2.4224    1.2414    0.2658 C   0  0  0  0  0  0  0  0  0  0  0  0
    3.1869    0.1879   -0.2047 C   0  0  0  0  0  0  0  0  0  0  0  0
    2.5858   -1.0182   -0.4338 C   0  0  0  0  0  0  0  0  0  0  0  0
    1.2300   -1.1536   -0.1791 C   0  0  0  0  0  0  0  0  0  0  0  0
    4.6317    0.3314   -0.2876 C   0  0  0  0  0  0  0  0  0  0  0  0
    5.4677   -0.2262   -1.2066 C   0  0  0  0  0  0  0  0  0  0  0  0
    6.8412   -0.0632   -1.0946 C   0  0  0  0  0  0  0  0  0  0  0  0
    7.4003    0.6617   -0.0580 C   0  0  0  0  0  0  0  0  0  0  0  0
    6.5471    1.2325    0.8810 C   0  0  0  0  0  0  0  0  0  0  0  0
    5.2057    1.0649    0.7594 C   0  0  0  0  0  0  0  0  0  0  0  0
    9.1325    0.8759    0.1097 S   0  0  0  0  0  0  0  0  0  0  0  0
    9.8787   -0.7200    0.3342 C   0  0  0  0  0  0  0  0  0  0  0  0
    9.3557    1.6858    1.3860 O   0  0  0  0  0  0  0  0  0  0  0  0
    9.7441    1.6030   -1.0370 O   0  0  0  0  0  0  0  0  0  0  0  0
   -1.2158    0.0336    2.0824 C   0  0  0  0  0  0  0  0  0  0  0  0
   -1.2196    1.4422    2.2127 F   0  0  0  0  0  0  0  0  0  0  0  0
   -0.0386   -0.3118    2.8099 F   0  0  0  0  0  0  0  0  0  0  0  0
   -2.2841   -0.4045    2.7374 F   0  0  0  0  0  0  0  0  0  0  0  0
   -3.9504    0.5741   -1.1480 C   0  0  0  0  0  0  0  0  0  0  0  0
   -4.0400    0.6393   -2.3609 O   0  0  0  0  0  0  0  0  0  0  0  0
   -4.4743    1.4517   -0.2363 N   0  0  0  0  0  0  0  0  0  0  0  0
   -5.1911    2.6359   -0.1628 C   0  0  0  0  0  0  0  0  0  0  0  0
   -6.5752    2.9132   -0.6981 C   0  0  0  0  0  0  0  0  0  0  0  0
   -6.3560    2.7663    0.7742 C   0  0  0  0  0  0  0  0  0  0  0  0
   -4.3122    3.8614   -0.1685 C   0  0  0  0  0  0  0  0  0  0  0  0
   -3.6157    4.7866   -0.1649 N   0  0  0  0  0  0  0  0  0  0  0  0
   -6.1474   -2.3250    1.4119 H   0  0  0  0  0  0  0  0  0  0  0  0
   -6.1674   -3.8465    0.4757 H   0  0  0  0  0  0  0  0  0  0  0  0
   -4.7321   -3.4955    1.5478 H   0  0  0  0  0  0  0  0  0  0  0  0
   -4.0436   -3.2377   -2.1336 H   0  0  0  0  0  0  0  0  0  0  0  0
   -4.5851   -4.3790   -0.8599 H   0  0  0  0  0  0  0  0  0  0  0  0
   -3.0748   -3.4618   -0.6081 H   0  0  0  0  0  0  0  0  0  0  0  0
   -3.2118   -2.1242    0.9267 H   0  0  0  0  0  0  0  0  0  0  0  0
   -4.4721   -0.8569    1.1135 H   0  0  0  0  0  0  0  0  0  0  0  0
   -2.7609   -1.2376   -1.4521 H   0  0  0  0  0  0  0  0  0  0  0  0
   -1.5181    0.4756   -1.1116 H   0  0  0  0  0  0  0  0  0  0  0  0
   -1.0670   -1.5092    0.5957 H   0  0  0  0  0  0  0  0  0  0  0  0
    0.5213    1.9563    0.8577 H   0  0  0  0  0  0  0  0  0  0  0  0
    2.9477    2.1793    0.4241 H   0  0  0  0  0  0  0  0  0  0  0  0
    3.1646   -1.8663   -0.8182 H   0  0  0  0  0  0  0  0  0  0  0  0
    0.7385   -2.0907   -0.3610 H   0  0  0  0  0  0  0  0  0  0  0  0
    5.0502   -0.8068   -2.0380 H   0  0  0  0  0  0  0  0  0  0  0  0
    7.4920   -0.5161   -1.8452 H   0  0  0  0  0  0  0  0  0  0  0  0
    6.9880    1.8060    1.7014 H   0  0  0  0  0  0  0  0  0  0  0  0
    4.5314    1.5208    1.5082 H   0  0  0  0  0  0  0  0  0  0  0  0
    9.8989   -1.2329   -0.6638 H   0  0  0  0  0  0  0  0  0  0  0  0
    9.2566   -1.3435    0.9871 H   0  0  0  0  0  0  0  0  0  0  0  0
   10.8988   -0.6539    0.7781 H   0  0  0  0  0  0  0  0  0  0  0  0
   -4.2736    1.0911    0.8259 H   0  0  0  0  0  0  0  0  0  0  0  0
   -7.1874    2.1342   -1.1750 H   0  0  0  0  0  0  0  0  0  0  0  0
   -6.8041    3.9747   -1.0278 H   0  0  0  0  0  0  0  0  0  0  0  0
   -6.3700    3.6269    1.4597 H   0  0  0  0  0  0  0  0  0  0  0  0
   -6.6983    1.8175    1.2621 H   0  0  0  0  0  0  0  0  0  0  0  0
  1  2  1  0
  2  3  1  0
  2  4  1  0
  2  5  1  0
  5  6  1  0
  6  7  1  0
  7  8  1  0
  8  9  1  0
  9 10  2  0
 10 11  1  0
 11 12  2  0
 12 13  1  0
 13 14  2  0
 12 15  1  0
 15 16  2  0
 16 17  1  0
 17 18  2  0
 18 19  1  0
 19 20  2  0
 18 21  1  0
 21 22  1  0
 21 23  2  0
 21 24  2  0
  8 25  1  0
 25 26  1  0
 25 27  1  0
 25 28  1  0
  6 29  1  0
 29 30  2  0
 29 31  1  0
 31 32  1  0
 32 33  1  0
 33 34  1  0
 32 35  1  0
 35 36  3  0
 14  9  1  0
 20 15  1  0
 34 32  1  0
  1 37  1  0
  1 38  1  0
  1 39  1  0
  3 40  1  0
  3 41  1  0
  3 42  1  0
  5 43  1  0
  5 44  1  0
  6 45  1  6
  7 46  1  0
  8 47  1  1
 10 48  1  0
 11 49  1  0
 13 50  1  0
 14 51  1  0
 16 52  1  0
 17 53  1  0
 19 54  1  0
 20 55  1  0
 22 56  1  0
 22 57  1  0
 22 58  1  0
 31 59  1  0
 33 60  1  0
 33 61  1  0
 34 62  1  0
 34 63  1  0
M  END
$$$$
[H]c1nc(N([H])[H])c2c(-c3c([H])c([H])c(Oc4c([H])c([H])c([H])c([H])c4[H])c([H])c3[H])c([H])n(C3([H])C([H])([H])C3([H])[H])c2n1
     RDKit          3D

 44 48  0  0  0  0  0  0  0  0999 V2000
   -0.5502    0.3456    2.7451 N   0  0  0  0  0  0  0  0  0  0  0  0
   -1.8951    0.0390    2.4267 C   0  0  0  0  0  0  0  0  0  0  0  0
   -2.8439   -0.1358    3.3427 N   0  0  0  0  0  0  0  0  0  0  0  0
   -4.1252   -0.4030    3.0556 C   0  0  0  0  0  0  0  0  0  0  0  0
   -4.4680   -0.4989    1.7689 N   0  0  0  0  0  0  0  0  0  0  0  0
   -3.6007   -0.3427    0.7669 C   0  0  0  0  0  0  0  0  0  0  0  0
   -3.7716   -0.3945   -0.5665 N   0  0  0  0  0  0  0  0  0  0  0  0
   -2.5779   -0.1574   -1.1079 C   0  0  0  0  0  0  0  0  0  0  0  0
   -1.6237    0.0494   -0.1208 C   0  0  0  0  0  0  0  0  0  0  0  0
   -0.2060    0.2926   -0.3237 C   0  0  0  0  0  0  0  0  0  0  0  0
    0.7981   -0.5304    0.0973 C   0  0  0  0  0  0  0  0  0  0  0  0
    2.1018   -0.1888   -0.1423 C   0  0  0  0  0  0  0  0  0  0  0  0
    2.4098    0.9746   -0.8029 C   0  0  0  0  0  0  0  0  0  0  0  0
    3.7306    1.3472   -1.0605 O   0  0  0  0  0  0  0  0  0  0  0  0
    4.8244    0.6134   -0.6921 C   0  0  0  0  0  0  0  0  0  0  0  0
    5.4382    0.8022    0.5313 C   0  0  0  0  0  0  0  0  0  0  0  0
    6.5431    0.0549    0.8930 C   0  0  0  0  0  0  0  0  0  0  0  0
    7.0472   -0.8968    0.0239 C   0  0  0  0  0  0  0  0  0  0  0  0
    6.4301   -1.0832   -1.2002 C   0  0  0  0  0  0  0  0  0  0  0  0
    5.3278   -0.3369   -1.5598 C   0  0  0  0  0  0  0  0  0  0  0  0
    1.4245    1.8303   -1.2433 C   0  0  0  0  0  0  0  0  0  0  0  0
    0.1218    1.4572   -0.9860 C   0  0  0  0  0  0  0  0  0  0  0  0
   -2.2640   -0.0646    1.0818 C   0  0  0  0  0  0  0  0  0  0  0  0
   -4.9863   -0.6521   -1.3112 C   0  0  0  0  0  0  0  0  0  0  0  0
   -5.7881    0.5761   -1.7824 C   0  0  0  0  0  0  0  0  0  0  0  0
   -6.3118   -0.3774   -0.7575 C   0  0  0  0  0  0  0  0  0  0  0  0
   -0.1430    1.3032    2.5675 H   0  0  0  0  0  0  0  0  0  0  0  0
    0.1064   -0.3481    3.1679 H   0  0  0  0  0  0  0  0  0  0  0  0
   -4.8720   -0.5391    3.8583 H   0  0  0  0  0  0  0  0  0  0  0  0
   -2.3219   -0.1180   -2.1581 H   0  0  0  0  0  0  0  0  0  0  0  0
    0.5518   -1.4648    0.6178 H   0  0  0  0  0  0  0  0  0  0  0  0
    2.9284   -0.8137    0.1753 H   0  0  0  0  0  0  0  0  0  0  0  0
    5.0725    1.5449    1.2501 H   0  0  0  0  0  0  0  0  0  0  0  0
    7.0051    0.2304    1.8705 H   0  0  0  0  0  0  0  0  0  0  0  0
    7.9085   -1.4942    0.2808 H   0  0  0  0  0  0  0  0  0  0  0  0
    6.8344   -1.8314   -1.8716 H   0  0  0  0  0  0  0  0  0  0  0  0
    4.8576   -0.4952   -2.5202 H   0  0  0  0  0  0  0  0  0  0  0  0
    1.6415    2.7555   -1.7679 H   0  0  0  0  0  0  0  0  0  0  0  0
   -0.6740    2.1392   -1.3365 H   0  0  0  0  0  0  0  0  0  0  0  0
   -4.8761   -1.4638   -2.0550 H   0  0  0  0  0  0  0  0  0  0  0  0
   -6.1678    0.5789   -2.8143 H   0  0  0  0  0  0  0  0  0  0  0  0
   -5.3864    1.5344   -1.4272 H   0  0  0  0  0  0  0  0  0  0  0  0
   -6.4967    0.0490    0.2302 H   0  0  0  0  0  0  0  0  0  0  0  0
   -7.1528   -1.0203   -1.1440 H   0  0  0  0  0  0  0  0  0  0  0  0
  1  2  1  0
  2  3  2  0
  3  4  1  0
  4  5  2  0
  5  6  1  0
  6  7  1  0
  7  8  1  0
  8  9  2  0
  9 10  1  0
 10 11  2  0
 11 12  1  0
 12 13  2  0
 13 14  1  0
 14 15  1  0
 15 16  2  0
 16 17  1  0
 17 18  2  0
 18 19  1  0
 19 20  2  0
 13 21  1  0
 21 22  2  0
  9 23  1  0
  7 24  1  0
 24 25  1  0
 25 26  1  0
 23  2  1  0
 26 24  1  0
 23  6  2  0
 22 10  1  0
 20 15  1  0
  1 27  1  0
  1 28  1  0
  4 29  1  0
  8 30  1  0
 11 31  1  0
 12 32  1  0
 16 33  1  0
 17 34  1  0
 18 35  1  0
 19 36  1  0
 20 37  1  0
 21 38  1  0
 22 39  1  0
 24 40  1  0
 25 41  1  0
 25 42  1  0
 26 43  1  0
 26 44  1  0
M  END
$$$$
[H]c1nc(N([H])[H])c2c(-c3c([H])c([H])c(Oc4c([H])c([H])c([H])c([H])c4[H])c([H])c3[H])c([H])n(C3([H])C([H])([H])C([H])([H])C([H])([H])C3([H])[H])c2n1
     RDKit          3D

 50 54  0  0  0  0  0  0  0  0999 V2000
   -0.2691   -3.7170    0.7737 N   0  0  0  0  0  0  0  0  0  0  0  0
   -1.5533   -3.1327    0.8918 C   0  0  0  0  0  0  0  0  0  0  0  0
   -2.6298   -3.8922    1.2460 N   0  0  0  0  0  0  0  0  0  0  0  0
   -3.8365   -3.3215    1.3258 C   0  0  0  0  0  0  0  0  0  0  0  0
   -4.0103   -2.0186    1.0648 N   0  0  0  0  0  0  0  0  0  0  0  0
   -2.9569   -1.2419    0.7110 C   0  0  0  0  0  0  0  0  0  0  0  0
   -2.8501    0.0626    0.3909 N   0  0  0  0  0  0  0  0  0  0  0  0
   -1.5794    0.3452    0.1050 C   0  0  0  0  0  0  0  0  0  0  0  0
   -0.7959   -0.8145    0.2377 C   0  0  0  0  0  0  0  0  0  0  0  0
    0.6506   -0.8766    0.0460 C   0  0  0  0  0  0  0  0  0  0  0  0
    1.5540   -1.2099    1.0252 C   0  0  0  0  0  0  0  0  0  0  0  0
    2.8996   -1.2579    0.7630 C   0  0  0  0  0  0  0  0  0  0  0  0
    3.3773   -0.9706   -0.4966 C   0  0  0  0  0  0  0  0  0  0  0  0
    4.7359   -1.0345   -0.7023 O   0  0  0  0  0  0  0  0  0  0  0  0
    5.5443    0.0990   -0.5048 C   0  0  0  0  0  0  0  0  0  0  0  0
    5.0098    1.3005   -0.1028 C   0  0  0  0  0  0  0  0  0  0  0  0
    5.7902    2.4228    0.0955 C   0  0  0  0  0  0  0  0  0  0  0  0
    7.1611    2.3503   -0.1143 C   0  0  0  0  0  0  0  0  0  0  0  0
    7.6941    1.1442   -0.5174 C   0  0  0  0  0  0  0  0  0  0  0  0
    6.8945    0.0366   -0.7090 C   0  0  0  0  0  0  0  0  0  0  0  0
    2.4945   -0.6324   -1.4999 C   0  0  0  0  0  0  0  0  0  0  0  0
    1.1552   -0.5908   -1.2160 C   0  0  0  0  0  0  0  0  0  0  0  0
   -1.6814   -1.7889    0.6150 C   0  0  0  0  0  0  0  0  0  0  0  0
   -4.0129    0.9317    0.3919 C   0  0  0  0  0  0  0  0  0  0  0  0
   -5.0568    0.4581   -0.6004 C   0  0  0  0  0  0  0  0  0  0  0  0
   -5.9758    1.6818   -0.6704 C   0  0  0  0  0  0  0  0  0  0  0  0
   -5.0932    2.8727   -0.3667 C   0  0  0  0  0  0  0  0  0  0  0  0
   -3.7068    2.3152   -0.0947 C   0  0  0  0  0  0  0  0  0  0  0  0
    0.1660   -3.8046   -0.1551 H   0  0  0  0  0  0  0  0  0  0  0  0
    0.2163   -4.0498    1.6297 H   0  0  0  0  0  0  0  0  0  0  0  0
   -4.7284   -3.9048    1.6093 H   0  0  0  0  0  0  0  0  0  0  0  0
   -1.1914    1.2933   -0.1819 H   0  0  0  0  0  0  0  0  0  0  0  0
    1.2067   -1.4341    2.0381 H   0  0  0  0  0  0  0  0  0  0  0  0
    3.6119   -1.5274    1.5594 H   0  0  0  0  0  0  0  0  0  0  0  0
    3.9499    1.4143    0.0751 H   0  0  0  0  0  0  0  0  0  0  0  0
    5.3744    3.3708    0.4119 H   0  0  0  0  0  0  0  0  0  0  0  0
    7.8051    3.2211    0.0342 H   0  0  0  0  0  0  0  0  0  0  0  0
    8.7739    1.1149   -0.6750 H   0  0  0  0  0  0  0  0  0  0  0  0
    7.3331   -0.8968   -1.0245 H   0  0  0  0  0  0  0  0  0  0  0  0
    2.8970   -0.4080   -2.4925 H   0  0  0  0  0  0  0  0  0  0  0  0
    0.4765   -0.3170   -2.0398 H   0  0  0  0  0  0  0  0  0  0  0  0
   -4.4969    0.9949    1.3760 H   0  0  0  0  0  0  0  0  0  0  0  0
   -4.5802    0.2889   -1.5824 H   0  0  0  0  0  0  0  0  0  0  0  0
   -5.6092   -0.4290   -0.2336 H   0  0  0  0  0  0  0  0  0  0  0  0
   -6.4398    1.7420   -1.6780 H   0  0  0  0  0  0  0  0  0  0  0  0
   -6.7949    1.5937    0.0863 H   0  0  0  0  0  0  0  0  0  0  0  0
   -5.0798    3.5510   -1.2626 H   0  0  0  0  0  0  0  0  0  0  0  0
   -5.4892    3.4534    0.4812 H   0  0  0  0  0  0  0  0  0  0  0  0
   -3.1641    2.9288    0.6419 H   0  0  0  0  0  0  0  0  0  0  0  0
   -3.1897    2.2834   -1.0908 H   0  0  0  0  0  0  0  0  0  0  0  0
  1  2  1  0
  2  3  2  0
  3  4  1  0
  4  5  2  0
  5  6  1  0
  6  7  1  0
  7  8  1  0
  8  9  2  0
  9 10  1  0
 10 11  2  0
 11 12  1  0
 12 13  2  0
 13 14  1  0
 14 15  1  0
 15 16  2  0
 16 17  1  0
 17 18  2  0
 18 19  1  0
 19 20  2  0
 13 21  1  0
 21 22  2  0
  9 23  1  0
  7 24  1  0
 24 25  1  0
 25 26  1  0
 26 27  1  0
 27 28  1  0
 23  2  1  0
 28 24  1  0
 23  6  2  0
 22 10  1  0
 20 15  1  0
  1 29  1  0
  1 30  1  0
  4 31  1  0
  8 32  1  0
 11 33  1  0
 12 34  1  0
 16 35  1  0
 17 36  1  0
 18 37  1  0
 19 38  1  0
 20 39  1  0
 21 40  1  0
 22 41  1  0
 24 42  1  0
 25 43  1  0
 25 44  1  0
 26 45  1  0
 26 46  1  0
 27 47  1  0
 27 48  1  0
 28 49  1  0
 28 50  1  0
M  END
$$$$
[H]Oc1c([H])c([H])c([H])c2c3c(Br)c([H])c([H])c([H])c3n([C@]3([H])O[C@]([H])(C([H])([H])O[H])[C@@]([H])(O[H])[C@]([H])(O[H])[C@@]3([H])O[H])c12
     RDKit          3D

 44 47  0  0  0  0  0  0  0  0999 V2000
   -4.4241   -0.4052    2.5448 O   0  0  0  0  0  0  0  0  0  0  0  0
   -3.1808   -0.9411    2.2706 C   0  0  0  0  0  0  0  0  0  0  0  0
   -2.4688   -0.0832    1.2354 C   0  0  1  0  0  0  0  0  0  0  0  0
   -1.2161   -0.6570    0.9852 O   0  0  0  0  0  0  0  0  0  0  0  0
   -0.5842    0.1324    0.0374 C   0  0  2  0  0  0  0  0  0  0  0  0
   -1.2767    0.2048   -1.2851 C   0  0  2  0  0  0  0  0  0  0  0  0
   -0.5073    0.9507   -2.1689 O   0  0  0  0  0  0  0  0  0  0  0  0
   -2.6254    0.8987   -1.0226 C   0  0  1  0  0  0  0  0  0  0  0  0
   -3.3530    1.0290   -2.1779 O   0  0  0  0  0  0  0  0  0  0  0  0
   -3.3242   -0.0143   -0.0060 C   0  0  2  0  0  0  0  0  0  0  0  0
   -4.5601    0.4788    0.3403 O   0  0  0  0  0  0  0  0  0  0  0  0
    0.8503   -0.0025   -0.0283 N   0  0  0  0  0  0  0  0  0  0  0  0
    1.6247   -1.1043   -0.2214 C   0  0  0  0  0  0  0  0  0  0  0  0
    1.2885   -2.4088   -0.4126 C   0  0  0  0  0  0  0  0  0  0  0  0
   -0.0546   -2.7613   -0.4260 O   0  0  0  0  0  0  0  0  0  0  0  0
    2.2395   -3.4125   -0.5972 C   0  0  0  0  0  0  0  0  0  0  0  0
    3.5592   -3.0313   -0.5793 C   0  0  0  0  0  0  0  0  0  0  0  0
    3.9444   -1.7183   -0.3884 C   0  0  0  0  0  0  0  0  0  0  0  0
    2.9717   -0.7606   -0.2102 C   0  0  0  0  0  0  0  0  0  0  0  0
    3.0405    0.5855   -0.0062 C   0  0  0  0  0  0  0  0  0  0  0  0
    4.0815    1.4854    0.0981 C   0  0  0  0  0  0  0  0  0  0  0  0
    5.8961    0.8962   -0.0480 Br  0  0  0  0  0  0  0  0  0  0  0  0
    3.8336    2.8432    0.3123 C   0  0  0  0  0  0  0  0  0  0  0  0
    2.5366    3.2672    0.4172 C   0  0  0  0  0  0  0  0  0  0  0  0
    1.5057    2.3497    0.3099 C   0  0  0  0  0  0  0  0  0  0  0  0
    1.7361    1.0061    0.0985 C   0  0  0  0  0  0  0  0  0  0  0  0
   -4.3301    0.2827    3.2490 H   0  0  0  0  0  0  0  0  0  0  0  0
   -3.3089   -1.9563    1.8485 H   0  0  0  0  0  0  0  0  0  0  0  0
   -2.5291   -0.9481    3.1776 H   0  0  0  0  0  0  0  0  0  0  0  0
   -2.3516    0.9570    1.6033 H   0  0  0  0  0  0  0  0  0  0  0  0
   -0.7688    1.1694    0.4767 H   0  0  0  0  0  0  0  0  0  0  0  0
   -1.5357   -0.7240   -1.7711 H   0  0  0  0  0  0  0  0  0  0  0  0
   -1.0748    1.1967   -2.9371 H   0  0  0  0  0  0  0  0  0  0  0  0
   -2.3985    1.8369   -0.5099 H   0  0  0  0  0  0  0  0  0  0  0  0
   -3.4843    1.9867   -2.4539 H   0  0  0  0  0  0  0  0  0  0  0  0
   -3.3870   -1.0151   -0.4963 H   0  0  0  0  0  0  0  0  0  0  0  0
   -4.7852    1.2956   -0.2055 H   0  0  0  0  0  0  0  0  0  0  0  0
   -0.3525   -3.7169   -0.5645 H   0  0  0  0  0  0  0  0  0  0  0  0
    1.9015   -4.4250   -0.7431 H   0  0  0  0  0  0  0  0  0  0  0  0
    4.3274   -3.7930   -0.7208 H   0  0  0  0  0  0  0  0  0  0  0  0
    4.9977   -1.5307   -0.3922 H   0  0  0  0  0  0  0  0  0  0  0  0
    4.6895    3.5020    0.3857 H   0  0  0  0  0  0  0  0  0  0  0  0
    2.3589    4.3224    0.5832 H   0  0  0  0  0  0  0  0  0  0  0  0
    0.4985    2.7327    0.3988 H   0  0  0  0  0  0  0  0  0  0  0  0
  1  2  1  0
  2  3  1  0
  3  4  1  0
  4  5  1  0
  5  6  1  0
  6  7  1  0
  6  8  1  0
  8  9  1  0
  8 10  1  0
 10 11  1  0
  5 12  1  0
 12 13  1  0
 13 14  2  0
 14 15  1  0
 14 16  1  0
 16 17  2  0
 17 18  1  0
 18 19  2  0
 19 20  1  0
 20 21  2  0
 21 22  1  0
 21 23  1  0
 23 24  2  0
 24 25  1  0
 25 26  2  0
 10  3  1  0
 26 12  1  0
 19 13  1  0
 26 20  1  0
  1 27  1  0
  2 28  1  0
  2 29  1  0
  3 30  1  1
  5 31  1  1
  6 32  1  6
  7 33  1  0
  8 34  1  1
  9 35  1  0
 10 36  1  6
 11 37  1  0
 15 38  1  0
 16 39  1  0
 17 40  1  0
 18 41  1  0
 23 42  1  0
 24 43  1  0
 25 44  1  0
M  END
$$$$
[H]OC(=O)C([H])([H])Oc1c([H])c([H])c([H])c2c1c(C(=O)C(=O)N([H])[H])c(C([H])([H])C([H])([H])[H])n2C([H])([H])c1c([H])c([H])c([H])c(Cl)c1[H]
     RDKit          3D

 48 50  0  0  0  0  0  0  0  0999 V2000
   -1.4438    2.5107    1.7209 C   0  0  0  0  0  0  0  0  0  0  0  0
   -1.2521    2.4960    0.2305 C   0  0  0  0  0  0  0  0  0  0  0  0
   -0.6090    1.2489   -0.2711 C   0  0  0  0  0  0  0  0  0  0  0  0
    0.7382    1.0178   -0.0702 C   0  0  0  0  0  0  0  0  0  0  0  0
    1.6803    1.8776    0.6296 C   0  0  0  0  0  0  0  0  0  0  0  0
    1.8354    1.7112    1.8616 O   0  0  0  0  0  0  0  0  0  0  0  0
    2.4430    2.9169   -0.0471 C   0  0  0  0  0  0  0  0  0  0  0  0
    3.3586    3.7517    0.6459 N   0  0  0  0  0  0  0  0  0  0  0  0
    2.2795    3.0721   -1.2791 O   0  0  0  0  0  0  0  0  0  0  0  0
    1.0444   -0.1883   -0.6563 C   0  0  0  0  0  0  0  0  0  0  0  0
    2.2728   -0.8693   -0.7360 C   0  0  0  0  0  0  0  0  0  0  0  0
    3.3865   -0.3082   -0.1598 O   0  0  0  0  0  0  0  0  0  0  0  0
    4.6620   -0.8673   -0.1373 C   0  0  0  0  0  0  0  0  0  0  0  0
    4.7775   -2.1367    0.6037 C   0  0  0  0  0  0  0  0  0  0  0  0
    5.9832   -2.8117    0.5964 O   0  0  0  0  0  0  0  0  0  0  0  0
    3.8145   -2.6156    1.2364 O   0  0  0  0  0  0  0  0  0  0  0  0
    2.2896   -2.0702   -1.3964 C   0  0  0  0  0  0  0  0  0  0  0  0
    1.1105   -2.5725   -1.9587 C   0  0  0  0  0  0  0  0  0  0  0  0
   -0.0787   -1.8841   -1.8649 C   0  0  0  0  0  0  0  0  0  0  0  0
   -0.1080   -0.6719   -1.2014 C   0  0  0  0  0  0  0  0  0  0  0  0
   -1.1237    0.2187   -0.9601 N   0  0  0  0  0  0  0  0  0  0  0  0
   -2.4790    0.0990   -1.3717 C   0  0  0  0  0  0  0  0  0  0  0  0
   -3.4144   -0.5520   -0.4658 C   0  0  0  0  0  0  0  0  0  0  0  0
   -3.6037   -1.9158   -0.5310 C   0  0  0  0  0  0  0  0  0  0  0  0
   -4.4881   -2.5904    0.3007 C   0  0  0  0  0  0  0  0  0  0  0  0
   -5.2175   -1.9223    1.2305 C   0  0  0  0  0  0  0  0  0  0  0  0
   -5.0548   -0.5613    1.3238 C   0  0  0  0  0  0  0  0  0  0  0  0
   -6.0051    0.2918    2.5316 Cl  0  0  0  0  0  0  0  0  0  0  0  0
   -4.1701    0.1083    0.4909 C   0  0  0  0  0  0  0  0  0  0  0  0
   -0.7717    3.3183    2.1278 H   0  0  0  0  0  0  0  0  0  0  0  0
   -2.4838    2.8330    2.0151 H   0  0  0  0  0  0  0  0  0  0  0  0
   -1.2273    1.5451    2.1973 H   0  0  0  0  0  0  0  0  0  0  0  0
   -2.2777    2.5747   -0.2184 H   0  0  0  0  0  0  0  0  0  0  0  0
   -0.7176    3.4028   -0.1279 H   0  0  0  0  0  0  0  0  0  0  0  0
    3.0380    4.7429    0.8209 H   0  0  0  0  0  0  0  0  0  0  0  0
    4.2865    3.4795    0.9844 H   0  0  0  0  0  0  0  0  0  0  0  0
    4.9827   -0.9873   -1.2075 H   0  0  0  0  0  0  0  0  0  0  0  0
    5.3888   -0.1210    0.2770 H   0  0  0  0  0  0  0  0  0  0  0  0
    6.8248   -2.3903    0.9846 H   0  0  0  0  0  0  0  0  0  0  0  0
    3.2101   -2.6283   -1.5015 H   0  0  0  0  0  0  0  0  0  0  0  0
    1.1720   -3.5192   -2.4673 H   0  0  0  0  0  0  0  0  0  0  0  0
   -0.9853   -2.3090   -2.3248 H   0  0  0  0  0  0  0  0  0  0  0  0
   -2.5209   -0.4116   -2.3623 H   0  0  0  0  0  0  0  0  0  0  0  0
   -2.8820    1.1453   -1.5355 H   0  0  0  0  0  0  0  0  0  0  0  0
   -3.0701   -2.5307   -1.2456 H   0  0  0  0  0  0  0  0  0  0  0  0
   -4.6167   -3.6659    0.2268 H   0  0  0  0  0  0  0  0  0  0  0  0
   -5.9066   -2.4454    1.8795 H   0  0  0  0  0  0  0  0  0  0  0  0
   -4.0712    1.1841    0.5939 H   0  0  0  0  0  0  0  0  0  0  0  0
  1  2  1  0
  2  3  1  0
  3  4  2  0
  4  5  1  0
  5  6  2  0
  5  7  1  0
  7  8  1  0
  7  9  2  0
  4 10  1  0
 10 11  2  0
 11 12  1  0
 12 13  1  0
 13 14  1  0
 14 15  1  0
 14 16  2  0
 11 17  1  0
 17 18  2  0
 18 19  1  0
 19 20  2  0
 20 21  1  0
 21 22  1  0
 22 23  1  0
 23 24  2  0
 24 25  1  0
 25 26  2  0
 26 27  1  0
 27 28  1  0
 27 29  2  0
 21  3  1  0
 29 23  1  0
 20 10  1  0
  1 30  1  0
  1 31  1  0
  1 32  1  0
  2 33  1  0
  2 34  1  0
  8 35  1  0
  8 36  1  0
 13 37  1  0
 13 38  1  0
 15 39  1  0
 17 40  1  0
 18 41  1  0
 19 42  1  0
 22 43  1  0
 22 44  1  0
 24 45  1  0
 25 46  1  0
 26 47  1  0
 29 48  1  0
M  END
$$$$
[H]c1nc([H])c(-c2c([H])c3nc(N([H])C(=O)N([H])C([H])([H])C([H])([H])[H])sc3n(C3([H])C([H])([H])OC([H])([H])C3([H])[H])c2=O)c([H])c1[H]
     RDKit          3D

 46 49  0  0  0  0  0  0  0  0999 V2000
    4.0677   -0.7958    6.7038 C   0  0  0  0  0  0  0  0  0  0  0  0
    4.4108   -0.3503    5.3328 C   0  0  0  0  0  0  0  0  0  0  0  0
    3.4844   -0.6687    4.2861 N   0  0  0  0  0  0  0  0  0  0  0  0
    2.6424   -0.9664    3.3355 C   0  0  0  0  0  0  0  0  0  0  0  0
    2.2467   -2.1389    3.0405 O   0  0  0  0  0  0  0  0  0  0  0  0
    2.1058    0.0945    2.5586 N   0  0  0  0  0  0  0  0  0  0  0  0
    1.1953   -0.0698    1.4671 C   0  0  0  0  0  0  0  0  0  0  0  0
    0.7128    1.0077    0.8099 N   0  0  0  0  0  0  0  0  0  0  0  0
   -0.0644    0.8414   -0.1966 C   0  0  0  0  0  0  0  0  0  0  0  0
   -0.6417    1.8656   -0.9970 C   0  0  0  0  0  0  0  0  0  0  0  0
   -1.4512    1.6125   -2.0636 C   0  0  0  0  0  0  0  0  0  0  0  0
   -1.9835    2.7633   -2.8214 C   0  0  0  0  0  0  0  0  0  0  0  0
   -2.5629    3.7923   -2.0481 C   0  0  0  0  0  0  0  0  0  0  0  0
   -3.0228    4.8813   -2.7298 C   0  0  0  0  0  0  0  0  0  0  0  0
   -2.9265    4.9805   -4.1157 C   0  0  0  0  0  0  0  0  0  0  0  0
   -2.3706    3.9850   -4.8258 N   0  0  0  0  0  0  0  0  0  0  0  0
   -1.9144    2.9099   -4.1721 C   0  0  0  0  0  0  0  0  0  0  0  0
   -1.7268    0.3117   -2.3894 C   0  0  0  0  0  0  0  0  0  0  0  0
   -2.4624    0.0365   -3.3589 O   0  0  0  0  0  0  0  0  0  0  0  0
   -1.1763   -0.6921   -1.6282 N   0  0  0  0  0  0  0  0  0  0  0  0
   -1.4876   -2.0091   -2.0047 C   0  0  0  0  0  0  0  0  0  0  0  0
   -0.3349   -2.8885   -2.4106 C   0  0  0  0  0  0  0  0  0  0  0  0
   -0.9825   -4.2613   -2.1203 C   0  0  0  0  0  0  0  0  0  0  0  0
   -1.5511   -4.0698   -0.8642 O   0  0  0  0  0  0  0  0  0  0  0  0
   -2.1093   -2.7953   -0.8821 C   0  0  0  0  0  0  0  0  0  0  0  0
   -0.3832   -0.4393   -0.5762 C   0  0  0  0  0  0  0  0  0  0  0  0
    0.5020   -1.3414    0.6054 S   0  0  0  0  0  0  0  0  0  0  0  0
    4.2452    0.0028    7.4871 H   0  0  0  0  0  0  0  0  0  0  0  0
    3.0467   -1.1789    6.8530 H   0  0  0  0  0  0  0  0  0  0  0  0
    4.7604   -1.6213    7.0728 H   0  0  0  0  0  0  0  0  0  0  0  0
    4.4216    0.8123    5.4104 H   0  0  0  0  0  0  0  0  0  0  0  0
    5.4606   -0.5680    5.0498 H   0  0  0  0  0  0  0  0  0  0  0  0
    3.7388   -1.9997    4.5933 H   0  0  0  0  0  0  0  0  0  0  0  0
    2.4324    1.0677    2.8130 H   0  0  0  0  0  0  0  0  0  0  0  0
   -0.4463    2.9240   -0.7541 H   0  0  0  0  0  0  0  0  0  0  0  0
   -2.6161    3.6706   -0.9930 H   0  0  0  0  0  0  0  0  0  0  0  0
   -3.4909    5.7131   -2.2154 H   0  0  0  0  0  0  0  0  0  0  0  0
   -3.3024    5.8630   -4.6364 H   0  0  0  0  0  0  0  0  0  0  0  0
   -1.4490    2.0972   -4.7417 H   0  0  0  0  0  0  0  0  0  0  0  0
   -2.2178   -2.0527   -2.8637 H   0  0  0  0  0  0  0  0  0  0  0  0
   -0.1678   -2.8546   -3.4816 H   0  0  0  0  0  0  0  0  0  0  0  0
    0.5423   -2.8277   -1.7689 H   0  0  0  0  0  0  0  0  0  0  0  0
   -1.8430   -4.4159   -2.7977 H   0  0  0  0  0  0  0  0  0  0  0  0
   -0.2410   -5.0598   -2.0976 H   0  0  0  0  0  0  0  0  0  0  0  0
   -3.2219   -2.8149   -0.9488 H   0  0  0  0  0  0  0  0  0  0  0  0
   -1.8676   -2.3528    0.0842 H   0  0  0  0  0  0  0  0  0  0  0  0
  1  2  1  0
  2  3  1  0
  3  4  1  0
  4  5  2  0
  4  6  1  0
  6  7  1  0
  7  8  2  0
  8  9  1  0
  9 10  1  0
 10 11  2  0
 11 12  1  0
 12 13  2  0
 13 14  1  0
 14 15  2  0
 15 16  1  0
 16 17  2  0
 11 18  1  0
 18 19  2  0
 18 20  1  0
 20 21  1  0
 21 22  1  0
 22 23  1  0
 23 24  1  0
 24 25  1  0
 20 26  1  0
 26 27  1  0
 27  7  1  0
 26  9  2  0
 17 12  1  0
 25 21  1  0
  1 28  1  0
  1 29  1  0
  1 30  1  0
  2 31  1  0
  2 32  1  0
  3 33  1  0
  6 34  1  0
 10 35  1  0
 13 36  1  0
 14 37  1  0
 15 38  1  0
 17 39  1  0
 21 40  1  0
 22 41  1  0
 22 42  1  0
 23 43  1  0
 23 44  1  0
 25 45  1  0
 25 46  1  0
M  END
$$$$
[H]C1=C(C(=O)[O-])N2C(=O)/C(=C(\[H])c3oc4c([H])c([H])c([H])c([H])c4c3[H])[C@@]2([H])S1
     RDKit          3D

 29 32  0  0  0  0  0  0  0  0999 V2000
   -6.2003    0.6657    0.3379 O   0  0  0  0  0  0  0  0  0  0  0  0
   -5.5577    0.2642   -0.8166 C   0  0  0  0  0  0  0  0  0  0  0  0
   -6.2645    0.1234   -1.8598 O   0  0  0  0  0  0  0  0  0  0  0  0
   -4.1187    0.0237   -0.7837 C   0  0  0  0  0  0  0  0  0  0  0  0
   -3.4806   -0.3627   -1.8706 C   0  0  0  0  0  0  0  0  0  0  0  0
   -1.7633   -0.5340   -1.3937 S   0  0  0  0  0  0  0  0  0  0  0  0
   -1.9421    0.6018    0.0562 C   0  0  1  0  0  0  0  0  0  0  0  0
   -3.3320    0.1527    0.3582 N   0  0  0  0  0  0  0  0  0  0  0  0
   -2.8807    0.1509    1.7304 C   0  0  0  0  0  0  0  0  0  0  0  0
   -3.4448    0.1894    2.8444 O   0  0  0  0  0  0  0  0  0  0  0  0
   -1.4776    0.0854    1.3305 C   0  0  0  0  0  0  0  0  0  0  0  0
   -0.3464   -0.2739    1.8821 C   0  0  0  0  0  0  0  0  0  0  0  0
    0.9124   -0.1954    1.1374 C   0  0  0  0  0  0  0  0  0  0  0  0
    1.9715   -1.0758    1.2060 C   0  0  0  0  0  0  0  0  0  0  0  0
    2.9619   -0.6289    0.3367 C   0  0  0  0  0  0  0  0  0  0  0  0
    4.2114   -1.1086    0.0072 C   0  0  0  0  0  0  0  0  0  0  0  0
    4.9612   -0.4050   -0.9186 C   0  0  0  0  0  0  0  0  0  0  0  0
    4.4726    0.7552   -1.5041 C   0  0  0  0  0  0  0  0  0  0  0  0
    3.2160    1.1892   -1.1372 C   0  0  0  0  0  0  0  0  0  0  0  0
    2.4327    0.5187   -0.2175 C   0  0  0  0  0  0  0  0  0  0  0  0
    1.2269    0.7415    0.2772 O   0  0  0  0  0  0  0  0  0  0  0  0
   -3.8648   -0.5413   -2.8262 H   0  0  0  0  0  0  0  0  0  0  0  0
   -1.8508    1.6547   -0.1828 H   0  0  0  0  0  0  0  0  0  0  0  0
   -0.3011   -0.6452    2.9185 H   0  0  0  0  0  0  0  0  0  0  0  0
    2.0257   -1.9634    1.8291 H   0  0  0  0  0  0  0  0  0  0  0  0
    4.6128   -1.9976    0.4417 H   0  0  0  0  0  0  0  0  0  0  0  0
    5.9416   -0.7740   -1.1828 H   0  0  0  0  0  0  0  0  0  0  0  0
    5.0846    1.2977   -2.2352 H   0  0  0  0  0  0  0  0  0  0  0  0
    2.7940    2.0912   -1.5693 H   0  0  0  0  0  0  0  0  0  0  0  0
  1  2  1  0
  2  3  2  0
  2  4  1  0
  4  5  2  0
  5  6  1  0
  6  7  1  0
  7  8  1  0
  8  9  1  0
  9 10  2  0
  9 11  1  0
 11 12  2  0
 12 13  1  0
 13 14  2  0
 14 15  1  0
 15 16  2  0
 16 17  1  0
 17 18  2  0
 18 19  1  0
 19 20  2  0
 20 21  1  0
  8  4  1  0
 21 13  1  0
 11  7  1  0
 20 15  1  0
  5 22  1  0
  7 23  1  6
 12 24  1  0
 14 25  1  0
 16 26  1  0
 17 27  1  0
 18 28  1  0
 19 29  1  0
M  CHG  1   1  -1
M  END
$$$$
[H]c1c([H])c([H])c(-n2nc([H])c3c(=O)n([H])c(N4C([H])([H])C([H])([H])N(c5c([H])c([H])c([H])c([H])c5OC([H])([H])[H])C([H])([H])C4([H])[H])nc32)c([H])c1[H]
     RDKit          3D

 52 56  0  0  0  0  0  0  0  0999 V2000
   -5.8037    2.4551    1.3778 C   0  0  0  0  0  0  0  0  0  0  0  0
   -4.7986    1.5558    1.0215 O   0  0  0  0  0  0  0  0  0  0  0  0
   -4.9806    0.3290    0.4153 C   0  0  0  0  0  0  0  0  0  0  0  0
   -6.2674   -0.0710    0.1231 C   0  0  0  0  0  0  0  0  0  0  0  0
   -6.4604   -1.3092   -0.4897 C   0  0  0  0  0  0  0  0  0  0  0  0
   -5.3510   -2.0806   -0.7772 C   0  0  0  0  0  0  0  0  0  0  0  0
   -4.0848   -1.6540   -0.4739 C   0  0  0  0  0  0  0  0  0  0  0  0
   -3.8778   -0.4222    0.1372 C   0  0  0  0  0  0  0  0  0  0  0  0
   -2.5461   -0.0465    0.4243 N   0  0  0  0  0  0  0  0  0  0  0  0
   -1.9385    1.1518   -0.0894 C   0  0  0  0  0  0  0  0  0  0  0  0
   -0.4957    1.1859    0.3588 C   0  0  0  0  0  0  0  0  0  0  0  0
    0.0681   -0.1138   -0.0152 N   0  0  0  0  0  0  0  0  0  0  0  0
   -0.4450   -1.2858    0.6375 C   0  0  0  0  0  0  0  0  0  0  0  0
   -1.7790   -0.9327    1.2754 C   0  0  0  0  0  0  0  0  0  0  0  0
    1.0911   -0.1147   -1.0011 C   0  0  0  0  0  0  0  0  0  0  0  0
    2.3954   -0.0865   -0.6685 N   0  0  0  0  0  0  0  0  0  0  0  0
    3.3872   -0.0812   -1.5889 C   0  0  0  0  0  0  0  0  0  0  0  0
    4.7418   -0.0557   -1.4490 N   0  0  0  0  0  0  0  0  0  0  0  0
    5.2688   -0.0631   -2.6574 N   0  0  0  0  0  0  0  0  0  0  0  0
    4.2930   -0.0930   -3.5931 C   0  0  0  0  0  0  0  0  0  0  0  0
    3.0772   -0.1053   -2.9324 C   0  0  0  0  0  0  0  0  0  0  0  0
    1.7517   -0.1341   -3.2745 C   0  0  0  0  0  0  0  0  0  0  0  0
    1.4592   -0.1562   -4.5007 O   0  0  0  0  0  0  0  0  0  0  0  0
    0.8012   -0.1383   -2.3193 N   0  0  0  0  0  0  0  0  0  0  0  0
    5.3736   -0.0293   -0.1663 C   0  0  0  0  0  0  0  0  0  0  0  0
    6.2770   -0.9867    0.2446 C   0  0  0  0  0  0  0  0  0  0  0  0
    6.8787   -0.9462    1.4938 C   0  0  0  0  0  0  0  0  0  0  0  0
    6.5829    0.0727    2.3738 C   0  0  0  0  0  0  0  0  0  0  0  0
    5.6812    1.0318    1.9685 C   0  0  0  0  0  0  0  0  0  0  0  0
    5.0842    0.9856    0.7204 C   0  0  0  0  0  0  0  0  0  0  0  0
   -6.5364    2.4932    0.5409 H   0  0  0  0  0  0  0  0  0  0  0  0
   -5.3271    3.4671    1.4471 H   0  0  0  0  0  0  0  0  0  0  0  0
   -6.2437    2.1714    2.3361 H   0  0  0  0  0  0  0  0  0  0  0  0
   -7.1219    0.5279    0.3467 H   0  0  0  0  0  0  0  0  0  0  0  0
   -7.4551   -1.6651   -0.7380 H   0  0  0  0  0  0  0  0  0  0  0  0
   -5.5018   -3.0487   -1.2562 H   0  0  0  0  0  0  0  0  0  0  0  0
   -3.2567   -2.3018   -0.7230 H   0  0  0  0  0  0  0  0  0  0  0  0
   -2.4140    2.0769    0.2872 H   0  0  0  0  0  0  0  0  0  0  0  0
   -2.0371    1.1211   -1.1919 H   0  0  0  0  0  0  0  0  0  0  0  0
   -0.5006    1.2314    1.4691 H   0  0  0  0  0  0  0  0  0  0  0  0
    0.0670    2.0215   -0.0941 H   0  0  0  0  0  0  0  0  0  0  0  0
   -0.5901   -2.1507   -0.0329 H   0  0  0  0  0  0  0  0  0  0  0  0
    0.2505   -1.5228    1.4764 H   0  0  0  0  0  0  0  0  0  0  0  0
   -2.3338   -1.8178    1.5898 H   0  0  0  0  0  0  0  0  0  0  0  0
   -1.5385   -0.3632    2.2012 H   0  0  0  0  0  0  0  0  0  0  0  0
    4.3795   -0.1060   -4.6719 H   0  0  0  0  0  0  0  0  0  0  0  0
   -0.2122   -0.1604   -2.6269 H   0  0  0  0  0  0  0  0  0  0  0  0
    6.4986   -1.7875   -0.4692 H   0  0  0  0  0  0  0  0  0  0  0  0
    7.5900   -1.7229    1.7862 H   0  0  0  0  0  0  0  0  0  0  0  0
    7.0604    0.0929    3.3474 H   0  0  0  0  0  0  0  0  0  0  0  0
    5.4607    1.8316    2.6824 H   0  0  0  0  0  0  0  0  0  0  0  0
    4.3785    1.7505    0.4231 H   0  0  0  0  0  0  0  0  0  0  0  0
  1  2  1  0
  2  3  1  0
  3  4  2  0
  4  5  1  0
  5  6  2  0
  6  7  1  0
  7  8  2  0
  8  9  1  0
  9 10  1  0
 10 11  1  0
 11 12  1  0
 12 13  1  0
 13 14  1  0
 12 15  1  0
 15 16  2  0
 16 17  1  0
 17 18  1  0
 18 19  1  0
 19 20  2  0
 20 21  1  0
 21 22  1  0
 22 23  2  0
 22 24  1  0
 18 25  1  0
 25 26  2  0
 26 27  1  0
 27 28  2  0
 28 29  1  0
 29 30  2  0
  8  3  1  0
 14  9  1  0
 24 15  1  0
 30 25  1  0
 21 17  2  0
  1 31  1  0
  1 32  1  0
  1 33  1  0
  4 34  1  0
  5 35  1  0
  6 36  1  0
  7 37  1  0
 10 38  1  0
 10 39  1  0
 11 40  1  0
 11 41  1  0
 13 42  1  0
 13 43  1  0
 14 44  1  0
 14 45  1  0
 20 46  1  0
 24 47  1  0
 26 48  1  0
 27 49  1  0
 28 50  1  0
 29 51  1  0
 30 52  1  0
M  END
$$$$
[H]c1c([H])c([H])c(S(=O)(=O)[C@@]2([H])C([H])([H])N(C(=O)C3(c4c([H])c([H])c(Cl)c([H])c4[H])C([H])([H])C3([H])[H])[C@]([H])(C(=O)N([H])[C@]([H])(C(=O)C(=O)N([H])C3([H])C([H])([H])C3([H])[H])C([H])([H])C([H])([H])C([H])([H])C([H])([H])[H])C2([H])[H])c(Cl)c1[H]
     RDKit          3D

 78 82  0  0  0  0  0  0  0  0999 V2000
    6.5986    0.8530   -3.7946 C   0  0  0  0  0  0  0  0  0  0  0  0
    5.6669    0.6438   -2.5922 C   0  0  0  0  0  0  0  0  0  0  0  0
    4.3595    1.2624   -2.8795 C   0  0  0  0  0  0  0  0  0  0  0  0
    3.2564    1.2498   -1.9081 C   0  0  0  0  0  0  0  0  0  0  0  0
    2.8011   -0.0480   -1.3815 C   0  0  2  0  0  0  0  0  0  0  0  0
    1.5714    0.2503   -0.6063 N   0  0  0  0  0  0  0  0  0  0  0  0
    0.3678   -0.3774   -1.0087 C   0  0  0  0  0  0  0  0  0  0  0  0
    0.4506   -1.2375   -1.9477 O   0  0  0  0  0  0  0  0  0  0  0  0
   -0.8442   -0.0126   -0.3756 C   0  0  2  0  0  0  0  0  0  0  0  0
   -0.7306    0.9144    0.7988 C   0  0  0  0  0  0  0  0  0  0  0  0
   -2.2882    1.2809    0.9450 C   0  0  2  0  0  0  0  0  0  0  0  0
   -2.9379    0.0398    0.4185 C   0  0  0  0  0  0  0  0  0  0  0  0
   -1.8081   -0.9333    0.1655 N   0  0  0  0  0  0  0  0  0  0  0  0
   -1.7369   -2.2345    0.5795 C   0  0  0  0  0  0  0  0  0  0  0  0
   -0.5385   -2.7944    0.7180 O   0  0  0  0  0  0  0  0  0  0  0  0
   -2.8097   -3.1735    0.9245 C   0  0  0  0  0  0  0  0  0  0  0  0
   -3.3270   -2.9840    2.3533 C   0  0  0  0  0  0  0  0  0  0  0  0
   -2.5047   -4.1749    2.0382 C   0  0  0  0  0  0  0  0  0  0  0  0
   -3.8657   -3.4829   -0.0745 C   0  0  0  0  0  0  0  0  0  0  0  0
   -4.7614   -4.4903    0.2120 C   0  0  0  0  0  0  0  0  0  0  0  0
   -5.7122   -4.8817   -0.7348 C   0  0  0  0  0  0  0  0  0  0  0  0
   -5.7777   -4.2762   -1.9669 C   0  0  0  0  0  0  0  0  0  0  0  0
   -6.9911   -4.8240   -3.1070 Cl  0  0  0  0  0  0  0  0  0  0  0  0
   -4.9045   -3.2861   -2.2586 C   0  0  0  0  0  0  0  0  0  0  0  0
   -3.9582   -2.9074   -1.2960 C   0  0  0  0  0  0  0  0  0  0  0  0
   -2.4501    2.7398    0.0554 S   0  0  0  0  0  0  0  0  0  0  0  0
   -2.8002    2.3475   -1.3947 O   0  0  0  0  0  0  0  0  0  0  0  0
   -1.1355    3.4750   -0.0815 O   0  0  0  0  0  0  0  0  0  0  0  0
   -3.6531    3.8810    0.5125 C   0  0  0  0  0  0  0  0  0  0  0  0
   -4.5620    4.3501   -0.4221 C   0  0  0  0  0  0  0  0  0  0  0  0
   -5.5054    5.3242   -0.1380 C   0  0  0  0  0  0  0  0  0  0  0  0
   -5.5652    5.8675    1.1190 C   0  0  0  0  0  0  0  0  0  0  0  0
   -4.6496    5.3923    2.0569 C   0  0  0  0  0  0  0  0  0  0  0  0
   -3.7213    4.4353    1.7844 C   0  0  0  0  0  0  0  0  0  0  0  0
   -2.5740    3.8709    2.9886 Cl  0  0  0  0  0  0  0  0  0  0  0  0
    3.6659   -0.7971   -0.4699 C   0  0  0  0  0  0  0  0  0  0  0  0
    3.8633   -2.0492   -0.6865 O   0  0  0  0  0  0  0  0  0  0  0  0
    4.3119   -0.2330    0.6808 C   0  0  0  0  0  0  0  0  0  0  0  0
    4.0077    0.9617    1.0879 O   0  0  0  0  0  0  0  0  0  0  0  0
    5.2927   -0.9229    1.4259 N   0  0  0  0  0  0  0  0  0  0  0  0
    5.8335   -0.3322    2.6223 C   0  0  0  0  0  0  0  0  0  0  0  0
    6.8079   -1.2211    3.3426 C   0  0  0  0  0  0  0  0  0  0  0  0
    7.2080    0.1511    2.8172 C   0  0  0  0  0  0  0  0  0  0  0  0
    7.4754    1.3933   -3.4609 H   0  0  0  0  0  0  0  0  0  0  0  0
    6.0596    1.4863   -4.5619 H   0  0  0  0  0  0  0  0  0  0  0  0
    6.8631   -0.0924   -4.2506 H   0  0  0  0  0  0  0  0  0  0  0  0
    5.5381   -0.4841   -2.5085 H   0  0  0  0  0  0  0  0  0  0  0  0
    6.1323    0.9341   -1.6524 H   0  0  0  0  0  0  0  0  0  0  0  0
    4.5749    2.3647   -3.1205 H   0  0  0  0  0  0  0  0  0  0  0  0
    3.9650    0.8943   -3.8849 H   0  0  0  0  0  0  0  0  0  0  0  0
    2.3492    1.7011   -2.4507 H   0  0  0  0  0  0  0  0  0  0  0  0
    3.4431    2.0090   -1.1076 H   0  0  0  0  0  0  0  0  0  0  0  0
    2.4977   -0.6838   -2.2603 H   0  0  0  0  0  0  0  0  0  0  0  0
    1.6293    0.9101    0.2035 H   0  0  0  0  0  0  0  0  0  0  0  0
   -1.4855    0.5723   -1.1872 H   0  0  0  0  0  0  0  0  0  0  0  0
   -0.4172    0.4099    1.7163 H   0  0  0  0  0  0  0  0  0  0  0  0
   -0.1669    1.8007    0.5672 H   0  0  0  0  0  0  0  0  0  0  0  0
   -2.3765    1.3360    2.0521 H   0  0  0  0  0  0  0  0  0  0  0  0
   -3.3264    0.2299   -0.5820 H   0  0  0  0  0  0  0  0  0  0  0  0
   -3.6929   -0.4107    1.0639 H   0  0  0  0  0  0  0  0  0  0  0  0
   -2.8440   -2.1853    2.9701 H   0  0  0  0  0  0  0  0  0  0  0  0
   -4.4019   -3.0471    2.5254 H   0  0  0  0  0  0  0  0  0  0  0  0
   -2.9716   -5.1670    2.0245 H   0  0  0  0  0  0  0  0  0  0  0  0
   -1.4454   -4.1571    2.4218 H   0  0  0  0  0  0  0  0  0  0  0  0
   -4.7553   -4.9888    1.1573 H   0  0  0  0  0  0  0  0  0  0  0  0
   -6.4194   -5.6683   -0.5465 H   0  0  0  0  0  0  0  0  0  0  0  0
   -4.9250   -2.7773   -3.2301 H   0  0  0  0  0  0  0  0  0  0  0  0
   -3.2866   -2.1346   -1.6188 H   0  0  0  0  0  0  0  0  0  0  0  0
   -4.5967    3.9850   -1.4561 H   0  0  0  0  0  0  0  0  0  0  0  0
   -6.1885    5.6583   -0.9167 H   0  0  0  0  0  0  0  0  0  0  0  0
   -6.2936    6.6356    1.3437 H   0  0  0  0  0  0  0  0  0  0  0  0
   -4.6871    5.8087    3.0592 H   0  0  0  0  0  0  0  0  0  0  0  0
    5.6259   -1.8695    1.0713 H   0  0  0  0  0  0  0  0  0  0  0  0
    5.0394    0.2436    3.1817 H   0  0  0  0  0  0  0  0  0  0  0  0
    7.2564   -2.0862    2.8510 H   0  0  0  0  0  0  0  0  0  0  0  0
    6.6418   -1.3450    4.4441 H   0  0  0  0  0  0  0  0  0  0  0  0
    7.8902    0.1947    1.9702 H   0  0  0  0  0  0  0  0  0  0  0  0
    7.3490    0.9128    3.6502 H   0  0  0  0  0  0  0  0  0  0  0  0
  1  2  1  0
  2  3  1  0
  3  4  1  0
  4  5  1  0
  5  6  1  0
  6  7  1  0
  7  8  2  0
  7  9  1  0
  9 10  1  0
 10 11  1  0
 11 12  1  0
 12 13  1  0
 13 14  1  0
 14 15  2  0
 14 16  1  0
 16 17  1  0
 17 18  1  0
 16 19  1  0
 19 20  2  0
 20 21  1  0
 21 22  2  0
 22 23  1  0
 22 24  1  0
 24 25  2  0
 11 26  1  0
 26 27  2  0
 26 28  2  0
 26 29  1  0
 29 30  2  0
 30 31  1  0
 31 32  2  0
 32 33  1  0
 33 34  2  0
 34 35  1  0
  5 36  1  0
 36 37  2  0
 36 38  1  0
 38 39  2  0
 38 40  1  0
 40 41  1  0
 41 42  1  0
 42 43  1  0
 13  9  1  0
 18 16  1  0
 25 19  1  0
 34 29  1  0
 43 41  1  0
  1 44  1  0
  1 45  1  0
  1 46  1  0
  2 47  1  0
  2 48  1  0
  3 49  1  0
  3 50  1  0
  4 51  1  0
  4 52  1  0
  5 53  1  6
  6 54  1  0
  9 55  1  6
 10 56  1  0
 10 57  1  0
 11 58  1  1
 12 59  1  0
 12 60  1  0
 17 61  1  0
 17 62  1  0
 18 63  1  0
 18 64  1  0
 20 65  1  0
 21 66  1  0
 24 67  1  0
 25 68  1  0
 30 69  1  0
 31 70  1  0
 32 71  1  0
 33 72  1  0
 40 73  1  0
 41 74  1  0
 42 75  1  0
 42 76  1  0
 43 77  1  0
 43 78  1  0
M  END
$$$$
[H]c1c([H])c(S(=O)(=O)N([H])c2c([H])c(C(=O)N([H])[H])c([H])c(C(F)(F)F)c2[H])c([H])c(OC([H])([H])[H])c1OC([H])([H])[H]
     RDKit          3D

 42 43  0  0  0  0  0  0  0  0999 V2000
   -6.5879   -1.3349    0.2799 C   0  0  0  0  0  0  0  0  0  0  0  0
   -5.5956   -0.3263    0.2935 O   0  0  0  0  0  0  0  0  0  0  0  0
   -4.2537   -0.6194    0.1181 C   0  0  0  0  0  0  0  0  0  0  0  0
   -3.8315   -1.9015   -0.0753 C   0  0  0  0  0  0  0  0  0  0  0  0
   -2.5172   -2.2264   -0.2532 C   0  0  0  0  0  0  0  0  0  0  0  0
   -1.5389   -1.2284   -0.2509 C   0  0  0  0  0  0  0  0  0  0  0  0
   -1.9394    0.0749   -0.0554 C   0  0  0  0  0  0  0  0  0  0  0  0
   -3.2827    0.4114    0.1345 C   0  0  0  0  0  0  0  0  0  0  0  0
   -3.7027    1.6458    0.3327 O   0  0  0  0  0  0  0  0  0  0  0  0
   -3.7648    2.9237    0.4952 C   0  0  0  0  0  0  0  0  0  0  0  0
    0.1003   -1.7697   -0.4531 S   0  0  0  0  0  0  0  0  0  0  0  0
    0.6279   -1.2420   -1.7935 O   0  0  0  0  0  0  0  0  0  0  0  0
    0.1540   -3.2629   -0.5481 O   0  0  0  0  0  0  0  0  0  0  0  0
    1.1720   -1.2555    0.7916 N   0  0  0  0  0  0  0  0  0  0  0  0
    2.3394   -0.5323    0.4224 C   0  0  0  0  0  0  0  0  0  0  0  0
    2.5650    0.7706    0.7028 C   0  0  0  0  0  0  0  0  0  0  0  0
    3.7418    1.4147    0.2602 C   0  0  0  0  0  0  0  0  0  0  0  0
    4.6844    0.7330   -0.4612 C   0  0  0  0  0  0  0  0  0  0  0  0
    4.4741   -0.5926   -0.7541 C   0  0  0  0  0  0  0  0  0  0  0  0
    3.3226   -1.2118   -0.3202 C   0  0  0  0  0  0  0  0  0  0  0  0
    5.4841   -1.4099   -1.4952 C   0  0  0  0  0  0  0  0  0  0  0  0
    6.0278   -2.4020   -0.6807 F   0  0  0  0  0  0  0  0  0  0  0  0
    6.5149   -0.6124   -1.9235 F   0  0  0  0  0  0  0  0  0  0  0  0
    4.8734   -2.0868   -2.5469 F   0  0  0  0  0  0  0  0  0  0  0  0
    4.0125    2.8102    0.5400 C   0  0  0  0  0  0  0  0  0  0  0  0
    3.6520    3.3940    1.7620 N   0  0  0  0  0  0  0  0  0  0  0  0
    4.5820    3.4866   -0.3481 O   0  0  0  0  0  0  0  0  0  0  0  0
   -6.2759   -2.2230    0.8710 H   0  0  0  0  0  0  0  0  0  0  0  0
   -6.6837   -1.6484   -0.8023 H   0  0  0  0  0  0  0  0  0  0  0  0
   -7.5792   -0.9600    0.5623 H   0  0  0  0  0  0  0  0  0  0  0  0
   -4.5604   -2.7316   -0.0905 H   0  0  0  0  0  0  0  0  0  0  0  0
   -2.2345   -3.2793   -0.3942 H   0  0  0  0  0  0  0  0  0  0  0  0
   -1.1646    0.8598   -0.0473 H   0  0  0  0  0  0  0  0  0  0  0  0
   -2.7844    3.4711    0.4626 H   0  0  0  0  0  0  0  0  0  0  0  0
   -4.2948    3.2774    1.4491 H   0  0  0  0  0  0  0  0  0  0  0  0
   -4.3728    3.4785   -0.3171 H   0  0  0  0  0  0  0  0  0  0  0  0
    1.0081   -1.4496    1.7877 H   0  0  0  0  0  0  0  0  0  0  0  0
    1.8584    1.3457    1.2751 H   0  0  0  0  0  0  0  0  0  0  0  0
    5.6089    1.1673   -0.8335 H   0  0  0  0  0  0  0  0  0  0  0  0
    3.1606   -2.2540   -0.5579 H   0  0  0  0  0  0  0  0  0  0  0  0
    3.6336    2.8839    2.6717 H   0  0  0  0  0  0  0  0  0  0  0  0
    3.3672    4.4123    1.8478 H   0  0  0  0  0  0  0  0  0  0  0  0
  1  2  1  0
  2  3  1  0
  3  4  2  0
  4  5  1  0
  5  6  2  0
  6  7  1  0
  7  8  2  0
  8  9  1  0
  9 10  1  0
  6 11  1  0
 11 12  2  0
 11 13  2  0
 11 14  1  0
 14 15  1  0
 15 16  2  0
 16 17  1  0
 17 18  2  0
 18 19  1  0
 19 20  2  0
 19 21  1  0
 21 22  1  0
 21 23  1  0
 21 24  1  0
 17 25  1  0
 25 26  1  0
 25 27  2  0
  8  3  1  0
 20 15  1  0
  1 28  1  0
  1 29  1  0
  1 30  1  0
  4 31  1  0
  5 32  1  0
  7 33  1  0
 10 34  1  0
 10 35  1  0
 10 36  1  0
 14 37  1  0
 16 38  1  0
 18 39  1  0
 20 40  1  0
 26 41  1  0
 26 42  1  0
M  END
$$$$
[H]c1nc(N([H])c2c([H])c(OC([H])([H])[H])c(OC([H])([H])[H])c(OC([H])([H])[H])c2[H])nc(Oc2c([H])c([H])c(N([H])C(=O)N([H])c3c([H])c(C(C([H])([H])[H])(C([H])([H])[H])C([H])([H])[H])nn3-c3c([H])c([H])c(C([H])([H])[H])c([H])c3[H])c3c([H])c([H])c([H])c([H])c23)c1[H]
     RDKit          3D

 89 94  0  0  0  0  0  0  0  0999 V2000
   10.0273    1.7745    3.1507 C   0  0  0  0  0  0  0  0  0  0  0  0
   10.6573    0.7351    2.4404 O   0  0  0  0  0  0  0  0  0  0  0  0
   10.0078    0.1484    1.3741 C   0  0  0  0  0  0  0  0  0  0  0  0
    8.7410    0.5648    0.9850 C   0  0  0  0  0  0  0  0  0  0  0  0
    8.1069   -0.0233   -0.0723 C   0  0  0  0  0  0  0  0  0  0  0  0
    6.8288    0.2786   -0.5532 N   0  0  0  0  0  0  0  0  0  0  0  0
    5.7967    0.9400    0.1080 C   0  0  0  0  0  0  0  0  0  0  0  0
    5.9027    1.3830    1.3568 N   0  0  0  0  0  0  0  0  0  0  0  0
    4.8549    2.0186    1.9356 C   0  0  0  0  0  0  0  0  0  0  0  0
    3.6748    2.2238    1.2695 C   0  0  0  0  0  0  0  0  0  0  0  0
    3.5521    1.7496   -0.0766 C   0  0  0  0  0  0  0  0  0  0  0  0
    2.3914    1.9571   -0.7165 O   0  0  0  0  0  0  0  0  0  0  0  0
    1.2160    1.3281   -0.6998 C   0  0  0  0  0  0  0  0  0  0  0  0
    0.1533    2.0635   -0.1358 C   0  0  0  0  0  0  0  0  0  0  0  0
   -1.1300    1.5561   -0.0401 C   0  0  0  0  0  0  0  0  0  0  0  0
   -1.4471    0.3066   -0.4886 C   0  0  0  0  0  0  0  0  0  0  0  0
   -2.7209   -0.2597   -0.3523 N   0  0  0  0  0  0  0  0  0  0  0  0
   -3.9036    0.4669   -0.0703 C   0  0  0  0  0  0  0  0  0  0  0  0
   -3.8925    1.6906    0.0689 O   0  0  0  0  0  0  0  0  0  0  0  0
   -5.1494   -0.2056    0.0591 N   0  0  0  0  0  0  0  0  0  0  0  0
   -6.3614    0.4412    0.3250 C   0  0  0  0  0  0  0  0  0  0  0  0
   -6.6099    1.7792    0.5126 C   0  0  0  0  0  0  0  0  0  0  0  0
   -7.9743    1.9226    0.7454 C   0  0  0  0  0  0  0  0  0  0  0  0
   -8.4914    0.7086    0.6938 N   0  0  0  0  0  0  0  0  0  0  0  0
   -7.5793   -0.2009    0.4481 N   0  0  0  0  0  0  0  0  0  0  0  0
   -7.7714   -1.6015    0.3216 C   0  0  0  0  0  0  0  0  0  0  0  0
   -7.5344   -2.1527   -0.9337 C   0  0  0  0  0  0  0  0  0  0  0  0
   -7.7156   -3.5110   -1.0638 C   0  0  0  0  0  0  0  0  0  0  0  0
   -8.1110   -4.2801   -0.0004 C   0  0  0  0  0  0  0  0  0  0  0  0
   -8.2972   -5.7532   -0.1726 C   0  0  0  0  0  0  0  0  0  0  0  0
   -8.3520   -3.7561    1.2574 C   0  0  0  0  0  0  0  0  0  0  0  0
   -8.1736   -2.3960    1.3962 C   0  0  0  0  0  0  0  0  0  0  0  0
   -8.6603    3.2354    1.0010 C   0  0  0  0  0  0  0  0  0  0  0  0
   -8.7435    3.4436    2.4876 C   0  0  0  0  0  0  0  0  0  0  0  0
  -10.0370    3.2400    0.4233 C   0  0  0  0  0  0  0  0  0  0  0  0
   -7.8755    4.3715    0.3557 C   0  0  0  0  0  0  0  0  0  0  0  0
   -0.3993   -0.4362   -1.0543 C   0  0  0  0  0  0  0  0  0  0  0  0
   -0.7106   -1.6819   -1.5382 C   0  0  0  0  0  0  0  0  0  0  0  0
    0.3226   -2.4173   -2.1344 C   0  0  0  0  0  0  0  0  0  0  0  0
    1.5920   -1.9492   -2.2483 C   0  0  0  0  0  0  0  0  0  0  0  0
    1.8836   -0.7004   -1.7586 C   0  0  0  0  0  0  0  0  0  0  0  0
    0.9093    0.0831   -1.1520 C   0  0  0  0  0  0  0  0  0  0  0  0
    4.6278    1.1549   -0.5210 N   0  0  0  0  0  0  0  0  0  0  0  0
    8.7888   -1.0588   -0.7422 C   0  0  0  0  0  0  0  0  0  0  0  0
   10.0256   -1.4411   -0.3359 C   0  0  0  0  0  0  0  0  0  0  0  0
   10.6720   -2.4801   -1.0308 O   0  0  0  0  0  0  0  0  0  0  0  0
   10.0680   -3.1131   -2.1169 C   0  0  0  0  0  0  0  0  0  0  0  0
   10.6793   -0.8614    0.7258 C   0  0  0  0  0  0  0  0  0  0  0  0
   11.9368   -1.3244    1.0600 O   0  0  0  0  0  0  0  0  0  0  0  0
   13.0314   -0.6655    0.3993 C   0  0  0  0  0  0  0  0  0  0  0  0
    9.2536    1.2977    3.8012 H   0  0  0  0  0  0  0  0  0  0  0  0
   10.7951    2.2612    3.8035 H   0  0  0  0  0  0  0  0  0  0  0  0
    9.5901    2.5693    2.5029 H   0  0  0  0  0  0  0  0  0  0  0  0
    8.2813    1.3666    1.5253 H   0  0  0  0  0  0  0  0  0  0  0  0
    6.6065   -0.0254   -1.5604 H   0  0  0  0  0  0  0  0  0  0  0  0
    5.0138    2.3507    2.9663 H   0  0  0  0  0  0  0  0  0  0  0  0
    2.8463    2.7247    1.7229 H   0  0  0  0  0  0  0  0  0  0  0  0
    0.3877    3.0558    0.2245 H   0  0  0  0  0  0  0  0  0  0  0  0
   -1.8663    2.2097    0.4345 H   0  0  0  0  0  0  0  0  0  0  0  0
   -2.8567   -1.3215   -0.4355 H   0  0  0  0  0  0  0  0  0  0  0  0
   -5.1521   -1.2593   -0.0608 H   0  0  0  0  0  0  0  0  0  0  0  0
   -5.9341    2.6385    0.4983 H   0  0  0  0  0  0  0  0  0  0  0  0
   -7.2238   -1.5518   -1.7737 H   0  0  0  0  0  0  0  0  0  0  0  0
   -7.5264   -3.9472   -2.0581 H   0  0  0  0  0  0  0  0  0  0  0  0
   -7.4772   -6.1336   -0.8247 H   0  0  0  0  0  0  0  0  0  0  0  0
   -8.2992   -6.2731    0.8140 H   0  0  0  0  0  0  0  0  0  0  0  0
   -9.2622   -5.9691   -0.7022 H   0  0  0  0  0  0  0  0  0  0  0  0
   -8.6626   -4.3774    2.0850 H   0  0  0  0  0  0  0  0  0  0  0  0
   -8.3533   -1.9375    2.3696 H   0  0  0  0  0  0  0  0  0  0  0  0
   -8.9294    2.4538    2.9600 H   0  0  0  0  0  0  0  0  0  0  0  0
   -7.7376    3.7742    2.8790 H   0  0  0  0  0  0  0  0  0  0  0  0
   -9.5061    4.1720    2.7965 H   0  0  0  0  0  0  0  0  0  0  0  0
  -10.5038    4.2297    0.6231 H   0  0  0  0  0  0  0  0  0  0  0  0
  -10.0648    3.0803   -0.6709 H   0  0  0  0  0  0  0  0  0  0  0  0
  -10.6829    2.5022    0.9721 H   0  0  0  0  0  0  0  0  0  0  0  0
   -7.3113    4.8728    1.1607 H   0  0  0  0  0  0  0  0  0  0  0  0
   -8.5726    5.1079   -0.1189 H   0  0  0  0  0  0  0  0  0  0  0  0
   -7.1553    4.0333   -0.3928 H   0  0  0  0  0  0  0  0  0  0  0  0
   -1.6889   -2.1234   -1.4989 H   0  0  0  0  0  0  0  0  0  0  0  0
    0.0766   -3.4124   -2.5255 H   0  0  0  0  0  0  0  0  0  0  0  0
    2.3921   -2.5174   -2.7100 H   0  0  0  0  0  0  0  0  0  0  0  0
    2.8444   -0.2681   -1.8489 H   0  0  0  0  0  0  0  0  0  0  0  0
    8.3210   -1.5613   -1.5973 H   0  0  0  0  0  0  0  0  0  0  0  0
    9.7038   -2.3899   -2.8897 H   0  0  0  0  0  0  0  0  0  0  0  0
   10.8179   -3.7894   -2.5989 H   0  0  0  0  0  0  0  0  0  0  0  0
    9.1668   -3.6967   -1.7984 H   0  0  0  0  0  0  0  0  0  0  0  0
   13.1976    0.3159    0.8879 H   0  0  0  0  0  0  0  0  0  0  0  0
   13.9154   -1.3285    0.3969 H   0  0  0  0  0  0  0  0  0  0  0  0
   12.7493   -0.4288   -0.6668 H   0  0  0  0  0  0  0  0  0  0  0  0
  1  2  1  0
  2  3  1  0
  3  4  2  0
  4  5  1  0
  5  6  1  0
  6  7  1  0
  7  8  2  0
  8  9  1  0
  9 10  2  0
 10 11  1  0
 11 12  1  0
 12 13  1  0
 13 14  2  0
 14 15  1  0
 15 16  2  0
 16 17  1  0
 17 18  1  0
 18 19  2  0
 18 20  1  0
 20 21  1  0
 21 22  2  0
 22 23  1  0
 23 24  2  0
 24 25  1  0
 25 26  1  0
 26 27  2  0
 27 28  1  0
 28 29  2  0
 29 30  1  0
 29 31  1  0
 31 32  2  0
 23 33  1  0
 33 34  1  0
 33 35  1  0
 33 36  1  0
 16 37  1  0
 37 38  2  0
 38 39  1  0
 39 40  2  0
 40 41  1  0
 41 42  2  0
 11 43  2  0
  5 44  2  0
 44 45  1  0
 45 46  1  0
 46 47  1  0
 45 48  2  0
 48 49  1  0
 49 50  1  0
 48  3  1  0
 43  7  1  0
 42 13  1  0
 25 21  1  0
 32 26  1  0
 42 37  1  0
  1 51  1  0
  1 52  1  0
  1 53  1  0
  4 54  1  0
  6 55  1  0
  9 56  1  0
 10 57  1  0
 14 58  1  0
 15 59  1  0
 17 60  1  0
 20 61  1  0
 22 62  1  0
 27 63  1  0
 28 64  1  0
 30 65  1  0
 30 66  1  0
 30 67  1  0
 31 68  1  0
 32 69  1  0
 34 70  1  0
 34 71  1  0
 34 72  1  0
 35 73  1  0
 35 74  1  0
 35 75  1  0
 36 76  1  0
 36 77  1  0
 36 78  1  0
 38 79  1  0
 39 80  1  0
 40 81  1  0
 41 82  1  0
 44 83  1  0
 47 84  1  0
 47 85  1  0
 47 86  1  0
 50 87  1  0
 50 88  1  0
 50 89  1  0
M  END
$$$$
[H]O[C@@]1([H])C([H])([H])C([H])([H])[C@]2([H])[C@]1(C([H])([H])[H])C([H])([H])C([H])([H])[C@]1([H])[C@]3([H])C(=C([H])C(=O)C([H])([H])C3([H])[H])C([H])([H])C([H])([H])[C@@]21[H]
     RDKit          3D

 46 49  0  0  0  0  0  0  0  0999 V2000
    2.5880    1.2762    1.0752 C   0  0  0  0  0  0  0  0  0  0  0  0
    2.1587    0.6304   -0.2204 C   0  0  2  0  0  0  0  0  0  0  0  0
    1.3387    1.5512   -1.0337 C   0  0  0  0  0  0  0  0  0  0  0  0
   -0.1184    1.5810   -0.6680 C   0  0  0  0  0  0  0  0  0  0  0  0
   -0.7031    0.2581   -0.3304 C   0  0  1  0  0  0  0  0  0  0  0  0
    0.1291   -0.5428    0.6522 C   0  0  1  0  0  0  0  0  0  0  0  0
   -0.5042   -1.9278    0.7543 C   0  0  0  0  0  0  0  0  0  0  0  0
   -1.8820   -1.8018    1.3575 C   0  0  0  0  0  0  0  0  0  0  0  0
   -2.6554   -0.8548    0.5090 C   0  0  0  0  0  0  0  0  0  0  0  0
   -3.8048   -1.2509    0.0219 C   0  0  0  0  0  0  0  0  0  0  0  0
   -4.5670   -0.3302   -0.8086 C   0  0  0  0  0  0  0  0  0  0  0  0
   -5.3146   -0.7324   -1.7321 O   0  0  0  0  0  0  0  0  0  0  0  0
   -4.3996    1.1327   -0.4870 C   0  0  0  0  0  0  0  0  0  0  0  0
   -2.9090    1.3786   -0.5748 C   0  0  0  0  0  0  0  0  0  0  0  0
   -2.0819    0.4757    0.2649 C   0  0  2  0  0  0  0  0  0  0  0  0
    1.4576   -0.6969    0.0229 C   0  0  2  0  0  0  0  0  0  0  0  0
    2.4889   -1.4464    0.7544 C   0  0  0  0  0  0  0  0  0  0  0  0
    3.7752   -1.0421    0.0304 C   0  0  0  0  0  0  0  0  0  0  0  0
    3.3834    0.0904   -0.9032 C   0  0  2  0  0  0  0  0  0  0  0  0
    4.3842    1.0233   -1.0611 O   0  0  0  0  0  0  0  0  0  0  0  0
    1.7533    1.5417    1.7252 H   0  0  0  0  0  0  0  0  0  0  0  0
    3.3099    0.6562    1.6377 H   0  0  0  0  0  0  0  0  0  0  0  0
    3.1188    2.2116    0.8043 H   0  0  0  0  0  0  0  0  0  0  0  0
    1.5075    1.3525   -2.1108 H   0  0  0  0  0  0  0  0  0  0  0  0
    1.7251    2.5975   -0.8609 H   0  0  0  0  0  0  0  0  0  0  0  0
   -0.6666    1.9869   -1.5431 H   0  0  0  0  0  0  0  0  0  0  0  0
   -0.3307    2.2818    0.1724 H   0  0  0  0  0  0  0  0  0  0  0  0
   -0.8249   -0.3869   -1.2413 H   0  0  0  0  0  0  0  0  0  0  0  0
    0.1373   -0.0373    1.6237 H   0  0  0  0  0  0  0  0  0  0  0  0
    0.1313   -2.5986    1.3572 H   0  0  0  0  0  0  0  0  0  0  0  0
   -0.5978   -2.3391   -0.2647 H   0  0  0  0  0  0  0  0  0  0  0  0
   -1.7768   -1.3733    2.3760 H   0  0  0  0  0  0  0  0  0  0  0  0
   -2.3520   -2.8012    1.3954 H   0  0  0  0  0  0  0  0  0  0  0  0
   -4.2151   -2.2452    0.2128 H   0  0  0  0  0  0  0  0  0  0  0  0
   -4.7838    1.3660    0.5088 H   0  0  0  0  0  0  0  0  0  0  0  0
   -4.8690    1.7374   -1.3036 H   0  0  0  0  0  0  0  0  0  0  0  0
   -2.6526    1.3319   -1.6626 H   0  0  0  0  0  0  0  0  0  0  0  0
   -2.7481    2.4303   -0.2383 H   0  0  0  0  0  0  0  0  0  0  0  0
   -1.8775    0.9284    1.2820 H   0  0  0  0  0  0  0  0  0  0  0  0
    1.3205   -1.1557   -0.9844 H   0  0  0  0  0  0  0  0  0  0  0  0
    2.3542   -2.5565    0.6387 H   0  0  0  0  0  0  0  0  0  0  0  0
    2.5607   -1.2582    1.8278 H   0  0  0  0  0  0  0  0  0  0  0  0
    4.1627   -1.9060   -0.5603 H   0  0  0  0  0  0  0  0  0  0  0  0
    4.5680   -0.7488    0.7277 H   0  0  0  0  0  0  0  0  0  0  0  0
    3.0575   -0.3791   -1.8531 H   0  0  0  0  0  0  0  0  0  0  0  0
    5.2241    0.5921   -1.2901 H   0  0  0  0  0  0  0  0  0  0  0  0
  2  1  1  1
  2  3  1  0
  3  4  1  0
  4  5  1  0
  5  6  1  0
  6  7  1  0
  7  8  1  0
  8  9  1  0
  9 10  2  0
 10 11  1  0
 11 12  2  0
 11 13  1  0
 13 14  1  0
 14 15  1  0
  6 16  1  0
 16 17  1  0
 17 18  1  0
 18 19  1  0
 19 20  1  0
 16  2  1  0
 19  2  1  0
 15  5  1  0
 15  9  1  0
  1 21  1  0
  1 22  1  0
  1 23  1  0
  3 24  1  0
  3 25  1  0
  4 26  1  0
  4 27  1  0
  5 28  1  6
  6 29  1  1
  7 30  1  0
  7 31  1  0
  8 32  1  0
  8 33  1  0
 10 34  1  0
 13 35  1  0
 13 36  1  0
 14 37  1  0
 14 38  1  0
 15 39  1  1
 16 40  1  6
 17 41  1  0
 17 42  1  0
 18 43  1  0
 18 44  1  0
 19 45  1  6
 20 46  1  0
M  END
$$$$
[H]Oc1c([H])c(O[H])c(C([H])(C([H])([H])[H])C([H])([H])[H])c([H])c1-c1c([H])c(C([H])(C([H])([H])[H])C([H])([H])[H])c(O[H])c([H])c1O[H]
     RDKit          3D

 44 45  0  0  0  0  0  0  0  0999 V2000
   -4.0150    1.4967    0.4084 C   0  0  0  0  0  0  0  0  0  0  0  0
   -4.2926   -0.0145    0.2045 C   0  0  0  0  0  0  0  0  0  0  0  0
   -4.7068   -0.4749    1.5938 C   0  0  0  0  0  0  0  0  0  0  0  0
   -3.0533   -0.6444   -0.2657 C   0  0  0  0  0  0  0  0  0  0  0  0
   -1.8179   -0.1713    0.0536 C   0  0  0  0  0  0  0  0  0  0  0  0
   -0.6167   -0.7680   -0.3622 C   0  0  0  0  0  0  0  0  0  0  0  0
    0.6420   -0.2227    0.1626 C   0  0  0  0  0  0  0  0  0  0  0  0
    1.7238    0.1475   -0.5899 C   0  0  0  0  0  0  0  0  0  0  0  0
    2.8868    0.6671    0.0031 C   0  0  0  0  0  0  0  0  0  0  0  0
    3.9347    1.1952   -0.8317 C   0  0  0  0  0  0  0  0  0  0  0  0
    4.3633    0.1515   -1.8766 C   0  0  0  0  0  0  0  0  0  0  0  0
    5.0613    1.9392   -0.2440 C   0  0  0  0  0  0  0  0  0  0  0  0
    2.8537    0.7662    1.3653 C   0  0  0  0  0  0  0  0  0  0  0  0
    3.9636    1.2546    1.9827 O   0  0  0  0  0  0  0  0  0  0  0  0
    1.7602    0.3867    2.1196 C   0  0  0  0  0  0  0  0  0  0  0  0
    0.6255   -0.1125    1.5682 C   0  0  0  0  0  0  0  0  0  0  0  0
   -0.4609   -0.4968    2.3041 O   0  0  0  0  0  0  0  0  0  0  0  0
   -0.6426   -1.9024   -1.1464 C   0  0  0  0  0  0  0  0  0  0  0  0
    0.5769   -2.4074   -1.5030 O   0  0  0  0  0  0  0  0  0  0  0  0
   -1.8756   -2.4221   -1.4978 C   0  0  0  0  0  0  0  0  0  0  0  0
   -3.0578   -1.8144   -1.0665 C   0  0  0  0  0  0  0  0  0  0  0  0
   -4.2547   -2.3583   -1.4375 O   0  0  0  0  0  0  0  0  0  0  0  0
   -4.9268    2.0545    0.1300 H   0  0  0  0  0  0  0  0  0  0  0  0
   -3.6498    1.6522    1.4241 H   0  0  0  0  0  0  0  0  0  0  0  0
   -3.1882    1.7547   -0.3190 H   0  0  0  0  0  0  0  0  0  0  0  0
   -5.1533   -0.0884   -0.4582 H   0  0  0  0  0  0  0  0  0  0  0  0
   -4.6461   -1.5299    1.7899 H   0  0  0  0  0  0  0  0  0  0  0  0
   -4.0840    0.1445    2.3212 H   0  0  0  0  0  0  0  0  0  0  0  0
   -5.7475   -0.0272    1.7463 H   0  0  0  0  0  0  0  0  0  0  0  0
   -1.7560    0.7365    0.6619 H   0  0  0  0  0  0  0  0  0  0  0  0
    1.6985    0.0356   -1.6486 H   0  0  0  0  0  0  0  0  0  0  0  0
    3.3802    1.9973   -1.5026 H   0  0  0  0  0  0  0  0  0  0  0  0
    5.2986   -0.2789   -1.4088 H   0  0  0  0  0  0  0  0  0  0  0  0
    3.5642   -0.6502   -1.8559 H   0  0  0  0  0  0  0  0  0  0  0  0
    4.5490    0.6144   -2.8239 H   0  0  0  0  0  0  0  0  0  0  0  0
    5.8318    1.3759    0.3060 H   0  0  0  0  0  0  0  0  0  0  0  0
    5.6398    2.4040   -1.1133 H   0  0  0  0  0  0  0  0  0  0  0  0
    4.7181    2.8637    0.3087 H   0  0  0  0  0  0  0  0  0  0  0  0
    4.0241    1.2773    3.0184 H   0  0  0  0  0  0  0  0  0  0  0  0
    1.7700    0.4868    3.2330 H   0  0  0  0  0  0  0  0  0  0  0  0
   -0.5023   -0.4932    3.3331 H   0  0  0  0  0  0  0  0  0  0  0  0
    0.6154   -3.2153   -2.1529 H   0  0  0  0  0  0  0  0  0  0  0  0
   -1.8854   -3.3348   -2.1093 H   0  0  0  0  0  0  0  0  0  0  0  0
   -5.1481   -1.9745   -1.1877 H   0  0  0  0  0  0  0  0  0  0  0  0
  1  2  1  0
  2  3  1  0
  2  4  1  0
  4  5  2  0
  5  6  1  0
  6  7  1  0
  7  8  2  0
  8  9  1  0
  9 10  1  0
 10 11  1  0
 10 12  1  0
  9 13  2  0
 13 14  1  0
 13 15  1  0
 15 16  2  0
 16 17  1  0
  6 18  2  0
 18 19  1  0
 18 20  1  0
 20 21  2  0
 21 22  1  0
 21  4  1  0
 16  7  1  0
  1 23  1  0
  1 24  1  0
  1 25  1  0
  2 26  1  0
  3 27  1  0
  3 28  1  0
  3 29  1  0
  5 30  1  0
  8 31  1  0
 10 32  1  0
 11 33  1  0
 11 34  1  0
 11 35  1  0
 12 36  1  0
 12 37  1  0
 12 38  1  0
 14 39  1  0
 15 40  1  0
 17 41  1  0
 19 42  1  0
 20 43  1  0
 22 44  1  0
M  END
$$$$
[H]c1c([H])c(S(=O)(=O)N([H])c2c([H])c(C(F)(F)F)c([H])c(C([H])(C([H])([H])[H])C([H])([H])[H])c2[H])c([H])c([H])c1OC([H])([H])[H]
     RDKit          3D

 43 44  0  0  0  0  0  0  0  0999 V2000
    7.3378    0.0672   -1.5845 C   0  0  0  0  0  0  0  0  0  0  0  0
    6.4160   -0.7728   -0.9691 O   0  0  0  0  0  0  0  0  0  0  0  0
    5.2384   -0.4067   -0.3574 C   0  0  0  0  0  0  0  0  0  0  0  0
    4.7761    0.8930   -0.2470 C   0  0  0  0  0  0  0  0  0  0  0  0
    3.5788    1.1374    0.3888 C   0  0  0  0  0  0  0  0  0  0  0  0
    2.7959    0.1322    0.9350 C   0  0  0  0  0  0  0  0  0  0  0  0
    3.2421   -1.1452    0.8289 C   0  0  0  0  0  0  0  0  0  0  0  0
    4.4591   -1.4397    0.1879 C   0  0  0  0  0  0  0  0  0  0  0  0
    1.2880    0.5358    1.7444 S   0  0  0  0  0  0  0  0  0  0  0  0
    1.5858    1.7454    2.6069 O   0  0  0  0  0  0  0  0  0  0  0  0
    0.8402   -0.6134    2.5936 O   0  0  0  0  0  0  0  0  0  0  0  0
    0.1438    0.9817    0.5674 N   0  0  0  0  0  0  0  0  0  0  0  0
   -1.0259    0.3016    0.2126 C   0  0  0  0  0  0  0  0  0  0  0  0
   -2.2346    0.9973    0.0062 C   0  0  0  0  0  0  0  0  0  0  0  0
   -3.3850    0.3405   -0.3679 C   0  0  0  0  0  0  0  0  0  0  0  0
   -3.3860   -1.0153   -0.5512 C   0  0  0  0  0  0  0  0  0  0  0  0
   -2.2035   -1.7446   -0.3555 C   0  0  0  0  0  0  0  0  0  0  0  0
   -1.0590   -1.0663    0.0203 C   0  0  0  0  0  0  0  0  0  0  0  0
   -2.2350   -3.1980   -0.5708 C   0  0  0  0  0  0  0  0  0  0  0  0
   -1.0706   -3.7319   -0.0600 F   0  0  0  0  0  0  0  0  0  0  0  0
   -3.3402   -3.7751    0.0129 F   0  0  0  0  0  0  0  0  0  0  0  0
   -2.3411   -3.4423   -1.9500 F   0  0  0  0  0  0  0  0  0  0  0  0
   -4.6015    1.1453   -0.5825 C   0  0  0  0  0  0  0  0  0  0  0  0
   -4.6274    2.3063    0.3771 C   0  0  0  0  0  0  0  0  0  0  0  0
   -5.8807    0.3961   -0.6406 C   0  0  0  0  0  0  0  0  0  0  0  0
    8.3649   -0.2464   -1.2279 H   0  0  0  0  0  0  0  0  0  0  0  0
    7.3657   -0.0309   -2.7066 H   0  0  0  0  0  0  0  0  0  0  0  0
    7.1790    1.1370   -1.3152 H   0  0  0  0  0  0  0  0  0  0  0  0
    5.3700    1.7053   -0.6750 H   0  0  0  0  0  0  0  0  0  0  0  0
    3.2150    2.1494    0.4825 H   0  0  0  0  0  0  0  0  0  0  0  0
    2.6896   -1.9782    1.2240 H   0  0  0  0  0  0  0  0  0  0  0  0
    4.7853   -2.4648    0.1197 H   0  0  0  0  0  0  0  0  0  0  0  0
    0.3373    1.8824    0.0354 H   0  0  0  0  0  0  0  0  0  0  0  0
   -2.1894    2.0663    0.1697 H   0  0  0  0  0  0  0  0  0  0  0  0
   -4.3068   -1.4872   -0.8437 H   0  0  0  0  0  0  0  0  0  0  0  0
   -0.1382   -1.6261    0.1769 H   0  0  0  0  0  0  0  0  0  0  0  0
   -4.4553    1.6290   -1.6007 H   0  0  0  0  0  0  0  0  0  0  0  0
   -5.6059    2.7338    0.5688 H   0  0  0  0  0  0  0  0  0  0  0  0
   -4.1072    2.0343    1.3394 H   0  0  0  0  0  0  0  0  0  0  0  0
   -3.9933    3.1562   -0.0205 H   0  0  0  0  0  0  0  0  0  0  0  0
   -5.9164   -0.4118   -1.3715 H   0  0  0  0  0  0  0  0  0  0  0  0
   -6.7133    1.1020   -0.9445 H   0  0  0  0  0  0  0  0  0  0  0  0
   -6.1926    0.0216    0.3716 H   0  0  0  0  0  0  0  0  0  0  0  0
  1  2  1  0
  2  3  1  0
  3  4  2  0
  4  5  1  0
  5  6  2  0
  6  7  1  0
  7  8  2  0
  6  9  1  0
  9 10  2  0
  9 11  2  0
  9 12  1  0
 12 13  1  0
 13 14  2  0
 14 15  1  0
 15 16  2  0
 16 17  1  0
 17 18  2  0
 17 19  1  0
 19 20  1  0
 19 21  1  0
 19 22  1  0
 15 23  1  0
 23 24  1  0
 23 25  1  0
  8  3  1  0
 18 13  1  0
  1 26  1  0
  1 27  1  0
  1 28  1  0
  4 29  1  0
  5 30  1  0
  7 31  1  0
  8 32  1  0
 12 33  1  0
 14 34  1  0
 16 35  1  0
 18 36  1  0
 23 37  1  0
 24 38  1  0
 24 39  1  0
 24 40  1  0
 25 41  1  0
 25 42  1  0
 25 43  1  0
M  END
$$$$
[H]c1c([H])c([H])c(C([H])([H])[C@@]2([H])C(=O)N([H])[C@@]([H])([C@@]([H])(C([H])([H])[H])C([H])([H])C([H])([H])[H])C(=O)N([H])[C@@]([H])(C([H])([H])c3c([H])c([H])c([H])c([H])c3[H])C(=O)N([H])[C@]([H])(C([H])([H])C([H])([H])C([H])([H])N=C(N([H])[H])N([H])[H])C(=O)N3C([H])([H])C([H])([H])C([H])([H])[C@@]3([H])C(=O)N2[H])c([H])c1[H]
     RDKit          3D

 96 99  0  0  0  0  0  0  0  0999 V2000
   -5.9373    2.3171    3.1103 C   0  0  0  0  0  0  0  0  0  0  0  0
   -4.8198    1.5189    2.4507 C   0  0  0  0  0  0  0  0  0  0  0  0
   -3.5277    2.1074    2.9097 C   0  0  2  0  0  0  0  0  0  0  0  0
   -3.4680    3.5565    2.4902 C   0  0  0  0  0  0  0  0  0  0  0  0
   -2.3038    1.3419    2.4445 C   0  0  2  0  0  0  0  0  0  0  0  0
   -2.3176   -0.0245    2.9311 N   0  0  0  0  0  0  0  0  0  0  0  0
   -1.6308   -1.1202    2.3680 C   0  0  0  0  0  0  0  0  0  0  0  0
   -0.9613   -1.8255    3.1693 O   0  0  0  0  0  0  0  0  0  0  0  0
   -1.6163   -1.5251    0.9359 C   0  0  2  0  0  0  0  0  0  0  0  0
   -3.0749   -1.8396    0.6263 C   0  0  0  0  0  0  0  0  0  0  0  0
   -3.3626   -2.2731   -0.7233 C   0  0  0  0  0  0  0  0  0  0  0  0
   -3.6256   -1.3674   -1.7276 C   0  0  0  0  0  0  0  0  0  0  0  0
   -3.9126   -1.8072   -3.0104 C   0  0  0  0  0  0  0  0  0  0  0  0
   -3.9475   -3.1421   -3.3343 C   0  0  0  0  0  0  0  0  0  0  0  0
   -3.6836   -4.0558   -2.3278 C   0  0  0  0  0  0  0  0  0  0  0  0
   -3.3950   -3.6266   -1.0403 C   0  0  0  0  0  0  0  0  0  0  0  0
   -0.7903   -2.7123    0.8548 N   0  0  0  0  0  0  0  0  0  0  0  0
    0.3847   -2.9224    0.1317 C   0  0  0  0  0  0  0  0  0  0  0  0
    1.3887   -3.2751    0.8060 O   0  0  0  0  0  0  0  0  0  0  0  0
    0.5142   -2.7705   -1.3053 C   0  0  2  0  0  0  0  0  0  0  0  0
    1.2640   -4.0911   -1.7028 C   0  0  0  0  0  0  0  0  0  0  0  0
    1.7766   -3.8145   -3.0553 C   0  0  0  0  0  0  0  0  0  0  0  0
    1.6562   -2.3570   -3.2233 C   0  0  0  0  0  0  0  0  0  0  0  0
    1.3281   -1.7785   -1.8867 N   0  0  0  0  0  0  0  0  0  0  0  0
    1.7700   -0.5167   -1.4848 C   0  0  0  0  0  0  0  0  0  0  0  0
    1.8651    0.4323   -2.3844 O   0  0  0  0  0  0  0  0  0  0  0  0
    2.1711   -0.0485   -0.1355 C   0  0  1  0  0  0  0  0  0  0  0  0
    3.5935   -0.5004    0.2039 C   0  0  0  0  0  0  0  0  0  0  0  0
    4.6327    0.0004   -0.7381 C   0  0  0  0  0  0  0  0  0  0  0  0
    5.9703   -0.5764   -0.2519 C   0  0  0  0  0  0  0  0  0  0  0  0
    6.2545   -0.1440    1.0823 N   0  0  0  0  0  0  0  0  0  0  0  0
    6.4768   -0.9568    2.0559 C   0  0  0  0  0  0  0  0  0  0  0  0
    6.7527   -0.4948    3.3549 N   0  0  0  0  0  0  0  0  0  0  0  0
    6.4406   -2.3496    1.8003 N   0  0  0  0  0  0  0  0  0  0  0  0
    2.2436    1.3997   -0.1224 N   0  0  0  0  0  0  0  0  0  0  0  0
    1.5944    2.3227    0.6669 C   0  0  0  0  0  0  0  0  0  0  0  0
    2.3039    3.1537    1.3437 O   0  0  0  0  0  0  0  0  0  0  0  0
    0.1322    2.4944    0.8493 C   0  0  2  0  0  0  0  0  0  0  0  0
   -0.3399    3.6579    0.0128 C   0  0  0  0  0  0  0  0  0  0  0  0
   -0.0950    3.5076   -1.4353 C   0  0  0  0  0  0  0  0  0  0  0  0
   -1.0191    2.8859   -2.2302 C   0  0  0  0  0  0  0  0  0  0  0  0
   -0.7834    2.7675   -3.5775 C   0  0  0  0  0  0  0  0  0  0  0  0
    0.3670    3.2643   -4.1422 C   0  0  0  0  0  0  0  0  0  0  0  0
    1.3213    3.8994   -3.3604 C   0  0  0  0  0  0  0  0  0  0  0  0
    1.0512    3.9997   -2.0133 C   0  0  0  0  0  0  0  0  0  0  0  0
   -0.1669    2.7507    2.2707 N   0  0  0  0  0  0  0  0  0  0  0  0
   -1.1265    2.0795    3.0198 C   0  0  0  0  0  0  0  0  0  0  0  0
   -1.0500    2.0564    4.2802 O   0  0  0  0  0  0  0  0  0  0  0  0
   -6.1152    3.2795    2.5990 H   0  0  0  0  0  0  0  0  0  0  0  0
   -5.6336    2.4333    4.1738 H   0  0  0  0  0  0  0  0  0  0  0  0
   -6.8501    1.6825    3.1199 H   0  0  0  0  0  0  0  0  0  0  0  0
   -4.9587    1.6198    1.3407 H   0  0  0  0  0  0  0  0  0  0  0  0
   -4.9460    0.4704    2.7987 H   0  0  0  0  0  0  0  0  0  0  0  0
   -3.5751    2.1288    4.0371 H   0  0  0  0  0  0  0  0  0  0  0  0
   -4.2048    4.1154    3.0837 H   0  0  0  0  0  0  0  0  0  0  0  0
   -3.5733    3.6952    1.4045 H   0  0  0  0  0  0  0  0  0  0  0  0
   -2.4588    3.9211    2.8357 H   0  0  0  0  0  0  0  0  0  0  0  0
   -2.2062    1.3903    1.3518 H   0  0  0  0  0  0  0  0  0  0  0  0
   -2.9181   -0.1511    3.8115 H   0  0  0  0  0  0  0  0  0  0  0  0
   -1.2412   -0.7089    0.2830 H   0  0  0  0  0  0  0  0  0  0  0  0
   -3.6901   -0.9772    0.9310 H   0  0  0  0  0  0  0  0  0  0  0  0
   -3.3445   -2.6508    1.3655 H   0  0  0  0  0  0  0  0  0  0  0  0
   -3.5977   -0.3187   -1.4769 H   0  0  0  0  0  0  0  0  0  0  0  0
   -4.1195   -1.0929   -3.8044 H   0  0  0  0  0  0  0  0  0  0  0  0
   -4.1752   -3.4486   -4.3508 H   0  0  0  0  0  0  0  0  0  0  0  0
   -3.7163   -5.1012   -2.6055 H   0  0  0  0  0  0  0  0  0  0  0  0
   -3.1938   -4.3637   -0.2777 H   0  0  0  0  0  0  0  0  0  0  0  0
   -1.2014   -3.5007    1.4867 H   0  0  0  0  0  0  0  0  0  0  0  0
   -0.4893   -2.8484   -1.8301 H   0  0  0  0  0  0  0  0  0  0  0  0
    0.4997   -4.8648   -1.6661 H   0  0  0  0  0  0  0  0  0  0  0  0
    2.0835   -4.2271   -0.9706 H   0  0  0  0  0  0  0  0  0  0  0  0
    2.8103   -4.2113   -3.1381 H   0  0  0  0  0  0  0  0  0  0  0  0
    1.1988   -4.3244   -3.8720 H   0  0  0  0  0  0  0  0  0  0  0  0
    2.5457   -1.9627   -3.6795 H   0  0  0  0  0  0  0  0  0  0  0  0
    0.7986   -2.0877   -3.9075 H   0  0  0  0  0  0  0  0  0  0  0  0
    1.4969   -0.3950    0.6452 H   0  0  0  0  0  0  0  0  0  0  0  0
    3.5996   -1.5967    0.2728 H   0  0  0  0  0  0  0  0  0  0  0  0
    3.7830   -0.0397    1.2212 H   0  0  0  0  0  0  0  0  0  0  0  0
    4.4482   -0.2790   -1.7803 H   0  0  0  0  0  0  0  0  0  0  0  0
    4.7204    1.1160   -0.6565 H   0  0  0  0  0  0  0  0  0  0  0  0
    5.8946   -1.6828   -0.2744 H   0  0  0  0  0  0  0  0  0  0  0  0
    6.7836   -0.3032   -0.9548 H   0  0  0  0  0  0  0  0  0  0  0  0
    7.6496   -0.6663    3.8625 H   0  0  0  0  0  0  0  0  0  0  0  0
    6.0255    0.0568    3.8592 H   0  0  0  0  0  0  0  0  0  0  0  0
    7.2908   -2.9001    1.5373 H   0  0  0  0  0  0  0  0  0  0  0  0
    5.5197   -2.8479    1.8775 H   0  0  0  0  0  0  0  0  0  0  0  0
    2.9129    1.7999   -0.8549 H   0  0  0  0  0  0  0  0  0  0  0  0
   -0.3809    1.5857    0.4770 H   0  0  0  0  0  0  0  0  0  0  0  0
   -1.4380    3.8198    0.1184 H   0  0  0  0  0  0  0  0  0  0  0  0
    0.1130    4.6133    0.4108 H   0  0  0  0  0  0  0  0  0  0  0  0
   -1.9491    2.4753   -1.8297 H   0  0  0  0  0  0  0  0  0  0  0  0
   -1.5030    2.2769   -4.2261 H   0  0  0  0  0  0  0  0  0  0  0  0
    0.5577    3.1707   -5.2204 H   0  0  0  0  0  0  0  0  0  0  0  0
    2.2417    4.2966   -3.8089 H   0  0  0  0  0  0  0  0  0  0  0  0
    1.7939    4.5017   -1.3754 H   0  0  0  0  0  0  0  0  0  0  0  0
    0.4146    3.5037    2.6998 H   0  0  0  0  0  0  0  0  0  0  0  0
  1  2  1  0
  2  3  1  0
  3  4  1  0
  3  5  1  0
  5  6  1  0
  6  7  1  0
  7  8  2  0
  7  9  1  0
  9 10  1  0
 10 11  1  0
 11 12  2  0
 12 13  1  0
 13 14  2  0
 14 15  1  0
 15 16  2  0
  9 17  1  0
 17 18  1  0
 18 19  2  0
 18 20  1  0
 20 21  1  0
 21 22  1  0
 22 23  1  0
 23 24  1  0
 24 25  1  0
 25 26  2  0
 25 27  1  0
 27 28  1  0
 28 29  1  0
 29 30  1  0
 30 31  1  0
 31 32  2  3
 32 33  1  0
 32 34  1  0
 27 35  1  0
 35 36  1  0
 36 37  2  0
 36 38  1  0
 38 39  1  0
 39 40  1  0
 40 41  2  0
 41 42  1  0
 42 43  2  0
 43 44  1  0
 44 45  2  0
 38 46  1  0
 46 47  1  0
 47 48  2  0
 47  5  1  0
 16 11  1  0
 24 20  1  0
 45 40  1  0
  1 49  1  0
  1 50  1  0
  1 51  1  0
  2 52  1  0
  2 53  1  0
  3 54  1  1
  4 55  1  0
  4 56  1  0
  4 57  1  0
  5 58  1  6
  6 59  1  0
  9 60  1  6
 10 61  1  0
 10 62  1  0
 12 63  1  0
 13 64  1  0
 14 65  1  0
 15 66  1  0
 16 67  1  0
 17 68  1  0
 20 69  1  6
 21 70  1  0
 21 71  1  0
 22 72  1  0
 22 73  1  0
 23 74  1  0
 23 75  1  0
 27 76  1  1
 28 77  1  0
 28 78  1  0
 29 79  1  0
 29 80  1  0
 30 81  1  0
 30 82  1  0
 33 83  1  0
 33 84  1  0
 34 85  1  0
 34 86  1  0
 35 87  1  0
 38 88  1  6
 39 89  1  0
 39 90  1  0
 41 91  1  0
 42 92  1  0
 43 93  1  0
 44 94  1  0
 45 95  1  0
 46 96  1  0
M  END
$$$$
[H]c1c([H])c(F)c(-c2nnc3c(c2[H])[C@]2([H])C([H])([H])C([H])([H])[C@@]3(C([H])([H])N(C([H])([H])C([H])([H])[H])S(=O)(=O)c3c([H])c([H])c(F)c([H])c3[H])C2(C([H])([H])[H])C([H])([H])[H])c(F)c1[H]
     RDKit          3D

 61 65  0  0  0  0  0  0  0  0999 V2000
   -3.2870   -1.7385    1.8478 C   0  0  0  0  0  0  0  0  0  0  0  0
   -2.8758   -2.0019    0.4196 C   0  0  0  0  0  0  0  0  0  0  0  0
   -2.3744   -0.8706   -0.2697 N   0  0  0  0  0  0  0  0  0  0  0  0
   -1.1512   -0.3211    0.0856 C   0  0  0  0  0  0  0  0  0  0  0  0
    0.0521   -0.4576   -0.7211 C   0  0  1  0  0  0  0  0  0  0  0  0
    0.0614    0.0505   -2.1188 C   0  0  0  0  0  0  0  0  0  0  0  0
    1.3704   -0.5218   -2.6958 C   0  0  0  0  0  0  0  0  0  0  0  0
    1.9764   -1.2929   -1.5451 C   0  0  1  0  0  0  0  0  0  0  0  0
    2.3988   -0.3035   -0.5525 C   0  0  0  0  0  0  0  0  0  0  0  0
    3.6297    0.1157   -0.1228 C   0  0  0  0  0  0  0  0  0  0  0  0
    3.6605    1.1123    0.8539 C   0  0  0  0  0  0  0  0  0  0  0  0
    2.5051    1.5989    1.3129 N   0  0  0  0  0  0  0  0  0  0  0  0
    1.3114    1.1864    0.8908 N   0  0  0  0  0  0  0  0  0  0  0  0
    1.2388    0.2339   -0.0431 C   0  0  0  0  0  0  0  0  0  0  0  0
    4.9637    1.5523    1.3049 C   0  0  0  0  0  0  0  0  0  0  0  0
    5.5827    2.5916    0.6626 C   0  0  0  0  0  0  0  0  0  0  0  0
    4.9713    3.1917   -0.3811 F   0  0  0  0  0  0  0  0  0  0  0  0
    6.8363    3.0368    1.0739 C   0  0  0  0  0  0  0  0  0  0  0  0
    7.4396    2.4040    2.1457 C   0  0  0  0  0  0  0  0  0  0  0  0
    6.8337    1.3573    2.8047 C   0  0  0  0  0  0  0  0  0  0  0  0
    5.5914    0.9502    2.3619 C   0  0  0  0  0  0  0  0  0  0  0  0
    4.9806   -0.0835    3.0043 F   0  0  0  0  0  0  0  0  0  0  0  0
    0.6796   -1.8104   -0.8778 C   0  0  0  0  0  0  0  0  0  0  0  0
   -0.0017   -2.7466   -1.8179 C   0  0  0  0  0  0  0  0  0  0  0  0
    1.0156   -2.5019    0.4055 C   0  0  0  0  0  0  0  0  0  0  0  0
   -3.4863    0.0790   -1.0987 S   0  0  0  0  0  0  0  0  0  0  0  0
   -2.7481    1.2683   -1.6921 O   0  0  0  0  0  0  0  0  0  0  0  0
   -4.1700   -0.6005   -2.2506 O   0  0  0  0  0  0  0  0  0  0  0  0
   -4.7157    0.7947   -0.0783 C   0  0  0  0  0  0  0  0  0  0  0  0
   -5.9322    0.2010    0.1906 C   0  0  0  0  0  0  0  0  0  0  0  0
   -6.8757    0.8054    1.0077 C   0  0  0  0  0  0  0  0  0  0  0  0
   -6.6230    2.0280    1.5800 C   0  0  0  0  0  0  0  0  0  0  0  0
   -7.5740    2.6056    2.3855 F   0  0  0  0  0  0  0  0  0  0  0  0
   -5.4238    2.6377    1.3288 C   0  0  0  0  0  0  0  0  0  0  0  0
   -4.5065    2.0169    0.5154 C   0  0  0  0  0  0  0  0  0  0  0  0
   -3.5508   -0.6861    2.0436 H   0  0  0  0  0  0  0  0  0  0  0  0
   -2.5318   -2.1290    2.5686 H   0  0  0  0  0  0  0  0  0  0  0  0
   -4.2082   -2.3283    2.0374 H   0  0  0  0  0  0  0  0  0  0  0  0
   -3.7196   -2.4349   -0.1414 H   0  0  0  0  0  0  0  0  0  0  0  0
   -2.0927   -2.7758    0.4634 H   0  0  0  0  0  0  0  0  0  0  0  0
   -1.3126    0.7901    0.2612 H   0  0  0  0  0  0  0  0  0  0  0  0
   -0.9037   -0.6775    1.1355 H   0  0  0  0  0  0  0  0  0  0  0  0
    0.1251    1.1471   -2.2149 H   0  0  0  0  0  0  0  0  0  0  0  0
   -0.7278   -0.3919   -2.7626 H   0  0  0  0  0  0  0  0  0  0  0  0
    1.2170   -1.1092   -3.5980 H   0  0  0  0  0  0  0  0  0  0  0  0
    2.0812    0.2936   -2.9430 H   0  0  0  0  0  0  0  0  0  0  0  0
    2.6611   -2.0693   -1.8036 H   0  0  0  0  0  0  0  0  0  0  0  0
    4.5100   -0.3175   -0.5338 H   0  0  0  0  0  0  0  0  0  0  0  0
    7.3513    3.8498    0.5928 H   0  0  0  0  0  0  0  0  0  0  0  0
    8.4180    2.7395    2.4789 H   0  0  0  0  0  0  0  0  0  0  0  0
    7.3377    0.8779    3.6492 H   0  0  0  0  0  0  0  0  0  0  0  0
   -0.2809   -3.6677   -1.2672 H   0  0  0  0  0  0  0  0  0  0  0  0
    0.6871   -3.0351   -2.6149 H   0  0  0  0  0  0  0  0  0  0  0  0
   -0.9187   -2.3629   -2.2790 H   0  0  0  0  0  0  0  0  0  0  0  0
    0.9408   -1.7573    1.2229 H   0  0  0  0  0  0  0  0  0  0  0  0
    0.3232   -3.3577    0.5283 H   0  0  0  0  0  0  0  0  0  0  0  0
    2.0461   -2.9046    0.3101 H   0  0  0  0  0  0  0  0  0  0  0  0
   -6.1531   -0.7457   -0.2399 H   0  0  0  0  0  0  0  0  0  0  0  0
   -7.8297    0.3422    1.2199 H   0  0  0  0  0  0  0  0  0  0  0  0
   -5.2484    3.6053    1.7940 H   0  0  0  0  0  0  0  0  0  0  0  0
   -3.5743    2.5376    0.3469 H   0  0  0  0  0  0  0  0  0  0  0  0
  1  2  1  0
  2  3  1  0
  3  4  1  0
  5  4  1  1
  5  6  1  0
  6  7  1  0
  7  8  1  0
  8  9  1  0
  9 10  2  0
 10 11  1  0
 11 12  2  0
 12 13  1  0
 13 14  2  0
 11 15  1  0
 15 16  2  0
 16 17  1  0
 16 18  1  0
 18 19  2  0
 19 20  1  0
 20 21  2  0
 21 22  1  0
  8 23  1  0
 23 24  1  0
 23 25  1  0
  3 26  1  0
 26 27  2  0
 26 28  2  0
 26 29  1  0
 29 30  2  0
 30 31  1  0
 31 32  2  0
 32 33  1  0
 32 34  1  0
 34 35  2  0
 14  5  1  0
 21 15  1  0
 35 29  1  0
 23  5  1  0
 14  9  1  0
  1 36  1  0
  1 37  1  0
  1 38  1  0
  2 39  1  0
  2 40  1  0
  4 41  1  0
  4 42  1  0
  6 43  1  0
  6 44  1  0
  7 45  1  0
  7 46  1  0
  8 47  1  6
 10 48  1  0
 18 49  1  0
 19 50  1  0
 20 51  1  0
 24 52  1  0
 24 53  1  0
 24 54  1  0
 25 55  1  0
 25 56  1  0
 25 57  1  0
 30 58  1  0
 31 59  1  0
 34 60  1  0
 35 61  1  0
M  END
$$$$
[H]O[C@]1([H])C([H])([H])C([H])([H])C([H])([H])C([H])([H])[C@@]1([H])N1C([H])([H])C([H])([H])C([H])(c2c([H])n([H])c3c([H])c(F)c([H])c([H])c23)C([H])([H])C1([H])[H]
     RDKit          3D

 48 51  0  0  0  0  0  0  0  0999 V2000
   -4.2965    0.2385   -1.5692 O   0  0  0  0  0  0  0  0  0  0  0  0
   -3.6887   -0.6049   -0.6203 C   0  0  2  0  0  0  0  0  0  0  0  0
   -4.7422   -0.8661    0.4375 C   0  0  0  0  0  0  0  0  0  0  0  0
   -5.3729    0.4806    0.7519 C   0  0  0  0  0  0  0  0  0  0  0  0
   -4.2989    1.5032    0.9051 C   0  0  0  0  0  0  0  0  0  0  0  0
   -2.9171    0.9107    1.1021 C   0  0  0  0  0  0  0  0  0  0  0  0
   -2.4860    0.0905   -0.1067 C   0  0  1  0  0  0  0  0  0  0  0  0
   -1.4010   -0.7399    0.3237 N   0  0  0  0  0  0  0  0  0  0  0  0
   -0.8153   -1.5599   -0.6801 C   0  0  0  0  0  0  0  0  0  0  0  0
    0.4038   -0.9029   -1.2960 C   0  0  0  0  0  0  0  0  0  0  0  0
    1.4859   -0.9306   -0.2339 C   0  0  0  0  0  0  0  0  0  0  0  0
    0.9486   -0.3583    1.0085 C   0  0  0  0  0  0  0  0  0  0  0  0
   -0.4530    0.1328    0.9774 C   0  0  0  0  0  0  0  0  0  0  0  0
    2.6644   -0.2529   -0.8034 C   0  0  0  0  0  0  0  0  0  0  0  0
    2.7998    0.3370   -2.0477 C   0  0  0  0  0  0  0  0  0  0  0  0
    4.0290    0.8431   -2.1786 N   0  0  0  0  0  0  0  0  0  0  0  0
    4.7105    0.6019   -1.0496 C   0  0  0  0  0  0  0  0  0  0  0  0
    6.0248    0.9165   -0.6689 C   0  0  0  0  0  0  0  0  0  0  0  0
    6.4380    0.5224    0.5852 C   0  0  0  0  0  0  0  0  0  0  0  0
    7.7120    0.8368    0.9316 F   0  0  0  0  0  0  0  0  0  0  0  0
    5.5926   -0.1596    1.4442 C   0  0  0  0  0  0  0  0  0  0  0  0
    4.3028   -0.4705    1.0755 C   0  0  0  0  0  0  0  0  0  0  0  0
    3.8853   -0.0779   -0.1788 C   0  0  0  0  0  0  0  0  0  0  0  0
   -3.6954    0.9949   -1.8226 H   0  0  0  0  0  0  0  0  0  0  0  0
   -3.5097   -1.5585   -1.1355 H   0  0  0  0  0  0  0  0  0  0  0  0
   -5.5500   -1.4593   -0.0808 H   0  0  0  0  0  0  0  0  0  0  0  0
   -4.3462   -1.3754    1.3136 H   0  0  0  0  0  0  0  0  0  0  0  0
   -5.9868    0.7578   -0.1335 H   0  0  0  0  0  0  0  0  0  0  0  0
   -6.0561    0.3792    1.5938 H   0  0  0  0  0  0  0  0  0  0  0  0
   -4.5147    2.0599    1.8629 H   0  0  0  0  0  0  0  0  0  0  0  0
   -4.2749    2.2757    0.1221 H   0  0  0  0  0  0  0  0  0  0  0  0
   -2.2463    1.7368    1.3352 H   0  0  0  0  0  0  0  0  0  0  0  0
   -3.0244    0.1773    1.9488 H   0  0  0  0  0  0  0  0  0  0  0  0
   -2.0920    0.8126   -0.8512 H   0  0  0  0  0  0  0  0  0  0  0  0
   -0.4278   -2.4876   -0.1687 H   0  0  0  0  0  0  0  0  0  0  0  0
   -1.4543   -1.8837   -1.4869 H   0  0  0  0  0  0  0  0  0  0  0  0
    0.1953    0.1362   -1.6175 H   0  0  0  0  0  0  0  0  0  0  0  0
    0.7335   -1.5541   -2.1181 H   0  0  0  0  0  0  0  0  0  0  0  0
    1.7801   -2.0117   -0.0947 H   0  0  0  0  0  0  0  0  0  0  0  0
    1.0662   -1.0962    1.8382 H   0  0  0  0  0  0  0  0  0  0  0  0
    1.5924    0.5095    1.3088 H   0  0  0  0  0  0  0  0  0  0  0  0
   -0.8021    0.2625    2.0231 H   0  0  0  0  0  0  0  0  0  0  0  0
   -0.4851    1.1414    0.5112 H   0  0  0  0  0  0  0  0  0  0  0  0
    1.9961    0.3702   -2.8007 H   0  0  0  0  0  0  0  0  0  0  0  0
    4.3974    1.3361   -3.0038 H   0  0  0  0  0  0  0  0  0  0  0  0
    6.6445    1.4498   -1.3750 H   0  0  0  0  0  0  0  0  0  0  0  0
    5.9272   -0.4635    2.4245 H   0  0  0  0  0  0  0  0  0  0  0  0
    3.6071   -1.0003    1.7098 H   0  0  0  0  0  0  0  0  0  0  0  0
  1  2  1  0
  2  3  1  0
  3  4  1  0
  4  5  1  0
  5  6  1  0
  6  7  1  0
  7  8  1  0
  8  9  1  0
  9 10  1  0
 10 11  1  0
 11 12  1  0
 12 13  1  0
 11 14  1  0
 14 15  2  0
 15 16  1  0
 16 17  1  0
 17 18  2  0
 18 19  1  0
 19 20  1  0
 19 21  2  0
 21 22  1  0
 22 23  2  0
  7  2  1  0
 13  8  1  0
 23 14  1  0
 23 17  1  0
  1 24  1  0
  2 25  1  6
  3 26  1  0
  3 27  1  0
  4 28  1  0
  4 29  1  0
  5 30  1  0
  5 31  1  0
  6 32  1  0
  6 33  1  0
  7 34  1  6
  9 35  1  0
  9 36  1  0
 10 37  1  0
 10 38  1  0
 11 39  1  0
 12 40  1  0
 12 41  1  0
 13 42  1  0
 13 43  1  0
 15 44  1  0
 16 45  1  0
 18 46  1  0
 21 47  1  0
 22 48  1  0
M  END
$$$$
[H]C1=C([H])[C@@]2(C([H])([H])[H])C(=C([H])C1=O)C([H])([H])C([H])([H])[C@]1([H])[C@]2([H])C([H])([H])C([H])([H])[C@]2(C([H])([H])[H])C(=O)C([H])([H])C([H])([H])[C@]21[H]
     RDKit          3D

 45 48  0  0  0  0  0  0  0  0999 V2000
   -2.5789    1.5508   -0.1318 C   0  0  0  0  0  0  0  0  0  0  0  0
   -2.3523    0.2643    0.6239 C   0  0  2  0  0  0  0  0  0  0  0  0
   -1.5354    0.5025    1.8408 C   0  0  0  0  0  0  0  0  0  0  0  0
   -0.2070    1.0855    1.4039 C   0  0  0  0  0  0  0  0  0  0  0  0
    0.5100    0.1431    0.4994 C   0  0  1  0  0  0  0  0  0  0  0  0
   -0.3062   -0.2682   -0.7212 C   0  0  1  0  0  0  0  0  0  0  0  0
    0.3863   -1.4500   -1.3842 C   0  0  0  0  0  0  0  0  0  0  0  0
    1.8215   -1.2074   -1.6869 C   0  0  0  0  0  0  0  0  0  0  0  0
    2.5386   -0.5945   -0.5296 C   0  0  0  0  0  0  0  0  0  0  0  0
    3.6773   -1.0904   -0.0893 C   0  0  0  0  0  0  0  0  0  0  0  0
    4.3453   -0.4769    1.0291 C   0  0  0  0  0  0  0  0  0  0  0  0
    5.4415   -0.9752    1.4329 O   0  0  0  0  0  0  0  0  0  0  0  0
    3.7700    0.6780    1.6668 C   0  0  0  0  0  0  0  0  0  0  0  0
    2.6260    1.1514    1.2017 C   0  0  0  0  0  0  0  0  0  0  0  0
    1.8733    0.6023    0.0785 C   0  0  2  0  0  0  0  0  0  0  0  0
    1.8076    1.6659   -1.0125 C   0  0  0  0  0  0  0  0  0  0  0  0
   -1.6077   -0.7625   -0.2103 C   0  0  2  0  0  0  0  0  0  0  0  0
   -2.6101   -1.1579   -1.2198 C   0  0  0  0  0  0  0  0  0  0  0  0
   -3.9100   -1.1793   -0.4039 C   0  0  0  0  0  0  0  0  0  0  0  0
   -3.6110   -0.4684    0.8525 C   0  0  0  0  0  0  0  0  0  0  0  0
   -4.2554   -0.4774    1.8640 O   0  0  0  0  0  0  0  0  0  0  0  0
   -2.8989    2.3090    0.6410 H   0  0  0  0  0  0  0  0  0  0  0  0
   -3.3969    1.4984   -0.8581 H   0  0  0  0  0  0  0  0  0  0  0  0
   -1.6765    1.9405   -0.6097 H   0  0  0  0  0  0  0  0  0  0  0  0
   -2.0262    1.1599    2.5886 H   0  0  0  0  0  0  0  0  0  0  0  0
   -1.2937   -0.4787    2.3235 H   0  0  0  0  0  0  0  0  0  0  0  0
   -0.3612    2.0841    0.9429 H   0  0  0  0  0  0  0  0  0  0  0  0
    0.4525    1.2586    2.2829 H   0  0  0  0  0  0  0  0  0  0  0  0
    0.6621   -0.8135    1.0774 H   0  0  0  0  0  0  0  0  0  0  0  0
   -0.4107    0.5733   -1.4385 H   0  0  0  0  0  0  0  0  0  0  0  0
    0.3425   -2.2836   -0.6253 H   0  0  0  0  0  0  0  0  0  0  0  0
   -0.1458   -1.7508   -2.2891 H   0  0  0  0  0  0  0  0  0  0  0  0
    2.0027   -0.6486   -2.6327 H   0  0  0  0  0  0  0  0  0  0  0  0
    2.2919   -2.2184   -1.8648 H   0  0  0  0  0  0  0  0  0  0  0  0
    4.0788   -1.9672   -0.6015 H   0  0  0  0  0  0  0  0  0  0  0  0
    4.2609    1.1547    2.5127 H   0  0  0  0  0  0  0  0  0  0  0  0
    2.2355    2.0209    1.7097 H   0  0  0  0  0  0  0  0  0  0  0  0
    1.4666    1.1932   -1.9401 H   0  0  0  0  0  0  0  0  0  0  0  0
    2.8492    2.0224   -1.1581 H   0  0  0  0  0  0  0  0  0  0  0  0
    1.1864    2.5269   -0.7174 H   0  0  0  0  0  0  0  0  0  0  0  0
   -1.4131   -1.6247    0.4652 H   0  0  0  0  0  0  0  0  0  0  0  0
   -2.6956   -0.4855   -2.0848 H   0  0  0  0  0  0  0  0  0  0  0  0
   -2.3838   -2.1889   -1.5708 H   0  0  0  0  0  0  0  0  0  0  0  0
   -4.2891   -2.2008   -0.2707 H   0  0  0  0  0  0  0  0  0  0  0  0
   -4.6608   -0.6168   -0.9865 H   0  0  0  0  0  0  0  0  0  0  0  0
  2  1  1  6
  2  3  1  0
  3  4  1  0
  4  5  1  0
  5  6  1  0
  6  7  1  0
  7  8  1  0
  8  9  1  0
  9 10  2  0
 10 11  1  0
 11 12  2  0
 11 13  1  0
 13 14  2  0
 14 15  1  0
 15 16  1  6
  6 17  1  0
 17 18  1  0
 18 19  1  0
 19 20  1  0
 20 21  2  0
 17  2  1  0
 20  2  1  0
 15  5  1  0
 15  9  1  0
  1 22  1  0
  1 23  1  0
  1 24  1  0
  3 25  1  0
  3 26  1  0
  4 27  1  0
  4 28  1  0
  5 29  1  1
  6 30  1  6
  7 31  1  0
  7 32  1  0
  8 33  1  0
  8 34  1  0
 10 35  1  0
 13 36  1  0
 14 37  1  0
 16 38  1  0
 16 39  1  0
 16 40  1  0
 17 41  1  1
 18 42  1  0
 18 43  1  0
 19 44  1  0
 19 45  1  0
M  END
$$$$
[H]Oc1c([H])c([H])c([C@@]2([H])Sc3c([H])c(O[H])c([H])c([H])c3O[C@@]2([H])c2c([H])c([H])c(OC([H])([H])[C@@]([H])(N3C([H])([H])C([H])([H])C([H])([H])C3([H])[H])C([H])([H])[H])c([H])c2[H])c([H])c1[H]
     RDKit          3D

 62 66  0  0  0  0  0  0  0  0999 V2000
    5.0948   -2.1902    0.3373 C   0  0  0  0  0  0  0  0  0  0  0  0
    4.7863   -1.1847   -0.7543 C   0  0  1  0  0  0  0  0  0  0  0  0
    3.5814   -0.3570   -0.4445 C   0  0  0  0  0  0  0  0  0  0  0  0
    2.4951   -1.2337   -0.2011 O   0  0  0  0  0  0  0  0  0  0  0  0
    1.2310   -0.7004    0.1165 C   0  0  0  0  0  0  0  0  0  0  0  0
    1.0623    0.6718    0.1877 C   0  0  0  0  0  0  0  0  0  0  0  0
   -0.1907    1.1564    0.5014 C   0  0  0  0  0  0  0  0  0  0  0  0
   -1.2784    0.3439    0.7464 C   0  0  0  0  0  0  0  0  0  0  0  0
   -1.0883   -1.0130    0.6707 C   0  0  0  0  0  0  0  0  0  0  0  0
    0.1589   -1.5265    0.3576 C   0  0  0  0  0  0  0  0  0  0  0  0
   -2.5815    0.9403    1.0888 C   0  0  2  0  0  0  0  0  0  0  0  0
   -3.1900    0.1443    2.0640 O   0  0  0  0  0  0  0  0  0  0  0  0
   -4.4541    0.3874    2.5736 C   0  0  0  0  0  0  0  0  0  0  0  0
   -4.7659   -0.1503    3.7992 C   0  0  0  0  0  0  0  0  0  0  0  0
   -6.0057    0.0362    4.3955 C   0  0  0  0  0  0  0  0  0  0  0  0
   -6.9244    0.7932    3.6982 C   0  0  0  0  0  0  0  0  0  0  0  0
   -8.1749    0.9857    4.2915 O   0  0  0  0  0  0  0  0  0  0  0  0
   -6.6195    1.3385    2.4636 C   0  0  0  0  0  0  0  0  0  0  0  0
   -5.3951    1.1302    1.9192 C   0  0  0  0  0  0  0  0  0  0  0  0
   -5.0459    1.8524    0.3226 S   0  0  0  0  0  0  0  0  0  0  0  0
   -3.3652    1.2599   -0.1222 C   0  0  2  0  0  0  0  0  0  0  0  0
   -3.4146    0.2578   -1.1807 C   0  0  0  0  0  0  0  0  0  0  0  0
   -4.2178   -0.8527   -1.0512 C   0  0  0  0  0  0  0  0  0  0  0  0
   -4.2766   -1.8221   -2.0538 C   0  0  0  0  0  0  0  0  0  0  0  0
   -3.5244   -1.6824   -3.2008 C   0  0  0  0  0  0  0  0  0  0  0  0
   -3.5967   -2.6707   -4.2012 O   0  0  0  0  0  0  0  0  0  0  0  0
   -2.7216   -0.5863   -3.3459 C   0  0  0  0  0  0  0  0  0  0  0  0
   -2.6786    0.3590   -2.3435 C   0  0  0  0  0  0  0  0  0  0  0  0
    5.9785   -0.4498   -1.0252 N   0  0  0  0  0  0  0  0  0  0  0  0
    5.8699    0.5492   -2.0433 C   0  0  0  0  0  0  0  0  0  0  0  0
    7.1585    1.3670   -1.8814 C   0  0  0  0  0  0  0  0  0  0  0  0
    7.7099    0.9744   -0.5224 C   0  0  0  0  0  0  0  0  0  0  0  0
    6.4871    0.2889    0.0993 C   0  0  0  0  0  0  0  0  0  0  0  0
    5.0926   -1.7530    1.3367 H   0  0  0  0  0  0  0  0  0  0  0  0
    6.1184   -2.5751    0.1347 H   0  0  0  0  0  0  0  0  0  0  0  0
    4.4030   -3.0480    0.2173 H   0  0  0  0  0  0  0  0  0  0  0  0
    4.5500   -1.7828   -1.6683 H   0  0  0  0  0  0  0  0  0  0  0  0
    3.3271    0.2082   -1.3866 H   0  0  0  0  0  0  0  0  0  0  0  0
    3.6849    0.2946    0.4286 H   0  0  0  0  0  0  0  0  0  0  0  0
    1.9138    1.3323   -0.0035 H   0  0  0  0  0  0  0  0  0  0  0  0
   -0.3161    2.2472    0.5559 H   0  0  0  0  0  0  0  0  0  0  0  0
   -1.9359   -1.6849    0.8699 H   0  0  0  0  0  0  0  0  0  0  0  0
    0.2527   -2.5988    0.3112 H   0  0  0  0  0  0  0  0  0  0  0  0
   -2.4107    1.9455    1.6144 H   0  0  0  0  0  0  0  0  0  0  0  0
   -4.0560   -0.7553    4.3749 H   0  0  0  0  0  0  0  0  0  0  0  0
   -6.2222   -0.4058    5.3730 H   0  0  0  0  0  0  0  0  0  0  0  0
   -8.8729    1.5494    3.7829 H   0  0  0  0  0  0  0  0  0  0  0  0
   -7.4186    1.9258    1.9881 H   0  0  0  0  0  0  0  0  0  0  0  0
   -2.8631    2.1705   -0.5806 H   0  0  0  0  0  0  0  0  0  0  0  0
   -4.8427   -1.0500   -0.1921 H   0  0  0  0  0  0  0  0  0  0  0  0
   -4.9000   -2.7003   -1.9717 H   0  0  0  0  0  0  0  0  0  0  0  0
   -4.3176   -2.5121   -4.9074 H   0  0  0  0  0  0  0  0  0  0  0  0
   -2.1259   -0.4678   -4.2453 H   0  0  0  0  0  0  0  0  0  0  0  0
   -2.0264    1.2386   -2.4739 H   0  0  0  0  0  0  0  0  0  0  0  0
    5.0021    1.2043   -1.9758 H   0  0  0  0  0  0  0  0  0  0  0  0
    5.9055    0.0797   -3.0698 H   0  0  0  0  0  0  0  0  0  0  0  0
    7.8550    1.1511   -2.7022 H   0  0  0  0  0  0  0  0  0  0  0  0
    6.9178    2.4618   -1.8126 H   0  0  0  0  0  0  0  0  0  0  0  0
    8.0517    1.8269    0.0643 H   0  0  0  0  0  0  0  0  0  0  0  0
    8.5037    0.2008   -0.6826 H   0  0  0  0  0  0  0  0  0  0  0  0
    6.8103   -0.3639    0.9353 H   0  0  0  0  0  0  0  0  0  0  0  0
    5.8157    1.1121    0.4237 H   0  0  0  0  0  0  0  0  0  0  0  0
  1  2  1  0
  2  3  1  0
  3  4  1  0
  4  5  1  0
  5  6  2  0
  6  7  1  0
  7  8  2  0
  8  9  1  0
  9 10  2  0
  8 11  1  0
 11 12  1  0
 12 13  1  0
 13 14  2  0
 14 15  1  0
 15 16  2  0
 16 17  1  0
 16 18  1  0
 18 19  2  0
 19 20  1  0
 20 21  1  0
 21 22  1  0
 22 23  2  0
 23 24  1  0
 24 25  2  0
 25 26  1  0
 25 27  1  0
 27 28  2  0
  2 29  1  0
 29 30  1  0
 30 31  1  0
 31 32  1  0
 32 33  1  0
 10  5  1  0
 21 11  1  0
 28 22  1  0
 33 29  1  0
 19 13  1  0
  1 34  1  0
  1 35  1  0
  1 36  1  0
  2 37  1  6
  3 38  1  0
  3 39  1  0
  6 40  1  0
  7 41  1  0
  9 42  1  0
 10 43  1  0
 11 44  1  1
 14 45  1  0
 15 46  1  0
 17 47  1  0
 18 48  1  0
 21 49  1  6
 23 50  1  0
 24 51  1  0
 26 52  1  0
 27 53  1  0
 28 54  1  0
 30 55  1  0
 30 56  1  0
 31 57  1  0
 31 58  1  0
 32 59  1  0
 32 60  1  0
 33 61  1  0
 33 62  1  0
M  END
$$$$
[H]Oc1c([H])c([H])c(C([H])=C2C(=O)N(c3c([H])c([H])c([H])c([H])c3[H])C2=O)c([H])c1O[H]
     RDKit          3D

 32 34  0  0  0  0  0  0  0  0999 V2000
   -5.8451    0.9296    1.2299 O   0  0  0  0  0  0  0  0  0  0  0  0
   -4.7137    0.2878    0.6969 C   0  0  0  0  0  0  0  0  0  0  0  0
   -3.8154    1.0365   -0.0474 C   0  0  0  0  0  0  0  0  0  0  0  0
   -2.6943    0.4363   -0.5843 C   0  0  0  0  0  0  0  0  0  0  0  0
   -2.4219   -0.8992   -0.4099 C   0  0  0  0  0  0  0  0  0  0  0  0
   -1.2474   -1.5212   -0.9434 C   0  0  0  0  0  0  0  0  0  0  0  0
   -0.0555   -0.9800   -0.7830 C   0  0  0  0  0  0  0  0  0  0  0  0
    1.3217   -1.3356   -1.1888 C   0  0  0  0  0  0  0  0  0  0  0  0
    1.7392   -2.3085   -1.8627 O   0  0  0  0  0  0  0  0  0  0  0  0
    1.8756   -0.2118   -0.5453 N   0  0  0  0  0  0  0  0  0  0  0  0
    0.5691    0.1631   -0.1359 C   0  0  0  0  0  0  0  0  0  0  0  0
    0.1725    1.1652    0.5559 O   0  0  0  0  0  0  0  0  0  0  0  0
    3.1793    0.3480   -0.3586 C   0  0  0  0  0  0  0  0  0  0  0  0
    4.1067   -0.2562    0.4653 C   0  0  0  0  0  0  0  0  0  0  0  0
    5.3722    0.2754    0.6545 C   0  0  0  0  0  0  0  0  0  0  0  0
    5.7561    1.4373    0.0220 C   0  0  0  0  0  0  0  0  0  0  0  0
    4.8346    2.0464   -0.8027 C   0  0  0  0  0  0  0  0  0  0  0  0
    3.5738    1.5115   -0.9875 C   0  0  0  0  0  0  0  0  0  0  0  0
   -3.3089   -1.6517    0.3279 C   0  0  0  0  0  0  0  0  0  0  0  0
   -4.4503   -1.0514    0.8768 C   0  0  0  0  0  0  0  0  0  0  0  0
   -5.3257   -1.8295    1.6139 O   0  0  0  0  0  0  0  0  0  0  0  0
   -6.5432    0.4723    1.7761 H   0  0  0  0  0  0  0  0  0  0  0  0
   -4.0224    2.0832   -0.1871 H   0  0  0  0  0  0  0  0  0  0  0  0
   -2.0280    1.0579   -1.1768 H   0  0  0  0  0  0  0  0  0  0  0  0
   -1.3319   -2.4496   -1.4875 H   0  0  0  0  0  0  0  0  0  0  0  0
    3.8468   -1.1691    0.9806 H   0  0  0  0  0  0  0  0  0  0  0  0
    6.0742   -0.2274    1.3098 H   0  0  0  0  0  0  0  0  0  0  0  0
    6.7384    1.8770    0.1501 H   0  0  0  0  0  0  0  0  0  0  0  0
    5.1143    2.9577   -1.3081 H   0  0  0  0  0  0  0  0  0  0  0  0
    2.8381    1.9973   -1.6447 H   0  0  0  0  0  0  0  0  0  0  0  0
   -3.1550   -2.7188    0.5060 H   0  0  0  0  0  0  0  0  0  0  0  0
   -6.1538   -1.4728    2.0318 H   0  0  0  0  0  0  0  0  0  0  0  0
  1  2  1  0
  2  3  2  0
  3  4  1  0
  4  5  2  0
  5  6  1  0
  6  7  2  3
  7  8  1  0
  8  9  2  0
  8 10  1  0
 10 11  1  0
 11 12  2  0
 10 13  1  0
 13 14  2  0
 14 15  1  0
 15 16  2  0
 16 17  1  0
 17 18  2  0
  5 19  1  0
 19 20  2  0
 20 21  1  0
 20  2  1  0
 11  7  1  0
 18 13  1  0
  1 22  1  0
  3 23  1  0
  4 24  1  0
  6 25  1  0
 14 26  1  0
 15 27  1  0
 16 28  1  0
 17 29  1  0
 18 30  1  0
 19 31  1  0
 21 32  1  0
M  END
$$$$
[H]c1c([H])c(C([H])([H])N2C([H])([H])C([H])([H])N(C([H])([H])[H])C([H])([H])C2([H])[H])c(C(F)(F)F)c([H])c1C(=O)N([H])c1c([H])c([H])c(C([H])([H])[H])c(C(=O)N([H])[H])c1[H]
     RDKit          3D

 56 58  0  0  0  0  0  0  0  0999 V2000
    7.7340   -1.5634   -1.0979 C   0  0  0  0  0  0  0  0  0  0  0  0
    6.3977   -1.0603   -0.8380 N   0  0  0  0  0  0  0  0  0  0  0  0
    5.8045   -0.6319   -2.0866 C   0  0  0  0  0  0  0  0  0  0  0  0
    4.4552    0.0186   -1.8811 C   0  0  0  0  0  0  0  0  0  0  0  0
    4.4111    0.8876   -0.7576 N   0  0  0  0  0  0  0  0  0  0  0  0
    3.6396    0.4943    0.3590 C   0  0  0  0  0  0  0  0  0  0  0  0
    2.1961    0.3931    0.2135 C   0  0  0  0  0  0  0  0  0  0  0  0
    1.5817    0.7363   -0.9605 C   0  0  0  0  0  0  0  0  0  0  0  0
    0.2028    0.6790   -1.1491 C   0  0  0  0  0  0  0  0  0  0  0  0
   -0.6134    0.2585   -0.1164 C   0  0  0  0  0  0  0  0  0  0  0  0
   -0.0043   -0.0832    1.0527 C   0  0  0  0  0  0  0  0  0  0  0  0
    1.3685   -0.0325    1.2591 C   0  0  0  0  0  0  0  0  0  0  0  0
    1.9455   -0.4178    2.5470 C   0  0  0  0  0  0  0  0  0  0  0  0
    2.6469    0.5893    3.1858 F   0  0  0  0  0  0  0  0  0  0  0  0
    2.6850   -1.5872    2.4799 F   0  0  0  0  0  0  0  0  0  0  0  0
    0.8909   -0.7187    3.4219 F   0  0  0  0  0  0  0  0  0  0  0  0
   -2.0807    0.1889   -0.3183 C   0  0  0  0  0  0  0  0  0  0  0  0
   -2.4920    0.1895   -1.4806 O   0  0  0  0  0  0  0  0  0  0  0  0
   -2.9563    0.1261    0.7842 N   0  0  0  0  0  0  0  0  0  0  0  0
   -4.3503    0.0486    0.7998 C   0  0  0  0  0  0  0  0  0  0  0  0
   -5.0101    0.3057    1.9972 C   0  0  0  0  0  0  0  0  0  0  0  0
   -6.3774    0.2273    2.0601 C   0  0  0  0  0  0  0  0  0  0  0  0
   -7.1701   -0.1061    0.9572 C   0  0  0  0  0  0  0  0  0  0  0  0
   -8.6371   -0.1612    1.1220 C   0  0  0  0  0  0  0  0  0  0  0  0
   -6.4975   -0.3560   -0.2135 C   0  0  0  0  0  0  0  0  0  0  0  0
   -5.0866   -0.2776   -0.2877 C   0  0  0  0  0  0  0  0  0  0  0  0
   -7.2301   -0.7154   -1.4139 C   0  0  0  0  0  0  0  0  0  0  0  0
   -8.6253   -0.8574   -1.4540 N   0  0  0  0  0  0  0  0  0  0  0  0
   -6.5479   -0.9102   -2.4860 O   0  0  0  0  0  0  0  0  0  0  0  0
    5.7561    1.1881   -0.3213 C   0  0  0  0  0  0  0  0  0  0  0  0
    6.5023   -0.0246    0.1412 C   0  0  0  0  0  0  0  0  0  0  0  0
    8.1689   -1.8419   -0.1139 H   0  0  0  0  0  0  0  0  0  0  0  0
    8.3744   -0.7802   -1.5498 H   0  0  0  0  0  0  0  0  0  0  0  0
    7.6837   -2.4739   -1.7141 H   0  0  0  0  0  0  0  0  0  0  0  0
    6.4802    0.1210   -2.5793 H   0  0  0  0  0  0  0  0  0  0  0  0
    5.6629   -1.5339   -2.7135 H   0  0  0  0  0  0  0  0  0  0  0  0
    4.2784    0.6355   -2.8114 H   0  0  0  0  0  0  0  0  0  0  0  0
    3.6702   -0.7599   -1.8990 H   0  0  0  0  0  0  0  0  0  0  0  0
    3.8324    1.2894    1.1520 H   0  0  0  0  0  0  0  0  0  0  0  0
    4.1171   -0.4047    0.8045 H   0  0  0  0  0  0  0  0  0  0  0  0
    2.1431    1.0900   -1.8191 H   0  0  0  0  0  0  0  0  0  0  0  0
   -0.2422    0.9600   -2.0966 H   0  0  0  0  0  0  0  0  0  0  0  0
   -0.6259   -0.4292    1.8969 H   0  0  0  0  0  0  0  0  0  0  0  0
   -2.4979    0.1391    1.7658 H   0  0  0  0  0  0  0  0  0  0  0  0
   -4.4708    0.5748    2.9126 H   0  0  0  0  0  0  0  0  0  0  0  0
   -6.8594    0.4317    3.0006 H   0  0  0  0  0  0  0  0  0  0  0  0
   -9.0765   -1.1638    1.0059 H   0  0  0  0  0  0  0  0  0  0  0  0
   -9.1244    0.6295    0.5244 H   0  0  0  0  0  0  0  0  0  0  0  0
   -8.8457    0.1307    2.2045 H   0  0  0  0  0  0  0  0  0  0  0  0
   -4.6429   -0.5070   -1.2700 H   0  0  0  0  0  0  0  0  0  0  0  0
   -9.0620   -1.7799   -1.2467 H   0  0  0  0  0  0  0  0  0  0  0  0
   -9.2605   -0.0693   -1.6981 H   0  0  0  0  0  0  0  0  0  0  0  0
    6.2963    1.6148   -1.1911 H   0  0  0  0  0  0  0  0  0  0  0  0
    5.7392    1.9591    0.4874 H   0  0  0  0  0  0  0  0  0  0  0  0
    6.1570   -0.4069    1.1214 H   0  0  0  0  0  0  0  0  0  0  0  0
    7.5655    0.2947    0.3085 H   0  0  0  0  0  0  0  0  0  0  0  0
  1  2  1  0
  2  3  1  0
  3  4  1  0
  4  5  1  0
  5  6  1  0
  6  7  1  0
  7  8  2  0
  8  9  1  0
  9 10  2  0
 10 11  1  0
 11 12  2  0
 12 13  1  0
 13 14  1  0
 13 15  1  0
 13 16  1  0
 10 17  1  0
 17 18  2  0
 17 19  1  0
 19 20  1  0
 20 21  2  0
 21 22  1  0
 22 23  2  0
 23 24  1  0
 23 25  1  0
 25 26  2  0
 25 27  1  0
 27 28  1  0
 27 29  2  0
  5 30  1  0
 30 31  1  0
 31  2  1  0
 12  7  1  0
 26 20  1  0
  1 32  1  0
  1 33  1  0
  1 34  1  0
  3 35  1  0
  3 36  1  0
  4 37  1  0
  4 38  1  0
  6 39  1  0
  6 40  1  0
  8 41  1  0
  9 42  1  0
 11 43  1  0
 19 44  1  0
 21 45  1  0
 22 46  1  0
 24 47  1  0
 24 48  1  0
 24 49  1  0
 26 50  1  0
 28 51  1  0
 28 52  1  0
 30 53  1  0
 30 54  1  0
 31 55  1  0
 31 56  1  0
M  END
$$$$
[H]c1nc(N2C([H])([H])C([H])([H])c3nc(-c4c([H])c([H])c([H])c([H])c4[H])nc(N([H])c4nc([H])c(C(F)(F)F)c([H])c4[H])c3C([H])([H])C2([H])[H])c(C(F)(F)F)c([H])c1[H]
     RDKit          3D

 58 62  0  0  0  0  0  0  0  0999 V2000
    5.0193   -5.0650    2.0117 F   0  0  0  0  0  0  0  0  0  0  0  0
    5.1889   -5.0065    0.6221 C   0  0  0  0  0  0  0  0  0  0  0  0
    6.5005   -5.0740    0.2854 F   0  0  0  0  0  0  0  0  0  0  0  0
    4.4882   -6.1069    0.1067 F   0  0  0  0  0  0  0  0  0  0  0  0
    4.4730   -3.7913    0.1423 C   0  0  0  0  0  0  0  0  0  0  0  0
    4.2742   -3.5636   -1.2274 C   0  0  0  0  0  0  0  0  0  0  0  0
    3.4627   -2.5009   -1.6041 C   0  0  0  0  0  0  0  0  0  0  0  0
    2.8642   -1.6885   -0.7014 C   0  0  0  0  0  0  0  0  0  0  0  0
    1.6571   -0.9361   -0.8563 N   0  0  0  0  0  0  0  0  0  0  0  0
    1.3081    0.2024   -0.1581 C   0  0  0  0  0  0  0  0  0  0  0  0
    2.1194    1.2661    0.0580 N   0  0  0  0  0  0  0  0  0  0  0  0
    1.6766    2.4242    0.5502 C   0  0  0  0  0  0  0  0  0  0  0  0
    0.3271    2.5230    0.8580 N   0  0  0  0  0  0  0  0  0  0  0  0
   -0.5346    1.5196    0.6745 C   0  0  0  0  0  0  0  0  0  0  0  0
   -1.9024    1.8661    1.1836 C   0  0  0  0  0  0  0  0  0  0  0  0
   -3.0230    1.3693    0.2892 C   0  0  0  0  0  0  0  0  0  0  0  0
   -2.9650   -0.0327    0.1200 N   0  0  0  0  0  0  0  0  0  0  0  0
   -1.9715   -0.9465    0.7525 C   0  0  0  0  0  0  0  0  0  0  0  0
   -0.7161   -0.8979   -0.1169 C   0  0  0  0  0  0  0  0  0  0  0  0
   -0.0547    0.3855    0.1730 C   0  0  0  0  0  0  0  0  0  0  0  0
   -3.8122   -0.7893   -0.7060 C   0  0  0  0  0  0  0  0  0  0  0  0
   -3.3781   -1.1100   -1.9770 N   0  0  0  0  0  0  0  0  0  0  0  0
   -4.0442   -1.8636   -2.8273 C   0  0  0  0  0  0  0  0  0  0  0  0
   -5.2564   -2.3812   -2.4625 C   0  0  0  0  0  0  0  0  0  0  0  0
   -5.7733   -2.1223   -1.2194 C   0  0  0  0  0  0  0  0  0  0  0  0
   -5.0177   -1.3074   -0.3386 C   0  0  0  0  0  0  0  0  0  0  0  0
   -5.5963   -0.9887    0.9990 C   0  0  0  0  0  0  0  0  0  0  0  0
   -6.7520   -1.7901    1.1768 F   0  0  0  0  0  0  0  0  0  0  0  0
   -4.7873   -1.1684    2.0464 F   0  0  0  0  0  0  0  0  0  0  0  0
   -6.1947    0.2997    0.9408 F   0  0  0  0  0  0  0  0  0  0  0  0
    2.3346    3.7208    0.4885 C   0  0  0  0  0  0  0  0  0  0  0  0
    2.1795    4.6719    1.4521 C   0  0  0  0  0  0  0  0  0  0  0  0
    2.5436    5.9942    1.2555 C   0  0  0  0  0  0  0  0  0  0  0  0
    3.0810    6.3553    0.0434 C   0  0  0  0  0  0  0  0  0  0  0  0
    3.2516    5.4200   -0.9433 C   0  0  0  0  0  0  0  0  0  0  0  0
    2.8810    4.1093   -0.7186 C   0  0  0  0  0  0  0  0  0  0  0  0
    3.1222   -1.9645    0.6488 N   0  0  0  0  0  0  0  0  0  0  0  0
    3.8779   -2.9569    1.0518 C   0  0  0  0  0  0  0  0  0  0  0  0
    4.7421   -4.1782   -1.9674 H   0  0  0  0  0  0  0  0  0  0  0  0
    3.3209   -2.3165   -2.6837 H   0  0  0  0  0  0  0  0  0  0  0  0
    0.9967   -1.3240   -1.5841 H   0  0  0  0  0  0  0  0  0  0  0  0
   -2.0376    1.4254    2.2036 H   0  0  0  0  0  0  0  0  0  0  0  0
   -1.9565    2.9604    1.2733 H   0  0  0  0  0  0  0  0  0  0  0  0
   -2.9515    1.9489   -0.6796 H   0  0  0  0  0  0  0  0  0  0  0  0
   -3.9511    1.7571    0.7541 H   0  0  0  0  0  0  0  0  0  0  0  0
   -1.7472   -0.5012    1.7292 H   0  0  0  0  0  0  0  0  0  0  0  0
   -2.3151   -1.9731    0.8130 H   0  0  0  0  0  0  0  0  0  0  0  0
   -0.1108   -1.7845    0.1760 H   0  0  0  0  0  0  0  0  0  0  0  0
   -0.9366   -0.9599   -1.1709 H   0  0  0  0  0  0  0  0  0  0  0  0
   -3.6362   -2.0918   -3.8189 H   0  0  0  0  0  0  0  0  0  0  0  0
   -5.8233   -3.0081   -3.1582 H   0  0  0  0  0  0  0  0  0  0  0  0
   -6.7103   -2.4939   -0.8612 H   0  0  0  0  0  0  0  0  0  0  0  0
    1.7677    4.4165    2.4507 H   0  0  0  0  0  0  0  0  0  0  0  0
    2.3928    6.7135    2.0706 H   0  0  0  0  0  0  0  0  0  0  0  0
    3.3715    7.4072   -0.1339 H   0  0  0  0  0  0  0  0  0  0  0  0
    3.6739    5.7297   -1.9107 H   0  0  0  0  0  0  0  0  0  0  0  0
    2.9958    3.3536   -1.4934 H   0  0  0  0  0  0  0  0  0  0  0  0
    4.0633   -3.1563    2.1311 H   0  0  0  0  0  0  0  0  0  0  0  0
  1  2  1  0
  2  3  1  0
  2  4  1  0
  2  5  1  0
  5  6  2  0
  6  7  1  0
  7  8  2  0
  8  9  1  0
  9 10  1  0
 10 11  2  0
 11 12  1  0
 12 13  2  0
 13 14  1  0
 14 15  1  0
 15 16  1  0
 16 17  1  0
 17 18  1  0
 18 19  1  0
 19 20  1  0
 17 21  1  0
 21 22  2  0
 22 23  1  0
 23 24  2  0
 24 25  1  0
 25 26  2  0
 26 27  1  0
 27 28  1  0
 27 29  1  0
 27 30  1  0
 12 31  1  0
 31 32  2  0
 32 33  1  0
 33 34  2  0
 34 35  1  0
 35 36  2  0
  8 37  1  0
 37 38  2  0
 38  5  1  0
 20 10  1  0
 26 21  1  0
 36 31  1  0
 20 14  2  0
  6 39  1  0
  7 40  1  0
  9 41  1  0
 15 42  1  0
 15 43  1  0
 16 44  1  0
 16 45  1  0
 18 46  1  0
 18 47  1  0
 19 48  1  0
 19 49  1  0
 23 50  1  0
 24 51  1  0
 25 52  1  0
 32 53  1  0
 33 54  1  0
 34 55  1  0
 35 56  1  0
 36 57  1  0
 38 58  1  0
M  END
$$$$
[H]c1nc(-c2c([H])c3c([H])c(Oc4c([H])c([H])c(S(=O)(=O)C([H])([H])[H])c([H])c4[H])c(C4([H])N(C([H])([H])[H])C(=O)C([H])([H])C4([H])[H])c([H])c3n2[H])c([H])c([H])c1F
     RDKit          3D

 56 60  0  0  0  0  0  0  0  0999 V2000
    0.2962   -4.5373   -2.1160 C   0  0  0  0  0  0  0  0  0  0  0  0
    0.4454   -4.2617   -0.7201 N   0  0  0  0  0  0  0  0  0  0  0  0
   -0.3366   -3.3365    0.1120 C   0  0  0  0  0  0  0  0  0  0  0  0
   -0.1628   -3.9701    1.5048 C   0  0  0  0  0  0  0  0  0  0  0  0
    1.1064   -4.7486    1.5257 C   0  0  0  0  0  0  0  0  0  0  0  0
    1.4383   -4.9176    0.1060 C   0  0  0  0  0  0  0  0  0  0  0  0
    2.4500   -5.5338   -0.3237 O   0  0  0  0  0  0  0  0  0  0  0  0
    0.2496   -1.9706    0.1317 C   0  0  0  0  0  0  0  0  0  0  0  0
    1.5780   -1.6881    0.3951 C   0  0  0  0  0  0  0  0  0  0  0  0
    2.1271   -0.4224    0.3148 C   0  0  0  0  0  0  0  0  0  0  0  0
    3.3639    0.0724    0.4730 N   0  0  0  0  0  0  0  0  0  0  0  0
    3.4088    1.3907    0.2423 C   0  0  0  0  0  0  0  0  0  0  0  0
    2.1031    1.7305   -0.0792 C   0  0  0  0  0  0  0  0  0  0  0  0
    1.2911    0.6245   -0.0504 C   0  0  0  0  0  0  0  0  0  0  0  0
   -0.0563    0.3643   -0.3236 C   0  0  0  0  0  0  0  0  0  0  0  0
   -0.5799   -0.9076   -0.2382 C   0  0  0  0  0  0  0  0  0  0  0  0
   -1.9011   -1.1294   -0.4954 O   0  0  0  0  0  0  0  0  0  0  0  0
   -2.9034   -0.2048   -0.6711 C   0  0  0  0  0  0  0  0  0  0  0  0
   -3.1576    0.5248   -1.7994 C   0  0  0  0  0  0  0  0  0  0  0  0
   -4.2209    1.4030   -1.7803 C   0  0  0  0  0  0  0  0  0  0  0  0
   -5.0238    1.5889   -0.7020 C   0  0  0  0  0  0  0  0  0  0  0  0
   -4.7621    0.8540    0.4402 C   0  0  0  0  0  0  0  0  0  0  0  0
   -3.7227   -0.0355    0.4697 C   0  0  0  0  0  0  0  0  0  0  0  0
   -6.3390    2.7683   -0.7077 S   0  0  0  0  0  0  0  0  0  0  0  0
   -5.9820    4.0280    0.5257 C   0  0  0  0  0  0  0  0  0  0  0  0
   -6.3541    3.4166   -2.0854 O   0  0  0  0  0  0  0  0  0  0  0  0
   -7.6229    2.0598   -0.4670 O   0  0  0  0  0  0  0  0  0  0  0  0
    4.5869    2.2451    0.1533 C   0  0  0  0  0  0  0  0  0  0  0  0
    4.4108    3.6342   -0.0189 C   0  0  0  0  0  0  0  0  0  0  0  0
    5.4411    4.4877   -0.0922 C   0  0  0  0  0  0  0  0  0  0  0  0
    6.7446    4.0365   -0.0025 C   0  0  0  0  0  0  0  0  0  0  0  0
    7.7839    4.8711   -0.0821 F   0  0  0  0  0  0  0  0  0  0  0  0
    6.9281    2.6245    0.1733 C   0  0  0  0  0  0  0  0  0  0  0  0
    5.8465    1.8300    0.2388 N   0  0  0  0  0  0  0  0  0  0  0  0
    0.8113   -5.5196   -2.3823 H   0  0  0  0  0  0  0  0  0  0  0  0
    0.7979   -3.7987   -2.7666 H   0  0  0  0  0  0  0  0  0  0  0  0
   -0.7686   -4.7364   -2.4042 H   0  0  0  0  0  0  0  0  0  0  0  0
   -1.3879   -3.3181   -0.1514 H   0  0  0  0  0  0  0  0  0  0  0  0
   -1.0730   -4.5515    1.7546 H   0  0  0  0  0  0  0  0  0  0  0  0
   -0.1075   -3.1699    2.2831 H   0  0  0  0  0  0  0  0  0  0  0  0
    0.8818   -5.7230    2.0255 H   0  0  0  0  0  0  0  0  0  0  0  0
    1.9390   -4.2563    2.0749 H   0  0  0  0  0  0  0  0  0  0  0  0
    2.2193   -2.4966    0.6743 H   0  0  0  0  0  0  0  0  0  0  0  0
    4.1936   -0.5275    0.7620 H   0  0  0  0  0  0  0  0  0  0  0  0
    1.7634    2.7496   -0.3158 H   0  0  0  0  0  0  0  0  0  0  0  0
   -0.7022    1.1856   -0.6151 H   0  0  0  0  0  0  0  0  0  0  0  0
   -2.5088    0.3782   -2.6706 H   0  0  0  0  0  0  0  0  0  0  0  0
   -4.4390    1.9912   -2.6770 H   0  0  0  0  0  0  0  0  0  0  0  0
   -5.3856    0.9848    1.2934 H   0  0  0  0  0  0  0  0  0  0  0  0
   -3.5649   -0.5824    1.3815 H   0  0  0  0  0  0  0  0  0  0  0  0
   -4.9776    4.4257    0.2809 H   0  0  0  0  0  0  0  0  0  0  0  0
   -5.9567    3.4763    1.4911 H   0  0  0  0  0  0  0  0  0  0  0  0
   -6.7593    4.7645    0.5314 H   0  0  0  0  0  0  0  0  0  0  0  0
    3.3759    4.0033   -0.0782 H   0  0  0  0  0  0  0  0  0  0  0  0
    5.2182    5.5492   -0.2267 H   0  0  0  0  0  0  0  0  0  0  0  0
    7.9562    2.2810    0.2306 H   0  0  0  0  0  0  0  0  0  0  0  0
  1  2  1  0
  2  3  1  0
  3  4  1  0
  4  5  1  0
  5  6  1  0
  6  7  2  0
  3  8  1  0
  8  9  2  0
  9 10  1  0
 10 11  1  0
 11 12  1  0
 12 13  2  0
 13 14  1  0
 14 15  1  0
 15 16  2  0
 16 17  1  0
 17 18  1  0
 18 19  2  0
 19 20  1  0
 20 21  2  0
 21 22  1  0
 22 23  2  0
 21 24  1  0
 24 25  1  0
 24 26  2  0
 24 27  2  0
 12 28  1  0
 28 29  2  0
 29 30  1  0
 30 31  2  0
 31 32  1  0
 31 33  1  0
 33 34  2  0
  6  2  1  0
 16  8  1  0
 23 18  1  0
 34 28  1  0
 14 10  2  0
  1 35  1  0
  1 36  1  0
  1 37  1  0
  3 38  1  0
  4 39  1  0
  4 40  1  0
  5 41  1  0
  5 42  1  0
  9 43  1  0
 11 44  1  0
 13 45  1  0
 15 46  1  0
 19 47  1  0
 20 48  1  0
 22 49  1  0
 23 50  1  0
 25 51  1  0
 25 52  1  0
 25 53  1  0
 29 54  1  0
 30 55  1  0
 33 56  1  0
M  END
$$$$
[H]OC(=O)c1c([H])c(N([H])S(=O)(=O)c2c([H])c([H])c(C(C([H])([H])[H])(C([H])([H])[H])C([H])([H])[H])c([H])c2[H])c([H])c([H])c1F
     RDKit          3D

 42 43  0  0  0  0  0  0  0  0999 V2000
   -4.5877    1.5000    0.6055 C   0  0  0  0  0  0  0  0  0  0  0  0
   -4.0065    0.5744   -0.4564 C   0  0  0  0  0  0  0  0  0  0  0  0
   -3.7316    1.3823   -1.7203 C   0  0  0  0  0  0  0  0  0  0  0  0
   -5.0363   -0.4633   -0.7906 C   0  0  0  0  0  0  0  0  0  0  0  0
   -2.7703   -0.0397    0.0792 C   0  0  0  0  0  0  0  0  0  0  0  0
   -2.2722    0.3648    1.3158 C   0  0  0  0  0  0  0  0  0  0  0  0
   -1.1222   -0.1444    1.8525 C   0  0  0  0  0  0  0  0  0  0  0  0
   -0.3646   -1.1230    1.1751 C   0  0  0  0  0  0  0  0  0  0  0  0
   -0.8542   -1.5212   -0.0384 C   0  0  0  0  0  0  0  0  0  0  0  0
   -2.0309   -0.9978   -0.5857 C   0  0  0  0  0  0  0  0  0  0  0  0
    1.0856   -1.6829    1.9554 S   0  0  0  0  0  0  0  0  0  0  0  0
    0.8090   -1.9819    3.4223 O   0  0  0  0  0  0  0  0  0  0  0  0
    1.4367   -3.0462    1.3704 O   0  0  0  0  0  0  0  0  0  0  0  0
    2.3774   -0.6370    1.7538 N   0  0  0  0  0  0  0  0  0  0  0  0
    3.0286   -0.2496    0.5732 C   0  0  0  0  0  0  0  0  0  0  0  0
    2.4669    0.1225   -0.6115 C   0  0  0  0  0  0  0  0  0  0  0  0
    3.2070    0.4713   -1.7325 C   0  0  0  0  0  0  0  0  0  0  0  0
    4.5770    0.4437   -1.6460 C   0  0  0  0  0  0  0  0  0  0  0  0
    5.3981    0.7677   -2.6816 F   0  0  0  0  0  0  0  0  0  0  0  0
    5.2152    0.0770   -0.4631 C   0  0  0  0  0  0  0  0  0  0  0  0
    4.4541   -0.2608    0.6157 C   0  0  0  0  0  0  0  0  0  0  0  0
    6.6790    0.0390   -0.3473 C   0  0  0  0  0  0  0  0  0  0  0  0
    7.1945   -0.0283    0.9649 O   0  0  0  0  0  0  0  0  0  0  0  0
    7.4418    0.0639   -1.3068 O   0  0  0  0  0  0  0  0  0  0  0  0
   -5.5518    1.8835    0.1457 H   0  0  0  0  0  0  0  0  0  0  0  0
   -4.8854    0.9184    1.4795 H   0  0  0  0  0  0  0  0  0  0  0  0
   -3.9518    2.3605    0.7846 H   0  0  0  0  0  0  0  0  0  0  0  0
   -3.0528    2.2059   -1.4823 H   0  0  0  0  0  0  0  0  0  0  0  0
   -3.2937    0.6969   -2.4778 H   0  0  0  0  0  0  0  0  0  0  0  0
   -4.6954    1.8476   -2.0601 H   0  0  0  0  0  0  0  0  0  0  0  0
   -4.9418   -1.3407   -0.1225 H   0  0  0  0  0  0  0  0  0  0  0  0
   -4.7869   -0.8554   -1.8129 H   0  0  0  0  0  0  0  0  0  0  0  0
   -6.0620   -0.0231   -0.7848 H   0  0  0  0  0  0  0  0  0  0  0  0
   -2.8376    1.1166    1.8716 H   0  0  0  0  0  0  0  0  0  0  0  0
   -0.7320    0.1694    2.8200 H   0  0  0  0  0  0  0  0  0  0  0  0
   -0.2850   -2.2718   -0.5667 H   0  0  0  0  0  0  0  0  0  0  0  0
   -2.3990   -1.3198   -1.5407 H   0  0  0  0  0  0  0  0  0  0  0  0
    2.7693   -0.1853    2.6551 H   0  0  0  0  0  0  0  0  0  0  0  0
    1.4027    0.1749   -0.6808 H   0  0  0  0  0  0  0  0  0  0  0  0
    2.6907    0.7556   -2.6288 H   0  0  0  0  0  0  0  0  0  0  0  0
    4.9211   -0.5584    1.5704 H   0  0  0  0  0  0  0  0  0  0  0  0
    7.0972    0.7949    1.5849 H   0  0  0  0  0  0  0  0  0  0  0  0
  1  2  1  0
  2  3  1  0
  2  4  1  0
  2  5  1  0
  5  6  2  0
  6  7  1  0
  7  8  2  0
  8  9  1  0
  9 10  2  0
  8 11  1  0
 11 12  2  0
 11 13  2  0
 11 14  1  0
 14 15  1  0
 15 16  2  0
 16 17  1  0
 17 18  2  0
 18 19  1  0
 18 20  1  0
 20 21  2  0
 20 22  1  0
 22 23  1  0
 22 24  2  0
 10  5  1  0
 21 15  1  0
  1 25  1  0
  1 26  1  0
  1 27  1  0
  3 28  1  0
  3 29  1  0
  3 30  1  0
  4 31  1  0
  4 32  1  0
  4 33  1  0
  6 34  1  0
  7 35  1  0
  9 36  1  0
 10 37  1  0
 14 38  1  0
 16 39  1  0
 17 40  1  0
 21 41  1  0
 23 42  1  0
M  END
$$$$
[H]c1c([H])c([H])c2c(c1[H])c1c3c(c4c5c([H])c([H])c([H])c([H])c5n5c4c1n2[C@@]1([H])O[C@]5(C([H])([H])[H])[C@@]([H])(OC([H])([H])[H])[C@@]([H])(N([H])C([H])([H])[H])C1([H])[H])C([H])([H])N([H])C3=O
     RDKit          3D

 61 68  0  0  0  0  0  0  0  0999 V2000
   -2.5900    1.1246    2.6909 C   0  0  0  0  0  0  0  0  0  0  0  0
   -2.2701    0.1494    1.6691 N   0  0  0  0  0  0  0  0  0  0  0  0
   -2.7037    0.7256    0.3894 C   0  0  1  0  0  0  0  0  0  0  0  0
   -1.9693    1.9591    0.0600 C   0  0  0  0  0  0  0  0  0  0  0  0
   -1.0374    1.8542   -1.1025 C   0  0  2  0  0  0  0  0  0  0  0  0
   -1.1108    0.8211   -1.8978 O   0  0  0  0  0  0  0  0  0  0  0  0
   -1.4719   -0.4453   -1.4993 C   0  0  2  0  0  0  0  0  0  0  0  0
   -1.8587   -1.0747   -2.8537 C   0  0  0  0  0  0  0  0  0  0  0  0
   -2.6627   -0.3659   -0.6565 C   0  0  1  0  0  0  0  0  0  0  0  0
   -3.0555   -1.5061    0.0270 O   0  0  0  0  0  0  0  0  0  0  0  0
   -4.3079   -1.9695   -0.2639 C   0  0  0  0  0  0  0  0  0  0  0  0
   -0.3020   -1.1026   -0.9411 N   0  0  0  0  0  0  0  0  0  0  0  0
   -0.0368   -2.4107   -0.8661 C   0  0  0  0  0  0  0  0  0  0  0  0
   -0.7505   -3.5118   -1.2342 C   0  0  0  0  0  0  0  0  0  0  0  0
   -0.2313   -4.7829   -1.0386 C   0  0  0  0  0  0  0  0  0  0  0  0
    1.0025   -5.0019   -0.4761 C   0  0  0  0  0  0  0  0  0  0  0  0
    1.7444   -3.8826   -0.0939 C   0  0  0  0  0  0  0  0  0  0  0  0
    1.2038   -2.6348   -0.3003 C   0  0  0  0  0  0  0  0  0  0  0  0
    1.7282   -1.3877   -0.0109 C   0  0  0  0  0  0  0  0  0  0  0  0
    2.9250   -0.9637    0.5498 C   0  0  0  0  0  0  0  0  0  0  0  0
    4.0703   -1.7821    1.0519 C   0  0  0  0  0  0  0  0  0  0  0  0
    5.0490   -0.8360    1.5052 N   0  0  0  0  0  0  0  0  0  0  0  0
    4.5511    0.4878    1.3292 C   0  0  0  0  0  0  0  0  0  0  0  0
    5.2116    1.4752    1.6612 O   0  0  0  0  0  0  0  0  0  0  0  0
    3.2325    0.3685    0.7340 C   0  0  0  0  0  0  0  0  0  0  0  0
    2.2736    1.2731    0.3281 C   0  0  0  0  0  0  0  0  0  0  0  0
    2.1943    2.6494    0.3519 C   0  0  0  0  0  0  0  0  0  0  0  0
    3.0346    3.6410    0.7719 C   0  0  0  0  0  0  0  0  0  0  0  0
    2.6237    4.9672    0.6424 C   0  0  0  0  0  0  0  0  0  0  0  0
    1.4040    5.3207    0.1079 C   0  0  0  0  0  0  0  0  0  0  0  0
    0.5569    4.3176   -0.3154 C   0  0  0  0  0  0  0  0  0  0  0  0
    0.9564    3.0255   -0.1896 C   0  0  0  0  0  0  0  0  0  0  0  0
    0.3179    1.9031   -0.5262 N   0  0  0  0  0  0  0  0  0  0  0  0
    1.0813    0.8475   -0.2300 C   0  0  0  0  0  0  0  0  0  0  0  0
    0.8029   -0.4946   -0.4048 C   0  0  0  0  0  0  0  0  0  0  0  0
   -1.7275    1.7656    2.9459 H   0  0  0  0  0  0  0  0  0  0  0  0
   -3.4000    1.7830    2.2910 H   0  0  0  0  0  0  0  0  0  0  0  0
   -3.0290    0.6437    3.5924 H   0  0  0  0  0  0  0  0  0  0  0  0
   -2.7602   -0.7186    1.9035 H   0  0  0  0  0  0  0  0  0  0  0  0
   -3.7998    0.9480    0.5957 H   0  0  0  0  0  0  0  0  0  0  0  0
   -1.4594    2.3204    1.0029 H   0  0  0  0  0  0  0  0  0  0  0  0
   -2.7065    2.7776   -0.1658 H   0  0  0  0  0  0  0  0  0  0  0  0
   -1.0912    2.7965   -1.7221 H   0  0  0  0  0  0  0  0  0  0  0  0
   -2.0056   -0.3257   -3.6573 H   0  0  0  0  0  0  0  0  0  0  0  0
   -1.0068   -1.6950   -3.1940 H   0  0  0  0  0  0  0  0  0  0  0  0
   -2.8277   -1.6039   -2.8044 H   0  0  0  0  0  0  0  0  0  0  0  0
   -3.5358   -0.1252   -1.3381 H   0  0  0  0  0  0  0  0  0  0  0  0
   -4.4650   -2.8889    0.3782 H   0  0  0  0  0  0  0  0  0  0  0  0
   -4.4865   -2.3125   -1.2897 H   0  0  0  0  0  0  0  0  0  0  0  0
   -5.1216   -1.2643    0.0633 H   0  0  0  0  0  0  0  0  0  0  0  0
   -1.7208   -3.3825   -1.6725 H   0  0  0  0  0  0  0  0  0  0  0  0
   -0.8491   -5.6109   -1.3524 H   0  0  0  0  0  0  0  0  0  0  0  0
    1.4213   -5.9802   -0.3168 H   0  0  0  0  0  0  0  0  0  0  0  0
    2.7206   -4.0420    0.3513 H   0  0  0  0  0  0  0  0  0  0  0  0
    3.7648   -2.4865    1.8473 H   0  0  0  0  0  0  0  0  0  0  0  0
    4.5351   -2.3717    0.2322 H   0  0  0  0  0  0  0  0  0  0  0  0
    5.9960   -1.0989    1.9084 H   0  0  0  0  0  0  0  0  0  0  0  0
    3.9823    3.4684    1.1903 H   0  0  0  0  0  0  0  0  0  0  0  0
    3.2909    5.7541    0.9750 H   0  0  0  0  0  0  0  0  0  0  0  0
    1.0902    6.3566    0.0099 H   0  0  0  0  0  0  0  0  0  0  0  0
   -0.4140    4.5350   -0.7434 H   0  0  0  0  0  0  0  0  0  0  0  0
  1  2  1  0
  2  3  1  0
  3  4  1  0
  4  5  1  0
  5  6  1  0
  6  7  1  0
  7  8  1  6
  7  9  1  0
  9 10  1  0
 10 11  1  0
  7 12  1  0
 12 13  1  0
 13 14  2  0
 14 15  1  0
 15 16  2  0
 16 17  1  0
 17 18  2  0
 18 19  1  0
 19 20  2  0
 20 21  1  0
 21 22  1  0
 22 23  1  0
 23 24  2  0
 23 25  1  0
 25 26  2  0
 26 27  1  0
 27 28  2  0
 28 29  1  0
 29 30  2  0
 30 31  1  0
 31 32  2  0
 32 33  1  0
 33 34  1  0
 34 35  2  0
  9  3  1  0
 35 12  1  0
 33  5  1  0
 18 13  1  0
 35 19  1  0
 25 20  1  0
 34 26  1  0
 32 27  1  0
  1 36  1  0
  1 37  1  0
  1 38  1  0
  2 39  1  0
  3 40  1  1
  4 41  1  0
  4 42  1  0
  5 43  1  6
  8 44  1  0
  8 45  1  0
  8 46  1  0
  9 47  1  6
 11 48  1  0
 11 49  1  0
 11 50  1  0
 14 51  1  0
 15 52  1  0
 16 53  1  0
 17 54  1  0
 21 55  1  0
 21 56  1  0
 22 57  1  0
 28 58  1  0
 29 59  1  0
 30 60  1  0
 31 61  1  0
M  END
$$$$
[H]c1nc([H])c2sc(C(=O)N([H])C([H])([H])[H])c([H])c2c1Oc1c([H])c([H])c(N([H])C(=O)c2c([H])c([H])c(C(F)(F)F)c([H])c2[H])c([H])c1[H]
     RDKit          3D

 49 52  0  0  0  0  0  0  0  0999 V2000
   -9.3298    1.2903    1.7503 C   0  0  0  0  0  0  0  0  0  0  0  0
   -8.0490    0.9211    1.1965 N   0  0  0  0  0  0  0  0  0  0  0  0
   -7.9803    0.0042    0.1539 C   0  0  0  0  0  0  0  0  0  0  0  0
   -9.0485   -0.4848   -0.2847 O   0  0  0  0  0  0  0  0  0  0  0  0
   -6.7407   -0.4534   -0.5157 C   0  0  0  0  0  0  0  0  0  0  0  0
   -5.4550   -0.0767   -0.2352 C   0  0  0  0  0  0  0  0  0  0  0  0
   -4.4646   -0.6476   -0.9723 C   0  0  0  0  0  0  0  0  0  0  0  0
   -3.0975   -0.4214   -0.9013 C   0  0  0  0  0  0  0  0  0  0  0  0
   -2.5463    0.4874    0.0437 O   0  0  0  0  0  0  0  0  0  0  0  0
   -1.1696    0.6694    0.0603 C   0  0  0  0  0  0  0  0  0  0  0  0
   -0.4097   -0.1841    0.8262 C   0  0  0  0  0  0  0  0  0  0  0  0
    0.9777   -0.0607    0.8852 C   0  0  0  0  0  0  0  0  0  0  0  0
    1.6441    0.9143    0.1779 C   0  0  0  0  0  0  0  0  0  0  0  0
    3.0668    1.0122    0.1614 N   0  0  0  0  0  0  0  0  0  0  0  0
    3.9125   -0.0989    0.2031 C   0  0  0  0  0  0  0  0  0  0  0  0
    3.3610   -1.2665    0.2375 O   0  0  0  0  0  0  0  0  0  0  0  0
    5.3522   -0.1257    0.2017 C   0  0  0  0  0  0  0  0  0  0  0  0
    6.1304    0.3956    1.2071 C   0  0  0  0  0  0  0  0  0  0  0  0
    7.5203    0.2990    1.1763 C   0  0  0  0  0  0  0  0  0  0  0  0
    8.1859   -0.3199    0.1300 C   0  0  0  0  0  0  0  0  0  0  0  0
    7.4009   -0.8345   -0.8787 C   0  0  0  0  0  0  0  0  0  0  0  0
    6.0467   -0.7475   -0.8546 C   0  0  0  0  0  0  0  0  0  0  0  0
    9.6695   -0.4377    0.0774 C   0  0  0  0  0  0  0  0  0  0  0  0
   10.1866   -0.8815    1.2647 F   0  0  0  0  0  0  0  0  0  0  0  0
   10.2609    0.6919   -0.3638 F   0  0  0  0  0  0  0  0  0  0  0  0
    9.9444   -1.4823   -0.8175 F   0  0  0  0  0  0  0  0  0  0  0  0
    0.8821    1.7701   -0.5773 C   0  0  0  0  0  0  0  0  0  0  0  0
   -0.5009    1.6408   -0.6293 C   0  0  0  0  0  0  0  0  0  0  0  0
   -2.2422   -1.0913   -1.7613 C   0  0  0  0  0  0  0  0  0  0  0  0
   -2.6427   -1.9685   -2.6865 N   0  0  0  0  0  0  0  0  0  0  0  0
   -3.9645   -2.2046   -2.7707 C   0  0  0  0  0  0  0  0  0  0  0  0
   -4.8717   -1.5522   -1.9280 C   0  0  0  0  0  0  0  0  0  0  0  0
   -6.5626   -1.5625   -1.7662 S   0  0  0  0  0  0  0  0  0  0  0  0
   -9.2241    2.1693    2.3930 H   0  0  0  0  0  0  0  0  0  0  0  0
   -9.7878    0.4576    2.3166 H   0  0  0  0  0  0  0  0  0  0  0  0
   -9.9854    1.5196    0.8377 H   0  0  0  0  0  0  0  0  0  0  0  0
   -7.1940    1.3410    1.6047 H   0  0  0  0  0  0  0  0  0  0  0  0
   -5.2665    0.6757    0.5488 H   0  0  0  0  0  0  0  0  0  0  0  0
   -0.8846   -0.9403    1.3926 H   0  0  0  0  0  0  0  0  0  0  0  0
    1.5158   -0.7376    1.5080 H   0  0  0  0  0  0  0  0  0  0  0  0
    3.4767    1.9860    0.1065 H   0  0  0  0  0  0  0  0  0  0  0  0
    5.6315    0.8975    2.0249 H   0  0  0  0  0  0  0  0  0  0  0  0
    8.0743    0.7521    1.9791 H   0  0  0  0  0  0  0  0  0  0  0  0
    7.9415   -1.3007   -1.7083 H   0  0  0  0  0  0  0  0  0  0  0  0
    5.4088   -1.1541   -1.6388 H   0  0  0  0  0  0  0  0  0  0  0  0
    1.3846    2.5710   -1.1223 H   0  0  0  0  0  0  0  0  0  0  0  0
   -1.0734    2.3288   -1.2238 H   0  0  0  0  0  0  0  0  0  0  0  0
   -1.1617   -0.8814   -1.6760 H   0  0  0  0  0  0  0  0  0  0  0  0
   -4.3221   -2.8781   -3.4946 H   0  0  0  0  0  0  0  0  0  0  0  0
  1  2  1  0
  2  3  1  0
  3  4  2  0
  3  5  1  0
  5  6  2  0
  6  7  1  0
  7  8  2  0
  8  9  1  0
  9 10  1  0
 10 11  2  0
 11 12  1  0
 12 13  2  0
 13 14  1  0
 14 15  1  0
 15 16  2  0
 15 17  1  0
 17 18  2  0
 18 19  1  0
 19 20  2  0
 20 21  1  0
 21 22  2  0
 20 23  1  0
 23 24  1  0
 23 25  1  0
 23 26  1  0
 13 27  1  0
 27 28  2  0
  8 29  1  0
 29 30  2  0
 30 31  1  0
 31 32  2  0
 32 33  1  0
 33  5  1  0
 32  7  1  0
 28 10  1  0
 22 17  1  0
  1 34  1  0
  1 35  1  0
  1 36  1  0
  2 37  1  0
  6 38  1  0
 11 39  1  0
 12 40  1  0
 14 41  1  0
 18 42  1  0
 19 43  1  0
 21 44  1  0
 22 45  1  0
 27 46  1  0
 28 47  1  0
 29 48  1  0
 31 49  1  0
M  END
$$$$
[H]c1c([H])c([H])c2c(c1[H])c1c3c(c4c5c([H])c([H])c([H])c([H])c5n5c4c1n2[C@@]1(C([H])([H])[H])O[C@]5([H])C([H])([H])[C@@]([H])(N([H])C([H])([H])[H])[C@@]1([H])OC([H])([H])[H])C(=O)N([H])C3([H])[H]
     RDKit          3D

 61 68  0  0  0  0  0  0  0  0999 V2000
   -3.3415   -2.0929    0.8927 C   0  0  0  0  0  0  0  0  0  0  0  0
   -2.7520   -0.8244    0.5060 N   0  0  0  0  0  0  0  0  0  0  0  0
   -2.5947   -0.7699   -0.9652 C   0  0  2  0  0  0  0  0  0  0  0  0
   -1.6635   -1.8336   -1.3456 C   0  0  0  0  0  0  0  0  0  0  0  0
   -0.4098   -1.3263   -1.9401 C   0  0  1  0  0  0  0  0  0  0  0  0
   -0.2904   -0.0961   -2.3609 O   0  0  0  0  0  0  0  0  0  0  0  0
   -0.9141    0.9817   -1.7381 C   0  0  1  0  0  0  0  0  0  0  0  0
   -0.8729    2.0231   -2.8643 C   0  0  0  0  0  0  0  0  0  0  0  0
   -2.2914    0.6326   -1.4119 C   0  0  2  0  0  0  0  0  0  0  0  0
   -2.9229    1.4324   -0.4622 O   0  0  0  0  0  0  0  0  0  0  0  0
   -4.0664    2.0564   -0.9455 C   0  0  0  0  0  0  0  0  0  0  0  0
   -0.0747    1.3904   -0.5981 N   0  0  0  0  0  0  0  0  0  0  0  0
    0.0066    2.5943   -0.0347 C   0  0  0  0  0  0  0  0  0  0  0  0
   -0.6403    3.7755   -0.2701 C   0  0  0  0  0  0  0  0  0  0  0  0
   -0.3753    4.9057    0.4704 C   0  0  0  0  0  0  0  0  0  0  0  0
    0.5715    4.8915    1.4994 C   0  0  0  0  0  0  0  0  0  0  0  0
    1.2169    3.7192    1.7374 C   0  0  0  0  0  0  0  0  0  0  0  0
    0.9447    2.6014    0.9941 C   0  0  0  0  0  0  0  0  0  0  0  0
    1.4533    1.3308    1.0530 C   0  0  0  0  0  0  0  0  0  0  0  0
    2.4134    0.7192    1.8621 C   0  0  0  0  0  0  0  0  0  0  0  0
    3.2252    1.2814    2.9656 C   0  0  0  0  0  0  0  0  0  0  0  0
    4.0513    0.2282    3.4563 N   0  0  0  0  0  0  0  0  0  0  0  0
    3.7725   -0.9500    2.6928 C   0  0  0  0  0  0  0  0  0  0  0  0
    4.3602   -2.0093    2.9202 O   0  0  0  0  0  0  0  0  0  0  0  0
    2.7553   -0.6238    1.7110 C   0  0  0  0  0  0  0  0  0  0  0  0
    2.1006   -1.3257    0.7242 C   0  0  0  0  0  0  0  0  0  0  0  0
    2.1422   -2.6347    0.2794 C   0  0  0  0  0  0  0  0  0  0  0  0
    2.8759   -3.7217    0.6638 C   0  0  0  0  0  0  0  0  0  0  0  0
    2.6892   -4.9254    0.0128 C   0  0  0  0  0  0  0  0  0  0  0  0
    1.7808   -5.0386   -1.0084 C   0  0  0  0  0  0  0  0  0  0  0  0
    1.0343   -3.9515   -1.4066 C   0  0  0  0  0  0  0  0  0  0  0  0
    1.2263   -2.7646   -0.7562 C   0  0  0  0  0  0  0  0  0  0  0  0
    0.6469   -1.5975   -0.9447 N   0  0  0  0  0  0  0  0  0  0  0  0
    1.1358   -0.7009   -0.0851 C   0  0  0  0  0  0  0  0  0  0  0  0
    0.8119    0.6350    0.0794 C   0  0  0  0  0  0  0  0  0  0  0  0
   -3.9345   -1.8764    1.8249 H   0  0  0  0  0  0  0  0  0  0  0  0
   -2.5804   -2.8202    1.1896 H   0  0  0  0  0  0  0  0  0  0  0  0
   -4.0376   -2.4413    0.1071 H   0  0  0  0  0  0  0  0  0  0  0  0
   -1.8252   -0.7857    0.9817 H   0  0  0  0  0  0  0  0  0  0  0  0
   -3.6418   -1.0758   -1.3069 H   0  0  0  0  0  0  0  0  0  0  0  0
   -1.4743   -2.5407   -0.4944 H   0  0  0  0  0  0  0  0  0  0  0  0
   -2.1827   -2.5069   -2.1019 H   0  0  0  0  0  0  0  0  0  0  0  0
   -0.1764   -2.0147   -2.8352 H   0  0  0  0  0  0  0  0  0  0  0  0
   -1.8561    2.5173   -2.9808 H   0  0  0  0  0  0  0  0  0  0  0  0
   -0.0367    2.7359   -2.7018 H   0  0  0  0  0  0  0  0  0  0  0  0
   -0.6761    1.5932   -3.8662 H   0  0  0  0  0  0  0  0  0  0  0  0
   -2.9127    0.7625   -2.3525 H   0  0  0  0  0  0  0  0  0  0  0  0
   -4.5472    2.6842   -0.1440 H   0  0  0  0  0  0  0  0  0  0  0  0
   -3.8494    2.7776   -1.7563 H   0  0  0  0  0  0  0  0  0  0  0  0
   -4.7942    1.3294   -1.3803 H   0  0  0  0  0  0  0  0  0  0  0  0
   -1.3647    3.8112   -1.0348 H   0  0  0  0  0  0  0  0  0  0  0  0
   -0.8845    5.8355    0.2847 H   0  0  0  0  0  0  0  0  0  0  0  0
    0.7949    5.7654    2.0918 H   0  0  0  0  0  0  0  0  0  0  0  0
    1.9682    3.6487    2.5304 H   0  0  0  0  0  0  0  0  0  0  0  0
    3.8868    2.0907    2.5395 H   0  0  0  0  0  0  0  0  0  0  0  0
    2.5967    1.6993    3.7873 H   0  0  0  0  0  0  0  0  0  0  0  0
    4.7363    0.3270    4.2421 H   0  0  0  0  0  0  0  0  0  0  0  0
    3.5871   -3.7061    1.4353 H   0  0  0  0  0  0  0  0  0  0  0  0
    3.2659   -5.8106    0.3031 H   0  0  0  0  0  0  0  0  0  0  0  0
    1.6292   -5.9934   -1.5280 H   0  0  0  0  0  0  0  0  0  0  0  0
    0.3048   -4.0175   -2.2172 H   0  0  0  0  0  0  0  0  0  0  0  0
  1  2  1  0
  2  3  1  0
  3  4  1  0
  4  5  1  0
  5  6  1  0
  6  7  1  0
  7  8  1  6
  7  9  1  0
  9 10  1  0
 10 11  1  0
  7 12  1  0
 12 13  1  0
 13 14  2  0
 14 15  1  0
 15 16  2  0
 16 17  1  0
 17 18  2  0
 18 19  1  0
 19 20  2  0
 20 21  1  0
 21 22  1  0
 22 23  1  0
 23 24  2  0
 23 25  1  0
 25 26  2  0
 26 27  1  0
 27 28  2  0
 28 29  1  0
 29 30  2  0
 30 31  1  0
 31 32  2  0
 32 33  1  0
 33 34  1  0
 34 35  2  0
  9  3  1  0
 35 12  1  0
 33  5  1  0
 18 13  1  0
 35 19  1  0
 25 20  1  0
 34 26  1  0
 32 27  1  0
  1 36  1  0
  1 37  1  0
  1 38  1  0
  2 39  1  0
  3 40  1  6
  4 41  1  0
  4 42  1  0
  5 43  1  6
  8 44  1  0
  8 45  1  0
  8 46  1  0
  9 47  1  6
 11 48  1  0
 11 49  1  0
 11 50  1  0
 14 51  1  0
 15 52  1  0
 16 53  1  0
 17 54  1  0
 21 55  1  0
 21 56  1  0
 22 57  1  0
 28 58  1  0
 29 59  1  0
 30 60  1  0
 31 61  1  0
M  END
$$$$
[H]N=C(N([H])[H])N([H])C([H])([H])C([H])([H])C([H])([H])[C@]1([H])N([H])C(=O)[C@@]2([H])N(C(=O)[C@@]3([H])N1C([H])([H])C([H])([H])C3([H])[H])C([H])([H])C([H])([H])C2([H])[H]
     RDKit          3D

 49 51  0  0  0  0  0  0  0  0999 V2000
    6.0510    1.1813    0.6729 N   0  0  0  0  0  0  0  0  0  0  0  0
    4.8907    0.3290    0.7431 C   0  0  0  0  0  0  0  0  0  0  0  0
    5.1016   -0.9196    0.9043 N   0  0  0  0  0  0  0  0  0  0  0  0
    3.6048    0.9106    0.6335 N   0  0  0  0  0  0  0  0  0  0  0  0
    2.9948    0.9794   -0.6923 C   0  0  0  0  0  0  0  0  0  0  0  0
    2.6245   -0.3648   -1.2002 C   0  0  0  0  0  0  0  0  0  0  0  0
    1.6250   -1.1135   -0.4053 C   0  0  0  0  0  0  0  0  0  0  0  0
    0.2490   -0.5665   -0.3553 C   0  0  2  0  0  0  0  0  0  0  0  0
    0.1264    0.7381    0.2157 N   0  0  0  0  0  0  0  0  0  0  0  0
   -0.7921    1.8189   -0.0813 C   0  0  0  0  0  0  0  0  0  0  0  0
   -0.4174    2.9401    0.3149 O   0  0  0  0  0  0  0  0  0  0  0  0
   -2.1047    1.8700   -0.7683 C   0  0  2  0  0  0  0  0  0  0  0  0
   -2.7935    3.1827   -0.6049 C   0  0  0  0  0  0  0  0  0  0  0  0
   -3.7549    2.9431    0.5362 C   0  0  0  0  0  0  0  0  0  0  0  0
   -4.1778    1.4919    0.2692 C   0  0  0  0  0  0  0  0  0  0  0  0
   -2.9939    0.8514   -0.2539 N   0  0  0  0  0  0  0  0  0  0  0  0
   -2.9223   -0.5564   -0.1729 C   0  0  0  0  0  0  0  0  0  0  0  0
   -3.9585   -1.1232    0.2735 O   0  0  0  0  0  0  0  0  0  0  0  0
   -1.8762   -1.5586   -0.5013 C   0  0  2  0  0  0  0  0  0  0  0  0
   -2.3122   -2.9727   -0.3626 C   0  0  0  0  0  0  0  0  0  0  0  0
   -0.9613   -3.7001   -0.2169 C   0  0  0  0  0  0  0  0  0  0  0  0
   -0.2980   -2.6907    0.7555 C   0  0  0  0  0  0  0  0  0  0  0  0
   -0.7109   -1.4288    0.3064 N   0  0  0  0  0  0  0  0  0  0  0  0
    6.3706    1.5433   -0.2321 H   0  0  0  0  0  0  0  0  0  0  0  0
    6.5562    1.4257    1.5347 H   0  0  0  0  0  0  0  0  0  0  0  0
    4.3879   -1.6613    0.9745 H   0  0  0  0  0  0  0  0  0  0  0  0
    3.1152    1.2728    1.4587 H   0  0  0  0  0  0  0  0  0  0  0  0
    3.8177    1.4221   -1.3743 H   0  0  0  0  0  0  0  0  0  0  0  0
    2.2164    1.7155   -0.7262 H   0  0  0  0  0  0  0  0  0  0  0  0
    2.1616   -0.2039   -2.2214 H   0  0  0  0  0  0  0  0  0  0  0  0
    3.5586   -0.9880   -1.3796 H   0  0  0  0  0  0  0  0  0  0  0  0
    2.0697   -1.2000    0.6435 H   0  0  0  0  0  0  0  0  0  0  0  0
    1.6181   -2.2113   -0.7212 H   0  0  0  0  0  0  0  0  0  0  0  0
   -0.1490   -0.5380   -1.4481 H   0  0  0  0  0  0  0  0  0  0  0  0
    0.7386    1.0186    0.9864 H   0  0  0  0  0  0  0  0  0  0  0  0
   -1.9636    1.6354   -1.8672 H   0  0  0  0  0  0  0  0  0  0  0  0
   -3.4110    3.3664   -1.5059 H   0  0  0  0  0  0  0  0  0  0  0  0
   -2.0896    4.0108   -0.3935 H   0  0  0  0  0  0  0  0  0  0  0  0
   -3.1925    2.9904    1.5075 H   0  0  0  0  0  0  0  0  0  0  0  0
   -4.6182    3.6326    0.5120 H   0  0  0  0  0  0  0  0  0  0  0  0
   -4.9215    1.5620   -0.5581 H   0  0  0  0  0  0  0  0  0  0  0  0
   -4.5863    1.0251    1.1702 H   0  0  0  0  0  0  0  0  0  0  0  0
   -1.5697   -1.4211   -1.5788 H   0  0  0  0  0  0  0  0  0  0  0  0
   -2.8191   -3.2990   -1.2950 H   0  0  0  0  0  0  0  0  0  0  0  0
   -2.9168   -3.1661    0.5532 H   0  0  0  0  0  0  0  0  0  0  0  0
   -1.0560   -4.6910    0.2180 H   0  0  0  0  0  0  0  0  0  0  0  0
   -0.4242   -3.6186   -1.1649 H   0  0  0  0  0  0  0  0  0  0  0  0
   -0.8326   -2.9181    1.7385 H   0  0  0  0  0  0  0  0  0  0  0  0
    0.7455   -2.9460    0.8175 H   0  0  0  0  0  0  0  0  0  0  0  0
  1  2  1  0
  2  3  2  3
  2  4  1  0
  4  5  1  0
  5  6  1  0
  6  7  1  0
  7  8  1  0
  8  9  1  0
  9 10  1  0
 10 11  2  0
 10 12  1  0
 12 13  1  0
 13 14  1  0
 14 15  1  0
 15 16  1  0
 16 17  1  0
 17 18  2  0
 17 19  1  0
 19 20  1  0
 20 21  1  0
 21 22  1  0
 22 23  1  0
 23  8  1  0
 16 12  1  0
 23 19  1  0
  1 24  1  0
  1 25  1  0
  3 26  1  0
  4 27  1  0
  5 28  1  0
  5 29  1  0
  6 30  1  0
  6 31  1  0
  7 32  1  0
  7 33  1  0
  8 34  1  6
  9 35  1  0
 12 36  1  6
 13 37  1  0
 13 38  1  0
 14 39  1  0
 14 40  1  0
 15 41  1  0
 15 42  1  0
 19 43  1  6
 20 44  1  0
 20 45  1  0
 21 46  1  0
 21 47  1  0
 22 48  1  0
 22 49  1  0
M  END
$$$$
[H]c1nc(N([H])[H])c2c(-c3sc4c(OC([H])([H])[H])c([H])c(C([H])([H])[H])c([H])c4c3[H])c(C([H])([H])OC([H])([H])C([H])([H])[H])c(C(=O)N3C([H])([H])C([H])([H])OC([H])([H])C3([H])[H])n2n1
     RDKit          3D

 61 65  0  0  0  0  0  0  0  0999 V2000
   -1.5338   -3.8007   -4.2556 C   0  0  0  0  0  0  0  0  0  0  0  0
   -2.3255   -3.2793   -2.9885 C   0  0  0  0  0  0  0  0  0  0  0  0
   -1.7996   -2.2720   -2.5015 O   0  0  0  0  0  0  0  0  0  0  0  0
   -1.2470   -1.2037   -2.0128 C   0  0  0  0  0  0  0  0  0  0  0  0
   -1.1675   -1.1367   -0.5183 C   0  0  0  0  0  0  0  0  0  0  0  0
   -0.1309   -1.1597    0.2797 C   0  0  0  0  0  0  0  0  0  0  0  0
    1.2952   -0.7985   -0.0229 C   0  0  0  0  0  0  0  0  0  0  0  0
    1.7250    0.4940    0.4459 C   0  0  0  0  0  0  0  0  0  0  0  0
    2.9470    0.8719    0.2546 C   0  0  0  0  0  0  0  0  0  0  0  0
    3.5936    2.0698    0.7283 C   0  0  0  0  0  0  0  0  0  0  0  0
    4.9326    2.2744    0.5392 C   0  0  0  0  0  0  0  0  0  0  0  0
    5.4823    3.5471    1.1971 C   0  0  0  0  0  0  0  0  0  0  0  0
    5.7762    1.4217   -0.0841 C   0  0  0  0  0  0  0  0  0  0  0  0
    5.1386    0.2304   -0.5629 C   0  0  0  0  0  0  0  0  0  0  0  0
    5.8402   -0.7273   -1.2280 O   0  0  0  0  0  0  0  0  0  0  0  0
    7.2388   -0.6083   -1.3733 C   0  0  0  0  0  0  0  0  0  0  0  0
    3.7788   -0.0149   -0.3863 C   0  0  0  0  0  0  0  0  0  0  0  0
    2.6996   -1.3312   -0.6757 S   0  0  0  0  0  0  0  0  0  0  0  0
   -0.5568   -1.1111    1.6641 C   0  0  0  0  0  0  0  0  0  0  0  0
    0.2011   -1.2558    2.8337 C   0  0  0  0  0  0  0  0  0  0  0  0
    1.5850   -1.3914    2.7663 N   0  0  0  0  0  0  0  0  0  0  0  0
   -0.5064   -1.3399    3.9642 N   0  0  0  0  0  0  0  0  0  0  0  0
   -1.8196   -1.2970    3.9441 C   0  0  0  0  0  0  0  0  0  0  0  0
   -2.5538   -1.1472    2.7840 N   0  0  0  0  0  0  0  0  0  0  0  0
   -1.8985   -1.0334    1.6225 N   0  0  0  0  0  0  0  0  0  0  0  0
   -2.3158   -1.0080    0.3609 C   0  0  0  0  0  0  0  0  0  0  0  0
   -3.5151   -0.5554   -0.2729 C   0  0  0  0  0  0  0  0  0  0  0  0
   -3.9335   -0.9322   -1.4086 O   0  0  0  0  0  0  0  0  0  0  0  0
   -4.3577    0.4644    0.2963 N   0  0  0  0  0  0  0  0  0  0  0  0
   -4.6112    1.0850    1.5153 C   0  0  0  0  0  0  0  0  0  0  0  0
   -5.7140    2.1290    1.3219 C   0  0  0  0  0  0  0  0  0  0  0  0
   -5.1443    3.2704    0.7029 O   0  0  0  0  0  0  0  0  0  0  0  0
   -4.3442    2.7899   -0.3328 C   0  0  0  0  0  0  0  0  0  0  0  0
   -4.7389    1.4745   -0.8682 C   0  0  0  0  0  0  0  0  0  0  0  0
   -1.4563   -2.9586   -4.9777 H   0  0  0  0  0  0  0  0  0  0  0  0
   -0.5205   -4.0211   -3.8748 H   0  0  0  0  0  0  0  0  0  0  0  0
   -1.9801   -4.7000   -4.6728 H   0  0  0  0  0  0  0  0  0  0  0  0
   -3.3941   -3.3680   -3.2931 H   0  0  0  0  0  0  0  0  0  0  0  0
   -2.2487   -4.2476   -2.3288 H   0  0  0  0  0  0  0  0  0  0  0  0
   -0.2986   -0.8811   -2.5152 H   0  0  0  0  0  0  0  0  0  0  0  0
   -1.9741   -0.3016   -2.2375 H   0  0  0  0  0  0  0  0  0  0  0  0
    0.9122    1.1181    0.9598 H   0  0  0  0  0  0  0  0  0  0  0  0
    3.0059    2.8229    1.2457 H   0  0  0  0  0  0  0  0  0  0  0  0
    5.4042    3.3459    2.3221 H   0  0  0  0  0  0  0  0  0  0  0  0
    6.4939    3.7353    0.8805 H   0  0  0  0  0  0  0  0  0  0  0  0
    4.8033    4.3897    0.9996 H   0  0  0  0  0  0  0  0  0  0  0  0
    6.7831    1.5913   -0.2134 H   0  0  0  0  0  0  0  0  0  0  0  0
    7.5490   -1.4965   -1.9355 H   0  0  0  0  0  0  0  0  0  0  0  0
    7.6009    0.3635   -1.6503 H   0  0  0  0  0  0  0  0  0  0  0  0
    7.7845   -0.7771   -0.3610 H   0  0  0  0  0  0  0  0  0  0  0  0
    2.2650   -0.7219    3.1854 H   0  0  0  0  0  0  0  0  0  0  0  0
    2.0412   -2.2155    2.3146 H   0  0  0  0  0  0  0  0  0  0  0  0
   -2.2885   -1.3802    4.9433 H   0  0  0  0  0  0  0  0  0  0  0  0
   -5.0389    0.3904    2.2977 H   0  0  0  0  0  0  0  0  0  0  0  0
   -3.7671    1.6106    1.9744 H   0  0  0  0  0  0  0  0  0  0  0  0
   -6.0597    2.4819    2.3126 H   0  0  0  0  0  0  0  0  0  0  0  0
   -6.5525    1.7895    0.7436 H   0  0  0  0  0  0  0  0  0  0  0  0
   -3.3093    2.6794    0.1214 H   0  0  0  0  0  0  0  0  0  0  0  0
   -4.2621    3.5792   -1.1188 H   0  0  0  0  0  0  0  0  0  0  0  0
   -3.8676    1.2276   -1.6012 H   0  0  0  0  0  0  0  0  0  0  0  0
   -5.6453    1.2253   -1.2494 H   0  0  0  0  0  0  0  0  0  0  0  0
  1  2  1  0
  2  3  1  0
  3  4  1  0
  4  5  1  0
  5  6  1  0
  6  7  1  0
  7  8  2  0
  8  9  1  0
  9 10  2  0
 10 11  1  0
 11 12  1  0
 11 13  2  0
 13 14  1  0
 14 15  1  0
 15 16  1  0
 14 17  2  0
 17 18  1  0
  6 19  2  0
 19 20  1  0
 20 21  1  0
 20 22  2  0
 22 23  1  0
 23 24  2  0
 24 25  1  0
 25 26  1  0
 26 27  1  0
 27 28  2  0
 27 29  1  0
 29 30  1  0
 30 31  1  0
 31 32  1  0
 32 33  1  0
 33 34  1  0
 26  5  2  0
 34 29  1  0
 18  7  1  0
 25 19  1  0
 17  9  1  0
  1 35  1  0
  1 36  1  0
  1 37  1  0
  2 38  1  0
  2 39  1  0
  4 40  1  0
  4 41  1  0
  8 42  1  0
 10 43  1  0
 12 44  1  0
 12 45  1  0
 12 46  1  0
 13 47  1  0
 16 48  1  0
 16 49  1  0
 16 50  1  0
 21 51  1  0
 21 52  1  0
 23 53  1  0
 30 54  1  0
 30 55  1  0
 31 56  1  0
 31 57  1  0
 33 58  1  0
 33 59  1  0
 34 60  1  0
 34 61  1  0
M  END
$$$$
[H]c1c([H])c([H])c(C2(C(=O)N3C([H])([H])C([H])([H])C([H])([H])C3([H])[H])C([H])([H])C([H])([H])N(C([H])([H])C([H])([H])[C@@]3(c4c([H])c([H])c(Cl)c(Cl)c4[H])C([H])([H])N(C(=O)c4c([H])c(OC([H])([H])[H])c(OC([H])([H])[H])c(OC([H])([H])[H])c4[H])C([H])([H])C3([H])[H])C([H])([H])C2([H])[H])c([H])c1[H]
     RDKit          3D

 93 98  0  0  0  0  0  0  0  0999 V2000
    8.2511   -0.4532    3.9038 C   0  0  0  0  0  0  0  0  0  0  0  0
    8.8965   -0.3632    2.6536 O   0  0  0  0  0  0  0  0  0  0  0  0
    8.1266   -0.4569    1.5011 C   0  0  0  0  0  0  0  0  0  0  0  0
    6.7691   -0.6319    1.5590 C   0  0  0  0  0  0  0  0  0  0  0  0
    5.9784   -0.7258    0.3923 C   0  0  0  0  0  0  0  0  0  0  0  0
    6.6512   -0.6328   -0.7923 C   0  0  0  0  0  0  0  0  0  0  0  0
    8.0438   -0.4532   -0.8432 C   0  0  0  0  0  0  0  0  0  0  0  0
    8.7043   -0.3599   -2.0761 O   0  0  0  0  0  0  0  0  0  0  0  0
    7.9431   -0.4455   -3.2506 C   0  0  0  0  0  0  0  0  0  0  0  0
    8.7931   -0.3638    0.3023 C   0  0  0  0  0  0  0  0  0  0  0  0
   10.1688   -0.1863    0.2542 O   0  0  0  0  0  0  0  0  0  0  0  0
   10.9875   -1.3387    0.2275 C   0  0  0  0  0  0  0  0  0  0  0  0
    4.5736   -0.9230    0.4882 C   0  0  0  0  0  0  0  0  0  0  0  0
    4.1578   -1.1032    1.7259 O   0  0  0  0  0  0  0  0  0  0  0  0
    3.5334   -0.9683   -0.4295 N   0  0  0  0  0  0  0  0  0  0  0  0
    3.3738   -0.8373   -1.8419 C   0  0  0  0  0  0  0  0  0  0  0  0
    2.2192    0.2014   -1.9181 C   0  0  0  0  0  0  0  0  0  0  0  0
    1.4074   -0.1003   -0.6599 C   0  0  1  0  0  0  0  0  0  0  0  0
   -0.0204   -0.4206   -1.1454 C   0  0  0  0  0  0  0  0  0  0  0  0
   -0.8980   -0.7536    0.0304 C   0  0  0  0  0  0  0  0  0  0  0  0
   -2.2466   -0.9954   -0.4586 N   0  0  0  0  0  0  0  0  0  0  0  0
   -3.0862   -1.5500    0.5641 C   0  0  0  0  0  0  0  0  0  0  0  0
   -3.8721   -0.5238    1.2780 C   0  0  0  0  0  0  0  0  0  0  0  0
   -4.8670    0.0302    0.2377 C   0  0  0  0  0  0  0  0  0  0  0  0
   -4.0998    0.6465   -0.8806 C   0  0  0  0  0  0  0  0  0  0  0  0
   -2.7681    0.1103   -1.1876 C   0  0  0  0  0  0  0  0  0  0  0  0
   -5.6596    1.0680    0.9298 C   0  0  0  0  0  0  0  0  0  0  0  0
   -5.2668    1.3703    2.1234 O   0  0  0  0  0  0  0  0  0  0  0  0
   -6.7759    1.7487    0.4340 N   0  0  0  0  0  0  0  0  0  0  0  0
   -7.5117    1.7110   -0.8028 C   0  0  0  0  0  0  0  0  0  0  0  0
   -8.9338    1.4842   -0.2541 C   0  0  0  0  0  0  0  0  0  0  0  0
   -8.9129    2.2121    1.0953 C   0  0  0  0  0  0  0  0  0  0  0  0
   -7.4987    2.7758    1.2160 C   0  0  0  0  0  0  0  0  0  0  0  0
   -5.7098   -1.1016   -0.1679 C   0  0  0  0  0  0  0  0  0  0  0  0
   -5.6501   -1.7290   -1.3962 C   0  0  0  0  0  0  0  0  0  0  0  0
   -6.4431   -2.7882   -1.7711 C   0  0  0  0  0  0  0  0  0  0  0  0
   -7.3703   -3.2724   -0.8698 C   0  0  0  0  0  0  0  0  0  0  0  0
   -7.4516   -2.6636    0.3664 C   0  0  0  0  0  0  0  0  0  0  0  0
   -6.6387   -1.5910    0.7273 C   0  0  0  0  0  0  0  0  0  0  0  0
    2.0948   -1.2297   -0.0301 C   0  0  0  0  0  0  0  0  0  0  0  0
    1.2802    1.1507    0.0939 C   0  0  0  0  0  0  0  0  0  0  0  0
    1.4508    1.2749    1.4327 C   0  0  0  0  0  0  0  0  0  0  0  0
    1.2979    2.5172    2.0192 C   0  0  0  0  0  0  0  0  0  0  0  0
    0.9740    3.6524    1.2922 C   0  0  0  0  0  0  0  0  0  0  0  0
    0.7927    5.2163    2.0870 Cl  0  0  0  0  0  0  0  0  0  0  0  0
    0.8028    3.5063   -0.0714 C   0  0  0  0  0  0  0  0  0  0  0  0
    0.3921    4.9478   -0.9769 Cl  0  0  0  0  0  0  0  0  0  0  0  0
    0.9502    2.2745   -0.6873 C   0  0  0  0  0  0  0  0  0  0  0  0
    7.9049   -1.4779    4.1298 H   0  0  0  0  0  0  0  0  0  0  0  0
    8.9185   -0.1084    4.7354 H   0  0  0  0  0  0  0  0  0  0  0  0
    7.3972    0.2674    3.9005 H   0  0  0  0  0  0  0  0  0  0  0  0
    6.2684   -0.7022    2.5196 H   0  0  0  0  0  0  0  0  0  0  0  0
    6.1698   -0.7030   -1.7302 H   0  0  0  0  0  0  0  0  0  0  0  0
    7.1815    0.3711   -3.3170 H   0  0  0  0  0  0  0  0  0  0  0  0
    7.3811   -1.4019   -3.3278 H   0  0  0  0  0  0  0  0  0  0  0  0
    8.5766   -0.3256   -4.1513 H   0  0  0  0  0  0  0  0  0  0  0  0
   11.2743   -1.6125   -0.8242 H   0  0  0  0  0  0  0  0  0  0  0  0
   11.9400   -1.1695    0.7911 H   0  0  0  0  0  0  0  0  0  0  0  0
   10.4696   -2.2295    0.6373 H   0  0  0  0  0  0  0  0  0  0  0  0
    4.1922   -0.5160   -2.4524 H   0  0  0  0  0  0  0  0  0  0  0  0
    2.9803   -1.8047   -2.2699 H   0  0  0  0  0  0  0  0  0  0  0  0
    2.7180    1.1868   -1.8549 H   0  0  0  0  0  0  0  0  0  0  0  0
    1.6579    0.0503   -2.8413 H   0  0  0  0  0  0  0  0  0  0  0  0
   -0.3146    0.4162   -1.7588 H   0  0  0  0  0  0  0  0  0  0  0  0
    0.1364   -1.3234   -1.8088 H   0  0  0  0  0  0  0  0  0  0  0  0
   -0.5505   -1.7587    0.4118 H   0  0  0  0  0  0  0  0  0  0  0  0
   -0.8373    0.0171    0.7934 H   0  0  0  0  0  0  0  0  0  0  0  0
   -2.3669   -1.9961    1.3195 H   0  0  0  0  0  0  0  0  0  0  0  0
   -3.6846   -2.4342    0.2361 H   0  0  0  0  0  0  0  0  0  0  0  0
   -4.4340   -0.8657    2.1502 H   0  0  0  0  0  0  0  0  0  0  0  0
   -3.1963    0.2829    1.6189 H   0  0  0  0  0  0  0  0  0  0  0  0
   -4.7593    0.6333   -1.8024 H   0  0  0  0  0  0  0  0  0  0  0  0
   -4.0557    1.7596   -0.6560 H   0  0  0  0  0  0  0  0  0  0  0  0
   -2.0361    0.9619   -1.0093 H   0  0  0  0  0  0  0  0  0  0  0  0
   -2.5999   -0.1233   -2.2816 H   0  0  0  0  0  0  0  0  0  0  0  0
   -7.2663    0.9130   -1.4904 H   0  0  0  0  0  0  0  0  0  0  0  0
   -7.5077    2.7173   -1.3063 H   0  0  0  0  0  0  0  0  0  0  0  0
   -8.9767    0.4042   -0.0180 H   0  0  0  0  0  0  0  0  0  0  0  0
   -9.7098    1.8579   -0.9184 H   0  0  0  0  0  0  0  0  0  0  0  0
   -9.6881    2.9881    1.1534 H   0  0  0  0  0  0  0  0  0  0  0  0
   -9.0391    1.5213    1.9455 H   0  0  0  0  0  0  0  0  0  0  0  0
   -7.1511    2.8360    2.2439 H   0  0  0  0  0  0  0  0  0  0  0  0
   -7.5015    3.7474    0.6776 H   0  0  0  0  0  0  0  0  0  0  0  0
   -4.9251   -1.3562   -2.1005 H   0  0  0  0  0  0  0  0  0  0  0  0
   -6.3431   -3.2405   -2.7701 H   0  0  0  0  0  0  0  0  0  0  0  0
   -7.9788   -4.0976   -1.1843 H   0  0  0  0  0  0  0  0  0  0  0  0
   -8.2003   -3.0812    1.0445 H   0  0  0  0  0  0  0  0  0  0  0  0
   -6.7835   -1.1978    1.7115 H   0  0  0  0  0  0  0  0  0  0  0  0
    1.8489   -2.1590   -0.5837 H   0  0  0  0  0  0  0  0  0  0  0  0
    2.0127   -1.3770    1.0336 H   0  0  0  0  0  0  0  0  0  0  0  0
    1.7003    0.3859    1.9960 H   0  0  0  0  0  0  0  0  0  0  0  0
    1.4406    2.5837    3.0856 H   0  0  0  0  0  0  0  0  0  0  0  0
    0.8038    2.2243   -1.7494 H   0  0  0  0  0  0  0  0  0  0  0  0
  1  2  1  0
  2  3  1  0
  3  4  2  0
  4  5  1  0
  5  6  2  0
  6  7  1  0
  7  8  1  0
  8  9  1  0
  7 10  2  0
 10 11  1  0
 11 12  1  0
  5 13  1  0
 13 14  2  0
 13 15  1  0
 15 16  1  0
 16 17  1  0
 17 18  1  0
 18 19  1  6
 19 20  1  0
 20 21  1  0
 21 22  1  0
 22 23  1  0
 23 24  1  0
 24 25  1  0
 25 26  1  0
 24 27  1  0
 27 28  2  0
 27 29  1  0
 29 30  1  0
 30 31  1  0
 31 32  1  0
 32 33  1  0
 24 34  1  0
 34 35  2  0
 35 36  1  0
 36 37  2  0
 37 38  1  0
 38 39  2  0
 18 40  1  0
 18 41  1  0
 41 42  2  0
 42 43  1  0
 43 44  2  0
 44 45  1  0
 44 46  1  0
 46 47  1  0
 46 48  2  0
 10  3  1  0
 40 15  1  0
 48 41  1  0
 26 21  1  0
 33 29  1  0
 39 34  1  0
  1 49  1  0
  1 50  1  0
  1 51  1  0
  4 52  1  0
  6 53  1  0
  9 54  1  0
  9 55  1  0
  9 56  1  0
 12 57  1  0
 12 58  1  0
 12 59  1  0
 16 60  1  0
 16 61  1  0
 17 62  1  0
 17 63  1  0
 19 64  1  0
 19 65  1  0
 20 66  1  0
 20 67  1  0
 22 68  1  0
 22 69  1  0
 23 70  1  0
 23 71  1  0
 25 72  1  0
 25 73  1  0
 26 74  1  0
 26 75  1  0
 30 76  1  0
 30 77  1  0
 31 78  1  0
 31 79  1  0
 32 80  1  0
 32 81  1  0
 33 82  1  0
 33 83  1  0
 35 84  1  0
 36 85  1  0
 37 86  1  0
 38 87  1  0
 39 88  1  0
 40 89  1  0
 40 90  1  0
 42 91  1  0
 43 92  1  0
 48 93  1  0
M  END
$$$$
[H]c1c([H])c([H])c2c(c1[H])c(C(=O)OC1([H])C([H])([H])C3([H])N(C([H])([H])[H])C([H])(C([H])([H])C3([H])[H])C1([H])[H])c([H])n2C([H])([H])[H]
     RDKit          3D

 44 47  0  0  0  0  0  0  0  0999 V2000
   -5.4970   -0.4475   -0.0240 C   0  0  0  0  0  0  0  0  0  0  0  0
   -4.0838   -0.5354    0.1557 N   0  0  0  0  0  0  0  0  0  0  0  0
   -3.3767   -0.3601   -1.0998 C   0  0  0  0  0  0  0  0  0  0  0  0
   -3.2702    1.1285   -1.3340 C   0  0  0  0  0  0  0  0  0  0  0  0
   -3.8161    1.7373   -0.0430 C   0  0  0  0  0  0  0  0  0  0  0  0
   -3.5825    0.5909    0.9243 C   0  0  0  0  0  0  0  0  0  0  0  0
   -2.1069    0.4797    1.1664 C   0  0  0  0  0  0  0  0  0  0  0  0
   -1.4520   -0.6739    0.4769 C   0  0  0  0  0  0  0  0  0  0  0  0
   -1.9973   -0.9845   -0.8779 C   0  0  0  0  0  0  0  0  0  0  0  0
   -0.0593   -0.4450    0.3491 O   0  0  0  0  0  0  0  0  0  0  0  0
    0.9061   -1.2225    0.9248 C   0  0  0  0  0  0  0  0  0  0  0  0
    0.5344   -2.2067    1.6141 O   0  0  0  0  0  0  0  0  0  0  0  0
    2.3337   -0.9560    0.7712 C   0  0  0  0  0  0  0  0  0  0  0  0
    3.3668   -1.6889    1.3170 C   0  0  0  0  0  0  0  0  0  0  0  0
    4.5423   -1.1582    0.9696 N   0  0  0  0  0  0  0  0  0  0  0  0
    5.8322   -1.6796    1.3717 C   0  0  0  0  0  0  0  0  0  0  0  0
    4.3275   -0.0679    0.1904 C   0  0  0  0  0  0  0  0  0  0  0  0
    5.1679    0.8342   -0.4289 C   0  0  0  0  0  0  0  0  0  0  0  0
    4.6816    1.8814   -1.1842 C   0  0  0  0  0  0  0  0  0  0  0  0
    3.3143    2.0102   -1.3096 C   0  0  0  0  0  0  0  0  0  0  0  0
    2.4727    1.0936   -0.6800 C   0  0  0  0  0  0  0  0  0  0  0  0
    2.9475    0.0581    0.0667 C   0  0  0  0  0  0  0  0  0  0  0  0
   -5.9265   -1.4595    0.2226 H   0  0  0  0  0  0  0  0  0  0  0  0
   -5.7931   -0.2607   -1.0849 H   0  0  0  0  0  0  0  0  0  0  0  0
   -5.9915    0.2612    0.6773 H   0  0  0  0  0  0  0  0  0  0  0  0
   -3.8696   -0.8711   -1.9462 H   0  0  0  0  0  0  0  0  0  0  0  0
   -2.2379    1.4775   -1.4413 H   0  0  0  0  0  0  0  0  0  0  0  0
   -3.8839    1.4831   -2.1777 H   0  0  0  0  0  0  0  0  0  0  0  0
   -4.9026    1.9482   -0.1627 H   0  0  0  0  0  0  0  0  0  0  0  0
   -3.2362    2.6050    0.2795 H   0  0  0  0  0  0  0  0  0  0  0  0
   -4.1859    0.6668    1.8358 H   0  0  0  0  0  0  0  0  0  0  0  0
   -1.9645    0.3777    2.2668 H   0  0  0  0  0  0  0  0  0  0  0  0
   -1.5989    1.4237    0.8746 H   0  0  0  0  0  0  0  0  0  0  0  0
   -1.6311   -1.5830    1.1177 H   0  0  0  0  0  0  0  0  0  0  0  0
   -1.3170   -0.6297   -1.7041 H   0  0  0  0  0  0  0  0  0  0  0  0
   -2.1301   -2.0731   -1.0716 H   0  0  0  0  0  0  0  0  0  0  0  0
    3.2067   -2.5649    1.9348 H   0  0  0  0  0  0  0  0  0  0  0  0
    5.8093   -1.7502    2.4831 H   0  0  0  0  0  0  0  0  0  0  0  0
    6.6651   -1.0655    1.0302 H   0  0  0  0  0  0  0  0  0  0  0  0
    5.8754   -2.7313    1.0067 H   0  0  0  0  0  0  0  0  0  0  0  0
    6.2422    0.7497   -0.3422 H   0  0  0  0  0  0  0  0  0  0  0  0
    5.3658    2.5862   -1.6674 H   0  0  0  0  0  0  0  0  0  0  0  0
    2.9273    2.8295   -1.9007 H   0  0  0  0  0  0  0  0  0  0  0  0
    1.3917    1.1926   -0.7772 H   0  0  0  0  0  0  0  0  0  0  0  0
  1  2  1  0
  2  3  1  0
  3  4  1  0
  4  5  1  0
  5  6  1  0
  6  7  1  0
  7  8  1  0
  8  9  1  0
  8 10  1  0
 10 11  1  0
 11 12  2  0
 11 13  1  0
 13 14  2  0
 14 15  1  0
 15 16  1  0
 15 17  1  0
 17 18  2  0
 18 19  1  0
 19 20  2  0
 20 21  1  0
 21 22  2  0
  6  2  1  0
 22 13  1  0
  9  3  1  0
 22 17  1  0
  1 23  1  0
  1 24  1  0
  1 25  1  0
  3 26  1  0
  4 27  1  0
  4 28  1  0
  5 29  1  0
  5 30  1  0
  6 31  1  0
  7 32  1  0
  7 33  1  0
  8 34  1  0
  9 35  1  0
  9 36  1  0
 14 37  1  0
 16 38  1  0
 16 39  1  0
 16 40  1  0
 18 41  1  0
 19 42  1  0
 20 43  1  0
 21 44  1  0
M  END
$$$$
[H]O[C@]1([H])C([H])([H])[C@]2([H])[C@](C([H])([H])[H])(C([H])([H])C([H])([H])[C@@]1([H])C([H])([H])[H])[C@@]1([H])C([H])([H])C([H])([H])[C@]3(C([H])([H])[H])[C@@]([H])(C([H])([H])[H])C([H])([H])C([H])([H])C([H])([H])[C@@]3([H])[C@]1([H])C([H])([H])[C@@]2([H])C([H])([H])[H]
     RDKit          3D

 67 70  0  0  0  0  0  0  0  0999 V2000
    2.0478   -1.5104   -2.7726 C   0  0  0  0  0  0  0  0  0  0  0  0
    1.2143   -1.2265   -1.5139 C   0  0  2  0  0  0  0  0  0  0  0  0
    0.0373   -0.4211   -1.9450 C   0  0  0  0  0  0  0  0  0  0  0  0
   -0.7101    0.2115   -0.7961 C   0  0  1  0  0  0  0  0  0  0  0  0
   -2.1540   -0.2392   -0.8621 C   0  0  2  0  0  0  0  0  0  0  0  0
   -2.8009    0.5442   -1.9939 C   0  0  0  0  0  0  0  0  0  0  0  0
   -4.2850    0.4555   -1.9912 C   0  0  0  0  0  0  0  0  0  0  0  0
   -4.8661   -0.5375   -1.0573 C   0  0  0  0  0  0  0  0  0  0  0  0
   -4.2640   -0.5793    0.2995 C   0  0  2  0  0  0  0  0  0  0  0  0
   -5.1971   -0.0845    1.3841 C   0  0  0  0  0  0  0  0  0  0  0  0
   -2.9196    0.1088    0.3965 C   0  0  2  0  0  0  0  0  0  0  0  0
   -3.0318    1.5753    0.6397 C   0  0  0  0  0  0  0  0  0  0  0  0
   -2.2009   -0.5063    1.5847 C   0  0  0  0  0  0  0  0  0  0  0  0
   -0.8277    0.1460    1.7064 C   0  0  0  0  0  0  0  0  0  0  0  0
   -0.0549   -0.2219    0.4842 C   0  0  2  0  0  0  0  0  0  0  0  0
    1.3751    0.2711    0.5000 C   0  0  1  0  0  0  0  0  0  0  0  0
    1.2980    1.7819    0.2404 C   0  0  0  0  0  0  0  0  0  0  0  0
    1.9076    0.1023    1.8830 C   0  0  0  0  0  0  0  0  0  0  0  0
    3.3379    0.3613    2.0888 C   0  0  0  0  0  0  0  0  0  0  0  0
    4.2139    0.4308    0.9019 C   0  0  1  0  0  0  0  0  0  0  0  0
    5.6130    0.8436    1.3907 C   0  0  0  0  0  0  0  0  0  0  0  0
    4.4157   -0.9126    0.2155 C   0  0  2  0  0  0  0  0  0  0  0  0
    4.9567   -0.6379   -1.0479 O   0  0  0  0  0  0  0  0  0  0  0  0
    3.0692   -1.5230    0.0130 C   0  0  0  0  0  0  0  0  0  0  0  0
    2.1248   -0.4569   -0.5583 C   0  0  1  0  0  0  0  0  0  0  0  0
    2.6950   -0.6614   -3.0191 H   0  0  0  0  0  0  0  0  0  0  0  0
    2.6226   -2.4372   -2.6829 H   0  0  0  0  0  0  0  0  0  0  0  0
    1.2967   -1.6685   -3.5958 H   0  0  0  0  0  0  0  0  0  0  0  0
    0.9566   -2.2315   -1.1118 H   0  0  0  0  0  0  0  0  0  0  0  0
    0.4193    0.3530   -2.6735 H   0  0  0  0  0  0  0  0  0  0  0  0
   -0.6237   -1.0727   -2.5405 H   0  0  0  0  0  0  0  0  0  0  0  0
   -0.7078    1.2960   -0.9644 H   0  0  0  0  0  0  0  0  0  0  0  0
   -2.2726   -1.3060   -1.0662 H   0  0  0  0  0  0  0  0  0  0  0  0
   -2.5273    1.6293   -1.8424 H   0  0  0  0  0  0  0  0  0  0  0  0
   -2.3409    0.2801   -2.9805 H   0  0  0  0  0  0  0  0  0  0  0  0
   -4.6010    0.1610   -3.0358 H   0  0  0  0  0  0  0  0  0  0  0  0
   -4.7794    1.4606   -1.8448 H   0  0  0  0  0  0  0  0  0  0  0  0
   -5.9592   -0.2817   -0.9298 H   0  0  0  0  0  0  0  0  0  0  0  0
   -4.8795   -1.5357   -1.5634 H   0  0  0  0  0  0  0  0  0  0  0  0
   -4.0615   -1.6651    0.5410 H   0  0  0  0  0  0  0  0  0  0  0  0
   -4.7946    0.8623    1.8409 H   0  0  0  0  0  0  0  0  0  0  0  0
   -5.2683   -0.7999    2.2377 H   0  0  0  0  0  0  0  0  0  0  0  0
   -6.2363    0.0571    1.0194 H   0  0  0  0  0  0  0  0  0  0  0  0
   -4.0034    2.0173    0.3568 H   0  0  0  0  0  0  0  0  0  0  0  0
   -2.2165    2.1216    0.1317 H   0  0  0  0  0  0  0  0  0  0  0  0
   -2.9185    1.7995    1.7406 H   0  0  0  0  0  0  0  0  0  0  0  0
   -2.8262   -0.3427    2.4696 H   0  0  0  0  0  0  0  0  0  0  0  0
   -2.0116   -1.5892    1.3945 H   0  0  0  0  0  0  0  0  0  0  0  0
   -0.3446   -0.3452    2.5783 H   0  0  0  0  0  0  0  0  0  0  0  0
   -0.8940    1.2113    1.9185 H   0  0  0  0  0  0  0  0  0  0  0  0
   -0.0021   -1.3415    0.4524 H   0  0  0  0  0  0  0  0  0  0  0  0
    2.0150    2.3322    0.9124 H   0  0  0  0  0  0  0  0  0  0  0  0
    1.4387    1.9979   -0.8176 H   0  0  0  0  0  0  0  0  0  0  0  0
    0.2932    2.1805    0.5726 H   0  0  0  0  0  0  0  0  0  0  0  0
    1.3257    0.8217    2.5353 H   0  0  0  0  0  0  0  0  0  0  0  0
    1.5925   -0.9082    2.2793 H   0  0  0  0  0  0  0  0  0  0  0  0
    3.7481   -0.4550    2.7568 H   0  0  0  0  0  0  0  0  0  0  0  0
    3.5209    1.2978    2.6960 H   0  0  0  0  0  0  0  0  0  0  0  0
    3.9461    1.1472    0.1334 H   0  0  0  0  0  0  0  0  0  0  0  0
    5.9010    0.2500    2.2615 H   0  0  0  0  0  0  0  0  0  0  0  0
    5.4954    1.9350    1.6561 H   0  0  0  0  0  0  0  0  0  0  0  0
    6.2939    0.7824    0.5390 H   0  0  0  0  0  0  0  0  0  0  0  0
    5.1102   -1.5535    0.7558 H   0  0  0  0  0  0  0  0  0  0  0  0
    4.7322    0.2970   -1.3207 H   0  0  0  0  0  0  0  0  0  0  0  0
    2.6946   -1.9664    0.9308 H   0  0  0  0  0  0  0  0  0  0  0  0
    3.1947   -2.3659   -0.7200 H   0  0  0  0  0  0  0  0  0  0  0  0
    2.6775    0.2614   -1.1913 H   0  0  0  0  0  0  0  0  0  0  0  0
  1  2  1  0
  2  3  1  0
  3  4  1  0
  4  5  1  0
  5  6  1  0
  6  7  1  0
  7  8  1  0
  8  9  1  0
  9 10  1  0
  9 11  1  0
 11 12  1  1
 11 13  1  0
 13 14  1  0
 14 15  1  0
 15 16  1  0
 16 17  1  6
 16 18  1  0
 18 19  1  0
 19 20  1  0
 20 21  1  0
 20 22  1  0
 22 23  1  0
 22 24  1  0
 24 25  1  0
 25  2  1  0
 15  4  1  0
 25 16  1  0
 11  5  1  0
  1 26  1  0
  1 27  1  0
  1 28  1  0
  2 29  1  1
  3 30  1  0
  3 31  1  0
  4 32  1  6
  5 33  1  6
  6 34  1  0
  6 35  1  0
  7 36  1  0
  7 37  1  0
  8 38  1  0
  8 39  1  0
  9 40  1  1
 10 41  1  0
 10 42  1  0
 10 43  1  0
 12 44  1  0
 12 45  1  0
 12 46  1  0
 13 47  1  0
 13 48  1  0
 14 49  1  0
 14 50  1  0
 15 51  1  6
 17 52  1  0
 17 53  1  0
 17 54  1  0
 18 55  1  0
 18 56  1  0
 19 57  1  0
 19 58  1  0
 20 59  1  6
 21 60  1  0
 21 61  1  0
 21 62  1  0
 22 63  1  1
 23 64  1  0
 24 65  1  0
 24 66  1  0
 25 67  1  6
M  END
$$$$
[H]c1c([H])c([H])c2c(c1[H])c(C([H])([H])[C@@]([H])(C(=O)N([H])[H])N([H])C(=O)[C@@]([H])(N([H])C(=O)[C@@]([H])(N([H])C(=O)C([H])([H])N([H])C(=O)[C@@]1([H])N(C(=O)[C@@]([H])(N([H])[H])C([H])([H])C([H])([H])C([H])([H])N=C(N([H])[H])N([H])[H])C([H])([H])C([H])([H])C1([H])[H])C([H])([H])c1c([H])n([H])c3c([H])c([H])c([H])c([H])c13)C([H])([H])C([H])(C([H])([H])[H])C([H])([H])[H])c([H])n2[H]
     RDKit          3D

115119  0  0  0  0  0  0  0  0999 V2000
   -5.2583   -0.1248   -3.5461 C   0  0  0  0  0  0  0  0  0  0  0  0
   -6.2510    0.4897   -2.6032 C   0  0  0  0  0  0  0  0  0  0  0  0
   -7.6788    0.0365   -3.0261 C   0  0  0  0  0  0  0  0  0  0  0  0
   -6.1306    0.1011   -1.1794 C   0  0  0  0  0  0  0  0  0  0  0  0
   -4.8979    0.3668   -0.4311 C   0  0  2  0  0  0  0  0  0  0  0  0
   -3.6867   -0.2582   -0.9380 N   0  0  0  0  0  0  0  0  0  0  0  0
   -2.3858    0.2675   -0.9067 C   0  0  0  0  0  0  0  0  0  0  0  0
   -2.2112    1.4106   -0.4122 O   0  0  0  0  0  0  0  0  0  0  0  0
   -1.1993   -0.4913   -1.4286 C   0  0  2  0  0  0  0  0  0  0  0  0
   -1.5522   -1.9650   -1.5035 C   0  0  0  0  0  0  0  0  0  0  0  0
   -0.4885   -2.8171   -2.0088 C   0  0  0  0  0  0  0  0  0  0  0  0
    0.3139   -3.6898   -1.3196 C   0  0  0  0  0  0  0  0  0  0  0  0
    1.1656   -4.3073   -2.1637 N   0  0  0  0  0  0  0  0  0  0  0  0
    0.9132   -3.8294   -3.4211 C   0  0  0  0  0  0  0  0  0  0  0  0
    1.4879   -4.1192   -4.6641 C   0  0  0  0  0  0  0  0  0  0  0  0
    1.0153   -3.4737   -5.7746 C   0  0  0  0  0  0  0  0  0  0  0  0
   -0.0104   -2.5426   -5.7241 C   0  0  0  0  0  0  0  0  0  0  0  0
   -0.5520   -2.2774   -4.5037 C   0  0  0  0  0  0  0  0  0  0  0  0
   -0.1067   -2.9067   -3.3422 C   0  0  0  0  0  0  0  0  0  0  0  0
   -0.1657   -0.3040   -0.4486 N   0  0  0  0  0  0  0  0  0  0  0  0
    1.2393   -0.1716   -0.6467 C   0  0  0  0  0  0  0  0  0  0  0  0
    1.7424   -0.2252   -1.7944 O   0  0  0  0  0  0  0  0  0  0  0  0
    2.0947    0.0326    0.5703 C   0  0  0  0  0  0  0  0  0  0  0  0
    3.4973    0.0550    0.2504 N   0  0  0  0  0  0  0  0  0  0  0  0
    4.1410   -1.0689   -0.2656 C   0  0  0  0  0  0  0  0  0  0  0  0
    3.3593   -2.0988   -0.4486 O   0  0  0  0  0  0  0  0  0  0  0  0
    5.5074   -1.3220   -0.6329 C   0  0  2  0  0  0  0  0  0  0  0  0
    5.9953   -2.5681    0.1831 C   0  0  0  0  0  0  0  0  0  0  0  0
    6.4216   -1.9268    1.4910 C   0  0  0  0  0  0  0  0  0  0  0  0
    6.6107   -0.4466    1.2036 C   0  0  0  0  0  0  0  0  0  0  0  0
    6.4731   -0.3400   -0.2453 N   0  0  0  0  0  0  0  0  0  0  0  0
    7.1479    0.5580   -1.1115 C   0  0  0  0  0  0  0  0  0  0  0  0
    6.8314    0.6429   -2.3105 O   0  0  0  0  0  0  0  0  0  0  0  0
    8.2618    1.3894   -0.5122 C   0  0  1  0  0  0  0  0  0  0  0  0
    9.2847    0.3739   -0.1748 N   0  0  0  0  0  0  0  0  0  0  0  0
    8.7702    2.3734   -1.5041 C   0  0  0  0  0  0  0  0  0  0  0  0
    9.8406    3.2636   -0.9741 C   0  0  0  0  0  0  0  0  0  0  0  0
   11.0951    2.6361   -0.4838 C   0  0  0  0  0  0  0  0  0  0  0  0
   12.0279    3.7002   -0.0514 N   0  0  0  0  0  0  0  0  0  0  0  0
   12.7585    3.5182    0.9886 C   0  0  0  0  0  0  0  0  0  0  0  0
   13.6498    4.5267    1.4104 N   0  0  0  0  0  0  0  0  0  0  0  0
   12.6622    2.3019    1.7041 N   0  0  0  0  0  0  0  0  0  0  0  0
   -5.1230   -0.1902    0.9625 C   0  0  0  0  0  0  0  0  0  0  0  0
   -4.2652   -0.9437    1.4520 O   0  0  0  0  0  0  0  0  0  0  0  0
   -6.2626    0.1291    1.6747 N   0  0  0  0  0  0  0  0  0  0  0  0
   -6.5398   -0.3829    3.0224 C   0  0  1  0  0  0  0  0  0  0  0  0
   -6.7708    0.7107    3.9874 C   0  0  0  0  0  0  0  0  0  0  0  0
   -7.8566    1.6286    3.7452 C   0  0  0  0  0  0  0  0  0  0  0  0
   -7.7673    2.7955    2.9897 C   0  0  0  0  0  0  0  0  0  0  0  0
   -8.9263    3.3923    2.8519 N   0  0  0  0  0  0  0  0  0  0  0  0
   -9.8396    2.6431    3.5153 C   0  0  0  0  0  0  0  0  0  0  0  0
  -11.1892    2.8605    3.6573 C   0  0  0  0  0  0  0  0  0  0  0  0
  -11.9376    1.9779    4.3767 C   0  0  0  0  0  0  0  0  0  0  0  0
  -11.3132    0.8804    4.9476 C   0  0  0  0  0  0  0  0  0  0  0  0
   -9.9636    0.6741    4.7979 C   0  0  0  0  0  0  0  0  0  0  0  0
   -9.1811    1.5407    4.0788 C   0  0  0  0  0  0  0  0  0  0  0  0
   -7.4659   -1.5124    2.9911 C   0  0  0  0  0  0  0  0  0  0  0  0
   -7.8218   -2.2995    4.1203 N   0  0  0  0  0  0  0  0  0  0  0  0
   -8.0033   -1.8439    1.8903 O   0  0  0  0  0  0  0  0  0  0  0  0
   -4.3379    0.4849   -3.5733 H   0  0  0  0  0  0  0  0  0  0  0  0
   -5.7204   -0.0125   -4.5825 H   0  0  0  0  0  0  0  0  0  0  0  0
   -5.1085   -1.1956   -3.3526 H   0  0  0  0  0  0  0  0  0  0  0  0
   -6.2546    1.5915   -2.7195 H   0  0  0  0  0  0  0  0  0  0  0  0
   -7.7294   -1.0852   -3.0112 H   0  0  0  0  0  0  0  0  0  0  0  0
   -8.4403    0.4237   -2.3537 H   0  0  0  0  0  0  0  0  0  0  0  0
   -7.8518    0.3908   -4.0449 H   0  0  0  0  0  0  0  0  0  0  0  0
   -6.4174   -1.0002   -1.1189 H   0  0  0  0  0  0  0  0  0  0  0  0
   -6.9991    0.5980   -0.6552 H   0  0  0  0  0  0  0  0  0  0  0  0
   -4.7011    1.4411   -0.3117 H   0  0  0  0  0  0  0  0  0  0  0  0
   -3.8509   -1.2076   -1.3596 H   0  0  0  0  0  0  0  0  0  0  0  0
   -0.8675   -0.1059   -2.3892 H   0  0  0  0  0  0  0  0  0  0  0  0
   -2.4390   -2.1409   -2.1591 H   0  0  0  0  0  0  0  0  0  0  0  0
   -1.8404   -2.2723   -0.4839 H   0  0  0  0  0  0  0  0  0  0  0  0
    0.2717   -3.8575   -0.2292 H   0  0  0  0  0  0  0  0  0  0  0  0
    1.8889   -5.0170   -1.9144 H   0  0  0  0  0  0  0  0  0  0  0  0
    2.2872   -4.8424   -4.7193 H   0  0  0  0  0  0  0  0  0  0  0  0
    1.4361   -3.6815   -6.7470 H   0  0  0  0  0  0  0  0  0  0  0  0
   -0.3780   -2.0375   -6.6136 H   0  0  0  0  0  0  0  0  0  0  0  0
   -1.3560   -1.5608   -4.3863 H   0  0  0  0  0  0  0  0  0  0  0  0
   -0.4642   -0.2485    0.5962 H   0  0  0  0  0  0  0  0  0  0  0  0
    1.8723   -0.8297    1.2651 H   0  0  0  0  0  0  0  0  0  0  0  0
    1.7512    0.9253    1.1284 H   0  0  0  0  0  0  0  0  0  0  0  0
    3.9999    0.9457    0.4119 H   0  0  0  0  0  0  0  0  0  0  0  0
    5.6735   -1.6320   -1.7010 H   0  0  0  0  0  0  0  0  0  0  0  0
    6.8546   -3.0098   -0.2850 H   0  0  0  0  0  0  0  0  0  0  0  0
    5.1812   -3.2906    0.3028 H   0  0  0  0  0  0  0  0  0  0  0  0
    7.3438   -2.3986    1.8883 H   0  0  0  0  0  0  0  0  0  0  0  0
    5.5949   -2.0423    2.2263 H   0  0  0  0  0  0  0  0  0  0  0  0
    7.5371   -0.0771    1.6244 H   0  0  0  0  0  0  0  0  0  0  0  0
    5.7483    0.1262    1.6539 H   0  0  0  0  0  0  0  0  0  0  0  0
    7.8764    1.8514    0.4092 H   0  0  0  0  0  0  0  0  0  0  0  0
    9.9270    0.3598   -1.0307 H   0  0  0  0  0  0  0  0  0  0  0  0
    8.8212   -0.5583   -0.2136 H   0  0  0  0  0  0  0  0  0  0  0  0
    7.9573    3.0374   -1.8872 H   0  0  0  0  0  0  0  0  0  0  0  0
    9.1431    1.8400   -2.4296 H   0  0  0  0  0  0  0  0  0  0  0  0
    9.3862    3.9602   -0.2224 H   0  0  0  0  0  0  0  0  0  0  0  0
   10.1650    3.9473   -1.8292 H   0  0  0  0  0  0  0  0  0  0  0  0
   10.9793    1.9640    0.4004 H   0  0  0  0  0  0  0  0  0  0  0  0
   11.5619    2.0543   -1.2972 H   0  0  0  0  0  0  0  0  0  0  0  0
   14.6494    4.4770    1.1543 H   0  0  0  0  0  0  0  0  0  0  0  0
   13.3080    5.3175    1.9818 H   0  0  0  0  0  0  0  0  0  0  0  0
   11.8839    2.1823    2.3791 H   0  0  0  0  0  0  0  0  0  0  0  0
   13.3415    1.5548    1.5625 H   0  0  0  0  0  0  0  0  0  0  0  0
   -7.0029    0.7627    1.3058 H   0  0  0  0  0  0  0  0  0  0  0  0
   -5.5391   -0.8557    3.3157 H   0  0  0  0  0  0  0  0  0  0  0  0
   -6.9356    0.2194    4.9980 H   0  0  0  0  0  0  0  0  0  0  0  0
   -5.7786    1.2280    4.1356 H   0  0  0  0  0  0  0  0  0  0  0  0
   -6.8253    3.1432    2.5778 H   0  0  0  0  0  0  0  0  0  0  0  0
   -9.1250    4.2903    2.3207 H   0  0  0  0  0  0  0  0  0  0  0  0
  -11.6653    3.7097    3.1955 H   0  0  0  0  0  0  0  0  0  0  0  0
  -13.0146    2.1208    4.4983 H   0  0  0  0  0  0  0  0  0  0  0  0
  -11.9584    0.2030    5.5114 H   0  0  0  0  0  0  0  0  0  0  0  0
   -9.4814   -0.1666    5.2547 H   0  0  0  0  0  0  0  0  0  0  0  0
   -8.3045   -3.2008    4.0923 H   0  0  0  0  0  0  0  0  0  0  0  0
   -7.5596   -1.9091    5.0694 H   0  0  0  0  0  0  0  0  0  0  0  0
  1  2  1  0
  2  3  1  0
  2  4  1  0
  4  5  1  0
  5  6  1  0
  6  7  1  0
  7  8  2  0
  7  9  1  0
  9 10  1  0
 10 11  1  0
 11 12  2  0
 12 13  1  0
 13 14  1  0
 14 15  2  0
 15 16  1  0
 16 17  2  0
 17 18  1  0
 18 19  2  0
  9 20  1  0
 20 21  1  0
 21 22  2  0
 21 23  1  0
 23 24  1  0
 24 25  1  0
 25 26  2  0
 25 27  1  0
 27 28  1  0
 28 29  1  0
 29 30  1  0
 30 31  1  0
 31 32  1  0
 32 33  2  0
 32 34  1  0
 34 35  1  0
 34 36  1  0
 36 37  1  0
 37 38  1  0
 38 39  1  0
 39 40  2  3
 40 41  1  0
 40 42  1  0
  5 43  1  0
 43 44  2  0
 43 45  1  0
 45 46  1  0
 46 47  1  0
 47 48  1  0
 48 49  2  0
 49 50  1  0
 50 51  1  0
 51 52  2  0
 52 53  1  0
 53 54  2  0
 54 55  1  0
 55 56  2  0
 46 57  1  0
 57 58  1  0
 57 59  2  0
 19 11  1  0
 31 27  1  0
 56 48  1  0
 19 14  1  0
 56 51  1  0
  1 60  1  0
  1 61  1  0
  1 62  1  0
  2 63  1  0
  3 64  1  0
  3 65  1  0
  3 66  1  0
  4 67  1  0
  4 68  1  0
  5 69  1  1
  6 70  1  0
  9 71  1  6
 10 72  1  0
 10 73  1  0
 12 74  1  0
 13 75  1  0
 15 76  1  0
 16 77  1  0
 17 78  1  0
 18 79  1  0
 20 80  1  0
 23 81  1  0
 23 82  1  0
 24 83  1  0
 27 84  1  6
 28 85  1  0
 28 86  1  0
 29 87  1  0
 29 88  1  0
 30 89  1  0
 30 90  1  0
 34 91  1  1
 35 92  1  0
 35 93  1  0
 36 94  1  0
 36 95  1  0
 37 96  1  0
 37 97  1  0
 38 98  1  0
 38 99  1  0
 41100  1  0
 41101  1  0
 42102  1  0
 42103  1  0
 45104  1  0
 46105  1  1
 47106  1  0
 47107  1  0
 49108  1  0
 50109  1  0
 52110  1  0
 53111  1  0
 54112  1  0
 55113  1  0
 58114  1  0
 58115  1  0
M  END
$$$$
[H]c1c([H])c([H])c2c(c1[H])c(C1=C(c3c([H])n(C([H])([H])[H])c4c([H])c([H])c(Cl)c([H])c34)C(=O)N([H])C1=O)c([H])n2C([H])([H])[H]
     RDKit          3D

 44 48  0  0  0  0  0  0  0  0999 V2000
    2.1531    2.8986    0.8860 C   0  0  0  0  0  0  0  0  0  0  0  0
    2.1589    1.5277    0.4188 N   0  0  0  0  0  0  0  0  0  0  0  0
    1.2722    1.0164   -0.4154 C   0  0  0  0  0  0  0  0  0  0  0  0
    1.5390   -0.3325   -0.6827 C   0  0  0  0  0  0  0  0  0  0  0  0
    0.7290   -1.1688   -1.5517 C   0  0  0  0  0  0  0  0  0  0  0  0
   -0.5977   -1.2830   -1.4755 C   0  0  0  0  0  0  0  0  0  0  0  0
   -1.0583   -2.2034   -2.5094 C   0  0  0  0  0  0  0  0  0  0  0  0
   -2.2157   -2.5957   -2.7906 O   0  0  0  0  0  0  0  0  0  0  0  0
    0.0887   -2.6363   -3.2195 N   0  0  0  0  0  0  0  0  0  0  0  0
    1.2227   -2.0027   -2.6409 C   0  0  0  0  0  0  0  0  0  0  0  0
    2.4273   -2.1210   -2.9847 O   0  0  0  0  0  0  0  0  0  0  0  0
   -1.4577   -0.6411   -0.4951 C   0  0  0  0  0  0  0  0  0  0  0  0
   -1.2203   -0.6458    0.8623 C   0  0  0  0  0  0  0  0  0  0  0  0
   -2.2052    0.0464    1.4537 N   0  0  0  0  0  0  0  0  0  0  0  0
   -2.3133    0.2696    2.8903 C   0  0  0  0  0  0  0  0  0  0  0  0
   -3.0701    0.5004    0.5504 C   0  0  0  0  0  0  0  0  0  0  0  0
   -4.2174    1.2499    0.6737 C   0  0  0  0  0  0  0  0  0  0  0  0
   -4.9220    1.5823   -0.4657 C   0  0  0  0  0  0  0  0  0  0  0  0
   -4.5104    1.1867   -1.7128 C   0  0  0  0  0  0  0  0  0  0  0  0
   -3.3437    0.4263   -1.8175 C   0  0  0  0  0  0  0  0  0  0  0  0
   -2.6209    0.0787   -0.7022 C   0  0  0  0  0  0  0  0  0  0  0  0
    2.6596   -0.6131    0.0522 C   0  0  0  0  0  0  0  0  0  0  0  0
    3.3905   -1.7540    0.2125 C   0  0  0  0  0  0  0  0  0  0  0  0
    4.4982   -1.7224    1.0544 C   0  0  0  0  0  0  0  0  0  0  0  0
    5.4582   -3.1485    1.2897 Cl  0  0  0  0  0  0  0  0  0  0  0  0
    4.8617   -0.5610    1.7222 C   0  0  0  0  0  0  0  0  0  0  0  0
    4.1216    0.5871    1.5589 C   0  0  0  0  0  0  0  0  0  0  0  0
    3.0312    0.5415    0.7255 C   0  0  0  0  0  0  0  0  0  0  0  0
    2.3619    3.5677    0.0335 H   0  0  0  0  0  0  0  0  0  0  0  0
    2.9467    2.9806    1.6557 H   0  0  0  0  0  0  0  0  0  0  0  0
    1.1471    3.2005    1.2672 H   0  0  0  0  0  0  0  0  0  0  0  0
    0.4212    1.5412   -0.8652 H   0  0  0  0  0  0  0  0  0  0  0  0
    0.0981   -3.2949   -4.0169 H   0  0  0  0  0  0  0  0  0  0  0  0
   -0.3916   -1.1148    1.4075 H   0  0  0  0  0  0  0  0  0  0  0  0
   -1.6238   -0.3878    3.4482 H   0  0  0  0  0  0  0  0  0  0  0  0
   -2.1344    1.3393    3.0621 H   0  0  0  0  0  0  0  0  0  0  0  0
   -3.3931    0.0412    3.1235 H   0  0  0  0  0  0  0  0  0  0  0  0
   -4.5838    1.5873    1.6470 H   0  0  0  0  0  0  0  0  0  0  0  0
   -5.8388    2.1757   -0.4024 H   0  0  0  0  0  0  0  0  0  0  0  0
   -5.0493    1.4400   -2.5967 H   0  0  0  0  0  0  0  0  0  0  0  0
   -3.0091    0.1202   -2.7867 H   0  0  0  0  0  0  0  0  0  0  0  0
    3.1020   -2.6683   -0.3011 H   0  0  0  0  0  0  0  0  0  0  0  0
    5.7209   -0.5174    2.3809 H   0  0  0  0  0  0  0  0  0  0  0  0
    4.3666    1.5072    2.0566 H   0  0  0  0  0  0  0  0  0  0  0  0
  1  2  1  0
  2  3  1  0
  3  4  2  0
  4  5  1  0
  5  6  2  0
  6  7  1  0
  7  8  2  0
  7  9  1  0
  9 10  1  0
 10 11  2  0
  6 12  1  0
 12 13  2  0
 13 14  1  0
 14 15  1  0
 14 16  1  0
 16 17  2  0
 17 18  1  0
 18 19  2  0
 19 20  1  0
 20 21  2  0
  4 22  1  0
 22 23  2  0
 23 24  1  0
 24 25  1  0
 24 26  2  0
 26 27  1  0
 27 28  2  0
 28  2  1  0
 10  5  1  0
 21 12  1  0
 28 22  1  0
 21 16  1  0
  1 29  1  0
  1 30  1  0
  1 31  1  0
  3 32  1  0
  9 33  1  0
 13 34  1  0
 15 35  1  0
 15 36  1  0
 15 37  1  0
 17 38  1  0
 18 39  1  0
 19 40  1  0
 20 41  1  0
 23 42  1  0
 26 43  1  0
 27 44  1  0
M  END
$$$$
[H]c1nc([H])c(-c2c([H])c3nc(N([H])C(=O)N([H])C([H])([H])C([H])([H])[H])sc3n(C([H])([H])C3([H])C([H])([H])OC([H])([H])C3([H])[H])c2=O)c([H])c1[H]
     RDKit          3D

 49 52  0  0  0  0  0  0  0  0999 V2000
    7.8705   -2.0954    0.7180 C   0  0  0  0  0  0  0  0  0  0  0  0
    6.4458   -2.1591    0.2295 C   0  0  0  0  0  0  0  0  0  0  0  0
    5.7353   -1.0046    0.7291 N   0  0  0  0  0  0  0  0  0  0  0  0
    4.3647   -0.8236    0.4108 C   0  0  0  0  0  0  0  0  0  0  0  0
    3.7751   -1.6681   -0.3040 O   0  0  0  0  0  0  0  0  0  0  0  0
    3.6216    0.2940    0.8770 N   0  0  0  0  0  0  0  0  0  0  0  0
    2.2507    0.4291    0.5298 C   0  0  0  0  0  0  0  0  0  0  0  0
    1.4606    1.4116    0.8963 N   0  0  0  0  0  0  0  0  0  0  0  0
    0.2207    1.4328    0.5185 C   0  0  0  0  0  0  0  0  0  0  0  0
   -0.7363    2.4269    0.8148 C   0  0  0  0  0  0  0  0  0  0  0  0
   -2.0073    2.2985    0.3117 C   0  0  0  0  0  0  0  0  0  0  0  0
   -3.0097    3.3323    0.6195 C   0  0  0  0  0  0  0  0  0  0  0  0
   -4.2661    3.0245    1.0204 C   0  0  0  0  0  0  0  0  0  0  0  0
   -5.1602    4.0347    1.2916 C   0  0  0  0  0  0  0  0  0  0  0  0
   -4.7647    5.3310    1.1517 C   0  0  0  0  0  0  0  0  0  0  0  0
   -3.5112    5.6022    0.7522 N   0  0  0  0  0  0  0  0  0  0  0  0
   -2.6254    4.6474    0.4829 C   0  0  0  0  0  0  0  0  0  0  0  0
   -2.4318    1.2567   -0.4739 C   0  0  0  0  0  0  0  0  0  0  0  0
   -3.5828    1.1134   -0.9470 O   0  0  0  0  0  0  0  0  0  0  0  0
   -1.4964    0.3053   -0.7496 N   0  0  0  0  0  0  0  0  0  0  0  0
   -1.8616   -0.7763   -1.5938 C   0  0  0  0  0  0  0  0  0  0  0  0
   -2.5726   -1.8429   -0.8222 C   0  0  0  0  0  0  0  0  0  0  0  0
   -2.9146   -2.9368   -1.8576 C   0  0  0  0  0  0  0  0  0  0  0  0
   -1.6784   -3.7691   -1.8193 C   0  0  0  0  0  0  0  0  0  0  0  0
   -0.9596   -3.4415   -0.7034 O   0  0  0  0  0  0  0  0  0  0  0  0
   -1.7411   -2.6519    0.1206 C   0  0  0  0  0  0  0  0  0  0  0  0
   -0.2305    0.4009   -0.2696 C   0  0  0  0  0  0  0  0  0  0  0  0
    1.2121   -0.5447   -0.4079 S   0  0  0  0  0  0  0  0  0  0  0  0
    8.1565   -1.0090    0.7047 H   0  0  0  0  0  0  0  0  0  0  0  0
    7.8699   -2.3945    1.7838 H   0  0  0  0  0  0  0  0  0  0  0  0
    8.5623   -2.7122    0.1074 H   0  0  0  0  0  0  0  0  0  0  0  0
    5.9214   -3.0698    0.6023 H   0  0  0  0  0  0  0  0  0  0  0  0
    6.4251   -2.1857   -0.8872 H   0  0  0  0  0  0  0  0  0  0  0  0
    6.2590   -0.3224    1.3215 H   0  0  0  0  0  0  0  0  0  0  0  0
    4.0898    0.9983    1.4659 H   0  0  0  0  0  0  0  0  0  0  0  0
   -0.4435    3.2652    1.4313 H   0  0  0  0  0  0  0  0  0  0  0  0
   -4.5702    1.9642    1.1306 H   0  0  0  0  0  0  0  0  0  0  0  0
   -6.1650    3.7951    1.6121 H   0  0  0  0  0  0  0  0  0  0  0  0
   -5.4490    6.1667    1.3586 H   0  0  0  0  0  0  0  0  0  0  0  0
   -1.6263    4.9408    0.1636 H   0  0  0  0  0  0  0  0  0  0  0  0
   -2.4992   -0.4732   -2.4580 H   0  0  0  0  0  0  0  0  0  0  0  0
   -0.9690   -1.2489   -2.0691 H   0  0  0  0  0  0  0  0  0  0  0  0
   -3.5156   -1.4728   -0.3533 H   0  0  0  0  0  0  0  0  0  0  0  0
   -3.1374   -2.4970   -2.8382 H   0  0  0  0  0  0  0  0  0  0  0  0
   -3.7616   -3.5576   -1.4706 H   0  0  0  0  0  0  0  0  0  0  0  0
   -1.0608   -3.5096   -2.7261 H   0  0  0  0  0  0  0  0  0  0  0  0
   -1.8745   -4.8582   -1.9139 H   0  0  0  0  0  0  0  0  0  0  0  0
   -2.4514   -3.3464    0.6502 H   0  0  0  0  0  0  0  0  0  0  0  0
   -1.1673   -2.1004    0.8585 H   0  0  0  0  0  0  0  0  0  0  0  0
  1  2  1  0
  2  3  1  0
  3  4  1  0
  4  5  2  0
  4  6  1  0
  6  7  1  0
  7  8  2  0
  8  9  1  0
  9 10  1  0
 10 11  2  0
 11 12  1  0
 12 13  2  0
 13 14  1  0
 14 15  2  0
 15 16  1  0
 16 17  2  0
 11 18  1  0
 18 19  2  0
 18 20  1  0
 20 21  1  0
 21 22  1  0
 22 23  1  0
 23 24  1  0
 24 25  1  0
 25 26  1  0
 20 27  1  0
 27 28  1  0
 28  7  1  0
 27  9  2  0
 17 12  1  0
 26 22  1  0
  1 29  1  0
  1 30  1  0
  1 31  1  0
  2 32  1  0
  2 33  1  0
  3 34  1  0
  6 35  1  0
 10 36  1  0
 13 37  1  0
 14 38  1  0
 15 39  1  0
 17 40  1  0
 21 41  1  0
 21 42  1  0
 22 43  1  0
 23 44  1  0
 23 45  1  0
 24 46  1  0
 24 47  1  0
 26 48  1  0
 26 49  1  0
M  END
$$$$
[H]c1c([H])c([H])c2c(c1[H])c(C1=C(c3c([H])n(C([H])([H])[H])c4c([H])c([H])c(C(F)(F)F)c([H])c34)C(=O)N([H])C1=O)c([H])n2C([H])([H])[H]
     RDKit          3D

 47 51  0  0  0  0  0  0  0  0999 V2000
    1.7231    2.8836    1.6059 C   0  0  0  0  0  0  0  0  0  0  0  0
    1.6873    1.5663    1.0132 N   0  0  0  0  0  0  0  0  0  0  0  0
    0.6592    0.7080    0.9696 C   0  0  0  0  0  0  0  0  0  0  0  0
    1.0544   -0.4321    0.3026 C   0  0  0  0  0  0  0  0  0  0  0  0
    0.2315   -1.6387    0.0635 C   0  0  0  0  0  0  0  0  0  0  0  0
   -1.0213   -1.6628   -0.3348 C   0  0  0  0  0  0  0  0  0  0  0  0
   -1.4958   -3.0563   -0.4619 C   0  0  0  0  0  0  0  0  0  0  0  0
   -2.6739   -3.3569   -0.8352 O   0  0  0  0  0  0  0  0  0  0  0  0
   -0.4285   -3.8837   -0.1011 N   0  0  0  0  0  0  0  0  0  0  0  0
    0.6654   -3.0191    0.2378 C   0  0  0  0  0  0  0  0  0  0  0  0
    1.7895   -3.4320    0.6187 O   0  0  0  0  0  0  0  0  0  0  0  0
   -1.8878   -0.5055   -0.5617 C   0  0  0  0  0  0  0  0  0  0  0  0
   -1.8304    0.5324   -1.4112 C   0  0  0  0  0  0  0  0  0  0  0  0
   -2.8598    1.3580   -1.1622 N   0  0  0  0  0  0  0  0  0  0  0  0
   -3.2460    2.6078   -1.8152 C   0  0  0  0  0  0  0  0  0  0  0  0
   -3.5825    0.8393   -0.1356 C   0  0  0  0  0  0  0  0  0  0  0  0
   -4.7202    1.2867    0.5446 C   0  0  0  0  0  0  0  0  0  0  0  0
   -5.2510    0.5731    1.6000 C   0  0  0  0  0  0  0  0  0  0  0  0
   -4.6588   -0.6145    2.0045 C   0  0  0  0  0  0  0  0  0  0  0  0
   -3.5246   -1.0651    1.3248 C   0  0  0  0  0  0  0  0  0  0  0  0
   -3.0053   -0.3357    0.2712 C   0  0  0  0  0  0  0  0  0  0  0  0
    2.3553   -0.2707   -0.0726 C   0  0  0  0  0  0  0  0  0  0  0  0
    3.3144   -1.0371   -0.7542 C   0  0  0  0  0  0  0  0  0  0  0  0
    4.6014   -0.5994   -0.9765 C   0  0  0  0  0  0  0  0  0  0  0  0
    4.9774    0.6613   -0.5127 C   0  0  0  0  0  0  0  0  0  0  0  0
    4.0235    1.4292    0.1566 C   0  0  0  0  0  0  0  0  0  0  0  0
    2.7329    0.9946    0.3861 C   0  0  0  0  0  0  0  0  0  0  0  0
    5.5768   -1.5149   -1.6603 C   0  0  0  0  0  0  0  0  0  0  0  0
    4.8142   -2.4575   -2.3461 F   0  0  0  0  0  0  0  0  0  0  0  0
    6.4240   -0.8537   -2.4993 F   0  0  0  0  0  0  0  0  0  0  0  0
    6.2975   -2.2400   -0.6824 F   0  0  0  0  0  0  0  0  0  0  0  0
    2.3317    3.5601    0.9567 H   0  0  0  0  0  0  0  0  0  0  0  0
    0.7118    3.3242    1.7481 H   0  0  0  0  0  0  0  0  0  0  0  0
    2.2311    2.8485    2.5902 H   0  0  0  0  0  0  0  0  0  0  0  0
   -0.3369    0.9091    1.4184 H   0  0  0  0  0  0  0  0  0  0  0  0
   -0.3864   -4.9059   -0.0742 H   0  0  0  0  0  0  0  0  0  0  0  0
   -1.0734    0.7255   -2.2142 H   0  0  0  0  0  0  0  0  0  0  0  0
   -3.0830    3.4704   -1.1670 H   0  0  0  0  0  0  0  0  0  0  0  0
   -2.7592    2.7688   -2.7770 H   0  0  0  0  0  0  0  0  0  0  0  0
   -4.3515    2.5173   -2.0040 H   0  0  0  0  0  0  0  0  0  0  0  0
   -5.1759    2.2048    0.2420 H   0  0  0  0  0  0  0  0  0  0  0  0
   -6.1487    0.9096    2.1565 H   0  0  0  0  0  0  0  0  0  0  0  0
   -5.0255   -1.1964    2.8008 H   0  0  0  0  0  0  0  0  0  0  0  0
   -3.0661   -1.9832    1.6567 H   0  0  0  0  0  0  0  0  0  0  0  0
    3.0601   -1.9983   -1.1674 H   0  0  0  0  0  0  0  0  0  0  0  0
    5.9812    0.9881   -0.6939 H   0  0  0  0  0  0  0  0  0  0  0  0
    4.3490    2.3925    0.4777 H   0  0  0  0  0  0  0  0  0  0  0  0
  1  2  1  0
  2  3  1  0
  3  4  2  0
  4  5  1  0
  5  6  2  0
  6  7  1  0
  7  8  2  0
  7  9  1  0
  9 10  1  0
 10 11  2  0
  6 12  1  0
 12 13  2  0
 13 14  1  0
 14 15  1  0
 14 16  1  0
 16 17  2  0
 17 18  1  0
 18 19  2  0
 19 20  1  0
 20 21  2  0
  4 22  1  0
 22 23  2  0
 23 24  1  0
 24 25  2  0
 25 26  1  0
 26 27  2  0
 24 28  1  0
 28 29  1  0
 28 30  1  0
 28 31  1  0
 27  2  1  0
 10  5  1  0
 21 12  1  0
 27 22  1  0
 21 16  1  0
  1 32  1  0
  1 33  1  0
  1 34  1  0
  3 35  1  0
  9 36  1  0
 13 37  1  0
 15 38  1  0
 15 39  1  0
 15 40  1  0
 17 41  1  0
 18 42  1  0
 19 43  1  0
 20 44  1  0
 23 45  1  0
 25 46  1  0
 26 47  1  0
M  END
$$$$
[H]c1c(C(C([H])([H])[H])(C([H])([H])[H])C([H])([H])[H])noc1N([H])C(=O)[C@]1([H])N(C(=O)c2c([H])c([H])c([H])c(C(F)(F)F)c2[H])C([H])([H])c2c([H])c([H])c([H])c([H])c2C1([H])[H]
     RDKit          3D

 58 61  0  0  0  0  0  0  0  0999 V2000
    5.9630    2.0297    1.1814 C   0  0  0  0  0  0  0  0  0  0  0  0
    5.8068    0.6936    0.5031 C   0  0  0  0  0  0  0  0  0  0  0  0
    6.1686    0.8562   -0.9520 C   0  0  0  0  0  0  0  0  0  0  0  0
    6.7633   -0.2918    1.1732 C   0  0  0  0  0  0  0  0  0  0  0  0
    4.4101    0.2289    0.6516 C   0  0  0  0  0  0  0  0  0  0  0  0
    3.2840    0.7948    0.0540 C   0  0  0  0  0  0  0  0  0  0  0  0
    2.1588    0.0403    0.4204 C   0  0  0  0  0  0  0  0  0  0  0  0
    0.8171    0.3278   -0.0272 N   0  0  0  0  0  0  0  0  0  0  0  0
   -0.2579   -0.4816    0.4160 C   0  0  0  0  0  0  0  0  0  0  0  0
    0.0792   -1.4201    1.2383 O   0  0  0  0  0  0  0  0  0  0  0  0
   -1.6400   -0.2860   -0.0117 C   0  0  1  0  0  0  0  0  0  0  0  0
   -1.6620   -0.8589   -1.4706 C   0  0  0  0  0  0  0  0  0  0  0  0
   -1.5954   -2.3411   -1.3985 C   0  0  0  0  0  0  0  0  0  0  0  0
   -1.1808   -3.0232   -2.5563 C   0  0  0  0  0  0  0  0  0  0  0  0
   -1.0579   -4.3782   -2.6039 C   0  0  0  0  0  0  0  0  0  0  0  0
   -1.3676   -5.0634   -1.4219 C   0  0  0  0  0  0  0  0  0  0  0  0
   -1.7736   -4.4337   -0.2613 C   0  0  0  0  0  0  0  0  0  0  0  0
   -1.8841   -3.0468   -0.2808 C   0  0  0  0  0  0  0  0  0  0  0  0
   -2.3846   -2.4407    0.9937 C   0  0  0  0  0  0  0  0  0  0  0  0
   -2.6517   -1.0326    0.6823 N   0  0  0  0  0  0  0  0  0  0  0  0
   -3.9232   -0.5134    0.9410 C   0  0  0  0  0  0  0  0  0  0  0  0
   -4.8280   -1.1295    1.5193 O   0  0  0  0  0  0  0  0  0  0  0  0
   -4.2350    0.8589    0.4900 C   0  0  0  0  0  0  0  0  0  0  0  0
   -5.1459    1.0061   -0.5598 C   0  0  0  0  0  0  0  0  0  0  0  0
   -5.5353    2.2615   -0.9765 C   0  0  0  0  0  0  0  0  0  0  0  0
   -5.0414    3.4062   -0.3698 C   0  0  0  0  0  0  0  0  0  0  0  0
   -4.1514    3.2367    0.6716 C   0  0  0  0  0  0  0  0  0  0  0  0
   -3.7627    1.9989    1.0778 C   0  0  0  0  0  0  0  0  0  0  0  0
   -3.6351    4.4758    1.3591 C   0  0  0  0  0  0  0  0  0  0  0  0
   -2.3002    4.3843    1.6189 F   0  0  0  0  0  0  0  0  0  0  0  0
   -3.9223    5.5846    0.5561 F   0  0  0  0  0  0  0  0  0  0  0  0
   -4.3703    4.6197    2.5317 F   0  0  0  0  0  0  0  0  0  0  0  0
    2.6218   -0.9145    1.2023 O   0  0  0  0  0  0  0  0  0  0  0  0
    3.8946   -0.8116    1.3326 N   0  0  0  0  0  0  0  0  0  0  0  0
    5.4724    2.7701    0.4903 H   0  0  0  0  0  0  0  0  0  0  0  0
    5.4672    2.0512    2.1586 H   0  0  0  0  0  0  0  0  0  0  0  0
    7.0264    2.3353    1.2503 H   0  0  0  0  0  0  0  0  0  0  0  0
    5.9236   -0.0514   -1.5478 H   0  0  0  0  0  0  0  0  0  0  0  0
    5.7288    1.7543   -1.3736 H   0  0  0  0  0  0  0  0  0  0  0  0
    7.2833    0.9447   -1.0123 H   0  0  0  0  0  0  0  0  0  0  0  0
    6.5435   -1.3090    0.7784 H   0  0  0  0  0  0  0  0  0  0  0  0
    6.6299   -0.1895    2.2514 H   0  0  0  0  0  0  0  0  0  0  0  0
    7.8015   -0.0467    0.8771 H   0  0  0  0  0  0  0  0  0  0  0  0
    3.3143    1.6630   -0.5793 H   0  0  0  0  0  0  0  0  0  0  0  0
    0.6638    1.1443   -0.6669 H   0  0  0  0  0  0  0  0  0  0  0  0
   -1.8554    0.7790   -0.1418 H   0  0  0  0  0  0  0  0  0  0  0  0
   -0.7797   -0.4211   -1.9365 H   0  0  0  0  0  0  0  0  0  0  0  0
   -2.6405   -0.5669   -1.9400 H   0  0  0  0  0  0  0  0  0  0  0  0
   -0.9414   -2.4053   -3.4399 H   0  0  0  0  0  0  0  0  0  0  0  0
   -0.7608   -4.9096   -3.4748 H   0  0  0  0  0  0  0  0  0  0  0  0
   -1.2579   -6.1356   -1.4941 H   0  0  0  0  0  0  0  0  0  0  0  0
   -1.9999   -4.9938    0.6447 H   0  0  0  0  0  0  0  0  0  0  0  0
   -3.3615   -2.9511    1.1974 H   0  0  0  0  0  0  0  0  0  0  0  0
   -1.7763   -2.5915    1.8674 H   0  0  0  0  0  0  0  0  0  0  0  0
   -5.5273    0.1324   -1.0548 H   0  0  0  0  0  0  0  0  0  0  0  0
   -6.2394    2.3788   -1.8007 H   0  0  0  0  0  0  0  0  0  0  0  0
   -5.3212    4.4221   -0.6731 H   0  0  0  0  0  0  0  0  0  0  0  0
   -3.0542    1.8593    1.8961 H   0  0  0  0  0  0  0  0  0  0  0  0
  1  2  1  0
  2  3  1  0
  2  4  1  0
  2  5  1  0
  5  6  1  0
  6  7  2  0
  7  8  1  0
  8  9  1  0
  9 10  2  0
  9 11  1  0
 11 12  1  0
 12 13  1  0
 13 14  2  0
 14 15  1  0
 15 16  2  0
 16 17  1  0
 17 18  2  0
 18 19  1  0
 19 20  1  0
 20 21  1  0
 21 22  2  0
 21 23  1  0
 23 24  2  0
 24 25  1  0
 25 26  2  0
 26 27  1  0
 27 28  2  0
 27 29  1  0
 29 30  1  0
 29 31  1  0
 29 32  1  0
  7 33  1  0
 33 34  1  0
 34  5  2  0
 20 11  1  0
 28 23  1  0
 18 13  1  0
  1 35  1  0
  1 36  1  0
  1 37  1  0
  3 38  1  0
  3 39  1  0
  3 40  1  0
  4 41  1  0
  4 42  1  0
  4 43  1  0
  6 44  1  0
  8 45  1  0
 11 46  1  6
 12 47  1  0
 12 48  1  0
 14 49  1  0
 15 50  1  0
 16 51  1  0
 17 52  1  0
 19 53  1  0
 19 54  1  0
 24 55  1  0
 25 56  1  0
 26 57  1  0
 28 58  1  0
M  END
$$$$
[H]c1nc(N2C([H])([H])[C@@]3([H])N(C([H])([H])[H])C([H])([H])[C@@]2([H])C3([H])[H])c([H])nc1-c1c([H])c([H])c([H])c(F)c1[H]
     RDKit          2D

 38 41  0  0  0  0  0  0  0  0999 V2000
    2.7760    0.0000    0.0000 C   0  0  0  0  0  0  0  0  0  0  0  0
    1.2760    0.0000    0.0000 N   0  0  0  0  0  0  0  0  0  0  0  0
    0.3943    1.2135    0.0000 C   0  0  0  0  0  0  0  0  0  0  0  0
   -1.0323    0.7500    0.0000 C   0  0  0  0  0  0  0  0  0  0  0  0
   -1.0323   -0.7500    0.0000 C   0  0  0  0  0  0  0  0  0  0  0  0
    0.3943   -1.2135    0.0000 C   0  0  0  0  0  0  0  0  0  0  0  0
   -1.0323   -1.6771    0.0000 C   0  0  0  0  0  0  0  0  0  0  0  0
   -1.9140   -0.4635    0.0000 N   0  0  0  0  0  0  0  0  0  0  0  0
   -3.4140   -0.4635    0.0000 C   0  0  0  0  0  0  0  0  0  0  0  0
   -4.1640    0.8355    0.0000 C   0  0  0  0  0  0  0  0  0  0  0  0
   -5.6640    0.8355    0.0000 N   0  0  0  0  0  0  0  0  0  0  0  0
   -6.4140   -0.4635    0.0000 C   0  0  0  0  0  0  0  0  0  0  0  0
   -5.6640   -1.7626    0.0000 C   0  0  0  0  0  0  0  0  0  0  0  0
   -4.1640   -1.7626    0.0000 N   0  0  0  0  0  0  0  0  0  0  0  0
   -7.9140   -0.4635    0.0000 C   0  0  0  0  0  0  0  0  0  0  0  0
   -8.6640    0.8355    0.0000 C   0  0  0  0  0  0  0  0  0  0  0  0
  -10.1640    0.8355    0.0000 C   0  0  0  0  0  0  0  0  0  0  0  0
  -10.9140   -0.4635    0.0000 C   0  0  0  0  0  0  0  0  0  0  0  0
  -10.1640   -1.7626    0.0000 C   0  0  0  0  0  0  0  0  0  0  0  0
  -10.9140   -3.0616    0.0000 F   0  0  0  0  0  0  0  0  0  0  0  0
   -8.6640   -1.7626    0.0000 C   0  0  0  0  0  0  0  0  0  0  0  0
    4.2760    0.0000    0.0000 H   0  0  0  0  0  0  0  0  0  0  0  0
    2.7760   -1.5000    0.0000 H   0  0  0  0  0  0  0  0  0  0  0  0
    2.7760    1.5000    0.0000 H   0  0  0  0  0  0  0  0  0  0  0  0
   -0.2158    2.5838    0.0000 H   0  0  0  0  0  0  0  0  0  0  0  0
    1.6933    1.9635    0.0000 H   0  0  0  0  0  0  0  0  0  0  0  0
   -2.2458    1.6317    0.0000 H   0  0  0  0  0  0  0  0  0  0  0  0
   -1.3818   -1.4665    0.0000 H   0  0  0  0  0  0  0  0  0  0  0  0
   -2.5177   -0.9588    0.0000 H   0  0  0  0  0  0  0  0  0  0  0  0
    0.8578   -2.6401    0.0000 H   0  0  0  0  0  0  0  0  0  0  0  0
   -0.4222   -3.0474    0.0000 H   0  0  0  0  0  0  0  0  0  0  0  0
   -2.3313   -2.4271    0.0000 H   0  0  0  0  0  0  0  0  0  0  0  0
   -3.4140    2.1346    0.0000 H   0  0  0  0  0  0  0  0  0  0  0  0
   -6.4140   -3.0616    0.0000 H   0  0  0  0  0  0  0  0  0  0  0  0
   -7.9140    2.1346    0.0000 H   0  0  0  0  0  0  0  0  0  0  0  0
  -10.9140    2.1346    0.0000 H   0  0  0  0  0  0  0  0  0  0  0  0
  -12.4140   -0.4635    0.0000 H   0  0  0  0  0  0  0  0  0  0  0  0
   -7.9140   -3.0616    0.0000 H   0  0  0  0  0  0  0  0  0  0  0  0
  1  2  1  0
  2  3  1  0
  3  4  1  0
  4  5  1  0
  5  6  1  0
  6  7  1  0
  7  8  1  0
  8  9  1  0
  9 10  2  0
 10 11  1  0
 11 12  2  0
 12 13  1  0
 13 14  2  0
 12 15  1  0
 15 16  2  0
 16 17  1  0
 17 18  2  0
 18 19  1  0
 19 20  1  0
 19 21  2  0
  6  2  1  0
 14  9  1  0
 21 15  1  0
  8  4  1  0
  1 22  1  0
  1 23  1  0
  1 24  1  0
  3 25  1  0
  3 26  1  0
  4 27  1  6
  5 28  1  0
  5 29  1  0
  6 30  1  1
  7 31  1  0
  7 32  1  0
 10 33  1  0
 13 34  1  0
 16 35  1  0
 17 36  1  0
 18 37  1  0
 21 38  1  0
M  END
$$$$
[H]c1nc(N([H])c2c([H])c([H])c(N3C([H])([H])C([H])([H])C([H])(N4C([H])([H])C([H])([H])N(C([H])([H])[H])C([H])([H])C4([H])[H])C([H])([H])C3([H])[H])c([H])c2OC([H])([H])[H])nc(N([H])c2c([H])c([H])c([H])c([H])c2S(=O)(=O)C([H])(C([H])([H])[H])C([H])([H])[H])c1Cl
     RDKit          3D

 82 86  0  0  0  0  0  0  0  0999 V2000
   -0.1870    3.7228   -1.2569 C   0  0  0  0  0  0  0  0  0  0  0  0
    0.4390    2.5297   -0.8437 O   0  0  0  0  0  0  0  0  0  0  0  0
   -0.3483    1.4775   -0.4024 C   0  0  0  0  0  0  0  0  0  0  0  0
   -1.7220    1.6350   -0.3827 C   0  0  0  0  0  0  0  0  0  0  0  0
   -2.5624    0.6308    0.0436 C   0  0  0  0  0  0  0  0  0  0  0  0
   -1.9599   -0.5357    0.4478 C   0  0  0  0  0  0  0  0  0  0  0  0
   -0.5748   -0.7280    0.4408 C   0  0  0  0  0  0  0  0  0  0  0  0
    0.2576    0.2764    0.0150 C   0  0  0  0  0  0  0  0  0  0  0  0
    1.6540    0.2011   -0.0367 N   0  0  0  0  0  0  0  0  0  0  0  0
    2.4984   -0.8842    0.3177 C   0  0  0  0  0  0  0  0  0  0  0  0
    2.1033   -2.0726    0.7812 N   0  0  0  0  0  0  0  0  0  0  0  0
    2.9559   -3.0558    1.0957 C   0  0  0  0  0  0  0  0  0  0  0  0
    4.3092   -2.8632    0.9451 C   0  0  0  0  0  0  0  0  0  0  0  0
    5.4455   -4.1449    1.3534 Cl  0  0  0  0  0  0  0  0  0  0  0  0
    4.7527   -1.6166    0.4572 C   0  0  0  0  0  0  0  0  0  0  0  0
    6.1380   -1.4466    0.3110 N   0  0  0  0  0  0  0  0  0  0  0  0
    6.9009   -0.3576   -0.1368 C   0  0  0  0  0  0  0  0  0  0  0  0
    6.2766    0.8084   -0.5266 C   0  0  0  0  0  0  0  0  0  0  0  0
    7.0240    1.9039   -0.9778 C   0  0  0  0  0  0  0  0  0  0  0  0
    8.3820    1.8034   -1.0274 C   0  0  0  0  0  0  0  0  0  0  0  0
    9.0024    0.6381   -0.6374 C   0  0  0  0  0  0  0  0  0  0  0  0
    8.2961   -0.4485   -0.1920 C   0  0  0  0  0  0  0  0  0  0  0  0
    9.0842   -1.8926    0.2913 S   0  0  0  0  0  0  0  0  0  0  0  0
    8.6633   -3.0312   -0.6035 O   0  0  0  0  0  0  0  0  0  0  0  0
    8.8235   -2.3045    1.7132 O   0  0  0  0  0  0  0  0  0  0  0  0
   10.8572   -1.7881    0.1370 C   0  0  0  0  0  0  0  0  0  0  0  0
   11.2609   -1.6791   -1.2975 C   0  0  0  0  0  0  0  0  0  0  0  0
   11.4760   -0.7869    1.0544 C   0  0  0  0  0  0  0  0  0  0  0  0
    3.8248   -0.7008    0.1721 N   0  0  0  0  0  0  0  0  0  0  0  0
   -3.9818    0.8060    0.0512 N   0  0  0  0  0  0  0  0  0  0  0  0
   -4.5241    1.9609   -0.5784 C   0  0  0  0  0  0  0  0  0  0  0  0
   -6.0011    1.9283   -0.8544 C   0  0  0  0  0  0  0  0  0  0  0  0
   -6.8245    1.3726    0.2584 C   0  0  0  0  0  0  0  0  0  0  0  0
   -6.0036    0.6088    1.2781 C   0  0  0  0  0  0  0  0  0  0  0  0
   -4.8657   -0.1463    0.6796 C   0  0  0  0  0  0  0  0  0  0  0  0
   -7.9560    0.6086   -0.0875 N   0  0  0  0  0  0  0  0  0  0  0  0
   -7.7905   -0.5856   -0.8057 C   0  0  0  0  0  0  0  0  0  0  0  0
   -9.1362   -1.0235   -1.3907 C   0  0  0  0  0  0  0  0  0  0  0  0
  -10.1390   -0.8718   -0.3544 N   0  0  0  0  0  0  0  0  0  0  0  0
  -10.0361   -1.8235    0.7053 C   0  0  0  0  0  0  0  0  0  0  0  0
  -10.3349    0.4834    0.0484 C   0  0  0  0  0  0  0  0  0  0  0  0
   -9.1475    1.3193   -0.4248 C   0  0  0  0  0  0  0  0  0  0  0  0
    0.5375    4.4499   -1.6799 H   0  0  0  0  0  0  0  0  0  0  0  0
   -0.9481    3.5330   -2.0530 H   0  0  0  0  0  0  0  0  0  0  0  0
   -0.6880    4.2523   -0.4156 H   0  0  0  0  0  0  0  0  0  0  0  0
   -2.1476    2.5764   -0.7105 H   0  0  0  0  0  0  0  0  0  0  0  0
   -2.6020   -1.3517    0.7883 H   0  0  0  0  0  0  0  0  0  0  0  0
   -0.2121   -1.6859    0.7807 H   0  0  0  0  0  0  0  0  0  0  0  0
    2.1500    1.0935   -0.3956 H   0  0  0  0  0  0  0  0  0  0  0  0
    2.6174   -4.0222    1.4737 H   0  0  0  0  0  0  0  0  0  0  0  0
    6.7215   -2.3022    0.5911 H   0  0  0  0  0  0  0  0  0  0  0  0
    5.2202    0.9989   -0.5296 H   0  0  0  0  0  0  0  0  0  0  0  0
    6.5603    2.8305   -1.2896 H   0  0  0  0  0  0  0  0  0  0  0  0
    9.0220    2.6252   -1.3712 H   0  0  0  0  0  0  0  0  0  0  0  0
   10.0936    0.6299   -0.7052 H   0  0  0  0  0  0  0  0  0  0  0  0
   11.2252   -2.8031    0.4806 H   0  0  0  0  0  0  0  0  0  0  0  0
   11.9033   -0.7785   -1.4926 H   0  0  0  0  0  0  0  0  0  0  0  0
   10.3307   -1.5514   -1.9199 H   0  0  0  0  0  0  0  0  0  0  0  0
   11.7765   -2.5763   -1.6995 H   0  0  0  0  0  0  0  0  0  0  0  0
   12.0225   -1.2557    1.8769 H   0  0  0  0  0  0  0  0  0  0  0  0
   12.1781   -0.1622    0.4319 H   0  0  0  0  0  0  0  0  0  0  0  0
   10.7434   -0.0899    1.5079 H   0  0  0  0  0  0  0  0  0  0  0  0
   -4.2803    2.8410    0.0525 H   0  0  0  0  0  0  0  0  0  0  0  0
   -3.9354    2.1199   -1.5269 H   0  0  0  0  0  0  0  0  0  0  0  0
   -6.3084    2.9635   -1.1164 H   0  0  0  0  0  0  0  0  0  0  0  0
   -6.1470    1.3325   -1.7818 H   0  0  0  0  0  0  0  0  0  0  0  0
   -7.2139    2.2642    0.8421 H   0  0  0  0  0  0  0  0  0  0  0  0
   -6.6586   -0.1075    1.8153 H   0  0  0  0  0  0  0  0  0  0  0  0
   -5.5929    1.2907    2.0626 H   0  0  0  0  0  0  0  0  0  0  0  0
   -5.1731   -0.8869   -0.0780 H   0  0  0  0  0  0  0  0  0  0  0  0
   -4.3121   -0.6097    1.5260 H   0  0  0  0  0  0  0  0  0  0  0  0
   -7.5080   -1.4012   -0.0997 H   0  0  0  0  0  0  0  0  0  0  0  0
   -7.0082   -0.5774   -1.5870 H   0  0  0  0  0  0  0  0  0  0  0  0
   -9.4445   -0.3742   -2.2343 H   0  0  0  0  0  0  0  0  0  0  0  0
   -9.0261   -2.0597   -1.7202 H   0  0  0  0  0  0  0  0  0  0  0  0
   -9.1822   -2.5377    0.5321 H   0  0  0  0  0  0  0  0  0  0  0  0
   -9.9814   -1.3564    1.7041 H   0  0  0  0  0  0  0  0  0  0  0  0
  -10.9456   -2.4645    0.6802 H   0  0  0  0  0  0  0  0  0  0  0  0
  -11.2261    0.8855   -0.4545 H   0  0  0  0  0  0  0  0  0  0  0  0
  -10.4517    0.5517    1.1515 H   0  0  0  0  0  0  0  0  0  0  0  0
   -9.2778    1.5186   -1.4917 H   0  0  0  0  0  0  0  0  0  0  0  0
   -9.1611    2.2698    0.1783 H   0  0  0  0  0  0  0  0  0  0  0  0
  1  2  1  0
  2  3  1  0
  3  4  2  0
  4  5  1  0
  5  6  2  0
  6  7  1  0
  7  8  2  0
  8  9  1  0
  9 10  1  0
 10 11  2  0
 11 12  1  0
 12 13  2  0
 13 14  1  0
 13 15  1  0
 15 16  1  0
 16 17  1  0
 17 18  2  0
 18 19  1  0
 19 20  2  0
 20 21  1  0
 21 22  2  0
 22 23  1  0
 23 24  2  0
 23 25  2  0
 23 26  1  0
 26 27  1  0
 26 28  1  0
 15 29  2  0
  5 30  1  0
 30 31  1  0
 31 32  1  0
 32 33  1  0
 33 34  1  0
 34 35  1  0
 33 36  1  0
 36 37  1  0
 37 38  1  0
 38 39  1  0
 39 40  1  0
 39 41  1  0
 41 42  1  0
  8  3  1  0
 29 10  1  0
 35 30  1  0
 42 36  1  0
 22 17  1  0
  1 43  1  0
  1 44  1  0
  1 45  1  0
  4 46  1  0
  6 47  1  0
  7 48  1  0
  9 49  1  0
 12 50  1  0
 16 51  1  0
 18 52  1  0
 19 53  1  0
 20 54  1  0
 21 55  1  0
 26 56  1  0
 27 57  1  0
 27 58  1  0
 27 59  1  0
 28 60  1  0
 28 61  1  0
 28 62  1  0
 31 63  1  0
 31 64  1  0
 32 65  1  0
 32 66  1  0
 33 67  1  0
 34 68  1  0
 34 69  1  0
 35 70  1  0
 35 71  1  0
 37 72  1  0
 37 73  1  0
 38 74  1  0
 38 75  1  0
 40 76  1  0
 40 77  1  0
 40 78  1  0
 41 79  1  0
 41 80  1  0
 42 81  1  0
 42 82  1  0
M  END
$$$$
[H]c1c([H])c(-c2c([H])c([H])c(OC([H])(C([H])([H])[H])C([H])([H])[H])c(C#N)c2[H])c(C#N)c([H])c1C#N
     RDKit          3D

 35 36  0  0  0  0  0  0  0  0999 V2000
   -5.1076    0.3815    0.6930 C   0  0  0  0  0  0  0  0  0  0  0  0
   -4.0655   -0.1942   -0.2647 C   0  0  0  0  0  0  0  0  0  0  0  0
   -4.7630   -0.2860   -1.6244 C   0  0  0  0  0  0  0  0  0  0  0  0
   -2.9738    0.6371   -0.4248 O   0  0  0  0  0  0  0  0  0  0  0  0
   -1.6461    0.3352   -0.2503 C   0  0  0  0  0  0  0  0  0  0  0  0
   -1.1489   -0.8911    0.1280 C   0  0  0  0  0  0  0  0  0  0  0  0
    0.2178   -1.0899    0.2761 C   0  0  0  0  0  0  0  0  0  0  0  0
    1.0984   -0.0823    0.0526 C   0  0  0  0  0  0  0  0  0  0  0  0
    0.5730    1.1499   -0.3294 C   0  0  0  0  0  0  0  0  0  0  0  0
   -0.7564    1.3758   -0.4827 C   0  0  0  0  0  0  0  0  0  0  0  0
   -1.2449    2.6777   -0.8818 C   0  0  0  0  0  0  0  0  0  0  0  0
   -1.6477    3.7238   -1.1972 N   0  0  0  0  0  0  0  0  0  0  0  0
    2.5460   -0.1844    0.1874 C   0  0  0  0  0  0  0  0  0  0  0  0
    3.3653    0.2780   -0.8459 C   0  0  0  0  0  0  0  0  0  0  0  0
    4.7401    0.1988   -0.7802 C   0  0  0  0  0  0  0  0  0  0  0  0
    5.3787   -0.3444    0.3155 C   0  0  0  0  0  0  0  0  0  0  0  0
    4.5817   -0.8040    1.3416 C   0  0  0  0  0  0  0  0  0  0  0  0
    3.1909   -0.7236    1.2753 C   0  0  0  0  0  0  0  0  0  0  0  0
    2.4114   -1.2061    2.3759 C   0  0  0  0  0  0  0  0  0  0  0  0
    1.7931   -1.5871    3.2848 N   0  0  0  0  0  0  0  0  0  0  0  0
    6.8138   -0.4199    0.3682 C   0  0  0  0  0  0  0  0  0  0  0  0
    7.9668   -0.4773    0.4281 N   0  0  0  0  0  0  0  0  0  0  0  0
   -6.0801   -0.0589    0.4397 H   0  0  0  0  0  0  0  0  0  0  0  0
   -4.7971    0.0354    1.7102 H   0  0  0  0  0  0  0  0  0  0  0  0
   -5.1642    1.4676    0.6344 H   0  0  0  0  0  0  0  0  0  0  0  0
   -3.7530   -1.1990    0.0387 H   0  0  0  0  0  0  0  0  0  0  0  0
   -4.7972    0.7136   -2.0880 H   0  0  0  0  0  0  0  0  0  0  0  0
   -4.2221   -1.0322   -2.2080 H   0  0  0  0  0  0  0  0  0  0  0  0
   -5.7946   -0.6456   -1.4410 H   0  0  0  0  0  0  0  0  0  0  0  0
   -1.8403   -1.6960    0.3075 H   0  0  0  0  0  0  0  0  0  0  0  0
    0.5716   -2.0671    0.5684 H   0  0  0  0  0  0  0  0  0  0  0  0
    1.2682    1.9792   -0.5155 H   0  0  0  0  0  0  0  0  0  0  0  0
    2.8535    0.7069   -1.7104 H   0  0  0  0  0  0  0  0  0  0  0  0
    5.3606    0.5663   -1.5991 H   0  0  0  0  0  0  0  0  0  0  0  0
    5.0716   -1.2376    2.2179 H   0  0  0  0  0  0  0  0  0  0  0  0
  1  2  1  0
  2  3  1  0
  2  4  1  0
  4  5  1  0
  5  6  2  0
  6  7  1  0
  7  8  2  0
  8  9  1  0
  9 10  2  0
 10 11  1  0
 11 12  3  0
  8 13  1  0
 13 14  2  0
 14 15  1  0
 15 16  2  0
 16 17  1  0
 17 18  2  0
 18 19  1  0
 19 20  3  0
 16 21  1  0
 21 22  3  0
 10  5  1  0
 18 13  1  0
  1 23  1  0
  1 24  1  0
  1 25  1  0
  2 26  1  0
  3 27  1  0
  3 28  1  0
  3 29  1  0
  6 30  1  0
  7 31  1  0
  9 32  1  0
 14 33  1  0
 15 34  1  0
 17 35  1  0
M  END
$$$$
[H]c1c([H])c(N([H])c2nc([H])c3c(C(=O)N([H])[H])nn(C([H])([H])[H])c3n2)c([H])c([H])c1Cl
     RDKit          3D

 32 34  0  0  0  0  0  0  0  0999 V2000
   -2.2079    3.9005   -0.1172 C   0  0  0  0  0  0  0  0  0  0  0  0
   -2.3819    2.5810    0.4480 N   0  0  0  0  0  0  0  0  0  0  0  0
   -3.3786    2.1349    1.1870 N   0  0  0  0  0  0  0  0  0  0  0  0
   -3.1856    0.8464    1.5270 C   0  0  0  0  0  0  0  0  0  0  0  0
   -4.0704    0.0161    2.3357 C   0  0  0  0  0  0  0  0  0  0  0  0
   -3.8316   -1.3264    2.6679 N   0  0  0  0  0  0  0  0  0  0  0  0
   -5.1372    0.5831    2.7598 O   0  0  0  0  0  0  0  0  0  0  0  0
   -1.9843    0.5081    0.9440 C   0  0  0  0  0  0  0  0  0  0  0  0
   -1.2247   -0.6448    0.9052 C   0  0  0  0  0  0  0  0  0  0  0  0
   -0.0621   -0.6677    0.2338 N   0  0  0  0  0  0  0  0  0  0  0  0
    0.4505    0.3697   -0.4303 C   0  0  0  0  0  0  0  0  0  0  0  0
    1.6711    0.3721   -1.1464 N   0  0  0  0  0  0  0  0  0  0  0  0
    2.6030   -0.6498   -1.3183 C   0  0  0  0  0  0  0  0  0  0  0  0
    2.6582   -1.7129   -0.4496 C   0  0  0  0  0  0  0  0  0  0  0  0
    3.5765   -2.7373   -0.6499 C   0  0  0  0  0  0  0  0  0  0  0  0
    4.4138   -2.6623   -1.7188 C   0  0  0  0  0  0  0  0  0  0  0  0
    5.5689   -3.9460   -1.9753 Cl  0  0  0  0  0  0  0  0  0  0  0  0
    4.3819   -1.6115   -2.6035 C   0  0  0  0  0  0  0  0  0  0  0  0
    3.4861   -0.6066   -2.4136 C   0  0  0  0  0  0  0  0  0  0  0  0
   -0.3010    1.5189   -0.3948 N   0  0  0  0  0  0  0  0  0  0  0  0
   -1.4628    1.5867    0.2603 C   0  0  0  0  0  0  0  0  0  0  0  0
   -1.4009    4.4636    0.4180 H   0  0  0  0  0  0  0  0  0  0  0  0
   -3.1406    4.4821    0.0742 H   0  0  0  0  0  0  0  0  0  0  0  0
   -2.0252    3.8798   -1.2086 H   0  0  0  0  0  0  0  0  0  0  0  0
   -3.3820   -1.5612    3.5798 H   0  0  0  0  0  0  0  0  0  0  0  0
   -4.0754   -2.1370    2.0563 H   0  0  0  0  0  0  0  0  0  0  0  0
   -1.6095   -1.5103    1.4342 H   0  0  0  0  0  0  0  0  0  0  0  0
    1.9213    1.3001   -1.6279 H   0  0  0  0  0  0  0  0  0  0  0  0
    2.0318   -1.8219    0.4244 H   0  0  0  0  0  0  0  0  0  0  0  0
    3.5942   -3.5747    0.0643 H   0  0  0  0  0  0  0  0  0  0  0  0
    5.0910   -1.6054   -3.4577 H   0  0  0  0  0  0  0  0  0  0  0  0
    3.4135    0.2327   -3.0644 H   0  0  0  0  0  0  0  0  0  0  0  0
  1  2  1  0
  2  3  1  0
  3  4  2  0
  4  5  1  0
  5  6  1  0
  5  7  2  0
  4  8  1  0
  8  9  2  0
  9 10  1  0
 10 11  2  0
 11 12  1  0
 12 13  1  0
 13 14  2  0
 14 15  1  0
 15 16  2  0
 16 17  1  0
 16 18  1  0
 18 19  2  0
 11 20  1  0
 20 21  2  0
 21  2  1  0
 21  8  1  0
 19 13  1  0
  1 22  1  0
  1 23  1  0
  1 24  1  0
  6 25  1  0
  6 26  1  0
  9 27  1  0
 12 28  1  0
 14 29  1  0
 15 30  1  0
 18 31  1  0
 19 32  1  0
M  END
$$$$
[H]c1c([H])c([H])c(C([H])([H])OC(=O)[C@@]([H])(N([H])C(=O)[C@@]([H])(N([H])C(=O)[C@]2([H])OC(=O)[C@@]2([H])[C@@]([H])(C([H])([H])[H])C([H])([H])C([H])([H])[H])C([H])([H])c2c([H])c([H])c([H])c([H])c2[H])C([H])(C([H])([H])[H])C([H])([H])[H])c([H])c1[H]
     RDKit          3D

 73 75  0  0  0  0  0  0  0  0999 V2000
   -7.4258    3.3784   -1.8183 C   0  0  0  0  0  0  0  0  0  0  0  0
   -6.2744    2.5984   -1.2365 C   0  0  0  0  0  0  0  0  0  0  0  0
   -5.4638    1.9091   -2.3107 C   0  0  2  0  0  0  0  0  0  0  0  0
   -6.2974    0.9384   -3.0877 C   0  0  0  0  0  0  0  0  0  0  0  0
   -4.1523    1.3906   -1.8353 C   0  0  1  0  0  0  0  0  0  0  0  0
   -4.2014    0.3714   -0.7110 C   0  0  1  0  0  0  0  0  0  0  0  0
   -4.3841   -0.6056   -1.6925 O   0  0  0  0  0  0  0  0  0  0  0  0
   -3.7131    0.1952   -2.6058 C   0  0  0  0  0  0  0  0  0  0  0  0
   -3.0147    0.0393   -3.6556 O   0  0  0  0  0  0  0  0  0  0  0  0
   -2.8921    0.2738   -0.0458 C   0  0  0  0  0  0  0  0  0  0  0  0
   -2.6210    1.1512    0.8153 O   0  0  0  0  0  0  0  0  0  0  0  0
   -1.9272   -0.7270   -0.3064 N   0  0  0  0  0  0  0  0  0  0  0  0
   -0.6485   -0.7140    0.4001 C   0  0  1  0  0  0  0  0  0  0  0  0
   -0.5794   -1.9659    1.2646 C   0  0  0  0  0  0  0  0  0  0  0  0
   -1.6334   -2.0931    2.2526 C   0  0  0  0  0  0  0  0  0  0  0  0
   -2.8233   -2.7240    1.9396 C   0  0  0  0  0  0  0  0  0  0  0  0
   -3.8354   -2.8517    2.9037 C   0  0  0  0  0  0  0  0  0  0  0  0
   -3.6655   -2.3606    4.1582 C   0  0  0  0  0  0  0  0  0  0  0  0
   -2.4854   -1.7289    4.4857 C   0  0  0  0  0  0  0  0  0  0  0  0
   -1.4829   -1.6035    3.5257 C   0  0  0  0  0  0  0  0  0  0  0  0
    0.4608   -0.8228   -0.5766 C   0  0  0  0  0  0  0  0  0  0  0  0
    0.2426   -1.3276   -1.6765 O   0  0  0  0  0  0  0  0  0  0  0  0
    1.7254   -0.3493   -0.2359 N   0  0  0  0  0  0  0  0  0  0  0  0
    2.8890   -0.3968   -1.0850 C   0  0  1  0  0  0  0  0  0  0  0  0
    3.3091    0.9115   -1.6455 C   0  0  0  0  0  0  0  0  0  0  0  0
    4.5274    0.6955   -2.5146 C   0  0  0  0  0  0  0  0  0  0  0  0
    2.2856    1.5995   -2.4981 C   0  0  0  0  0  0  0  0  0  0  0  0
    4.0031   -0.9788   -0.3147 C   0  0  0  0  0  0  0  0  0  0  0  0
    3.8126   -1.3383    0.8851 O   0  0  0  0  0  0  0  0  0  0  0  0
    5.2755   -1.1722   -0.7975 O   0  0  0  0  0  0  0  0  0  0  0  0
    6.3826   -1.7002   -0.1486 C   0  0  0  0  0  0  0  0  0  0  0  0
    6.7583   -0.8899    1.0431 C   0  0  0  0  0  0  0  0  0  0  0  0
    6.5104   -1.3579    2.3328 C   0  0  0  0  0  0  0  0  0  0  0  0
    6.8767   -0.5520    3.3893 C   0  0  0  0  0  0  0  0  0  0  0  0
    7.4652    0.6692    3.1857 C   0  0  0  0  0  0  0  0  0  0  0  0
    7.7005    1.1103    1.8995 C   0  0  0  0  0  0  0  0  0  0  0  0
    7.3471    0.3314    0.8323 C   0  0  0  0  0  0  0  0  0  0  0  0
   -6.9715    4.0749   -2.5749 H   0  0  0  0  0  0  0  0  0  0  0  0
   -8.1720    2.7771   -2.3409 H   0  0  0  0  0  0  0  0  0  0  0  0
   -7.8609    4.0133   -1.0076 H   0  0  0  0  0  0  0  0  0  0  0  0
   -5.6535    3.3022   -0.6454 H   0  0  0  0  0  0  0  0  0  0  0  0
   -6.7237    1.8631   -0.5156 H   0  0  0  0  0  0  0  0  0  0  0  0
   -5.2127    2.7439   -3.0496 H   0  0  0  0  0  0  0  0  0  0  0  0
   -7.1505    1.5086   -3.5402 H   0  0  0  0  0  0  0  0  0  0  0  0
   -6.7500    0.1499   -2.4660 H   0  0  0  0  0  0  0  0  0  0  0  0
   -5.7308    0.5357   -3.9565 H   0  0  0  0  0  0  0  0  0  0  0  0
   -3.3591    2.1625   -1.6980 H   0  0  0  0  0  0  0  0  0  0  0  0
   -5.0593    0.5689   -0.0262 H   0  0  0  0  0  0  0  0  0  0  0  0
   -2.1184   -1.4700   -0.9924 H   0  0  0  0  0  0  0  0  0  0  0  0
   -0.6124    0.1550    1.0538 H   0  0  0  0  0  0  0  0  0  0  0  0
   -0.5606   -2.8280    0.5303 H   0  0  0  0  0  0  0  0  0  0  0  0
    0.4608   -1.9934    1.7066 H   0  0  0  0  0  0  0  0  0  0  0  0
   -3.0541   -3.1489    0.9762 H   0  0  0  0  0  0  0  0  0  0  0  0
   -4.7652   -3.3472    2.6573 H   0  0  0  0  0  0  0  0  0  0  0  0
   -4.4389   -2.4495    4.9254 H   0  0  0  0  0  0  0  0  0  0  0  0
   -2.3614   -1.3453    5.4840 H   0  0  0  0  0  0  0  0  0  0  0  0
   -0.5713   -1.1087    3.8051 H   0  0  0  0  0  0  0  0  0  0  0  0
    1.8691    0.0833    0.6972 H   0  0  0  0  0  0  0  0  0  0  0  0
    2.6563   -1.0614   -1.9375 H   0  0  0  0  0  0  0  0  0  0  0  0
    3.5840    1.5960   -0.8192 H   0  0  0  0  0  0  0  0  0  0  0  0
    5.4773    0.9327   -2.0281 H   0  0  0  0  0  0  0  0  0  0  0  0
    4.5740   -0.3297   -2.9602 H   0  0  0  0  0  0  0  0  0  0  0  0
    4.4946    1.3642   -3.4248 H   0  0  0  0  0  0  0  0  0  0  0  0
    1.3855    1.9461   -1.9538 H   0  0  0  0  0  0  0  0  0  0  0  0
    2.0290    1.0123   -3.4183 H   0  0  0  0  0  0  0  0  0  0  0  0
    2.7722    2.5266   -2.8960 H   0  0  0  0  0  0  0  0  0  0  0  0
    7.2707   -1.6786   -0.8408 H   0  0  0  0  0  0  0  0  0  0  0  0
    6.2801   -2.7714    0.1253 H   0  0  0  0  0  0  0  0  0  0  0  0
    6.0459   -2.3211    2.4933 H   0  0  0  0  0  0  0  0  0  0  0  0
    6.7107   -0.8547    4.4193 H   0  0  0  0  0  0  0  0  0  0  0  0
    7.7680    1.3304    3.9855 H   0  0  0  0  0  0  0  0  0  0  0  0
    8.1704    2.0881    1.7241 H   0  0  0  0  0  0  0  0  0  0  0  0
    7.5266    0.6700   -0.1600 H   0  0  0  0  0  0  0  0  0  0  0  0
  1  2  1  0
  2  3  1  0
  3  4  1  0
  3  5  1  0
  5  6  1  0
  6  7  1  0
  7  8  1  0
  8  9  2  0
  6 10  1  0
 10 11  2  0
 10 12  1  0
 12 13  1  0
 13 14  1  0
 14 15  1  0
 15 16  2  0
 16 17  1  0
 17 18  2  0
 18 19  1  0
 19 20  2  0
 13 21  1  0
 21 22  2  0
 21 23  1  0
 23 24  1  0
 24 25  1  0
 25 26  1  0
 25 27  1  0
 24 28  1  0
 28 29  2  0
 28 30  1  0
 30 31  1  0
 31 32  1  0
 32 33  2  0
 33 34  1  0
 34 35  2  0
 35 36  1  0
 36 37  2  0
  8  5  1  0
 20 15  1  0
 37 32  1  0
  1 38  1  0
  1 39  1  0
  1 40  1  0
  2 41  1  0
  2 42  1  0
  3 43  1  6
  4 44  1  0
  4 45  1  0
  4 46  1  0
  5 47  1  1
  6 48  1  1
 12 49  1  0
 13 50  1  1
 14 51  1  0
 14 52  1  0
 16 53  1  0
 17 54  1  0
 18 55  1  0
 19 56  1  0
 20 57  1  0
 23 58  1  0
 24 59  1  6
 25 60  1  0
 26 61  1  0
 26 62  1  0
 26 63  1  0
 27 64  1  0
 27 65  1  0
 27 66  1  0
 31 67  1  0
 31 68  1  0
 33 69  1  0
 34 70  1  0
 35 71  1  0
 36 72  1  0
 37 73  1  0
M  END
$$$$
[H]C1=C([H])C([H])(F)C([H])([H])C([H])=C1N([H])C(=O)C1(C(=O)N([H])c2c([H])c([H])c(Oc3c([H])c([H])nc4c([H])c(OC([H])([H])C([H])([H])C([H])([H])N5C([H])([H])C([H])([H])OC([H])([H])C5([H])[H])c(OC([H])([H])[H])c([H])c34)c(F)c2[H])C([H])([H])C1([H])[H]
     RDKit          3D

 82 87  0  0  0  0  0  0  0  0999 V2000
    3.9666    3.0495   -1.7322 C   0  0  0  0  0  0  0  0  0  0  0  0
    4.8184    1.9472   -1.5191 O   0  0  0  0  0  0  0  0  0  0  0  0
    4.2779    0.7150   -1.2054 C   0  0  0  0  0  0  0  0  0  0  0  0
    2.9355    0.4830   -1.0834 C   0  0  0  0  0  0  0  0  0  0  0  0
    2.5057   -0.7878   -0.7673 C   0  0  0  0  0  0  0  0  0  0  0  0
    1.1302   -1.0757   -0.6337 C   0  0  0  0  0  0  0  0  0  0  0  0
    0.2693   -0.0306   -0.8259 O   0  0  0  0  0  0  0  0  0  0  0  0
   -1.0898   -0.1642   -0.6451 C   0  0  0  0  0  0  0  0  0  0  0  0
   -1.9847   -0.0120   -1.6950 C   0  0  0  0  0  0  0  0  0  0  0  0
   -3.3381   -0.1282   -1.5809 C   0  0  0  0  0  0  0  0  0  0  0  0
   -3.8905   -0.4214   -0.3289 C   0  0  0  0  0  0  0  0  0  0  0  0
   -5.3238   -0.4986   -0.2135 N   0  0  0  0  0  0  0  0  0  0  0  0
   -5.9613   -1.3830    0.6262 C   0  0  0  0  0  0  0  0  0  0  0  0
   -5.1921   -2.1849    1.2964 O   0  0  0  0  0  0  0  0  0  0  0  0
   -7.4011   -1.5958    0.9101 C   0  0  0  0  0  0  0  0  0  0  0  0
   -7.6820   -2.4618    2.1265 C   0  0  0  0  0  0  0  0  0  0  0  0
   -7.8126   -3.1190    0.8294 C   0  0  0  0  0  0  0  0  0  0  0  0
   -8.4706   -0.6963    0.4763 C   0  0  0  0  0  0  0  0  0  0  0  0
   -9.6747   -1.1656    0.7176 O   0  0  0  0  0  0  0  0  0  0  0  0
   -8.4814    0.5528   -0.1324 N   0  0  0  0  0  0  0  0  0  0  0  0
   -9.7446    1.2195   -0.4499 C   0  0  0  0  0  0  0  0  0  0  0  0
   -9.9496    2.4040    0.0799 C   0  0  0  0  0  0  0  0  0  0  0  0
  -11.1350    3.2347   -0.1097 C   0  0  0  0  0  0  0  0  0  0  0  0
  -12.2008    2.6387   -0.9439 C   0  0  0  0  0  0  0  0  0  0  0  0
  -12.4721    3.4850   -2.0494 F   0  0  0  0  0  0  0  0  0  0  0  0
  -11.8730    1.3187   -1.4859 C   0  0  0  0  0  0  0  0  0  0  0  0
  -10.7586    0.6480   -1.2759 C   0  0  0  0  0  0  0  0  0  0  0  0
   -3.0432   -0.5784    0.7341 C   0  0  0  0  0  0  0  0  0  0  0  0
   -1.6522   -0.4525    0.5863 C   0  0  0  0  0  0  0  0  0  0  0  0
   -0.8827   -0.5957    1.6903 F   0  0  0  0  0  0  0  0  0  0  0  0
    0.7223   -2.3515   -0.3227 C   0  0  0  0  0  0  0  0  0  0  0  0
    1.6378   -3.3635   -0.1352 C   0  0  0  0  0  0  0  0  0  0  0  0
    2.9451   -3.0865   -0.2619 N   0  0  0  0  0  0  0  0  0  0  0  0
    3.3732   -1.8309   -0.5703 C   0  0  0  0  0  0  0  0  0  0  0  0
    4.7330   -1.5901   -0.6954 C   0  0  0  0  0  0  0  0  0  0  0  0
    5.1920   -0.3333   -1.0085 C   0  0  0  0  0  0  0  0  0  0  0  0
    6.5206   -0.0853   -1.1253 O   0  0  0  0  0  0  0  0  0  0  0  0
    7.5310   -0.9938   -0.8772 C   0  0  0  0  0  0  0  0  0  0  0  0
    7.6262   -1.3701    0.5948 C   0  0  0  0  0  0  0  0  0  0  0  0
    7.9359   -0.0985    1.3961 C   0  0  0  0  0  0  0  0  0  0  0  0
    9.1945    0.4265    0.9288 N   0  0  0  0  0  0  0  0  0  0  0  0
    9.4053    1.7864    1.4776 C   0  0  0  0  0  0  0  0  0  0  0  0
   10.8161    2.1639    1.0165 C   0  0  0  0  0  0  0  0  0  0  0  0
   11.2632    1.3549   -0.0281 O   0  0  0  0  0  0  0  0  0  0  0  0
   11.4615    0.0232    0.3872 C   0  0  0  0  0  0  0  0  0  0  0  0
   10.3466   -0.3576    1.3702 C   0  0  0  0  0  0  0  0  0  0  0  0
    4.5770    3.9509   -1.9692 H   0  0  0  0  0  0  0  0  0  0  0  0
    3.3066    3.2216   -0.8582 H   0  0  0  0  0  0  0  0  0  0  0  0
    3.3086    2.7911   -2.5987 H   0  0  0  0  0  0  0  0  0  0  0  0
    2.2243    1.2761   -1.2311 H   0  0  0  0  0  0  0  0  0  0  0  0
   -1.5528    0.2161   -2.6750 H   0  0  0  0  0  0  0  0  0  0  0  0
   -4.0246   -0.0039   -2.4200 H   0  0  0  0  0  0  0  0  0  0  0  0
   -5.8260    0.1518   -0.8369 H   0  0  0  0  0  0  0  0  0  0  0  0
   -6.8106   -2.7138    2.7607 H   0  0  0  0  0  0  0  0  0  0  0  0
   -8.5985   -2.2800    2.7131 H   0  0  0  0  0  0  0  0  0  0  0  0
   -7.0275   -3.7752    0.4011 H   0  0  0  0  0  0  0  0  0  0  0  0
   -8.7992   -3.3162    0.3639 H   0  0  0  0  0  0  0  0  0  0  0  0
   -7.6334    1.0911   -0.3743 H   0  0  0  0  0  0  0  0  0  0  0  0
   -9.1652    2.8388    0.7401 H   0  0  0  0  0  0  0  0  0  0  0  0
  -11.5358    3.5321    0.9159 H   0  0  0  0  0  0  0  0  0  0  0  0
  -10.8538    4.2484   -0.5572 H   0  0  0  0  0  0  0  0  0  0  0  0
  -13.1586    2.5647   -0.3407 H   0  0  0  0  0  0  0  0  0  0  0  0
  -12.6648    0.8691   -2.1323 H   0  0  0  0  0  0  0  0  0  0  0  0
  -10.6018   -0.3227   -1.7168 H   0  0  0  0  0  0  0  0  0  0  0  0
   -3.4037   -0.7893    1.7394 H   0  0  0  0  0  0  0  0  0  0  0  0
   -0.3200   -2.5956   -0.2356 H   0  0  0  0  0  0  0  0  0  0  0  0
    1.2680   -4.3480    0.1079 H   0  0  0  0  0  0  0  0  0  0  0  0
    5.3620   -2.4538   -0.5623 H   0  0  0  0  0  0  0  0  0  0  0  0
    7.4424   -1.9223   -1.5038 H   0  0  0  0  0  0  0  0  0  0  0  0
    8.4920   -0.5348   -1.2249 H   0  0  0  0  0  0  0  0  0  0  0  0
    6.7751   -1.8921    1.0071 H   0  0  0  0  0  0  0  0  0  0  0  0
    8.4922   -2.0400    0.6815 H   0  0  0  0  0  0  0  0  0  0  0  0
    7.1233    0.6400    1.3255 H   0  0  0  0  0  0  0  0  0  0  0  0
    8.0487   -0.4301    2.4644 H   0  0  0  0  0  0  0  0  0  0  0  0
    9.4079    1.7624    2.5778 H   0  0  0  0  0  0  0  0  0  0  0  0
    8.6320    2.4413    1.0296 H   0  0  0  0  0  0  0  0  0  0  0  0
   11.5508    2.0414    1.8480 H   0  0  0  0  0  0  0  0  0  0  0  0
   10.8264    3.2054    0.6080 H   0  0  0  0  0  0  0  0  0  0  0  0
   11.3001   -0.6008   -0.5146 H   0  0  0  0  0  0  0  0  0  0  0  0
   12.4569   -0.1361    0.8078 H   0  0  0  0  0  0  0  0  0  0  0  0
   10.1090   -1.3943    1.4038 H   0  0  0  0  0  0  0  0  0  0  0  0
   10.6797    0.0679    2.3647 H   0  0  0  0  0  0  0  0  0  0  0  0
  1  2  1  0
  2  3  1  0
  3  4  2  0
  4  5  1  0
  5  6  2  0
  6  7  1  0
  7  8  1  0
  8  9  2  0
  9 10  1  0
 10 11  2  0
 11 12  1  0
 12 13  1  0
 13 14  2  0
 13 15  1  0
 15 16  1  0
 16 17  1  0
 15 18  1  0
 18 19  2  0
 18 20  1  0
 20 21  1  0
 21 22  2  0
 22 23  1  0
 23 24  1  0
 24 25  1  0
 24 26  1  0
 26 27  2  0
 11 28  1  0
 28 29  2  0
 29 30  1  0
  6 31  1  0
 31 32  2  0
 32 33  1  0
 33 34  2  0
 34 35  1  0
 35 36  2  0
 36 37  1  0
 37 38  1  0
 38 39  1  0
 39 40  1  0
 40 41  1  0
 41 42  1  0
 42 43  1  0
 43 44  1  0
 44 45  1  0
 45 46  1  0
 36  3  1  0
 46 41  1  0
 34  5  1  0
 29  8  1  0
 17 15  1  0
 27 21  1  0
  1 47  1  0
  1 48  1  0
  1 49  1  0
  4 50  1  0
  9 51  1  0
 10 52  1  0
 12 53  1  0
 16 54  1  0
 16 55  1  0
 17 56  1  0
 17 57  1  0
 20 58  1  0
 22 59  1  0
 23 60  1  0
 23 61  1  0
 24 62  1  0
 26 63  1  0
 27 64  1  0
 28 65  1  0
 31 66  1  0
 32 67  1  0
 35 68  1  0
 38 69  1  0
 38 70  1  0
 39 71  1  0
 39 72  1  0
 40 73  1  0
 40 74  1  0
 42 75  1  0
 42 76  1  0
 43 77  1  0
 43 78  1  0
 45 79  1  0
 45 80  1  0
 46 81  1  0
 46 82  1  0
M  END
$$$$
[H]c1c([H])c([H])c(C([H])([H])[C@@]2([H])C(=O)N3C([H])([H])C([H])([H])C([H])([H])[C@@]3([H])C(=O)N([H])[C@]([H])(C([H])([H])c3c([H])n([H])c4c([H])c([H])c([H])c([H])c34)C(=O)N([H])[C@]([H])(C([H])([H])c3c([H])n([H])c4c([H])c([H])c([H])c([H])c34)C(=O)N([H])[C@@]([H])(C([H])([H])c3c([H])c([H])c([H])c([H])c3[H])C(=O)N([H])[C@@]([H])(C([H])(C([H])([H])[H])C([H])([H])[H])C(=O)N2[H])c([H])c1[H]
     RDKit          3D

118125  0  0  0  0  0  0  0  0999 V2000
    4.2276   -3.6615    2.2214 C   0  0  0  0  0  0  0  0  0  0  0  0
    4.0050   -3.1680    0.7971 C   0  0  0  0  0  0  0  0  0  0  0  0
    5.3925   -3.0865    0.1873 C   0  0  0  0  0  0  0  0  0  0  0  0
    3.4513   -1.7432    0.9186 C   0  0  2  0  0  0  0  0  0  0  0  0
    2.2169   -1.6880    1.6616 N   0  0  0  0  0  0  0  0  0  0  0  0
    0.8849   -1.8293    1.2885 C   0  0  0  0  0  0  0  0  0  0  0  0
    0.1665   -0.7719    1.4642 O   0  0  0  0  0  0  0  0  0  0  0  0
    0.1139   -2.9477    0.7336 C   0  0  2  0  0  0  0  0  0  0  0  0
    0.3566   -3.2896   -0.6872 C   0  0  0  0  0  0  0  0  0  0  0  0
   -0.4800   -4.4560   -1.0666 C   0  0  0  0  0  0  0  0  0  0  0  0
   -1.6764   -4.3952   -1.7000 C   0  0  0  0  0  0  0  0  0  0  0  0
   -2.3969   -5.5396   -2.0080 C   0  0  0  0  0  0  0  0  0  0  0  0
   -1.9369   -6.7971   -1.6884 C   0  0  0  0  0  0  0  0  0  0  0  0
   -0.7237   -6.8822   -1.0451 C   0  0  0  0  0  0  0  0  0  0  0  0
   -0.0108   -5.7405   -0.7406 C   0  0  0  0  0  0  0  0  0  0  0  0
   -1.3147   -2.8249    0.9161 N   0  0  0  0  0  0  0  0  0  0  0  0
   -2.1676   -1.7376    1.0323 C   0  0  0  0  0  0  0  0  0  0  0  0
   -2.6579   -1.5478    2.2290 O   0  0  0  0  0  0  0  0  0  0  0  0
   -2.6436   -0.7400    0.0681 C   0  0  1  0  0  0  0  0  0  0  0  0
   -3.9104   -1.0992   -0.6690 C   0  0  0  0  0  0  0  0  0  0  0  0
   -5.1106   -1.3457    0.1122 C   0  0  0  0  0  0  0  0  0  0  0  0
   -6.0583   -0.3772    0.3929 C   0  0  0  0  0  0  0  0  0  0  0  0
   -6.9997   -0.9257    1.1494 N   0  0  0  0  0  0  0  0  0  0  0  0
   -6.6944   -2.2274    1.3704 C   0  0  0  0  0  0  0  0  0  0  0  0
   -7.3445   -3.2278    2.0678 C   0  0  0  0  0  0  0  0  0  0  0  0
   -6.8065   -4.4750    2.1044 C   0  0  0  0  0  0  0  0  0  0  0  0
   -5.6199   -4.7904    1.4641 C   0  0  0  0  0  0  0  0  0  0  0  0
   -4.9783   -3.8075    0.7779 C   0  0  0  0  0  0  0  0  0  0  0  0
   -5.5062   -2.5076    0.7220 C   0  0  0  0  0  0  0  0  0  0  0  0
   -2.9201    0.5241    0.7229 N   0  0  0  0  0  0  0  0  0  0  0  0
   -2.2785    1.7616    0.5642 C   0  0  0  0  0  0  0  0  0  0  0  0
   -2.2698    2.4967    1.5702 O   0  0  0  0  0  0  0  0  0  0  0  0
   -1.6375    2.2403   -0.6660 C   0  0  1  0  0  0  0  0  0  0  0  0
   -2.7839    2.7636   -1.5278 C   0  0  0  0  0  0  0  0  0  0  0  0
   -3.5748    3.8572   -0.9772 C   0  0  0  0  0  0  0  0  0  0  0  0
   -4.6192    3.6610   -0.0509 C   0  0  0  0  0  0  0  0  0  0  0  0
   -5.0949    4.8551    0.3170 N   0  0  0  0  0  0  0  0  0  0  0  0
   -4.4366    5.8531   -0.3045 C   0  0  0  0  0  0  0  0  0  0  0  0
   -4.5427    7.2310   -0.2985 C   0  0  0  0  0  0  0  0  0  0  0  0
   -3.7215    8.0025   -1.0868 C   0  0  0  0  0  0  0  0  0  0  0  0
   -2.7730    7.4003   -1.9009 C   0  0  0  0  0  0  0  0  0  0  0  0
   -2.6960    6.0444   -1.8805 C   0  0  0  0  0  0  0  0  0  0  0  0
   -3.4945    5.2207   -1.1069 C   0  0  0  0  0  0  0  0  0  0  0  0
   -0.5586    3.1395   -0.5872 N   0  0  0  0  0  0  0  0  0  0  0  0
    0.7894    3.0846   -0.2409 C   0  0  0  0  0  0  0  0  0  0  0  0
    1.6597    3.2845   -1.1981 O   0  0  0  0  0  0  0  0  0  0  0  0
    1.4426    2.8346    1.0595 C   0  0  2  0  0  0  0  0  0  0  0  0
    0.9590    3.7797    2.1690 C   0  0  0  0  0  0  0  0  0  0  0  0
    1.9390    4.8916    2.2828 C   0  0  0  0  0  0  0  0  0  0  0  0
    2.8115    4.6449    1.0413 C   0  0  0  0  0  0  0  0  0  0  0  0
    2.8529    3.1673    1.1147 N   0  0  0  0  0  0  0  0  0  0  0  0
    3.9539    2.3216    1.2654 C   0  0  0  0  0  0  0  0  0  0  0  0
    4.6707    2.5991    2.3398 O   0  0  0  0  0  0  0  0  0  0  0  0
    4.5036    1.2064    0.5175 C   0  0  2  0  0  0  0  0  0  0  0  0
    5.6456    1.8210   -0.3287 C   0  0  0  0  0  0  0  0  0  0  0  0
    6.3452    0.8467   -1.1602 C   0  0  0  0  0  0  0  0  0  0  0  0
    7.4218    0.1211   -0.6442 C   0  0  0  0  0  0  0  0  0  0  0  0
    8.1229   -0.7968   -1.4015 C   0  0  0  0  0  0  0  0  0  0  0  0
    7.7696   -1.0241   -2.7150 C   0  0  0  0  0  0  0  0  0  0  0  0
    6.7120   -0.3215   -3.2467 C   0  0  0  0  0  0  0  0  0  0  0  0
    6.0139    0.5999   -2.4734 C   0  0  0  0  0  0  0  0  0  0  0  0
    3.6858    0.4459   -0.3459 N   0  0  0  0  0  0  0  0  0  0  0  0
    3.5044   -0.9830   -0.3276 C   0  0  0  0  0  0  0  0  0  0  0  0
    3.3864   -1.6103   -1.4370 O   0  0  0  0  0  0  0  0  0  0  0  0
    3.4290   -4.4048    2.4122 H   0  0  0  0  0  0  0  0  0  0  0  0
    5.2205   -4.1442    2.3436 H   0  0  0  0  0  0  0  0  0  0  0  0
    4.1475   -2.8387    2.9570 H   0  0  0  0  0  0  0  0  0  0  0  0
    3.3985   -3.8360    0.2060 H   0  0  0  0  0  0  0  0  0  0  0  0
    6.0911   -2.5581    0.8923 H   0  0  0  0  0  0  0  0  0  0  0  0
    5.7768   -4.1460    0.1603 H   0  0  0  0  0  0  0  0  0  0  0  0
    5.4354   -2.7219   -0.8291 H   0  0  0  0  0  0  0  0  0  0  0  0
    4.2940   -1.2590    1.5337 H   0  0  0  0  0  0  0  0  0  0  0  0
    2.4204   -1.4847    2.7253 H   0  0  0  0  0  0  0  0  0  0  0  0
    0.4035   -3.9268    1.2774 H   0  0  0  0  0  0  0  0  0  0  0  0
    1.3902   -3.5971   -0.9465 H   0  0  0  0  0  0  0  0  0  0  0  0
    0.1354   -2.4553   -1.3934 H   0  0  0  0  0  0  0  0  0  0  0  0
   -2.0557   -3.4213   -1.9783 H   0  0  0  0  0  0  0  0  0  0  0  0
   -3.3595   -5.4272   -2.5210 H   0  0  0  0  0  0  0  0  0  0  0  0
   -2.4674   -7.7092   -1.9123 H   0  0  0  0  0  0  0  0  0  0  0  0
   -0.3460   -7.8694   -0.7868 H   0  0  0  0  0  0  0  0  0  0  0  0
    0.9319   -5.8534   -0.2386 H   0  0  0  0  0  0  0  0  0  0  0  0
   -1.8266   -3.7871    0.9882 H   0  0  0  0  0  0  0  0  0  0  0  0
   -1.8945   -0.5311   -0.7316 H   0  0  0  0  0  0  0  0  0  0  0  0
   -3.6724   -1.9576   -1.3657 H   0  0  0  0  0  0  0  0  0  0  0  0
   -4.0957   -0.2579   -1.4145 H   0  0  0  0  0  0  0  0  0  0  0  0
   -6.0487    0.6698    0.0465 H   0  0  0  0  0  0  0  0  0  0  0  0
   -7.8498   -0.4424    1.5238 H   0  0  0  0  0  0  0  0  0  0  0  0
   -8.2864   -2.9664    2.5733 H   0  0  0  0  0  0  0  0  0  0  0  0
   -7.2888   -5.2653    2.6369 H   0  0  0  0  0  0  0  0  0  0  0  0
   -5.1732   -5.7799    1.4804 H   0  0  0  0  0  0  0  0  0  0  0  0
   -4.0637   -4.0083    0.2512 H   0  0  0  0  0  0  0  0  0  0  0  0
   -3.7460    0.4213    1.4171 H   0  0  0  0  0  0  0  0  0  0  0  0
   -1.3516    1.2811   -1.2458 H   0  0  0  0  0  0  0  0  0  0  0  0
   -2.3565    3.1436   -2.5158 H   0  0  0  0  0  0  0  0  0  0  0  0
   -3.4740    1.9648   -1.8569 H   0  0  0  0  0  0  0  0  0  0  0  0
   -5.0114    2.7369    0.3386 H   0  0  0  0  0  0  0  0  0  0  0  0
   -5.8845    5.0249    1.0066 H   0  0  0  0  0  0  0  0  0  0  0  0
   -5.2937    7.6624    0.3490 H   0  0  0  0  0  0  0  0  0  0  0  0
   -3.7918    9.0875   -1.0926 H   0  0  0  0  0  0  0  0  0  0  0  0
   -2.1473    8.0294   -2.5062 H   0  0  0  0  0  0  0  0  0  0  0  0
   -1.9422    5.5688   -2.5295 H   0  0  0  0  0  0  0  0  0  0  0  0
   -0.8325    4.1401   -0.8952 H   0  0  0  0  0  0  0  0  0  0  0  0
    1.2163    1.8186    1.3664 H   0  0  0  0  0  0  0  0  0  0  0  0
   -0.0196    4.2449    1.8817 H   0  0  0  0  0  0  0  0  0  0  0  0
    0.8182    3.2813    3.1278 H   0  0  0  0  0  0  0  0  0  0  0  0
    2.5814    4.8640    3.1605 H   0  0  0  0  0  0  0  0  0  0  0  0
    1.4913    5.8992    2.1537 H   0  0  0  0  0  0  0  0  0  0  0  0
    3.7618    5.1317    1.2709 H   0  0  0  0  0  0  0  0  0  0  0  0
    2.3838    5.0536    0.1500 H   0  0  0  0  0  0  0  0  0  0  0  0
    5.0751    0.5520    1.2397 H   0  0  0  0  0  0  0  0  0  0  0  0
    5.2132    2.6242   -0.9954 H   0  0  0  0  0  0  0  0  0  0  0  0
    6.3729    2.3438    0.3104 H   0  0  0  0  0  0  0  0  0  0  0  0
    7.6758    0.3187    0.3873 H   0  0  0  0  0  0  0  0  0  0  0  0
    8.9553   -1.3562   -0.9969 H   0  0  0  0  0  0  0  0  0  0  0  0
    8.3196   -1.7494   -3.3250 H   0  0  0  0  0  0  0  0  0  0  0  0
    6.4475   -0.5135   -4.2816 H   0  0  0  0  0  0  0  0  0  0  0  0
    5.1799    1.1501   -2.9041 H   0  0  0  0  0  0  0  0  0  0  0  0
    3.1467    0.9210   -1.0951 H   0  0  0  0  0  0  0  0  0  0  0  0
  1  2  1  0
  2  3  1  0
  2  4  1  0
  4  5  1  0
  5  6  1  0
  6  7  2  0
  6  8  1  0
  8  9  1  0
  9 10  1  0
 10 11  2  0
 11 12  1  0
 12 13  2  0
 13 14  1  0
 14 15  2  0
  8 16  1  0
 16 17  1  0
 17 18  2  0
 17 19  1  0
 19 20  1  0
 20 21  1  0
 21 22  2  0
 22 23  1  0
 23 24  1  0
 24 25  2  0
 25 26  1  0
 26 27  2  0
 27 28  1  0
 28 29  2  0
 19 30  1  0
 30 31  1  0
 31 32  2  0
 31 33  1  0
 33 34  1  0
 34 35  1  0
 35 36  2  0
 36 37  1  0
 37 38  1  0
 38 39  2  0
 39 40  1  0
 40 41  2  0
 41 42  1  0
 42 43  2  0
 33 44  1  0
 44 45  1  0
 45 46  2  0
 45 47  1  0
 47 48  1  0
 48 49  1  0
 49 50  1  0
 50 51  1  0
 51 52  1  0
 52 53  2  0
 52 54  1  0
 54 55  1  0
 55 56  1  0
 56 57  2  0
 57 58  1  0
 58 59  2  0
 59 60  1  0
 60 61  2  0
 54 62  1  0
 62 63  1  0
 63 64  2  0
 63  4  1  0
 15 10  1  0
 29 21  1  0
 43 35  1  0
 51 47  1  0
 61 56  1  0
 29 24  1  0
 43 38  1  0
  1 65  1  0
  1 66  1  0
  1 67  1  0
  2 68  1  0
  3 69  1  0
  3 70  1  0
  3 71  1  0
  4 72  1  1
  5 73  1  0
  8 74  1  1
  9 75  1  0
  9 76  1  0
 11 77  1  0
 12 78  1  0
 13 79  1  0
 14 80  1  0
 15 81  1  0
 16 82  1  0
 19 83  1  6
 20 84  1  0
 20 85  1  0
 22 86  1  0
 23 87  1  0
 25 88  1  0
 26 89  1  0
 27 90  1  0
 28 91  1  0
 30 92  1  0
 33 93  1  6
 34 94  1  0
 34 95  1  0
 36 96  1  0
 37 97  1  0
 39 98  1  0
 40 99  1  0
 41100  1  0
 42101  1  0
 44102  1  0
 47103  1  1
 48104  1  0
 48105  1  0
 49106  1  0
 49107  1  0
 50108  1  0
 50109  1  0
 54110  1  1
 55111  1  0
 55112  1  0
 57113  1  0
 58114  1  0
 59115  1  0
 60116  1  0
 61117  1  0
 62118  1  0
M  END
$$$$
[H]c1c([H])c(Cl)c([H])c(C2=NC([H])([H])C(=O)N(C([H])([H])[H])c3c([H])c([H])c(Cl)c([H])c32)c1[H]
     RDKit          3D

 33 35  0  0  0  0  0  0  0  0999 V2000
    3.6128    1.0835    1.0869 C   0  0  0  0  0  0  0  0  0  0  0  0
    2.4924    1.0005    0.2308 N   0  0  0  0  0  0  0  0  0  0  0  0
    1.8465   -0.2938    0.1224 C   0  0  0  0  0  0  0  0  0  0  0  0
    2.7670   -1.3127    0.3007 C   0  0  0  0  0  0  0  0  0  0  0  0
    2.2982   -2.5992    0.1022 C   0  0  0  0  0  0  0  0  0  0  0  0
    0.9650   -2.8113   -0.2587 C   0  0  0  0  0  0  0  0  0  0  0  0
    0.3887   -4.4409   -0.5000 Cl  0  0  0  0  0  0  0  0  0  0  0  0
    0.0723   -1.7979   -0.4299 C   0  0  0  0  0  0  0  0  0  0  0  0
    0.5263   -0.4997   -0.2278 C   0  0  0  0  0  0  0  0  0  0  0  0
   -0.5591    0.4563   -0.3864 C   0  0  0  0  0  0  0  0  0  0  0  0
   -0.3195    1.6213   -0.9469 N   0  0  0  0  0  0  0  0  0  0  0  0
    0.8742    2.2293   -1.4798 C   0  0  0  0  0  0  0  0  0  0  0  0
    2.0184    2.1309   -0.5303 C   0  0  0  0  0  0  0  0  0  0  0  0
    2.6652    3.1704   -0.3637 O   0  0  0  0  0  0  0  0  0  0  0  0
   -1.8890    0.1780    0.0344 C   0  0  0  0  0  0  0  0  0  0  0  0
   -2.3689   -0.8402    0.7616 C   0  0  0  0  0  0  0  0  0  0  0  0
   -3.7075   -1.0716    1.0313 C   0  0  0  0  0  0  0  0  0  0  0  0
   -4.6502   -0.2048    0.5307 C   0  0  0  0  0  0  0  0  0  0  0  0
   -4.2180    0.8647   -0.2233 C   0  0  0  0  0  0  0  0  0  0  0  0
   -5.4371    1.9557   -0.8482 Cl  0  0  0  0  0  0  0  0  0  0  0  0
   -2.8782    1.0582   -0.4692 C   0  0  0  0  0  0  0  0  0  0  0  0
    3.7582    2.1354    1.3925 H   0  0  0  0  0  0  0  0  0  0  0  0
    4.5712    0.8083    0.5599 H   0  0  0  0  0  0  0  0  0  0  0  0
    3.5064    0.5084    2.0344 H   0  0  0  0  0  0  0  0  0  0  0  0
    3.7582   -1.0585    0.5775 H   0  0  0  0  0  0  0  0  0  0  0  0
    2.9980   -3.4079    0.2372 H   0  0  0  0  0  0  0  0  0  0  0  0
   -0.9473   -1.9384   -0.7699 H   0  0  0  0  0  0  0  0  0  0  0  0
    0.7258    3.2906   -1.7236 H   0  0  0  0  0  0  0  0  0  0  0  0
    1.1656    1.6987   -2.3983 H   0  0  0  0  0  0  0  0  0  0  0  0
   -1.6813   -1.5313    1.2550 H   0  0  0  0  0  0  0  0  0  0  0  0
   -4.0462   -1.9136    1.6249 H   0  0  0  0  0  0  0  0  0  0  0  0
   -5.7219   -0.3616    0.7274 H   0  0  0  0  0  0  0  0  0  0  0  0
   -2.5862    1.8933   -1.0537 H   0  0  0  0  0  0  0  0  0  0  0  0
  1  2  1  0
  2  3  1  0
  3  4  2  0
  4  5  1  0
  5  6  2  0
  6  7  1  0
  6  8  1  0
  8  9  2  0
  9 10  1  0
 10 11  2  0
 11 12  1  0
 12 13  1  0
 13 14  2  0
 10 15  1  0
 15 16  2  0
 16 17  1  0
 17 18  2  0
 18 19  1  0
 19 20  1  0
 19 21  2  0
 13  2  1  0
 21 15  1  0
  9  3  1  0
  1 22  1  0
  1 23  1  0
  1 24  1  0
  4 25  1  0
  5 26  1  0
  8 27  1  0
 12 28  1  0
 12 29  1  0
 16 30  1  0
 17 31  1  0
 18 32  1  0
 21 33  1  0
M  END
$$$$
[H]OC(=O)[C@@]([H])(N([H])C(=O)[C@@]([H])(N([H])C(=O)[C@@]([H])(N([H])C(=O)[C@@]([H])(N([H])C(=O)[C@@]([H])(N([H])C(=O)[C@@]([H])(N([H])C(=O)[C@@]([H])(N([H])C(=O)C([H])([H])[H])C([H])(C([H])([H])[H])C([H])([H])[H])C([H])([H])C([H])([H])C(=O)N([H])[H])C([H])([H])C([H])(C([H])([H])[H])C([H])([H])[H])C([H])([H])O[H])C([H])([H])O[H])C([H])([H])O[H])C([H])([H])O[H]
     RDKit          3D

104103  0  0  0  0  0  0  0  0999 V2000
   -3.9528   -3.3814    3.3989 C   0  0  0  0  0  0  0  0  0  0  0  0
   -2.5172   -3.0489    3.6353 C   0  0  0  0  0  0  0  0  0  0  0  0
   -2.4528   -1.8181    4.5357 C   0  0  0  0  0  0  0  0  0  0  0  0
   -1.6419   -2.9579    2.4511 C   0  0  0  0  0  0  0  0  0  0  0  0
   -1.9690   -1.9556    1.4036 C   0  0  2  0  0  0  0  0  0  0  0  0
   -3.2668   -2.1556    0.8060 N   0  0  0  0  0  0  0  0  0  0  0  0
   -4.1024   -1.0844    0.4423 C   0  0  0  0  0  0  0  0  0  0  0  0
   -3.7136    0.0829    0.6130 O   0  0  0  0  0  0  0  0  0  0  0  0
   -5.4928   -1.2698   -0.1595 C   0  0  2  0  0  0  0  0  0  0  0  0
   -5.3289   -2.1277   -1.3441 C   0  0  0  0  0  0  0  0  0  0  0  0
   -6.4682   -2.5899   -2.1092 C   0  0  0  0  0  0  0  0  0  0  0  0
   -7.3347   -1.6547   -2.8074 C   0  0  0  0  0  0  0  0  0  0  0  0
   -8.5050   -2.3366   -3.4096 N   0  0  0  0  0  0  0  0  0  0  0  0
   -7.2319   -0.4472   -2.9585 O   0  0  0  0  0  0  0  0  0  0  0  0
   -6.0108    0.0818   -0.3504 N   0  0  0  0  0  0  0  0  0  0  0  0
   -6.8967    0.6858    0.5434 C   0  0  0  0  0  0  0  0  0  0  0  0
   -7.2149   -0.0492    1.5632 O   0  0  0  0  0  0  0  0  0  0  0  0
   -7.4997    2.0038    0.4992 C   0  0  1  0  0  0  0  0  0  0  0  0
   -8.0090    2.4281    1.8151 N   0  0  0  0  0  0  0  0  0  0  0  0
   -9.3816    2.5310    2.1403 C   0  0  0  0  0  0  0  0  0  0  0  0
   -9.8762    2.9647    3.4566 C   0  0  0  0  0  0  0  0  0  0  0  0
  -10.2600    2.2378    1.2558 O   0  0  0  0  0  0  0  0  0  0  0  0
   -6.7950    3.1556   -0.0873 C   0  0  0  0  0  0  0  0  0  0  0  0
   -6.4542    3.0743   -1.5504 C   0  0  0  0  0  0  0  0  0  0  0  0
   -5.5330    3.5233    0.6775 C   0  0  0  0  0  0  0  0  0  0  0  0
   -0.8920   -2.1394    0.3411 C   0  0  0  0  0  0  0  0  0  0  0  0
   -1.0423   -3.0497   -0.4907 O   0  0  0  0  0  0  0  0  0  0  0  0
    0.2163   -1.2506    0.3771 N   0  0  0  0  0  0  0  0  0  0  0  0
    1.3387   -1.2946   -0.5415 C   0  0  1  0  0  0  0  0  0  0  0  0
    0.9156   -0.6405   -1.8781 C   0  0  0  0  0  0  0  0  0  0  0  0
    0.5447    0.6753   -1.7219 O   0  0  0  0  0  0  0  0  0  0  0  0
    2.5344   -0.6512   -0.0174 C   0  0  0  0  0  0  0  0  0  0  0  0
    2.3769    0.3534    0.7715 O   0  0  0  0  0  0  0  0  0  0  0  0
    3.8335   -1.0842   -0.3436 N   0  0  0  0  0  0  0  0  0  0  0  0
    5.0144   -0.4138    0.1723 C   0  0  1  0  0  0  0  0  0  0  0  0
    5.6130   -1.2292    1.3262 C   0  0  0  0  0  0  0  0  0  0  0  0
    6.7286   -0.5166    1.7654 O   0  0  0  0  0  0  0  0  0  0  0  0
    6.1024   -0.2603   -0.8042 C   0  0  0  0  0  0  0  0  0  0  0  0
    6.1719   -1.1942   -1.6912 O   0  0  0  0  0  0  0  0  0  0  0  0
    7.0338    0.7779   -0.8556 N   0  0  0  0  0  0  0  0  0  0  0  0
    8.0583    0.8146   -1.8554 C   0  0  1  0  0  0  0  0  0  0  0  0
    7.7949    1.8933   -2.9072 C   0  0  0  0  0  0  0  0  0  0  0  0
    7.7581    3.1219   -2.2846 O   0  0  0  0  0  0  0  0  0  0  0  0
    9.3434    1.1380   -1.2138 C   0  0  0  0  0  0  0  0  0  0  0  0
    9.4213    1.3819    0.0043 O   0  0  0  0  0  0  0  0  0  0  0  0
   10.5216    1.1734   -2.0018 N   0  0  0  0  0  0  0  0  0  0  0  0
   11.7987    1.5016   -1.4015 C   0  0  1  0  0  0  0  0  0  0  0  0
   12.5184    0.1559   -1.1719 C   0  0  0  0  0  0  0  0  0  0  0  0
   12.6569   -0.4367   -2.4271 O   0  0  0  0  0  0  0  0  0  0  0  0
   12.6368    2.3686   -2.2456 C   0  0  0  0  0  0  0  0  0  0  0  0
   13.8757    2.7680   -1.8204 O   0  0  0  0  0  0  0  0  0  0  0  0
   12.2050    2.7409   -3.3621 O   0  0  0  0  0  0  0  0  0  0  0  0
   -4.1146   -4.3003    2.7970 H   0  0  0  0  0  0  0  0  0  0  0  0
   -4.3614   -3.6672    4.4223 H   0  0  0  0  0  0  0  0  0  0  0  0
   -4.5899   -2.5315    3.0996 H   0  0  0  0  0  0  0  0  0  0  0  0
   -2.1245   -3.8943    4.2882 H   0  0  0  0  0  0  0  0  0  0  0  0
   -1.5053   -1.2846    4.3020 H   0  0  0  0  0  0  0  0  0  0  0  0
   -2.5389   -2.1005    5.6021 H   0  0  0  0  0  0  0  0  0  0  0  0
   -3.2770   -1.1180    4.2070 H   0  0  0  0  0  0  0  0  0  0  0  0
   -0.5864   -2.8246    2.8351 H   0  0  0  0  0  0  0  0  0  0  0  0
   -1.5713   -3.9629    1.9346 H   0  0  0  0  0  0  0  0  0  0  0  0
   -1.8991   -0.8967    1.6916 H   0  0  0  0  0  0  0  0  0  0  0  0
   -3.5869   -3.1284    0.6463 H   0  0  0  0  0  0  0  0  0  0  0  0
   -6.0574   -1.7303    0.6631 H   0  0  0  0  0  0  0  0  0  0  0  0
   -4.5007   -1.6950   -2.0158 H   0  0  0  0  0  0  0  0  0  0  0  0
   -4.7781   -3.1032   -1.0008 H   0  0  0  0  0  0  0  0  0  0  0  0
   -6.1035   -3.3906   -2.8531 H   0  0  0  0  0  0  0  0  0  0  0  0
   -7.1127   -3.2152   -1.3665 H   0  0  0  0  0  0  0  0  0  0  0  0
   -8.3184   -2.8167   -4.2880 H   0  0  0  0  0  0  0  0  0  0  0  0
   -9.3872   -2.2825   -2.9224 H   0  0  0  0  0  0  0  0  0  0  0  0
   -5.6574    0.6282   -1.1602 H   0  0  0  0  0  0  0  0  0  0  0  0
   -8.5022    1.8989   -0.0977 H   0  0  0  0  0  0  0  0  0  0  0  0
   -7.3254    2.6777    2.5861 H   0  0  0  0  0  0  0  0  0  0  0  0
   -9.1616    3.6294    3.9900 H   0  0  0  0  0  0  0  0  0  0  0  0
  -10.1843    2.1374    4.1203 H   0  0  0  0  0  0  0  0  0  0  0  0
  -10.8072    3.6018    3.3338 H   0  0  0  0  0  0  0  0  0  0  0  0
   -7.4907    4.0565   -0.0137 H   0  0  0  0  0  0  0  0  0  0  0  0
   -5.3872    2.8424   -1.6631 H   0  0  0  0  0  0  0  0  0  0  0  0
   -6.5902    4.0833   -2.0143 H   0  0  0  0  0  0  0  0  0  0  0  0
   -7.0708    2.3135   -2.0723 H   0  0  0  0  0  0  0  0  0  0  0  0
   -5.6723    3.4951    1.7685 H   0  0  0  0  0  0  0  0  0  0  0  0
   -4.6839    2.8866    0.4133 H   0  0  0  0  0  0  0  0  0  0  0  0
   -5.3078    4.5941    0.4431 H   0  0  0  0  0  0  0  0  0  0  0  0
    0.1912   -0.5199    1.1541 H   0  0  0  0  0  0  0  0  0  0  0  0
    1.5242   -2.3364   -0.8233 H   0  0  0  0  0  0  0  0  0  0  0  0
    0.0320   -1.2382   -2.2168 H   0  0  0  0  0  0  0  0  0  0  0  0
    1.6849   -0.7758   -2.6381 H   0  0  0  0  0  0  0  0  0  0  0  0
    0.6527    1.1841   -2.5707 H   0  0  0  0  0  0  0  0  0  0  0  0
    3.9656   -1.9010   -0.9593 H   0  0  0  0  0  0  0  0  0  0  0  0
    4.7427    0.5663    0.5894 H   0  0  0  0  0  0  0  0  0  0  0  0
    5.9823   -2.2039    0.9468 H   0  0  0  0  0  0  0  0  0  0  0  0
    4.9040   -1.3439    2.1470 H   0  0  0  0  0  0  0  0  0  0  0  0
    6.3707    0.3995    1.9924 H   0  0  0  0  0  0  0  0  0  0  0  0
    6.9773    1.5387   -0.1452 H   0  0  0  0  0  0  0  0  0  0  0  0
    8.0756   -0.1777   -2.3678 H   0  0  0  0  0  0  0  0  0  0  0  0
    8.6798    1.8563   -3.5869 H   0  0  0  0  0  0  0  0  0  0  0  0
    6.9170    1.6680   -3.5218 H   0  0  0  0  0  0  0  0  0  0  0  0
    7.3794    3.8521   -2.8028 H   0  0  0  0  0  0  0  0  0  0  0  0
   10.4595    0.9577   -3.0269 H   0  0  0  0  0  0  0  0  0  0  0  0
   11.5704    1.9547   -0.3959 H   0  0  0  0  0  0  0  0  0  0  0  0
   11.7852   -0.4741   -0.5864 H   0  0  0  0  0  0  0  0  0  0  0  0
   13.4690    0.3079   -0.6718 H   0  0  0  0  0  0  0  0  0  0  0  0
   13.6325   -0.5350   -2.6361 H   0  0  0  0  0  0  0  0  0  0  0  0
   14.0884    3.7224   -1.5367 H   0  0  0  0  0  0  0  0  0  0  0  0
  1  2  1  0
  2  3  1  0
  2  4  1  0
  4  5  1  0
  5  6  1  0
  6  7  1  0
  7  8  2  0
  7  9  1  0
  9 10  1  0
 10 11  1  0
 11 12  1  0
 12 13  1  0
 12 14  2  0
  9 15  1  0
 15 16  1  0
 16 17  2  0
 16 18  1  0
 18 19  1  0
 19 20  1  0
 20 21  1  0
 20 22  2  0
 18 23  1  0
 23 24  1  0
 23 25  1  0
  5 26  1  0
 26 27  2  0
 26 28  1  0
 28 29  1  0
 29 30  1  0
 30 31  1  0
 29 32  1  0
 32 33  2  0
 32 34  1  0
 34 35  1  0
 35 36  1  0
 36 37  1  0
 35 38  1  0
 38 39  2  0
 38 40  1  0
 40 41  1  0
 41 42  1  0
 42 43  1  0
 41 44  1  0
 44 45  2  0
 44 46  1  0
 46 47  1  0
 47 48  1  0
 48 49  1  0
 47 50  1  0
 50 51  1  0
 50 52  2  0
  1 53  1  0
  1 54  1  0
  1 55  1  0
  2 56  1  0
  3 57  1  0
  3 58  1  0
  3 59  1  0
  4 60  1  0
  4 61  1  0
  5 62  1  1
  6 63  1  0
  9 64  1  1
 10 65  1  0
 10 66  1  0
 11 67  1  0
 11 68  1  0
 13 69  1  0
 13 70  1  0
 15 71  1  0
 18 72  1  6
 19 73  1  0
 21 74  1  0
 21 75  1  0
 21 76  1  0
 23 77  1  0
 24 78  1  0
 24 79  1  0
 24 80  1  0
 25 81  1  0
 25 82  1  0
 25 83  1  0
 28 84  1  0
 29 85  1  6
 30 86  1  0
 30 87  1  0
 31 88  1  0
 34 89  1  0
 35 90  1  1
 36 91  1  0
 36 92  1  0
 37 93  1  0
 40 94  1  0
 41 95  1  6
 42 96  1  0
 42 97  1  0
 43 98  1  0
 46 99  1  0
 47100  1  1
 48101  1  0
 48102  1  0
 49103  1  0
 51104  1  0
M  END
$$$$
[H]c1nc2c(N([H])C3([H])C([H])([H])C3([H])[H])nc(N([H])c3c([H])c([H])c(N4C([H])([H])C([H])([H])N(C([H])([H])[H])C([H])([H])C4([H])[H])c([H])c3[H])nn2c1C#N
     RDKit          3D

 52 56  0  0  0  0  0  0  0  0999 V2000
    7.7646    0.6714    0.1575 C   0  0  0  0  0  0  0  0  0  0  0  0
    6.7630   -0.0916   -0.5739 N   0  0  0  0  0  0  0  0  0  0  0  0
    5.7683    0.7248   -1.1749 C   0  0  0  0  0  0  0  0  0  0  0  0
    4.6471   -0.1753   -1.6679 C   0  0  0  0  0  0  0  0  0  0  0  0
    4.0223   -0.6696   -0.4715 N   0  0  0  0  0  0  0  0  0  0  0  0
    4.8958   -1.3539    0.4554 C   0  0  0  0  0  0  0  0  0  0  0  0
    6.3424   -1.2249    0.1374 C   0  0  0  0  0  0  0  0  0  0  0  0
    2.6458   -0.5064   -0.2002 C   0  0  0  0  0  0  0  0  0  0  0  0
    1.7603    0.1365   -0.9994 C   0  0  0  0  0  0  0  0  0  0  0  0
    0.4041    0.2799   -0.7026 C   0  0  0  0  0  0  0  0  0  0  0  0
   -0.1179   -0.2417    0.4538 C   0  0  0  0  0  0  0  0  0  0  0  0
   -1.4716   -0.1779    0.8500 N   0  0  0  0  0  0  0  0  0  0  0  0
   -2.5851    0.1740    0.0759 C   0  0  0  0  0  0  0  0  0  0  0  0
   -3.7951    0.1597    0.7255 N   0  0  0  0  0  0  0  0  0  0  0  0
   -4.9316    0.4684    0.0856 C   0  0  0  0  0  0  0  0  0  0  0  0
   -6.1979    0.4555    0.7569 N   0  0  0  0  0  0  0  0  0  0  0  0
   -6.2548    0.1010    2.1607 C   0  0  0  0  0  0  0  0  0  0  0  0
   -7.6456    0.1095    2.8100 C   0  0  0  0  0  0  0  0  0  0  0  0
   -6.8655   -1.1872    2.5798 C   0  0  0  0  0  0  0  0  0  0  0  0
   -4.8635    0.8045   -1.2520 C   0  0  0  0  0  0  0  0  0  0  0  0
   -5.8128    1.1499   -2.1262 N   0  0  0  0  0  0  0  0  0  0  0  0
   -5.2354    1.3848   -3.3211 C   0  0  0  0  0  0  0  0  0  0  0  0
   -3.8743    1.1831   -3.2067 C   0  0  0  0  0  0  0  0  0  0  0  0
   -2.8506    1.3112   -4.2061 C   0  0  0  0  0  0  0  0  0  0  0  0
   -2.0259    1.4341   -5.0088 N   0  0  0  0  0  0  0  0  0  0  0  0
   -3.6782    0.8239   -1.9093 N   0  0  0  0  0  0  0  0  0  0  0  0
   -2.6105    0.5088   -1.2107 N   0  0  0  0  0  0  0  0  0  0  0  0
    0.7983   -0.9058    1.2794 C   0  0  0  0  0  0  0  0  0  0  0  0
    2.1272   -1.0425    0.9820 C   0  0  0  0  0  0  0  0  0  0  0  0
    8.7396    0.1241   -0.0007 H   0  0  0  0  0  0  0  0  0  0  0  0
    7.6001    0.6397    1.2546 H   0  0  0  0  0  0  0  0  0  0  0  0
    7.8252    1.7219   -0.1950 H   0  0  0  0  0  0  0  0  0  0  0  0
    5.3348    1.4799   -0.4794 H   0  0  0  0  0  0  0  0  0  0  0  0
    6.1903    1.2293   -2.0682 H   0  0  0  0  0  0  0  0  0  0  0  0
    4.0051    0.2985   -2.3974 H   0  0  0  0  0  0  0  0  0  0  0  0
    5.1857   -1.0421   -2.1577 H   0  0  0  0  0  0  0  0  0  0  0  0
    4.7198   -0.9762    1.5062 H   0  0  0  0  0  0  0  0  0  0  0  0
    4.5648   -2.4146    0.4805 H   0  0  0  0  0  0  0  0  0  0  0  0
    6.6557   -2.1396   -0.4288 H   0  0  0  0  0  0  0  0  0  0  0  0
    6.9275   -1.2848    1.1026 H   0  0  0  0  0  0  0  0  0  0  0  0
    2.0831    0.5731   -1.9207 H   0  0  0  0  0  0  0  0  0  0  0  0
   -0.2185    0.8176   -1.3991 H   0  0  0  0  0  0  0  0  0  0  0  0
   -1.6392   -0.4297    1.8805 H   0  0  0  0  0  0  0  0  0  0  0  0
   -7.0832    0.6920    0.2737 H   0  0  0  0  0  0  0  0  0  0  0  0
   -5.4561    0.4978    2.8132 H   0  0  0  0  0  0  0  0  0  0  0  0
   -8.5073    0.3258    2.1440 H   0  0  0  0  0  0  0  0  0  0  0  0
   -7.7217    0.3833    3.8749 H   0  0  0  0  0  0  0  0  0  0  0  0
   -6.4515   -1.7149    3.4542 H   0  0  0  0  0  0  0  0  0  0  0  0
   -7.3365   -1.8515    1.8247 H   0  0  0  0  0  0  0  0  0  0  0  0
   -5.7502    1.6849   -4.2327 H   0  0  0  0  0  0  0  0  0  0  0  0
    0.4281   -1.3401    2.2137 H   0  0  0  0  0  0  0  0  0  0  0  0
    2.7817   -1.5786    1.6830 H   0  0  0  0  0  0  0  0  0  0  0  0
  1  2  1  0
  2  3  1  0
  3  4  1  0
  4  5  1  0
  5  6  1  0
  6  7  1  0
  5  8  1  0
  8  9  2  0
  9 10  1  0
 10 11  2  0
 11 12  1  0
 12 13  1  0
 13 14  1  0
 14 15  2  0
 15 16  1  0
 16 17  1  0
 17 18  1  0
 18 19  1  0
 15 20  1  0
 20 21  2  0
 21 22  1  0
 22 23  2  0
 23 24  1  0
 24 25  3  0
 23 26  1  0
 26 27  1  0
 11 28  1  0
 28 29  2  0
  7  2  1  0
 29  8  1  0
 27 13  2  0
 19 17  1  0
 26 20  1  0
  1 30  1  0
  1 31  1  0
  1 32  1  0
  3 33  1  0
  3 34  1  0
  4 35  1  0
  4 36  1  0
  6 37  1  0
  6 38  1  0
  7 39  1  0
  7 40  1  0
  9 41  1  0
 10 42  1  0
 12 43  1  0
 16 44  1  0
 17 45  1  0
 18 46  1  0
 18 47  1  0
 19 48  1  0
 19 49  1  0
 22 50  1  0
 28 51  1  0
 29 52  1  0
M  END
$$$$
[H]O[C@@]([H])(C([H])([H])C(=O)N([H])[C@]([H])(C(=O)N([H])[C@@]([H])(C([H])([H])C([H])(C([H])([H])[H])C([H])([H])[H])C([H])(C([H])([H])[H])C([H])([H])[H])C([H])([H])[H])[C@@]([H])(N([H])C(=O)[C@@]([H])(N([H])C(=O)C([H])([H])C([H])(C([H])([H])[H])C([H])([H])[H])C([H])(C([H])([H])[H])C([H])([H])[H])C([H])(C([H])([H])[H])C([H])([H])[H]
     RDKit          3D

 91 90  0  0  0  0  0  0  0  0999 V2000
   -8.5135    2.5854    0.4722 C   0  0  0  0  0  0  0  0  0  0  0  0
   -7.3755    1.5146    0.1157 C   0  0  0  0  0  0  0  0  0  0  0  0
   -7.5501    1.4295   -1.3773 C   0  0  0  0  0  0  0  0  0  0  0  0
   -7.6519    0.3547    0.9435 C   0  0  0  0  0  0  0  0  0  0  0  0
   -6.9184   -0.8914    1.0984 C   0  0  2  0  0  0  0  0  0  0  0  0
   -5.5409   -0.7565    1.5730 N   0  0  0  0  0  0  0  0  0  0  0  0
   -5.0153    0.2478    2.3735 C   0  0  0  0  0  0  0  0  0  0  0  0
   -5.6750    1.2404    2.8052 O   0  0  0  0  0  0  0  0  0  0  0  0
   -3.5469    0.1378    2.7259 C   0  0  2  0  0  0  0  0  0  0  0  0
   -3.2638    1.2242    3.7775 C   0  0  0  0  0  0  0  0  0  0  0  0
   -2.7456    0.4456    1.5527 N   0  0  0  0  0  0  0  0  0  0  0  0
   -1.4395   -0.1056    1.4714 C   0  0  0  0  0  0  0  0  0  0  0  0
   -0.9748   -0.7730    2.4067 O   0  0  0  0  0  0  0  0  0  0  0  0
   -0.6271    0.1130    0.2410 C   0  0  0  0  0  0  0  0  0  0  0  0
    0.8236   -0.3661    0.4314 C   0  0  2  0  0  0  0  0  0  0  0  0
    1.3254    0.4568    1.4094 O   0  0  0  0  0  0  0  0  0  0  0  0
    1.5119   -0.4154   -0.8752 C   0  0  1  0  0  0  0  0  0  0  0  0
    2.9419   -0.7533   -0.7766 N   0  0  0  0  0  0  0  0  0  0  0  0
    3.9232    0.0069   -1.4071 C   0  0  0  0  0  0  0  0  0  0  0  0
    3.5608    1.0452   -2.0605 O   0  0  0  0  0  0  0  0  0  0  0  0
    5.3708   -0.2574   -1.4059 C   0  0  1  0  0  0  0  0  0  0  0  0
    6.0787    0.9502   -1.3115 N   0  0  0  0  0  0  0  0  0  0  0  0
    6.9722    1.4727   -0.4022 C   0  0  0  0  0  0  0  0  0  0  0  0
    7.3070    0.8634    0.6316 O   0  0  0  0  0  0  0  0  0  0  0  0
    7.6167    2.8181   -0.5867 C   0  0  0  0  0  0  0  0  0  0  0  0
    8.5227    3.1833    0.5634 C   0  0  0  0  0  0  0  0  0  0  0  0
    9.6481    2.1986    0.7607 C   0  0  0  0  0  0  0  0  0  0  0  0
    7.7756    3.3762    1.8515 C   0  0  0  0  0  0  0  0  0  0  0  0
    5.8221   -1.5051   -0.7334 C   0  0  0  0  0  0  0  0  0  0  0  0
    5.1584   -2.7294   -1.4385 C   0  0  0  0  0  0  0  0  0  0  0  0
    7.3083   -1.7535   -0.7378 C   0  0  0  0  0  0  0  0  0  0  0  0
    0.8382   -1.4463   -1.7820 C   0  0  0  0  0  0  0  0  0  0  0  0
    1.4633   -1.5996   -3.1219 C   0  0  0  0  0  0  0  0  0  0  0  0
    0.7537   -2.7921   -1.1040 C   0  0  0  0  0  0  0  0  0  0  0  0
   -6.9348   -1.9633    0.0880 C   0  0  0  0  0  0  0  0  0  0  0  0
   -6.3558   -1.6612   -1.2585 C   0  0  0  0  0  0  0  0  0  0  0  0
   -8.2805   -2.6543   -0.0933 C   0  0  0  0  0  0  0  0  0  0  0  0
   -8.4474    2.8310    1.5249 H   0  0  0  0  0  0  0  0  0  0  0  0
   -8.3891    3.4188   -0.2352 H   0  0  0  0  0  0  0  0  0  0  0  0
   -9.4364    2.0471    0.2229 H   0  0  0  0  0  0  0  0  0  0  0  0
   -6.4628    2.1068    0.2979 H   0  0  0  0  0  0  0  0  0  0  0  0
   -6.5744    1.3224   -1.9213 H   0  0  0  0  0  0  0  0  0  0  0  0
   -8.2557    0.7077   -1.7449 H   0  0  0  0  0  0  0  0  0  0  0  0
   -7.9239    2.4302   -1.7857 H   0  0  0  0  0  0  0  0  0  0  0  0
   -7.8374    0.7660    2.0100 H   0  0  0  0  0  0  0  0  0  0  0  0
   -8.7586    0.0025    0.7426 H   0  0  0  0  0  0  0  0  0  0  0  0
   -7.4180   -1.3564    2.0635 H   0  0  0  0  0  0  0  0  0  0  0  0
   -4.8798   -1.5312    1.2520 H   0  0  0  0  0  0  0  0  0  0  0  0
   -3.3214   -0.8276    3.1147 H   0  0  0  0  0  0  0  0  0  0  0  0
   -4.1608    1.4467    4.3538 H   0  0  0  0  0  0  0  0  0  0  0  0
   -2.4132    0.8856    4.3926 H   0  0  0  0  0  0  0  0  0  0  0  0
   -2.8840    2.1156    3.1962 H   0  0  0  0  0  0  0  0  0  0  0  0
   -3.0912    1.0488    0.7877 H   0  0  0  0  0  0  0  0  0  0  0  0
   -0.5999    1.2105    0.0463 H   0  0  0  0  0  0  0  0  0  0  0  0
   -1.1456   -0.3461   -0.5909 H   0  0  0  0  0  0  0  0  0  0  0  0
    0.7246   -1.3877    0.8826 H   0  0  0  0  0  0  0  0  0  0  0  0
    1.8109    1.2393    1.0743 H   0  0  0  0  0  0  0  0  0  0  0  0
    1.4372    0.5406   -1.3889 H   0  0  0  0  0  0  0  0  0  0  0  0
    3.2189   -1.5674   -0.1957 H   0  0  0  0  0  0  0  0  0  0  0  0
    5.5756   -0.5725   -2.5426 H   0  0  0  0  0  0  0  0  0  0  0  0
    5.8764    1.6460   -2.1520 H   0  0  0  0  0  0  0  0  0  0  0  0
    8.2434    2.7713   -1.4968 H   0  0  0  0  0  0  0  0  0  0  0  0
    6.9062    3.6255   -0.7344 H   0  0  0  0  0  0  0  0  0  0  0  0
    9.0334    4.1624    0.3240 H   0  0  0  0  0  0  0  0  0  0  0  0
    9.8870    1.6565   -0.2033 H   0  0  0  0  0  0  0  0  0  0  0  0
   10.5995    2.7042    1.0258 H   0  0  0  0  0  0  0  0  0  0  0  0
    9.4385    1.4783    1.5679 H   0  0  0  0  0  0  0  0  0  0  0  0
    8.2568    4.2211    2.4006 H   0  0  0  0  0  0  0  0  0  0  0  0
    7.8018    2.4985    2.5322 H   0  0  0  0  0  0  0  0  0  0  0  0
    6.7403    3.6954    1.6030 H   0  0  0  0  0  0  0  0  0  0  0  0
    5.4543   -1.5292    0.2964 H   0  0  0  0  0  0  0  0  0  0  0  0
    4.6747   -3.3398   -0.6970 H   0  0  0  0  0  0  0  0  0  0  0  0
    5.9589   -3.2954   -1.9802 H   0  0  0  0  0  0  0  0  0  0  0  0
    4.4204   -2.3097   -2.1362 H   0  0  0  0  0  0  0  0  0  0  0  0
    7.8834   -1.0902   -1.3801 H   0  0  0  0  0  0  0  0  0  0  0  0
    7.4861   -2.7913   -1.1902 H   0  0  0  0  0  0  0  0  0  0  0  0
    7.6489   -1.8859    0.2975 H   0  0  0  0  0  0  0  0  0  0  0  0
   -0.1870   -1.0928   -1.9563 H   0  0  0  0  0  0  0  0  0  0  0  0
    2.4131   -1.0863   -3.2431 H   0  0  0  0  0  0  0  0  0  0  0  0
    1.7145   -2.7028   -3.2831 H   0  0  0  0  0  0  0  0  0  0  0  0
    0.7481   -1.3786   -3.9602 H   0  0  0  0  0  0  0  0  0  0  0  0
   -0.0781   -2.8902   -0.4139 H   0  0  0  0  0  0  0  0  0  0  0  0
    1.7417   -3.0159   -0.6552 H   0  0  0  0  0  0  0  0  0  0  0  0
    0.6338   -3.5479   -1.9141 H   0  0  0  0  0  0  0  0  0  0  0  0
   -6.2770   -2.7984    0.5140 H   0  0  0  0  0  0  0  0  0  0  0  0
   -7.0981   -1.5152   -2.0574 H   0  0  0  0  0  0  0  0  0  0  0  0
   -5.7446   -2.5567   -1.6399 H   0  0  0  0  0  0  0  0  0  0  0  0
   -5.5675   -0.8623   -1.2290 H   0  0  0  0  0  0  0  0  0  0  0  0
   -8.4379   -3.3565    0.7144 H   0  0  0  0  0  0  0  0  0  0  0  0
   -9.0938   -1.9336   -0.2891 H   0  0  0  0  0  0  0  0  0  0  0  0
   -8.1579   -3.2518   -1.0417 H   0  0  0  0  0  0  0  0  0  0  0  0
  1  2  1  0
  2  3  1  0
  2  4  1  0
  4  5  1  0
  5  6  1  0
  6  7  1  0
  7  8  2  0
  7  9  1  0
  9 10  1  0
  9 11  1  0
 11 12  1  0
 12 13  2  0
 12 14  1  0
 14 15  1  0
 15 16  1  0
 15 17  1  0
 17 18  1  0
 18 19  1  0
 19 20  2  0
 19 21  1  0
 21 22  1  0
 22 23  1  0
 23 24  2  0
 23 25  1  0
 25 26  1  0
 26 27  1  0
 26 28  1  0
 21 29  1  0
 29 30  1  0
 29 31  1  0
 17 32  1  0
 32 33  1  0
 32 34  1  0
  5 35  1  0
 35 36  1  0
 35 37  1  0
  1 38  1  0
  1 39  1  0
  1 40  1  0
  2 41  1  0
  3 42  1  0
  3 43  1  0
  3 44  1  0
  4 45  1  0
  4 46  1  0
  5 47  1  1
  6 48  1  0
  9 49  1  1
 10 50  1  0
 10 51  1  0
 10 52  1  0
 11 53  1  0
 14 54  1  0
 14 55  1  0
 15 56  1  1
 16 57  1  0
 17 58  1  6
 18 59  1  0
 21 60  1  6
 22 61  1  0
 25 62  1  0
 25 63  1  0
 26 64  1  0
 27 65  1  0
 27 66  1  0
 27 67  1  0
 28 68  1  0
 28 69  1  0
 28 70  1  0
 29 71  1  0
 30 72  1  0
 30 73  1  0
 30 74  1  0
 31 75  1  0
 31 76  1  0
 31 77  1  0
 32 78  1  0
 33 79  1  0
 33 80  1  0
 33 81  1  0
 34 82  1  0
 34 83  1  0
 34 84  1  0
 35 85  1  0
 36 86  1  0
 36 87  1  0
 36 88  1  0
 37 89  1  0
 37 90  1  0
 37 91  1  0
M  END
$$$$
[H]OC(=O)[C@@]([H])(N([H])C(=O)[C@@]([H])(N([H])C(=O)[C@@]([H])(N([H])C(=O)[C@@]([H])(N([H])C(=O)c1c([H])c([H])c(S(=O)(=O)N([H])[H])c([H])c1[H])C([H])([H])c1c([H])c([H])c([H])c([H])c1[H])C([H])([H])c1c([H])c([H])c([H])c([H])c1[H])C([H])([H])c1c([H])c([H])c(O[H])c([H])c1[H])C([H])([H])c1c([H])c([H])c([H])c([H])c1[H]
     RDKit          3D

101105  0  0  0  0  0  0  0  0999 V2000
  -11.0420    4.4719   -0.4266 N   0  0  0  0  0  0  0  0  0  0  0  0
   -9.4766    5.0653   -0.9164 S   0  0  0  0  0  0  0  0  0  0  0  0
   -9.3798    5.2112   -2.3973 O   0  0  0  0  0  0  0  0  0  0  0  0
   -9.3181    6.4141   -0.2567 O   0  0  0  0  0  0  0  0  0  0  0  0
   -8.2596    3.9943   -0.2790 C   0  0  0  0  0  0  0  0  0  0  0  0
   -7.6312    4.2600    0.9391 C   0  0  0  0  0  0  0  0  0  0  0  0
   -6.6790    3.3895    1.4228 C   0  0  0  0  0  0  0  0  0  0  0  0
   -6.3132    2.2432    0.7411 C   0  0  0  0  0  0  0  0  0  0  0  0
   -6.9330    1.9855   -0.4547 C   0  0  0  0  0  0  0  0  0  0  0  0
   -7.8972    2.8604   -0.9526 C   0  0  0  0  0  0  0  0  0  0  0  0
   -5.3267    1.3164    1.2555 C   0  0  0  0  0  0  0  0  0  0  0  0
   -4.9609    1.4557    2.4567 O   0  0  0  0  0  0  0  0  0  0  0  0
   -4.7883    0.2927    0.4603 N   0  0  0  0  0  0  0  0  0  0  0  0
   -3.8228   -0.6491    0.9406 C   0  0  1  0  0  0  0  0  0  0  0  0
   -4.3408   -2.0265    1.0918 C   0  0  0  0  0  0  0  0  0  0  0  0
   -4.8677   -2.6929   -0.0908 C   0  0  0  0  0  0  0  0  0  0  0  0
   -6.1957   -2.4773   -0.4164 C   0  0  0  0  0  0  0  0  0  0  0  0
   -6.8170   -3.0659   -1.4791 C   0  0  0  0  0  0  0  0  0  0  0  0
   -6.1014   -3.9223   -2.2802 C   0  0  0  0  0  0  0  0  0  0  0  0
   -4.7713   -4.1538   -1.9745 C   0  0  0  0  0  0  0  0  0  0  0  0
   -4.1605   -3.5505   -0.8982 C   0  0  0  0  0  0  0  0  0  0  0  0
   -2.4901   -0.4906    0.3142 C   0  0  0  0  0  0  0  0  0  0  0  0
   -2.3837    0.5225   -0.4571 O   0  0  0  0  0  0  0  0  0  0  0  0
   -1.4405   -1.3836    0.5593 N   0  0  0  0  0  0  0  0  0  0  0  0
   -0.1227   -1.4195    0.0872 C   0  0  1  0  0  0  0  0  0  0  0  0
    0.1787   -1.0711   -1.3316 C   0  0  0  0  0  0  0  0  0  0  0  0
   -0.3845   -1.9326   -2.3789 C   0  0  0  0  0  0  0  0  0  0  0  0
   -1.5217   -1.6946   -3.0842 C   0  0  0  0  0  0  0  0  0  0  0  0
   -1.9743   -2.5723   -4.0810 C   0  0  0  0  0  0  0  0  0  0  0  0
   -1.3048   -3.7168   -4.4052 C   0  0  0  0  0  0  0  0  0  0  0  0
   -0.1383   -3.9800   -3.6945 C   0  0  0  0  0  0  0  0  0  0  0  0
    0.2941   -3.1210   -2.7275 C   0  0  0  0  0  0  0  0  0  0  0  0
    0.8630   -0.7740    0.9998 C   0  0  0  0  0  0  0  0  0  0  0  0
    0.4066   -0.0980    1.9804 O   0  0  0  0  0  0  0  0  0  0  0  0
    2.2253   -0.9366    0.7521 N   0  0  0  0  0  0  0  0  0  0  0  0
    3.2790   -0.3511    1.5749 C   0  0  1  0  0  0  0  0  0  0  0  0
    3.7785   -1.2983    2.5945 C   0  0  0  0  0  0  0  0  0  0  0  0
    4.3355   -2.5643    2.1646 C   0  0  0  0  0  0  0  0  0  0  0  0
    5.6856   -2.7107    1.9591 C   0  0  0  0  0  0  0  0  0  0  0  0
    6.2172   -3.9439    1.5537 C   0  0  0  0  0  0  0  0  0  0  0  0
    5.4305   -5.0297    1.3504 C   0  0  0  0  0  0  0  0  0  0  0  0
    5.9911   -6.2226    0.9540 O   0  0  0  0  0  0  0  0  0  0  0  0
    4.0518   -4.8980    1.5549 C   0  0  0  0  0  0  0  0  0  0  0  0
    3.5272   -3.6912    1.9517 C   0  0  0  0  0  0  0  0  0  0  0  0
    4.2139    0.4608    0.8239 C   0  0  0  0  0  0  0  0  0  0  0  0
    3.9559    0.6147   -0.4261 O   0  0  0  0  0  0  0  0  0  0  0  0
    5.3572    1.0957    1.2962 N   0  0  0  0  0  0  0  0  0  0  0  0
    6.1836    1.9118    0.3922 C   0  0  1  0  0  0  0  0  0  0  0  0
    6.4468    3.1869    1.1376 C   0  0  0  0  0  0  0  0  0  0  0  0
    7.2491    4.1845    0.4430 C   0  0  0  0  0  0  0  0  0  0  0  0
    6.6211    5.0880   -0.3868 C   0  0  0  0  0  0  0  0  0  0  0  0
    7.3431    6.0623   -1.0495 C   0  0  0  0  0  0  0  0  0  0  0  0
    8.7118    6.1376   -0.8824 C   0  0  0  0  0  0  0  0  0  0  0  0
    9.3722    5.2454   -0.0555 C   0  0  0  0  0  0  0  0  0  0  0  0
    8.6069    4.2784    0.5938 C   0  0  0  0  0  0  0  0  0  0  0  0
    7.4176    1.1879    0.0281 C   0  0  0  0  0  0  0  0  0  0  0  0
    8.3611    1.6811   -0.8899 O   0  0  0  0  0  0  0  0  0  0  0  0
    7.7268    0.0515    0.5177 O   0  0  0  0  0  0  0  0  0  0  0  0
  -11.7893    4.9702   -0.9351 H   0  0  0  0  0  0  0  0  0  0  0  0
  -11.1615    4.6188    0.5888 H   0  0  0  0  0  0  0  0  0  0  0  0
   -7.9263    5.1649    1.4673 H   0  0  0  0  0  0  0  0  0  0  0  0
   -6.1801    3.5916    2.3790 H   0  0  0  0  0  0  0  0  0  0  0  0
   -6.7257    1.1209   -1.0609 H   0  0  0  0  0  0  0  0  0  0  0  0
   -8.3878    2.6512   -1.9060 H   0  0  0  0  0  0  0  0  0  0  0  0
   -5.0864    0.1932   -0.5352 H   0  0  0  0  0  0  0  0  0  0  0  0
   -3.6261   -0.3043    2.0316 H   0  0  0  0  0  0  0  0  0  0  0  0
   -3.6011   -2.6761    1.6181 H   0  0  0  0  0  0  0  0  0  0  0  0
   -5.1938   -1.9724    1.8443 H   0  0  0  0  0  0  0  0  0  0  0  0
   -6.8127   -1.7973    0.1969 H   0  0  0  0  0  0  0  0  0  0  0  0
   -7.8674   -2.8652   -1.6983 H   0  0  0  0  0  0  0  0  0  0  0  0
   -6.5793   -4.3879   -3.1143 H   0  0  0  0  0  0  0  0  0  0  0  0
   -4.2368   -4.8380   -2.6322 H   0  0  0  0  0  0  0  0  0  0  0  0
   -3.1350   -3.7511   -0.6929 H   0  0  0  0  0  0  0  0  0  0  0  0
   -1.7067   -2.1788    1.2458 H   0  0  0  0  0  0  0  0  0  0  0  0
    0.1739   -2.5512    0.1205 H   0  0  0  0  0  0  0  0  0  0  0  0
   -0.1059   -0.0102   -1.5691 H   0  0  0  0  0  0  0  0  0  0  0  0
    1.2983   -1.0561   -1.4686 H   0  0  0  0  0  0  0  0  0  0  0  0
   -2.1029   -0.7912   -2.8865 H   0  0  0  0  0  0  0  0  0  0  0  0
   -2.8915   -2.3255   -4.6090 H   0  0  0  0  0  0  0  0  0  0  0  0
   -1.6791   -4.3709   -5.1773 H   0  0  0  0  0  0  0  0  0  0  0  0
    0.3993   -4.8856   -3.9434 H   0  0  0  0  0  0  0  0  0  0  0  0
    1.2073   -3.3505   -2.1895 H   0  0  0  0  0  0  0  0  0  0  0  0
    2.5601   -1.5068   -0.0465 H   0  0  0  0  0  0  0  0  0  0  0  0
    2.6706    0.4174    2.2022 H   0  0  0  0  0  0  0  0  0  0  0  0
    2.9605   -1.4824    3.3464 H   0  0  0  0  0  0  0  0  0  0  0  0
    4.5758   -0.7813    3.2133 H   0  0  0  0  0  0  0  0  0  0  0  0
    6.3996   -1.9147    2.1002 H   0  0  0  0  0  0  0  0  0  0  0  0
    7.2962   -4.0506    1.3895 H   0  0  0  0  0  0  0  0  0  0  0  0
    5.4927   -7.0735    0.7801 H   0  0  0  0  0  0  0  0  0  0  0  0
    3.4036   -5.7473    1.4003 H   0  0  0  0  0  0  0  0  0  0  0  0
    2.4561   -3.6273    2.0988 H   0  0  0  0  0  0  0  0  0  0  0  0
    5.6534    1.0162    2.2737 H   0  0  0  0  0  0  0  0  0  0  0  0
    5.6585    2.1083   -0.5710 H   0  0  0  0  0  0  0  0  0  0  0  0
    5.4437    3.5948    1.4420 H   0  0  0  0  0  0  0  0  0  0  0  0
    6.9301    2.8807    2.1013 H   0  0  0  0  0  0  0  0  0  0  0  0
    5.5415    5.0034   -0.4957 H   0  0  0  0  0  0  0  0  0  0  0  0
    6.7872    6.7420   -1.6845 H   0  0  0  0  0  0  0  0  0  0  0  0
    9.2761    6.8924   -1.3932 H   0  0  0  0  0  0  0  0  0  0  0  0
   10.4522    5.3150    0.0674 H   0  0  0  0  0  0  0  0  0  0  0  0
    9.1208    3.5771    1.2424 H   0  0  0  0  0  0  0  0  0  0  0  0
    8.0498    2.2079   -1.7031 H   0  0  0  0  0  0  0  0  0  0  0  0
  1  2  1  0
  2  3  2  0
  2  4  2  0
  2  5  1  0
  5  6  2  0
  6  7  1  0
  7  8  2  0
  8  9  1  0
  9 10  2  0
  8 11  1  0
 11 12  2  0
 11 13  1  0
 13 14  1  0
 14 15  1  0
 15 16  1  0
 16 17  2  0
 17 18  1  0
 18 19  2  0
 19 20  1  0
 20 21  2  0
 14 22  1  0
 22 23  2  0
 22 24  1  0
 24 25  1  0
 25 26  1  0
 26 27  1  0
 27 28  2  0
 28 29  1  0
 29 30  2  0
 30 31  1  0
 31 32  2  0
 25 33  1  0
 33 34  2  0
 33 35  1  0
 35 36  1  0
 36 37  1  0
 37 38  1  0
 38 39  2  0
 39 40  1  0
 40 41  2  0
 41 42  1  0
 41 43  1  0
 43 44  2  0
 36 45  1  0
 45 46  2  0
 45 47  1  0
 47 48  1  0
 48 49  1  0
 49 50  1  0
 50 51  2  0
 51 52  1  0
 52 53  2  0
 53 54  1  0
 54 55  2  0
 48 56  1  0
 56 57  1  0
 56 58  2  0
 10  5  1  0
 21 16  1  0
 32 27  1  0
 44 38  1  0
 55 50  1  0
  1 59  1  0
  1 60  1  0
  6 61  1  0
  7 62  1  0
  9 63  1  0
 10 64  1  0
 13 65  1  0
 14 66  1  1
 15 67  1  0
 15 68  1  0
 17 69  1  0
 18 70  1  0
 19 71  1  0
 20 72  1  0
 21 73  1  0
 24 74  1  0
 25 75  1  6
 26 76  1  0
 26 77  1  0
 28 78  1  0
 29 79  1  0
 30 80  1  0
 31 81  1  0
 32 82  1  0
 35 83  1  0
 36 84  1  1
 37 85  1  0
 37 86  1  0
 39 87  1  0
 40 88  1  0
 42 89  1  0
 43 90  1  0
 44 91  1  0
 47 92  1  0
 48 93  1  6
 49 94  1  0
 49 95  1  0
 51 96  1  0
 52 97  1  0
 53 98  1  0
 54 99  1  0
 55100  1  0
 57101  1  0
M  END
$$$$
[H]N=C(N([H])[H])N([H])C([H])([H])C([H])([H])C([H])([H])[C@@]([H])(C(=O)N([H])[C@]([H])(C(=O)N([H])[C@]([H])(C(=N[H])N([H])[H])C([H])([H])c1c([H])c([H])c([H])c([H])c1[H])C([H])([H])C(=O)O[H])N([H])C(=O)[C@@]([H])(N([H])[H])C([H])([H])c1c([H])c([H])c([H])c([H])c1[H]
     RDKit          3D

 81 82  0  0  0  0  0  0  0  0999 V2000
   -2.6746    4.9188    3.1792 N   0  0  0  0  0  0  0  0  0  0  0  0
   -3.0166    5.0109    1.8030 C   0  0  0  0  0  0  0  0  0  0  0  0
   -3.3735    6.1128    1.2540 N   0  0  0  0  0  0  0  0  0  0  0  0
   -2.9669    3.8385    0.9800 N   0  0  0  0  0  0  0  0  0  0  0  0
   -3.6718    2.6634    1.4396 C   0  0  0  0  0  0  0  0  0  0  0  0
   -3.4844    1.5497    0.4622 C   0  0  0  0  0  0  0  0  0  0  0  0
   -2.0158    1.2129    0.3196 C   0  0  0  0  0  0  0  0  0  0  0  0
   -1.8298    0.0774   -0.6740 C   0  0  2  0  0  0  0  0  0  0  0  0
   -2.5244   -1.0930   -0.2288 N   0  0  0  0  0  0  0  0  0  0  0  0
   -3.5572   -1.6717   -0.9902 C   0  0  0  0  0  0  0  0  0  0  0  0
   -3.8927   -1.1649   -2.0855 O   0  0  0  0  0  0  0  0  0  0  0  0
   -4.2919   -2.8958   -0.5413 C   0  0  1  0  0  0  0  0  0  0  0  0
   -3.7933   -3.3624    0.7362 N   0  0  0  0  0  0  0  0  0  0  0  0
   -5.7562   -2.5222   -0.4417 C   0  0  0  0  0  0  0  0  0  0  0  0
   -6.5849   -3.6694   -0.0014 C   0  0  0  0  0  0  0  0  0  0  0  0
   -7.1487   -4.5428   -0.9037 C   0  0  0  0  0  0  0  0  0  0  0  0
   -7.9270   -5.6193   -0.4763 C   0  0  0  0  0  0  0  0  0  0  0  0
   -8.1566   -5.8424    0.8699 C   0  0  0  0  0  0  0  0  0  0  0  0
   -7.5884   -4.9628    1.7645 C   0  0  0  0  0  0  0  0  0  0  0  0
   -6.8187   -3.8986    1.3374 C   0  0  0  0  0  0  0  0  0  0  0  0
   -0.3986   -0.2618   -0.8505 C   0  0  0  0  0  0  0  0  0  0  0  0
    0.0341   -1.4292   -0.6275 O   0  0  0  0  0  0  0  0  0  0  0  0
    0.5063    0.7181   -1.2728 N   0  0  0  0  0  0  0  0  0  0  0  0
    1.9486    0.4389   -1.4709 C   0  0  1  0  0  0  0  0  0  0  0  0
    2.1882    0.6914   -2.9413 C   0  0  0  0  0  0  0  0  0  0  0  0
    3.5583    0.4745   -3.4031 C   0  0  0  0  0  0  0  0  0  0  0  0
    4.3976    1.5335   -3.6970 O   0  0  0  0  0  0  0  0  0  0  0  0
    4.0252   -0.6946   -3.5513 O   0  0  0  0  0  0  0  0  0  0  0  0
    2.7493    1.2711   -0.5691 C   0  0  0  0  0  0  0  0  0  0  0  0
    2.1630    2.1298    0.1584 O   0  0  0  0  0  0  0  0  0  0  0  0
    4.1374    1.1573   -0.4715 N   0  0  0  0  0  0  0  0  0  0  0  0
    4.9392    1.9960    0.4408 C   0  0  1  0  0  0  0  0  0  0  0  0
    5.5109    1.1676    1.5588 C   0  0  0  0  0  0  0  0  0  0  0  0
    6.3965    0.0664    1.1342 C   0  0  0  0  0  0  0  0  0  0  0  0
    5.8755   -1.1628    0.7935 C   0  0  0  0  0  0  0  0  0  0  0  0
    6.7182   -2.1803    0.4250 C   0  0  0  0  0  0  0  0  0  0  0  0
    8.0812   -2.0423    0.3746 C   0  0  0  0  0  0  0  0  0  0  0  0
    8.6125   -0.8038    0.7177 C   0  0  0  0  0  0  0  0  0  0  0  0
    7.7663    0.2128    1.0860 C   0  0  0  0  0  0  0  0  0  0  0  0
    5.9301    2.7677   -0.3155 C   0  0  0  0  0  0  0  0  0  0  0  0
    6.8536    2.1686   -1.1959 N   0  0  0  0  0  0  0  0  0  0  0  0
    5.9818    4.0580   -0.1894 N   0  0  0  0  0  0  0  0  0  0  0  0
   -1.9256    5.5250    3.5484 H   0  0  0  0  0  0  0  0  0  0  0  0
   -3.1833    4.2471    3.7764 H   0  0  0  0  0  0  0  0  0  0  0  0
   -3.4121    6.9644    1.8400 H   0  0  0  0  0  0  0  0  0  0  0  0
   -2.4472    3.8251    0.0855 H   0  0  0  0  0  0  0  0  0  0  0  0
   -3.3065    2.4270    2.4499 H   0  0  0  0  0  0  0  0  0  0  0  0
   -4.7730    2.9026    1.5062 H   0  0  0  0  0  0  0  0  0  0  0  0
   -3.8793    1.7786   -0.5266 H   0  0  0  0  0  0  0  0  0  0  0  0
   -4.0218    0.6355    0.8257 H   0  0  0  0  0  0  0  0  0  0  0  0
   -1.6157    0.9167    1.3124 H   0  0  0  0  0  0  0  0  0  0  0  0
   -1.4231    2.0709   -0.0397 H   0  0  0  0  0  0  0  0  0  0  0  0
   -2.2459    0.4073   -1.6617 H   0  0  0  0  0  0  0  0  0  0  0  0
   -2.2612   -1.5312    0.6850 H   0  0  0  0  0  0  0  0  0  0  0  0
   -4.1453   -3.6816   -1.2916 H   0  0  0  0  0  0  0  0  0  0  0  0
   -3.8570   -2.6079    1.4631 H   0  0  0  0  0  0  0  0  0  0  0  0
   -2.7895   -3.6282    0.6955 H   0  0  0  0  0  0  0  0  0  0  0  0
   -5.9068   -1.7143    0.3053 H   0  0  0  0  0  0  0  0  0  0  0  0
   -6.1479   -2.1290   -1.3976 H   0  0  0  0  0  0  0  0  0  0  0  0
   -6.9795   -4.3826   -1.9412 H   0  0  0  0  0  0  0  0  0  0  0  0
   -8.3550   -6.2877   -1.2019 H   0  0  0  0  0  0  0  0  0  0  0  0
   -8.7615   -6.6790    1.2110 H   0  0  0  0  0  0  0  0  0  0  0  0
   -7.7419   -5.0980    2.8348 H   0  0  0  0  0  0  0  0  0  0  0  0
   -6.3660   -3.1998    2.0540 H   0  0  0  0  0  0  0  0  0  0  0  0
    0.1988    1.6800   -1.4633 H   0  0  0  0  0  0  0  0  0  0  0  0
    2.0797   -0.6408   -1.2743 H   0  0  0  0  0  0  0  0  0  0  0  0
    1.9072    1.7446   -3.1740 H   0  0  0  0  0  0  0  0  0  0  0  0
    1.4864    0.0613   -3.5375 H   0  0  0  0  0  0  0  0  0  0  0  0
    4.4189    2.4142   -3.2341 H   0  0  0  0  0  0  0  0  0  0  0  0
    4.7066    0.4811   -1.0189 H   0  0  0  0  0  0  0  0  0  0  0  0
    4.1622    2.7006    0.8973 H   0  0  0  0  0  0  0  0  0  0  0  0
    4.6598    0.7467    2.1460 H   0  0  0  0  0  0  0  0  0  0  0  0
    6.0892    1.8494    2.2241 H   0  0  0  0  0  0  0  0  0  0  0  0
    4.8108   -1.3188    0.8167 H   0  0  0  0  0  0  0  0  0  0  0  0
    6.3009   -3.1593    0.1546 H   0  0  0  0  0  0  0  0  0  0  0  0
    8.7285   -2.8479    0.0843 H   0  0  0  0  0  0  0  0  0  0  0  0
    9.6856   -0.6683    0.6859 H   0  0  0  0  0  0  0  0  0  0  0  0
    8.2137    1.1638    1.3471 H   0  0  0  0  0  0  0  0  0  0  0  0
    7.8607    2.4963   -1.0832 H   0  0  0  0  0  0  0  0  0  0  0  0
    6.6665    1.4644   -1.9174 H   0  0  0  0  0  0  0  0  0  0  0  0
    6.6674    4.6558   -0.7040 H   0  0  0  0  0  0  0  0  0  0  0  0
  1  2  1  0
  2  3  2  3
  2  4  1  0
  4  5  1  0
  5  6  1  0
  6  7  1  0
  7  8  1  0
  8  9  1  0
  9 10  1  0
 10 11  2  0
 10 12  1  0
 12 13  1  0
 12 14  1  0
 14 15  1  0
 15 16  2  0
 16 17  1  0
 17 18  2  0
 18 19  1  0
 19 20  2  0
  8 21  1  0
 21 22  2  0
 21 23  1  0
 23 24  1  0
 24 25  1  0
 25 26  1  0
 26 27  1  0
 26 28  2  0
 24 29  1  0
 29 30  2  0
 29 31  1  0
 31 32  1  0
 32 33  1  0
 33 34  1  0
 34 35  2  0
 35 36  1  0
 36 37  2  0
 37 38  1  0
 38 39  2  0
 32 40  1  0
 40 41  1  0
 40 42  2  3
 20 15  1  0
 39 34  1  0
  1 43  1  0
  1 44  1  0
  3 45  1  0
  4 46  1  0
  5 47  1  0
  5 48  1  0
  6 49  1  0
  6 50  1  0
  7 51  1  0
  7 52  1  0
  8 53  1  6
  9 54  1  0
 12 55  1  6
 13 56  1  0
 13 57  1  0
 14 58  1  0
 14 59  1  0
 16 60  1  0
 17 61  1  0
 18 62  1  0
 19 63  1  0
 20 64  1  0
 23 65  1  0
 24 66  1  6
 25 67  1  0
 25 68  1  0
 27 69  1  0
 31 70  1  0
 32 71  1  1
 33 72  1  0
 33 73  1  0
 35 74  1  0
 36 75  1  0
 37 76  1  0
 38 77  1  0
 39 78  1  0
 41 79  1  0
 41 80  1  0
 42 81  1  0
M  END
$$$$
[H]c1c([H])c(N([H])C(=O)c2c(C([H])([H])[H])c(C(=O)C(=O)N([H])C3(C([H])([H])[H])C([H])([H])OC3([H])[H])c3n2C([H])([H])C([H])([H])C3([H])[H])c([H])c(Cl)c1F
     RDKit          3D

 51 54  0  0  0  0  0  0  0  0999 V2000
   -0.2568    1.9049    1.2880 C   0  0  0  0  0  0  0  0  0  0  0  0
   -0.2817    0.4536    0.8807 C   0  0  0  0  0  0  0  0  0  0  0  0
    0.7562   -0.4339    0.9772 C   0  0  0  0  0  0  0  0  0  0  0  0
    2.0917   -0.1898    1.4810 C   0  0  0  0  0  0  0  0  0  0  0  0
    2.2976   -0.3697    2.7000 O   0  0  0  0  0  0  0  0  0  0  0  0
    3.1405    0.2489    0.5807 C   0  0  0  0  0  0  0  0  0  0  0  0
    2.8857    0.4181   -0.6477 O   0  0  0  0  0  0  0  0  0  0  0  0
    4.4476    0.4894    1.0652 N   0  0  0  0  0  0  0  0  0  0  0  0
    5.4845    0.9220    0.1806 C   0  0  0  0  0  0  0  0  0  0  0  0
    5.2415    2.2187   -0.5266 C   0  0  0  0  0  0  0  0  0  0  0  0
    6.8721    0.8010    0.8121 C   0  0  0  0  0  0  0  0  0  0  0  0
    6.8434   -0.5489    0.4475 O   0  0  0  0  0  0  0  0  0  0  0  0
    6.1025   -0.1676   -0.6730 C   0  0  0  0  0  0  0  0  0  0  0  0
    0.3000   -1.6393    0.4977 C   0  0  0  0  0  0  0  0  0  0  0  0
    0.7156   -3.0467    0.2634 C   0  0  0  0  0  0  0  0  0  0  0  0
   -0.3253   -3.5581   -0.6818 C   0  0  0  0  0  0  0  0  0  0  0  0
   -1.5202   -2.6889   -0.4140 C   0  0  0  0  0  0  0  0  0  0  0  0
   -0.9763   -1.4524    0.1300 N   0  0  0  0  0  0  0  0  0  0  0  0
   -1.3826   -0.1921    0.3438 C   0  0  0  0  0  0  0  0  0  0  0  0
   -2.6759    0.4632    0.0920 C   0  0  0  0  0  0  0  0  0  0  0  0
   -2.7117    1.7364    0.2220 O   0  0  0  0  0  0  0  0  0  0  0  0
   -3.8258   -0.2637   -0.2725 N   0  0  0  0  0  0  0  0  0  0  0  0
   -5.0921    0.2856   -0.5431 C   0  0  0  0  0  0  0  0  0  0  0  0
   -6.2416   -0.5262   -0.4902 C   0  0  0  0  0  0  0  0  0  0  0  0
   -7.5009   -0.0582   -0.7654 C   0  0  0  0  0  0  0  0  0  0  0  0
   -7.7043    1.2544   -1.1136 C   0  0  0  0  0  0  0  0  0  0  0  0
   -8.9374    1.7518   -1.3923 F   0  0  0  0  0  0  0  0  0  0  0  0
   -6.6048    2.0714   -1.1746 C   0  0  0  0  0  0  0  0  0  0  0  0
   -6.8501    3.7471   -1.6172 Cl  0  0  0  0  0  0  0  0  0  0  0  0
   -5.3132    1.5864   -0.8914 C   0  0  0  0  0  0  0  0  0  0  0  0
    0.7099    2.1177    1.7418 H   0  0  0  0  0  0  0  0  0  0  0  0
   -1.0555    2.1182    2.0267 H   0  0  0  0  0  0  0  0  0  0  0  0
   -0.3994    2.5706    0.4283 H   0  0  0  0  0  0  0  0  0  0  0  0
    4.6476    0.3478    2.0752 H   0  0  0  0  0  0  0  0  0  0  0  0
    5.9569    2.9734   -0.1658 H   0  0  0  0  0  0  0  0  0  0  0  0
    4.1819    2.5221   -0.3518 H   0  0  0  0  0  0  0  0  0  0  0  0
    5.3467    2.1367   -1.6346 H   0  0  0  0  0  0  0  0  0  0  0  0
    6.8815    0.9793    1.9002 H   0  0  0  0  0  0  0  0  0  0  0  0
    7.6621    1.3125    0.2303 H   0  0  0  0  0  0  0  0  0  0  0  0
    5.4093   -0.9183   -1.0702 H   0  0  0  0  0  0  0  0  0  0  0  0
    6.7778    0.2614   -1.4261 H   0  0  0  0  0  0  0  0  0  0  0  0
    0.6713   -3.6110    1.2203 H   0  0  0  0  0  0  0  0  0  0  0  0
    1.7392   -3.0609   -0.1708 H   0  0  0  0  0  0  0  0  0  0  0  0
   -0.5686   -4.6260   -0.5002 H   0  0  0  0  0  0  0  0  0  0  0  0
    0.0213   -3.4417   -1.7300 H   0  0  0  0  0  0  0  0  0  0  0  0
   -2.0606   -2.4775   -1.3925 H   0  0  0  0  0  0  0  0  0  0  0  0
   -2.1920   -3.1509    0.3200 H   0  0  0  0  0  0  0  0  0  0  0  0
   -3.7547   -1.3153   -0.3453 H   0  0  0  0  0  0  0  0  0  0  0  0
   -6.0591   -1.5627   -0.2117 H   0  0  0  0  0  0  0  0  0  0  0  0
   -8.3612   -0.7058   -0.7160 H   0  0  0  0  0  0  0  0  0  0  0  0
   -4.5327    2.3130   -0.9865 H   0  0  0  0  0  0  0  0  0  0  0  0
  1  2  1  0
  2  3  1  0
  3  4  1  0
  4  5  2  0
  4  6  1  0
  6  7  2  0
  6  8  1  0
  8  9  1  0
  9 10  1  0
  9 11  1  0
 11 12  1  0
 12 13  1  0
  3 14  2  0
 14 15  1  0
 15 16  1  0
 16 17  1  0
 17 18  1  0
 18 19  1  0
 19 20  1  0
 20 21  2  0
 20 22  1  0
 22 23  1  0
 23 24  2  0
 24 25  1  0
 25 26  2  0
 26 27  1  0
 26 28  1  0
 28 29  1  0
 28 30  2  0
 19  2  2  0
 30 23  1  0
 13  9  1  0
 18 14  1  0
  1 31  1  0
  1 32  1  0
  1 33  1  0
  8 34  1  0
 10 35  1  0
 10 36  1  0
 10 37  1  0
 11 38  1  0
 11 39  1  0
 13 40  1  0
 13 41  1  0
 15 42  1  0
 15 43  1  0
 16 44  1  0
 16 45  1  0
 17 46  1  0
 17 47  1  0
 22 48  1  0
 24 49  1  0
 25 50  1  0
 30 51  1  0
M  END
$$$$
[H]c1c([H])c(-c2nc(-c3c([H])c(C([H])([H])[H])nc(C([H])([H])[H])c3[H])c3n2C([H])([H])[C@@]([H])(C([H])([H])[H])OC([H])([H])C3([H])[H])c([H])c(OC([H])([H])[H])c1F
     RDKit          3D

 52 55  0  0  0  0  0  0  0  0999 V2000
    3.6406    4.2381   -0.3164 C   0  0  0  0  0  0  0  0  0  0  0  0
    4.6811    3.4700    0.2565 O   0  0  0  0  0  0  0  0  0  0  0  0
    4.3794    2.1415    0.5801 C   0  0  0  0  0  0  0  0  0  0  0  0
    3.1461    1.5976    0.3601 C   0  0  0  0  0  0  0  0  0  0  0  0
    2.7942    0.2699    0.6672 C   0  0  0  0  0  0  0  0  0  0  0  0
    3.7708   -0.4975    1.2215 C   0  0  0  0  0  0  0  0  0  0  0  0
    5.0560    0.0180    1.4662 C   0  0  0  0  0  0  0  0  0  0  0  0
    5.3287    1.3176    1.1417 C   0  0  0  0  0  0  0  0  0  0  0  0
    6.5605    1.8332    1.3693 F   0  0  0  0  0  0  0  0  0  0  0  0
    1.4084   -0.1515    0.4310 C   0  0  0  0  0  0  0  0  0  0  0  0
    0.3959    0.7722    0.2909 N   0  0  0  0  0  0  0  0  0  0  0  0
   -0.7756    0.1722    0.0574 C   0  0  0  0  0  0  0  0  0  0  0  0
   -0.5379   -1.1694    0.0428 C   0  0  0  0  0  0  0  0  0  0  0  0
   -1.5516   -2.2447   -0.1295 C   0  0  0  0  0  0  0  0  0  0  0  0
   -1.2224   -3.0146   -1.3646 C   0  0  0  0  0  0  0  0  0  0  0  0
    0.0886   -3.2558   -1.5695 O   0  0  0  0  0  0  0  0  0  0  0  0
    0.8535   -3.6805   -0.5480 C   0  0  2  0  0  0  0  0  0  0  0  0
    0.3300   -4.7162    0.3754 C   0  0  0  0  0  0  0  0  0  0  0  0
    1.5310   -2.5688    0.2648 C   0  0  0  0  0  0  0  0  0  0  0  0
    0.8079   -1.3292    0.2702 N   0  0  0  0  0  0  0  0  0  0  0  0
   -2.0723    0.8555   -0.1338 C   0  0  0  0  0  0  0  0  0  0  0  0
   -2.8925    0.5652   -1.1925 C   0  0  0  0  0  0  0  0  0  0  0  0
   -4.1223    1.2134   -1.3624 C   0  0  0  0  0  0  0  0  0  0  0  0
   -4.9940    0.8724   -2.5295 C   0  0  0  0  0  0  0  0  0  0  0  0
   -4.4787    2.1345   -0.4529 N   0  0  0  0  0  0  0  0  0  0  0  0
   -3.7196    2.4639    0.6059 C   0  0  0  0  0  0  0  0  0  0  0  0
   -4.1246    3.4876    1.6091 C   0  0  0  0  0  0  0  0  0  0  0  0
   -2.5001    1.8134    0.7645 C   0  0  0  0  0  0  0  0  0  0  0  0
    3.4604    3.9760   -1.3757 H   0  0  0  0  0  0  0  0  0  0  0  0
    3.9897    5.2996   -0.2970 H   0  0  0  0  0  0  0  0  0  0  0  0
    2.7392    4.1988    0.3150 H   0  0  0  0  0  0  0  0  0  0  0  0
    2.3829    2.2247   -0.0823 H   0  0  0  0  0  0  0  0  0  0  0  0
    3.5677   -1.5185    1.5219 H   0  0  0  0  0  0  0  0  0  0  0  0
    5.7644   -0.6581    1.9045 H   0  0  0  0  0  0  0  0  0  0  0  0
   -2.5567   -1.7992   -0.2089 H   0  0  0  0  0  0  0  0  0  0  0  0
   -1.5203   -2.9361    0.7725 H   0  0  0  0  0  0  0  0  0  0  0  0
   -1.8813   -3.9098   -1.3947 H   0  0  0  0  0  0  0  0  0  0  0  0
   -1.5864   -2.3845   -2.2337 H   0  0  0  0  0  0  0  0  0  0  0  0
    1.7430   -4.1969   -1.0633 H   0  0  0  0  0  0  0  0  0  0  0  0
    0.9653   -5.6425    0.4528 H   0  0  0  0  0  0  0  0  0  0  0  0
   -0.6833   -5.0898    0.1420 H   0  0  0  0  0  0  0  0  0  0  0  0
    0.2989   -4.3416    1.4410 H   0  0  0  0  0  0  0  0  0  0  0  0
    2.5278   -2.3538   -0.1986 H   0  0  0  0  0  0  0  0  0  0  0  0
    1.7028   -2.8894    1.3004 H   0  0  0  0  0  0  0  0  0  0  0  0
   -2.6127   -0.1703   -1.9320 H   0  0  0  0  0  0  0  0  0  0  0  0
   -4.3114    0.5560   -3.3564 H   0  0  0  0  0  0  0  0  0  0  0  0
   -5.5247    1.7734   -2.9031 H   0  0  0  0  0  0  0  0  0  0  0  0
   -5.6579    0.0387   -2.2777 H   0  0  0  0  0  0  0  0  0  0  0  0
   -4.1956    2.9781    2.6031 H   0  0  0  0  0  0  0  0  0  0  0  0
   -3.3897    4.2925    1.7280 H   0  0  0  0  0  0  0  0  0  0  0  0
   -5.1205    3.8781    1.3602 H   0  0  0  0  0  0  0  0  0  0  0  0
   -1.8826    2.0665    1.6063 H   0  0  0  0  0  0  0  0  0  0  0  0
  1  2  1  0
  2  3  1  0
  3  4  2  0
  4  5  1  0
  5  6  2  0
  6  7  1  0
  7  8  2  0
  8  9  1  0
  5 10  1  0
 10 11  2  0
 11 12  1  0
 12 13  2  0
 13 14  1  0
 14 15  1  0
 15 16  1  0
 16 17  1  0
 17 18  1  0
 17 19  1  0
 19 20  1  0
 12 21  1  0
 21 22  2  0
 22 23  1  0
 23 24  1  0
 23 25  2  0
 25 26  1  0
 26 27  1  0
 26 28  2  0
  8  3  1  0
 20 10  1  0
 28 21  1  0
 20 13  1  0
  1 29  1  0
  1 30  1  0
  1 31  1  0
  4 32  1  0
  6 33  1  0
  7 34  1  0
 14 35  1  0
 14 36  1  0
 15 37  1  0
 15 38  1  0
 17 39  1  6
 18 40  1  0
 18 41  1  0
 18 42  1  0
 19 43  1  0
 19 44  1  0
 22 45  1  0
 24 46  1  0
 24 47  1  0
 24 48  1  0
 27 49  1  0
 27 50  1  0
 27 51  1  0
 28 52  1  0
M  END
$$$$
[H]C([H])=C([H])C(=O)N1C([H])([H])C([H])([H])[C@@]([H])(n2nc(-c3c([H])c([H])c(Oc4c([H])c([H])c([H])c([H])c4[H])c([H])c3[H])c3c(N([H])[H])nc([H])nc32)C1([H])[H]
     RDKit          3D

 54 58  0  0  0  0  0  0  0  0999 V2000
   -0.7393   -3.8647   -1.0219 N   0  0  0  0  0  0  0  0  0  0  0  0
    0.5581   -3.3527   -0.8315 C   0  0  0  0  0  0  0  0  0  0  0  0
    1.6022   -4.0692   -1.2880 N   0  0  0  0  0  0  0  0  0  0  0  0
    2.8771   -3.6344   -1.1732 C   0  0  0  0  0  0  0  0  0  0  0  0
    3.1267   -2.4466   -0.5849 N   0  0  0  0  0  0  0  0  0  0  0  0
    2.1156   -1.7232   -0.1273 C   0  0  0  0  0  0  0  0  0  0  0  0
    2.1057   -0.5213    0.4735 N   0  0  0  0  0  0  0  0  0  0  0  0
    0.8698   -0.1813    0.7453 N   0  0  0  0  0  0  0  0  0  0  0  0
    0.0075   -1.1568    0.3305 C   0  0  0  0  0  0  0  0  0  0  0  0
   -1.4428   -1.1379    0.4281 C   0  0  0  0  0  0  0  0  0  0  0  0
   -2.1698   -0.0785   -0.1386 C   0  0  0  0  0  0  0  0  0  0  0  0
   -3.5287   -0.0138   -0.0114 C   0  0  0  0  0  0  0  0  0  0  0  0
   -4.2750   -0.9554    0.6635 C   0  0  0  0  0  0  0  0  0  0  0  0
   -5.6353   -0.8027    0.7358 O   0  0  0  0  0  0  0  0  0  0  0  0
   -6.3602    0.2124    0.1953 C   0  0  0  0  0  0  0  0  0  0  0  0
   -6.6136    1.3584    0.9140 C   0  0  0  0  0  0  0  0  0  0  0  0
   -7.3628    2.3774    0.3208 C   0  0  0  0  0  0  0  0  0  0  0  0
   -7.8569    2.2743   -0.9594 C   0  0  0  0  0  0  0  0  0  0  0  0
   -7.5869    1.1132   -1.6563 C   0  0  0  0  0  0  0  0  0  0  0  0
   -6.8463    0.0908   -1.0872 C   0  0  0  0  0  0  0  0  0  0  0  0
   -3.5591   -1.9928    1.2185 C   0  0  0  0  0  0  0  0  0  0  0  0
   -2.1854   -2.0802    1.1041 C   0  0  0  0  0  0  0  0  0  0  0  0
    0.7802   -2.1384   -0.2255 C   0  0  0  0  0  0  0  0  0  0  0  0
    3.2633    0.3042    0.7899 C   0  0  2  0  0  0  0  0  0  0  0  0
    3.0040    1.7328    0.2780 C   0  0  0  0  0  0  0  0  0  0  0  0
    4.4225    2.2957    0.2181 C   0  0  0  0  0  0  0  0  0  0  0  0
    5.2978    1.1634    0.0998 N   0  0  0  0  0  0  0  0  0  0  0  0
    4.4611   -0.0502   -0.0201 C   0  0  0  0  0  0  0  0  0  0  0  0
    6.6984    1.1002    0.0773 C   0  0  0  0  0  0  0  0  0  0  0  0
    7.1945   -0.1099   -0.0226 O   0  0  0  0  0  0  0  0  0  0  0  0
    7.6285    2.1957    0.1501 C   0  0  0  0  0  0  0  0  0  0  0  0
    7.3470    3.4668    0.2445 C   0  0  0  0  0  0  0  0  0  0  0  0
   -1.3577   -3.4917   -1.7762 H   0  0  0  0  0  0  0  0  0  0  0  0
   -1.1368   -4.6256   -0.4306 H   0  0  0  0  0  0  0  0  0  0  0  0
    3.6580   -4.2752   -1.5682 H   0  0  0  0  0  0  0  0  0  0  0  0
   -1.5750    0.6722   -0.6767 H   0  0  0  0  0  0  0  0  0  0  0  0
   -4.0055    0.8544   -0.4905 H   0  0  0  0  0  0  0  0  0  0  0  0
   -6.2731    1.5338    1.9158 H   0  0  0  0  0  0  0  0  0  0  0  0
   -7.5690    3.2717    0.8616 H   0  0  0  0  0  0  0  0  0  0  0  0
   -8.4305    3.0678   -1.3983 H   0  0  0  0  0  0  0  0  0  0  0  0
   -7.9725    1.0168   -2.6736 H   0  0  0  0  0  0  0  0  0  0  0  0
   -6.6817   -0.7823   -1.7018 H   0  0  0  0  0  0  0  0  0  0  0  0
   -4.1313   -2.7472    1.7561 H   0  0  0  0  0  0  0  0  0  0  0  0
   -1.7044   -2.9302    1.5962 H   0  0  0  0  0  0  0  0  0  0  0  0
    3.4397    0.2972    1.8776 H   0  0  0  0  0  0  0  0  0  0  0  0
    2.3407    2.2968    0.9322 H   0  0  0  0  0  0  0  0  0  0  0  0
    2.6080    1.6304   -0.7519 H   0  0  0  0  0  0  0  0  0  0  0  0
    4.5970    2.8482    1.1915 H   0  0  0  0  0  0  0  0  0  0  0  0
    4.4917    2.9686   -0.6488 H   0  0  0  0  0  0  0  0  0  0  0  0
    4.1690   -0.1204   -1.0808 H   0  0  0  0  0  0  0  0  0  0  0  0
    5.0088   -0.9327    0.3562 H   0  0  0  0  0  0  0  0  0  0  0  0
    8.7123    1.9155    0.1218 H   0  0  0  0  0  0  0  0  0  0  0  0
    8.2018    4.1964    0.2916 H   0  0  0  0  0  0  0  0  0  0  0  0
    6.4125    3.9601    0.2833 H   0  0  0  0  0  0  0  0  0  0  0  0
  1  2  1  0
  2  3  2  0
  3  4  1  0
  4  5  2  0
  5  6  1  0
  6  7  1  0
  7  8  1  0
  8  9  2  0
  9 10  1  0
 10 11  2  0
 11 12  1  0
 12 13  2  0
 13 14  1  0
 14 15  1  0
 15 16  2  0
 16 17  1  0
 17 18  2  0
 18 19  1  0
 19 20  2  0
 13 21  1  0
 21 22  2  0
  9 23  1  0
  7 24  1  0
 24 25  1  0
 25 26  1  0
 26 27  1  0
 27 28  1  0
 27 29  1  0
 29 30  2  0
 29 31  1  0
 31 32  2  3
 23  2  1  0
 28 24  1  0
 23  6  2  0
 22 10  1  0
 20 15  1  0
  1 33  1  0
  1 34  1  0
  4 35  1  0
 11 36  1  0
 12 37  1  0
 16 38  1  0
 17 39  1  0
 18 40  1  0
 19 41  1  0
 20 42  1  0
 21 43  1  0
 22 44  1  0
 24 45  1  1
 25 46  1  0
 25 47  1  0
 26 48  1  0
 26 49  1  0
 28 50  1  0
 28 51  1  0
 31 52  1  0
 32 53  1  0
 32 54  1  0
M  END
$$$$
[H]O[C@@]1([H])[C@]([H])(C([H])([H])OP(=O)(O[H])OP(=O)(O[H])O[H])O[C@@]([H])(n2c([H])nc3c(N([H])[H])nc([H])nc32)[C@]1([H])O[H]
     RDKit          3D

 42 44  0  0  0  0  0  0  0  0999 V2000
   -6.1156    2.5785    0.3368 N   0  0  0  0  0  0  0  0  0  0  0  0
   -5.0308    1.9870    1.0292 C   0  0  0  0  0  0  0  0  0  0  0  0
   -5.0069    1.8944    2.3869 N   0  0  0  0  0  0  0  0  0  0  0  0
   -3.9447    1.3207    2.9705 C   0  0  0  0  0  0  0  0  0  0  0  0
   -2.8925    0.8268    2.2951 N   0  0  0  0  0  0  0  0  0  0  0  0
   -2.8841    0.9015    0.9609 C   0  0  0  0  0  0  0  0  0  0  0  0
   -1.9808    0.4974    0.0504 N   0  0  0  0  0  0  0  0  0  0  0  0
   -2.4931    0.8286   -1.1485 C   0  0  0  0  0  0  0  0  0  0  0  0
   -3.6688    1.4154   -0.9841 N   0  0  0  0  0  0  0  0  0  0  0  0
   -3.9556    1.4829    0.3272 C   0  0  0  0  0  0  0  0  0  0  0  0
   -0.7196   -0.1510    0.2086 C   0  0  2  0  0  0  0  0  0  0  0  0
   -0.5568   -1.0321   -0.8780 O   0  0  0  0  0  0  0  0  0  0  0  0
    0.3686   -1.9660   -0.4868 C   0  0  1  0  0  0  0  0  0  0  0  0
    1.7958   -1.5218   -0.7722 C   0  0  0  0  0  0  0  0  0  0  0  0
    1.9808   -1.3005   -2.1372 O   0  0  0  0  0  0  0  0  0  0  0  0
    3.5546   -0.8083   -2.4697 P   0  0  0  0  0  0  0  0  0  0  0  0
    3.4550    0.7817   -3.0848 O   0  0  0  0  0  0  0  0  0  0  0  0
    4.1988   -1.6603   -3.5417 O   0  0  0  0  0  0  0  0  0  0  0  0
    4.4912   -0.7555   -1.0651 O   0  0  0  0  0  0  0  0  0  0  0  0
    5.3077    0.6979   -0.9623 P   0  0  0  0  0  0  0  0  0  0  0  0
    4.2686    2.0029   -0.7039 O   0  0  0  0  0  0  0  0  0  0  0  0
    6.4259    0.6363    0.3203 O   0  0  0  0  0  0  0  0  0  0  0  0
    6.0969    0.9994   -2.2299 O   0  0  0  0  0  0  0  0  0  0  0  0
    0.1481   -2.2276    0.9650 C   0  0  2  0  0  0  0  0  0  0  0  0
   -0.6067   -3.3894    1.1458 O   0  0  0  0  0  0  0  0  0  0  0  0
   -0.5912   -0.9912    1.4446 C   0  0  1  0  0  0  0  0  0  0  0  0
    0.1933   -0.3099    2.3672 O   0  0  0  0  0  0  0  0  0  0  0  0
   -5.9855    3.5515   -0.0356 H   0  0  0  0  0  0  0  0  0  0  0  0
   -7.0340    2.1054    0.1752 H   0  0  0  0  0  0  0  0  0  0  0  0
   -3.9159    1.2421    4.0510 H   0  0  0  0  0  0  0  0  0  0  0  0
   -2.0380    0.6566   -2.1380 H   0  0  0  0  0  0  0  0  0  0  0  0
    0.0735    0.6114    0.1162 H   0  0  0  0  0  0  0  0  0  0  0  0
    0.1604   -2.9074   -1.0380 H   0  0  0  0  0  0  0  0  0  0  0  0
    2.4997   -2.3078   -0.4337 H   0  0  0  0  0  0  0  0  0  0  0  0
    2.0211   -0.6068   -0.1884 H   0  0  0  0  0  0  0  0  0  0  0  0
    2.7604    1.2322   -2.5348 H   0  0  0  0  0  0  0  0  0  0  0  0
    3.8924    2.0109    0.2084 H   0  0  0  0  0  0  0  0  0  0  0  0
    5.9798    0.2187    1.1174 H   0  0  0  0  0  0  0  0  0  0  0  0
    1.1006   -2.3728    1.5256 H   0  0  0  0  0  0  0  0  0  0  0  0
   -0.6438   -3.8713    0.2702 H   0  0  0  0  0  0  0  0  0  0  0  0
   -1.5473   -1.3407    1.8575 H   0  0  0  0  0  0  0  0  0  0  0  0
    0.8385   -0.9599    2.7417 H   0  0  0  0  0  0  0  0  0  0  0  0
  1  2  1  0
  2  3  2  0
  3  4  1  0
  4  5  2  0
  5  6  1  0
  6  7  1  0
  7  8  1  0
  8  9  2  0
  9 10  1  0
  7 11  1  0
 11 12  1  0
 12 13  1  0
 13 14  1  0
 14 15  1  0
 15 16  1  0
 16 17  1  0
 16 18  2  0
 16 19  1  0
 19 20  1  0
 20 21  1  0
 20 22  1  0
 20 23  2  0
 13 24  1  0
 24 25  1  0
 24 26  1  0
 26 27  1  0
 10  2  1  0
 26 11  1  0
 10  6  2  0
  1 28  1  0
  1 29  1  0
  4 30  1  0
  8 31  1  0
 11 32  1  1
 13 33  1  6
 14 34  1  0
 14 35  1  0
 17 36  1  0
 21 37  1  0
 22 38  1  0
 24 39  1  1
 25 40  1  0
 26 41  1  1
 27 42  1  0
M  END
$$$$
[H]c1nc(Oc2c([H])c([H])c(C(F)(F)F)c([H])c2C(=O)N([H])c2c([H])c([H])n([H])c(=O)c2[H])c([H])c([H])c1F
     RDKit          3D

 39 41  0  0  0  0  0  0  0  0999 V2000
   -4.6498   -3.9058    0.8895 F   0  0  0  0  0  0  0  0  0  0  0  0
   -3.8030   -3.0377    0.3162 C   0  0  0  0  0  0  0  0  0  0  0  0
   -2.5775   -2.8376    0.8949 C   0  0  0  0  0  0  0  0  0  0  0  0
   -1.7235   -1.9190    0.2620 C   0  0  0  0  0  0  0  0  0  0  0  0
   -2.0273   -1.2395   -0.8520 C   0  0  0  0  0  0  0  0  0  0  0  0
   -1.1986   -0.3234   -1.4943 O   0  0  0  0  0  0  0  0  0  0  0  0
   -1.1149    1.0051   -1.0808 C   0  0  0  0  0  0  0  0  0  0  0  0
   -2.0398    1.9056   -1.6553 C   0  0  0  0  0  0  0  0  0  0  0  0
   -2.0411    3.2355   -1.2904 C   0  0  0  0  0  0  0  0  0  0  0  0
   -1.1521    3.7299   -0.3654 C   0  0  0  0  0  0  0  0  0  0  0  0
   -0.2500    2.8591    0.1876 C   0  0  0  0  0  0  0  0  0  0  0  0
   -0.2395    1.4716   -0.1914 C   0  0  0  0  0  0  0  0  0  0  0  0
    0.9853    0.7743    0.2541 C   0  0  0  0  0  0  0  0  0  0  0  0
    1.6361    1.2473    1.1934 O   0  0  0  0  0  0  0  0  0  0  0  0
    1.4512   -0.4195   -0.3371 N   0  0  0  0  0  0  0  0  0  0  0  0
    2.6340   -1.0875    0.1775 C   0  0  0  0  0  0  0  0  0  0  0  0
    3.5061   -1.6824   -0.7091 C   0  0  0  0  0  0  0  0  0  0  0  0
    4.5975   -2.3669   -0.2056 C   0  0  0  0  0  0  0  0  0  0  0  0
    4.8630   -2.4894    1.1045 N   0  0  0  0  0  0  0  0  0  0  0  0
    4.0024   -1.9025    1.9534 C   0  0  0  0  0  0  0  0  0  0  0  0
    4.2231   -1.9976    3.2006 O   0  0  0  0  0  0  0  0  0  0  0  0
    2.8966   -1.2071    1.5198 C   0  0  0  0  0  0  0  0  0  0  0  0
   -1.1889    5.1819    0.0297 C   0  0  0  0  0  0  0  0  0  0  0  0
   -2.4247    5.4606    0.6268 F   0  0  0  0  0  0  0  0  0  0  0  0
   -1.1587    5.9276   -1.1212 F   0  0  0  0  0  0  0  0  0  0  0  0
   -0.2322    5.4933    0.9440 F   0  0  0  0  0  0  0  0  0  0  0  0
   -3.2680   -1.4746   -1.3924 N   0  0  0  0  0  0  0  0  0  0  0  0
   -4.1110   -2.3355   -0.8283 C   0  0  0  0  0  0  0  0  0  0  0  0
   -2.2497   -3.3380    1.7832 H   0  0  0  0  0  0  0  0  0  0  0  0
   -0.7519   -1.7898    0.7722 H   0  0  0  0  0  0  0  0  0  0  0  0
   -2.7176    1.5256   -2.3665 H   0  0  0  0  0  0  0  0  0  0  0  0
   -2.7546    3.9490   -1.7357 H   0  0  0  0  0  0  0  0  0  0  0  0
    0.4447    3.2358    0.9045 H   0  0  0  0  0  0  0  0  0  0  0  0
    1.0383   -0.9016   -1.1515 H   0  0  0  0  0  0  0  0  0  0  0  0
    3.3442   -1.6152   -1.7944 H   0  0  0  0  0  0  0  0  0  0  0  0
    5.2659   -2.8236   -0.9273 H   0  0  0  0  0  0  0  0  0  0  0  0
    5.6879   -3.0119    1.4664 H   0  0  0  0  0  0  0  0  0  0  0  0
    2.2106   -0.7593    2.2648 H   0  0  0  0  0  0  0  0  0  0  0  0
   -5.1125   -2.5370   -1.2462 H   0  0  0  0  0  0  0  0  0  0  0  0
  1  2  1  0
  2  3  2  0
  3  4  1  0
  4  5  2  0
  5  6  1  0
  6  7  1  0
  7  8  2  0
  8  9  1  0
  9 10  2  0
 10 11  1  0
 11 12  2  0
 12 13  1  0
 13 14  2  0
 13 15  1  0
 15 16  1  0
 16 17  1  0
 17 18  2  0
 18 19  1  0
 19 20  1  0
 20 21  2  0
 20 22  1  0
 10 23  1  0
 23 24  1  0
 23 25  1  0
 23 26  1  0
  5 27  1  0
 27 28  2  0
 28  2  1  0
 12  7  1  0
 22 16  2  0
  3 29  1  0
  4 30  1  0
  8 31  1  0
  9 32  1  0
 11 33  1  0
 15 34  1  0
 17 35  1  0
 18 36  1  0
 19 37  1  0
 22 38  1  0
 28 39  1  0
M  END
$$$$
[H]c1nc(N([H])c2c([H])c(OC([H])([H])[H])c(OC([H])([H])[H])c(OC([H])([H])[H])c2[H])nc(N([H])c2nc3c(c([H])c2[H])OC(C([H])([H])[H])(C([H])([H])[H])C(=O)N3[H])c1Cl
     RDKit          3D

 57 60  0  0  0  0  0  0  0  0999 V2000
   -5.7062    2.0896   -1.8319 C   0  0  0  0  0  0  0  0  0  0  0  0
   -5.8757    0.7103   -1.5773 O   0  0  0  0  0  0  0  0  0  0  0  0
   -4.7959   -0.0108   -1.0921 C   0  0  0  0  0  0  0  0  0  0  0  0
   -3.5546    0.6057   -0.8546 C   0  0  0  0  0  0  0  0  0  0  0  0
   -2.4789   -0.0483   -0.3850 C   0  0  0  0  0  0  0  0  0  0  0  0
   -1.2186    0.5079   -0.1103 N   0  0  0  0  0  0  0  0  0  0  0  0
   -0.9117    1.8809   -0.0236 C   0  0  0  0  0  0  0  0  0  0  0  0
   -1.7316    2.9097   -0.1714 N   0  0  0  0  0  0  0  0  0  0  0  0
   -1.4116    4.2063   -0.0835 C   0  0  0  0  0  0  0  0  0  0  0  0
   -0.0987    4.5091    0.1879 C   0  0  0  0  0  0  0  0  0  0  0  0
    0.4772    6.1441    0.3337 Cl  0  0  0  0  0  0  0  0  0  0  0  0
    0.8252    3.4820    0.3568 C   0  0  0  0  0  0  0  0  0  0  0  0
    2.1825    3.7433    0.6365 N   0  0  0  0  0  0  0  0  0  0  0  0
    3.0945    2.6700    0.8022 C   0  0  0  0  0  0  0  0  0  0  0  0
    4.4463    2.9300    1.0807 C   0  0  0  0  0  0  0  0  0  0  0  0
    5.3106    1.8710    1.2370 C   0  0  0  0  0  0  0  0  0  0  0  0
    4.8871    0.5652    1.1279 C   0  0  0  0  0  0  0  0  0  0  0  0
    5.7441   -0.5124    1.2823 O   0  0  0  0  0  0  0  0  0  0  0  0
    5.4343   -1.8103    0.8128 C   0  0  0  0  0  0  0  0  0  0  0  0
    6.1434   -2.8503    1.6735 C   0  0  0  0  0  0  0  0  0  0  0  0
    5.8365   -1.9300   -0.6291 C   0  0  0  0  0  0  0  0  0  0  0  0
    3.9767   -2.1074    0.8967 C   0  0  0  0  0  0  0  0  0  0  0  0
    3.5689   -3.2887    1.1041 O   0  0  0  0  0  0  0  0  0  0  0  0
    3.0836   -1.0158    0.7347 N   0  0  0  0  0  0  0  0  0  0  0  0
    3.5483    0.3295    0.8525 C   0  0  0  0  0  0  0  0  0  0  0  0
    2.7303    1.3839    0.7055 N   0  0  0  0  0  0  0  0  0  0  0  0
    0.3907    2.2269    0.2465 N   0  0  0  0  0  0  0  0  0  0  0  0
   -2.6318   -1.4191   -0.1275 C   0  0  0  0  0  0  0  0  0  0  0  0
   -3.8340   -2.0366   -0.3532 C   0  0  0  0  0  0  0  0  0  0  0  0
   -3.9830   -3.3837   -0.0998 O   0  0  0  0  0  0  0  0  0  0  0  0
   -2.8768   -4.1092    0.3943 C   0  0  0  0  0  0  0  0  0  0  0  0
   -4.9390   -1.3516   -0.8380 C   0  0  0  0  0  0  0  0  0  0  0  0
   -6.1583   -1.9773   -1.0668 O   0  0  0  0  0  0  0  0  0  0  0  0
   -7.0957   -2.0233   -0.0210 C   0  0  0  0  0  0  0  0  0  0  0  0
   -4.8687    2.3174   -2.4925 H   0  0  0  0  0  0  0  0  0  0  0  0
   -5.5637    2.6727   -0.8941 H   0  0  0  0  0  0  0  0  0  0  0  0
   -6.6363    2.4225   -2.3663 H   0  0  0  0  0  0  0  0  0  0  0  0
   -3.5355    1.6514   -1.0934 H   0  0  0  0  0  0  0  0  0  0  0  0
   -0.3837   -0.1446    0.0512 H   0  0  0  0  0  0  0  0  0  0  0  0
   -2.1496    4.9788   -0.2193 H   0  0  0  0  0  0  0  0  0  0  0  0
    2.5200    4.7290    0.7224 H   0  0  0  0  0  0  0  0  0  0  0  0
    4.7319    3.9487    1.1567 H   0  0  0  0  0  0  0  0  0  0  0  0
    6.3555    2.0985    1.4528 H   0  0  0  0  0  0  0  0  0  0  0  0
    5.5589   -2.9828    2.6041 H   0  0  0  0  0  0  0  0  0  0  0  0
    7.1729   -2.5542    1.9049 H   0  0  0  0  0  0  0  0  0  0  0  0
    6.1742   -3.8286    1.1243 H   0  0  0  0  0  0  0  0  0  0  0  0
    5.4932   -2.9015   -1.0386 H   0  0  0  0  0  0  0  0  0  0  0  0
    5.4295   -1.0745   -1.1817 H   0  0  0  0  0  0  0  0  0  0  0  0
    6.9550   -1.8603   -0.6837 H   0  0  0  0  0  0  0  0  0  0  0  0
    2.0871   -1.1991    0.5296 H   0  0  0  0  0  0  0  0  0  0  0  0
   -1.7787   -1.9895    0.2564 H   0  0  0  0  0  0  0  0  0  0  0  0
   -2.1240   -4.1909   -0.4168 H   0  0  0  0  0  0  0  0  0  0  0  0
   -3.2486   -5.1338    0.6530 H   0  0  0  0  0  0  0  0  0  0  0  0
   -2.4656   -3.6018    1.3024 H   0  0  0  0  0  0  0  0  0  0  0  0
   -7.3670   -3.1031    0.1453 H   0  0  0  0  0  0  0  0  0  0  0  0
   -8.0343   -1.4880   -0.2936 H   0  0  0  0  0  0  0  0  0  0  0  0
   -6.7005   -1.6569    0.9464 H   0  0  0  0  0  0  0  0  0  0  0  0
  1  2  1  0
  2  3  1  0
  3  4  2  0
  4  5  1  0
  5  6  1  0
  6  7  1  0
  7  8  2  0
  8  9  1  0
  9 10  2  0
 10 11  1  0
 10 12  1  0
 12 13  1  0
 13 14  1  0
 14 15  2  0
 15 16  1  0
 16 17  2  0
 17 18  1  0
 18 19  1  0
 19 20  1  0
 19 21  1  0
 19 22  1  0
 22 23  2  0
 22 24  1  0
 24 25  1  0
 25 26  2  0
 12 27  2  0
  5 28  2  0
 28 29  1  0
 29 30  1  0
 30 31  1  0
 29 32  2  0
 32 33  1  0
 33 34  1  0
 32  3  1  0
 27  7  1  0
 26 14  1  0
 25 17  1  0
  1 35  1  0
  1 36  1  0
  1 37  1  0
  4 38  1  0
  6 39  1  0
  9 40  1  0
 13 41  1  0
 15 42  1  0
 16 43  1  0
 20 44  1  0
 20 45  1  0
 20 46  1  0
 21 47  1  0
 21 48  1  0
 21 49  1  0
 24 50  1  0
 28 51  1  0
 31 52  1  0
 31 53  1  0
 31 54  1  0
 34 55  1  0
 34 56  1  0
 34 57  1  0
M  END
$$$$
[H]c1c([H])c(N([H])C(=O)N2C([H])([H])C([H])([H])OC3(C2([H])[H])C([H])([H])C([H])([H])N(C(=O)C2([H])C([H])([H])C2([H])[H])C([H])([H])C3([H])[H])c([H])c([H])c1OC(F)(F)F
     RDKit          3D

 54 57  0  0  0  0  0  0  0  0999 V2000
    8.6837    1.8504   -1.0421 F   0  0  0  0  0  0  0  0  0  0  0  0
    9.1090    0.7734   -0.2638 C   0  0  0  0  0  0  0  0  0  0  0  0
   10.3974    1.0366    0.1031 F   0  0  0  0  0  0  0  0  0  0  0  0
    9.0204   -0.4165   -0.9558 F   0  0  0  0  0  0  0  0  0  0  0  0
    8.2583    0.6601    0.8879 O   0  0  0  0  0  0  0  0  0  0  0  0
    6.8860    0.4438    0.6526 C   0  0  0  0  0  0  0  0  0  0  0  0
    6.0271    1.5120    0.5178 C   0  0  0  0  0  0  0  0  0  0  0  0
    4.6955    1.3026    0.2899 C   0  0  0  0  0  0  0  0  0  0  0  0
    4.1526    0.0170    0.1848 C   0  0  0  0  0  0  0  0  0  0  0  0
    2.7818   -0.0615   -0.0730 N   0  0  0  0  0  0  0  0  0  0  0  0
    1.9940   -1.2046    0.1644 C   0  0  0  0  0  0  0  0  0  0  0  0
    2.4559   -2.2517    0.6359 O   0  0  0  0  0  0  0  0  0  0  0  0
    0.5912   -1.2035   -0.1373 N   0  0  0  0  0  0  0  0  0  0  0  0
   -0.2196   -2.3562    0.0976 C   0  0  0  0  0  0  0  0  0  0  0  0
   -1.3147   -2.3990   -0.9086 C   0  0  0  0  0  0  0  0  0  0  0  0
   -2.0668   -1.2803   -1.0458 O   0  0  0  0  0  0  0  0  0  0  0  0
   -1.5415   -0.1022   -0.6198 C   0  0  0  0  0  0  0  0  0  0  0  0
   -2.0817    1.0010   -1.5337 C   0  0  0  0  0  0  0  0  0  0  0  0
   -3.5790    0.8106   -1.5887 C   0  0  0  0  0  0  0  0  0  0  0  0
   -4.0665    0.8332   -0.2233 N   0  0  0  0  0  0  0  0  0  0  0  0
   -3.1299    1.2432    0.7878 C   0  0  0  0  0  0  0  0  0  0  0  0
   -1.9756    0.2402    0.7736 C   0  0  0  0  0  0  0  0  0  0  0  0
   -5.3814    0.4756    0.1021 C   0  0  0  0  0  0  0  0  0  0  0  0
   -6.1486    0.1226   -0.8657 O   0  0  0  0  0  0  0  0  0  0  0  0
   -5.9642    0.4699    1.4704 C   0  0  0  0  0  0  0  0  0  0  0  0
   -7.0605   -0.5523    1.6877 C   0  0  0  0  0  0  0  0  0  0  0  0
   -7.3953    0.8784    1.5715 C   0  0  0  0  0  0  0  0  0  0  0  0
   -0.0380   -0.0231   -0.6907 C   0  0  0  0  0  0  0  0  0  0  0  0
    4.9996   -1.0322    0.3171 C   0  0  0  0  0  0  0  0  0  0  0  0
    6.3674   -0.8194    0.5516 C   0  0  0  0  0  0  0  0  0  0  0  0
    6.4488    2.5257    0.5996 H   0  0  0  0  0  0  0  0  0  0  0  0
    4.0627    2.1814    0.1916 H   0  0  0  0  0  0  0  0  0  0  0  0
    2.2824    0.8146   -0.4901 H   0  0  0  0  0  0  0  0  0  0  0  0
   -0.6205   -2.4177    1.1290 H   0  0  0  0  0  0  0  0  0  0  0  0
    0.3877   -3.2967   -0.0375 H   0  0  0  0  0  0  0  0  0  0  0  0
   -0.8627   -2.6888   -1.8959 H   0  0  0  0  0  0  0  0  0  0  0  0
   -1.9740   -3.2749   -0.6435 H   0  0  0  0  0  0  0  0  0  0  0  0
   -1.6946    0.8460   -2.5629 H   0  0  0  0  0  0  0  0  0  0  0  0
   -1.7906    2.0006   -1.1793 H   0  0  0  0  0  0  0  0  0  0  0  0
   -3.7591   -0.2152   -1.9871 H   0  0  0  0  0  0  0  0  0  0  0  0
   -4.0714    1.5673   -2.2306 H   0  0  0  0  0  0  0  0  0  0  0  0
   -3.5027    1.2500    1.8145 H   0  0  0  0  0  0  0  0  0  0  0  0
   -2.7449    2.2782    0.6029 H   0  0  0  0  0  0  0  0  0  0  0  0
   -2.3604   -0.6614    1.2959 H   0  0  0  0  0  0  0  0  0  0  0  0
   -1.1620    0.6947    1.3783 H   0  0  0  0  0  0  0  0  0  0  0  0
   -5.3544    0.7630    2.3426 H   0  0  0  0  0  0  0  0  0  0  0  0
   -7.2980   -1.2316    0.8432 H   0  0  0  0  0  0  0  0  0  0  0  0
   -7.1191   -1.0478    2.6940 H   0  0  0  0  0  0  0  0  0  0  0  0
   -7.7778    1.3603    2.4961 H   0  0  0  0  0  0  0  0  0  0  0  0
   -7.8675    1.2853    0.6557 H   0  0  0  0  0  0  0  0  0  0  0  0
    0.2763    0.8310   -0.0373 H   0  0  0  0  0  0  0  0  0  0  0  0
    0.3380    0.2170   -1.7030 H   0  0  0  0  0  0  0  0  0  0  0  0
    4.6774   -2.0719    0.2358 H   0  0  0  0  0  0  0  0  0  0  0  0
    7.0298   -1.6770    0.6552 H   0  0  0  0  0  0  0  0  0  0  0  0
  1  2  1  0
  2  3  1  0
  2  4  1  0
  2  5  1  0
  5  6  1  0
  6  7  2  0
  7  8  1  0
  8  9  2  0
  9 10  1  0
 10 11  1  0
 11 12  2  0
 11 13  1  0
 13 14  1  0
 14 15  1  0
 15 16  1  0
 16 17  1  0
 17 18  1  0
 18 19  1  0
 19 20  1  0
 20 21  1  0
 21 22  1  0
 20 23  1  0
 23 24  2  0
 23 25  1  0
 25 26  1  0
 26 27  1  0
 17 28  1  0
  9 29  1  0
 29 30  2  0
 30  6  1  0
 28 13  1  0
 22 17  1  0
 27 25  1  0
  7 31  1  0
  8 32  1  0
 10 33  1  0
 14 34  1  0
 14 35  1  0
 15 36  1  0
 15 37  1  0
 18 38  1  0
 18 39  1  0
 19 40  1  0
 19 41  1  0
 21 42  1  0
 21 43  1  0
 22 44  1  0
 22 45  1  0
 25 46  1  0
 26 47  1  0
 26 48  1  0
 27 49  1  0
 27 50  1  0
 28 51  1  0
 28 52  1  0
 29 53  1  0
 30 54  1  0
M  END
$$$$
[H]OC(=O)[C@@]([H])(N([H])C(=O)[C@@]([H])(N([H])C(=O)[C@@]1([H])N(C(=O)[C@@]([H])(N([H])C(=O)OC([H])([H])c2c([H])c([H])c([H])c([H])c2[H])[C@@]([H])(C([H])([H])[H])C([H])([H])C([H])([H])[H])C([H])([H])C([H])([H])C1([H])[H])C([H])([H])C([H])(C([H])([H])[H])C([H])([H])[H])C([H])([H])c1c([H])c([H])c([H])c([H])c1[H]
     RDKit          3D

 91 93  0  0  0  0  0  0  0  0999 V2000
    3.2679   -2.4892    2.3823 C   0  0  0  0  0  0  0  0  0  0  0  0
    2.5645   -2.5730    1.0699 C   0  0  0  0  0  0  0  0  0  0  0  0
    3.3951   -2.2840   -0.1371 C   0  0  2  0  0  0  0  0  0  0  0  0
    4.5974   -3.1967   -0.2878 C   0  0  0  0  0  0  0  0  0  0  0  0
    3.6840   -0.8507   -0.4219 C   0  0  2  0  0  0  0  0  0  0  0  0
    4.3859   -0.1744    0.6597 N   0  0  0  0  0  0  0  0  0  0  0  0
    5.6604    0.4389    0.3664 C   0  0  0  0  0  0  0  0  0  0  0  0
    6.1676    0.3957   -0.7881 O   0  0  0  0  0  0  0  0  0  0  0  0
    6.3646    1.1003    1.3596 O   0  0  0  0  0  0  0  0  0  0  0  0
    7.6098    1.7391    1.1622 C   0  0  0  0  0  0  0  0  0  0  0  0
    8.0328    2.3195    2.4638 C   0  0  0  0  0  0  0  0  0  0  0  0
    9.0120    1.6634    3.2182 C   0  0  0  0  0  0  0  0  0  0  0  0
    9.3817    2.2221    4.4197 C   0  0  0  0  0  0  0  0  0  0  0  0
    8.8222    3.3836    4.8850 C   0  0  0  0  0  0  0  0  0  0  0  0
    7.8586    4.0135    4.1258 C   0  0  0  0  0  0  0  0  0  0  0  0
    7.4550    3.4901    2.9118 C   0  0  0  0  0  0  0  0  0  0  0  0
    2.5007   -0.0269   -0.7662 C   0  0  0  0  0  0  0  0  0  0  0  0
    2.1606    0.8728    0.0619 O   0  0  0  0  0  0  0  0  0  0  0  0
    1.7426   -0.1683   -1.9378 N   0  0  0  0  0  0  0  0  0  0  0  0
    1.9739   -1.1050   -3.0018 C   0  0  0  0  0  0  0  0  0  0  0  0
    1.7504   -0.2486   -4.2459 C   0  0  0  0  0  0  0  0  0  0  0  0
    0.7342    0.7588   -3.8057 C   0  0  0  0  0  0  0  0  0  0  0  0
    0.5934    0.6203   -2.3133 C   0  0  1  0  0  0  0  0  0  0  0  0
   -0.6338   -0.0586   -1.8721 C   0  0  0  0  0  0  0  0  0  0  0  0
   -0.5538   -0.9800   -1.0315 O   0  0  0  0  0  0  0  0  0  0  0  0
   -1.8913    0.3143   -2.3809 N   0  0  0  0  0  0  0  0  0  0  0  0
   -3.1786   -0.2008   -2.0845 C   0  0  1  0  0  0  0  0  0  0  0  0
   -3.3189   -1.6721   -2.1885 C   0  0  0  0  0  0  0  0  0  0  0  0
   -3.1336   -2.3189   -3.5064 C   0  0  0  0  0  0  0  0  0  0  0  0
   -1.8292   -2.1951   -4.1900 C   0  0  0  0  0  0  0  0  0  0  0  0
   -3.4558   -3.8101   -3.3331 C   0  0  0  0  0  0  0  0  0  0  0  0
   -3.7216    0.3235   -0.7934 C   0  0  0  0  0  0  0  0  0  0  0  0
   -3.0014    1.0551   -0.1004 O   0  0  0  0  0  0  0  0  0  0  0  0
   -5.0067   -0.0214   -0.4217 N   0  0  0  0  0  0  0  0  0  0  0  0
   -5.7187    0.3955    0.7971 C   0  0  1  0  0  0  0  0  0  0  0  0
   -6.5895    1.5772    0.3910 C   0  0  0  0  0  0  0  0  0  0  0  0
   -7.4050    2.1149    1.4426 C   0  0  0  0  0  0  0  0  0  0  0  0
   -6.8993    3.0155    2.3811 C   0  0  0  0  0  0  0  0  0  0  0  0
   -7.7364    3.5379    3.3395 C   0  0  0  0  0  0  0  0  0  0  0  0
   -9.0808    3.1899    3.3988 C   0  0  0  0  0  0  0  0  0  0  0  0
   -9.5953    2.3043    2.4831 C   0  0  0  0  0  0  0  0  0  0  0  0
   -8.7628    1.7747    1.5166 C   0  0  0  0  0  0  0  0  0  0  0  0
   -6.5449   -0.7075    1.2758 C   0  0  0  0  0  0  0  0  0  0  0  0
   -7.2409   -0.6146    2.4937 O   0  0  0  0  0  0  0  0  0  0  0  0
   -6.6423   -1.7776    0.5896 O   0  0  0  0  0  0  0  0  0  0  0  0
    3.1374   -3.4521    2.9597 H   0  0  0  0  0  0  0  0  0  0  0  0
    2.8291   -1.6733    2.9773 H   0  0  0  0  0  0  0  0  0  0  0  0
    4.3595   -2.3498    2.3238 H   0  0  0  0  0  0  0  0  0  0  0  0
    2.1053   -3.5768    0.9673 H   0  0  0  0  0  0  0  0  0  0  0  0
    1.6931   -1.8419    1.0192 H   0  0  0  0  0  0  0  0  0  0  0  0
    2.7175   -2.6288   -1.0091 H   0  0  0  0  0  0  0  0  0  0  0  0
    4.1652   -4.2389   -0.3374 H   0  0  0  0  0  0  0  0  0  0  0  0
    5.3248   -3.0921    0.5285 H   0  0  0  0  0  0  0  0  0  0  0  0
    5.1119   -2.9237   -1.2209 H   0  0  0  0  0  0  0  0  0  0  0  0
    4.3178   -0.8374   -1.3515 H   0  0  0  0  0  0  0  0  0  0  0  0
    3.9994   -0.1161    1.5974 H   0  0  0  0  0  0  0  0  0  0  0  0
    7.5391    2.5843    0.4293 H   0  0  0  0  0  0  0  0  0  0  0  0
    8.3303    0.9654    0.8381 H   0  0  0  0  0  0  0  0  0  0  0  0
    9.4612    0.7455    2.8659 H   0  0  0  0  0  0  0  0  0  0  0  0
   10.1388    1.7316    5.0241 H   0  0  0  0  0  0  0  0  0  0  0  0
    9.1521    3.7800    5.8426 H   0  0  0  0  0  0  0  0  0  0  0  0
    7.4114    4.9229    4.4792 H   0  0  0  0  0  0  0  0  0  0  0  0
    6.7018    3.9745    2.3024 H   0  0  0  0  0  0  0  0  0  0  0  0
    3.0220   -1.4925   -3.0005 H   0  0  0  0  0  0  0  0  0  0  0  0
    1.2319   -1.9188   -2.9801 H   0  0  0  0  0  0  0  0  0  0  0  0
    1.4229   -0.8447   -5.1202 H   0  0  0  0  0  0  0  0  0  0  0  0
    2.7160    0.2856   -4.4389 H   0  0  0  0  0  0  0  0  0  0  0  0
    1.0934    1.8165   -4.0051 H   0  0  0  0  0  0  0  0  0  0  0  0
   -0.2091    0.6477   -4.3457 H   0  0  0  0  0  0  0  0  0  0  0  0
    0.6581    1.6428   -1.8238 H   0  0  0  0  0  0  0  0  0  0  0  0
   -1.8262    1.1288   -3.1068 H   0  0  0  0  0  0  0  0  0  0  0  0
   -3.9361    0.2540   -2.8666 H   0  0  0  0  0  0  0  0  0  0  0  0
   -2.6018   -2.1944   -1.4804 H   0  0  0  0  0  0  0  0  0  0  0  0
   -4.3222   -2.0261   -1.7955 H   0  0  0  0  0  0  0  0  0  0  0  0
   -3.9213   -1.9574   -4.2350 H   0  0  0  0  0  0  0  0  0  0  0  0
   -1.7753   -2.9003   -5.0923 H   0  0  0  0  0  0  0  0  0  0  0  0
   -0.9734   -2.5661   -3.5574 H   0  0  0  0  0  0  0  0  0  0  0  0
   -1.5788   -1.2245   -4.6057 H   0  0  0  0  0  0  0  0  0  0  0  0
   -3.5893   -4.2798   -4.3248 H   0  0  0  0  0  0  0  0  0  0  0  0
   -2.7018   -4.3510   -2.7673 H   0  0  0  0  0  0  0  0  0  0  0  0
   -4.4534   -3.8934   -2.8166 H   0  0  0  0  0  0  0  0  0  0  0  0
   -5.5793   -0.6574   -1.0582 H   0  0  0  0  0  0  0  0  0  0  0  0
   -4.9392    0.7596    1.4932 H   0  0  0  0  0  0  0  0  0  0  0  0
   -7.2616    1.1933   -0.4345 H   0  0  0  0  0  0  0  0  0  0  0  0
   -5.9565    2.3428   -0.1451 H   0  0  0  0  0  0  0  0  0  0  0  0
   -5.8512    3.2543    2.3021 H   0  0  0  0  0  0  0  0  0  0  0  0
   -7.3393    4.2481    4.0835 H   0  0  0  0  0  0  0  0  0  0  0  0
   -9.7023    3.6393    4.1855 H   0  0  0  0  0  0  0  0  0  0  0  0
  -10.6543    2.0615    2.5639 H   0  0  0  0  0  0  0  0  0  0  0  0
   -9.1706    1.0804    0.8009 H   0  0  0  0  0  0  0  0  0  0  0  0
   -8.0715   -1.1689    2.6159 H   0  0  0  0  0  0  0  0  0  0  0  0
  1  2  1  0
  2  3  1  0
  3  4  1  0
  3  5  1  0
  5  6  1  0
  6  7  1  0
  7  8  2  0
  7  9  1  0
  9 10  1  0
 10 11  1  0
 11 12  2  0
 12 13  1  0
 13 14  2  0
 14 15  1  0
 15 16  2  0
  5 17  1  0
 17 18  2  0
 17 19  1  0
 19 20  1  0
 20 21  1  0
 21 22  1  0
 22 23  1  0
 23 24  1  0
 24 25  2  0
 24 26  1  0
 26 27  1  0
 27 28  1  0
 28 29  1  0
 29 30  1  0
 29 31  1  0
 27 32  1  0
 32 33  2  0
 32 34  1  0
 34 35  1  0
 35 36  1  0
 36 37  1  0
 37 38  2  0
 38 39  1  0
 39 40  2  0
 40 41  1  0
 41 42  2  0
 35 43  1  0
 43 44  1  0
 43 45  2  0
 16 11  1  0
 23 19  1  0
 42 37  1  0
  1 46  1  0
  1 47  1  0
  1 48  1  0
  2 49  1  0
  2 50  1  0
  3 51  1  6
  4 52  1  0
  4 53  1  0
  4 54  1  0
  5 55  1  6
  6 56  1  0
 10 57  1  0
 10 58  1  0
 12 59  1  0
 13 60  1  0
 14 61  1  0
 15 62  1  0
 16 63  1  0
 20 64  1  0
 20 65  1  0
 21 66  1  0
 21 67  1  0
 22 68  1  0
 22 69  1  0
 23 70  1  1
 26 71  1  0
 27 72  1  6
 28 73  1  0
 28 74  1  0
 29 75  1  0
 30 76  1  0
 30 77  1  0
 30 78  1  0
 31 79  1  0
 31 80  1  0
 31 81  1  0
 34 82  1  0
 35 83  1  1
 36 84  1  0
 36 85  1  0
 38 86  1  0
 39 87  1  0
 40 88  1  0
 41 89  1  0
 42 90  1  0
 44 91  1  0
M  END
$$$$
[H]N=C(N([H])[H])N([H])C([H])([H])C([H])([H])C([H])([H])[C@@]1([H])C(=O)N2C([H])([H])C([H])([H])C([H])([H])[C@@]2([H])C(=O)N([H])[C@]([H])(C([H])([H])c2c([H])c([H])c([H])c([H])c2[H])C(=O)N([H])[C@@]([H])([C@@]([H])(C([H])([H])[H])C([H])([H])C([H])([H])[H])C(=O)N([H])[C@@]([H])(C([H])([H])C([H])([H])C(=O)N([H])[H])C(=O)N1[H]
     RDKit          3D

 93 95  0  0  0  0  0  0  0  0999 V2000
   -5.1708    3.3808    2.1861 C   0  0  0  0  0  0  0  0  0  0  0  0
   -3.7455    3.1029    1.7890 C   0  0  0  0  0  0  0  0  0  0  0  0
   -3.2862    1.7342    2.2563 C   0  0  2  0  0  0  0  0  0  0  0  0
   -3.3382    1.5472    3.7275 C   0  0  0  0  0  0  0  0  0  0  0  0
   -1.9252    1.4545    1.6295 C   0  0  2  0  0  0  0  0  0  0  0  0
   -1.3731    0.1734    2.0078 N   0  0  0  0  0  0  0  0  0  0  0  0
   -1.9025   -1.0816    2.1018 C   0  0  0  0  0  0  0  0  0  0  0  0
   -1.8266   -1.6143    3.2979 O   0  0  0  0  0  0  0  0  0  0  0  0
   -2.5553   -1.9972    1.1348 C   0  0  1  0  0  0  0  0  0  0  0  0
   -3.1157   -1.3831   -0.0831 C   0  0  0  0  0  0  0  0  0  0  0  0
   -3.7862   -2.2593   -1.0395 C   0  0  0  0  0  0  0  0  0  0  0  0
   -3.1734   -2.6931   -2.1761 C   0  0  0  0  0  0  0  0  0  0  0  0
   -3.7501   -3.5390   -3.1065 C   0  0  0  0  0  0  0  0  0  0  0  0
   -5.0369   -3.9574   -2.8422 C   0  0  0  0  0  0  0  0  0  0  0  0
   -5.6913   -3.5353   -1.6954 C   0  0  0  0  0  0  0  0  0  0  0  0
   -5.0949   -2.6946   -0.7862 C   0  0  0  0  0  0  0  0  0  0  0  0
   -1.8306   -3.2313    1.0159 N   0  0  0  0  0  0  0  0  0  0  0  0
   -0.8850   -3.6761    0.0862 C   0  0  0  0  0  0  0  0  0  0  0  0
   -1.0055   -4.9150   -0.2850 O   0  0  0  0  0  0  0  0  0  0  0  0
    0.2380   -2.9680   -0.5508 C   0  0  2  0  0  0  0  0  0  0  0  0
    0.7683   -3.7466   -1.7510 C   0  0  0  0  0  0  0  0  0  0  0  0
    1.5622   -4.8463   -1.1306 C   0  0  0  0  0  0  0  0  0  0  0  0
    1.9352   -4.3155    0.2352 C   0  0  0  0  0  0  0  0  0  0  0  0
    1.4615   -2.9148    0.2254 N   0  0  0  0  0  0  0  0  0  0  0  0
    2.0209   -1.7524    0.7959 C   0  0  0  0  0  0  0  0  0  0  0  0
    2.5982   -1.9121    1.9284 O   0  0  0  0  0  0  0  0  0  0  0  0
    1.9853   -0.3842    0.1850 C   0  0  2  0  0  0  0  0  0  0  0  0
    2.5779   -0.3106   -1.1745 C   0  0  0  0  0  0  0  0  0  0  0  0
    3.9837   -0.6954   -1.3680 C   0  0  0  0  0  0  0  0  0  0  0  0
    4.9760    0.1368   -0.5943 C   0  0  0  0  0  0  0  0  0  0  0  0
    6.3439   -0.3088   -0.8631 N   0  0  0  0  0  0  0  0  0  0  0  0
    7.3990    0.3753   -0.2176 C   0  0  0  0  0  0  0  0  0  0  0  0
    7.1433    1.1696    0.9543 N   0  0  0  0  0  0  0  0  0  0  0  0
    8.6102    0.3234   -0.6341 N   0  0  0  0  0  0  0  0  0  0  0  0
    2.3698    0.6484    1.1034 N   0  0  0  0  0  0  0  0  0  0  0  0
    2.0270    2.0130    0.9666 C   0  0  0  0  0  0  0  0  0  0  0  0
    2.7608    2.8671    1.5203 O   0  0  0  0  0  0  0  0  0  0  0  0
    0.8442    2.5103    0.2030 C   0  0  2  0  0  0  0  0  0  0  0  0
    1.3765    3.5983   -0.7448 C   0  0  0  0  0  0  0  0  0  0  0  0
    0.3171    4.2066   -1.5945 C   0  0  0  0  0  0  0  0  0  0  0  0
    0.9185    5.2453   -2.4609 C   0  0  0  0  0  0  0  0  0  0  0  0
    0.1589    5.9242   -3.4355 N   0  0  0  0  0  0  0  0  0  0  0  0
    2.1310    5.5248   -2.3211 O   0  0  0  0  0  0  0  0  0  0  0  0
   -0.0668    3.1603    1.1098 N   0  0  0  0  0  0  0  0  0  0  0  0
   -0.9894    2.5639    1.9833 C   0  0  0  0  0  0  0  0  0  0  0  0
   -1.0265    3.0163    3.1872 O   0  0  0  0  0  0  0  0  0  0  0  0
   -5.4537    2.8180    3.1114 H   0  0  0  0  0  0  0  0  0  0  0  0
   -5.3939    4.4602    2.2534 H   0  0  0  0  0  0  0  0  0  0  0  0
   -5.8224    2.9823    1.3764 H   0  0  0  0  0  0  0  0  0  0  0  0
   -3.1095    3.9139    2.2024 H   0  0  0  0  0  0  0  0  0  0  0  0
   -3.6924    3.1973    0.6852 H   0  0  0  0  0  0  0  0  0  0  0  0
   -3.9885    1.0201    1.7925 H   0  0  0  0  0  0  0  0  0  0  0  0
   -2.3628    1.2023    4.1725 H   0  0  0  0  0  0  0  0  0  0  0  0
   -3.7535    2.4202    4.2958 H   0  0  0  0  0  0  0  0  0  0  0  0
   -4.0488    0.7111    4.0095 H   0  0  0  0  0  0  0  0  0  0  0  0
   -2.0887    1.4944    0.5405 H   0  0  0  0  0  0  0  0  0  0  0  0
   -0.3190    0.2589    2.2792 H   0  0  0  0  0  0  0  0  0  0  0  0
   -3.5335   -2.3251    1.6953 H   0  0  0  0  0  0  0  0  0  0  0  0
   -2.3435   -0.8111   -0.6596 H   0  0  0  0  0  0  0  0  0  0  0  0
   -3.9368   -0.6742    0.2499 H   0  0  0  0  0  0  0  0  0  0  0  0
   -2.1660   -2.3711   -2.4220 H   0  0  0  0  0  0  0  0  0  0  0  0
   -3.2049   -3.8405   -3.9796 H   0  0  0  0  0  0  0  0  0  0  0  0
   -5.5100   -4.6255   -3.5641 H   0  0  0  0  0  0  0  0  0  0  0  0
   -6.7166   -3.9110   -1.5535 H   0  0  0  0  0  0  0  0  0  0  0  0
   -5.6409   -2.3902    0.0948 H   0  0  0  0  0  0  0  0  0  0  0  0
   -2.0625   -3.9437    1.8092 H   0  0  0  0  0  0  0  0  0  0  0  0
   -0.0624   -1.9843   -0.9495 H   0  0  0  0  0  0  0  0  0  0  0  0
    1.4035   -3.0815   -2.3243 H   0  0  0  0  0  0  0  0  0  0  0  0
   -0.1291   -4.1054   -2.2997 H   0  0  0  0  0  0  0  0  0  0  0  0
    1.0958   -5.8318   -1.1204 H   0  0  0  0  0  0  0  0  0  0  0  0
    2.4846   -4.9744   -1.7760 H   0  0  0  0  0  0  0  0  0  0  0  0
    3.0432   -4.3847    0.3089 H   0  0  0  0  0  0  0  0  0  0  0  0
    1.5320   -4.8838    1.0764 H   0  0  0  0  0  0  0  0  0  0  0  0
    0.8767   -0.2006    0.0167 H   0  0  0  0  0  0  0  0  0  0  0  0
    2.4799    0.7804   -1.4878 H   0  0  0  0  0  0  0  0  0  0  0  0
    1.9337   -0.8219   -1.9517 H   0  0  0  0  0  0  0  0  0  0  0  0
    4.1852   -1.7845   -1.2571 H   0  0  0  0  0  0  0  0  0  0  0  0
    4.2406   -0.5012   -2.4543 H   0  0  0  0  0  0  0  0  0  0  0  0
    4.7986    0.1316    0.4971 H   0  0  0  0  0  0  0  0  0  0  0  0
    4.9515    1.1973   -0.9260 H   0  0  0  0  0  0  0  0  0  0  0  0
    6.5050   -1.0906   -1.5013 H   0  0  0  0  0  0  0  0  0  0  0  0
    6.8531    0.6799    1.8195 H   0  0  0  0  0  0  0  0  0  0  0  0
    7.2415    2.2080    0.9522 H   0  0  0  0  0  0  0  0  0  0  0  0
    9.3933    0.8235   -0.1659 H   0  0  0  0  0  0  0  0  0  0  0  0
    2.9475    0.3563    1.9459 H   0  0  0  0  0  0  0  0  0  0  0  0
    0.3239    1.7294   -0.3457 H   0  0  0  0  0  0  0  0  0  0  0  0
    2.1894    3.2029   -1.3716 H   0  0  0  0  0  0  0  0  0  0  0  0
    1.8460    4.3648   -0.0677 H   0  0  0  0  0  0  0  0  0  0  0  0
   -0.1490    3.4374   -2.2692 H   0  0  0  0  0  0  0  0  0  0  0  0
   -0.5183    4.6316   -1.0101 H   0  0  0  0  0  0  0  0  0  0  0  0
   -0.6096    6.5516   -3.1759 H   0  0  0  0  0  0  0  0  0  0  0  0
    0.3845    5.7870   -4.4483 H   0  0  0  0  0  0  0  0  0  0  0  0
   -0.0252    4.2323    1.1206 H   0  0  0  0  0  0  0  0  0  0  0  0
  1  2  1  0
  2  3  1  0
  3  4  1  0
  3  5  1  0
  5  6  1  0
  6  7  1  0
  7  8  2  0
  7  9  1  0
  9 10  1  0
 10 11  1  0
 11 12  2  0
 12 13  1  0
 13 14  2  0
 14 15  1  0
 15 16  2  0
  9 17  1  0
 17 18  1  0
 18 19  2  0
 18 20  1  0
 20 21  1  0
 21 22  1  0
 22 23  1  0
 23 24  1  0
 24 25  1  0
 25 26  2  0
 25 27  1  0
 27 28  1  0
 28 29  1  0
 29 30  1  0
 30 31  1  0
 31 32  1  0
 32 33  1  0
 32 34  2  3
 27 35  1  0
 35 36  1  0
 36 37  2  0
 36 38  1  0
 38 39  1  0
 39 40  1  0
 40 41  1  0
 41 42  1  0
 41 43  2  0
 38 44  1  0
 44 45  1  0
 45 46  2  0
 45  5  1  0
 16 11  1  0
 24 20  1  0
  1 47  1  0
  1 48  1  0
  1 49  1  0
  2 50  1  0
  2 51  1  0
  3 52  1  6
  4 53  1  0
  4 54  1  0
  4 55  1  0
  5 56  1  6
  6 57  1  0
  9 58  1  1
 10 59  1  0
 10 60  1  0
 12 61  1  0
 13 62  1  0
 14 63  1  0
 15 64  1  0
 16 65  1  0
 17 66  1  0
 20 67  1  6
 21 68  1  0
 21 69  1  0
 22 70  1  0
 22 71  1  0
 23 72  1  0
 23 73  1  0
 27 74  1  6
 28 75  1  0
 28 76  1  0
 29 77  1  0
 29 78  1  0
 30 79  1  0
 30 80  1  0
 31 81  1  0
 33 82  1  0
 33 83  1  0
 34 84  1  0
 35 85  1  0
 38 86  1  6
 39 87  1  0
 39 88  1  0
 40 89  1  0
 40 90  1  0
 42 91  1  0
 42 92  1  0
 44 93  1  0
M  END
$$$$
[H]c1c([H])c([H])c(-c2c([H])c([H])c([H])c([H])c2OC([H])(C2=NC([H])([H])C([H])([H])N2[H])C([H])([H])[H])c([H])c1[H]
     RDKit          3D

 38 40  0  0  0  0  0  0  0  0999 V2000
   -2.5726   -1.4432    0.3272 C   0  0  0  0  0  0  0  0  0  0  0  0
   -1.5821   -0.8533   -0.6548 C   0  0  0  0  0  0  0  0  0  0  0  0
   -0.3247   -0.6463   -0.1231 O   0  0  0  0  0  0  0  0  0  0  0  0
    0.8850   -1.1559   -0.4797 C   0  0  0  0  0  0  0  0  0  0  0  0
    1.0443   -2.0305   -1.5466 C   0  0  0  0  0  0  0  0  0  0  0  0
    2.2654   -2.5591   -1.9230 C   0  0  0  0  0  0  0  0  0  0  0  0
    3.3588   -2.1728   -1.1740 C   0  0  0  0  0  0  0  0  0  0  0  0
    3.2127   -1.3062   -0.1140 C   0  0  0  0  0  0  0  0  0  0  0  0
    1.9846   -0.7764    0.2623 C   0  0  0  0  0  0  0  0  0  0  0  0
    1.9317    0.1361    1.4069 C   0  0  0  0  0  0  0  0  0  0  0  0
    2.6250   -0.2448    2.5622 C   0  0  0  0  0  0  0  0  0  0  0  0
    2.6577    0.5148    3.6920 C   0  0  0  0  0  0  0  0  0  0  0  0
    1.9860    1.7091    3.7142 C   0  0  0  0  0  0  0  0  0  0  0  0
    1.2939    2.1110    2.5906 C   0  0  0  0  0  0  0  0  0  0  0  0
    1.2706    1.3208    1.4413 C   0  0  0  0  0  0  0  0  0  0  0  0
   -2.1554    0.3995   -1.2674 C   0  0  0  0  0  0  0  0  0  0  0  0
   -1.6926    1.5937   -1.2263 N   0  0  0  0  0  0  0  0  0  0  0  0
   -2.5097    2.5491   -1.9293 C   0  0  0  0  0  0  0  0  0  0  0  0
   -3.8332    1.8290   -2.0538 C   0  0  0  0  0  0  0  0  0  0  0  0
   -3.3769    0.4510   -2.0311 N   0  0  0  0  0  0  0  0  0  0  0  0
   -3.3436   -0.6656    0.5677 H   0  0  0  0  0  0  0  0  0  0  0  0
   -2.0674   -1.6702    1.3004 H   0  0  0  0  0  0  0  0  0  0  0  0
   -3.1128   -2.3072   -0.0629 H   0  0  0  0  0  0  0  0  0  0  0  0
   -1.5168   -1.5863   -1.4842 H   0  0  0  0  0  0  0  0  0  0  0  0
    0.2011   -2.3516   -2.1542 H   0  0  0  0  0  0  0  0  0  0  0  0
    2.3419   -3.2357   -2.7595 H   0  0  0  0  0  0  0  0  0  0  0  0
    4.3189   -2.5811   -1.4606 H   0  0  0  0  0  0  0  0  0  0  0  0
    4.0859   -1.0050    0.4750 H   0  0  0  0  0  0  0  0  0  0  0  0
    3.1640   -1.1964    2.5539 H   0  0  0  0  0  0  0  0  0  0  0  0
    3.1894    0.2296    4.5875 H   0  0  0  0  0  0  0  0  0  0  0  0
    1.9971    2.3340    4.6055 H   0  0  0  0  0  0  0  0  0  0  0  0
    0.7734    3.0529    2.6305 H   0  0  0  0  0  0  0  0  0  0  0  0
    0.7330    1.6459    0.5794 H   0  0  0  0  0  0  0  0  0  0  0  0
   -2.0341    2.7112   -2.9258 H   0  0  0  0  0  0  0  0  0  0  0  0
   -2.6013    3.4905   -1.3548 H   0  0  0  0  0  0  0  0  0  0  0  0
   -4.3693    2.0912   -2.9769 H   0  0  0  0  0  0  0  0  0  0  0  0
   -4.4231    1.9961   -1.1328 H   0  0  0  0  0  0  0  0  0  0  0  0
   -3.8046   -0.3778   -2.4620 H   0  0  0  0  0  0  0  0  0  0  0  0
  1  2  1  0
  2  3  1  0
  3  4  1  0
  4  5  2  0
  5  6  1  0
  6  7  2  0
  7  8  1  0
  8  9  2  0
  9 10  1  0
 10 11  2  0
 11 12  1  0
 12 13  2  0
 13 14  1  0
 14 15  2  0
  2 16  1  0
 16 17  2  0
 17 18  1  0
 18 19  1  0
 19 20  1  0
  9  4  1  0
 15 10  1  0
 20 16  1  0
  1 21  1  0
  1 22  1  0
  1 23  1  0
  2 24  1  0
  5 25  1  0
  6 26  1  0
  7 27  1  0
  8 28  1  0
 11 29  1  0
 12 30  1  0
 13 31  1  0
 14 32  1  0
 15 33  1  0
 18 34  1  0
 18 35  1  0
 19 36  1  0
 19 37  1  0
 20 38  1  0
M  END
$$$$
[H]c1nc([C@@]2([H])C([H])([H])[C@]2([H])C([H])([H])Oc2nc(C([H])([H])[H])nc([H])c2-c2c([H])c([H])c(=O)n(C([H])([H])[H])c2[H])c([H])c([H])c1OC([H])([H])[H]
     RDKit          3D

 50 53  0  0  0  0  0  0  0  0999 V2000
    8.1814   -0.8714    0.1917 C   0  0  0  0  0  0  0  0  0  0  0  0
    7.0828   -0.9244   -0.6895 O   0  0  0  0  0  0  0  0  0  0  0  0
    5.9013   -0.3113   -0.2968 C   0  0  0  0  0  0  0  0  0  0  0  0
    5.7694    0.3393    0.9117 C   0  0  0  0  0  0  0  0  0  0  0  0
    4.5953    0.9383    1.2815 C   0  0  0  0  0  0  0  0  0  0  0  0
    3.5036    0.9041    0.4428 C   0  0  0  0  0  0  0  0  0  0  0  0
    3.6454    0.2659   -0.7339 N   0  0  0  0  0  0  0  0  0  0  0  0
    4.7829   -0.3325   -1.1282 C   0  0  0  0  0  0  0  0  0  0  0  0
    2.2291    1.5519    0.8392 C   0  0  1  0  0  0  0  0  0  0  0  0
    1.5663    2.3137   -0.2836 C   0  0  0  0  0  0  0  0  0  0  0  0
    0.9664    1.0470    0.2209 C   0  0  2  0  0  0  0  0  0  0  0  0
   -0.2530    1.0808    1.0945 C   0  0  0  0  0  0  0  0  0  0  0  0
   -1.4190    0.6065    0.5016 O   0  0  0  0  0  0  0  0  0  0  0  0
   -1.6501   -0.6487   -0.0035 C   0  0  0  0  0  0  0  0  0  0  0  0
   -0.7212   -1.6238    0.0183 N   0  0  0  0  0  0  0  0  0  0  0  0
   -0.9090   -2.8620   -0.4643 C   0  0  0  0  0  0  0  0  0  0  0  0
    0.1421   -3.9108   -0.4215 C   0  0  0  0  0  0  0  0  0  0  0  0
   -2.1072   -3.1424   -1.0048 N   0  0  0  0  0  0  0  0  0  0  0  0
   -3.0784   -2.2144   -1.0581 C   0  0  0  0  0  0  0  0  0  0  0  0
   -2.8824   -0.9232   -0.5549 C   0  0  0  0  0  0  0  0  0  0  0  0
   -3.9228    0.0817   -0.6126 C   0  0  0  0  0  0  0  0  0  0  0  0
   -3.6277    1.3526   -1.0511 C   0  0  0  0  0  0  0  0  0  0  0  0
   -4.6122    2.3410   -1.1135 C   0  0  0  0  0  0  0  0  0  0  0  0
   -5.8949    2.0357   -0.7301 C   0  0  0  0  0  0  0  0  0  0  0  0
   -6.7666    2.9555   -0.7984 O   0  0  0  0  0  0  0  0  0  0  0  0
   -6.1771    0.8023   -0.3057 N   0  0  0  0  0  0  0  0  0  0  0  0
   -7.5356    0.4949    0.0956 C   0  0  0  0  0  0  0  0  0  0  0  0
   -5.2254   -0.1645   -0.2420 C   0  0  0  0  0  0  0  0  0  0  0  0
    8.3310    0.1823    0.4915 H   0  0  0  0  0  0  0  0  0  0  0  0
    7.9444   -1.4431    1.1234 H   0  0  0  0  0  0  0  0  0  0  0  0
    9.1165   -1.2382   -0.2804 H   0  0  0  0  0  0  0  0  0  0  0  0
    6.6177    0.3781    1.5878 H   0  0  0  0  0  0  0  0  0  0  0  0
    4.5109    1.4499    2.2452 H   0  0  0  0  0  0  0  0  0  0  0  0
    4.8534   -0.8366   -2.0868 H   0  0  0  0  0  0  0  0  0  0  0  0
    2.2302    2.0399    1.8156 H   0  0  0  0  0  0  0  0  0  0  0  0
    1.1167    3.2902   -0.0274 H   0  0  0  0  0  0  0  0  0  0  0  0
    2.0289    2.3054   -1.2917 H   0  0  0  0  0  0  0  0  0  0  0  0
    1.0887    0.1672   -0.4349 H   0  0  0  0  0  0  0  0  0  0  0  0
   -0.0157    0.4406    1.9942 H   0  0  0  0  0  0  0  0  0  0  0  0
   -0.4606    2.0846    1.5059 H   0  0  0  0  0  0  0  0  0  0  0  0
    0.0227   -4.6444   -1.2454 H   0  0  0  0  0  0  0  0  0  0  0  0
    1.1600   -3.5138   -0.4914 H   0  0  0  0  0  0  0  0  0  0  0  0
    0.0930   -4.5047    0.5337 H   0  0  0  0  0  0  0  0  0  0  0  0
   -4.0596   -2.4127   -1.4902 H   0  0  0  0  0  0  0  0  0  0  0  0
   -2.6304    1.6287   -1.3632 H   0  0  0  0  0  0  0  0  0  0  0  0
   -4.3154    3.3158   -1.4658 H   0  0  0  0  0  0  0  0  0  0  0  0
   -7.6752   -0.5990    0.2649 H   0  0  0  0  0  0  0  0  0  0  0  0
   -7.7677    1.0939    0.9835 H   0  0  0  0  0  0  0  0  0  0  0  0
   -8.2427    0.7718   -0.7218 H   0  0  0  0  0  0  0  0  0  0  0  0
   -5.5305   -1.1377    0.1118 H   0  0  0  0  0  0  0  0  0  0  0  0
  1  2  1  0
  2  3  1  0
  3  4  2  0
  4  5  1  0
  5  6  2  0
  6  7  1  0
  7  8  2  0
  6  9  1  0
  9 10  1  0
 10 11  1  0
 11 12  1  0
 12 13  1  0
 13 14  1  0
 14 15  2  0
 15 16  1  0
 16 17  1  0
 16 18  2  0
 18 19  1  0
 19 20  2  0
 20 21  1  0
 21 22  1  0
 22 23  2  0
 23 24  1  0
 24 25  2  0
 24 26  1  0
 26 27  1  0
 26 28  1  0
  8  3  1  0
 11  9  1  0
 20 14  1  0
 28 21  2  0
  1 29  1  0
  1 30  1  0
  1 31  1  0
  4 32  1  0
  5 33  1  0
  8 34  1  0
  9 35  1  1
 10 36  1  0
 10 37  1  0
 11 38  1  6
 12 39  1  0
 12 40  1  0
 17 41  1  0
 17 42  1  0
 17 43  1  0
 19 44  1  0
 22 45  1  0
 23 46  1  0
 27 47  1  0
 27 48  1  0
 27 49  1  0
 28 50  1  0
M  END
$$$$
[H]c1nc(N([H])c2c([H])c(N3C([H])([H])C([H])([H])OC([H])([H])C3([H])[H])c([H])c(N3C([H])([H])C([H])([H])OC([H])([H])C3([H])[H])c2[H])nc(N(c2c([H])c(C#N)c([H])c(C(F)(F)F)c2[H])C([H])([H])[H])c1[H]
     RDKit          3D

 67 71  0  0  0  0  0  0  0  0999 V2000
    4.2467   -1.9692   -1.5994 C   0  0  0  0  0  0  0  0  0  0  0  0
    4.2003   -0.9613   -0.5031 N   0  0  0  0  0  0  0  0  0  0  0  0
    2.9310   -0.6728    0.0240 C   0  0  0  0  0  0  0  0  0  0  0  0
    2.5356   -1.0581    1.2788 C   0  0  0  0  0  0  0  0  0  0  0  0
    1.2328   -0.8392    1.7113 C   0  0  0  0  0  0  0  0  0  0  0  0
    0.4190   -0.2442    0.8380 N   0  0  0  0  0  0  0  0  0  0  0  0
    0.7951    0.1431   -0.4021 C   0  0  0  0  0  0  0  0  0  0  0  0
   -0.2062    0.6472   -1.3151 N   0  0  0  0  0  0  0  0  0  0  0  0
   -1.5525    0.6043   -0.8684 C   0  0  0  0  0  0  0  0  0  0  0  0
   -2.2200   -0.5909   -1.1078 C   0  0  0  0  0  0  0  0  0  0  0  0
   -3.5243   -0.7972   -0.6371 C   0  0  0  0  0  0  0  0  0  0  0  0
   -4.1258    0.2137    0.0637 C   0  0  0  0  0  0  0  0  0  0  0  0
   -3.4796    1.4235    0.3169 C   0  0  0  0  0  0  0  0  0  0  0  0
   -2.1616    1.5826   -0.1795 C   0  0  0  0  0  0  0  0  0  0  0  0
   -4.0554    2.4768    1.0418 N   0  0  0  0  0  0  0  0  0  0  0  0
   -5.3835    2.9753    0.7972 C   0  0  0  0  0  0  0  0  0  0  0  0
   -5.3134    4.4907    0.9193 C   0  0  0  0  0  0  0  0  0  0  0  0
   -4.8514    4.9275    2.1392 O   0  0  0  0  0  0  0  0  0  0  0  0
   -4.1954    4.0004    2.8990 C   0  0  0  0  0  0  0  0  0  0  0  0
   -3.2861    3.0701    2.1146 C   0  0  0  0  0  0  0  0  0  0  0  0
   -4.1174   -2.0517   -0.8817 N   0  0  0  0  0  0  0  0  0  0  0  0
   -4.4707   -2.9546    0.2246 C   0  0  0  0  0  0  0  0  0  0  0  0
   -3.6411   -4.2117   -0.0443 C   0  0  0  0  0  0  0  0  0  0  0  0
   -3.9182   -4.7282   -1.2859 O   0  0  0  0  0  0  0  0  0  0  0  0
   -3.6444   -3.8926   -2.3420 C   0  0  0  0  0  0  0  0  0  0  0  0
   -4.3997   -2.5698   -2.2021 C   0  0  0  0  0  0  0  0  0  0  0  0
    2.0376   -0.0610   -0.8191 N   0  0  0  0  0  0  0  0  0  0  0  0
    5.4323   -0.3927   -0.1290 C   0  0  0  0  0  0  0  0  0  0  0  0
    5.7910   -0.0173    1.1431 C   0  0  0  0  0  0  0  0  0  0  0  0
    7.0162    0.5548    1.4632 C   0  0  0  0  0  0  0  0  0  0  0  0
    7.9096    0.7493    0.4333 C   0  0  0  0  0  0  0  0  0  0  0  0
    7.6085    0.3949   -0.8681 C   0  0  0  0  0  0  0  0  0  0  0  0
    6.3923   -0.1649   -1.1352 C   0  0  0  0  0  0  0  0  0  0  0  0
    8.5957    0.6361   -1.9588 C   0  0  0  0  0  0  0  0  0  0  0  0
    8.1510    1.5734   -2.8780 F   0  0  0  0  0  0  0  0  0  0  0  0
    9.7782    1.0781   -1.4421 F   0  0  0  0  0  0  0  0  0  0  0  0
    8.8332   -0.5367   -2.6575 F   0  0  0  0  0  0  0  0  0  0  0  0
    7.3756    0.9287    2.8124 C   0  0  0  0  0  0  0  0  0  0  0  0
    7.6826    1.2128    3.8967 N   0  0  0  0  0  0  0  0  0  0  0  0
    4.4607   -1.4709   -2.5550 H   0  0  0  0  0  0  0  0  0  0  0  0
    3.2837   -2.5054   -1.6695 H   0  0  0  0  0  0  0  0  0  0  0  0
    5.0284   -2.7447   -1.3580 H   0  0  0  0  0  0  0  0  0  0  0  0
    3.1903   -1.5441    1.9855 H   0  0  0  0  0  0  0  0  0  0  0  0
    0.8741   -1.1186    2.6889 H   0  0  0  0  0  0  0  0  0  0  0  0
    0.0960    1.0004   -2.2242 H   0  0  0  0  0  0  0  0  0  0  0  0
   -1.7453   -1.3973   -1.6660 H   0  0  0  0  0  0  0  0  0  0  0  0
   -5.1477    0.0814    0.4472 H   0  0  0  0  0  0  0  0  0  0  0  0
   -1.6672    2.5232    0.0069 H   0  0  0  0  0  0  0  0  0  0  0  0
   -6.0984    2.6060    1.5665 H   0  0  0  0  0  0  0  0  0  0  0  0
   -5.7843    2.7556   -0.1916 H   0  0  0  0  0  0  0  0  0  0  0  0
   -4.6582    4.9081    0.1144 H   0  0  0  0  0  0  0  0  0  0  0  0
   -6.3121    4.9332    0.7375 H   0  0  0  0  0  0  0  0  0  0  0  0
   -4.9355    3.3391    3.4357 H   0  0  0  0  0  0  0  0  0  0  0  0
   -3.5280    4.5257    3.6430 H   0  0  0  0  0  0  0  0  0  0  0  0
   -2.9748    2.2889    2.8588 H   0  0  0  0  0  0  0  0  0  0  0  0
   -2.4055    3.6279    1.7534 H   0  0  0  0  0  0  0  0  0  0  0  0
   -5.5369   -3.1677    0.1456 H   0  0  0  0  0  0  0  0  0  0  0  0
   -4.1223   -2.5052    1.1600 H   0  0  0  0  0  0  0  0  0  0  0  0
   -2.5665   -3.9498    0.0757 H   0  0  0  0  0  0  0  0  0  0  0  0
   -3.9040   -4.9493    0.7294 H   0  0  0  0  0  0  0  0  0  0  0  0
   -3.9460   -4.3974   -3.2754 H   0  0  0  0  0  0  0  0  0  0  0  0
   -2.5634   -3.6558   -2.4199 H   0  0  0  0  0  0  0  0  0  0  0  0
   -4.1005   -1.9030   -3.0083 H   0  0  0  0  0  0  0  0  0  0  0  0
   -5.4873   -2.8102   -2.2388 H   0  0  0  0  0  0  0  0  0  0  0  0
    5.1095   -0.1669    1.9478 H   0  0  0  0  0  0  0  0  0  0  0  0
    8.8774    1.1820    0.6153 H   0  0  0  0  0  0  0  0  0  0  0  0
    6.1463   -0.4544   -2.1658 H   0  0  0  0  0  0  0  0  0  0  0  0
  1  2  1  0
  2  3  1  0
  3  4  2  0
  4  5  1  0
  5  6  2  0
  6  7  1  0
  7  8  1  0
  8  9  1  0
  9 10  2  0
 10 11  1  0
 11 12  2  0
 12 13  1  0
 13 14  2  0
 13 15  1  0
 15 16  1  0
 16 17  1  0
 17 18  1  0
 18 19  1  0
 19 20  1  0
 11 21  1  0
 21 22  1  0
 22 23  1  0
 23 24  1  0
 24 25  1  0
 25 26  1  0
  7 27  2  0
  2 28  1  0
 28 29  2  0
 29 30  1  0
 30 31  2  0
 31 32  1  0
 32 33  2  0
 32 34  1  0
 34 35  1  0
 34 36  1  0
 34 37  1  0
 30 38  1  0
 38 39  3  0
 27  3  1  0
 33 28  1  0
 14  9  1  0
 20 15  1  0
 26 21  1  0
  1 40  1  0
  1 41  1  0
  1 42  1  0
  4 43  1  0
  5 44  1  0
  8 45  1  0
 10 46  1  0
 12 47  1  0
 14 48  1  0
 16 49  1  0
 16 50  1  0
 17 51  1  0
 17 52  1  0
 19 53  1  0
 19 54  1  0
 20 55  1  0
 20 56  1  0
 22 57  1  0
 22 58  1  0
 23 59  1  0
 23 60  1  0
 25 61  1  0
 25 62  1  0
 26 63  1  0
 26 64  1  0
 29 65  1  0
 31 66  1  0
 33 67  1  0
M  END
$$$$
[H]c1nc(C(=O)[C@@]([H])(N([H])C(=O)[C@@]2([H])N(C(=O)[C@]([H])(N([H])C(=O)OC([H])([H])c3c([H])c([H])c([H])c([H])c3[H])C([H])([H])c3c([H])c([H])c([H])c([H])c3[H])C([H])([H])C([H])([H])C2([H])[H])C([H])([H])C([H])([H])C([H])([H])N=C(N([H])[H])N([H])[H])sc1[H]
     RDKit          3D

 81 84  0  0  0  0  0  0  0  0999 V2000
    7.9968    3.3558   -2.0674 N   0  0  0  0  0  0  0  0  0  0  0  0
    7.4461    2.3745   -2.9295 C   0  0  0  0  0  0  0  0  0  0  0  0
    8.0028    2.2290   -4.2266 N   0  0  0  0  0  0  0  0  0  0  0  0
    6.4811    1.6394   -2.5695 N   0  0  0  0  0  0  0  0  0  0  0  0
    5.8162    1.6668   -1.3065 C   0  0  0  0  0  0  0  0  0  0  0  0
    5.0937    0.3252   -1.0882 C   0  0  0  0  0  0  0  0  0  0  0  0
    4.3807    0.3140    0.2230 C   0  0  0  0  0  0  0  0  0  0  0  0
    3.6773   -1.0251    0.4123 C   0  0  2  0  0  0  0  0  0  0  0  0
    2.9753   -1.0257    1.6890 N   0  0  0  0  0  0  0  0  0  0  0  0
    1.5222   -0.8800    1.7573 C   0  0  0  0  0  0  0  0  0  0  0  0
    1.0057   -0.7585    0.6387 O   0  0  0  0  0  0  0  0  0  0  0  0
    0.9386   -0.8964    3.0558 C   0  0  2  0  0  0  0  0  0  0  0  0
    0.9710   -2.2805    3.7301 C   0  0  0  0  0  0  0  0  0  0  0  0
    0.1981   -1.9547    5.0178 C   0  0  0  0  0  0  0  0  0  0  0  0
   -0.2312   -0.5061    4.8815 C   0  0  0  0  0  0  0  0  0  0  0  0
   -0.3877   -0.5229    3.3559 N   0  0  0  0  0  0  0  0  0  0  0  0
   -1.6285   -0.2560    2.7755 C   0  0  0  0  0  0  0  0  0  0  0  0
   -2.5330    0.1515    3.6391 O   0  0  0  0  0  0  0  0  0  0  0  0
   -2.1102   -0.3443    1.4055 C   0  0  1  0  0  0  0  0  0  0  0  0
   -2.3123   -1.8013    0.9771 C   0  0  0  0  0  0  0  0  0  0  0  0
   -2.8108   -1.8826   -0.4119 C   0  0  0  0  0  0  0  0  0  0  0  0
   -4.1758   -1.8828   -0.6121 C   0  0  0  0  0  0  0  0  0  0  0  0
   -4.7519   -1.9514   -1.8688 C   0  0  0  0  0  0  0  0  0  0  0  0
   -3.9296   -2.0223   -2.9662 C   0  0  0  0  0  0  0  0  0  0  0  0
   -2.5627   -2.0235   -2.7859 C   0  0  0  0  0  0  0  0  0  0  0  0
   -1.9923   -1.9541   -1.5127 C   0  0  0  0  0  0  0  0  0  0  0  0
   -3.4962    0.1927    1.3008 N   0  0  0  0  0  0  0  0  0  0  0  0
   -3.7945    1.2385    0.4058 C   0  0  0  0  0  0  0  0  0  0  0  0
   -2.8415    1.7017   -0.2994 O   0  0  0  0  0  0  0  0  0  0  0  0
   -5.0214    1.8204    0.2076 O   0  0  0  0  0  0  0  0  0  0  0  0
   -5.2278    2.8725   -0.7226 C   0  0  0  0  0  0  0  0  0  0  0  0
   -6.6600    3.2631   -0.6866 C   0  0  0  0  0  0  0  0  0  0  0  0
   -7.1163    4.2572    0.1526 C   0  0  0  0  0  0  0  0  0  0  0  0
   -8.4347    4.6158    0.1767 C   0  0  0  0  0  0  0  0  0  0  0  0
   -9.3183    3.9681   -0.6556 C   0  0  0  0  0  0  0  0  0  0  0  0
   -8.8946    2.9547   -1.5214 C   0  0  0  0  0  0  0  0  0  0  0  0
   -7.5561    2.6169   -1.5204 C   0  0  0  0  0  0  0  0  0  0  0  0
    4.6444   -2.1171    0.3149 C   0  0  0  0  0  0  0  0  0  0  0  0
    5.3272   -2.4634    1.3399 O   0  0  0  0  0  0  0  0  0  0  0  0
    4.9169   -2.8942   -0.9057 C   0  0  0  0  0  0  0  0  0  0  0  0
    5.8017   -3.8694   -1.0368 N   0  0  0  0  0  0  0  0  0  0  0  0
    5.9299   -4.4844   -2.1598 C   0  0  0  0  0  0  0  0  0  0  0  0
    5.1210   -4.0911   -3.2016 C   0  0  0  0  0  0  0  0  0  0  0  0
    4.2181   -2.8367   -2.4648 S   0  0  0  0  0  0  0  0  0  0  0  0
    9.0340    3.4314   -1.9628 H   0  0  0  0  0  0  0  0  0  0  0  0
    7.4025    4.0024   -1.5367 H   0  0  0  0  0  0  0  0  0  0  0  0
    8.7559    1.5229   -4.4532 H   0  0  0  0  0  0  0  0  0  0  0  0
    7.6946    2.8225   -5.0461 H   0  0  0  0  0  0  0  0  0  0  0  0
    5.0487    2.4961   -1.3459 H   0  0  0  0  0  0  0  0  0  0  0  0
    6.5363    1.8744   -0.4857 H   0  0  0  0  0  0  0  0  0  0  0  0
    5.8898   -0.4349   -1.1886 H   0  0  0  0  0  0  0  0  0  0  0  0
    4.3839    0.2737   -1.9598 H   0  0  0  0  0  0  0  0  0  0  0  0
    3.6697    1.1392    0.2723 H   0  0  0  0  0  0  0  0  0  0  0  0
    5.1679    0.3761    1.0216 H   0  0  0  0  0  0  0  0  0  0  0  0
    2.9335   -1.1017   -0.3895 H   0  0  0  0  0  0  0  0  0  0  0  0
    3.4704   -1.1280    2.5877 H   0  0  0  0  0  0  0  0  0  0  0  0
    1.5989   -0.2828    3.7644 H   0  0  0  0  0  0  0  0  0  0  0  0
    0.4948   -3.0506    3.1302 H   0  0  0  0  0  0  0  0  0  0  0  0
    2.0050   -2.5299    4.0124 H   0  0  0  0  0  0  0  0  0  0  0  0
   -0.7124   -2.6176    5.0462 H   0  0  0  0  0  0  0  0  0  0  0  0
    0.7763   -2.1715    5.9141 H   0  0  0  0  0  0  0  0  0  0  0  0
    0.6204    0.1508    5.0436 H   0  0  0  0  0  0  0  0  0  0  0  0
   -1.1646   -0.2601    5.3539 H   0  0  0  0  0  0  0  0  0  0  0  0
   -1.5338    0.2543    0.7277 H   0  0  0  0  0  0  0  0  0  0  0  0
   -1.4010   -2.3974    1.0563 H   0  0  0  0  0  0  0  0  0  0  0  0
   -3.0706   -2.2584    1.6429 H   0  0  0  0  0  0  0  0  0  0  0  0
   -4.8651   -1.8275    0.2276 H   0  0  0  0  0  0  0  0  0  0  0  0
   -5.8296   -1.9502   -2.0225 H   0  0  0  0  0  0  0  0  0  0  0  0
   -4.3732   -2.0759   -3.9669 H   0  0  0  0  0  0  0  0  0  0  0  0
   -1.9581   -2.0793   -3.6663 H   0  0  0  0  0  0  0  0  0  0  0  0
   -0.9184   -1.9572   -1.4119 H   0  0  0  0  0  0  0  0  0  0  0  0
   -4.2669   -0.1965    1.8851 H   0  0  0  0  0  0  0  0  0  0  0  0
   -4.9833    2.5218   -1.7495 H   0  0  0  0  0  0  0  0  0  0  0  0
   -4.5483    3.7059   -0.4372 H   0  0  0  0  0  0  0  0  0  0  0  0
   -6.3796    4.7551    0.8077 H   0  0  0  0  0  0  0  0  0  0  0  0
   -8.7497    5.4007    0.8515 H   0  0  0  0  0  0  0  0  0  0  0  0
  -10.3505    4.2682   -0.6185 H   0  0  0  0  0  0  0  0  0  0  0  0
   -9.6316    2.4908   -2.1418 H   0  0  0  0  0  0  0  0  0  0  0  0
   -7.1972    1.8243   -2.1914 H   0  0  0  0  0  0  0  0  0  0  0  0
    6.6667   -5.3097   -2.3010 H   0  0  0  0  0  0  0  0  0  0  0  0
    5.1071   -4.5148   -4.2221 H   0  0  0  0  0  0  0  0  0  0  0  0
  1  2  1  0
  2  3  1  0
  2  4  2  3
  4  5  1  0
  5  6  1  0
  6  7  1  0
  7  8  1  0
  8  9  1  0
  9 10  1  0
 10 11  2  0
 10 12  1  0
 12 13  1  0
 13 14  1  0
 14 15  1  0
 15 16  1  0
 16 17  1  0
 17 18  2  0
 17 19  1  0
 19 20  1  0
 20 21  1  0
 21 22  2  0
 22 23  1  0
 23 24  2  0
 24 25  1  0
 25 26  2  0
 19 27  1  0
 27 28  1  0
 28 29  2  0
 28 30  1  0
 30 31  1  0
 31 32  1  0
 32 33  2  0
 33 34  1  0
 34 35  2  0
 35 36  1  0
 36 37  2  0
  8 38  1  0
 38 39  2  0
 38 40  1  0
 40 41  2  0
 41 42  1  0
 42 43  2  0
 43 44  1  0
 16 12  1  0
 26 21  1  0
 37 32  1  0
 44 40  1  0
  1 45  1  0
  1 46  1  0
  3 47  1  0
  3 48  1  0
  5 49  1  0
  5 50  1  0
  6 51  1  0
  6 52  1  0
  7 53  1  0
  7 54  1  0
  8 55  1  6
  9 56  1  0
 12 57  1  1
 13 58  1  0
 13 59  1  0
 14 60  1  0
 14 61  1  0
 15 62  1  0
 15 63  1  0
 19 64  1  6
 20 65  1  0
 20 66  1  0
 22 67  1  0
 23 68  1  0
 24 69  1  0
 25 70  1  0
 26 71  1  0
 27 72  1  0
 31 73  1  0
 31 74  1  0
 33 75  1  0
 34 76  1  0
 35 77  1  0
 36 78  1  0
 37 79  1  0
 42 80  1  0
 43 81  1  0
M  END
$$$$
[H]OC([H])([H])[C@@]1([H])[C@@]([H])(OP(=O)(O[H])O[H])N([H])C([H])([H])[C@]([H])(O[H])[C@@]([H])(O[H])[C@]1([H])O[H]
     RDKit          3D

 33 33  0  0  0  0  0  0  0  0999 V2000
    1.0404    2.4811   -1.3357 O   0  0  0  0  0  0  0  0  0  0  0  0
   -0.0034    2.2058   -0.4734 C   0  0  0  0  0  0  0  0  0  0  0  0
   -0.3375    0.7317   -0.3901 C   0  0  2  0  0  0  0  0  0  0  0  0
   -1.4860    0.5325    0.5680 C   0  0  1  0  0  0  0  0  0  0  0  0
   -2.2860    1.6973    0.4495 O   0  0  0  0  0  0  0  0  0  0  0  0
   -2.3886   -0.6007    0.1841 C   0  0  2  0  0  0  0  0  0  0  0  0
   -3.4472   -0.6125    1.1003 O   0  0  0  0  0  0  0  0  0  0  0  0
   -1.7584   -1.9425    0.1877 C   0  0  1  0  0  0  0  0  0  0  0  0
   -2.4900   -2.7597   -0.6960 O   0  0  0  0  0  0  0  0  0  0  0  0
   -0.3314   -1.9659   -0.2899 C   0  0  0  0  0  0  0  0  0  0  0  0
    0.4725   -1.2531    0.6551 N   0  0  0  0  0  0  0  0  0  0  0  0
    0.8948   -0.0166    0.0140 C   0  0  2  0  0  0  0  0  0  0  0  0
    1.7531    0.6409    0.8492 O   0  0  0  0  0  0  0  0  0  0  0  0
    3.3105    0.6335    0.2310 P   0  0  0  0  0  0  0  0  0  0  0  0
    4.2615   -0.3600    1.2343 O   0  0  0  0  0  0  0  0  0  0  0  0
    4.0278    2.1719    0.2396 O   0  0  0  0  0  0  0  0  0  0  0  0
    3.4165    0.0698   -1.1538 O   0  0  0  0  0  0  0  0  0  0  0  0
    0.8409    2.2718   -2.2792 H   0  0  0  0  0  0  0  0  0  0  0  0
    0.2770    2.6203    0.5196 H   0  0  0  0  0  0  0  0  0  0  0  0
   -0.8739    2.8060   -0.8155 H   0  0  0  0  0  0  0  0  0  0  0  0
   -0.6737    0.4320   -1.4073 H   0  0  0  0  0  0  0  0  0  0  0  0
   -1.1557    0.5139    1.6177 H   0  0  0  0  0  0  0  0  0  0  0  0
   -2.6559    1.6467   -0.4730 H   0  0  0  0  0  0  0  0  0  0  0  0
   -2.8262   -0.3551   -0.8117 H   0  0  0  0  0  0  0  0  0  0  0  0
   -3.1174   -1.1579    1.8806 H   0  0  0  0  0  0  0  0  0  0  0  0
   -1.8626   -2.4404    1.1912 H   0  0  0  0  0  0  0  0  0  0  0  0
   -1.8866   -3.4666   -1.0283 H   0  0  0  0  0  0  0  0  0  0  0  0
   -0.3057   -1.5712   -1.3137 H   0  0  0  0  0  0  0  0  0  0  0  0
   -0.0120   -3.0285   -0.3520 H   0  0  0  0  0  0  0  0  0  0  0  0
    0.0616   -1.1217    1.5841 H   0  0  0  0  0  0  0  0  0  0  0  0
    1.4437   -0.3303   -0.8970 H   0  0  0  0  0  0  0  0  0  0  0  0
    3.7132   -0.8768    1.8672 H   0  0  0  0  0  0  0  0  0  0  0  0
    4.3845    2.4042   -0.6567 H   0  0  0  0  0  0  0  0  0  0  0  0
  1  2  1  0
  2  3  1  0
  3  4  1  0
  4  5  1  0
  4  6  1  0
  6  7  1  0
  6  8  1  0
  8  9  1  0
  8 10  1  0
 10 11  1  0
 11 12  1  0
 12 13  1  0
 13 14  1  0
 14 15  1  0
 14 16  1  0
 14 17  2  0
 12  3  1  0
  1 18  1  0
  2 19  1  0
  2 20  1  0
  3 21  1  6
  4 22  1  1
  5 23  1  0
  6 24  1  6
  7 25  1  0
  8 26  1  1
  9 27  1  0
 10 28  1  0
 10 29  1  0
 11 30  1  0
 12 31  1  6
 15 32  1  0
 16 33  1  0
M  END
$$$$
[H]c1nc([H])c(-c2c([H])c3nc(N([H])C(=O)N([H])C([H])([H])C([H])([H])[H])sc3n(C([H])(C([H])([H])[H])C([H])([H])[H])c2=O)c([H])c1[H]
     RDKit          3D

 44 46  0  0  0  0  0  0  0  0999 V2000
    7.8051   -1.1162    0.5284 C   0  0  0  0  0  0  0  0  0  0  0  0
    6.3918   -1.5958    0.4545 C   0  0  0  0  0  0  0  0  0  0  0  0
    5.5001   -0.4502    0.3463 N   0  0  0  0  0  0  0  0  0  0  0  0
    4.1017   -0.5917    0.2590 C   0  0  0  0  0  0  0  0  0  0  0  0
    3.5795   -1.7259    0.2724 O   0  0  0  0  0  0  0  0  0  0  0  0
    3.2865    0.5516    0.1560 N   0  0  0  0  0  0  0  0  0  0  0  0
    1.8481    0.3930    0.0667 C   0  0  0  0  0  0  0  0  0  0  0  0
    0.9190    1.3135   -0.0344 N   0  0  0  0  0  0  0  0  0  0  0  0
   -0.3314    0.9789   -0.1036 C   0  0  0  0  0  0  0  0  0  0  0  0
   -1.4408    1.8431   -0.2144 C   0  0  0  0  0  0  0  0  0  0  0  0
   -2.6951    1.3291   -0.2763 C   0  0  0  0  0  0  0  0  0  0  0  0
   -3.8073    2.2611   -0.3938 C   0  0  0  0  0  0  0  0  0  0  0  0
   -3.9290    3.3869    0.3900 C   0  0  0  0  0  0  0  0  0  0  0  0
   -5.0069    4.2580    0.2448 C   0  0  0  0  0  0  0  0  0  0  0  0
   -5.9576    3.9839   -0.6949 C   0  0  0  0  0  0  0  0  0  0  0  0
   -5.8380    2.8824   -1.4614 N   0  0  0  0  0  0  0  0  0  0  0  0
   -4.7843    2.0217   -1.3267 C   0  0  0  0  0  0  0  0  0  0  0  0
   -2.9800   -0.0196   -0.2378 C   0  0  0  0  0  0  0  0  0  0  0  0
   -4.1454   -0.4679   -0.2960 O   0  0  0  0  0  0  0  0  0  0  0  0
   -1.9186   -0.8364   -0.1323 N   0  0  0  0  0  0  0  0  0  0  0  0
   -2.0617   -2.2718   -0.0808 C   0  0  0  0  0  0  0  0  0  0  0  0
   -1.2284   -2.9623   -1.1304 C   0  0  0  0  0  0  0  0  0  0  0  0
   -1.7539   -2.8286    1.2907 C   0  0  0  0  0  0  0  0  0  0  0  0
   -0.6383   -0.3559   -0.0673 C   0  0  0  0  0  0  0  0  0  0  0  0
    0.9219   -1.0454    0.0661 S   0  0  0  0  0  0  0  0  0  0  0  0
    8.2328   -1.1769    1.5511 H   0  0  0  0  0  0  0  0  0  0  0  0
    7.8915   -0.0594    0.2021 H   0  0  0  0  0  0  0  0  0  0  0  0
    8.4539   -1.7084   -0.1497 H   0  0  0  0  0  0  0  0  0  0  0  0
    6.2781   -2.2264   -0.4353 H   0  0  0  0  0  0  0  0  0  0  0  0
    6.1695   -2.1448    1.3996 H   0  0  0  0  0  0  0  0  0  0  0  0
    5.9019    0.5177    0.3319 H   0  0  0  0  0  0  0  0  0  0  0  0
    3.7047    1.5059    0.1433 H   0  0  0  0  0  0  0  0  0  0  0  0
   -1.3062    2.9156   -0.2511 H   0  0  0  0  0  0  0  0  0  0  0  0
   -3.1896    3.6341    1.1473 H   0  0  0  0  0  0  0  0  0  0  0  0
   -5.0897    5.1362    0.8655 H   0  0  0  0  0  0  0  0  0  0  0  0
   -6.8262    4.6231   -0.8607 H   0  0  0  0  0  0  0  0  0  0  0  0
   -4.7888    1.1724   -1.9951 H   0  0  0  0  0  0  0  0  0  0  0  0
   -3.1213   -2.5224   -0.2936 H   0  0  0  0  0  0  0  0  0  0  0  0
   -0.6568   -2.2882   -1.7673 H   0  0  0  0  0  0  0  0  0  0  0  0
   -0.5574   -3.7071   -0.6208 H   0  0  0  0  0  0  0  0  0  0  0  0
   -1.8559   -3.5916   -1.8228 H   0  0  0  0  0  0  0  0  0  0  0  0
   -1.3151   -3.8468    1.1608 H   0  0  0  0  0  0  0  0  0  0  0  0
   -1.0726   -2.2118    1.8778 H   0  0  0  0  0  0  0  0  0  0  0  0
   -2.6899   -2.9566    1.8926 H   0  0  0  0  0  0  0  0  0  0  0  0
  1  2  1  0
  2  3  1  0
  3  4  1  0
  4  5  2  0
  4  6  1  0
  6  7  1  0
  7  8  2  0
  8  9  1  0
  9 10  1  0
 10 11  2  0
 11 12  1  0
 12 13  2  0
 13 14  1  0
 14 15  2  0
 15 16  1  0
 16 17  2  0
 11 18  1  0
 18 19  2  0
 18 20  1  0
 20 21  1  0
 21 22  1  0
 21 23  1  0
 20 24  1  0
 24 25  1  0
 25  7  1  0
 24  9  2  0
 17 12  1  0
  1 26  1  0
  1 27  1  0
  1 28  1  0
  2 29  1  0
  2 30  1  0
  3 31  1  0
  6 32  1  0
 10 33  1  0
 13 34  1  0
 14 35  1  0
 15 36  1  0
 17 37  1  0
 21 38  1  0
 22 39  1  0
 22 40  1  0
 22 41  1  0
 23 42  1  0
 23 43  1  0
 23 44  1  0
M  END
$$$$
[H]c1c([H])c([H])c(C([H])([H])N([H])C(=O)C(=O)[C@@]([H])(N([H])C(=O)[C@@]2([H])N(C(=O)C3(c4c([H])c([H])c(Cl)c([H])c4[H])C([H])([H])C3([H])[H])C([H])([H])[C@]([H])(S(=O)(=O)c3c([H])c([H])c([H])c([H])c3Cl)C2([H])[H])C([H])([H])[H])c([H])c1[H]
     RDKit          3D

 75 79  0  0  0  0  0  0  0  0999 V2000
    3.2431   -1.3867   -2.1090 C   0  0  0  0  0  0  0  0  0  0  0  0
    2.3967   -0.8830   -0.9906 C   0  0  2  0  0  0  0  0  0  0  0  0
    1.0032   -0.6682   -1.3764 N   0  0  0  0  0  0  0  0  0  0  0  0
   -0.0967   -0.8551   -0.4981 C   0  0  0  0  0  0  0  0  0  0  0  0
    0.2202   -1.2331    0.6836 O   0  0  0  0  0  0  0  0  0  0  0  0
   -1.4577   -0.6186   -0.9488 C   0  0  2  0  0  0  0  0  0  0  0  0
   -1.5254    0.7378   -1.6613 C   0  0  0  0  0  0  0  0  0  0  0  0
   -1.6746    1.7323   -0.5168 C   0  0  2  0  0  0  0  0  0  0  0  0
   -1.9503    0.8619    0.6938 C   0  0  0  0  0  0  0  0  0  0  0  0
   -2.4570   -0.4090    0.0649 N   0  0  0  0  0  0  0  0  0  0  0  0
   -3.6270   -0.9875    0.4979 C   0  0  0  0  0  0  0  0  0  0  0  0
   -4.2276   -0.3416    1.4695 O   0  0  0  0  0  0  0  0  0  0  0  0
   -4.3949   -2.1810    0.1075 C   0  0  0  0  0  0  0  0  0  0  0  0
   -5.0013   -2.1185   -1.2869 C   0  0  0  0  0  0  0  0  0  0  0  0
   -5.8588   -1.9341   -0.0811 C   0  0  0  0  0  0  0  0  0  0  0  0
   -3.8597   -3.5271    0.3872 C   0  0  0  0  0  0  0  0  0  0  0  0
   -4.7648   -4.4581    0.9563 C   0  0  0  0  0  0  0  0  0  0  0  0
   -4.3895   -5.7444    1.2587 C   0  0  0  0  0  0  0  0  0  0  0  0
   -3.1134   -6.2015    1.0257 C   0  0  0  0  0  0  0  0  0  0  0  0
   -2.6540   -7.8596    1.4250 Cl  0  0  0  0  0  0  0  0  0  0  0  0
   -2.2324   -5.3135    0.4770 C   0  0  0  0  0  0  0  0  0  0  0  0
   -2.6135   -3.9914    0.1645 C   0  0  0  0  0  0  0  0  0  0  0  0
   -3.0671    2.7497   -0.8835 S   0  0  0  0  0  0  0  0  0  0  0  0
   -4.3080    1.9099   -1.0323 O   0  0  0  0  0  0  0  0  0  0  0  0
   -2.8154    3.4228   -2.2288 O   0  0  0  0  0  0  0  0  0  0  0  0
   -3.3173    4.0238    0.2673 C   0  0  0  0  0  0  0  0  0  0  0  0
   -2.5422    4.2758    1.3612 C   0  0  0  0  0  0  0  0  0  0  0  0
   -2.8313    5.3342    2.2017 C   0  0  0  0  0  0  0  0  0  0  0  0
   -3.9154    6.1721    1.9627 C   0  0  0  0  0  0  0  0  0  0  0  0
   -4.7033    5.9293    0.8663 C   0  0  0  0  0  0  0  0  0  0  0  0
   -4.3988    4.8696    0.0404 C   0  0  0  0  0  0  0  0  0  0  0  0
   -5.4476    4.6069   -1.3441 Cl  0  0  0  0  0  0  0  0  0  0  0  0
    2.9618    0.3964   -0.4394 C   0  0  0  0  0  0  0  0  0  0  0  0
    2.2024    1.3786   -0.3271 O   0  0  0  0  0  0  0  0  0  0  0  0
    4.3376    0.4916   -0.0515 C   0  0  0  0  0  0  0  0  0  0  0  0
    5.0986   -0.4646   -0.2430 O   0  0  0  0  0  0  0  0  0  0  0  0
    4.8293    1.6765    0.5550 N   0  0  0  0  0  0  0  0  0  0  0  0
    6.1574    1.9555    0.9858 C   0  0  0  0  0  0  0  0  0  0  0  0
    7.1346    0.9247    0.6338 C   0  0  0  0  0  0  0  0  0  0  0  0
    7.4355   -0.0237    1.5826 C   0  0  0  0  0  0  0  0  0  0  0  0
    8.3696   -0.9906    1.2891 C   0  0  0  0  0  0  0  0  0  0  0  0
    9.0021   -1.0251    0.0757 C   0  0  0  0  0  0  0  0  0  0  0  0
    8.6826   -0.0597   -0.8637 C   0  0  0  0  0  0  0  0  0  0  0  0
    7.7578    0.9083   -0.5926 C   0  0  0  0  0  0  0  0  0  0  0  0
    2.5829   -1.9047   -2.8482 H   0  0  0  0  0  0  0  0  0  0  0  0
    4.0281   -2.0649   -1.7163 H   0  0  0  0  0  0  0  0  0  0  0  0
    3.6955   -0.5008   -2.6398 H   0  0  0  0  0  0  0  0  0  0  0  0
    2.3744   -1.6415   -0.1679 H   0  0  0  0  0  0  0  0  0  0  0  0
    0.7801   -0.3634   -2.3572 H   0  0  0  0  0  0  0  0  0  0  0  0
   -1.8322   -1.4182   -1.6214 H   0  0  0  0  0  0  0  0  0  0  0  0
   -0.7026    0.9384   -2.3302 H   0  0  0  0  0  0  0  0  0  0  0  0
   -2.4822    0.6912   -2.2408 H   0  0  0  0  0  0  0  0  0  0  0  0
   -0.7337    2.2880   -0.4588 H   0  0  0  0  0  0  0  0  0  0  0  0
   -1.0972    0.6784    1.3350 H   0  0  0  0  0  0  0  0  0  0  0  0
   -2.7421    1.3296    1.3027 H   0  0  0  0  0  0  0  0  0  0  0  0
   -4.7070   -1.2730   -1.9429 H   0  0  0  0  0  0  0  0  0  0  0  0
   -5.1554   -3.0621   -1.8171 H   0  0  0  0  0  0  0  0  0  0  0  0
   -6.2091   -0.8842    0.0511 H   0  0  0  0  0  0  0  0  0  0  0  0
   -6.6390   -2.6590    0.1664 H   0  0  0  0  0  0  0  0  0  0  0  0
   -5.7683   -4.0932    1.1477 H   0  0  0  0  0  0  0  0  0  0  0  0
   -5.1197   -6.4203    1.6918 H   0  0  0  0  0  0  0  0  0  0  0  0
   -1.2123   -5.6333    0.2762 H   0  0  0  0  0  0  0  0  0  0  0  0
   -1.8582   -3.3718   -0.2693 H   0  0  0  0  0  0  0  0  0  0  0  0
   -1.7039    3.6139    1.5335 H   0  0  0  0  0  0  0  0  0  0  0  0
   -2.2181    5.5354    3.0695 H   0  0  0  0  0  0  0  0  0  0  0  0
   -4.1753    7.0116    2.5925 H   0  0  0  0  0  0  0  0  0  0  0  0
   -5.5491    6.5693    0.6637 H   0  0  0  0  0  0  0  0  0  0  0  0
    4.1211    2.4533    0.7125 H   0  0  0  0  0  0  0  0  0  0  0  0
    6.5441    2.9227    0.5140 H   0  0  0  0  0  0  0  0  0  0  0  0
    6.2004    2.1540    2.1019 H   0  0  0  0  0  0  0  0  0  0  0  0
    6.9508   -0.0308    2.5667 H   0  0  0  0  0  0  0  0  0  0  0  0
    8.5968   -1.7378    2.0556 H   0  0  0  0  0  0  0  0  0  0  0  0
    9.7406   -1.7949   -0.1531 H   0  0  0  0  0  0  0  0  0  0  0  0
    9.1753   -0.0704   -1.8409 H   0  0  0  0  0  0  0  0  0  0  0  0
    7.5277    1.6566   -1.3632 H   0  0  0  0  0  0  0  0  0  0  0  0
  1  2  1  0
  2  3  1  0
  3  4  1  0
  4  5  2  0
  4  6  1  0
  6  7  1  0
  7  8  1  0
  8  9  1  0
  9 10  1  0
 10 11  1  0
 11 12  2  0
 11 13  1  0
 13 14  1  0
 14 15  1  0
 13 16  1  0
 16 17  2  0
 17 18  1  0
 18 19  2  0
 19 20  1  0
 19 21  1  0
 21 22  2  0
  8 23  1  0
 23 24  2  0
 23 25  2  0
 23 26  1  0
 26 27  2  0
 27 28  1  0
 28 29  2  0
 29 30  1  0
 30 31  2  0
 31 32  1  0
  2 33  1  0
 33 34  2  0
 33 35  1  0
 35 36  2  0
 35 37  1  0
 37 38  1  0
 38 39  1  0
 39 40  2  0
 40 41  1  0
 41 42  2  0
 42 43  1  0
 43 44  2  0
 10  6  1  0
 15 13  1  0
 22 16  1  0
 31 26  1  0
 44 39  1  0
  1 45  1  0
  1 46  1  0
  1 47  1  0
  2 48  1  1
  3 49  1  0
  6 50  1  6
  7 51  1  0
  7 52  1  0
  8 53  1  1
  9 54  1  0
  9 55  1  0
 14 56  1  0
 14 57  1  0
 15 58  1  0
 15 59  1  0
 17 60  1  0
 18 61  1  0
 21 62  1  0
 22 63  1  0
 27 64  1  0
 28 65  1  0
 29 66  1  0
 30 67  1  0
 37 68  1  0
 38 69  1  0
 38 70  1  0
 40 71  1  0
 41 72  1  0
 42 73  1  0
 43 74  1  0
 44 75  1  0
M  END
$$$$
[H]OC(=O)c1c([H])c([H])c(-c2c([H])c([H])c(N3C(=O)N(c4nc([H])nc(C([H])([H])[H])c4[H])C4(C3=O)C([H])([H])C([H])([H])N(C([H])([H])c3nc([H])c([H])c([H])c3C([H])([H])[H])C([H])([H])C4([H])[H])c([H])c2[H])c([H])c1[H]
     RDKit          3D

 72 77  0  0  0  0  0  0  0  0999 V2000
   -1.8046   -5.4926   -4.6748 C   0  0  0  0  0  0  0  0  0  0  0  0
   -1.9355   -4.0279   -4.4619 C   0  0  0  0  0  0  0  0  0  0  0  0
   -1.2763   -3.3424   -3.4650 C   0  0  0  0  0  0  0  0  0  0  0  0
   -1.4052   -1.9848   -3.2802 C   0  0  0  0  0  0  0  0  0  0  0  0
   -2.2172   -1.3221   -4.1240 N   0  0  0  0  0  0  0  0  0  0  0  0
   -2.8759   -1.9686   -5.1105 C   0  0  0  0  0  0  0  0  0  0  0  0
   -2.7370   -3.2978   -5.2759 N   0  0  0  0  0  0  0  0  0  0  0  0
   -0.7486   -1.2404   -2.2739 N   0  0  0  0  0  0  0  0  0  0  0  0
    0.6480   -0.9146   -2.2413 C   0  0  0  0  0  0  0  0  0  0  0  0
    1.3901   -0.8522   -3.2549 O   0  0  0  0  0  0  0  0  0  0  0  0
    1.0570   -0.6742   -0.8807 N   0  0  0  0  0  0  0  0  0  0  0  0
   -0.1587   -0.8757   -0.1225 C   0  0  0  0  0  0  0  0  0  0  0  0
   -0.2195   -1.1982    1.0816 O   0  0  0  0  0  0  0  0  0  0  0  0
   -1.2731   -0.6237   -1.0620 C   0  0  0  0  0  0  0  0  0  0  0  0
   -1.3976    0.8646   -1.2976 C   0  0  0  0  0  0  0  0  0  0  0  0
   -2.8056    1.3401   -0.9760 C   0  0  0  0  0  0  0  0  0  0  0  0
   -3.1902    0.9255    0.3609 N   0  0  0  0  0  0  0  0  0  0  0  0
   -4.4417    1.5568    0.6510 C   0  0  0  0  0  0  0  0  0  0  0  0
   -5.0057    1.2849    1.9654 C   0  0  0  0  0  0  0  0  0  0  0  0
   -4.3909    0.5065    2.8469 N   0  0  0  0  0  0  0  0  0  0  0  0
   -4.8959    0.2541    4.0564 C   0  0  0  0  0  0  0  0  0  0  0  0
   -6.0902    0.8049    4.4284 C   0  0  0  0  0  0  0  0  0  0  0  0
   -6.7728    1.6154    3.5657 C   0  0  0  0  0  0  0  0  0  0  0  0
   -6.2093    1.8492    2.3196 C   0  0  0  0  0  0  0  0  0  0  0  0
   -6.9184    2.7215    1.3555 C   0  0  0  0  0  0  0  0  0  0  0  0
   -3.1369   -0.4800    0.5489 C   0  0  0  0  0  0  0  0  0  0  0  0
   -2.5844   -1.1867   -0.6533 C   0  0  0  0  0  0  0  0  0  0  0  0
    2.3392   -0.3155   -0.3885 C   0  0  0  0  0  0  0  0  0  0  0  0
    2.4611    0.7723    0.4713 C   0  0  0  0  0  0  0  0  0  0  0  0
    3.6887    1.1480    0.9539 C   0  0  0  0  0  0  0  0  0  0  0  0
    4.8302    0.4590    0.5999 C   0  0  0  0  0  0  0  0  0  0  0  0
    4.7498   -0.6236   -0.2492 C   0  0  0  0  0  0  0  0  0  0  0  0
    3.4958   -0.9855   -0.7250 C   0  0  0  0  0  0  0  0  0  0  0  0
    6.1052    0.9300    1.1586 C   0  0  0  0  0  0  0  0  0  0  0  0
    6.3303    2.2631    1.4311 C   0  0  0  0  0  0  0  0  0  0  0  0
    7.5327    2.7248    1.9594 C   0  0  0  0  0  0  0  0  0  0  0  0
    8.5552    1.8334    2.2298 C   0  0  0  0  0  0  0  0  0  0  0  0
    8.3222    0.5036    1.9548 C   0  0  0  0  0  0  0  0  0  0  0  0
    7.1265    0.0438    1.4292 C   0  0  0  0  0  0  0  0  0  0  0  0
    9.8315    2.2654    2.7815 C   0  0  0  0  0  0  0  0  0  0  0  0
   10.8026    1.3105    3.0282 O   0  0  0  0  0  0  0  0  0  0  0  0
   10.0950    3.4616    3.0449 O   0  0  0  0  0  0  0  0  0  0  0  0
   -1.6810   -6.0233   -3.7101 H   0  0  0  0  0  0  0  0  0  0  0  0
   -0.8380   -5.6339   -5.2178 H   0  0  0  0  0  0  0  0  0  0  0  0
   -2.6260   -5.9143   -5.2536 H   0  0  0  0  0  0  0  0  0  0  0  0
   -0.6373   -3.8939   -2.8081 H   0  0  0  0  0  0  0  0  0  0  0  0
   -3.5223   -1.3999   -5.7716 H   0  0  0  0  0  0  0  0  0  0  0  0
   -0.6881    1.4435   -0.6844 H   0  0  0  0  0  0  0  0  0  0  0  0
   -1.1979    1.0799   -2.3505 H   0  0  0  0  0  0  0  0  0  0  0  0
   -3.4925    0.9850   -1.7564 H   0  0  0  0  0  0  0  0  0  0  0  0
   -2.7617    2.4570   -1.0414 H   0  0  0  0  0  0  0  0  0  0  0  0
   -5.1434    1.2884   -0.1930 H   0  0  0  0  0  0  0  0  0  0  0  0
   -4.2809    2.6570    0.5038 H   0  0  0  0  0  0  0  0  0  0  0  0
   -4.3633   -0.3907    4.7573 H   0  0  0  0  0  0  0  0  0  0  0  0
   -6.4911    0.5872    5.4261 H   0  0  0  0  0  0  0  0  0  0  0  0
   -7.7127    2.0537    3.8466 H   0  0  0  0  0  0  0  0  0  0  0  0
   -6.9262    2.2682    0.3277 H   0  0  0  0  0  0  0  0  0  0  0  0
   -7.9831    2.7648    1.6562 H   0  0  0  0  0  0  0  0  0  0  0  0
   -6.4658    3.7343    1.2836 H   0  0  0  0  0  0  0  0  0  0  0  0
   -4.1908   -0.8647    0.6722 H   0  0  0  0  0  0  0  0  0  0  0  0
   -2.5625   -0.6867    1.4699 H   0  0  0  0  0  0  0  0  0  0  0  0
   -2.5465   -2.2955   -0.5053 H   0  0  0  0  0  0  0  0  0  0  0  0
   -3.2848   -1.0277   -1.5237 H   0  0  0  0  0  0  0  0  0  0  0  0
    1.5591    1.3110    0.7460 H   0  0  0  0  0  0  0  0  0  0  0  0
    3.7590    1.9877    1.6150 H   0  0  0  0  0  0  0  0  0  0  0  0
    5.6472   -1.1633   -0.5265 H   0  0  0  0  0  0  0  0  0  0  0  0
    3.3862   -1.8293   -1.3952 H   0  0  0  0  0  0  0  0  0  0  0  0
    5.5405    2.9664    1.2234 H   0  0  0  0  0  0  0  0  0  0  0  0
    7.7002    3.7823    2.1718 H   0  0  0  0  0  0  0  0  0  0  0  0
    9.1112   -0.1987    2.1617 H   0  0  0  0  0  0  0  0  0  0  0  0
    6.9318   -0.9949    1.2093 H   0  0  0  0  0  0  0  0  0  0  0  0
   10.8907    0.9180    3.9617 H   0  0  0  0  0  0  0  0  0  0  0  0
  1  2  1  0
  2  3  2  0
  3  4  1  0
  4  5  2  0
  5  6  1  0
  6  7  2  0
  4  8  1  0
  8  9  1  0
  9 10  2  0
  9 11  1  0
 11 12  1  0
 12 13  2  0
 12 14  1  0
 14 15  1  0
 15 16  1  0
 16 17  1  0
 17 18  1  0
 18 19  1  0
 19 20  2  0
 20 21  1  0
 21 22  2  0
 22 23  1  0
 23 24  2  0
 24 25  1  0
 17 26  1  0
 26 27  1  0
 11 28  1  0
 28 29  2  0
 29 30  1  0
 30 31  2  0
 31 32  1  0
 32 33  2  0
 31 34  1  0
 34 35  2  0
 35 36  1  0
 36 37  2  0
 37 38  1  0
 38 39  2  0
 37 40  1  0
 40 41  1  0
 40 42  2  0
  7  2  1  0
 14  8  1  0
 27 14  1  0
 33 28  1  0
 39 34  1  0
 24 19  1  0
  1 43  1  0
  1 44  1  0
  1 45  1  0
  3 46  1  0
  6 47  1  0
 15 48  1  0
 15 49  1  0
 16 50  1  0
 16 51  1  0
 18 52  1  0
 18 53  1  0
 21 54  1  0
 22 55  1  0
 23 56  1  0
 25 57  1  0
 25 58  1  0
 25 59  1  0
 26 60  1  0
 26 61  1  0
 27 62  1  0
 27 63  1  0
 29 64  1  0
 30 65  1  0
 32 66  1  0
 33 67  1  0
 35 68  1  0
 36 69  1  0
 38 70  1  0
 39 71  1  0
 41 72  1  0
M  END
$$$$
[H]c1nc(N2C([H])([H])[C@@]3([H])N(C([H])([H])[H])C([H])([H])[C@@]2([H])C3([H])[H])c([H])c([H])c1-c1c([H])c([H])c([H])c2c1c([H])c([H])n2[H]
     RDKit          2D

 43 47  0  0  0  0  0  0  0  0999 V2000
  -12.4570   -1.1088    0.0000 C   0  0  0  0  0  0  0  0  0  0  0  0
  -11.0304   -0.6453    0.0000 N   0  0  0  0  0  0  0  0  0  0  0  0
  -10.5669    0.7813    0.0000 C   0  0  0  0  0  0  0  0  0  0  0  0
   -9.0669    0.7813    0.0000 C   0  0  0  0  0  0  0  0  0  0  0  0
   -8.6033   -0.6453    0.0000 C   0  0  0  0  0  0  0  0  0  0  0  0
   -9.8169   -1.5270    0.0000 C   0  0  0  0  0  0  0  0  0  0  0  0
   -8.3169   -1.5270    0.0000 C   0  0  0  0  0  0  0  0  0  0  0  0
   -7.8533   -0.1004    0.0000 N   0  0  0  0  0  0  0  0  0  0  0  0
   -6.4268    0.3631    0.0000 C   0  0  0  0  0  0  0  0  0  0  0  0
   -5.3120   -0.6406    0.0000 C   0  0  0  0  0  0  0  0  0  0  0  0
   -3.8855   -0.1771    0.0000 C   0  0  0  0  0  0  0  0  0  0  0  0
   -3.5736    1.2902    0.0000 C   0  0  0  0  0  0  0  0  0  0  0  0
   -4.6883    2.2939    0.0000 C   0  0  0  0  0  0  0  0  0  0  0  0
   -6.1149    1.8303    0.0000 N   0  0  0  0  0  0  0  0  0  0  0  0
   -2.1470    1.7537    0.0000 C   0  0  0  0  0  0  0  0  0  0  0  0
   -1.8351    3.2209    0.0000 C   0  0  0  0  0  0  0  0  0  0  0  0
   -0.4086    3.6844    0.0000 C   0  0  0  0  0  0  0  0  0  0  0  0
    0.7062    2.6807    0.0000 C   0  0  0  0  0  0  0  0  0  0  0  0
    0.3943    1.2135    0.0000 C   0  0  0  0  0  0  0  0  0  0  0  0
    1.2760    0.0000    0.0000 N   0  0  0  0  0  0  0  0  0  0  0  0
    0.3943   -1.2135    0.0000 C   0  0  0  0  0  0  0  0  0  0  0  0
   -1.0323   -0.7500    0.0000 C   0  0  0  0  0  0  0  0  0  0  0  0
   -1.0323    0.7500    0.0000 C   0  0  0  0  0  0  0  0  0  0  0  0
  -13.8836   -1.5724    0.0000 H   0  0  0  0  0  0  0  0  0  0  0  0
  -12.9205    0.3177    0.0000 H   0  0  0  0  0  0  0  0  0  0  0  0
  -11.9935   -2.5354    0.0000 H   0  0  0  0  0  0  0  0  0  0  0  0
  -10.4101    2.2731    0.0000 H   0  0  0  0  0  0  0  0  0  0  0  0
  -12.0341    1.0931    0.0000 H   0  0  0  0  0  0  0  0  0  0  0  0
   -8.1852    1.9948    0.0000 H   0  0  0  0  0  0  0  0  0  0  0  0
   -8.0496   -1.2187    0.0000 H   0  0  0  0  0  0  0  0  0  0  0  0
   -7.1261   -0.3849    0.0000 H   0  0  0  0  0  0  0  0  0  0  0  0
   -9.8169   -3.0270    0.0000 H   0  0  0  0  0  0  0  0  0  0  0  0
   -8.4737   -3.0188    0.0000 H   0  0  0  0  0  0  0  0  0  0  0  0
   -6.8496   -1.8389    0.0000 H   0  0  0  0  0  0  0  0  0  0  0  0
   -5.6239   -2.1078    0.0000 H   0  0  0  0  0  0  0  0  0  0  0  0
   -2.9014   -1.3091    0.0000 H   0  0  0  0  0  0  0  0  0  0  0  0
   -4.3764    3.7611    0.0000 H   0  0  0  0  0  0  0  0  0  0  0  0
   -2.9499    4.2246    0.0000 H   0  0  0  0  0  0  0  0  0  0  0  0
   -0.0967    5.1517    0.0000 H   0  0  0  0  0  0  0  0  0  0  0  0
    2.1328    3.1443    0.0000 H   0  0  0  0  0  0  0  0  0  0  0  0
    2.7760    0.0000    0.0000 H   0  0  0  0  0  0  0  0  0  0  0  0
    0.8578   -2.6401    0.0000 H   0  0  0  0  0  0  0  0  0  0  0  0
   -2.1293   -1.7730    0.0000 H   0  0  0  0  0  0  0  0  0  0  0  0
  1  2  1  0
  2  3  1  0
  3  4  1  0
  4  5  1  0
  5  6  1  0
  6  7  1  0
  7  8  1  0
  8  9  1  0
  9 10  2  0
 10 11  1  0
 11 12  2  0
 12 13  1  0
 13 14  2  0
 12 15  1  0
 15 16  1  0
 16 17  2  0
 17 18  1  0
 18 19  2  0
 19 20  1  0
 20 21  1  0
 21 22  2  0
 22 23  1  0
  6  2  1  0
 14  9  1  0
 23 15  2  0
  8  4  1  0
 23 19  1  0
  1 24  1  0
  1 25  1  0
  1 26  1  0
  3 27  1  0
  3 28  1  0
  4 29  1  1
  5 30  1  0
  5 31  1  0
  6 32  1  6
  7 33  1  0
  7 34  1  0
 10 35  1  0
 11 36  1  0
 13 37  1  0
 16 38  1  0
 17 39  1  0
 18 40  1  0
 20 41  1  0
 21 42  1  0
 22 43  1  0
M  END
$$$$
[H]O[C@]1([H])C([H])([H])C([H])([H])[C@@]([H])(n2c([H])c(-c3c([H])c([H])c(S(=O)(=O)C([H])([H])[H])c(F)c3[H])c3c([H])nc(N([H])C([H])([H])C([H])([H])C([H])([H])C([H])([H])[H])nc32)C([H])([H])C1([H])[H]
     RDKit          3D

 61 64  0  0  0  0  0  0  0  0999 V2000
   -5.9368   -2.7219    1.3372 C   0  0  0  0  0  0  0  0  0  0  0  0
   -5.8108   -3.2812   -0.0412 C   0  0  0  0  0  0  0  0  0  0  0  0
   -5.5883   -2.2395   -1.0954 C   0  0  0  0  0  0  0  0  0  0  0  0
   -4.3521   -1.4339   -0.8972 C   0  0  0  0  0  0  0  0  0  0  0  0
   -3.1451   -2.2460   -0.8979 N   0  0  0  0  0  0  0  0  0  0  0  0
   -1.8560   -1.6705   -0.7234 C   0  0  0  0  0  0  0  0  0  0  0  0
   -0.7872   -2.4863   -0.7358 N   0  0  0  0  0  0  0  0  0  0  0  0
    0.4779   -2.0399   -0.5790 C   0  0  0  0  0  0  0  0  0  0  0  0
    0.6990   -0.6980   -0.3981 C   0  0  0  0  0  0  0  0  0  0  0  0
    1.8496    0.0287   -0.2160 C   0  0  0  0  0  0  0  0  0  0  0  0
    1.4160    1.3539   -0.0897 C   0  0  0  0  0  0  0  0  0  0  0  0
    0.0757    1.3929   -0.1940 N   0  0  0  0  0  0  0  0  0  0  0  0
   -0.7481    2.5819   -0.1161 C   0  0  1  0  0  0  0  0  0  0  0  0
   -1.7075    2.4566    1.0413 C   0  0  0  0  0  0  0  0  0  0  0  0
   -2.4021    3.7433    1.3592 C   0  0  0  0  0  0  0  0  0  0  0  0
   -2.1339    4.8405    0.3788 C   0  0  2  0  0  0  0  0  0  0  0  0
   -2.7380    4.6556   -0.8524 O   0  0  0  0  0  0  0  0  0  0  0  0
   -0.6618    5.0560    0.1701 C   0  0  0  0  0  0  0  0  0  0  0  0
    0.1256    3.7879    0.1548 C   0  0  0  0  0  0  0  0  0  0  0  0
   -0.3987    0.1428   -0.3849 C   0  0  0  0  0  0  0  0  0  0  0  0
   -1.6457   -0.3697   -0.5483 N   0  0  0  0  0  0  0  0  0  0  0  0
    3.2282   -0.4411   -0.1632 C   0  0  0  0  0  0  0  0  0  0  0  0
    4.0795    0.0181    0.8307 C   0  0  0  0  0  0  0  0  0  0  0  0
    5.4000   -0.4130    0.9027 C   0  0  0  0  0  0  0  0  0  0  0  0
    5.8854   -1.3034   -0.0117 C   0  0  0  0  0  0  0  0  0  0  0  0
    5.0430   -1.7611   -0.9996 C   0  0  0  0  0  0  0  0  0  0  0  0
    5.4773   -2.6345   -1.9165 F   0  0  0  0  0  0  0  0  0  0  0  0
    3.7253   -1.3387   -1.0815 C   0  0  0  0  0  0  0  0  0  0  0  0
    7.5324   -1.8917    0.0129 S   0  0  0  0  0  0  0  0  0  0  0  0
    7.4619   -3.6652    0.2022 C   0  0  0  0  0  0  0  0  0  0  0  0
    8.1168   -1.6237   -1.3535 O   0  0  0  0  0  0  0  0  0  0  0  0
    8.3183   -1.2482    1.0912 O   0  0  0  0  0  0  0  0  0  0  0  0
   -6.0689   -1.6293    1.3670 H   0  0  0  0  0  0  0  0  0  0  0  0
   -6.6975   -3.2475    1.9558 H   0  0  0  0  0  0  0  0  0  0  0  0
   -4.9565   -2.9197    1.8599 H   0  0  0  0  0  0  0  0  0  0  0  0
   -6.7709   -3.7994   -0.2803 H   0  0  0  0  0  0  0  0  0  0  0  0
   -5.0265   -4.0760   -0.1181 H   0  0  0  0  0  0  0  0  0  0  0  0
   -5.4804   -2.7847   -2.0703 H   0  0  0  0  0  0  0  0  0  0  0  0
   -6.4455   -1.5641   -1.1689 H   0  0  0  0  0  0  0  0  0  0  0  0
   -4.4171   -0.8866    0.0835 H   0  0  0  0  0  0  0  0  0  0  0  0
   -4.3102   -0.6658   -1.6964 H   0  0  0  0  0  0  0  0  0  0  0  0
   -3.2791   -3.2715   -1.0333 H   0  0  0  0  0  0  0  0  0  0  0  0
    1.3322   -2.7013   -0.5891 H   0  0  0  0  0  0  0  0  0  0  0  0
    2.1214    2.1529    0.0651 H   0  0  0  0  0  0  0  0  0  0  0  0
   -1.2274    2.7211   -1.0841 H   0  0  0  0  0  0  0  0  0  0  0  0
   -1.0969    2.1356    1.9304 H   0  0  0  0  0  0  0  0  0  0  0  0
   -2.4701    1.6907    0.7916 H   0  0  0  0  0  0  0  0  0  0  0  0
   -3.5207    3.5966    1.3809 H   0  0  0  0  0  0  0  0  0  0  0  0
   -2.1175    4.0996    2.3623 H   0  0  0  0  0  0  0  0  0  0  0  0
   -2.5496    5.7812    0.8125 H   0  0  0  0  0  0  0  0  0  0  0  0
   -2.1924    5.0405   -1.5873 H   0  0  0  0  0  0  0  0  0  0  0  0
   -0.5189    5.6567   -0.7750 H   0  0  0  0  0  0  0  0  0  0  0  0
   -0.2698    5.7193    0.9876 H   0  0  0  0  0  0  0  0  0  0  0  0
    0.6786    3.6312    1.1171 H   0  0  0  0  0  0  0  0  0  0  0  0
    0.9182    3.8959   -0.6287 H   0  0  0  0  0  0  0  0  0  0  0  0
    3.7642    0.7199    1.5835 H   0  0  0  0  0  0  0  0  0  0  0  0
    6.0552   -0.0535    1.6755 H   0  0  0  0  0  0  0  0  0  0  0  0
    3.0985   -1.7225   -1.8740 H   0  0  0  0  0  0  0  0  0  0  0  0
    8.4867   -4.0040    0.4566 H   0  0  0  0  0  0  0  0  0  0  0  0
    7.1741   -4.1491   -0.7362 H   0  0  0  0  0  0  0  0  0  0  0  0
    6.7869   -3.9168    1.0270 H   0  0  0  0  0  0  0  0  0  0  0  0
  1  2  1  0
  2  3  1  0
  3  4  1  0
  4  5  1  0
  5  6  1  0
  6  7  2  0
  7  8  1  0
  8  9  2  0
  9 10  1  0
 10 11  2  0
 11 12  1  0
 12 13  1  0
 13 14  1  0
 14 15  1  0
 15 16  1  0
 16 17  1  0
 16 18  1  0
 18 19  1  0
 12 20  1  0
 20 21  2  0
 10 22  1  0
 22 23  2  0
 23 24  1  0
 24 25  2  0
 25 26  1  0
 26 27  1  0
 26 28  2  0
 25 29  1  0
 29 30  1  0
 29 31  2  0
 29 32  2  0
 21  6  1  0
 28 22  1  0
 20  9  1  0
 19 13  1  0
  1 33  1  0
  1 34  1  0
  1 35  1  0
  2 36  1  0
  2 37  1  0
  3 38  1  0
  3 39  1  0
  4 40  1  0
  4 41  1  0
  5 42  1  0
  8 43  1  0
 11 44  1  0
 13 45  1  6
 14 46  1  0
 14 47  1  0
 15 48  1  0
 15 49  1  0
 16 50  1  1
 17 51  1  0
 18 52  1  0
 18 53  1  0
 19 54  1  0
 19 55  1  0
 23 56  1  0
 24 57  1  0
 28 58  1  0
 30 59  1  0
 30 60  1  0
 30 61  1  0
M  END
$$$$
[H]c1c([H])c(S(=O)(=O)C([H])([H])[H])c([H])c([H])c1N([H])c1nc(N([H])C([H])(C([H])([H])[H])C([H])([H])[H])c2c(C([H])([H])[H])nn([H])c2n1
     RDKit          3D

 45 47  0  0  0  0  0  0  0  0999 V2000
   -3.5143   -1.9679   -1.3970 C   0  0  0  0  0  0  0  0  0  0  0  0
   -4.0675   -1.6127   -0.0414 C   0  0  0  0  0  0  0  0  0  0  0  0
   -5.4927   -2.0702    0.0318 C   0  0  0  0  0  0  0  0  0  0  0  0
   -3.9397   -0.1848    0.2478 N   0  0  0  0  0  0  0  0  0  0  0  0
   -2.6421    0.3770    0.2685 C   0  0  0  0  0  0  0  0  0  0  0  0
   -1.5582   -0.3990    0.0276 N   0  0  0  0  0  0  0  0  0  0  0  0
   -0.2823    0.0198    0.0214 C   0  0  0  0  0  0  0  0  0  0  0  0
    0.7408   -0.9001   -0.2670 N   0  0  0  0  0  0  0  0  0  0  0  0
    2.1224   -0.6298   -0.2992 C   0  0  0  0  0  0  0  0  0  0  0  0
    2.9682   -1.4898   -1.0372 C   0  0  0  0  0  0  0  0  0  0  0  0
    4.3262   -1.3253   -1.1103 C   0  0  0  0  0  0  0  0  0  0  0  0
    4.9352   -0.2999   -0.4584 C   0  0  0  0  0  0  0  0  0  0  0  0
    4.1464    0.5493    0.2642 C   0  0  0  0  0  0  0  0  0  0  0  0
    2.7553    0.3968    0.3510 C   0  0  0  0  0  0  0  0  0  0  0  0
    6.6617   -0.0159   -0.4979 S   0  0  0  0  0  0  0  0  0  0  0  0
    7.4943   -0.8528    0.7983 C   0  0  0  0  0  0  0  0  0  0  0  0
    6.8843    1.4652   -0.3340 O   0  0  0  0  0  0  0  0  0  0  0  0
    7.2124   -0.4456   -1.8354 O   0  0  0  0  0  0  0  0  0  0  0  0
   -0.0897    1.3040    0.2747 N   0  0  0  0  0  0  0  0  0  0  0  0
   -1.0992    2.1448    0.5236 C   0  0  0  0  0  0  0  0  0  0  0  0
   -1.1409    3.4786    0.8041 N   0  0  0  0  0  0  0  0  0  0  0  0
   -2.3727    3.8641    0.9744 N   0  0  0  0  0  0  0  0  0  0  0  0
   -3.2096    2.7881    0.8118 C   0  0  0  0  0  0  0  0  0  0  0  0
   -4.6758    2.7933    0.9196 C   0  0  0  0  0  0  0  0  0  0  0  0
   -2.4088    1.7202    0.5311 C   0  0  0  0  0  0  0  0  0  0  0  0
   -4.1578   -2.7295   -1.8642 H   0  0  0  0  0  0  0  0  0  0  0  0
   -2.4867   -2.3820   -1.3565 H   0  0  0  0  0  0  0  0  0  0  0  0
   -3.5719   -1.0587   -2.0453 H   0  0  0  0  0  0  0  0  0  0  0  0
   -3.4906   -2.2155    0.7101 H   0  0  0  0  0  0  0  0  0  0  0  0
   -5.5075   -3.1672    0.1452 H   0  0  0  0  0  0  0  0  0  0  0  0
   -5.9960   -1.8094   -0.9240 H   0  0  0  0  0  0  0  0  0  0  0  0
   -6.0507   -1.5731    0.8498 H   0  0  0  0  0  0  0  0  0  0  0  0
   -4.7835    0.3275    0.4184 H   0  0  0  0  0  0  0  0  0  0  0  0
    0.4711   -1.9207   -0.4839 H   0  0  0  0  0  0  0  0  0  0  0  0
    2.4794   -2.2969   -1.5509 H   0  0  0  0  0  0  0  0  0  0  0  0
    4.9478   -2.0058   -1.6874 H   0  0  0  0  0  0  0  0  0  0  0  0
    4.6061    1.3702    0.7899 H   0  0  0  0  0  0  0  0  0  0  0  0
    2.1984    1.0944    0.9513 H   0  0  0  0  0  0  0  0  0  0  0  0
    6.8960   -1.6761    1.2448 H   0  0  0  0  0  0  0  0  0  0  0  0
    8.4756   -1.2154    0.4095 H   0  0  0  0  0  0  0  0  0  0  0  0
    7.7141   -0.1504    1.6287 H   0  0  0  0  0  0  0  0  0  0  0  0
   -0.2921    4.0901    0.8693 H   0  0  0  0  0  0  0  0  0  0  0  0
   -4.9617    3.8710    1.1259 H   0  0  0  0  0  0  0  0  0  0  0  0
   -5.1742    2.5573   -0.0209 H   0  0  0  0  0  0  0  0  0  0  0  0
   -5.0697    2.1829    1.7681 H   0  0  0  0  0  0  0  0  0  0  0  0
  1  2  1  0
  2  3  1  0
  2  4  1  0
  4  5  1  0
  5  6  2  0
  6  7  1  0
  7  8  1  0
  8  9  1  0
  9 10  2  0
 10 11  1  0
 11 12  2  0
 12 13  1  0
 13 14  2  0
 12 15  1  0
 15 16  1  0
 15 17  2  0
 15 18  2  0
  7 19  2  0
 19 20  1  0
 20 21  1  0
 21 22  1  0
 22 23  2  0
 23 24  1  0
 23 25  1  0
 25  5  1  0
 14  9  1  0
 25 20  2  0
  1 26  1  0
  1 27  1  0
  1 28  1  0
  2 29  1  0
  3 30  1  0
  3 31  1  0
  3 32  1  0
  4 33  1  0
  8 34  1  0
 10 35  1  0
 11 36  1  0
 13 37  1  0
 14 38  1  0
 16 39  1  0
 16 40  1  0
 16 41  1  0
 21 42  1  0
 24 43  1  0
 24 44  1  0
 24 45  1  0
M  END
$$$$
[H]Oc1c([H])c([H])c(C([H])([H])[C@@]([H])(C(=O)N([H])[H])N([H])C(=O)[C@@]([H])(N([H])C(=O)[C@@]([H])(N([H])C(=O)[C@@]([H])(N([H])C(=O)[C@@]([H])(N([H])C(=O)c2c([H])c([H])c(S(=O)(=O)N([H])[H])c([H])c2[H])C([H])([H])c2c([H])c([H])c([H])c([H])c2[H])C([H])([H])c2c([H])c([H])c([H])c([H])c2[H])C([H])([H])c2c([H])c([H])c([H])c([H])c2[H])C([H])([H])c2c([H])c([H])c([H])c([H])c2[H])c([H])c1[H]
     RDKit          3D

122127  0  0  0  0  0  0  0  0999 V2000
    9.5982    5.1432    5.1135 N   0  0  0  0  0  0  0  0  0  0  0  0
    7.9319    5.4611    4.8085 S   0  0  0  0  0  0  0  0  0  0  0  0
    7.8370    6.8389    4.2248 O   0  0  0  0  0  0  0  0  0  0  0  0
    7.1606    5.3452    6.1062 O   0  0  0  0  0  0  0  0  0  0  0  0
    7.3357    4.2463    3.7122 C   0  0  0  0  0  0  0  0  0  0  0  0
    7.4859    4.3123    2.3304 C   0  0  0  0  0  0  0  0  0  0  0  0
    6.9536    3.3705    1.4886 C   0  0  0  0  0  0  0  0  0  0  0  0
    6.2264    2.2866    1.9890 C   0  0  0  0  0  0  0  0  0  0  0  0
    6.0699    2.2004    3.3432 C   0  0  0  0  0  0  0  0  0  0  0  0
    6.6076    3.1502    4.1900 C   0  0  0  0  0  0  0  0  0  0  0  0
    5.6308    1.3266    1.0476 C   0  0  0  0  0  0  0  0  0  0  0  0
    4.5706    0.7617    1.3943 O   0  0  0  0  0  0  0  0  0  0  0  0
    6.2171    1.0475   -0.2073 N   0  0  0  0  0  0  0  0  0  0  0  0
    5.5628    0.1390   -1.1126 C   0  0  1  0  0  0  0  0  0  0  0  0
    5.7964   -1.2936   -0.8613 C   0  0  0  0  0  0  0  0  0  0  0  0
    7.2636   -1.6185   -0.9525 C   0  0  0  0  0  0  0  0  0  0  0  0
    7.8236   -1.9622   -2.1704 C   0  0  0  0  0  0  0  0  0  0  0  0
    9.1669   -2.2533   -2.2824 C   0  0  0  0  0  0  0  0  0  0  0  0
    9.9993   -2.2135   -1.1773 C   0  0  0  0  0  0  0  0  0  0  0  0
    9.4296   -1.8724    0.0178 C   0  0  0  0  0  0  0  0  0  0  0  0
    8.0863   -1.5755    0.1538 C   0  0  0  0  0  0  0  0  0  0  0  0
    4.1180    0.4719   -1.0763 C   0  0  0  0  0  0  0  0  0  0  0  0
    3.7848    1.7098   -1.0365 O   0  0  0  0  0  0  0  0  0  0  0  0
    3.0949   -0.5162   -1.0838 N   0  0  0  0  0  0  0  0  0  0  0  0
    1.7354   -0.1225   -1.0589 C   0  0  1  0  0  0  0  0  0  0  0  0
    1.3454   -0.0457   -2.6019 C   0  0  0  0  0  0  0  0  0  0  0  0
    1.5698   -1.3705   -3.1767 C   0  0  0  0  0  0  0  0  0  0  0  0
    2.8133   -1.6187   -3.7621 C   0  0  0  0  0  0  0  0  0  0  0  0
    3.1035   -2.8604   -4.2897 C   0  0  0  0  0  0  0  0  0  0  0  0
    2.1779   -3.9046   -4.2620 C   0  0  0  0  0  0  0  0  0  0  0  0
    0.9515   -3.6254   -3.6713 C   0  0  0  0  0  0  0  0  0  0  0  0
    0.6611   -2.3904   -3.1448 C   0  0  0  0  0  0  0  0  0  0  0  0
    0.7528   -0.9962   -0.4341 C   0  0  0  0  0  0  0  0  0  0  0  0
    1.0603   -2.1738   -0.1224 O   0  0  0  0  0  0  0  0  0  0  0  0
   -0.5418   -0.5320   -0.1932 N   0  0  0  0  0  0  0  0  0  0  0  0
   -1.7147   -1.1499    0.3286 C   0  0  1  0  0  0  0  0  0  0  0  0
   -1.9214   -1.0918    1.8072 C   0  0  0  0  0  0  0  0  0  0  0  0
   -0.8635   -1.7823    2.6021 C   0  0  0  0  0  0  0  0  0  0  0  0
   -0.9828   -3.1712    2.7400 C   0  0  0  0  0  0  0  0  0  0  0  0
   -0.0908   -3.9117    3.4772 C   0  0  0  0  0  0  0  0  0  0  0  0
    0.9627   -3.2599    4.1043 C   0  0  0  0  0  0  0  0  0  0  0  0
    1.1028   -1.9078    3.9868 C   0  0  0  0  0  0  0  0  0  0  0  0
    0.1760   -1.1520    3.2233 C   0  0  0  0  0  0  0  0  0  0  0  0
   -2.8921   -0.7270   -0.4532 C   0  0  0  0  0  0  0  0  0  0  0  0
   -2.6291    0.1185   -1.4018 O   0  0  0  0  0  0  0  0  0  0  0  0
   -4.2464   -1.1228   -0.2997 N   0  0  0  0  0  0  0  0  0  0  0  0
   -5.2485   -0.5882   -1.1827 C   0  0  1  0  0  0  0  0  0  0  0  0
   -5.4986   -1.5550   -2.3515 C   0  0  0  0  0  0  0  0  0  0  0  0
   -5.9213   -2.8657   -1.9007 C   0  0  0  0  0  0  0  0  0  0  0  0
   -5.0651   -3.9187   -1.6570 C   0  0  0  0  0  0  0  0  0  0  0  0
   -5.4633   -5.1536   -1.2066 C   0  0  0  0  0  0  0  0  0  0  0  0
   -6.8161   -5.3883   -0.9679 C   0  0  0  0  0  0  0  0  0  0  0  0
   -7.6852   -4.3478   -1.2057 C   0  0  0  0  0  0  0  0  0  0  0  0
   -7.2792   -3.1180   -1.6572 C   0  0  0  0  0  0  0  0  0  0  0  0
   -6.5129   -0.1491   -0.5870 C   0  0  0  0  0  0  0  0  0  0  0  0
   -7.0924   -0.7669    0.3712 O   0  0  0  0  0  0  0  0  0  0  0  0
   -7.1872    1.0213   -1.0636 N   0  0  0  0  0  0  0  0  0  0  0  0
   -8.4385    1.5469   -0.6330 C   0  0  1  0  0  0  0  0  0  0  0  0
   -8.3481    2.1833    0.7241 C   0  0  0  0  0  0  0  0  0  0  0  0
   -7.3841    3.2964    0.8421 C   0  0  0  0  0  0  0  0  0  0  0  0
   -6.0891    3.0232    1.2999 C   0  0  0  0  0  0  0  0  0  0  0  0
   -5.1369    4.0021    1.4303 C   0  0  0  0  0  0  0  0  0  0  0  0
   -5.4186    5.3122    1.1121 C   0  0  0  0  0  0  0  0  0  0  0  0
   -4.4503    6.3044    1.2481 O   0  0  0  0  0  0  0  0  0  0  0  0
   -6.6783    5.5993    0.6610 C   0  0  0  0  0  0  0  0  0  0  0  0
   -7.6679    4.6159    0.5206 C   0  0  0  0  0  0  0  0  0  0  0  0
   -9.0409    2.4673   -1.5990 C   0  0  0  0  0  0  0  0  0  0  0  0
  -10.3771    2.8880   -1.4556 N   0  0  0  0  0  0  0  0  0  0  0  0
   -8.4022    2.9258   -2.6134 O   0  0  0  0  0  0  0  0  0  0  0  0
   10.1689    5.5315    4.3061 H   0  0  0  0  0  0  0  0  0  0  0  0
    9.7452    4.1155    5.0582 H   0  0  0  0  0  0  0  0  0  0  0  0
    8.0536    5.1663    1.9386 H   0  0  0  0  0  0  0  0  0  0  0  0
    7.0565    3.4006    0.4108 H   0  0  0  0  0  0  0  0  0  0  0  0
    5.5092    1.3625    3.7490 H   0  0  0  0  0  0  0  0  0  0  0  0
    6.4822    3.0926    5.2687 H   0  0  0  0  0  0  0  0  0  0  0  0
    7.1238    1.4723   -0.5516 H   0  0  0  0  0  0  0  0  0  0  0  0
    5.8670    0.3722   -2.1880 H   0  0  0  0  0  0  0  0  0  0  0  0
    5.3299   -1.9573   -1.6540 H   0  0  0  0  0  0  0  0  0  0  0  0
    5.4287   -1.6023    0.1248 H   0  0  0  0  0  0  0  0  0  0  0  0
    7.2450   -2.0148   -3.0679 H   0  0  0  0  0  0  0  0  0  0  0  0
    9.6424   -2.5308   -3.2335 H   0  0  0  0  0  0  0  0  0  0  0  0
   11.0698   -2.4299   -1.2149 H   0  0  0  0  0  0  0  0  0  0  0  0
   10.0596   -1.8410    0.8998 H   0  0  0  0  0  0  0  0  0  0  0  0
    7.6061   -1.3071    1.0831 H   0  0  0  0  0  0  0  0  0  0  0  0
    3.3511   -1.5352   -1.1080 H   0  0  0  0  0  0  0  0  0  0  0  0
    1.6212    0.9152   -0.7318 H   0  0  0  0  0  0  0  0  0  0  0  0
    2.0500    0.6799   -3.0041 H   0  0  0  0  0  0  0  0  0  0  0  0
    0.3244    0.2726   -2.7142 H   0  0  0  0  0  0  0  0  0  0  0  0
    3.5872   -0.8673   -3.8206 H   0  0  0  0  0  0  0  0  0  0  0  0
    4.0554   -3.1019   -4.7507 H   0  0  0  0  0  0  0  0  0  0  0  0
    2.4056   -4.8775   -4.6794 H   0  0  0  0  0  0  0  0  0  0  0  0
    0.1889   -4.4213   -3.6316 H   0  0  0  0  0  0  0  0  0  0  0  0
   -0.3336   -2.2729   -2.6962 H   0  0  0  0  0  0  0  0  0  0  0  0
   -0.7117    0.5203   -0.4495 H   0  0  0  0  0  0  0  0  0  0  0  0
   -1.5595   -2.2623    0.1243 H   0  0  0  0  0  0  0  0  0  0  0  0
   -2.0762   -0.0396    2.1391 H   0  0  0  0  0  0  0  0  0  0  0  0
   -2.8819   -1.6285    2.0280 H   0  0  0  0  0  0  0  0  0  0  0  0
   -1.8072   -3.6571    2.2369 H   0  0  0  0  0  0  0  0  0  0  0  0
   -0.2434   -4.9866    3.5413 H   0  0  0  0  0  0  0  0  0  0  0  0
    1.6449   -3.8881    4.6810 H   0  0  0  0  0  0  0  0  0  0  0  0
    1.9362   -1.4129    4.4923 H   0  0  0  0  0  0  0  0  0  0  0  0
    0.3046   -0.0883    3.1489 H   0  0  0  0  0  0  0  0  0  0  0  0
   -4.5038   -1.7924    0.4328 H   0  0  0  0  0  0  0  0  0  0  0  0
   -4.7794    0.3119   -1.7010 H   0  0  0  0  0  0  0  0  0  0  0  0
   -6.2925   -1.1022   -3.0160 H   0  0  0  0  0  0  0  0  0  0  0  0
   -4.5925   -1.6419   -2.9782 H   0  0  0  0  0  0  0  0  0  0  0  0
   -3.9934   -3.7275   -1.8324 H   0  0  0  0  0  0  0  0  0  0  0  0
   -4.7724   -5.9385   -1.0256 H   0  0  0  0  0  0  0  0  0  0  0  0
   -7.1403   -6.3583   -0.6017 H   0  0  0  0  0  0  0  0  0  0  0  0
   -8.7458   -4.5293   -1.0357 H   0  0  0  0  0  0  0  0  0  0  0  0
   -7.9787   -2.3387   -1.8402 H   0  0  0  0  0  0  0  0  0  0  0  0
   -6.6759    1.5381   -1.8556 H   0  0  0  0  0  0  0  0  0  0  0  0
   -9.0858    0.6211   -0.4274 H   0  0  0  0  0  0  0  0  0  0  0  0
   -9.3612    2.6175    0.9743 H   0  0  0  0  0  0  0  0  0  0  0  0
   -8.1148    1.4029    1.5127 H   0  0  0  0  0  0  0  0  0  0  0  0
   -5.8904    1.9773    1.5624 H   0  0  0  0  0  0  0  0  0  0  0  0
   -4.1559    3.7533    1.7840 H   0  0  0  0  0  0  0  0  0  0  0  0
   -3.8674    6.4615    0.4094 H   0  0  0  0  0  0  0  0  0  0  0  0
   -6.8994    6.6178    0.4117 H   0  0  0  0  0  0  0  0  0  0  0  0
   -8.6490    4.8765    0.1644 H   0  0  0  0  0  0  0  0  0  0  0  0
  -11.1361    2.2210   -1.7973 H   0  0  0  0  0  0  0  0  0  0  0  0
  -10.6892    3.8083   -1.0421 H   0  0  0  0  0  0  0  0  0  0  0  0
  1  2  1  0
  2  3  2  0
  2  4  2  0
  2  5  1  0
  5  6  2  0
  6  7  1  0
  7  8  2  0
  8  9  1  0
  9 10  2  0
  8 11  1  0
 11 12  2  0
 11 13  1  0
 13 14  1  0
 14 15  1  0
 15 16  1  0
 16 17  2  0
 17 18  1  0
 18 19  2  0
 19 20  1  0
 20 21  2  0
 14 22  1  0
 22 23  2  0
 22 24  1  0
 24 25  1  0
 25 26  1  0
 26 27  1  0
 27 28  2  0
 28 29  1  0
 29 30  2  0
 30 31  1  0
 31 32  2  0
 25 33  1  0
 33 34  2  0
 33 35  1  0
 35 36  1  0
 36 37  1  0
 37 38  1  0
 38 39  2  0
 39 40  1  0
 40 41  2  0
 41 42  1  0
 42 43  2  0
 36 44  1  0
 44 45  2  0
 44 46  1  0
 46 47  1  0
 47 48  1  0
 48 49  1  0
 49 50  2  0
 50 51  1  0
 51 52  2  0
 52 53  1  0
 53 54  2  0
 47 55  1  0
 55 56  2  0
 55 57  1  0
 57 58  1  0
 58 59  1  0
 59 60  1  0
 60 61  2  0
 61 62  1  0
 62 63  2  0
 63 64  1  0
 63 65  1  0
 65 66  2  0
 58 67  1  0
 67 68  1  0
 67 69  2  0
 10  5  1  0
 21 16  1  0
 32 27  1  0
 43 38  1  0
 54 49  1  0
 66 60  1  0
  1 70  1  0
  1 71  1  0
  6 72  1  0
  7 73  1  0
  9 74  1  0
 10 75  1  0
 13 76  1  0
 14 77  1  6
 15 78  1  0
 15 79  1  0
 17 80  1  0
 18 81  1  0
 19 82  1  0
 20 83  1  0
 21 84  1  0
 24 85  1  0
 25 86  1  1
 26 87  1  0
 26 88  1  0
 28 89  1  0
 29 90  1  0
 30 91  1  0
 31 92  1  0
 32 93  1  0
 35 94  1  0
 36 95  1  6
 37 96  1  0
 37 97  1  0
 39 98  1  0
 40 99  1  0
 41100  1  0
 42101  1  0
 43102  1  0
 46103  1  0
 47104  1  6
 48105  1  0
 48106  1  0
 50107  1  0
 51108  1  0
 52109  1  0
 53110  1  0
 54111  1  0
 57112  1  0
 58113  1  1
 59114  1  0
 59115  1  0
 61116  1  0
 62117  1  0
 64118  1  0
 65119  1  0
 66120  1  0
 68121  1  0
 68122  1  0
M  END
$$$$
[H]c1nc(N([H])c2c([H])c([H])c(N3C([H])([H])C([H])([H])C([H])(N4C([H])([H])C([H])([H])N(C([H])([H])[H])C([H])([H])C4([H])[H])C([H])([H])C3([H])[H])c([H])c2OC([H])([H])[H])nc(N([H])c2c([H])c([H])c([H])c([H])c2S(=O)(=O)C([H])(C([H])([H])[H])C([H])([H])[H])c1Cl
     RDKit          3D

 82 86  0  0  0  0  0  0  0  0999 V2000
   -0.1870    3.7228   -1.2569 C   0  0  0  0  0  0  0  0  0  0  0  0
    0.4390    2.5297   -0.8437 O   0  0  0  0  0  0  0  0  0  0  0  0
   -0.3483    1.4775   -0.4024 C   0  0  0  0  0  0  0  0  0  0  0  0
   -1.7220    1.6350   -0.3827 C   0  0  0  0  0  0  0  0  0  0  0  0
   -2.5624    0.6308    0.0436 C   0  0  0  0  0  0  0  0  0  0  0  0
   -1.9599   -0.5357    0.4478 C   0  0  0  0  0  0  0  0  0  0  0  0
   -0.5748   -0.7280    0.4408 C   0  0  0  0  0  0  0  0  0  0  0  0
    0.2576    0.2764    0.0150 C   0  0  0  0  0  0  0  0  0  0  0  0
    1.6540    0.2011   -0.0367 N   0  0  0  0  0  0  0  0  0  0  0  0
    2.4984   -0.8842    0.3177 C   0  0  0  0  0  0  0  0  0  0  0  0
    2.1033   -2.0726    0.7812 N   0  0  0  0  0  0  0  0  0  0  0  0
    2.9559   -3.0558    1.0957 C   0  0  0  0  0  0  0  0  0  0  0  0
    4.3092   -2.8632    0.9451 C   0  0  0  0  0  0  0  0  0  0  0  0
    5.4455   -4.1449    1.3534 Cl  0  0  0  0  0  0  0  0  0  0  0  0
    4.7527   -1.6166    0.4572 C   0  0  0  0  0  0  0  0  0  0  0  0
    6.1380   -1.4466    0.3110 N   0  0  0  0  0  0  0  0  0  0  0  0
    6.9009   -0.3576   -0.1368 C   0  0  0  0  0  0  0  0  0  0  0  0
    6.2766    0.8084   -0.5266 C   0  0  0  0  0  0  0  0  0  0  0  0
    7.0240    1.9039   -0.9778 C   0  0  0  0  0  0  0  0  0  0  0  0
    8.3820    1.8034   -1.0274 C   0  0  0  0  0  0  0  0  0  0  0  0
    9.0024    0.6381   -0.6374 C   0  0  0  0  0  0  0  0  0  0  0  0
    8.2961   -0.4485   -0.1920 C   0  0  0  0  0  0  0  0  0  0  0  0
    9.0842   -1.8926    0.2913 S   0  0  0  0  0  0  0  0  0  0  0  0
    8.6633   -3.0312   -0.6035 O   0  0  0  0  0  0  0  0  0  0  0  0
    8.8235   -2.3045    1.7132 O   0  0  0  0  0  0  0  0  0  0  0  0
   10.8572   -1.7881    0.1370 C   0  0  0  0  0  0  0  0  0  0  0  0
   11.2609   -1.6791   -1.2975 C   0  0  0  0  0  0  0  0  0  0  0  0
   11.4760   -0.7869    1.0544 C   0  0  0  0  0  0  0  0  0  0  0  0
    3.8248   -0.7008    0.1721 N   0  0  0  0  0  0  0  0  0  0  0  0
   -3.9818    0.8060    0.0512 N   0  0  0  0  0  0  0  0  0  0  0  0
   -4.5241    1.9609   -0.5784 C   0  0  0  0  0  0  0  0  0  0  0  0
   -6.0011    1.9283   -0.8544 C   0  0  0  0  0  0  0  0  0  0  0  0
   -6.8245    1.3726    0.2584 C   0  0  0  0  0  0  0  0  0  0  0  0
   -6.0036    0.6088    1.2781 C   0  0  0  0  0  0  0  0  0  0  0  0
   -4.8657   -0.1463    0.6796 C   0  0  0  0  0  0  0  0  0  0  0  0
   -7.9560    0.6086   -0.0875 N   0  0  0  0  0  0  0  0  0  0  0  0
   -7.7905   -0.5856   -0.8057 C   0  0  0  0  0  0  0  0  0  0  0  0
   -9.1362   -1.0235   -1.3907 C   0  0  0  0  0  0  0  0  0  0  0  0
  -10.1390   -0.8718   -0.3544 N   0  0  0  0  0  0  0  0  0  0  0  0
  -10.0361   -1.8235    0.7053 C   0  0  0  0  0  0  0  0  0  0  0  0
  -10.3349    0.4834    0.0484 C   0  0  0  0  0  0  0  0  0  0  0  0
   -9.1475    1.3193   -0.4248 C   0  0  0  0  0  0  0  0  0  0  0  0
    0.5375    4.4499   -1.6799 H   0  0  0  0  0  0  0  0  0  0  0  0
   -0.9481    3.5330   -2.0530 H   0  0  0  0  0  0  0  0  0  0  0  0
   -0.6880    4.2523   -0.4156 H   0  0  0  0  0  0  0  0  0  0  0  0
   -2.1476    2.5764   -0.7105 H   0  0  0  0  0  0  0  0  0  0  0  0
   -2.6020   -1.3517    0.7883 H   0  0  0  0  0  0  0  0  0  0  0  0
   -0.2121   -1.6859    0.7807 H   0  0  0  0  0  0  0  0  0  0  0  0
    2.1500    1.0935   -0.3956 H   0  0  0  0  0  0  0  0  0  0  0  0
    2.6174   -4.0222    1.4737 H   0  0  0  0  0  0  0  0  0  0  0  0
    6.7215   -2.3022    0.5911 H   0  0  0  0  0  0  0  0  0  0  0  0
    5.2202    0.9989   -0.5296 H   0  0  0  0  0  0  0  0  0  0  0  0
    6.5603    2.8305   -1.2896 H   0  0  0  0  0  0  0  0  0  0  0  0
    9.0220    2.6252   -1.3712 H   0  0  0  0  0  0  0  0  0  0  0  0
   10.0936    0.6299   -0.7052 H   0  0  0  0  0  0  0  0  0  0  0  0
   11.2252   -2.8031    0.4806 H   0  0  0  0  0  0  0  0  0  0  0  0
   11.9033   -0.7785   -1.4926 H   0  0  0  0  0  0  0  0  0  0  0  0
   10.3307   -1.5514   -1.9199 H   0  0  0  0  0  0  0  0  0  0  0  0
   11.7765   -2.5763   -1.6995 H   0  0  0  0  0  0  0  0  0  0  0  0
   12.0225   -1.2557    1.8769 H   0  0  0  0  0  0  0  0  0  0  0  0
   12.1781   -0.1622    0.4319 H   0  0  0  0  0  0  0  0  0  0  0  0
   10.7434   -0.0899    1.5079 H   0  0  0  0  0  0  0  0  0  0  0  0
   -4.2803    2.8410    0.0525 H   0  0  0  0  0  0  0  0  0  0  0  0
   -3.9354    2.1199   -1.5269 H   0  0  0  0  0  0  0  0  0  0  0  0
   -6.3084    2.9635   -1.1164 H   0  0  0  0  0  0  0  0  0  0  0  0
   -6.1470    1.3325   -1.7818 H   0  0  0  0  0  0  0  0  0  0  0  0
   -7.2139    2.2642    0.8421 H   0  0  0  0  0  0  0  0  0  0  0  0
   -6.6586   -0.1075    1.8153 H   0  0  0  0  0  0  0  0  0  0  0  0
   -5.5929    1.2907    2.0626 H   0  0  0  0  0  0  0  0  0  0  0  0
   -5.1731   -0.8869   -0.0780 H   0  0  0  0  0  0  0  0  0  0  0  0
   -4.3121   -0.6097    1.5260 H   0  0  0  0  0  0  0  0  0  0  0  0
   -7.5080   -1.4012   -0.0997 H   0  0  0  0  0  0  0  0  0  0  0  0
   -7.0082   -0.5774   -1.5870 H   0  0  0  0  0  0  0  0  0  0  0  0
   -9.4445   -0.3742   -2.2343 H   0  0  0  0  0  0  0  0  0  0  0  0
   -9.0261   -2.0597   -1.7202 H   0  0  0  0  0  0  0  0  0  0  0  0
   -9.1822   -2.5377    0.5321 H   0  0  0  0  0  0  0  0  0  0  0  0
   -9.9814   -1.3564    1.7041 H   0  0  0  0  0  0  0  0  0  0  0  0
  -10.9456   -2.4645    0.6802 H   0  0  0  0  0  0  0  0  0  0  0  0
  -11.2261    0.8855   -0.4545 H   0  0  0  0  0  0  0  0  0  0  0  0
  -10.4517    0.5517    1.1515 H   0  0  0  0  0  0  0  0  0  0  0  0
   -9.2778    1.5186   -1.4917 H   0  0  0  0  0  0  0  0  0  0  0  0
   -9.1611    2.2698    0.1783 H   0  0  0  0  0  0  0  0  0  0  0  0
  1  2  1  0
  2  3  1  0
  3  4  2  0
  4  5  1  0
  5  6  2  0
  6  7  1  0
  7  8  2  0
  8  9  1  0
  9 10  1  0
 10 11  2  0
 11 12  1  0
 12 13  2  0
 13 14  1  0
 13 15  1  0
 15 16  1  0
 16 17  1  0
 17 18  2  0
 18 19  1  0
 19 20  2  0
 20 21  1  0
 21 22  2  0
 22 23  1  0
 23 24  2  0
 23 25  2  0
 23 26  1  0
 26 27  1  0
 26 28  1  0
 15 29  2  0
  5 30  1  0
 30 31  1  0
 31 32  1  0
 32 33  1  0
 33 34  1  0
 34 35  1  0
 33 36  1  0
 36 37  1  0
 37 38  1  0
 38 39  1  0
 39 40  1  0
 39 41  1  0
 41 42  1  0
  8  3  1  0
 29 10  1  0
 35 30  1  0
 42 36  1  0
 22 17  1  0
  1 43  1  0
  1 44  1  0
  1 45  1  0
  4 46  1  0
  6 47  1  0
  7 48  1  0
  9 49  1  0
 12 50  1  0
 16 51  1  0
 18 52  1  0
 19 53  1  0
 20 54  1  0
 21 55  1  0
 26 56  1  0
 27 57  1  0
 27 58  1  0
 27 59  1  0
 28 60  1  0
 28 61  1  0
 28 62  1  0
 31 63  1  0
 31 64  1  0
 32 65  1  0
 32 66  1  0
 33 67  1  0
 34 68  1  0
 34 69  1  0
 35 70  1  0
 35 71  1  0
 37 72  1  0
 37 73  1  0
 38 74  1  0
 38 75  1  0
 40 76  1  0
 40 77  1  0
 40 78  1  0
 41 79  1  0
 41 80  1  0
 42 81  1  0
 42 82  1  0
M  END
$$$$
[H]N=C(N([H])[H])N([H])C([H])([H])C([H])([H])C([H])([H])[C@@]([H])(C(=O)N([H])[C@]([H])(C(=O)c1nc([H])c([H])s1)C([H])([H])C([H])([H])C(=O)N([H])[H])N([H])C(=O)[C@@]1([H])N(C(=O)[C@]([H])(N([H])C(=O)OC([H])([H])c2c([H])c([H])c([H])c([H])c2[H])C([H])([H])c2c([H])c([H])c([H])c([H])c2[H])C([H])([H])C([H])([H])C1([H])[H]
     RDKit          3D

 98101  0  0  0  0  0  0  0  0999 V2000
    3.2750    4.1717   -1.7792 N   0  0  0  0  0  0  0  0  0  0  0  0
    2.9328    4.4890   -0.4497 C   0  0  0  0  0  0  0  0  0  0  0  0
    1.7509    4.9739   -0.2557 N   0  0  0  0  0  0  0  0  0  0  0  0
    3.8257    4.2987    0.6148 N   0  0  0  0  0  0  0  0  0  0  0  0
    3.6500    3.7660    1.8943 C   0  0  0  0  0  0  0  0  0  0  0  0
    3.4629    2.3490    2.1649 C   0  0  0  0  0  0  0  0  0  0  0  0
    2.4055    1.4712    1.7392 C   0  0  0  0  0  0  0  0  0  0  0  0
    2.1136    1.0752    0.3826 C   0  0  2  0  0  0  0  0  0  0  0  0
    0.9168    0.1430    0.3796 N   0  0  0  0  0  0  0  0  0  0  0  0
    0.9882   -1.1575    0.8503 C   0  0  0  0  0  0  0  0  0  0  0  0
    2.2160   -1.4797    1.2900 O   0  0  0  0  0  0  0  0  0  0  0  0
    0.0390   -2.1980    0.9547 C   0  0  2  0  0  0  0  0  0  0  0  0
    0.3924   -3.2196   -0.2015 C   0  0  0  0  0  0  0  0  0  0  0  0
   -0.7209   -4.1999   -0.1837 C   0  0  0  0  0  0  0  0  0  0  0  0
   -1.5289   -3.7748    1.0521 C   0  0  0  0  0  0  0  0  0  0  0  0
   -1.3384   -2.2574    0.9079 N   0  0  0  0  0  0  0  0  0  0  0  0
   -2.5059   -1.4738    0.7600 C   0  0  0  0  0  0  0  0  0  0  0  0
   -2.4453   -0.2699    0.5211 O   0  0  0  0  0  0  0  0  0  0  0  0
   -3.8271   -2.1009    0.8939 C   0  0  1  0  0  0  0  0  0  0  0  0
   -4.1556   -2.3717    2.3722 C   0  0  0  0  0  0  0  0  0  0  0  0
   -4.2346   -1.1558    3.1839 C   0  0  0  0  0  0  0  0  0  0  0  0
   -5.4677   -0.6115    3.4143 C   0  0  0  0  0  0  0  0  0  0  0  0
   -5.6220    0.5207    4.1634 C   0  0  0  0  0  0  0  0  0  0  0  0
   -4.5079    1.1484    4.7124 C   0  0  0  0  0  0  0  0  0  0  0  0
   -3.2770    0.5827    4.4661 C   0  0  0  0  0  0  0  0  0  0  0  0
   -3.1307   -0.5606    3.7088 C   0  0  0  0  0  0  0  0  0  0  0  0
   -4.9329   -1.1935    0.4549 N   0  0  0  0  0  0  0  0  0  0  0  0
   -5.9673   -1.7477   -0.3285 C   0  0  0  0  0  0  0  0  0  0  0  0
   -5.9808   -2.9237   -0.6652 O   0  0  0  0  0  0  0  0  0  0  0  0
   -7.0292   -0.9221   -0.7376 O   0  0  0  0  0  0  0  0  0  0  0  0
   -8.0694   -1.5227   -1.5223 C   0  0  0  0  0  0  0  0  0  0  0  0
   -9.0863   -0.5375   -1.8097 C   0  0  0  0  0  0  0  0  0  0  0  0
  -10.2580   -0.9365   -2.4461 C   0  0  0  0  0  0  0  0  0  0  0  0
  -11.2847   -0.0413   -2.7333 C   0  0  0  0  0  0  0  0  0  0  0  0
  -11.1214    1.2903   -2.3675 C   0  0  0  0  0  0  0  0  0  0  0  0
   -9.9725    1.7007   -1.7388 C   0  0  0  0  0  0  0  0  0  0  0  0
   -8.9820    0.7815   -1.4746 C   0  0  0  0  0  0  0  0  0  0  0  0
    3.1454    0.5103   -0.4943 C   0  0  0  0  0  0  0  0  0  0  0  0
    2.7762   -0.4952   -1.2410 O   0  0  0  0  0  0  0  0  0  0  0  0
    4.4824    0.9046   -0.6398 N   0  0  0  0  0  0  0  0  0  0  0  0
    5.3699    0.1812   -1.6185 C   0  0  1  0  0  0  0  0  0  0  0  0
    6.2293    1.1371   -2.2938 C   0  0  0  0  0  0  0  0  0  0  0  0
    7.0713    0.6697   -3.4307 C   0  0  0  0  0  0  0  0  0  0  0  0
    7.9195    1.8114   -3.8983 C   0  0  0  0  0  0  0  0  0  0  0  0
    9.0624    1.5336   -4.6660 N   0  0  0  0  0  0  0  0  0  0  0  0
    7.5976    2.9686   -3.6004 O   0  0  0  0  0  0  0  0  0  0  0  0
    6.0517   -0.8428   -0.8096 C   0  0  0  0  0  0  0  0  0  0  0  0
    5.2158   -1.5710   -0.0892 O   0  0  0  0  0  0  0  0  0  0  0  0
    7.4441   -1.2068   -0.6370 C   0  0  0  0  0  0  0  0  0  0  0  0
    8.5947   -0.7551   -1.0537 N   0  0  0  0  0  0  0  0  0  0  0  0
    9.7231   -1.2696   -0.7565 C   0  0  0  0  0  0  0  0  0  0  0  0
    9.6815   -2.3945    0.0766 C   0  0  0  0  0  0  0  0  0  0  0  0
    8.0183   -2.5646    0.3233 S   0  0  0  0  0  0  0  0  0  0  0  0
    4.2574    4.3833   -2.1287 H   0  0  0  0  0  0  0  0  0  0  0  0
    2.6316    3.7422   -2.4543 H   0  0  0  0  0  0  0  0  0  0  0  0
    1.3958    5.2423    0.6876 H   0  0  0  0  0  0  0  0  0  0  0  0
    4.8568    4.6258    0.3966 H   0  0  0  0  0  0  0  0  0  0  0  0
    4.5282    4.1607    2.5588 H   0  0  0  0  0  0  0  0  0  0  0  0
    2.8013    4.3799    2.4430 H   0  0  0  0  0  0  0  0  0  0  0  0
    4.4967    1.8109    2.0419 H   0  0  0  0  0  0  0  0  0  0  0  0
    3.4687    2.2877    3.3598 H   0  0  0  0  0  0  0  0  0  0  0  0
    1.4154    1.9789    2.1162 H   0  0  0  0  0  0  0  0  0  0  0  0
    2.4579    0.5198    2.3941 H   0  0  0  0  0  0  0  0  0  0  0  0
    1.6801    1.9424   -0.2031 H   0  0  0  0  0  0  0  0  0  0  0  0
    0.0700    0.5480    0.0005 H   0  0  0  0  0  0  0  0  0  0  0  0
    0.3173   -2.8796    1.8848 H   0  0  0  0  0  0  0  0  0  0  0  0
    0.4752   -2.6551   -1.1432 H   0  0  0  0  0  0  0  0  0  0  0  0
    1.3353   -3.7197    0.0752 H   0  0  0  0  0  0  0  0  0  0  0  0
   -0.4079   -5.2627   -0.1044 H   0  0  0  0  0  0  0  0  0  0  0  0
   -1.4411   -4.0624   -1.0307 H   0  0  0  0  0  0  0  0  0  0  0  0
   -0.9534   -4.0039    1.9527 H   0  0  0  0  0  0  0  0  0  0  0  0
   -2.5469   -4.0695    0.9895 H   0  0  0  0  0  0  0  0  0  0  0  0
   -3.9849   -3.0232    0.3608 H   0  0  0  0  0  0  0  0  0  0  0  0
   -3.3721   -3.0172    2.8145 H   0  0  0  0  0  0  0  0  0  0  0  0
   -5.0978   -2.9548    2.3622 H   0  0  0  0  0  0  0  0  0  0  0  0
   -6.3826   -1.0500    3.0155 H   0  0  0  0  0  0  0  0  0  0  0  0
   -6.6175    0.9573    4.3498 H   0  0  0  0  0  0  0  0  0  0  0  0
   -4.6134    2.0500    5.3105 H   0  0  0  0  0  0  0  0  0  0  0  0
   -2.4111    1.0893    4.9066 H   0  0  0  0  0  0  0  0  0  0  0  0
   -2.1118   -0.9603    3.5520 H   0  0  0  0  0  0  0  0  0  0  0  0
   -4.9600   -0.1905    0.7033 H   0  0  0  0  0  0  0  0  0  0  0  0
   -8.4390   -2.4257   -0.9859 H   0  0  0  0  0  0  0  0  0  0  0  0
   -7.5933   -1.8855   -2.4722 H   0  0  0  0  0  0  0  0  0  0  0  0
  -10.3864   -1.9670   -2.7267 H   0  0  0  0  0  0  0  0  0  0  0  0
  -12.1830   -0.3852   -3.2293 H   0  0  0  0  0  0  0  0  0  0  0  0
  -11.9327    1.9847   -2.6043 H   0  0  0  0  0  0  0  0  0  0  0  0
   -9.8744    2.7299   -1.4553 H   0  0  0  0  0  0  0  0  0  0  0  0
   -8.0679    1.1443   -0.9706 H   0  0  0  0  0  0  0  0  0  0  0  0
    4.9727    1.6605   -0.1525 H   0  0  0  0  0  0  0  0  0  0  0  0
    4.6874   -0.3897   -2.3157 H   0  0  0  0  0  0  0  0  0  0  0  0
    6.8866    1.6967   -1.5491 H   0  0  0  0  0  0  0  0  0  0  0  0
    5.6101    2.0007   -2.7178 H   0  0  0  0  0  0  0  0  0  0  0  0
    6.2724    0.5602   -4.3152 H   0  0  0  0  0  0  0  0  0  0  0  0
    7.5531   -0.2701   -3.4359 H   0  0  0  0  0  0  0  0  0  0  0  0
    9.9341    1.2201   -4.1449 H   0  0  0  0  0  0  0  0  0  0  0  0
    9.1068    1.6172   -5.6890 H   0  0  0  0  0  0  0  0  0  0  0  0
   10.7125   -0.9087   -1.0998 H   0  0  0  0  0  0  0  0  0  0  0  0
   10.5483   -2.9744    0.4416 H   0  0  0  0  0  0  0  0  0  0  0  0
  1  2  1  0
  2  3  2  3
  2  4  1  0
  4  5  1  0
  5  6  1  0
  6  7  1  0
  7  8  1  0
  8  9  1  0
  9 10  1  0
 10 11  2  0
 10 12  1  0
 12 13  1  0
 13 14  1  0
 14 15  1  0
 15 16  1  0
 16 17  1  0
 17 18  2  0
 17 19  1  0
 19 20  1  0
 20 21  1  0
 21 22  2  0
 22 23  1  0
 23 24  2  0
 24 25  1  0
 25 26  2  0
 19 27  1  0
 27 28  1  0
 28 29  2  0
 28 30  1  0
 30 31  1  0
 31 32  1  0
 32 33  2  0
 33 34  1  0
 34 35  2  0
 35 36  1  0
 36 37  2  0
  8 38  1  0
 38 39  2  0
 38 40  1  0
 40 41  1  0
 41 42  1  0
 42 43  1  0
 43 44  1  0
 44 45  1  0
 44 46  2  0
 41 47  1  0
 47 48  2  0
 47 49  1  0
 49 50  2  0
 50 51  1  0
 51 52  2  0
 52 53  1  0
 16 12  1  0
 26 21  1  0
 37 32  1  0
 53 49  1  0
  1 54  1  0
  1 55  1  0
  3 56  1  0
  4 57  1  0
  5 58  1  0
  5 59  1  0
  6 60  1  0
  6 61  1  0
  7 62  1  0
  7 63  1  0
  8 64  1  6
  9 65  1  0
 12 66  1  1
 13 67  1  0
 13 68  1  0
 14 69  1  0
 14 70  1  0
 15 71  1  0
 15 72  1  0
 19 73  1  6
 20 74  1  0
 20 75  1  0
 22 76  1  0
 23 77  1  0
 24 78  1  0
 25 79  1  0
 26 80  1  0
 27 81  1  0
 31 82  1  0
 31 83  1  0
 33 84  1  0
 34 85  1  0
 35 86  1  0
 36 87  1  0
 37 88  1  0
 40 89  1  0
 41 90  1  6
 42 91  1  0
 42 92  1  0
 43 93  1  0
 43 94  1  0
 45 95  1  0
 45 96  1  0
 51 97  1  0
 52 98  1  0
M  END
$$$$
[H]c1c([H])c(C(=O)N([H])c2sc(N([H])c3c([H])c([H])c4c([H])c([H])n([H])c4c3[H])nc2C(=O)N([H])[H])c([H])c([H])c1F
     RDKit          3D

 42 45  0  0  0  0  0  0  0  0999 V2000
    1.4254   -4.5388   -0.8387 N   0  0  0  0  0  0  0  0  0  0  0  0
    1.8613   -3.1924   -0.9220 C   0  0  0  0  0  0  0  0  0  0  0  0
    3.0017   -2.9927   -1.3205 O   0  0  0  0  0  0  0  0  0  0  0  0
    0.9292   -2.0997   -0.5262 C   0  0  0  0  0  0  0  0  0  0  0  0
   -0.3436   -2.3887   -0.4865 N   0  0  0  0  0  0  0  0  0  0  0  0
   -1.2649   -1.4501   -0.3592 C   0  0  0  0  0  0  0  0  0  0  0  0
   -2.6729   -1.6482   -0.2767 N   0  0  0  0  0  0  0  0  0  0  0  0
   -3.5811   -0.5772   -0.1965 C   0  0  0  0  0  0  0  0  0  0  0  0
   -3.3525    0.6715   -0.6966 C   0  0  0  0  0  0  0  0  0  0  0  0
   -4.2752    1.7042   -0.5644 C   0  0  0  0  0  0  0  0  0  0  0  0
   -5.4711    1.5075    0.0827 C   0  0  0  0  0  0  0  0  0  0  0  0
   -6.5725    2.2813    0.3826 C   0  0  0  0  0  0  0  0  0  0  0  0
   -7.4607    1.4779    1.0667 C   0  0  0  0  0  0  0  0  0  0  0  0
   -6.9151    0.2617    1.1763 N   0  0  0  0  0  0  0  0  0  0  0  0
   -5.6966    0.2341    0.5879 C   0  0  0  0  0  0  0  0  0  0  0  0
   -4.7980   -0.7790    0.4619 C   0  0  0  0  0  0  0  0  0  0  0  0
   -0.3136   -0.0584   -0.2860 S   0  0  0  0  0  0  0  0  0  0  0  0
    1.2959   -0.8018   -0.4243 C   0  0  0  0  0  0  0  0  0  0  0  0
    2.4783   -0.0585   -0.2132 N   0  0  0  0  0  0  0  0  0  0  0  0
    3.6920   -0.3479    0.3705 C   0  0  0  0  0  0  0  0  0  0  0  0
    3.9759   -1.4431    0.9096 O   0  0  0  0  0  0  0  0  0  0  0  0
    4.7887    0.6754    0.3936 C   0  0  0  0  0  0  0  0  0  0  0  0
    4.5427    2.0079    0.1991 C   0  0  0  0  0  0  0  0  0  0  0  0
    5.5842    2.9429    0.2166 C   0  0  0  0  0  0  0  0  0  0  0  0
    6.8768    2.5360    0.4305 C   0  0  0  0  0  0  0  0  0  0  0  0
    7.8653    3.4618    0.4423 F   0  0  0  0  0  0  0  0  0  0  0  0
    7.0950    1.1965    0.6224 C   0  0  0  0  0  0  0  0  0  0  0  0
    6.0814    0.2705    0.6073 C   0  0  0  0  0  0  0  0  0  0  0  0
    0.4123   -4.7209   -1.0673 H   0  0  0  0  0  0  0  0  0  0  0  0
    2.0431   -5.3162   -0.5722 H   0  0  0  0  0  0  0  0  0  0  0  0
   -3.0346   -2.6229   -0.2762 H   0  0  0  0  0  0  0  0  0  0  0  0
   -2.4444    0.9230   -1.2464 H   0  0  0  0  0  0  0  0  0  0  0  0
   -4.0887    2.6928   -0.9622 H   0  0  0  0  0  0  0  0  0  0  0  0
   -6.7132    3.3160    0.1308 H   0  0  0  0  0  0  0  0  0  0  0  0
   -8.4406    1.7504    1.4624 H   0  0  0  0  0  0  0  0  0  0  0  0
   -7.3301   -0.5953    1.6452 H   0  0  0  0  0  0  0  0  0  0  0  0
   -4.9645   -1.7756    0.8523 H   0  0  0  0  0  0  0  0  0  0  0  0
    2.3915    0.9574   -0.6211 H   0  0  0  0  0  0  0  0  0  0  0  0
    3.5612    2.3988    0.0317 H   0  0  0  0  0  0  0  0  0  0  0  0
    5.3517    3.9993    0.0575 H   0  0  0  0  0  0  0  0  0  0  0  0
    8.1374    0.9090    0.7900 H   0  0  0  0  0  0  0  0  0  0  0  0
    6.3431   -0.7684    0.7679 H   0  0  0  0  0  0  0  0  0  0  0  0
  1  2  1  0
  2  3  2  0
  2  4  1  0
  4  5  1  0
  5  6  2  0
  6  7  1  0
  7  8  1  0
  8  9  2  0
  9 10  1  0
 10 11  2  0
 11 12  1  0
 12 13  2  0
 13 14  1  0
 14 15  1  0
 15 16  2  0
  6 17  1  0
 17 18  1  0
 18 19  1  0
 19 20  1  0
 20 21  2  0
 20 22  1  0
 22 23  2  0
 23 24  1  0
 24 25  2  0
 25 26  1  0
 25 27  1  0
 27 28  2  0
 18  4  2  0
 28 22  1  0
 16  8  1  0
 15 11  1  0
  1 29  1  0
  1 30  1  0
  7 31  1  0
  9 32  1  0
 10 33  1  0
 12 34  1  0
 13 35  1  0
 14 36  1  0
 16 37  1  0
 19 38  1  0
 23 39  1  0
 24 40  1  0
 27 41  1  0
 28 42  1  0
M  END
$$$$
[H]c1c([H])c([H])c(C([H])([H])[C@@]2([H])C(=O)N([H])[C@@]([H])(C([H])(C([H])([H])[H])C([H])([H])[H])C(=O)N([H])[C@@]([H])(C([H])([H])c3c([H])n([H])c4c([H])c([H])c([H])c([H])c34)C(=O)N3C([H])([H])C([H])([H])C([H])([H])[C@@]3([H])C(=O)N([H])[C@@]([H])(C([H])([H])c3c([H])c([H])c([H])c([H])c3[H])C(=O)N([H])[C@]([H])(C([H])([H])c3c([H])n([H])c4c([H])c([H])c([H])c([H])c34)C(=O)N2[H])c([H])c1[H]
     RDKit          3D

118125  0  0  0  0  0  0  0  0999 V2000
    2.9527   -3.9946    2.1422 C   0  0  0  0  0  0  0  0  0  0  0  0
    2.6436   -3.5762    0.7145 C   0  0  0  0  0  0  0  0  0  0  0  0
    3.9532   -3.6156   -0.0327 C   0  0  0  0  0  0  0  0  0  0  0  0
    2.1970   -2.1239    0.8058 C   0  0  2  0  0  0  0  0  0  0  0  0
    1.0515   -1.9502    1.6241 N   0  0  0  0  0  0  0  0  0  0  0  0
   -0.3242   -1.9461    1.4734 C   0  0  0  0  0  0  0  0  0  0  0  0
   -0.8882   -0.9121    2.0468 O   0  0  0  0  0  0  0  0  0  0  0  0
   -1.3117   -2.8166    0.8364 C   0  0  2  0  0  0  0  0  0  0  0  0
   -1.0579   -3.3186   -0.5235 C   0  0  0  0  0  0  0  0  0  0  0  0
   -2.1639   -4.1926   -0.9866 C   0  0  0  0  0  0  0  0  0  0  0  0
   -3.1994   -3.8041   -1.7886 C   0  0  0  0  0  0  0  0  0  0  0  0
   -4.1917   -4.6881   -2.1618 C   0  0  0  0  0  0  0  0  0  0  0  0
   -4.1968   -5.9995   -1.7529 C   0  0  0  0  0  0  0  0  0  0  0  0
   -3.1630   -6.4148   -0.9438 C   0  0  0  0  0  0  0  0  0  0  0  0
   -2.1808   -5.5303   -0.5773 C   0  0  0  0  0  0  0  0  0  0  0  0
   -2.6789   -2.3172    0.8991 N   0  0  0  0  0  0  0  0  0  0  0  0
   -3.2168   -1.0526    1.0430 C   0  0  0  0  0  0  0  0  0  0  0  0
   -3.7990   -0.8134    2.1858 O   0  0  0  0  0  0  0  0  0  0  0  0
   -3.2699    0.1096    0.1451 C   0  0  1  0  0  0  0  0  0  0  0  0
   -4.4767    0.0809   -0.7887 C   0  0  0  0  0  0  0  0  0  0  0  0
   -5.7874    0.0899   -0.2096 C   0  0  0  0  0  0  0  0  0  0  0  0
   -6.5483    1.2445    0.0284 C   0  0  0  0  0  0  0  0  0  0  0  0
   -7.7148    0.9298    0.6139 N   0  0  0  0  0  0  0  0  0  0  0  0
   -7.7411   -0.4058    0.7661 C   0  0  0  0  0  0  0  0  0  0  0  0
   -8.7060   -1.2348    1.2923 C   0  0  0  0  0  0  0  0  0  0  0  0
   -8.5519   -2.6145    1.3424 C   0  0  0  0  0  0  0  0  0  0  0  0
   -7.3863   -3.1541    0.8432 C   0  0  0  0  0  0  0  0  0  0  0  0
   -6.4374   -2.3146    0.3244 C   0  0  0  0  0  0  0  0  0  0  0  0
   -6.5722   -0.9230    0.2664 C   0  0  0  0  0  0  0  0  0  0  0  0
   -3.3242    1.3520    0.8780 N   0  0  0  0  0  0  0  0  0  0  0  0
   -2.3786    2.3303    1.1507 C   0  0  0  0  0  0  0  0  0  0  0  0
   -2.4876    2.9187    2.3208 O   0  0  0  0  0  0  0  0  0  0  0  0
   -1.2515    2.8391    0.3529 C   0  0  2  0  0  0  0  0  0  0  0  0
   -1.6407    3.2347   -1.0445 C   0  0  0  0  0  0  0  0  0  0  0  0
   -2.6292    4.3416   -1.0798 C   0  0  0  0  0  0  0  0  0  0  0  0
   -2.1973    5.6791   -1.0213 C   0  0  0  0  0  0  0  0  0  0  0  0
   -3.0385    6.7430   -1.0633 C   0  0  0  0  0  0  0  0  0  0  0  0
   -4.4112    6.5238   -1.1704 C   0  0  0  0  0  0  0  0  0  0  0  0
   -4.8873    5.2334   -1.2320 C   0  0  0  0  0  0  0  0  0  0  0  0
   -3.9907    4.1869   -1.1855 C   0  0  0  0  0  0  0  0  0  0  0  0
   -0.1164    1.9831    0.4709 N   0  0  0  0  0  0  0  0  0  0  0  0
    1.1143    2.2216    1.1450 C   0  0  0  0  0  0  0  0  0  0  0  0
    1.4226    1.5098    2.1853 O   0  0  0  0  0  0  0  0  0  0  0  0
    2.1179    3.1966    0.8136 C   0  0  2  0  0  0  0  0  0  0  0  0
    2.1115    3.8215   -0.5387 C   0  0  0  0  0  0  0  0  0  0  0  0
    3.4429    4.5964   -0.4997 C   0  0  0  0  0  0  0  0  0  0  0  0
    4.0726    4.1729    0.8323 C   0  0  0  0  0  0  0  0  0  0  0  0
    3.5134    2.7907    0.8841 N   0  0  0  0  0  0  0  0  0  0  0  0
    4.0813    1.5298    0.9735 C   0  0  0  0  0  0  0  0  0  0  0  0
    4.7052    1.3301    2.0953 O   0  0  0  0  0  0  0  0  0  0  0  0
    4.1151    0.3869    0.0487 C   0  0  2  0  0  0  0  0  0  0  0  0
    5.0581    0.6975   -1.1417 C   0  0  0  0  0  0  0  0  0  0  0  0
    6.4306    0.9606   -0.7322 C   0  0  0  0  0  0  0  0  0  0  0  0
    7.0432    2.2156   -0.6465 C   0  0  0  0  0  0  0  0  0  0  0  0
    8.3128    2.0608   -0.2286 N   0  0  0  0  0  0  0  0  0  0  0  0
    8.5289    0.7631   -0.0471 C   0  0  0  0  0  0  0  0  0  0  0  0
    9.6647    0.1068    0.3691 C   0  0  0  0  0  0  0  0  0  0  0  0
    9.6178   -1.2629    0.4700 C   0  0  0  0  0  0  0  0  0  0  0  0
    8.4908   -1.9688    0.1716 C   0  0  0  0  0  0  0  0  0  0  0  0
    7.3542   -1.3320   -0.2429 C   0  0  0  0  0  0  0  0  0  0  0  0
    7.3742    0.0553   -0.3534 C   0  0  0  0  0  0  0  0  0  0  0  0
    2.9098   -0.0462   -0.5510 N   0  0  0  0  0  0  0  0  0  0  0  0
    2.3326   -1.3734   -0.4467 C   0  0  0  0  0  0  0  0  0  0  0  0
    1.9180   -1.9225   -1.5297 O   0  0  0  0  0  0  0  0  0  0  0  0
    2.0602   -4.3793    2.6731 H   0  0  0  0  0  0  0  0  0  0  0  0
    3.7431   -4.7714    2.1160 H   0  0  0  0  0  0  0  0  0  0  0  0
    3.3282   -3.1192    2.7290 H   0  0  0  0  0  0  0  0  0  0  0  0
    1.9670   -4.2430    0.2079 H   0  0  0  0  0  0  0  0  0  0  0  0
    4.7604   -3.3379    0.7083 H   0  0  0  0  0  0  0  0  0  0  0  0
    4.2083   -4.6384   -0.3787 H   0  0  0  0  0  0  0  0  0  0  0  0
    4.0472   -2.8599   -0.8293 H   0  0  0  0  0  0  0  0  0  0  0  0
    3.1196   -1.6975    1.3988 H   0  0  0  0  0  0  0  0  0  0  0  0
    1.3658   -1.7744    2.6938 H   0  0  0  0  0  0  0  0  0  0  0  0
   -1.3563   -3.8111    1.4533 H   0  0  0  0  0  0  0  0  0  0  0  0
   -0.1422   -3.9289   -0.6561 H   0  0  0  0  0  0  0  0  0  0  0  0
   -0.9745   -2.5275   -1.3036 H   0  0  0  0  0  0  0  0  0  0  0  0
   -3.1980   -2.7771   -2.1245 H   0  0  0  0  0  0  0  0  0  0  0  0
   -4.9916   -4.3114   -2.8046 H   0  0  0  0  0  0  0  0  0  0  0  0
   -4.9924   -6.6713   -2.0639 H   0  0  0  0  0  0  0  0  0  0  0  0
   -3.1555   -7.4486   -0.6147 H   0  0  0  0  0  0  0  0  0  0  0  0
   -1.3743   -5.8901    0.0645 H   0  0  0  0  0  0  0  0  0  0  0  0
   -3.4246   -3.1025    0.8315 H   0  0  0  0  0  0  0  0  0  0  0  0
   -2.3927    0.1854   -0.5275 H   0  0  0  0  0  0  0  0  0  0  0  0
   -4.3793    0.8991   -1.5618 H   0  0  0  0  0  0  0  0  0  0  0  0
   -4.2824   -0.8461   -1.4283 H   0  0  0  0  0  0  0  0  0  0  0  0
   -6.2854    2.2726   -0.2053 H   0  0  0  0  0  0  0  0  0  0  0  0
   -8.4703    1.5898    0.9029 H   0  0  0  0  0  0  0  0  0  0  0  0
   -9.6341   -0.8068    1.6906 H   0  0  0  0  0  0  0  0  0  0  0  0
   -9.3125   -3.2678    1.7596 H   0  0  0  0  0  0  0  0  0  0  0  0
   -7.1901   -4.2363    0.8464 H   0  0  0  0  0  0  0  0  0  0  0  0
   -5.5370   -2.7514   -0.0798 H   0  0  0  0  0  0  0  0  0  0  0  0
   -4.2978    1.5362    1.2958 H   0  0  0  0  0  0  0  0  0  0  0  0
   -0.9671    3.8918    0.7906 H   0  0  0  0  0  0  0  0  0  0  0  0
   -0.7804    3.4126   -1.7015 H   0  0  0  0  0  0  0  0  0  0  0  0
   -2.1793    2.3621   -1.5268 H   0  0  0  0  0  0  0  0  0  0  0  0
   -1.1267    5.8099   -0.9377 H   0  0  0  0  0  0  0  0  0  0  0  0
   -2.6328    7.7445   -1.0134 H   0  0  0  0  0  0  0  0  0  0  0  0
   -5.0726    7.3851   -1.2045 H   0  0  0  0  0  0  0  0  0  0  0  0
   -5.9546    5.0968   -1.3152 H   0  0  0  0  0  0  0  0  0  0  0  0
   -4.4111    3.2046   -1.2465 H   0  0  0  0  0  0  0  0  0  0  0  0
   -0.1850    1.0230    0.0131 H   0  0  0  0  0  0  0  0  0  0  0  0
    1.9637    4.0633    1.5426 H   0  0  0  0  0  0  0  0  0  0  0  0
    1.3190    4.5902   -0.5669 H   0  0  0  0  0  0  0  0  0  0  0  0
    2.0934    3.1184   -1.3781 H   0  0  0  0  0  0  0  0  0  0  0  0
    3.2961    5.6727   -0.5534 H   0  0  0  0  0  0  0  0  0  0  0  0
    4.0729    4.2726   -1.3588 H   0  0  0  0  0  0  0  0  0  0  0  0
    5.1347    4.2457    0.8793 H   0  0  0  0  0  0  0  0  0  0  0  0
    3.5597    4.7515    1.6269 H   0  0  0  0  0  0  0  0  0  0  0  0
    4.6327   -0.4769    0.5341 H   0  0  0  0  0  0  0  0  0  0  0  0
    4.5993    1.5553   -1.7003 H   0  0  0  0  0  0  0  0  0  0  0  0
    4.9548   -0.1822   -1.8170 H   0  0  0  0  0  0  0  0  0  0  0  0
    6.5234    3.1236   -0.8902 H   0  0  0  0  0  0  0  0  0  0  0  0
    8.9750    2.8633   -0.0876 H   0  0  0  0  0  0  0  0  0  0  0  0
   10.5689    0.6774    0.6079 H   0  0  0  0  0  0  0  0  0  0  0  0
   10.4971   -1.7792    0.7938 H   0  0  0  0  0  0  0  0  0  0  0  0
    8.4664   -3.0484    0.2545 H   0  0  0  0  0  0  0  0  0  0  0  0
    6.4688   -1.8983   -0.4817 H   0  0  0  0  0  0  0  0  0  0  0  0
    2.3621    0.6186   -1.1493 H   0  0  0  0  0  0  0  0  0  0  0  0
  1  2  1  0
  2  3  1  0
  2  4  1  0
  4  5  1  0
  5  6  1  0
  6  7  2  0
  6  8  1  0
  8  9  1  0
  9 10  1  0
 10 11  2  0
 11 12  1  0
 12 13  2  0
 13 14  1  0
 14 15  2  0
  8 16  1  0
 16 17  1  0
 17 18  2  0
 17 19  1  0
 19 20  1  0
 20 21  1  0
 21 22  2  0
 22 23  1  0
 23 24  1  0
 24 25  2  0
 25 26  1  0
 26 27  2  0
 27 28  1  0
 28 29  2  0
 19 30  1  0
 30 31  1  0
 31 32  2  0
 31 33  1  0
 33 34  1  0
 34 35  1  0
 35 36  2  0
 36 37  1  0
 37 38  2  0
 38 39  1  0
 39 40  2  0
 33 41  1  0
 41 42  1  0
 42 43  2  0
 42 44  1  0
 44 45  1  0
 45 46  1  0
 46 47  1  0
 47 48  1  0
 48 49  1  0
 49 50  2  0
 49 51  1  0
 51 52  1  0
 52 53  1  0
 53 54  2  0
 54 55  1  0
 55 56  1  0
 56 57  2  0
 57 58  1  0
 58 59  2  0
 59 60  1  0
 60 61  2  0
 51 62  1  0
 62 63  1  0
 63 64  2  0
 63  4  1  0
 15 10  1  0
 29 21  1  0
 40 35  1  0
 48 44  1  0
 61 53  1  0
 29 24  1  0
 61 56  1  0
  1 65  1  0
  1 66  1  0
  1 67  1  0
  2 68  1  0
  3 69  1  0
  3 70  1  0
  3 71  1  0
  4 72  1  1
  5 73  1  0
  8 74  1  1
  9 75  1  0
  9 76  1  0
 11 77  1  0
 12 78  1  0
 13 79  1  0
 14 80  1  0
 15 81  1  0
 16 82  1  0
 19 83  1  6
 20 84  1  0
 20 85  1  0
 22 86  1  0
 23 87  1  0
 25 88  1  0
 26 89  1  0
 27 90  1  0
 28 91  1  0
 30 92  1  0
 33 93  1  1
 34 94  1  0
 34 95  1  0
 36 96  1  0
 37 97  1  0
 38 98  1  0
 39 99  1  0
 40100  1  0
 41101  1  0
 44102  1  1
 45103  1  0
 45104  1  0
 46105  1  0
 46106  1  0
 47107  1  0
 47108  1  0
 51109  1  1
 52110  1  0
 52111  1  0
 54112  1  0
 55113  1  0
 57114  1  0
 58115  1  0
 59116  1  0
 60117  1  0
 62118  1  0
M  END
$$$$
[H]OP(=O)(O[H])C(F)(F)c1c([H])c(-c2c([H])c([H])c(-c3c(C([H])([H])c4c([H])c([H])c([H])c([H])c4[H])oc4c([H])c([H])c([H])c([H])c34)c([H])c2[H])c([H])c([H])c1F
     RDKit          3D

 56 60  0  0  0  0  0  0  0  0999 V2000
    6.2882    4.1329    0.8126 O   0  0  0  0  0  0  0  0  0  0  0  0
    5.1711    2.8652    0.7128 P   0  0  0  0  0  0  0  0  0  0  0  0
    4.4266    3.0277   -0.8142 O   0  0  0  0  0  0  0  0  0  0  0  0
    4.1515    3.0373    1.7864 O   0  0  0  0  0  0  0  0  0  0  0  0
    6.0841    1.3155    0.7984 C   0  0  0  0  0  0  0  0  0  0  0  0
    6.9668    1.3055   -0.2995 F   0  0  0  0  0  0  0  0  0  0  0  0
    6.8879    1.3243    1.9222 F   0  0  0  0  0  0  0  0  0  0  0  0
    5.2414    0.1117    0.6833 C   0  0  0  0  0  0  0  0  0  0  0  0
    3.8775    0.1239    0.5486 C   0  0  0  0  0  0  0  0  0  0  0  0
    3.1255   -1.0227    0.4214 C   0  0  0  0  0  0  0  0  0  0  0  0
    3.8183   -2.2394    0.4376 C   0  0  0  0  0  0  0  0  0  0  0  0
    5.2037   -2.2856    0.5742 C   0  0  0  0  0  0  0  0  0  0  0  0
    5.9188   -1.1059    0.6974 C   0  0  0  0  0  0  0  0  0  0  0  0
    7.2617   -1.1931    0.8194 F   0  0  0  0  0  0  0  0  0  0  0  0
    1.6866   -1.0470    0.2576 C   0  0  0  0  0  0  0  0  0  0  0  0
    0.8301   -0.1511    0.8284 C   0  0  0  0  0  0  0  0  0  0  0  0
   -0.5514   -0.1908    0.5760 C   0  0  0  0  0  0  0  0  0  0  0  0
   -1.0917   -1.1305   -0.2548 C   0  0  0  0  0  0  0  0  0  0  0  0
   -0.2141   -2.0514   -0.8396 C   0  0  0  0  0  0  0  0  0  0  0  0
    1.1215   -2.0098   -0.5921 C   0  0  0  0  0  0  0  0  0  0  0  0
   -2.5258   -1.2422   -0.5824 C   0  0  0  0  0  0  0  0  0  0  0  0
   -3.3226   -0.5122   -1.3993 C   0  0  0  0  0  0  0  0  0  0  0  0
   -2.9819    0.7110   -2.1534 C   0  0  0  0  0  0  0  0  0  0  0  0
   -3.2495    1.9788   -1.4647 C   0  0  0  0  0  0  0  0  0  0  0  0
   -4.5814    2.3817   -1.3929 C   0  0  0  0  0  0  0  0  0  0  0  0
   -4.8731    3.5885   -0.7891 C   0  0  0  0  0  0  0  0  0  0  0  0
   -3.8590    4.3595   -0.2757 C   0  0  0  0  0  0  0  0  0  0  0  0
   -2.5306    3.9499   -0.3508 C   0  0  0  0  0  0  0  0  0  0  0  0
   -2.2377    2.7426   -0.9563 C   0  0  0  0  0  0  0  0  0  0  0  0
   -4.5151   -1.1092   -1.3971 O   0  0  0  0  0  0  0  0  0  0  0  0
   -4.5314   -2.1565   -0.6418 C   0  0  0  0  0  0  0  0  0  0  0  0
   -5.4817   -3.1191   -0.2868 C   0  0  0  0  0  0  0  0  0  0  0  0
   -5.2061   -4.1521    0.5619 C   0  0  0  0  0  0  0  0  0  0  0  0
   -3.9391   -4.2895    1.1196 C   0  0  0  0  0  0  0  0  0  0  0  0
   -2.9782   -3.3566    0.7908 C   0  0  0  0  0  0  0  0  0  0  0  0
   -3.2733   -2.3209   -0.0665 C   0  0  0  0  0  0  0  0  0  0  0  0
    7.1894    3.7992    0.5860 H   0  0  0  0  0  0  0  0  0  0  0  0
    4.9807    2.7035   -1.5517 H   0  0  0  0  0  0  0  0  0  0  0  0
    3.3532    1.0671    0.5357 H   0  0  0  0  0  0  0  0  0  0  0  0
    3.2326   -3.1383    0.3408 H   0  0  0  0  0  0  0  0  0  0  0  0
    5.7348   -3.2252    0.5854 H   0  0  0  0  0  0  0  0  0  0  0  0
    1.2103    0.6159    1.4969 H   0  0  0  0  0  0  0  0  0  0  0  0
   -1.2262    0.5294    1.0417 H   0  0  0  0  0  0  0  0  0  0  0  0
   -0.5853   -2.8114   -1.4962 H   0  0  0  0  0  0  0  0  0  0  0  0
    1.8253   -2.7173   -1.0357 H   0  0  0  0  0  0  0  0  0  0  0  0
   -1.8788    0.7117   -2.4395 H   0  0  0  0  0  0  0  0  0  0  0  0
   -3.5163    0.7177   -3.1247 H   0  0  0  0  0  0  0  0  0  0  0  0
   -5.3514    1.7347   -1.8199 H   0  0  0  0  0  0  0  0  0  0  0  0
   -5.9296    3.8778   -0.7447 H   0  0  0  0  0  0  0  0  0  0  0  0
   -4.0819    5.2980    0.1950 H   0  0  0  0  0  0  0  0  0  0  0  0
   -1.7617    4.5784    0.0583 H   0  0  0  0  0  0  0  0  0  0  0  0
   -1.1709    2.4649   -0.9876 H   0  0  0  0  0  0  0  0  0  0  0  0
   -6.4588   -2.9950   -0.7375 H   0  0  0  0  0  0  0  0  0  0  0  0
   -5.9569   -4.8957    0.8343 H   0  0  0  0  0  0  0  0  0  0  0  0
   -3.7460   -5.1310    1.7976 H   0  0  0  0  0  0  0  0  0  0  0  0
   -1.9804   -3.4548    1.2211 H   0  0  0  0  0  0  0  0  0  0  0  0
  1  2  1  0
  2  3  1  0
  2  4  2  0
  2  5  1  0
  5  6  1  0
  5  7  1  0
  5  8  1  0
  8  9  2  0
  9 10  1  0
 10 11  2  0
 11 12  1  0
 12 13  2  0
 13 14  1  0
 10 15  1  0
 15 16  2  0
 16 17  1  0
 17 18  2  0
 18 19  1  0
 19 20  2  0
 18 21  1  0
 21 22  2  0
 22 23  1  0
 23 24  1  0
 24 25  2  0
 25 26  1  0
 26 27  2  0
 27 28  1  0
 28 29  2  0
 22 30  1  0
 30 31  1  0
 31 32  2  0
 32 33  1  0
 33 34  2  0
 34 35  1  0
 35 36  2  0
 13  8  1  0
 20 15  1  0
 36 21  1  0
 29 24  1  0
 36 31  1  0
  1 37  1  0
  3 38  1  0
  9 39  1  0
 11 40  1  0
 12 41  1  0
 16 42  1  0
 17 43  1  0
 19 44  1  0
 20 45  1  0
 23 46  1  0
 23 47  1  0
 25 48  1  0
 26 49  1  0
 27 50  1  0
 28 51  1  0
 29 52  1  0
 32 53  1  0
 33 54  1  0
 34 55  1  0
 35 56  1  0
M  END
$$$$
[H]c1nc(N([H])c2c([H])c(N3C([H])([H])C([H])([H])OC([H])([H])C3([H])[H])c([H])c(N3C([H])([H])C([H])([H])OC([H])([H])C3([H])[H])c2[H])nc(N(c2c([H])c(C(=O)N([H])[H])c([H])c(C(F)(F)F)c2[H])C([H])([H])[H])c1[H]
     RDKit          3D

 70 74  0  0  0  0  0  0  0  0999 V2000
    4.5168    2.5254    1.4102 C   0  0  0  0  0  0  0  0  0  0  0  0
    4.3158    1.1988    0.8743 N   0  0  0  0  0  0  0  0  0  0  0  0
    2.9874    0.6479    0.9980 C   0  0  0  0  0  0  0  0  0  0  0  0
    2.6832   -0.1851    2.0493 C   0  0  0  0  0  0  0  0  0  0  0  0
    1.3953   -0.6602    2.1379 C   0  0  0  0  0  0  0  0  0  0  0  0
    0.4816   -0.3051    1.2166 N   0  0  0  0  0  0  0  0  0  0  0  0
    0.7623    0.5069    0.1912 C   0  0  0  0  0  0  0  0  0  0  0  0
   -0.1926    0.9504   -0.7608 N   0  0  0  0  0  0  0  0  0  0  0  0
   -1.5424    0.5706   -0.7124 C   0  0  0  0  0  0  0  0  0  0  0  0
   -1.9833   -0.7315   -0.7148 C   0  0  0  0  0  0  0  0  0  0  0  0
   -3.3378   -0.9909   -0.6543 C   0  0  0  0  0  0  0  0  0  0  0  0
   -4.2303    0.0687   -0.5904 C   0  0  0  0  0  0  0  0  0  0  0  0
   -3.8351    1.3868   -0.5840 C   0  0  0  0  0  0  0  0  0  0  0  0
   -2.4825    1.6318   -0.6460 C   0  0  0  0  0  0  0  0  0  0  0  0
   -4.7393    2.4898   -0.4966 N   0  0  0  0  0  0  0  0  0  0  0  0
   -6.1325    2.2944   -0.2086 C   0  0  0  0  0  0  0  0  0  0  0  0
   -6.5987    3.3145    0.8260 C   0  0  0  0  0  0  0  0  0  0  0  0
   -5.9548    4.5275    0.7503 O   0  0  0  0  0  0  0  0  0  0  0  0
   -5.4049    4.8140   -0.5006 C   0  0  0  0  0  0  0  0  0  0  0  0
   -4.2562    3.8397   -0.7021 C   0  0  0  0  0  0  0  0  0  0  0  0
   -3.8031   -2.3307   -0.6913 N   0  0  0  0  0  0  0  0  0  0  0  0
   -5.1653   -2.7406   -0.9170 C   0  0  0  0  0  0  0  0  0  0  0  0
   -5.5885   -3.5209    0.3072 C   0  0  0  0  0  0  0  0  0  0  0  0
   -4.6865   -4.5255    0.6233 O   0  0  0  0  0  0  0  0  0  0  0  0
   -3.6888   -4.6731   -0.3256 C   0  0  0  0  0  0  0  0  0  0  0  0
   -2.8445   -3.4182   -0.5001 C   0  0  0  0  0  0  0  0  0  0  0  0
    2.0454    0.9731    0.1080 N   0  0  0  0  0  0  0  0  0  0  0  0
    5.3248    0.4011    0.2713 C   0  0  0  0  0  0  0  0  0  0  0  0
    5.9408   -0.6219    0.9681 C   0  0  0  0  0  0  0  0  0  0  0  0
    6.9407   -1.4461    0.4719 C   0  0  0  0  0  0  0  0  0  0  0  0
    7.3467   -1.2148   -0.8317 C   0  0  0  0  0  0  0  0  0  0  0  0
    6.7522   -0.1883   -1.5755 C   0  0  0  0  0  0  0  0  0  0  0  0
    5.7558    0.6113   -1.0346 C   0  0  0  0  0  0  0  0  0  0  0  0
    7.1981    0.0332   -2.9690 C   0  0  0  0  0  0  0  0  0  0  0  0
    8.5977    0.0521   -3.0349 F   0  0  0  0  0  0  0  0  0  0  0  0
    6.7672    1.2624   -3.4352 F   0  0  0  0  0  0  0  0  0  0  0  0
    6.7421   -0.9984   -3.7938 F   0  0  0  0  0  0  0  0  0  0  0  0
    7.5117   -2.4918    1.2928 C   0  0  0  0  0  0  0  0  0  0  0  0
    8.8247   -2.3680    1.7857 N   0  0  0  0  0  0  0  0  0  0  0  0
    6.8257   -3.4981    1.5565 O   0  0  0  0  0  0  0  0  0  0  0  0
    4.0855    2.5614    2.4276 H   0  0  0  0  0  0  0  0  0  0  0  0
    5.5490    2.8481    1.4800 H   0  0  0  0  0  0  0  0  0  0  0  0
    3.8950    3.2084    0.7855 H   0  0  0  0  0  0  0  0  0  0  0  0
    3.4466   -0.4505    2.7877 H   0  0  0  0  0  0  0  0  0  0  0  0
    1.1731   -1.3133    2.9754 H   0  0  0  0  0  0  0  0  0  0  0  0
    0.1162    1.5906   -1.5356 H   0  0  0  0  0  0  0  0  0  0  0  0
   -1.2573   -1.5593   -0.7566 H   0  0  0  0  0  0  0  0  0  0  0  0
   -5.2864   -0.1526   -0.5465 H   0  0  0  0  0  0  0  0  0  0  0  0
   -2.1201    2.6505   -0.6434 H   0  0  0  0  0  0  0  0  0  0  0  0
   -6.3767    1.2996    0.2057 H   0  0  0  0  0  0  0  0  0  0  0  0
   -6.6856    2.4633   -1.1793 H   0  0  0  0  0  0  0  0  0  0  0  0
   -6.4286    2.9138    1.8683 H   0  0  0  0  0  0  0  0  0  0  0  0
   -7.6943    3.4640    0.6905 H   0  0  0  0  0  0  0  0  0  0  0  0
   -4.9576    5.8248   -0.4177 H   0  0  0  0  0  0  0  0  0  0  0  0
   -6.1788    4.7479   -1.2946 H   0  0  0  0  0  0  0  0  0  0  0  0
   -3.4538    4.0342    0.0369 H   0  0  0  0  0  0  0  0  0  0  0  0
   -3.8533    3.9034   -1.7316 H   0  0  0  0  0  0  0  0  0  0  0  0
   -5.8869   -1.9132   -1.0469 H   0  0  0  0  0  0  0  0  0  0  0  0
   -5.1512   -3.3831   -1.8240 H   0  0  0  0  0  0  0  0  0  0  0  0
   -5.7803   -2.8217    1.1330 H   0  0  0  0  0  0  0  0  0  0  0  0
   -6.5571   -4.0026    0.0749 H   0  0  0  0  0  0  0  0  0  0  0  0
   -4.0598   -4.9900   -1.2945 H   0  0  0  0  0  0  0  0  0  0  0  0
   -3.0010   -5.4680    0.0304 H   0  0  0  0  0  0  0  0  0  0  0  0
   -2.3254   -3.5182   -1.4792 H   0  0  0  0  0  0  0  0  0  0  0  0
   -2.1614   -3.2063    0.3275 H   0  0  0  0  0  0  0  0  0  0  0  0
    5.6387   -0.8172    2.0003 H   0  0  0  0  0  0  0  0  0  0  0  0
    8.1192   -1.8203   -1.2814 H   0  0  0  0  0  0  0  0  0  0  0  0
    5.3390    1.3788   -1.6376 H   0  0  0  0  0  0  0  0  0  0  0  0
    8.9954   -2.6530    2.7697 H   0  0  0  0  0  0  0  0  0  0  0  0
    9.6088   -2.0108    1.2072 H   0  0  0  0  0  0  0  0  0  0  0  0
  1  2  1  0
  2  3  1  0
  3  4  2  0
  4  5  1  0
  5  6  2  0
  6  7  1  0
  7  8  1  0
  8  9  1  0
  9 10  2  0
 10 11  1  0
 11 12  2  0
 12 13  1  0
 13 14  2  0
 13 15  1  0
 15 16  1  0
 16 17  1  0
 17 18  1  0
 18 19  1  0
 19 20  1  0
 11 21  1  0
 21 22  1  0
 22 23  1  0
 23 24  1  0
 24 25  1  0
 25 26  1  0
  7 27  2  0
  2 28  1  0
 28 29  2  0
 29 30  1  0
 30 31  2  0
 31 32  1  0
 32 33  2  0
 32 34  1  0
 34 35  1  0
 34 36  1  0
 34 37  1  0
 30 38  1  0
 38 39  1  0
 38 40  2  0
 27  3  1  0
 33 28  1  0
 14  9  1  0
 20 15  1  0
 26 21  1  0
  1 41  1  0
  1 42  1  0
  1 43  1  0
  4 44  1  0
  5 45  1  0
  8 46  1  0
 10 47  1  0
 12 48  1  0
 14 49  1  0
 16 50  1  0
 16 51  1  0
 17 52  1  0
 17 53  1  0
 19 54  1  0
 19 55  1  0
 20 56  1  0
 20 57  1  0
 22 58  1  0
 22 59  1  0
 23 60  1  0
 23 61  1  0
 25 62  1  0
 25 63  1  0
 26 64  1  0
 26 65  1  0
 29 66  1  0
 31 67  1  0
 33 68  1  0
 39 69  1  0
 39 70  1  0
M  END
$$$$
[H]c1nc([H])c2sc(C(=O)N([H])[H])c([H])c2c1Oc1c([H])c([H])c(N([H])C(=O)C2(C#N)C([H])([H])C2([H])[H])c([H])c1[H]
     RDKit          3D

 41 44  0  0  0  0  0  0  0  0999 V2000
   -8.4931   -1.3191    0.7794 N   0  0  0  0  0  0  0  0  0  0  0  0
   -7.1285   -1.6516    0.6189 C   0  0  0  0  0  0  0  0  0  0  0  0
   -6.7815   -2.8421    0.5935 O   0  0  0  0  0  0  0  0  0  0  0  0
   -6.1196   -0.5785    0.4820 C   0  0  0  0  0  0  0  0  0  0  0  0
   -4.7660   -0.7109    0.3201 C   0  0  0  0  0  0  0  0  0  0  0  0
   -4.0336    0.4108    0.2159 C   0  0  0  0  0  0  0  0  0  0  0  0
   -2.6449    0.5251    0.0464 C   0  0  0  0  0  0  0  0  0  0  0  0
   -1.8268   -0.6241   -0.0365 O   0  0  0  0  0  0  0  0  0  0  0  0
   -0.4586   -0.5184   -0.2036 C   0  0  0  0  0  0  0  0  0  0  0  0
    0.4185   -0.4453    0.8487 C   0  0  0  0  0  0  0  0  0  0  0  0
    1.8000   -0.3387    0.6483 C   0  0  0  0  0  0  0  0  0  0  0  0
    2.3449   -0.3022   -0.6156 C   0  0  0  0  0  0  0  0  0  0  0  0
    3.7237   -0.1962   -0.8893 N   0  0  0  0  0  0  0  0  0  0  0  0
    4.7945   -0.1095   -0.0055 C   0  0  0  0  0  0  0  0  0  0  0  0
    4.7074   -0.1112    1.2339 O   0  0  0  0  0  0  0  0  0  0  0  0
    6.2115   -0.0016   -0.5217 C   0  0  0  0  0  0  0  0  0  0  0  0
    7.2744   -0.7760    0.2226 C   0  0  0  0  0  0  0  0  0  0  0  0
    7.2080    0.7130    0.3068 C   0  0  0  0  0  0  0  0  0  0  0  0
    6.3071   -0.0002   -1.9748 C   0  0  0  0  0  0  0  0  0  0  0  0
    6.4002   -0.0082   -3.1248 N   0  0  0  0  0  0  0  0  0  0  0  0
    1.4423   -0.3773   -1.6833 C   0  0  0  0  0  0  0  0  0  0  0  0
    0.0895   -0.4816   -1.4662 C   0  0  0  0  0  0  0  0  0  0  0  0
   -2.0816    1.7711   -0.0391 C   0  0  0  0  0  0  0  0  0  0  0  0
   -2.7586    2.9386    0.0265 N   0  0  0  0  0  0  0  0  0  0  0  0
   -4.0925    2.8497    0.1891 C   0  0  0  0  0  0  0  0  0  0  0  0
   -4.7090    1.5994    0.2810 C   0  0  0  0  0  0  0  0  0  0  0  0
   -6.3332    1.1159    0.4842 S   0  0  0  0  0  0  0  0  0  0  0  0
   -9.0744   -1.1011   -0.0595 H   0  0  0  0  0  0  0  0  0  0  0  0
   -8.9486   -1.2821    1.7097 H   0  0  0  0  0  0  0  0  0  0  0  0
   -4.3495   -1.7430    0.2841 H   0  0  0  0  0  0  0  0  0  0  0  0
    0.0021   -0.4730    1.8573 H   0  0  0  0  0  0  0  0  0  0  0  0
    2.4193   -0.2865    1.5239 H   0  0  0  0  0  0  0  0  0  0  0  0
    3.9850   -0.1802   -1.9279 H   0  0  0  0  0  0  0  0  0  0  0  0
    8.1031   -1.2064   -0.4123 H   0  0  0  0  0  0  0  0  0  0  0  0
    6.9783   -1.3712    1.0888 H   0  0  0  0  0  0  0  0  0  0  0  0
    6.9002    1.1085    1.2986 H   0  0  0  0  0  0  0  0  0  0  0  0
    7.9449    1.3554   -0.2007 H   0  0  0  0  0  0  0  0  0  0  0  0
    1.8223   -0.3524   -2.6886 H   0  0  0  0  0  0  0  0  0  0  0  0
   -0.6247   -0.5410   -2.3027 H   0  0  0  0  0  0  0  0  0  0  0  0
   -0.9930    1.7939   -0.1711 H   0  0  0  0  0  0  0  0  0  0  0  0
   -4.6595    3.7481    0.2451 H   0  0  0  0  0  0  0  0  0  0  0  0
  1  2  1  0
  2  3  2  0
  2  4  1  0
  4  5  2  0
  5  6  1  0
  6  7  2  0
  7  8  1  0
  8  9  1  0
  9 10  2  0
 10 11  1  0
 11 12  2  0
 12 13  1  0
 13 14  1  0
 14 15  2  0
 14 16  1  0
 16 17  1  0
 17 18  1  0
 16 19  1  0
 19 20  3  0
 12 21  1  0
 21 22  2  0
  7 23  1  0
 23 24  2  0
 24 25  1  0
 25 26  2  0
 26 27  1  0
 27  4  1  0
 26  6  1  0
 22  9  1  0
 18 16  1  0
  1 28  1  0
  1 29  1  0
  5 30  1  0
 10 31  1  0
 11 32  1  0
 13 33  1  0
 17 34  1  0
 17 35  1  0
 18 36  1  0
 18 37  1  0
 21 38  1  0
 22 39  1  0
 23 40  1  0
 25 41  1  0
M  END
$$$$
[H]c1c([H])c(Oc2c([H])c([H])c(C(=O)N([H])c3c([H])c([H])n([H])c(=O)c3[H])c([H])c2C#N)c(OC([H])([H])[H])c([H])c1F
     RDKit          3D

 42 44  0  0  0  0  0  0  0  0999 V2000
   -6.4051   -2.1369    1.6508 C   0  0  0  0  0  0  0  0  0  0  0  0
   -5.1369   -1.6632    1.2729 O   0  0  0  0  0  0  0  0  0  0  0  0
   -4.9923   -0.4416    0.6219 C   0  0  0  0  0  0  0  0  0  0  0  0
   -6.1146    0.2944    0.3548 C   0  0  0  0  0  0  0  0  0  0  0  0
   -6.0474    1.5117   -0.2859 C   0  0  0  0  0  0  0  0  0  0  0  0
   -7.1879    2.2234   -0.5388 F   0  0  0  0  0  0  0  0  0  0  0  0
   -4.8344    2.0241   -0.6779 C   0  0  0  0  0  0  0  0  0  0  0  0
   -3.7163    1.2596   -0.3952 C   0  0  0  0  0  0  0  0  0  0  0  0
   -3.7557    0.0397    0.2434 C   0  0  0  0  0  0  0  0  0  0  0  0
   -2.6430   -0.7109    0.5163 O   0  0  0  0  0  0  0  0  0  0  0  0
   -1.3447   -0.5210    0.2058 C   0  0  0  0  0  0  0  0  0  0  0  0
   -0.4424   -0.3044    1.2254 C   0  0  0  0  0  0  0  0  0  0  0  0
    0.9267   -0.1013    0.9724 C   0  0  0  0  0  0  0  0  0  0  0  0
    1.3723   -0.1189   -0.3079 C   0  0  0  0  0  0  0  0  0  0  0  0
    0.4628   -0.3366   -1.3179 C   0  0  0  0  0  0  0  0  0  0  0  0
   -0.8984   -0.5407   -1.0886 C   0  0  0  0  0  0  0  0  0  0  0  0
   -1.7860   -0.8018   -2.2103 C   0  0  0  0  0  0  0  0  0  0  0  0
   -2.4827   -1.0313   -3.1048 N   0  0  0  0  0  0  0  0  0  0  0  0
    2.8022    0.0813   -0.6589 C   0  0  0  0  0  0  0  0  0  0  0  0
    3.0864    0.2913   -1.8644 O   0  0  0  0  0  0  0  0  0  0  0  0
    3.7828    0.0337    0.3299 N   0  0  0  0  0  0  0  0  0  0  0  0
    5.1717    0.2152    0.1377 C   0  0  0  0  0  0  0  0  0  0  0  0
    5.7755    0.7837   -0.9451 C   0  0  0  0  0  0  0  0  0  0  0  0
    7.1525    0.9138   -1.0882 C   0  0  0  0  0  0  0  0  0  0  0  0
    7.9645    0.4690   -0.1309 N   0  0  0  0  0  0  0  0  0  0  0  0
    7.3985   -0.0926    0.9429 C   0  0  0  0  0  0  0  0  0  0  0  0
    8.1937   -0.5128    1.8506 O   0  0  0  0  0  0  0  0  0  0  0  0
    6.0602   -0.2444    1.1320 C   0  0  0  0  0  0  0  0  0  0  0  0
   -6.9627   -2.5677    0.7836 H   0  0  0  0  0  0  0  0  0  0  0  0
   -7.0147   -1.3856    2.1845 H   0  0  0  0  0  0  0  0  0  0  0  0
   -6.2275   -2.9605    2.4011 H   0  0  0  0  0  0  0  0  0  0  0  0
   -7.1183   -0.0557    0.6409 H   0  0  0  0  0  0  0  0  0  0  0  0
   -4.7597    2.9890   -1.1880 H   0  0  0  0  0  0  0  0  0  0  0  0
   -2.7519    1.6952   -0.7057 H   0  0  0  0  0  0  0  0  0  0  0  0
   -0.7216   -0.2769    2.2652 H   0  0  0  0  0  0  0  0  0  0  0  0
    1.5948    0.0682    1.8034 H   0  0  0  0  0  0  0  0  0  0  0  0
    0.8034   -0.3533   -2.3452 H   0  0  0  0  0  0  0  0  0  0  0  0
    3.4911   -0.1577    1.3416 H   0  0  0  0  0  0  0  0  0  0  0  0
    5.1505    1.1752   -1.7432 H   0  0  0  0  0  0  0  0  0  0  0  0
    7.4972    1.3854   -2.0011 H   0  0  0  0  0  0  0  0  0  0  0  0
    8.9898    0.5694   -0.2446 H   0  0  0  0  0  0  0  0  0  0  0  0
    5.6675   -0.7072    2.0234 H   0  0  0  0  0  0  0  0  0  0  0  0
  1  2  1  0
  2  3  1  0
  3  4  2  0
  4  5  1  0
  5  6  1  0
  5  7  2  0
  7  8  1  0
  8  9  2  0
  9 10  1  0
 10 11  1  0
 11 12  2  0
 12 13  1  0
 13 14  2  0
 14 15  1  0
 15 16  2  0
 16 17  1  0
 17 18  3  0
 14 19  1  0
 19 20  2  0
 19 21  1  0
 21 22  1  0
 22 23  1  0
 23 24  2  0
 24 25  1  0
 25 26  1  0
 26 27  2  0
 26 28  1  0
  9  3  1  0
 16 11  1  0
 28 22  2  0
  1 29  1  0
  1 30  1  0
  1 31  1  0
  4 32  1  0
  7 33  1  0
  8 34  1  0
 12 35  1  0
 13 36  1  0
 15 37  1  0
 21 38  1  0
 23 39  1  0
 24 40  1  0
 25 41  1  0
 28 42  1  0
M  END
$$$$
[H]c1nc(N([H])c2c([H])c([H])c3c(c([H])nn3C([H])([H])c3c([H])c([H])c([H])c(F)c3[H])c2[H])c2c(O[C@@]([H])(C(=O)N(C([H])([H])[H])C([H])([H])[H])C([H])([H])[H])c([H])c([H])c([H])c2n1
     RDKit          3D

 61 65  0  0  0  0  0  0  0  0999 V2000
   -4.9508    0.7809    1.4765 C   0  0  0  0  0  0  0  0  0  0  0  0
   -4.1598    0.8203    0.1970 C   0  0  1  0  0  0  0  0  0  0  0  0
   -3.0897   -0.0824    0.2584 O   0  0  0  0  0  0  0  0  0  0  0  0
   -3.1083   -1.4267    0.4120 C   0  0  0  0  0  0  0  0  0  0  0  0
   -4.3270   -2.1094    0.5088 C   0  0  0  0  0  0  0  0  0  0  0  0
   -4.4032   -3.4807    0.6715 C   0  0  0  0  0  0  0  0  0  0  0  0
   -3.2468   -4.2181    0.7431 C   0  0  0  0  0  0  0  0  0  0  0  0
   -2.0364   -3.5731    0.6505 C   0  0  0  0  0  0  0  0  0  0  0  0
   -0.9150   -4.3037    0.7364 N   0  0  0  0  0  0  0  0  0  0  0  0
    0.3082   -3.7369    0.6672 C   0  0  0  0  0  0  0  0  0  0  0  0
    0.3557   -2.4424    0.5114 N   0  0  0  0  0  0  0  0  0  0  0  0
   -0.7097   -1.5898    0.4099 C   0  0  0  0  0  0  0  0  0  0  0  0
   -0.4823   -0.2282    0.1574 N   0  0  0  0  0  0  0  0  0  0  0  0
    0.8431    0.2899    0.2012 C   0  0  0  0  0  0  0  0  0  0  0  0
    1.8227   -0.1138    1.0620 C   0  0  0  0  0  0  0  0  0  0  0  0
    3.1047    0.4026    1.0400 C   0  0  0  0  0  0  0  0  0  0  0  0
    3.4197    1.3663    0.1162 C   0  0  0  0  0  0  0  0  0  0  0  0
    4.5723    2.0246   -0.1130 N   0  0  0  0  0  0  0  0  0  0  0  0
    5.7873    1.8146    0.6235 C   0  0  0  0  0  0  0  0  0  0  0  0
    6.6894    0.8083    0.0711 C   0  0  0  0  0  0  0  0  0  0  0  0
    7.6098    1.1741   -0.8859 C   0  0  0  0  0  0  0  0  0  0  0  0
    8.4843    0.2397   -1.4279 C   0  0  0  0  0  0  0  0  0  0  0  0
    8.4585   -1.0691   -1.0290 C   0  0  0  0  0  0  0  0  0  0  0  0
    7.5444   -1.4485   -0.0738 C   0  0  0  0  0  0  0  0  0  0  0  0
    7.5291   -2.7477    0.3127 F   0  0  0  0  0  0  0  0  0  0  0  0
    6.6661   -0.5069    0.4697 C   0  0  0  0  0  0  0  0  0  0  0  0
    4.3445    2.8609   -1.1246 N   0  0  0  0  0  0  0  0  0  0  0  0
    3.0756    2.7594   -1.5543 C   0  0  0  0  0  0  0  0  0  0  0  0
    2.4674    1.8047   -0.7692 C   0  0  0  0  0  0  0  0  0  0  0  0
    1.2013    1.2748   -0.7265 C   0  0  0  0  0  0  0  0  0  0  0  0
   -1.9660   -2.1964    0.4863 C   0  0  0  0  0  0  0  0  0  0  0  0
   -4.9533    0.7444   -1.0233 C   0  0  0  0  0  0  0  0  0  0  0  0
   -4.6407   -0.0863   -1.9129 O   0  0  0  0  0  0  0  0  0  0  0  0
   -6.0778    1.5746   -1.2598 N   0  0  0  0  0  0  0  0  0  0  0  0
   -6.8471    1.4555   -2.5050 C   0  0  0  0  0  0  0  0  0  0  0  0
   -6.5530    2.5804   -0.3338 C   0  0  0  0  0  0  0  0  0  0  0  0
   -4.8993    1.7182    2.0718 H   0  0  0  0  0  0  0  0  0  0  0  0
   -4.5135    0.0016    2.1292 H   0  0  0  0  0  0  0  0  0  0  0  0
   -6.0177    0.5171    1.3241 H   0  0  0  0  0  0  0  0  0  0  0  0
   -3.6615    1.8476    0.2128 H   0  0  0  0  0  0  0  0  0  0  0  0
   -5.2744   -1.5871    0.4552 H   0  0  0  0  0  0  0  0  0  0  0  0
   -5.3422   -4.0069    0.7460 H   0  0  0  0  0  0  0  0  0  0  0  0
   -3.2465   -5.3000    0.8710 H   0  0  0  0  0  0  0  0  0  0  0  0
    1.1919   -4.3551    0.7409 H   0  0  0  0  0  0  0  0  0  0  0  0
   -1.1878    0.4506   -0.0828 H   0  0  0  0  0  0  0  0  0  0  0  0
    1.6202   -0.8526    1.8254 H   0  0  0  0  0  0  0  0  0  0  0  0
    3.8356    0.0440    1.7477 H   0  0  0  0  0  0  0  0  0  0  0  0
    6.3331    2.7753    0.7412 H   0  0  0  0  0  0  0  0  0  0  0  0
    5.5057    1.5185    1.6731 H   0  0  0  0  0  0  0  0  0  0  0  0
    7.6608    2.2047   -1.2285 H   0  0  0  0  0  0  0  0  0  0  0  0
    9.2000    0.5259   -2.1726 H   0  0  0  0  0  0  0  0  0  0  0  0
    9.1323   -1.8201   -1.4376 H   0  0  0  0  0  0  0  0  0  0  0  0
    5.9723   -0.8654    1.2183 H   0  0  0  0  0  0  0  0  0  0  0  0
    2.6403    3.3379   -2.3725 H   0  0  0  0  0  0  0  0  0  0  0  0
    0.4632    1.6448   -1.4460 H   0  0  0  0  0  0  0  0  0  0  0  0
   -7.3927    2.3686   -2.7364 H   0  0  0  0  0  0  0  0  0  0  0  0
   -6.1212    1.1693   -3.2930 H   0  0  0  0  0  0  0  0  0  0  0  0
   -7.5548    0.6097   -2.3353 H   0  0  0  0  0  0  0  0  0  0  0  0
   -7.0165    3.4344   -0.9118 H   0  0  0  0  0  0  0  0  0  0  0  0
   -5.7543    3.0367    0.2687 H   0  0  0  0  0  0  0  0  0  0  0  0
   -7.3902    2.1661    0.2601 H   0  0  0  0  0  0  0  0  0  0  0  0
  1  2  1  0
  2  3  1  0
  3  4  1  0
  4  5  2  0
  5  6  1  0
  6  7  2  0
  7  8  1  0
  8  9  2  0
  9 10  1  0
 10 11  2  0
 11 12  1  0
 12 13  1  0
 13 14  1  0
 14 15  2  0
 15 16  1  0
 16 17  2  0
 17 18  1  0
 18 19  1  0
 19 20  1  0
 20 21  2  0
 21 22  1  0
 22 23  2  0
 23 24  1  0
 24 25  1  0
 24 26  2  0
 18 27  1  0
 27 28  2  0
 28 29  1  0
 29 30  2  0
 12 31  2  0
  2 32  1  0
 32 33  2  0
 32 34  1  0
 34 35  1  0
 34 36  1  0
 31  4  1  0
 31  8  1  0
 30 14  1  0
 29 17  1  0
 26 20  1  0
  1 37  1  0
  1 38  1  0
  1 39  1  0
  2 40  1  6
  5 41  1  0
  6 42  1  0
  7 43  1  0
 10 44  1  0
 13 45  1  0
 15 46  1  0
 16 47  1  0
 19 48  1  0
 19 49  1  0
 21 50  1  0
 22 51  1  0
 23 52  1  0
 26 53  1  0
 28 54  1  0
 30 55  1  0
 35 56  1  0
 35 57  1  0
 35 58  1  0
 36 59  1  0
 36 60  1  0
 36 61  1  0
M  END
$$$$
[H]c1c([H])c([H])c(C#Cc2c([H])c(F)c([H])c(C#N)c2[H])c([H])c1[H]
     RDKit          3D

 25 26  0  0  0  0  0  0  0  0999 V2000
    4.1776    3.1736   -0.1967 F   0  0  0  0  0  0  0  0  0  0  0  0
    3.6731    1.9125   -0.1389 C   0  0  0  0  0  0  0  0  0  0  0  0
    4.5085    0.8134   -0.1236 C   0  0  0  0  0  0  0  0  0  0  0  0
    4.0074   -0.4715   -0.0651 C   0  0  0  0  0  0  0  0  0  0  0  0
    2.6275   -0.6966   -0.0195 C   0  0  0  0  0  0  0  0  0  0  0  0
    1.7858    0.3871   -0.0341 C   0  0  0  0  0  0  0  0  0  0  0  0
    2.3165    1.6601   -0.0930 C   0  0  0  0  0  0  0  0  0  0  0  0
    0.3554    0.1617    0.0129 C   0  0  0  0  0  0  0  0  0  0  0  0
   -0.8391   -0.0067    0.0600 C   0  0  0  0  0  0  0  0  0  0  0  0
   -2.2594   -0.1897    0.1348 C   0  0  0  0  0  0  0  0  0  0  0  0
   -2.8640   -1.0746   -0.7314 C   0  0  0  0  0  0  0  0  0  0  0  0
   -4.2489   -1.2807   -0.6892 C   0  0  0  0  0  0  0  0  0  0  0  0
   -5.0052   -0.5988    0.2180 C   0  0  0  0  0  0  0  0  0  0  0  0
   -4.4262    0.2957    1.0999 C   0  0  0  0  0  0  0  0  0  0  0  0
   -3.0544    0.4850    1.0416 C   0  0  0  0  0  0  0  0  0  0  0  0
    4.9287   -1.5765   -0.0519 C   0  0  0  0  0  0  0  0  0  0  0  0
    5.6854   -2.4600   -0.0436 N   0  0  0  0  0  0  0  0  0  0  0  0
    5.5779    1.0276   -0.1603 H   0  0  0  0  0  0  0  0  0  0  0  0
    2.2175   -1.7026    0.0268 H   0  0  0  0  0  0  0  0  0  0  0  0
    1.6504    2.5239   -0.1048 H   0  0  0  0  0  0  0  0  0  0  0  0
   -2.3146   -1.6375   -1.4655 H   0  0  0  0  0  0  0  0  0  0  0  0
   -4.7358   -1.9705   -1.3614 H   0  0  0  0  0  0  0  0  0  0  0  0
   -6.0733   -0.7694    0.2376 H   0  0  0  0  0  0  0  0  0  0  0  0
   -5.0667    0.8048    1.7920 H   0  0  0  0  0  0  0  0  0  0  0  0
   -2.6241    1.1894    1.7411 H   0  0  0  0  0  0  0  0  0  0  0  0
  1  2  1  0
  2  3  2  0
  3  4  1  0
  4  5  2  0
  5  6  1  0
  6  7  2  0
  6  8  1  0
  8  9  3  0
  9 10  1  0
 10 11  2  0
 11 12  1  0
 12 13  2  0
 13 14  1  0
 14 15  2  0
  4 16  1  0
 16 17  3  0
  7  2  1  0
 15 10  1  0
  3 18  1  0
  5 19  1  0
  7 20  1  0
 11 21  1  0
 12 22  1  0
 13 23  1  0
 14 24  1  0
 15 25  1  0
M  END
$$$$
[H]O[C@@]1([H])C([H])([H])C(=O)[C@]([H])(C([H])([H])C([H])([H])[H])/C([H])=C(\C([H])([H])[H])C([H])([H])[C@]([H])(C([H])([H])[H])C([H])([H])[C@]([H])(OC([H])([H])[H])[C@@]2([H])O[C@@](O[H])(C(=O)C(=O)N3C([H])([H])C([H])([H])C([H])([H])C([H])([H])[C@@]3([H])C(=O)O[C@]([H])(/C(=C([H])/C(=C([H])/C([H])=C(\[H])C([H])([H])[H])C([H])([H])[H])C([H])([H])[H])[C@]1([H])C([H])([H])[H])[C@]([H])(C([H])([H])[H])C([H])([H])[C@]2([H])OC([H])([H])[H]
     RDKit          3D

118120  0  0  0  0  0  0  0  0999 V2000
    0.0487   -6.8649   -0.6648 C   0  0  0  0  0  0  0  0  0  0  0  0
   -0.0647   -6.5997    0.7884 C   0  0  0  0  0  0  0  0  0  0  0  0
   -0.7960   -5.2856    1.1240 C   0  0  2  0  0  0  0  0  0  0  0  0
   -2.1477   -5.2773    0.5877 C   0  0  0  0  0  0  0  0  0  0  0  0
   -3.0115   -4.3198    0.3553 C   0  0  0  0  0  0  0  0  0  0  0  0
   -4.3669   -4.7023   -0.2265 C   0  0  0  0  0  0  0  0  0  0  0  0
   -2.8744   -2.8696    0.5926 C   0  0  0  0  0  0  0  0  0  0  0  0
   -3.4130   -2.0168   -0.5444 C   0  0  2  0  0  0  0  0  0  0  0  0
   -2.8288   -2.4075   -1.8853 C   0  0  0  0  0  0  0  0  0  0  0  0
   -2.9436   -0.6088   -0.2622 C   0  0  0  0  0  0  0  0  0  0  0  0
   -4.1878    0.2727   -0.0669 C   0  0  2  0  0  0  0  0  0  0  0  0
   -4.4446    0.9324   -1.2409 O   0  0  0  0  0  0  0  0  0  0  0  0
   -5.6187    0.6231   -1.8734 C   0  0  0  0  0  0  0  0  0  0  0  0
   -3.8294    1.2382    1.0839 C   0  0  1  0  0  0  0  0  0  0  0  0
   -2.4852    1.4659    0.9935 O   0  0  0  0  0  0  0  0  0  0  0  0
   -2.0648    2.5150    1.7906 C   0  0  2  0  0  0  0  0  0  0  0  0
   -2.8068    2.3453    2.9965 O   0  0  0  0  0  0  0  0  0  0  0  0
   -2.5925    3.7802    1.1983 C   0  0  2  0  0  0  0  0  0  0  0  0
   -2.1717    5.0249    1.9626 C   0  0  0  0  0  0  0  0  0  0  0  0
   -4.0933    3.7477    1.2222 C   0  0  0  0  0  0  0  0  0  0  0  0
   -4.7207    2.4149    1.0080 C   0  0  2  0  0  0  0  0  0  0  0  0
   -5.6992    2.2799    2.0257 O   0  0  0  0  0  0  0  0  0  0  0  0
   -6.9831    2.2500    1.5459 C   0  0  0  0  0  0  0  0  0  0  0  0
   -0.6296    2.4705    2.0615 C   0  0  0  0  0  0  0  0  0  0  0  0
   -0.3115    2.0650    3.2461 O   0  0  0  0  0  0  0  0  0  0  0  0
    0.4945    2.8041    1.2253 C   0  0  0  0  0  0  0  0  0  0  0  0
    1.6222    3.1516    1.8134 O   0  0  0  0  0  0  0  0  0  0  0  0
    0.6198    2.8284   -0.1826 N   0  0  0  0  0  0  0  0  0  0  0  0
    1.2013    4.0334   -0.7907 C   0  0  0  0  0  0  0  0  0  0  0  0
    0.2100    4.6505   -1.7240 C   0  0  0  0  0  0  0  0  0  0  0  0
   -0.4767    3.6939   -2.6279 C   0  0  0  0  0  0  0  0  0  0  0  0
   -0.7657    2.3455   -2.0873 C   0  0  0  0  0  0  0  0  0  0  0  0
    0.2577    1.7937   -1.1186 C   0  0  1  0  0  0  0  0  0  0  0  0
    1.4001    1.2302   -1.8855 C   0  0  0  0  0  0  0  0  0  0  0  0
    1.8746    1.9345   -2.8068 O   0  0  0  0  0  0  0  0  0  0  0  0
    1.8926   -0.0074   -1.5827 O   0  0  0  0  0  0  0  0  0  0  0  0
    2.4976   -0.4160   -0.3549 C   0  0  1  0  0  0  0  0  0  0  0  0
    2.1525   -1.8053    0.0551 C   0  0  2  0  0  0  0  0  0  0  0  0
    3.2454   -2.8185   -0.0676 C   0  0  0  0  0  0  0  0  0  0  0  0
    0.8803   -2.3078   -0.5652 C   0  0  1  0  0  0  0  0  0  0  0  0
    1.0021   -2.1158   -1.9687 O   0  0  0  0  0  0  0  0  0  0  0  0
    0.6937   -3.7623   -0.3690 C   0  0  0  0  0  0  0  0  0  0  0  0
    0.1216   -4.2005    0.9134 C   0  0  0  0  0  0  0  0  0  0  0  0
    0.4804   -3.5535    1.9184 O   0  0  0  0  0  0  0  0  0  0  0  0
    3.9750   -0.2781   -0.6343 C   0  0  0  0  0  0  0  0  0  0  0  0
    4.6074   -0.9641   -1.7710 C   0  0  0  0  0  0  0  0  0  0  0  0
    4.6999    0.5164    0.1187 C   0  0  0  0  0  0  0  0  0  0  0  0
    6.1187    0.7808    0.0182 C   0  0  0  0  0  0  0  0  0  0  0  0
    7.0959    0.1876   -0.8891 C   0  0  0  0  0  0  0  0  0  0  0  0
    6.6025    1.6694    0.9059 C   0  0  0  0  0  0  0  0  0  0  0  0
    7.9571    2.1128    1.0242 C   0  0  0  0  0  0  0  0  0  0  0  0
    8.2613    3.0100    1.9795 C   0  0  0  0  0  0  0  0  0  0  0  0
    9.6536    3.4729    2.1094 C   0  0  0  0  0  0  0  0  0  0  0  0
    0.0876   -7.9909   -0.7953 H   0  0  0  0  0  0  0  0  0  0  0  0
   -0.7470   -6.4339   -1.2977 H   0  0  0  0  0  0  0  0  0  0  0  0
    1.0221   -6.5248   -1.0600 H   0  0  0  0  0  0  0  0  0  0  0  0
    0.9434   -6.5374    1.2568 H   0  0  0  0  0  0  0  0  0  0  0  0
   -0.6168   -7.4374    1.2706 H   0  0  0  0  0  0  0  0  0  0  0  0
   -0.9357   -5.4096    2.2605 H   0  0  0  0  0  0  0  0  0  0  0  0
   -2.5091   -6.3161    0.3321 H   0  0  0  0  0  0  0  0  0  0  0  0
   -4.6913   -4.0613   -1.0308 H   0  0  0  0  0  0  0  0  0  0  0  0
   -4.3008   -5.7506   -0.6468 H   0  0  0  0  0  0  0  0  0  0  0  0
   -5.1311   -4.7423    0.5552 H   0  0  0  0  0  0  0  0  0  0  0  0
   -3.6045   -2.6506    1.4411 H   0  0  0  0  0  0  0  0  0  0  0  0
   -1.9255   -2.5145    0.9653 H   0  0  0  0  0  0  0  0  0  0  0  0
   -4.5124   -2.0890   -0.6299 H   0  0  0  0  0  0  0  0  0  0  0  0
   -3.4792   -2.1279   -2.7209 H   0  0  0  0  0  0  0  0  0  0  0  0
   -2.5302   -3.4711   -1.8688 H   0  0  0  0  0  0  0  0  0  0  0  0
   -1.8760   -1.8270   -2.0578 H   0  0  0  0  0  0  0  0  0  0  0  0
   -2.2765   -0.5418    0.6306 H   0  0  0  0  0  0  0  0  0  0  0  0
   -2.3789   -0.1674   -1.1058 H   0  0  0  0  0  0  0  0  0  0  0  0
   -5.0320   -0.3697    0.1978 H   0  0  0  0  0  0  0  0  0  0  0  0
   -5.7608    1.1980   -2.8175 H   0  0  0  0  0  0  0  0  0  0  0  0
   -5.6871   -0.4747   -2.1329 H   0  0  0  0  0  0  0  0  0  0  0  0
   -6.4673    0.8074   -1.1961 H   0  0  0  0  0  0  0  0  0  0  0  0
   -4.0672    0.6211    2.0037 H   0  0  0  0  0  0  0  0  0  0  0  0
   -2.5545    2.9820    3.6846 H   0  0  0  0  0  0  0  0  0  0  0  0
   -2.2506    3.8484    0.1415 H   0  0  0  0  0  0  0  0  0  0  0  0
   -2.9423    5.8258    1.7718 H   0  0  0  0  0  0  0  0  0  0  0  0
   -1.2328    5.4000    1.5075 H   0  0  0  0  0  0  0  0  0  0  0  0
   -2.0536    4.8391    3.0427 H   0  0  0  0  0  0  0  0  0  0  0  0
   -4.4590    4.2250    2.1747 H   0  0  0  0  0  0  0  0  0  0  0  0
   -4.4417    4.4801    0.4313 H   0  0  0  0  0  0  0  0  0  0  0  0
   -5.3151    2.4588    0.0655 H   0  0  0  0  0  0  0  0  0  0  0  0
   -7.6556    2.1633    2.4291 H   0  0  0  0  0  0  0  0  0  0  0  0
   -7.2311    3.0811    0.8875 H   0  0  0  0  0  0  0  0  0  0  0  0
   -7.1132    1.2484    1.0334 H   0  0  0  0  0  0  0  0  0  0  0  0
    2.1782    3.7973   -1.3045 H   0  0  0  0  0  0  0  0  0  0  0  0
    1.4937    4.8032   -0.0495 H   0  0  0  0  0  0  0  0  0  0  0  0
   -0.5307    5.2948   -1.1711 H   0  0  0  0  0  0  0  0  0  0  0  0
    0.7898    5.3770   -2.3573 H   0  0  0  0  0  0  0  0  0  0  0  0
    0.0316    3.6640   -3.6384 H   0  0  0  0  0  0  0  0  0  0  0  0
   -1.4805    4.1545   -2.8694 H   0  0  0  0  0  0  0  0  0  0  0  0
   -1.7832    2.2663   -1.6748 H   0  0  0  0  0  0  0  0  0  0  0  0
   -0.7569    1.6178   -2.9547 H   0  0  0  0  0  0  0  0  0  0  0  0
   -0.2491    0.9477   -0.5812 H   0  0  0  0  0  0  0  0  0  0  0  0
    2.2138    0.2891    0.4556 H   0  0  0  0  0  0  0  0  0  0  0  0
    1.9230   -1.7861    1.1884 H   0  0  0  0  0  0  0  0  0  0  0  0
    3.0030   -3.6751    0.6387 H   0  0  0  0  0  0  0  0  0  0  0  0
    3.3759   -3.2654   -1.0468 H   0  0  0  0  0  0  0  0  0  0  0  0
    4.2061   -2.4336    0.3975 H   0  0  0  0  0  0  0  0  0  0  0  0
    0.0027   -1.7164   -0.2019 H   0  0  0  0  0  0  0  0  0  0  0  0
    1.6745   -2.7109   -2.3465 H   0  0  0  0  0  0  0  0  0  0  0  0
    1.6491   -4.3261   -0.5742 H   0  0  0  0  0  0  0  0  0  0  0  0
   -0.0693   -4.1217   -1.1550 H   0  0  0  0  0  0  0  0  0  0  0  0
    5.1970   -1.8412   -1.5873 H   0  0  0  0  0  0  0  0  0  0  0  0
    3.7395   -1.3460   -2.4174 H   0  0  0  0  0  0  0  0  0  0  0  0
    5.0670   -0.2125   -2.4887 H   0  0  0  0  0  0  0  0  0  0  0  0
    4.1021    1.0260    0.9205 H   0  0  0  0  0  0  0  0  0  0  0  0
    7.0867   -0.9451   -0.8894 H   0  0  0  0  0  0  0  0  0  0  0  0
    7.1099    0.6114   -1.9116 H   0  0  0  0  0  0  0  0  0  0  0  0
    8.1718    0.3602   -0.5446 H   0  0  0  0  0  0  0  0  0  0  0  0
    5.8817    2.1077    1.6134 H   0  0  0  0  0  0  0  0  0  0  0  0
    8.7684    1.7766    0.3796 H   0  0  0  0  0  0  0  0  0  0  0  0
    7.4780    3.3540    2.6108 H   0  0  0  0  0  0  0  0  0  0  0  0
   10.1792    3.4677    1.1192 H   0  0  0  0  0  0  0  0  0  0  0  0
   10.1971    2.7479    2.7485 H   0  0  0  0  0  0  0  0  0  0  0  0
    9.7374    4.5170    2.4953 H   0  0  0  0  0  0  0  0  0  0  0  0
  1  2  1  0
  2  3  1  0
  3  4  1  0
  4  5  2  0
  5  6  1  0
  5  7  1  0
  7  8  1  0
  8  9  1  0
  8 10  1  0
 10 11  1  0
 11 12  1  0
 12 13  1  0
 11 14  1  0
 14 15  1  0
 15 16  1  0
 16 17  1  1
 16 18  1  0
 18 19  1  0
 18 20  1  0
 20 21  1  0
 21 22  1  0
 22 23  1  0
 16 24  1  0
 24 25  2  0
 24 26  1  0
 26 27  2  0
 26 28  1  0
 28 29  1  0
 29 30  1  0
 30 31  1  0
 31 32  1  0
 32 33  1  0
 33 34  1  0
 34 35  2  0
 34 36  1  0
 36 37  1  0
 37 38  1  0
 38 39  1  0
 38 40  1  0
 40 41  1  0
 40 42  1  0
 42 43  1  0
 43 44  2  0
 37 45  1  0
 45 46  1  0
 45 47  2  0
 47 48  1  0
 48 49  1  0
 48 50  2  0
 50 51  1  0
 51 52  2  0
 52 53  1  0
 43  3  1  0
 21 14  1  0
 33 28  1  0
  1 54  1  0
  1 55  1  0
  1 56  1  0
  2 57  1  0
  2 58  1  0
  3 59  1  1
  4 60  1  0
  6 61  1  0
  6 62  1  0
  6 63  1  0
  7 64  1  0
  7 65  1  0
  8 66  1  6
  9 67  1  0
  9 68  1  0
  9 69  1  0
 10 70  1  0
 10 71  1  0
 11 72  1  1
 13 73  1  0
 13 74  1  0
 13 75  1  0
 14 76  1  1
 17 77  1  0
 18 78  1  6
 19 79  1  0
 19 80  1  0
 19 81  1  0
 20 82  1  0
 20 83  1  0
 21 84  1  6
 23 85  1  0
 23 86  1  0
 23 87  1  0
 29 88  1  0
 29 89  1  0
 30 90  1  0
 30 91  1  0
 31 92  1  0
 31 93  1  0
 32 94  1  0
 32 95  1  0
 33 96  1  1
 37 97  1  1
 38 98  1  1
 39 99  1  0
 39100  1  0
 39101  1  0
 40102  1  1
 41103  1  0
 42104  1  0
 42105  1  0
 46106  1  0
 46107  1  0
 46108  1  0
 47109  1  0
 49110  1  0
 49111  1  0
 49112  1  0
 50113  1  0
 51114  1  0
 52115  1  0
 53116  1  0
 53117  1  0
 53118  1  0
M  END
$$$$
[H]OC([H])([H])[C@@]1([H])N(C(=O)c2c([H])c(C(=O)N([H])S(=O)(=O)c3c([H])c([H])c4c([H])c([H])c([H])c([H])c4c3[H])c([H])c([H])c2-n2nc(C(=O)N(C([H])([H])C([H])([H])C([H])([H])C([H])([H])[H])C([H])([H])C([H])([H])C([H])([H])C([H])([H])[H])c(Cl)c2C([H])([H])[H])C([H])([H])c2c([H])c([H])c([H])c([H])c2C1([H])[H]
     RDKit          3D

 98103  0  0  0  0  0  0  0  0999 V2000
    3.4141    0.2967    3.6717 C   0  0  0  0  0  0  0  0  0  0  0  0
    3.7437   -0.7913    2.6550 C   0  0  0  0  0  0  0  0  0  0  0  0
    4.5189   -0.1410    1.5002 C   0  0  0  0  0  0  0  0  0  0  0  0
    4.8311   -1.2535    0.5376 C   0  0  0  0  0  0  0  0  0  0  0  0
    5.5793   -0.8943   -0.6212 N   0  0  0  0  0  0  0  0  0  0  0  0
    7.0385   -1.0666   -0.5277 C   0  0  0  0  0  0  0  0  0  0  0  0
    7.6931    0.2156   -0.1775 C   0  0  0  0  0  0  0  0  0  0  0  0
    9.2136    0.0527   -0.0844 C   0  0  0  0  0  0  0  0  0  0  0  0
    9.5766   -0.9636    0.9566 C   0  0  0  0  0  0  0  0  0  0  0  0
    5.0991   -0.4885   -1.8765 C   0  0  0  0  0  0  0  0  0  0  0  0
    5.9988   -0.1635   -2.7419 O   0  0  0  0  0  0  0  0  0  0  0  0
    3.7277   -0.3967   -2.3203 C   0  0  0  0  0  0  0  0  0  0  0  0
    2.5612   -0.6600   -1.6736 N   0  0  0  0  0  0  0  0  0  0  0  0
    1.5443   -0.5037   -2.4557 N   0  0  0  0  0  0  0  0  0  0  0  0
    1.9952   -0.1219   -3.6723 C   0  0  0  0  0  0  0  0  0  0  0  0
    1.1889    0.1626   -4.9094 C   0  0  0  0  0  0  0  0  0  0  0  0
    3.3684   -0.0455   -3.6164 C   0  0  0  0  0  0  0  0  0  0  0  0
    4.4259    0.4171   -4.9613 Cl  0  0  0  0  0  0  0  0  0  0  0  0
    0.1228   -0.7076   -2.2747 C   0  0  0  0  0  0  0  0  0  0  0  0
   -0.3815   -1.9689   -2.6274 C   0  0  0  0  0  0  0  0  0  0  0  0
   -1.7215   -2.2447   -2.5384 C   0  0  0  0  0  0  0  0  0  0  0  0
   -2.6263   -1.2950   -2.0992 C   0  0  0  0  0  0  0  0  0  0  0  0
   -2.1057   -0.0700   -1.7596 C   0  0  0  0  0  0  0  0  0  0  0  0
   -0.7623    0.2269   -1.8410 C   0  0  0  0  0  0  0  0  0  0  0  0
   -0.3158    1.5435   -1.4313 C   0  0  0  0  0  0  0  0  0  0  0  0
   -0.2279    2.3490   -2.4330 O   0  0  0  0  0  0  0  0  0  0  0  0
    0.0031    1.9993   -0.1555 N   0  0  0  0  0  0  0  0  0  0  0  0
    0.4462    3.4205   -0.0727 C   0  0  0  0  0  0  0  0  0  0  0  0
   -0.2814    4.0868    1.0447 C   0  0  0  0  0  0  0  0  0  0  0  0
   -0.1373    5.4444    1.2102 C   0  0  0  0  0  0  0  0  0  0  0  0
   -0.7837    6.1303    2.2329 C   0  0  0  0  0  0  0  0  0  0  0  0
   -1.5818    5.4319    3.0924 C   0  0  0  0  0  0  0  0  0  0  0  0
   -1.7238    4.0526    2.9175 C   0  0  0  0  0  0  0  0  0  0  0  0
   -1.0901    3.3701    1.9128 C   0  0  0  0  0  0  0  0  0  0  0  0
   -1.3016    1.9016    1.8090 C   0  0  0  0  0  0  0  0  0  0  0  0
   -0.0366    1.3725    1.1049 C   0  0  1  0  0  0  0  0  0  0  0  0
    0.1181   -0.0827    1.2314 C   0  0  0  0  0  0  0  0  0  0  0  0
    0.0357   -0.4199    2.6193 O   0  0  0  0  0  0  0  0  0  0  0  0
   -4.0549   -1.6069   -2.0125 C   0  0  0  0  0  0  0  0  0  0  0  0
   -4.7615   -0.9197   -1.2272 O   0  0  0  0  0  0  0  0  0  0  0  0
   -4.6560   -2.6355   -2.7675 N   0  0  0  0  0  0  0  0  0  0  0  0
   -6.2974   -3.0979   -2.7513 S   0  0  0  0  0  0  0  0  0  0  0  0
   -6.4556   -4.5924   -2.5479 O   0  0  0  0  0  0  0  0  0  0  0  0
   -6.9775   -2.7782   -4.0612 O   0  0  0  0  0  0  0  0  0  0  0  0
   -7.1191   -2.3293   -1.4192 C   0  0  0  0  0  0  0  0  0  0  0  0
   -7.7849   -1.1254   -1.5460 C   0  0  0  0  0  0  0  0  0  0  0  0
   -8.4466   -0.5413   -0.4810 C   0  0  0  0  0  0  0  0  0  0  0  0
   -8.4698   -1.1454    0.7708 C   0  0  0  0  0  0  0  0  0  0  0  0
   -9.1307   -0.5755    1.8370 C   0  0  0  0  0  0  0  0  0  0  0  0
   -9.1490   -1.1991    3.0878 C   0  0  0  0  0  0  0  0  0  0  0  0
   -8.4836   -2.4014    3.2171 C   0  0  0  0  0  0  0  0  0  0  0  0
   -7.8266   -2.9598    2.1438 C   0  0  0  0  0  0  0  0  0  0  0  0
   -7.8123   -2.3405    0.9112 C   0  0  0  0  0  0  0  0  0  0  0  0
   -7.1462   -2.9220   -0.1742 C   0  0  0  0  0  0  0  0  0  0  0  0
    2.9784    1.1866    3.1871 H   0  0  0  0  0  0  0  0  0  0  0  0
    4.3854    0.5673    4.1776 H   0  0  0  0  0  0  0  0  0  0  0  0
    2.7542   -0.1687    4.4379 H   0  0  0  0  0  0  0  0  0  0  0  0
    4.4309   -1.5444    3.0904 H   0  0  0  0  0  0  0  0  0  0  0  0
    2.8641   -1.3290    2.3019 H   0  0  0  0  0  0  0  0  0  0  0  0
    3.8200    0.5946    1.0432 H   0  0  0  0  0  0  0  0  0  0  0  0
    5.4080    0.3315    1.9101 H   0  0  0  0  0  0  0  0  0  0  0  0
    5.3849   -2.0854    1.0686 H   0  0  0  0  0  0  0  0  0  0  0  0
    3.8442   -1.7157    0.2798 H   0  0  0  0  0  0  0  0  0  0  0  0
    7.2892   -1.8537    0.2171 H   0  0  0  0  0  0  0  0  0  0  0  0
    7.4047   -1.4838   -1.5007 H   0  0  0  0  0  0  0  0  0  0  0  0
    7.3127    0.6997    0.7255 H   0  0  0  0  0  0  0  0  0  0  0  0
    7.5063    0.9333   -1.0309 H   0  0  0  0  0  0  0  0  0  0  0  0
    9.6048    1.0373    0.2564 H   0  0  0  0  0  0  0  0  0  0  0  0
    9.5698   -0.2563   -1.0798 H   0  0  0  0  0  0  0  0  0  0  0  0
    8.7468   -1.0179    1.6976 H   0  0  0  0  0  0  0  0  0  0  0  0
   10.5562   -0.7498    1.4115 H   0  0  0  0  0  0  0  0  0  0  0  0
    9.6578   -1.9980    0.5268 H   0  0  0  0  0  0  0  0  0  0  0  0
    0.1217    0.0607   -4.6460 H   0  0  0  0  0  0  0  0  0  0  0  0
    1.4396   -0.6388   -5.6356 H   0  0  0  0  0  0  0  0  0  0  0  0
    1.3621    1.1683   -5.2928 H   0  0  0  0  0  0  0  0  0  0  0  0
    0.3403   -2.7151   -2.9739 H   0  0  0  0  0  0  0  0  0  0  0  0
   -2.0983   -3.2379   -2.8159 H   0  0  0  0  0  0  0  0  0  0  0  0
   -2.8378    0.6718   -1.4157 H   0  0  0  0  0  0  0  0  0  0  0  0
    0.2894    3.9564   -1.0022 H   0  0  0  0  0  0  0  0  0  0  0  0
    1.5456    3.3695    0.1249 H   0  0  0  0  0  0  0  0  0  0  0  0
    0.4854    6.0692    0.5599 H   0  0  0  0  0  0  0  0  0  0  0  0
   -0.6787    7.1966    2.3751 H   0  0  0  0  0  0  0  0  0  0  0  0
   -2.1132    5.8930    3.9047 H   0  0  0  0  0  0  0  0  0  0  0  0
   -2.3599    3.4856    3.5994 H   0  0  0  0  0  0  0  0  0  0  0  0
   -1.4251    1.4292    2.8042 H   0  0  0  0  0  0  0  0  0  0  0  0
   -2.2095    1.7349    1.2305 H   0  0  0  0  0  0  0  0  0  0  0  0
    0.7828    1.8135    1.7772 H   0  0  0  0  0  0  0  0  0  0  0  0
   -0.6331   -0.7333    0.7829 H   0  0  0  0  0  0  0  0  0  0  0  0
    1.1556   -0.3488    0.9678 H   0  0  0  0  0  0  0  0  0  0  0  0
   -0.8216   -0.8089    2.8476 H   0  0  0  0  0  0  0  0  0  0  0  0
   -4.0202   -3.1807   -3.4212 H   0  0  0  0  0  0  0  0  0  0  0  0
   -7.7485   -0.6746   -2.5433 H   0  0  0  0  0  0  0  0  0  0  0  0
   -8.9605    0.4005   -0.6061 H   0  0  0  0  0  0  0  0  0  0  0  0
   -9.6581    0.3785    1.7296 H   0  0  0  0  0  0  0  0  0  0  0  0
   -9.6621   -0.7775    3.9444 H   0  0  0  0  0  0  0  0  0  0  0  0
   -8.4615   -2.9270    4.1558 H   0  0  0  0  0  0  0  0  0  0  0  0
   -7.3138   -3.8934    2.2620 H   0  0  0  0  0  0  0  0  0  0  0  0
   -6.6342   -3.8644   -0.0382 H   0  0  0  0  0  0  0  0  0  0  0  0
  1  2  1  0
  2  3  1  0
  3  4  1  0
  4  5  1  0
  5  6  1  0
  6  7  1  0
  7  8  1  0
  8  9  1  0
  5 10  1  0
 10 11  2  0
 10 12  1  0
 12 13  2  0
 13 14  1  0
 14 15  1  0
 15 16  1  0
 15 17  2  0
 17 18  1  0
 14 19  1  0
 19 20  2  0
 20 21  1  0
 21 22  2  0
 22 23  1  0
 23 24  2  0
 24 25  1  0
 25 26  2  0
 25 27  1  0
 27 28  1  0
 28 29  1  0
 29 30  2  0
 30 31  1  0
 31 32  2  0
 32 33  1  0
 33 34  2  0
 34 35  1  0
 35 36  1  0
 36 37  1  0
 37 38  1  0
 22 39  1  0
 39 40  2  0
 39 41  1  0
 41 42  1  0
 42 43  2  0
 42 44  2  0
 42 45  1  0
 45 46  2  0
 46 47  1  0
 47 48  2  0
 48 49  1  0
 49 50  2  0
 50 51  1  0
 51 52  2  0
 52 53  1  0
 53 54  2  0
 17 12  1  0
 24 19  1  0
 36 27  1  0
 54 45  1  0
 34 29  1  0
 53 48  1  0
  1 55  1  0
  1 56  1  0
  1 57  1  0
  2 58  1  0
  2 59  1  0
  3 60  1  0
  3 61  1  0
  4 62  1  0
  4 63  1  0
  6 64  1  0
  6 65  1  0
  7 66  1  0
  7 67  1  0
  8 68  1  0
  8 69  1  0
  9 70  1  0
  9 71  1  0
  9 72  1  0
 16 73  1  0
 16 74  1  0
 16 75  1  0
 20 76  1  0
 21 77  1  0
 23 78  1  0
 28 79  1  0
 28 80  1  0
 30 81  1  0
 31 82  1  0
 32 83  1  0
 33 84  1  0
 35 85  1  0
 35 86  1  0
 36 87  1  1
 37 88  1  0
 37 89  1  0
 38 90  1  0
 41 91  1  0
 46 92  1  0
 47 93  1  0
 49 94  1  0
 50 95  1  0
 51 96  1  0
 52 97  1  0
 54 98  1  0
M  END
$$$$
[H]c1c([H])c([H])c2c(c1[H])c1c3c(c4c5c([H])c([H])c([H])c([H])c5n5c4c1n2[C@@]1([H])O[C@@]5(C([H])([H])[H])[C@]([H])(OC([H])([H])[H])[C@]([H])(OC([H])([H])[H])C1([H])[H])C([H])([H])N([H])C3=O
     RDKit          3D

 60 67  0  0  0  0  0  0  0  0999 V2000
   -3.6019   -1.8538   -1.0197 C   0  0  0  0  0  0  0  0  0  0  0  0
   -2.6615   -0.8725   -0.9101 O   0  0  0  0  0  0  0  0  0  0  0  0
   -2.5437   -0.2402    0.3020 C   0  0  2  0  0  0  0  0  0  0  0  0
   -3.1612    1.1791    0.3284 C   0  0  1  0  0  0  0  0  0  0  0  0
   -2.0837    2.3064    0.1624 C   0  0  0  0  0  0  0  0  0  0  0  0
   -0.9086    1.5925    0.1992 C   0  0  2  0  0  0  0  0  0  0  0  0
   -0.9406    0.9245    1.4150 O   0  0  0  0  0  0  0  0  0  0  0  0
   -1.3534   -0.4164    1.1068 C   0  0  1  0  0  0  0  0  0  0  0  0
   -1.7030   -0.9149    2.5493 C   0  0  0  0  0  0  0  0  0  0  0  0
   -0.1608   -1.0755    0.6558 N   0  0  0  0  0  0  0  0  0  0  0  0
    0.0687   -2.3911    0.8018 C   0  0  0  0  0  0  0  0  0  0  0  0
   -0.6791   -3.4644    1.2258 C   0  0  0  0  0  0  0  0  0  0  0  0
   -0.1448   -4.7524    1.2569 C   0  0  0  0  0  0  0  0  0  0  0  0
    1.1496   -5.0238    0.8687 C   0  0  0  0  0  0  0  0  0  0  0  0
    1.9049   -3.9519    0.4417 C   0  0  0  0  0  0  0  0  0  0  0  0
    1.3685   -2.6903    0.4155 C   0  0  0  0  0  0  0  0  0  0  0  0
    1.9469   -1.5326    0.0193 C   0  0  0  0  0  0  0  0  0  0  0  0
    3.1957   -1.1284   -0.4347 C   0  0  0  0  0  0  0  0  0  0  0  0
    4.3928   -1.9466   -0.6803 C   0  0  0  0  0  0  0  0  0  0  0  0
    5.3943   -1.0303   -1.1344 N   0  0  0  0  0  0  0  0  0  0  0  0
    4.8485    0.3093   -1.1758 C   0  0  0  0  0  0  0  0  0  0  0  0
    5.5630    1.2467   -1.5459 O   0  0  0  0  0  0  0  0  0  0  0  0
    3.4970    0.2083   -0.7393 C   0  0  0  0  0  0  0  0  0  0  0  0
    2.5288    1.1840   -0.5948 C   0  0  0  0  0  0  0  0  0  0  0  0
    2.4250    2.5189   -0.8278 C   0  0  0  0  0  0  0  0  0  0  0  0
    3.3027    3.4752   -1.2712 C   0  0  0  0  0  0  0  0  0  0  0  0
    2.8869    4.7855   -1.4102 C   0  0  0  0  0  0  0  0  0  0  0  0
    1.5851    5.1325   -1.1019 C   0  0  0  0  0  0  0  0  0  0  0  0
    0.6661    4.1812   -0.6474 C   0  0  0  0  0  0  0  0  0  0  0  0
    1.1203    2.8656   -0.5185 C   0  0  0  0  0  0  0  0  0  0  0  0
    0.4367    1.8159   -0.1124 N   0  0  0  0  0  0  0  0  0  0  0  0
    1.3041    0.7599   -0.1459 C   0  0  0  0  0  0  0  0  0  0  0  0
    1.0197   -0.5756    0.1626 C   0  0  0  0  0  0  0  0  0  0  0  0
   -4.0925    1.2536   -0.7006 O   0  0  0  0  0  0  0  0  0  0  0  0
   -5.3811    1.5368   -0.1915 C   0  0  0  0  0  0  0  0  0  0  0  0
   -3.4534   -2.7037   -0.3166 H   0  0  0  0  0  0  0  0  0  0  0  0
   -3.5498   -2.2302   -2.0769 H   0  0  0  0  0  0  0  0  0  0  0  0
   -4.6156   -1.4187   -0.9198 H   0  0  0  0  0  0  0  0  0  0  0  0
   -3.3693   -0.7948    0.8926 H   0  0  0  0  0  0  0  0  0  0  0  0
   -3.6982    1.3593    1.2819 H   0  0  0  0  0  0  0  0  0  0  0  0
   -2.3108    2.7863   -0.8351 H   0  0  0  0  0  0  0  0  0  0  0  0
   -2.3393    3.0866    0.9052 H   0  0  0  0  0  0  0  0  0  0  0  0
   -1.1415    0.8661   -0.7065 H   0  0  0  0  0  0  0  0  0  0  0  0
   -0.9003   -1.5041    2.9749 H   0  0  0  0  0  0  0  0  0  0  0  0
   -1.9107   -0.0371    3.2175 H   0  0  0  0  0  0  0  0  0  0  0  0
   -2.6850   -1.4232    2.4723 H   0  0  0  0  0  0  0  0  0  0  0  0
   -1.7072   -3.3353    1.5377 H   0  0  0  0  0  0  0  0  0  0  0  0
   -0.7661   -5.5673    1.5971 H   0  0  0  0  0  0  0  0  0  0  0  0
    1.5190   -6.0278    0.9089 H   0  0  0  0  0  0  0  0  0  0  0  0
    2.9317   -4.1377    0.1287 H   0  0  0  0  0  0  0  0  0  0  0  0
    4.1343   -2.6566   -1.5129 H   0  0  0  0  0  0  0  0  0  0  0  0
    4.6958   -2.5123    0.2201 H   0  0  0  0  0  0  0  0  0  0  0  0
    6.3659   -1.3160   -1.3905 H   0  0  0  0  0  0  0  0  0  0  0  0
    4.3117    3.2844   -1.5248 H   0  0  0  0  0  0  0  0  0  0  0  0
    3.5379    5.5764   -1.7553 H   0  0  0  0  0  0  0  0  0  0  0  0
    1.2249    6.1482   -1.1986 H   0  0  0  0  0  0  0  0  0  0  0  0
   -0.3378    4.4200   -0.4040 H   0  0  0  0  0  0  0  0  0  0  0  0
   -5.6557    0.7167    0.5043 H   0  0  0  0  0  0  0  0  0  0  0  0
   -5.4107    2.5072    0.3180 H   0  0  0  0  0  0  0  0  0  0  0  0
   -6.0590    1.4986   -1.0669 H   0  0  0  0  0  0  0  0  0  0  0  0
  1  2  1  0
  2  3  1  0
  3  4  1  0
  4  5  1  0
  5  6  1  0
  6  7  1  0
  7  8  1  0
  8  9  1  1
  8 10  1  0
 10 11  1  0
 11 12  2  0
 12 13  1  0
 13 14  2  0
 14 15  1  0
 15 16  2  0
 16 17  1  0
 17 18  2  0
 18 19  1  0
 19 20  1  0
 20 21  1  0
 21 22  2  0
 21 23  1  0
 23 24  2  0
 24 25  1  0
 25 26  2  0
 26 27  1  0
 27 28  2  0
 28 29  1  0
 29 30  2  0
 30 31  1  0
 31 32  1  0
 32 33  2  0
  4 34  1  0
 34 35  1  0
  8  3  1  0
 33 10  1  0
 31  6  1  0
 16 11  1  0
 33 17  1  0
 23 18  1  0
 32 24  1  0
 30 25  1  0
  1 36  1  0
  1 37  1  0
  1 38  1  0
  3 39  1  1
  4 40  1  1
  5 41  1  0
  5 42  1  0
  6 43  1  6
  9 44  1  0
  9 45  1  0
  9 46  1  0
 12 47  1  0
 13 48  1  0
 14 49  1  0
 15 50  1  0
 19 51  1  0
 19 52  1  0
 20 53  1  0
 26 54  1  0
 27 55  1  0
 28 56  1  0
 29 57  1  0
 35 58  1  0
 35 59  1  0
 35 60  1  0
M  END
$$$$
[H]c1sc(C([H])([H])[H])nc1C#Cc1c([H])c([H])c([H])c(C([H])([H])[H])c1[H]
     RDKit          3D

 26 27  0  0  0  0  0  0  0  0999 V2000
    6.1434   -0.1530   -0.0156 C   0  0  0  0  0  0  0  0  0  0  0  0
    4.7815   -0.8200    0.0091 C   0  0  0  0  0  0  0  0  0  0  0  0
    3.5957   -0.2518   -0.0101 N   0  0  0  0  0  0  0  0  0  0  0  0
    2.5057   -0.9833    0.0166 C   0  0  0  0  0  0  0  0  0  0  0  0
    2.6904   -2.3456    0.0646 C   0  0  0  0  0  0  0  0  0  0  0  0
    4.3932   -2.4797    0.0680 S   0  0  0  0  0  0  0  0  0  0  0  0
    1.1238   -0.4493   -0.0011 C   0  0  0  0  0  0  0  0  0  0  0  0
    0.0074    0.0075   -0.0164 C   0  0  0  0  0  0  0  0  0  0  0  0
   -1.3116    0.5731   -0.0421 C   0  0  0  0  0  0  0  0  0  0  0  0
   -1.5143    1.9489   -0.1619 C   0  0  0  0  0  0  0  0  0  0  0  0
   -2.7692    2.5029   -0.1879 C   0  0  0  0  0  0  0  0  0  0  0  0
   -3.8489    1.6236   -0.0884 C   0  0  0  0  0  0  0  0  0  0  0  0
   -3.6574    0.2628    0.0303 C   0  0  0  0  0  0  0  0  0  0  0  0
   -4.8504   -0.6041    0.1308 C   0  0  0  0  0  0  0  0  0  0  0  0
   -2.3901   -0.2794    0.0549 C   0  0  0  0  0  0  0  0  0  0  0  0
    5.9660    0.9219   -0.0258 H   0  0  0  0  0  0  0  0  0  0  0  0
    6.6495   -0.4219    0.9299 H   0  0  0  0  0  0  0  0  0  0  0  0
    6.6794   -0.4620   -0.9181 H   0  0  0  0  0  0  0  0  0  0  0  0
    1.9137   -3.1332    0.0930 H   0  0  0  0  0  0  0  0  0  0  0  0
   -0.6334    2.5711   -0.2345 H   0  0  0  0  0  0  0  0  0  0  0  0
   -2.9193    3.5698   -0.2809 H   0  0  0  0  0  0  0  0  0  0  0  0
   -4.8272    2.0925   -0.1119 H   0  0  0  0  0  0  0  0  0  0  0  0
   -5.2160   -0.5520    1.1937 H   0  0  0  0  0  0  0  0  0  0  0  0
   -5.6513   -0.1391   -0.4842 H   0  0  0  0  0  0  0  0  0  0  0  0
   -4.6530   -1.6527   -0.1593 H   0  0  0  0  0  0  0  0  0  0  0  0
   -2.2077   -1.3469    0.1474 H   0  0  0  0  0  0  0  0  0  0  0  0
  1  2  1  0
  2  3  2  0
  3  4  1  0
  4  5  2  0
  5  6  1  0
  4  7  1  0
  7  8  3  0
  8  9  1  0
  9 10  2  0
 10 11  1  0
 11 12  2  0
 12 13  1  0
 13 14  1  0
 13 15  2  0
  6  2  1  0
 15  9  1  0
  1 16  1  0
  1 17  1  0
  1 18  1  0
  5 19  1  0
 10 20  1  0
 11 21  1  0
 12 22  1  0
 14 23  1  0
 14 24  1  0
 14 25  1  0
 15 26  1  0
M  END
$$$$
