[H]O[C@]1([H])C([H])([H])C([H])([H])[C@@]([H])(n2nc(C#Cc3c([H])c(N([H])C(=O)c4c([H])c([H])c([H])c(C(F)(F)F)c4[H])c([H])c([H])c3C([H])([H])[H])c3c(N([H])[H])nc([H])nc32)C([H])([H])C1([H])[H]
     RDKit          3D

 64 68  0  0  0  0  0  0  0  0999 V2000
    0.5142    4.0754   -1.3065 C   0  0  0  0  0  0  0  0  0  0  0  0
    1.5759    3.1408   -0.8449 C   0  0  0  0  0  0  0  0  0  0  0  0
    2.8176    3.7349   -0.6296 C   0  0  0  0  0  0  0  0  0  0  0  0
    3.9006    2.9528   -0.3384 C   0  0  0  0  0  0  0  0  0  0  0  0
    3.7270    1.5494   -0.2630 C   0  0  0  0  0  0  0  0  0  0  0  0
    4.9244    0.8383   -0.1020 N   0  0  0  0  0  0  0  0  0  0  0  0
    5.7296    0.6873    1.0615 C   0  0  0  0  0  0  0  0  0  0  0  0
    5.4888    1.0825    2.1913 O   0  0  0  0  0  0  0  0  0  0  0  0
    7.0011   -0.0180    0.7666 C   0  0  0  0  0  0  0  0  0  0  0  0
    8.0808    0.8440    0.6783 C   0  0  0  0  0  0  0  0  0  0  0  0
    9.3042    0.4000    0.2045 C   0  0  0  0  0  0  0  0  0  0  0  0
    9.4016   -0.9384   -0.1770 C   0  0  0  0  0  0  0  0  0  0  0  0
    8.3344   -1.7991   -0.0859 C   0  0  0  0  0  0  0  0  0  0  0  0
    7.1141   -1.3070    0.4018 C   0  0  0  0  0  0  0  0  0  0  0  0
    8.5033   -3.1874   -0.5710 C   0  0  0  0  0  0  0  0  0  0  0  0
    9.7641   -3.5779   -0.0826 F   0  0  0  0  0  0  0  0  0  0  0  0
    8.6338   -3.1256   -1.9682 F   0  0  0  0  0  0  0  0  0  0  0  0
    7.5088   -4.0170   -0.1745 F   0  0  0  0  0  0  0  0  0  0  0  0
    2.4801    1.0202   -0.4759 C   0  0  0  0  0  0  0  0  0  0  0  0
    1.3575    1.7853   -0.7693 C   0  0  0  0  0  0  0  0  0  0  0  0
    0.0158    1.2630   -0.7846 C   0  0  0  0  0  0  0  0  0  0  0  0
   -1.1363    0.8683   -0.6821 C   0  0  0  0  0  0  0  0  0  0  0  0
   -2.4916    0.4424   -0.4461 C   0  0  0  0  0  0  0  0  0  0  0  0
   -3.3385   -0.2939   -1.0852 N   0  0  0  0  0  0  0  0  0  0  0  0
   -4.5151   -0.3889   -0.4218 N   0  0  0  0  0  0  0  0  0  0  0  0
   -5.6129   -1.1507   -0.8958 C   0  0  1  0  0  0  0  0  0  0  0  0
   -5.2518   -2.6531   -0.8579 C   0  0  0  0  0  0  0  0  0  0  0  0
   -6.3472   -3.3961   -1.5840 C   0  0  0  0  0  0  0  0  0  0  0  0
   -7.6220   -3.2447   -0.7784 C   0  0  2  0  0  0  0  0  0  0  0  0
   -8.6458   -2.8408   -1.6375 O   0  0  0  0  0  0  0  0  0  0  0  0
   -7.4416   -2.1954    0.2987 C   0  0  0  0  0  0  0  0  0  0  0  0
   -6.9551   -0.8888   -0.3510 C   0  0  0  0  0  0  0  0  0  0  0  0
   -4.4249    0.3164    0.7078 C   0  0  0  0  0  0  0  0  0  0  0  0
   -5.2733    0.5630    1.7450 N   0  0  0  0  0  0  0  0  0  0  0  0
   -4.8521    1.3314    2.7553 C   0  0  0  0  0  0  0  0  0  0  0  0
   -3.6340    1.8758    2.8063 N   0  0  0  0  0  0  0  0  0  0  0  0
   -2.7608    1.6402    1.7778 C   0  0  0  0  0  0  0  0  0  0  0  0
   -1.4516    2.1741    1.8102 N   0  0  0  0  0  0  0  0  0  0  0  0
   -3.1830    0.8607    0.7467 C   0  0  0  0  0  0  0  0  0  0  0  0
    0.9172    4.6091   -2.2446 H   0  0  0  0  0  0  0  0  0  0  0  0
    0.2267    4.8042   -0.5639 H   0  0  0  0  0  0  0  0  0  0  0  0
   -0.4078    3.5381   -1.6286 H   0  0  0  0  0  0  0  0  0  0  0  0
    2.9401    4.7943   -0.6775 H   0  0  0  0  0  0  0  0  0  0  0  0
    4.9010    3.3897   -0.1334 H   0  0  0  0  0  0  0  0  0  0  0  0
    5.3082    0.2765   -0.9581 H   0  0  0  0  0  0  0  0  0  0  0  0
    8.0197    1.8783    0.9739 H   0  0  0  0  0  0  0  0  0  0  0  0
   10.1598    1.0709    0.1326 H   0  0  0  0  0  0  0  0  0  0  0  0
   10.3382   -1.2856   -0.5663 H   0  0  0  0  0  0  0  0  0  0  0  0
    6.2890   -2.0074    0.4758 H   0  0  0  0  0  0  0  0  0  0  0  0
    2.2816   -0.0613   -0.4380 H   0  0  0  0  0  0  0  0  0  0  0  0
   -5.6671   -0.9556   -2.0116 H   0  0  0  0  0  0  0  0  0  0  0  0
   -5.0845   -2.9975    0.1774 H   0  0  0  0  0  0  0  0  0  0  0  0
   -4.3042   -2.7505   -1.4527 H   0  0  0  0  0  0  0  0  0  0  0  0
   -6.4652   -2.9311   -2.5827 H   0  0  0  0  0  0  0  0  0  0  0  0
   -6.0849   -4.4657   -1.7305 H   0  0  0  0  0  0  0  0  0  0  0  0
   -7.8555   -4.1997   -0.2937 H   0  0  0  0  0  0  0  0  0  0  0  0
   -9.2116   -2.1516   -1.1959 H   0  0  0  0  0  0  0  0  0  0  0  0
   -8.4579   -2.0129    0.7461 H   0  0  0  0  0  0  0  0  0  0  0  0
   -6.8191   -2.5079    1.1413 H   0  0  0  0  0  0  0  0  0  0  0  0
   -7.1140   -0.0808    0.3473 H   0  0  0  0  0  0  0  0  0  0  0  0
   -7.7304   -0.7393   -1.1746 H   0  0  0  0  0  0  0  0  0  0  0  0
   -5.5148    1.5584    3.6172 H   0  0  0  0  0  0  0  0  0  0  0  0
   -1.2781    3.1079    1.4069 H   0  0  0  0  0  0  0  0  0  0  0  0
   -0.6264    1.6962    2.2143 H   0  0  0  0  0  0  0  0  0  0  0  0
  1  2  1  0
  2  3  2  0
  3  4  1  0
  4  5  2  0
  5  6  1  0
  6  7  1  0
  7  8  2  0
  7  9  1  0
  9 10  2  0
 10 11  1  0
 11 12  2  0
 12 13  1  0
 13 14  2  0
 13 15  1  0
 15 16  1  0
 15 17  1  0
 15 18  1  0
  5 19  1  0
 19 20  2  0
 20 21  1  0
 21 22  3  0
 22 23  1  0
 23 24  2  0
 24 25  1  0
 25 26  1  0
 26 27  1  0
 27 28  1  0
 28 29  1  0
 29 30  1  0
 29 31  1  0
 31 32  1  0
 25 33  1  0
 33 34  2  0
 34 35  1  0
 35 36  2  0
 36 37  1  0
 37 38  1  0
 37 39  2  0
 20  2  1  0
 39 23  1  0
 14  9  1  0
 32 26  1  0
 39 33  1  0
  1 40  1  0
  1 41  1  0
  1 42  1  0
  3 43  1  0
  4 44  1  0
  6 45  1  0
 10 46  1  0
 11 47  1  0
 12 48  1  0
 14 49  1  0
 19 50  1  0
 26 51  1  6
 27 52  1  0
 27 53  1  0
 28 54  1  0
 28 55  1  0
 29 56  1  1
 30 57  1  0
 31 58  1  0
 31 59  1  0
 32 60  1  0
 32 61  1  0
 35 62  1  0
 38 63  1  0
 38 64  1  0
M  END
$$$$
[H]OC(=O)[C@]([H])(N([H])[C@]1([H])C([H])([H])C([H])([H])[C@@]([H])(n2c([H])c(-c3c([H])c([H])c(Oc4c([H])c([H])c([H])c([H])c4[H])c([H])c3[H])c3c(N([H])[H])nc([H])nc32)C([H])([H])C1([H])[H])C([H])([H])c1c([H])c([H])c([H])c([H])c1[H]
     RDKit          3D

 74 79  0  0  0  0  0  0  0  0999 V2000
    4.1807   -2.7464    2.2574 N   0  0  0  0  0  0  0  0  0  0  0  0
    2.8041   -2.4171    2.4499 C   0  0  0  0  0  0  0  0  0  0  0  0
    2.1019   -2.9913    3.4537 N   0  0  0  0  0  0  0  0  0  0  0  0
    0.8130   -2.6651    3.6228 C   0  0  0  0  0  0  0  0  0  0  0  0
    0.2656   -1.7886    2.7998 N   0  0  0  0  0  0  0  0  0  0  0  0
    0.9025   -1.1699    1.7702 C   0  0  0  0  0  0  0  0  0  0  0  0
    0.5264   -0.2675    0.8515 N   0  0  0  0  0  0  0  0  0  0  0  0
    1.5908   -0.0097    0.0821 C   0  0  0  0  0  0  0  0  0  0  0  0
    2.6754   -0.7592    0.5092 C   0  0  0  0  0  0  0  0  0  0  0  0
    4.0160   -0.8111   -0.0623 C   0  0  0  0  0  0  0  0  0  0  0  0
    4.4404   -1.8370   -0.8878 C   0  0  0  0  0  0  0  0  0  0  0  0
    5.7337   -1.8442   -1.3946 C   0  0  0  0  0  0  0  0  0  0  0  0
    6.6313   -0.8411   -1.0960 C   0  0  0  0  0  0  0  0  0  0  0  0
    7.9313   -0.8334   -1.5955 O   0  0  0  0  0  0  0  0  0  0  0  0
    8.7703    0.2054   -1.2174 C   0  0  0  0  0  0  0  0  0  0  0  0
    8.8795    1.3840   -1.9233 C   0  0  0  0  0  0  0  0  0  0  0  0
    9.7191    2.4082   -1.5333 C   0  0  0  0  0  0  0  0  0  0  0  0
   10.4643    2.2106   -0.3878 C   0  0  0  0  0  0  0  0  0  0  0  0
   10.3640    1.0427    0.3212 C   0  0  0  0  0  0  0  0  0  0  0  0
    9.5158    0.0061   -0.0701 C   0  0  0  0  0  0  0  0  0  0  0  0
    6.1875    0.1678   -0.2732 C   0  0  0  0  0  0  0  0  0  0  0  0
    4.9151    0.1899    0.2344 C   0  0  0  0  0  0  0  0  0  0  0  0
    2.2478   -1.4972    1.5782 C   0  0  0  0  0  0  0  0  0  0  0  0
   -0.8156    0.2699    0.7667 C   0  0  1  0  0  0  0  0  0  0  0  0
   -0.9583    1.1516   -0.4256 C   0  0  0  0  0  0  0  0  0  0  0  0
   -2.3565    1.4431   -0.8896 C   0  0  0  0  0  0  0  0  0  0  0  0
   -3.3865    0.4230   -0.4953 C   0  0  1  0  0  0  0  0  0  0  0  0
   -2.6907   -0.8958   -0.3884 C   0  0  0  0  0  0  0  0  0  0  0  0
   -1.7543   -0.9083    0.7607 C   0  0  0  0  0  0  0  0  0  0  0  0
   -4.1329    0.8574    0.6157 N   0  0  0  0  0  0  0  0  0  0  0  0
   -5.5519    1.1068    0.4299 C   0  0  2  0  0  0  0  0  0  0  0  0
   -6.2824   -0.1290    0.0448 C   0  0  0  0  0  0  0  0  0  0  0  0
   -7.7349   -0.0551   -0.1393 C   0  0  0  0  0  0  0  0  0  0  0  0
   -8.4015    0.1174   -1.3261 C   0  0  0  0  0  0  0  0  0  0  0  0
   -9.7720    0.1694   -1.4186 C   0  0  0  0  0  0  0  0  0  0  0  0
  -10.5533    0.0477   -0.2952 C   0  0  0  0  0  0  0  0  0  0  0  0
   -9.9269   -0.1267    0.9187 C   0  0  0  0  0  0  0  0  0  0  0  0
   -8.5615   -0.1764    0.9963 C   0  0  0  0  0  0  0  0  0  0  0  0
   -5.9264    2.3692   -0.1661 C   0  0  0  0  0  0  0  0  0  0  0  0
   -7.0717    2.6898   -0.8786 O   0  0  0  0  0  0  0  0  0  0  0  0
   -5.1379    3.3895   -0.0681 O   0  0  0  0  0  0  0  0  0  0  0  0
    4.4912   -3.5758    1.7333 H   0  0  0  0  0  0  0  0  0  0  0  0
    4.8619   -2.0825    2.6898 H   0  0  0  0  0  0  0  0  0  0  0  0
    0.1869   -3.0953    4.4193 H   0  0  0  0  0  0  0  0  0  0  0  0
    1.6575    0.6701   -0.7598 H   0  0  0  0  0  0  0  0  0  0  0  0
    3.7382   -2.6378   -1.1315 H   0  0  0  0  0  0  0  0  0  0  0  0
    6.0221   -2.6706   -2.0427 H   0  0  0  0  0  0  0  0  0  0  0  0
    8.2536    1.4637   -2.8250 H   0  0  0  0  0  0  0  0  0  0  0  0
    9.7843    3.3197   -2.1037 H   0  0  0  0  0  0  0  0  0  0  0  0
   11.1437    2.9726   -0.0192 H   0  0  0  0  0  0  0  0  0  0  0  0
   10.9411    0.8599    1.2304 H   0  0  0  0  0  0  0  0  0  0  0  0
    9.4549   -0.9044    0.5017 H   0  0  0  0  0  0  0  0  0  0  0  0
    6.9050    0.9604   -0.0365 H   0  0  0  0  0  0  0  0  0  0  0  0
    4.6161    1.0206    0.8921 H   0  0  0  0  0  0  0  0  0  0  0  0
   -0.9692    0.8598    1.7028 H   0  0  0  0  0  0  0  0  0  0  0  0
   -0.3128    0.8032   -1.2568 H   0  0  0  0  0  0  0  0  0  0  0  0
   -0.5011    2.1427   -0.1234 H   0  0  0  0  0  0  0  0  0  0  0  0
   -2.6294    2.4852   -0.6646 H   0  0  0  0  0  0  0  0  0  0  0  0
   -2.3079    1.4249   -2.0264 H   0  0  0  0  0  0  0  0  0  0  0  0
   -4.0650    0.2781   -1.4117 H   0  0  0  0  0  0  0  0  0  0  0  0
   -2.0879   -1.0137   -1.3355 H   0  0  0  0  0  0  0  0  0  0  0  0
   -3.3557   -1.7673   -0.3668 H   0  0  0  0  0  0  0  0  0  0  0  0
   -2.3426   -0.9293    1.7091 H   0  0  0  0  0  0  0  0  0  0  0  0
   -1.2099   -1.8871    0.7204 H   0  0  0  0  0  0  0  0  0  0  0  0
   -3.7751    1.7635    1.0506 H   0  0  0  0  0  0  0  0  0  0  0  0
   -5.8666    1.2479    1.5468 H   0  0  0  0  0  0  0  0  0  0  0  0
   -5.8653   -0.6099   -0.8770 H   0  0  0  0  0  0  0  0  0  0  0  0
   -6.1315   -0.9559    0.8174 H   0  0  0  0  0  0  0  0  0  0  0  0
   -7.7840    0.2158   -2.2268 H   0  0  0  0  0  0  0  0  0  0  0  0
  -10.2510    0.3080   -2.3860 H   0  0  0  0  0  0  0  0  0  0  0  0
  -11.6507    0.0881   -0.3691 H   0  0  0  0  0  0  0  0  0  0  0  0
  -10.4950   -0.2278    1.8410 H   0  0  0  0  0  0  0  0  0  0  0  0
   -8.0477   -0.3163    1.9594 H   0  0  0  0  0  0  0  0  0  0  0  0
   -7.0692    2.9099   -1.8812 H   0  0  0  0  0  0  0  0  0  0  0  0
  1  2  1  0
  2  3  2  0
  3  4  1  0
  4  5  2  0
  5  6  1  0
  6  7  1  0
  7  8  1  0
  8  9  2  0
  9 10  1  0
 10 11  2  0
 11 12  1  0
 12 13  2  0
 13 14  1  0
 14 15  1  0
 15 16  2  0
 16 17  1  0
 17 18  2  0
 18 19  1  0
 19 20  2  0
 13 21  1  0
 21 22  2  0
  9 23  1  0
  7 24  1  0
 24 25  1  0
 25 26  1  0
 26 27  1  0
 27 28  1  0
 28 29  1  0
 27 30  1  0
 30 31  1  0
 31 32  1  0
 32 33  1  0
 33 34  2  0
 34 35  1  0
 35 36  2  0
 36 37  1  0
 37 38  2  0
 31 39  1  0
 39 40  1  0
 39 41  2  0
 23  2  1  0
 29 24  1  0
 38 33  1  0
 23  6  2  0
 22 10  1  0
 20 15  1  0
  1 42  1  0
  1 43  1  0
  4 44  1  0
  8 45  1  0
 11 46  1  0
 12 47  1  0
 16 48  1  0
 17 49  1  0
 18 50  1  0
 19 51  1  0
 20 52  1  0
 21 53  1  0
 22 54  1  0
 24 55  1  1
 25 56  1  0
 25 57  1  0
 26 58  1  0
 26 59  1  0
 27 60  1  6
 28 61  1  0
 28 62  1  0
 29 63  1  0
 29 64  1  0
 30 65  1  0
 31 66  1  1
 32 67  1  0
 32 68  1  0
 34 69  1  0
 35 70  1  0
 36 71  1  0
 37 72  1  0
 38 73  1  0
 40 74  1  0
M  END
$$$$
[H]c1nc(N([H])[H])c2c(-c3c([H])c([H])c(Oc4c([H])c([H])c([H])c([H])c4[H])c([H])c3[H])c([H])n([C@]3([H])C([H])([H])C([H])([H])[C@@]([H])(N4C([H])([H])C([H])([H])N(C([H])([H])[H])C([H])([H])C4([H])[H])C([H])([H])C3([H])[H])c2n1
     RDKit          3D

 70 75  0  0  0  0  0  0  0  0999 V2000
    7.7206    2.3289    0.1110 C   0  0  0  0  0  0  0  0  0  0  0  0
    8.0818    1.0714   -0.4668 N   0  0  0  0  0  0  0  0  0  0  0  0
    7.2921    0.6885   -1.6033 C   0  0  0  0  0  0  0  0  0  0  0  0
    5.8139    0.5826   -1.2937 C   0  0  0  0  0  0  0  0  0  0  0  0
    5.6296    0.3951    0.1131 N   0  0  0  0  0  0  0  0  0  0  0  0
    6.6147   -0.5157    0.6714 C   0  0  0  0  0  0  0  0  0  0  0  0
    8.0202    0.0188    0.5141 C   0  0  0  0  0  0  0  0  0  0  0  0
    4.3328   -0.0522    0.5021 C   0  0  1  0  0  0  0  0  0  0  0  0
    3.2240    0.8921    0.1777 C   0  0  0  0  0  0  0  0  0  0  0  0
    2.1730    0.3495   -0.7505 C   0  0  0  0  0  0  0  0  0  0  0  0
    1.6522   -1.0001   -0.3354 C   0  0  1  0  0  0  0  0  0  0  0  0
    2.5833   -1.7230    0.5909 C   0  0  0  0  0  0  0  0  0  0  0  0
    3.9959   -1.4540    0.0432 C   0  0  0  0  0  0  0  0  0  0  0  0
    0.2884   -0.9631    0.1421 N   0  0  0  0  0  0  0  0  0  0  0  0
   -0.7209   -0.2693   -0.3594 C   0  0  0  0  0  0  0  0  0  0  0  0
   -1.8800   -0.4868    0.3628 C   0  0  0  0  0  0  0  0  0  0  0  0
   -3.1416    0.1782    0.0621 C   0  0  0  0  0  0  0  0  0  0  0  0
   -3.8027    1.0104    0.9278 C   0  0  0  0  0  0  0  0  0  0  0  0
   -5.0028    1.6018    0.5980 C   0  0  0  0  0  0  0  0  0  0  0  0
   -5.6173    1.3985   -0.6193 C   0  0  0  0  0  0  0  0  0  0  0  0
   -6.8075    1.9556   -1.0064 O   0  0  0  0  0  0  0  0  0  0  0  0
   -8.0457    1.4251   -0.8336 C   0  0  0  0  0  0  0  0  0  0  0  0
   -8.2207    0.2071   -0.2284 C   0  0  0  0  0  0  0  0  0  0  0  0
   -9.4883   -0.2891   -0.0754 C   0  0  0  0  0  0  0  0  0  0  0  0
  -10.6021    0.3963   -0.5106 C   0  0  0  0  0  0  0  0  0  0  0  0
  -10.4256    1.6202   -1.1183 C   0  0  0  0  0  0  0  0  0  0  0  0
   -9.1520    2.1130   -1.2694 C   0  0  0  0  0  0  0  0  0  0  0  0
   -4.9536    0.5624   -1.4912 C   0  0  0  0  0  0  0  0  0  0  0  0
   -3.7590   -0.0356   -1.1817 C   0  0  0  0  0  0  0  0  0  0  0  0
   -1.5335   -1.3670    1.3544 C   0  0  0  0  0  0  0  0  0  0  0  0
   -2.2677   -1.9487    2.3615 C   0  0  0  0  0  0  0  0  0  0  0  0
   -3.6814   -1.6841    2.5180 N   0  0  0  0  0  0  0  0  0  0  0  0
   -1.6557   -2.8007    3.2052 N   0  0  0  0  0  0  0  0  0  0  0  0
   -0.3544   -3.0753    3.0623 C   0  0  0  0  0  0  0  0  0  0  0  0
    0.3699   -2.5117    2.0790 N   0  0  0  0  0  0  0  0  0  0  0  0
   -0.1723   -1.6575    1.2062 C   0  0  0  0  0  0  0  0  0  0  0  0
    7.0845    2.9458   -0.5508 H   0  0  0  0  0  0  0  0  0  0  0  0
    8.6670    2.9064    0.3046 H   0  0  0  0  0  0  0  0  0  0  0  0
    7.2604    2.2105    1.1280 H   0  0  0  0  0  0  0  0  0  0  0  0
    7.6470   -0.3134   -1.9277 H   0  0  0  0  0  0  0  0  0  0  0  0
    7.4812    1.4010   -2.4588 H   0  0  0  0  0  0  0  0  0  0  0  0
    5.3633    1.5607   -1.5850 H   0  0  0  0  0  0  0  0  0  0  0  0
    5.3510   -0.2072   -1.9042 H   0  0  0  0  0  0  0  0  0  0  0  0
    6.5955   -1.5124    0.1662 H   0  0  0  0  0  0  0  0  0  0  0  0
    6.3485   -0.7004    1.7315 H   0  0  0  0  0  0  0  0  0  0  0  0
    8.7234   -0.7786    0.1874 H   0  0  0  0  0  0  0  0  0  0  0  0
    8.3774    0.3426    1.5147 H   0  0  0  0  0  0  0  0  0  0  0  0
    4.3558   -0.1226    1.6316 H   0  0  0  0  0  0  0  0  0  0  0  0
    3.6709    1.7796   -0.3194 H   0  0  0  0  0  0  0  0  0  0  0  0
    2.6905    1.2883    1.0718 H   0  0  0  0  0  0  0  0  0  0  0  0
    2.6251    0.3119   -1.7625 H   0  0  0  0  0  0  0  0  0  0  0  0
    1.3660    1.1078   -0.8026 H   0  0  0  0  0  0  0  0  0  0  0  0
    1.6147   -1.6285   -1.2755 H   0  0  0  0  0  0  0  0  0  0  0  0
    2.6045   -1.3078    1.6201 H   0  0  0  0  0  0  0  0  0  0  0  0
    2.4313   -2.8178    0.5536 H   0  0  0  0  0  0  0  0  0  0  0  0
    4.7061   -2.2088    0.4293 H   0  0  0  0  0  0  0  0  0  0  0  0
    3.9116   -1.4731   -1.0579 H   0  0  0  0  0  0  0  0  0  0  0  0
   -0.6792    0.3885   -1.2174 H   0  0  0  0  0  0  0  0  0  0  0  0
   -3.3637    1.2272    1.9140 H   0  0  0  0  0  0  0  0  0  0  0  0
   -5.5334    2.2676    1.2897 H   0  0  0  0  0  0  0  0  0  0  0  0
   -7.4022   -0.3977    0.1426 H   0  0  0  0  0  0  0  0  0  0  0  0
   -9.6790   -1.2542    0.3996 H   0  0  0  0  0  0  0  0  0  0  0  0
  -11.6137   -0.0120   -0.3821 H   0  0  0  0  0  0  0  0  0  0  0  0
  -11.2638    2.1916   -1.4734 H   0  0  0  0  0  0  0  0  0  0  0  0
   -9.0634    3.0953   -1.7614 H   0  0  0  0  0  0  0  0  0  0  0  0
   -5.3970    0.3643   -2.4767 H   0  0  0  0  0  0  0  0  0  0  0  0
   -3.2266   -0.7038   -1.8764 H   0  0  0  0  0  0  0  0  0  0  0  0
   -4.3843   -2.0047    1.8318 H   0  0  0  0  0  0  0  0  0  0  0  0
   -3.9676   -1.1493    3.3625 H   0  0  0  0  0  0  0  0  0  0  0  0
    0.1910   -3.7586    3.7191 H   0  0  0  0  0  0  0  0  0  0  0  0
  1  2  1  0
  2  3  1  0
  3  4  1  0
  4  5  1  0
  5  6  1  0
  6  7  1  0
  5  8  1  0
  8  9  1  0
  9 10  1  0
 10 11  1  0
 11 12  1  0
 12 13  1  0
 11 14  1  0
 14 15  1  0
 15 16  2  0
 16 17  1  0
 17 18  2  0
 18 19  1  0
 19 20  2  0
 20 21  1  0
 21 22  1  0
 22 23  2  0
 23 24  1  0
 24 25  2  0
 25 26  1  0
 26 27  2  0
 20 28  1  0
 28 29  2  0
 16 30  1  0
 30 31  2  0
 31 32  1  0
 31 33  1  0
 33 34  2  0
 34 35  1  0
 35 36  2  0
  7  2  1  0
 13  8  1  0
 36 14  1  0
 29 17  1  0
 36 30  1  0
 27 22  1  0
  1 37  1  0
  1 38  1  0
  1 39  1  0
  3 40  1  0
  3 41  1  0
  4 42  1  0
  4 43  1  0
  6 44  1  0
  6 45  1  0
  7 46  1  0
  7 47  1  0
  8 48  1  1
  9 49  1  0
  9 50  1  0
 10 51  1  0
 10 52  1  0
 11 53  1  6
 12 54  1  0
 12 55  1  0
 13 56  1  0
 13 57  1  0
 15 58  1  0
 18 59  1  0
 19 60  1  0
 23 61  1  0
 24 62  1  0
 25 63  1  0
 26 64  1  0
 27 65  1  0
 28 66  1  0
 29 67  1  0
 32 68  1  0
 32 69  1  0
 34 70  1  0
M  END
$$$$
[H]OC(=O)[C@]([H])(N([H])[C@]1([H])C([H])([H])C([H])([H])[C@]([H])(n2c([H])c(-c3c([H])c([H])c(Oc4c([H])c([H])c([H])c([H])c4[H])c([H])c3[H])c3c(N([H])[H])nc([H])nc32)C([H])([H])C1([H])[H])C([H])([H])c1c([H])c([H])c([H])c([H])c1[H]
     RDKit          3D

 74 79  0  0  0  0  0  0  0  0999 V2000
    4.7715    2.4851   -0.7340 N   0  0  0  0  0  0  0  0  0  0  0  0
    3.3998    2.7396   -0.5002 C   0  0  0  0  0  0  0  0  0  0  0  0
    2.9145    4.0174   -0.4972 N   0  0  0  0  0  0  0  0  0  0  0  0
    1.6184    4.2569   -0.2522 C   0  0  0  0  0  0  0  0  0  0  0  0
    0.8175    3.2092   -0.0114 N   0  0  0  0  0  0  0  0  0  0  0  0
    1.2070    1.9290    0.0049 C   0  0  0  0  0  0  0  0  0  0  0  0
    0.5799    0.7464    0.2292 N   0  0  0  0  0  0  0  0  0  0  0  0
    1.5210   -0.2052    0.1125 C   0  0  0  0  0  0  0  0  0  0  0  0
    2.7563    0.3338   -0.1852 C   0  0  0  0  0  0  0  0  0  0  0  0
    3.9268   -0.4951   -0.3990 C   0  0  0  0  0  0  0  0  0  0  0  0
    4.3678   -1.3306    0.6272 C   0  0  0  0  0  0  0  0  0  0  0  0
    5.4380   -2.1762    0.5198 C   0  0  0  0  0  0  0  0  0  0  0  0
    6.1472   -2.2207   -0.6849 C   0  0  0  0  0  0  0  0  0  0  0  0
    7.2471   -3.0763   -0.8238 O   0  0  0  0  0  0  0  0  0  0  0  0
    8.4814   -2.5174   -0.4498 C   0  0  0  0  0  0  0  0  0  0  0  0
    8.9606   -2.6319    0.8401 C   0  0  0  0  0  0  0  0  0  0  0  0
   10.1681   -2.0888    1.2206 C   0  0  0  0  0  0  0  0  0  0  0  0
   10.9487   -1.4039    0.3137 C   0  0  0  0  0  0  0  0  0  0  0  0
   10.4795   -1.2848   -0.9735 C   0  0  0  0  0  0  0  0  0  0  0  0
    9.2569   -1.8333   -1.3625 C   0  0  0  0  0  0  0  0  0  0  0  0
    5.7398   -1.4111   -1.7174 C   0  0  0  0  0  0  0  0  0  0  0  0
    4.6394   -0.5591   -1.5694 C   0  0  0  0  0  0  0  0  0  0  0  0
    2.5618    1.6895   -0.2529 C   0  0  0  0  0  0  0  0  0  0  0  0
   -0.8328    0.6177    0.5309 C   0  0  2  0  0  0  0  0  0  0  0  0
   -1.7045    1.0839   -0.5936 C   0  0  0  0  0  0  0  0  0  0  0  0
   -3.0876    0.4876   -0.3573 C   0  0  0  0  0  0  0  0  0  0  0  0
   -3.5484    0.7758    1.0414 C   0  0  1  0  0  0  0  0  0  0  0  0
   -2.6590    1.8199    1.7452 C   0  0  0  0  0  0  0  0  0  0  0  0
   -1.2326    1.3226    1.8062 C   0  0  0  0  0  0  0  0  0  0  0  0
   -4.8535    1.2191    1.0902 N   0  0  0  0  0  0  0  0  0  0  0  0
   -5.9923    0.4618    0.7685 C   0  0  2  0  0  0  0  0  0  0  0  0
   -6.1391   -0.0501   -0.5881 C   0  0  0  0  0  0  0  0  0  0  0  0
   -7.3605   -0.8023   -0.8766 C   0  0  0  0  0  0  0  0  0  0  0  0
   -8.4227   -0.2145   -1.5189 C   0  0  0  0  0  0  0  0  0  0  0  0
   -9.5899   -0.8961   -1.8069 C   0  0  0  0  0  0  0  0  0  0  0  0
   -9.7077   -2.2184   -1.4413 C   0  0  0  0  0  0  0  0  0  0  0  0
   -8.6549   -2.8236   -0.7974 C   0  0  0  0  0  0  0  0  0  0  0  0
   -7.4912   -2.1243   -0.5166 C   0  0  0  0  0  0  0  0  0  0  0  0
   -7.1702    1.2051    1.2319 C   0  0  0  0  0  0  0  0  0  0  0  0
   -8.4163    0.6527    1.2455 O   0  0  0  0  0  0  0  0  0  0  0  0
   -7.0461    2.3851    1.6379 O   0  0  0  0  0  0  0  0  0  0  0  0
    5.1666    2.6478   -1.6824 H   0  0  0  0  0  0  0  0  0  0  0  0
    5.3896    2.1385    0.0277 H   0  0  0  0  0  0  0  0  0  0  0  0
    1.2190    5.2881   -0.2494 H   0  0  0  0  0  0  0  0  0  0  0  0
    1.3001   -1.2524    0.2431 H   0  0  0  0  0  0  0  0  0  0  0  0
    3.8240   -1.2989    1.5566 H   0  0  0  0  0  0  0  0  0  0  0  0
    5.7746   -2.8226    1.3231 H   0  0  0  0  0  0  0  0  0  0  0  0
    8.3535   -3.1689    1.5577 H   0  0  0  0  0  0  0  0  0  0  0  0
   10.5614   -2.1724    2.2441 H   0  0  0  0  0  0  0  0  0  0  0  0
   11.8906   -0.9876    0.6348 H   0  0  0  0  0  0  0  0  0  0  0  0
   11.0711   -0.7546   -1.6986 H   0  0  0  0  0  0  0  0  0  0  0  0
    8.9003   -1.7304   -2.3818 H   0  0  0  0  0  0  0  0  0  0  0  0
    6.2755   -1.4236   -2.6741 H   0  0  0  0  0  0  0  0  0  0  0  0
    4.3282    0.0591   -2.3977 H   0  0  0  0  0  0  0  0  0  0  0  0
   -1.0497   -0.4609    0.6914 H   0  0  0  0  0  0  0  0  0  0  0  0
   -1.3166    0.7278   -1.5789 H   0  0  0  0  0  0  0  0  0  0  0  0
   -1.7146    2.1748   -0.6554 H   0  0  0  0  0  0  0  0  0  0  0  0
   -2.9647   -0.6100   -0.5311 H   0  0  0  0  0  0  0  0  0  0  0  0
   -3.7207    0.9838   -1.1266 H   0  0  0  0  0  0  0  0  0  0  0  0
   -3.4026   -0.1345    1.7011 H   0  0  0  0  0  0  0  0  0  0  0  0
   -2.7393    2.8135    1.2702 H   0  0  0  0  0  0  0  0  0  0  0  0
   -2.9929    1.9434    2.7920 H   0  0  0  0  0  0  0  0  0  0  0  0
   -0.5874    2.2112    1.9161 H   0  0  0  0  0  0  0  0  0  0  0  0
   -1.1064    0.7078    2.7167 H   0  0  0  0  0  0  0  0  0  0  0  0
   -4.9833    2.2369    1.1860 H   0  0  0  0  0  0  0  0  0  0  0  0
   -5.9611   -0.4576    1.4649 H   0  0  0  0  0  0  0  0  0  0  0  0
   -6.1011    0.7958   -1.3423 H   0  0  0  0  0  0  0  0  0  0  0  0
   -5.3054   -0.7201   -0.9331 H   0  0  0  0  0  0  0  0  0  0  0  0
   -8.3494    0.8178   -1.8134 H   0  0  0  0  0  0  0  0  0  0  0  0
  -10.4218   -0.4323   -2.3111 H   0  0  0  0  0  0  0  0  0  0  0  0
  -10.6115   -2.7718   -1.6564 H   0  0  0  0  0  0  0  0  0  0  0  0
   -8.7845   -3.8780   -0.5203 H   0  0  0  0  0  0  0  0  0  0  0  0
   -6.7044   -2.6708   -0.0058 H   0  0  0  0  0  0  0  0  0  0  0  0
   -9.2769    1.1268    1.4295 H   0  0  0  0  0  0  0  0  0  0  0  0
  1  2  1  0
  2  3  2  0
  3  4  1  0
  4  5  2  0
  5  6  1  0
  6  7  1  0
  7  8  1  0
  8  9  2  0
  9 10  1  0
 10 11  2  0
 11 12  1  0
 12 13  2  0
 13 14  1  0
 14 15  1  0
 15 16  2  0
 16 17  1  0
 17 18  2  0
 18 19  1  0
 19 20  2  0
 13 21  1  0
 21 22  2  0
  9 23  1  0
  7 24  1  0
 24 25  1  0
 25 26  1  0
 26 27  1  0
 27 28  1  0
 28 29  1  0
 27 30  1  0
 30 31  1  0
 31 32  1  0
 32 33  1  0
 33 34  2  0
 34 35  1  0
 35 36  2  0
 36 37  1  0
 37 38  2  0
 31 39  1  0
 39 40  1  0
 39 41  2  0
 23  2  1  0
 29 24  1  0
 38 33  1  0
 23  6  2  0
 22 10  1  0
 20 15  1  0
  1 42  1  0
  1 43  1  0
  4 44  1  0
  8 45  1  0
 11 46  1  0
 12 47  1  0
 16 48  1  0
 17 49  1  0
 18 50  1  0
 19 51  1  0
 20 52  1  0
 21 53  1  0
 22 54  1  0
 24 55  1  1
 25 56  1  0
 25 57  1  0
 26 58  1  0
 26 59  1  0
 27 60  1  1
 28 61  1  0
 28 62  1  0
 29 63  1  0
 29 64  1  0
 30 65  1  0
 31 66  1  1
 32 67  1  0
 32 68  1  0
 34 69  1  0
 35 70  1  0
 36 71  1  0
 37 72  1  0
 38 73  1  0
 40 74  1  0
M  END
$$$$
[H]OC(=O)[C@@]([H])(N([H])[C@]1([H])C([H])([H])C([H])([H])[C@@]([H])(n2c([H])c(-c3c([H])c([H])c(Oc4c([H])c([H])c([H])c([H])c4[H])c([H])c3[H])c3c(N([H])[H])nc([H])nc32)C([H])([H])C1([H])[H])C([H])([H])c1c([H])c([H])c([H])c([H])c1[H]
     RDKit          3D

 74 79  0  0  0  0  0  0  0  0999 V2000
    4.1115   -2.7759    2.1999 N   0  0  0  0  0  0  0  0  0  0  0  0
    2.7386   -2.4592    2.3468 C   0  0  0  0  0  0  0  0  0  0  0  0
    1.9806   -3.0276    3.3100 N   0  0  0  0  0  0  0  0  0  0  0  0
    0.6828   -2.7335    3.4694 C   0  0  0  0  0  0  0  0  0  0  0  0
    0.1237   -1.8496    2.6478 N   0  0  0  0  0  0  0  0  0  0  0  0
    0.7923   -1.2247    1.6524 C   0  0  0  0  0  0  0  0  0  0  0  0
    0.4447   -0.3123    0.7296 N   0  0  0  0  0  0  0  0  0  0  0  0
    1.5091   -0.0449    0.0120 C   0  0  0  0  0  0  0  0  0  0  0  0
    2.5925   -0.7967    0.4646 C   0  0  0  0  0  0  0  0  0  0  0  0
    3.9381   -0.8223   -0.0835 C   0  0  0  0  0  0  0  0  0  0  0  0
    4.4151   -1.9077   -0.8027 C   0  0  0  0  0  0  0  0  0  0  0  0
    5.7070   -1.9188   -1.2746 C   0  0  0  0  0  0  0  0  0  0  0  0
    6.5594   -0.8598   -1.0486 C   0  0  0  0  0  0  0  0  0  0  0  0
    7.8859   -0.8503   -1.5214 O   0  0  0  0  0  0  0  0  0  0  0  0
    8.7289    0.1875   -1.1792 C   0  0  0  0  0  0  0  0  0  0  0  0
    8.8307    1.3180   -1.9229 C   0  0  0  0  0  0  0  0  0  0  0  0
    9.6934    2.3552   -1.5525 C   0  0  0  0  0  0  0  0  0  0  0  0
   10.4485    2.2197   -0.4127 C   0  0  0  0  0  0  0  0  0  0  0  0
   10.3634    1.0812    0.3601 C   0  0  0  0  0  0  0  0  0  0  0  0
    9.4911    0.0594   -0.0357 C   0  0  0  0  0  0  0  0  0  0  0  0
    6.1097    0.2385   -0.3343 C   0  0  0  0  0  0  0  0  0  0  0  0
    4.8199    0.2342    0.1291 C   0  0  0  0  0  0  0  0  0  0  0  0
    2.1377   -1.5444    1.5047 C   0  0  0  0  0  0  0  0  0  0  0  0
   -0.9352    0.1937    0.6417 C   0  0  1  0  0  0  0  0  0  0  0  0
   -1.1690    1.1892   -0.3966 C   0  0  0  0  0  0  0  0  0  0  0  0
   -2.1848    0.9141   -1.4646 C   0  0  0  0  0  0  0  0  0  0  0  0
   -3.3988    0.2652   -0.7803 C   0  0  1  0  0  0  0  0  0  0  0  0
   -2.9026   -1.0648   -0.3125 C   0  0  0  0  0  0  0  0  0  0  0  0
   -1.8167   -1.0032    0.6959 C   0  0  0  0  0  0  0  0  0  0  0  0
   -3.9677    1.1236    0.1924 N   0  0  0  0  0  0  0  0  0  0  0  0
   -5.3931    1.4510   -0.0732 C   0  0  1  0  0  0  0  0  0  0  0  0
   -6.1507    0.1519    0.0918 C   0  0  0  0  0  0  0  0  0  0  0  0
   -7.5865    0.1915   -0.1040 C   0  0  0  0  0  0  0  0  0  0  0  0
   -8.0998    0.0265   -1.3868 C   0  0  0  0  0  0  0  0  0  0  0  0
   -9.4684    0.0214   -1.5698 C   0  0  0  0  0  0  0  0  0  0  0  0
  -10.3079    0.1792   -0.4870 C   0  0  0  0  0  0  0  0  0  0  0  0
   -9.8219    0.3455    0.7976 C   0  0  0  0  0  0  0  0  0  0  0  0
   -8.4674    0.3478    0.9593 C   0  0  0  0  0  0  0  0  0  0  0  0
   -5.7934    2.4545    0.9041 C   0  0  0  0  0  0  0  0  0  0  0  0
   -7.0504    3.0016    0.8937 O   0  0  0  0  0  0  0  0  0  0  0  0
   -4.9790    2.8404    1.7786 O   0  0  0  0  0  0  0  0  0  0  0  0
    4.4844   -3.6638    1.7882 H   0  0  0  0  0  0  0  0  0  0  0  0
    4.7906   -2.0336    2.5436 H   0  0  0  0  0  0  0  0  0  0  0  0
    0.0802   -3.2078    4.2593 H   0  0  0  0  0  0  0  0  0  0  0  0
    1.5855    0.6317   -0.7986 H   0  0  0  0  0  0  0  0  0  0  0  0
    3.7418   -2.7552   -0.9867 H   0  0  0  0  0  0  0  0  0  0  0  0
    6.0695   -2.7788   -1.8402 H   0  0  0  0  0  0  0  0  0  0  0  0
    8.2245    1.3990   -2.8129 H   0  0  0  0  0  0  0  0  0  0  0  0
    9.7858    3.2568   -2.1286 H   0  0  0  0  0  0  0  0  0  0  0  0
   11.1244    3.0174   -0.1112 H   0  0  0  0  0  0  0  0  0  0  0  0
   10.9447    0.9690    1.2440 H   0  0  0  0  0  0  0  0  0  0  0  0
    9.4394   -0.8209    0.5810 H   0  0  0  0  0  0  0  0  0  0  0  0
    6.8013    1.0460   -0.1761 H   0  0  0  0  0  0  0  0  0  0  0  0
    4.4542    1.0853    0.6909 H   0  0  0  0  0  0  0  0  0  0  0  0
   -1.0494    0.7145    1.6462 H   0  0  0  0  0  0  0  0  0  0  0  0
   -0.2270    1.4403   -0.9454 H   0  0  0  0  0  0  0  0  0  0  0  0
   -1.4639    2.2029    0.0288 H   0  0  0  0  0  0  0  0  0  0  0  0
   -2.4466    1.8655   -1.9551 H   0  0  0  0  0  0  0  0  0  0  0  0
   -1.7462    0.1942   -2.1867 H   0  0  0  0  0  0  0  0  0  0  0  0
   -4.1387    0.0354   -1.6117 H   0  0  0  0  0  0  0  0  0  0  0  0
   -2.4776   -1.5627   -1.2433 H   0  0  0  0  0  0  0  0  0  0  0  0
   -3.7210   -1.7381    0.0264 H   0  0  0  0  0  0  0  0  0  0  0  0
   -2.2980   -1.1467    1.6975 H   0  0  0  0  0  0  0  0  0  0  0  0
   -1.2324   -1.9663    0.5484 H   0  0  0  0  0  0  0  0  0  0  0  0
   -3.9226    0.8378    1.1710 H   0  0  0  0  0  0  0  0  0  0  0  0
   -5.4792    1.8271   -1.1323 H   0  0  0  0  0  0  0  0  0  0  0  0
   -5.7328   -0.6048   -0.6350 H   0  0  0  0  0  0  0  0  0  0  0  0
   -5.8949   -0.3014    1.0872 H   0  0  0  0  0  0  0  0  0  0  0  0
   -7.4353   -0.0948   -2.2090 H   0  0  0  0  0  0  0  0  0  0  0  0
   -9.8451   -0.1131   -2.5945 H   0  0  0  0  0  0  0  0  0  0  0  0
  -11.3764    0.1764   -0.6198 H   0  0  0  0  0  0  0  0  0  0  0  0
  -10.4888    0.4723    1.6632 H   0  0  0  0  0  0  0  0  0  0  0  0
   -8.0097    0.4749    1.9513 H   0  0  0  0  0  0  0  0  0  0  0  0
   -7.1523    3.9463    0.5226 H   0  0  0  0  0  0  0  0  0  0  0  0
  1  2  1  0
  2  3  2  0
  3  4  1  0
  4  5  2  0
  5  6  1  0
  6  7  1  0
  7  8  1  0
  8  9  2  0
  9 10  1  0
 10 11  2  0
 11 12  1  0
 12 13  2  0
 13 14  1  0
 14 15  1  0
 15 16  2  0
 16 17  1  0
 17 18  2  0
 18 19  1  0
 19 20  2  0
 13 21  1  0
 21 22  2  0
  9 23  1  0
  7 24  1  0
 24 25  1  0
 25 26  1  0
 26 27  1  0
 27 28  1  0
 28 29  1  0
 27 30  1  0
 30 31  1  0
 31 32  1  0
 32 33  1  0
 33 34  2  0
 34 35  1  0
 35 36  2  0
 36 37  1  0
 37 38  2  0
 31 39  1  0
 39 40  1  0
 39 41  2  0
 23  2  1  0
 29 24  1  0
 38 33  1  0
 23  6  2  0
 22 10  1  0
 20 15  1  0
  1 42  1  0
  1 43  1  0
  4 44  1  0
  8 45  1  0
 11 46  1  0
 12 47  1  0
 16 48  1  0
 17 49  1  0
 18 50  1  0
 19 51  1  0
 20 52  1  0
 21 53  1  0
 22 54  1  0
 24 55  1  1
 25 56  1  0
 25 57  1  0
 26 58  1  0
 26 59  1  0
 27 60  1  6
 28 61  1  0
 28 62  1  0
 29 63  1  0
 29 64  1  0
 30 65  1  0
 31 66  1  6
 32 67  1  0
 32 68  1  0
 34 69  1  0
 35 70  1  0
 36 71  1  0
 37 72  1  0
 38 73  1  0
 40 74  1  0
M  END
$$$$
[H]c1nc2c(nc([H])c(=O)n2[H])c(Oc2c([H])c([H])c(N([H])C(=O)N([H])c3c([H])c(C(C([H])([H])[H])(C([H])([H])[H])C([H])([H])[H])nn3-c3c([H])c([H])c(OC([H])([H])[H])c([H])c3[H])c3c([H])c([H])c([H])c([H])c23)c1[H]
     RDKit          3D

 72 77  0  0  0  0  0  0  0  0999 V2000
   -5.1485    6.2319   -1.4754 C   0  0  0  0  0  0  0  0  0  0  0  0
   -5.2814    5.0522   -2.2976 O   0  0  0  0  0  0  0  0  0  0  0  0
   -5.0233    3.8127   -1.7209 C   0  0  0  0  0  0  0  0  0  0  0  0
   -4.6121    3.6866   -0.4155 C   0  0  0  0  0  0  0  0  0  0  0  0
   -4.3702    2.4664    0.1584 C   0  0  0  0  0  0  0  0  0  0  0  0
   -4.5135    1.3176   -0.5218 C   0  0  0  0  0  0  0  0  0  0  0  0
   -4.9297    1.4170   -1.8771 C   0  0  0  0  0  0  0  0  0  0  0  0
   -5.1767    2.6579   -2.4504 C   0  0  0  0  0  0  0  0  0  0  0  0
   -4.3540    0.0232    0.0620 N   0  0  0  0  0  0  0  0  0  0  0  0
   -5.4522   -0.7221    0.2962 N   0  0  0  0  0  0  0  0  0  0  0  0
   -5.1548   -1.8679    0.8495 C   0  0  0  0  0  0  0  0  0  0  0  0
   -3.7813   -1.8573    0.9863 C   0  0  0  0  0  0  0  0  0  0  0  0
   -3.2545   -0.6207    0.4671 C   0  0  0  0  0  0  0  0  0  0  0  0
   -1.8810   -0.4983    0.3884 N   0  0  0  0  0  0  0  0  0  0  0  0
   -1.0655    0.3675   -0.4308 C   0  0  0  0  0  0  0  0  0  0  0  0
   -1.6012    1.1091   -1.2349 O   0  0  0  0  0  0  0  0  0  0  0  0
    0.3158    0.3383   -0.2974 N   0  0  0  0  0  0  0  0  0  0  0  0
    1.6429    0.3157   -0.1752 C   0  0  0  0  0  0  0  0  0  0  0  0
    2.4008    1.4529   -0.5463 C   0  0  0  0  0  0  0  0  0  0  0  0
    3.7237    1.5280   -0.3982 C   0  0  0  0  0  0  0  0  0  0  0  0
    4.4334    0.4368    0.1503 C   0  0  0  0  0  0  0  0  0  0  0  0
    5.7870    0.6864    0.2057 O   0  0  0  0  0  0  0  0  0  0  0  0
    6.7849    0.1516   -0.5506 C   0  0  0  0  0  0  0  0  0  0  0  0
    6.6911   -0.8769   -1.4339 C   0  0  0  0  0  0  0  0  0  0  0  0
    7.7958   -1.3436   -2.1707 C   0  0  0  0  0  0  0  0  0  0  0  0
    8.9621   -0.7415   -1.9867 N   0  0  0  0  0  0  0  0  0  0  0  0
    9.1116    0.2926   -1.1223 C   0  0  0  0  0  0  0  0  0  0  0  0
   10.3210    0.8882   -1.0250 N   0  0  0  0  0  0  0  0  0  0  0  0
   10.4976    1.9366   -0.2032 C   0  0  0  0  0  0  0  0  0  0  0  0
   11.6159    2.5067   -0.1157 O   0  0  0  0  0  0  0  0  0  0  0  0
    9.3915    2.3905    0.5414 C   0  0  0  0  0  0  0  0  0  0  0  0
    8.2003    1.7984    0.4356 N   0  0  0  0  0  0  0  0  0  0  0  0
    8.0489    0.7509   -0.3982 C   0  0  0  0  0  0  0  0  0  0  0  0
    3.7456   -0.6530    0.5200 C   0  0  0  0  0  0  0  0  0  0  0  0
    4.4464   -1.7085    1.0917 C   0  0  0  0  0  0  0  0  0  0  0  0
    3.8154   -2.8434    1.5129 C   0  0  0  0  0  0  0  0  0  0  0  0
    2.4597   -2.9194    1.3651 C   0  0  0  0  0  0  0  0  0  0  0  0
    1.7586   -1.8812    0.8004 C   0  0  0  0  0  0  0  0  0  0  0  0
    2.3677   -0.7263    0.3660 C   0  0  0  0  0  0  0  0  0  0  0  0
   -6.0302   -3.0302    1.2522 C   0  0  0  0  0  0  0  0  0  0  0  0
   -7.3181   -3.0055    0.4272 C   0  0  0  0  0  0  0  0  0  0  0  0
   -5.3302   -4.3405    0.9722 C   0  0  0  0  0  0  0  0  0  0  0  0
   -6.3821   -2.9770    2.6908 C   0  0  0  0  0  0  0  0  0  0  0  0
   -4.1233    6.4052   -1.1982 H   0  0  0  0  0  0  0  0  0  0  0  0
   -5.4299    7.0810   -2.1572 H   0  0  0  0  0  0  0  0  0  0  0  0
   -5.7751    6.1634   -0.5693 H   0  0  0  0  0  0  0  0  0  0  0  0
   -4.4773    4.6434    0.1192 H   0  0  0  0  0  0  0  0  0  0  0  0
   -4.0775    2.4880    1.2003 H   0  0  0  0  0  0  0  0  0  0  0  0
   -5.0460    0.4887   -2.3927 H   0  0  0  0  0  0  0  0  0  0  0  0
   -5.5186    2.6876   -3.4862 H   0  0  0  0  0  0  0  0  0  0  0  0
   -3.2396   -2.6523    1.4112 H   0  0  0  0  0  0  0  0  0  0  0  0
   -1.3295   -1.1379    1.0767 H   0  0  0  0  0  0  0  0  0  0  0  0
    0.4301    0.7515   -1.6111 H   0  0  0  0  0  0  0  0  0  0  0  0
    1.8307    2.2987   -0.9775 H   0  0  0  0  0  0  0  0  0  0  0  0
    4.3120    2.3972   -0.6848 H   0  0  0  0  0  0  0  0  0  0  0  0
    5.7565   -1.3432   -1.6231 H   0  0  0  0  0  0  0  0  0  0  0  0
    7.6624   -2.1662   -2.8732 H   0  0  0  0  0  0  0  0  0  0  0  0
   11.1207    0.5356   -1.5878 H   0  0  0  0  0  0  0  0  0  0  0  0
    9.5921    3.2252    1.1754 H   0  0  0  0  0  0  0  0  0  0  0  0
    5.5308   -1.6576    1.2623 H   0  0  0  0  0  0  0  0  0  0  0  0
    4.3610   -3.6651    1.9604 H   0  0  0  0  0  0  0  0  0  0  0  0
    1.8941   -3.7528    1.6919 H   0  0  0  0  0  0  0  0  0  0  0  0
    0.7028   -1.9648    0.6647 H   0  0  0  0  0  0  0  0  0  0  0  0
   -7.9166   -3.9099    0.6408 H   0  0  0  0  0  0  0  0  0  0  0  0
   -7.0866   -2.8670   -0.6285 H   0  0  0  0  0  0  0  0  0  0  0  0
   -7.9428   -2.1561    0.7466 H   0  0  0  0  0  0  0  0  0  0  0  0
   -4.3061   -4.3632    1.4266 H   0  0  0  0  0  0  0  0  0  0  0  0
   -5.1869   -4.4345   -0.1227 H   0  0  0  0  0  0  0  0  0  0  0  0
   -5.8896   -5.1825    1.3920 H   0  0  0  0  0  0  0  0  0  0  0  0
   -6.5953   -3.9989    3.0352 H   0  0  0  0  0  0  0  0  0  0  0  0
   -7.3316   -2.3635    2.8482 H   0  0  0  0  0  0  0  0  0  0  0  0
   -5.5784   -2.5527    3.3106 H   0  0  0  0  0  0  0  0  0  0  0  0
  1  2  1  0
  2  3  1  0
  3  4  2  0
  4  5  1  0
  5  6  2  0
  6  7  1  0
  7  8  2  0
  6  9  1  0
  9 10  1  0
 10 11  2  0
 11 12  1  0
 12 13  2  0
 13 14  1  0
 14 15  1  0
 15 16  2  0
 15 17  1  0
 17 18  1  0
 18 19  2  0
 19 20  1  0
 20 21  2  0
 21 22  1  0
 22 23  1  0
 23 24  2  0
 24 25  1  0
 25 26  2  0
 26 27  1  0
 27 28  1  0
 28 29  1  0
 29 30  2  0
 29 31  1  0
 31 32  2  0
 32 33  1  0
 21 34  1  0
 34 35  2  0
 35 36  1  0
 36 37  2  0
 37 38  1  0
 38 39  2  0
 11 40  1  0
 40 41  1  0
 40 42  1  0
 40 43  1  0
  8  3  1  0
 13  9  1  0
 39 18  1  0
 33 23  1  0
 39 34  1  0
 33 27  2  0
  1 44  1  0
  1 45  1  0
  1 46  1  0
  4 47  1  0
  5 48  1  0
  7 49  1  0
  8 50  1  0
 12 51  1  0
 14 52  1  0
 17 53  1  0
 19 54  1  0
 20 55  1  0
 24 56  1  0
 25 57  1  0
 28 58  1  0
 31 59  1  0
 35 60  1  0
 36 61  1  0
 37 62  1  0
 38 63  1  0
 41 64  1  0
 41 65  1  0
 41 66  1  0
 42 67  1  0
 42 68  1  0
 42 69  1  0
 43 70  1  0
 43 71  1  0
 43 72  1  0
M  END
$$$$
[H]C([H])=C([H])C(=O)N([H])[C@]1([H])C([H])([H])C([H])([H])[C@@]([H])(n2c([H])c(-c3c([H])c([H])c(Oc4c([H])c([H])c([H])c([H])c4[H])c([H])c3[H])c3c(N([H])[H])nc([H])nc32)C([H])([H])C1([H])[H]
     RDKit          3D

 61 65  0  0  0  0  0  0  0  0999 V2000
   -2.5738   -1.7781    2.4609 N   0  0  0  0  0  0  0  0  0  0  0  0
   -1.1524   -1.7199    2.4791 C   0  0  0  0  0  0  0  0  0  0  0  0
   -0.4481   -2.3230    3.4617 N   0  0  0  0  0  0  0  0  0  0  0  0
    0.8916   -2.2471    3.4935 C   0  0  0  0  0  0  0  0  0  0  0  0
    1.5718   -1.5711    2.5524 N   0  0  0  0  0  0  0  0  0  0  0  0
    0.9373   -0.9467    1.5448 C   0  0  0  0  0  0  0  0  0  0  0  0
    1.3915   -0.2050    0.4994 N   0  0  0  0  0  0  0  0  0  0  0  0
    0.3228    0.1838   -0.1925 C   0  0  0  0  0  0  0  0  0  0  0  0
   -0.8372   -0.3003    0.3936 C   0  0  0  0  0  0  0  0  0  0  0  0
   -2.2019   -0.1225   -0.1006 C   0  0  0  0  0  0  0  0  0  0  0  0
   -3.0049   -1.1556   -0.5364 C   0  0  0  0  0  0  0  0  0  0  0  0
   -4.2926   -0.9647   -0.9872 C   0  0  0  0  0  0  0  0  0  0  0  0
   -4.8546    0.2921   -1.0269 C   0  0  0  0  0  0  0  0  0  0  0  0
   -6.1515    0.5155   -1.4766 O   0  0  0  0  0  0  0  0  0  0  0  0
   -7.2488    0.4915   -0.6281 C   0  0  0  0  0  0  0  0  0  0  0  0
   -8.5265    0.7079   -1.0532 C   0  0  0  0  0  0  0  0  0  0  0  0
   -9.5532    0.6672   -0.1530 C   0  0  0  0  0  0  0  0  0  0  0  0
   -9.3519    0.4116    1.1951 C   0  0  0  0  0  0  0  0  0  0  0  0
   -8.0502    0.1960    1.6005 C   0  0  0  0  0  0  0  0  0  0  0  0
   -7.0066    0.2345    0.7019 C   0  0  0  0  0  0  0  0  0  0  0  0
   -4.0473    1.3301   -0.5894 C   0  0  0  0  0  0  0  0  0  0  0  0
   -2.7662    1.1528   -0.1390 C   0  0  0  0  0  0  0  0  0  0  0  0
   -0.4643   -1.0180    1.4976 C   0  0  0  0  0  0  0  0  0  0  0  0
    2.8044    0.0750    0.2418 C   0  0  1  0  0  0  0  0  0  0  0  0
    3.3801   -0.8289   -0.8091 C   0  0  0  0  0  0  0  0  0  0  0  0
    4.3874   -0.1853   -1.6972 C   0  0  0  0  0  0  0  0  0  0  0  0
    5.2511    0.8403   -1.0420 C   0  0  1  0  0  0  0  0  0  0  0  0
    4.4623    1.8054   -0.1676 C   0  0  0  0  0  0  0  0  0  0  0  0
    2.9712    1.5109   -0.2629 C   0  0  0  0  0  0  0  0  0  0  0  0
    6.3751    0.2976   -0.3451 N   0  0  0  0  0  0  0  0  0  0  0  0
    7.7228    0.5398   -0.6661 C   0  0  0  0  0  0  0  0  0  0  0  0
    7.9815    1.2902   -1.6397 O   0  0  0  0  0  0  0  0  0  0  0  0
    8.8278   -0.0374    0.0758 C   0  0  0  0  0  0  0  0  0  0  0  0
   10.0767    0.2170   -0.2611 C   0  0  0  0  0  0  0  0  0  0  0  0
   -3.2028   -0.9719    2.6627 H   0  0  0  0  0  0  0  0  0  0  0  0
   -3.0293   -2.6872    2.2306 H   0  0  0  0  0  0  0  0  0  0  0  0
    1.4486   -2.7401    4.2944 H   0  0  0  0  0  0  0  0  0  0  0  0
    0.3088    0.7889   -1.0869 H   0  0  0  0  0  0  0  0  0  0  0  0
   -2.5606   -2.1692   -0.5179 H   0  0  0  0  0  0  0  0  0  0  0  0
   -4.8679   -1.8048   -1.3124 H   0  0  0  0  0  0  0  0  0  0  0  0
   -8.6683    0.9088   -2.1242 H   0  0  0  0  0  0  0  0  0  0  0  0
  -10.5801    0.8394   -0.4847 H   0  0  0  0  0  0  0  0  0  0  0  0
  -10.1592    0.3795    1.9030 H   0  0  0  0  0  0  0  0  0  0  0  0
   -7.8246   -0.0086    2.6387 H   0  0  0  0  0  0  0  0  0  0  0  0
   -5.9908    0.0590    1.0600 H   0  0  0  0  0  0  0  0  0  0  0  0
   -4.5044    2.3251   -0.6253 H   0  0  0  0  0  0  0  0  0  0  0  0
   -2.1542    1.9773    0.1976 H   0  0  0  0  0  0  0  0  0  0  0  0
    3.4001    0.0100    1.1757 H   0  0  0  0  0  0  0  0  0  0  0  0
    3.7265   -1.7733   -0.3373 H   0  0  0  0  0  0  0  0  0  0  0  0
    2.5140   -1.1379   -1.4658 H   0  0  0  0  0  0  0  0  0  0  0  0
    5.0618   -0.9921   -2.0798 H   0  0  0  0  0  0  0  0  0  0  0  0
    3.9187    0.2580   -2.6093 H   0  0  0  0  0  0  0  0  0  0  0  0
    5.6709    1.4828   -1.8719 H   0  0  0  0  0  0  0  0  0  0  0  0
    4.7926    1.6177    0.8886 H   0  0  0  0  0  0  0  0  0  0  0  0
    4.6737    2.8518   -0.3781 H   0  0  0  0  0  0  0  0  0  0  0  0
    2.4457    2.2316    0.3672 H   0  0  0  0  0  0  0  0  0  0  0  0
    2.6800    1.5412   -1.3243 H   0  0  0  0  0  0  0  0  0  0  0  0
    6.1787   -0.3330    0.4727 H   0  0  0  0  0  0  0  0  0  0  0  0
    8.6865   -0.6932    0.9271 H   0  0  0  0  0  0  0  0  0  0  0  0
   10.9301   -0.1883    0.2594 H   0  0  0  0  0  0  0  0  0  0  0  0
   10.2822    0.8727   -1.1127 H   0  0  0  0  0  0  0  0  0  0  0  0
  1  2  1  0
  2  3  2  0
  3  4  1  0
  4  5  2  0
  5  6  1  0
  6  7  1  0
  7  8  1  0
  8  9  2  0
  9 10  1  0
 10 11  2  0
 11 12  1  0
 12 13  2  0
 13 14  1  0
 14 15  1  0
 15 16  2  0
 16 17  1  0
 17 18  2  0
 18 19  1  0
 19 20  2  0
 13 21  1  0
 21 22  2  0
  9 23  1  0
  7 24  1  0
 24 25  1  0
 25 26  1  0
 26 27  1  0
 27 28  1  0
 28 29  1  0
 27 30  1  0
 30 31  1  0
 31 32  2  0
 31 33  1  0
 33 34  2  3
 23  2  1  0
 29 24  1  0
 23  6  2  0
 22 10  1  0
 20 15  1  0
  1 35  1  0
  1 36  1  0
  4 37  1  0
  8 38  1  0
 11 39  1  0
 12 40  1  0
 16 41  1  0
 17 42  1  0
 18 43  1  0
 19 44  1  0
 20 45  1  0
 21 46  1  0
 22 47  1  0
 24 48  1  1
 25 49  1  0
 25 50  1  0
 26 51  1  0
 26 52  1  0
 27 53  1  6
 28 54  1  0
 28 55  1  0
 29 56  1  0
 29 57  1  0
 30 58  1  0
 33 59  1  0
 34 60  1  0
 34 61  1  0
M  END
$$$$
[H]C([H])=C([H])C(=O)N([H])[C@]1([H])C([H])([H])C([H])([H])[C@]([H])(n2c([H])c(-c3c([H])c([H])c(Oc4c([H])c([H])c([H])c([H])c4[H])c([H])c3[H])c3c(N([H])[H])nc([H])nc32)C([H])([H])C1([H])[H]
     RDKit          3D

 61 65  0  0  0  0  0  0  0  0999 V2000
   -1.7303   -2.7669    2.9173 N   0  0  0  0  0  0  0  0  0  0  0  0
   -0.4512   -2.6989    2.3109 C   0  0  0  0  0  0  0  0  0  0  0  0
    0.5515   -3.5148    2.6689 N   0  0  0  0  0  0  0  0  0  0  0  0
    1.7587   -3.4149    2.0998 C   0  0  0  0  0  0  0  0  0  0  0  0
    2.0387   -2.5091    1.1524 N   0  0  0  0  0  0  0  0  0  0  0  0
    1.0534   -1.6804    0.7753 C   0  0  0  0  0  0  0  0  0  0  0  0
    1.0393   -0.6834   -0.1254 N   0  0  0  0  0  0  0  0  0  0  0  0
   -0.1601   -0.1282   -0.1579 C   0  0  0  0  0  0  0  0  0  0  0  0
   -1.0045   -0.7701    0.7568 C   0  0  0  0  0  0  0  0  0  0  0  0
   -2.4071   -0.4865    0.9880 C   0  0  0  0  0  0  0  0  0  0  0  0
   -3.4404   -1.3678    0.7492 C   0  0  0  0  0  0  0  0  0  0  0  0
   -4.7674   -1.0910    0.9820 C   0  0  0  0  0  0  0  0  0  0  0  0
   -5.1270    0.1396    1.4873 C   0  0  0  0  0  0  0  0  0  0  0  0
   -6.4754    0.4391    1.7307 O   0  0  0  0  0  0  0  0  0  0  0  0
   -7.2223    1.0150    0.7131 C   0  0  0  0  0  0  0  0  0  0  0  0
   -7.9266    0.2701   -0.2124 C   0  0  0  0  0  0  0  0  0  0  0  0
   -8.6588    0.8882   -1.2116 C   0  0  0  0  0  0  0  0  0  0  0  0
   -8.7139    2.2634   -1.3218 C   0  0  0  0  0  0  0  0  0  0  0  0
   -8.0157    3.0069   -0.4044 C   0  0  0  0  0  0  0  0  0  0  0  0
   -7.2766    2.3891    0.6040 C   0  0  0  0  0  0  0  0  0  0  0  0
   -4.1286    1.0481    1.7395 C   0  0  0  0  0  0  0  0  0  0  0  0
   -2.8096    0.7554    1.5016 C   0  0  0  0  0  0  0  0  0  0  0  0
   -0.2364   -1.7428    1.3410 C   0  0  0  0  0  0  0  0  0  0  0  0
    2.1554   -0.2712   -0.9403 C   0  0  2  0  0  0  0  0  0  0  0  0
    3.3631   -1.1304   -0.8388 C   0  0  0  0  0  0  0  0  0  0  0  0
    4.3734   -0.5511   -1.8487 C   0  0  0  0  0  0  0  0  0  0  0  0
    5.0097    0.6575   -1.2017 C   0  0  1  0  0  0  0  0  0  0  0  0
    4.0347    1.2481   -0.2291 C   0  0  0  0  0  0  0  0  0  0  0  0
    2.5918    1.1574   -0.6764 C   0  0  0  0  0  0  0  0  0  0  0  0
    6.2326    0.3228   -0.5244 N   0  0  0  0  0  0  0  0  0  0  0  0
    7.4899    0.8978   -0.8423 C   0  0  0  0  0  0  0  0  0  0  0  0
    7.5336    1.7444   -1.7651 O   0  0  0  0  0  0  0  0  0  0  0  0
    8.7187    0.5548   -0.1551 C   0  0  0  0  0  0  0  0  0  0  0  0
    9.8601    1.1206   -0.4913 C   0  0  0  0  0  0  0  0  0  0  0  0
   -2.3987   -3.5414    2.8380 H   0  0  0  0  0  0  0  0  0  0  0  0
   -2.0247   -1.9444    3.5062 H   0  0  0  0  0  0  0  0  0  0  0  0
    2.5915   -4.0783    2.3838 H   0  0  0  0  0  0  0  0  0  0  0  0
   -0.5094    0.6963   -0.7692 H   0  0  0  0  0  0  0  0  0  0  0  0
   -3.2142   -2.3600    0.3377 H   0  0  0  0  0  0  0  0  0  0  0  0
   -5.5573   -1.7996    0.7865 H   0  0  0  0  0  0  0  0  0  0  0  0
   -7.8774   -0.8031   -0.1182 H   0  0  0  0  0  0  0  0  0  0  0  0
   -9.2044    0.2950   -1.9282 H   0  0  0  0  0  0  0  0  0  0  0  0
   -9.2882    2.7487   -2.1056 H   0  0  0  0  0  0  0  0  0  0  0  0
   -8.0479    4.0803   -0.4759 H   0  0  0  0  0  0  0  0  0  0  0  0
   -6.7314    2.9736    1.3203 H   0  0  0  0  0  0  0  0  0  0  0  0
   -4.4161    2.0213    2.1392 H   0  0  0  0  0  0  0  0  0  0  0  0
   -2.0070    1.4699    1.6982 H   0  0  0  0  0  0  0  0  0  0  0  0
    1.8187   -0.3083   -2.0086 H   0  0  0  0  0  0  0  0  0  0  0  0
    3.8713   -1.0461    0.1244 H   0  0  0  0  0  0  0  0  0  0  0  0
    3.1167   -2.1636   -1.1605 H   0  0  0  0  0  0  0  0  0  0  0  0
    5.0890   -1.3116   -2.1589 H   0  0  0  0  0  0  0  0  0  0  0  0
    3.8017   -0.1827   -2.7389 H   0  0  0  0  0  0  0  0  0  0  0  0
    5.2688    1.4168   -1.9774 H   0  0  0  0  0  0  0  0  0  0  0  0
    4.2297    2.3489   -0.1008 H   0  0  0  0  0  0  0  0  0  0  0  0
    4.1550    0.8443    0.8153 H   0  0  0  0  0  0  0  0  0  0  0  0
    1.9791    1.5627    0.1526 H   0  0  0  0  0  0  0  0  0  0  0  0
    2.4937    1.8014   -1.5820 H   0  0  0  0  0  0  0  0  0  0  0  0
    6.1989   -0.3755    0.2378 H   0  0  0  0  0  0  0  0  0  0  0  0
    8.6930   -0.1685    0.6353 H   0  0  0  0  0  0  0  0  0  0  0  0
   10.7770    0.8605    0.0263 H   0  0  0  0  0  0  0  0  0  0  0  0
    9.9397    1.8526   -1.2778 H   0  0  0  0  0  0  0  0  0  0  0  0
  1  2  1  0
  2  3  2  0
  3  4  1  0
  4  5  2  0
  5  6  1  0
  6  7  1  0
  7  8  1  0
  8  9  2  0
  9 10  1  0
 10 11  2  0
 11 12  1  0
 12 13  2  0
 13 14  1  0
 14 15  1  0
 15 16  2  0
 16 17  1  0
 17 18  2  0
 18 19  1  0
 19 20  2  0
 13 21  1  0
 21 22  2  0
  9 23  1  0
  7 24  1  0
 24 25  1  0
 25 26  1  0
 26 27  1  0
 27 28  1  0
 28 29  1  0
 27 30  1  0
 30 31  1  0
 31 32  2  0
 31 33  1  0
 33 34  2  3
 23  2  1  0
 29 24  1  0
 23  6  2  0
 22 10  1  0
 20 15  1  0
  1 35  1  0
  1 36  1  0
  4 37  1  0
  8 38  1  0
 11 39  1  0
 12 40  1  0
 16 41  1  0
 17 42  1  0
 18 43  1  0
 19 44  1  0
 20 45  1  0
 21 46  1  0
 22 47  1  0
 24 48  1  6
 25 49  1  0
 25 50  1  0
 26 51  1  0
 26 52  1  0
 27 53  1  6
 28 54  1  0
 28 55  1  0
 29 56  1  0
 29 57  1  0
 30 58  1  0
 33 59  1  0
 34 60  1  0
 34 61  1  0
M  END
$$$$
[H]c1nc2c(c(Oc3c([H])c([H])c(N([H])C(=O)N([H])c4c([H])c(C(C([H])([H])[H])(C([H])([H])[H])C([H])([H])[H])nn4-c4c([H])c([H])c(OC([H])([H])[H])c([H])c4[H])c4c([H])c([H])c([H])c([H])c34)c1[H])n(C([H])([H])[H])c(=O)n2[H]
     RDKit          3D

 74 79  0  0  0  0  0  0  0  0999 V2000
    7.7803    5.2640    2.5743 C   0  0  0  0  0  0  0  0  0  0  0  0
    7.3726    5.0401    1.2383 O   0  0  0  0  0  0  0  0  0  0  0  0
    6.6945    3.8847    0.8774 C   0  0  0  0  0  0  0  0  0  0  0  0
    6.2964    3.6793   -0.4478 C   0  0  0  0  0  0  0  0  0  0  0  0
    5.6120    2.5071   -0.7902 C   0  0  0  0  0  0  0  0  0  0  0  0
    5.3324    1.5621    0.1687 C   0  0  0  0  0  0  0  0  0  0  0  0
    5.7388    1.7983    1.4549 C   0  0  0  0  0  0  0  0  0  0  0  0
    6.4167    2.9477    1.8246 C   0  0  0  0  0  0  0  0  0  0  0  0
    4.6299    0.3778   -0.1791 N   0  0  0  0  0  0  0  0  0  0  0  0
    5.1712   -0.7244   -0.6345 N   0  0  0  0  0  0  0  0  0  0  0  0
    4.2719   -1.6621   -0.8830 C   0  0  0  0  0  0  0  0  0  0  0  0
    3.0476   -1.0468   -0.5338 C   0  0  0  0  0  0  0  0  0  0  0  0
    3.2436    0.2262   -0.0919 C   0  0  0  0  0  0  0  0  0  0  0  0
    2.4077    1.2086    0.3941 N   0  0  0  0  0  0  0  0  0  0  0  0
    1.0212    1.3031    0.4485 C   0  0  0  0  0  0  0  0  0  0  0  0
    0.5130    2.3398    1.0642 O   0  0  0  0  0  0  0  0  0  0  0  0
    0.0451    0.4348   -0.0765 N   0  0  0  0  0  0  0  0  0  0  0  0
   -1.3405    0.5835    0.0437 C   0  0  0  0  0  0  0  0  0  0  0  0
   -1.9828    1.3442    0.9620 C   0  0  0  0  0  0  0  0  0  0  0  0
   -3.3768    1.3872    1.0856 C   0  0  0  0  0  0  0  0  0  0  0  0
   -4.1712    0.6362    0.2570 C   0  0  0  0  0  0  0  0  0  0  0  0
   -5.5527    0.7180    0.4326 O   0  0  0  0  0  0  0  0  0  0  0  0
   -6.2737   -0.3616    0.9504 C   0  0  0  0  0  0  0  0  0  0  0  0
   -5.6801   -1.5128    1.4222 C   0  0  0  0  0  0  0  0  0  0  0  0
   -6.4099   -2.5811    1.9324 C   0  0  0  0  0  0  0  0  0  0  0  0
   -7.7423   -2.5062    1.9759 N   0  0  0  0  0  0  0  0  0  0  0  0
   -8.3472   -1.3954    1.5231 C   0  0  0  0  0  0  0  0  0  0  0  0
   -9.6610   -1.0629    1.4538 N   0  0  0  0  0  0  0  0  0  0  0  0
   -9.8130    0.1597    0.9261 C   0  0  0  0  0  0  0  0  0  0  0  0
  -10.8994    0.7499    0.7289 O   0  0  0  0  0  0  0  0  0  0  0  0
   -8.5666    0.6015    0.6607 N   0  0  0  0  0  0  0  0  0  0  0  0
   -8.2590    1.8878    0.0822 C   0  0  0  0  0  0  0  0  0  0  0  0
   -7.6559   -0.3298    1.0156 C   0  0  0  0  0  0  0  0  0  0  0  0
   -3.5420   -0.1355   -0.6792 C   0  0  0  0  0  0  0  0  0  0  0  0
   -4.3312   -0.8560   -1.5493 C   0  0  0  0  0  0  0  0  0  0  0  0
   -3.7397   -1.6171   -2.5328 C   0  0  0  0  0  0  0  0  0  0  0  0
   -2.3845   -1.6781   -2.6733 C   0  0  0  0  0  0  0  0  0  0  0  0
   -1.5680   -0.9444   -1.7928 C   0  0  0  0  0  0  0  0  0  0  0  0
   -2.1526   -0.1865   -0.8126 C   0  0  0  0  0  0  0  0  0  0  0  0
    4.3912   -3.0508   -1.3983 C   0  0  0  0  0  0  0  0  0  0  0  0
    3.6929   -3.1838   -2.7401 C   0  0  0  0  0  0  0  0  0  0  0  0
    5.8511   -3.3925   -1.5929 C   0  0  0  0  0  0  0  0  0  0  0  0
    3.7347   -4.0486   -0.4751 C   0  0  0  0  0  0  0  0  0  0  0  0
    8.2455    6.2760    2.6256 H   0  0  0  0  0  0  0  0  0  0  0  0
    6.8713    5.3111    3.2392 H   0  0  0  0  0  0  0  0  0  0  0  0
    8.4727    4.4938    2.9194 H   0  0  0  0  0  0  0  0  0  0  0  0
    6.5258    4.4378   -1.1822 H   0  0  0  0  0  0  0  0  0  0  0  0
    5.3330    2.4199   -1.8302 H   0  0  0  0  0  0  0  0  0  0  0  0
    5.5194    1.0520    2.2130 H   0  0  0  0  0  0  0  0  0  0  0  0
    6.7389    3.1361    2.8462 H   0  0  0  0  0  0  0  0  0  0  0  0
    2.1145   -1.5841   -0.6125 H   0  0  0  0  0  0  0  0  0  0  0  0
    2.9071    2.0512    0.8798 H   0  0  0  0  0  0  0  0  0  0  0  0
    0.4686   -0.3778   -0.5896 H   0  0  0  0  0  0  0  0  0  0  0  0
   -1.4612    1.9495    1.6755 H   0  0  0  0  0  0  0  0  0  0  0  0
   -3.8485    2.0222    1.8482 H   0  0  0  0  0  0  0  0  0  0  0  0
   -4.5911   -1.6214    1.4189 H   0  0  0  0  0  0  0  0  0  0  0  0
   -5.8606   -3.4549    2.2821 H   0  0  0  0  0  0  0  0  0  0  0  0
  -10.4285   -1.7157    1.7854 H   0  0  0  0  0  0  0  0  0  0  0  0
   -7.4308    2.3315    0.6502 H   0  0  0  0  0  0  0  0  0  0  0  0
   -7.9848    1.7378   -0.9959 H   0  0  0  0  0  0  0  0  0  0  0  0
   -9.1317    2.5689    0.1734 H   0  0  0  0  0  0  0  0  0  0  0  0
   -5.4093   -0.8216   -1.4950 H   0  0  0  0  0  0  0  0  0  0  0  0
   -4.3530   -2.2015   -3.2408 H   0  0  0  0  0  0  0  0  0  0  0  0
   -1.8802   -2.2743   -3.4498 H   0  0  0  0  0  0  0  0  0  0  0  0
   -0.5140   -0.9992   -1.9272 H   0  0  0  0  0  0  0  0  0  0  0  0
    2.5812   -3.2539   -2.6136 H   0  0  0  0  0  0  0  0  0  0  0  0
    3.9995   -4.1613   -3.1612 H   0  0  0  0  0  0  0  0  0  0  0  0
    3.9859   -2.4005   -3.4527 H   0  0  0  0  0  0  0  0  0  0  0  0
    6.2297   -2.7658   -2.4451 H   0  0  0  0  0  0  0  0  0  0  0  0
    5.9569   -4.4521   -1.8519 H   0  0  0  0  0  0  0  0  0  0  0  0
    6.4227   -3.1245   -0.6677 H   0  0  0  0  0  0  0  0  0  0  0  0
    2.8080   -3.6616   -0.0238 H   0  0  0  0  0  0  0  0  0  0  0  0
    3.4658   -4.9875   -0.9936 H   0  0  0  0  0  0  0  0  0  0  0  0
    4.4322   -4.2954    0.3623 H   0  0  0  0  0  0  0  0  0  0  0  0
  1  2  1  0
  2  3  1  0
  3  4  2  0
  4  5  1  0
  5  6  2  0
  6  7  1  0
  7  8  2  0
  6  9  1  0
  9 10  1  0
 10 11  2  0
 11 12  1  0
 12 13  2  0
 13 14  1  0
 14 15  1  0
 15 16  2  0
 15 17  1  0
 17 18  1  0
 18 19  2  0
 19 20  1  0
 20 21  2  0
 21 22  1  0
 22 23  1  0
 23 24  2  0
 24 25  1  0
 25 26  2  0
 26 27  1  0
 27 28  1  0
 28 29  1  0
 29 30  2  0
 29 31  1  0
 31 32  1  0
 31 33  1  0
 21 34  1  0
 34 35  2  0
 35 36  1  0
 36 37  2  0
 37 38  1  0
 38 39  2  0
 11 40  1  0
 40 41  1  0
 40 42  1  0
 40 43  1  0
  8  3  1  0
 13  9  1  0
 39 18  1  0
 33 23  1  0
 39 34  1  0
 33 27  2  0
  1 44  1  0
  1 45  1  0
  1 46  1  0
  4 47  1  0
  5 48  1  0
  7 49  1  0
  8 50  1  0
 12 51  1  0
 14 52  1  0
 17 53  1  0
 19 54  1  0
 20 55  1  0
 24 56  1  0
 25 57  1  0
 28 58  1  0
 32 59  1  0
 32 60  1  0
 32 61  1  0
 35 62  1  0
 36 63  1  0
 37 64  1  0
 38 65  1  0
 41 66  1  0
 41 67  1  0
 41 68  1  0
 42 69  1  0
 42 70  1  0
 42 71  1  0
 43 72  1  0
 43 73  1  0
 43 74  1  0
M  END
$$$$
[H]OC([H])([H])c1c([H])c([H])c(-n2nc(C(C([H])([H])[H])(C([H])([H])[H])C([H])([H])[H])c([H])c2N([H])C(=O)N([H])c2c([H])c([H])c(Oc3c([H])c([H])nc4c3nc([H])c(=O)n4[H])c3c([H])c([H])c([H])c([H])c23)c([H])c1[H]
     RDKit          3D

 72 77  0  0  0  0  0  0  0  0999 V2000
   -7.8297   -2.8113   -0.1835 C   0  0  0  0  0  0  0  0  0  0  0  0
   -6.4972   -3.5153   -0.1433 C   0  0  0  0  0  0  0  0  0  0  0  0
   -6.3746   -4.3952   -1.3785 C   0  0  0  0  0  0  0  0  0  0  0  0
   -6.4080   -4.2993    1.1328 C   0  0  0  0  0  0  0  0  0  0  0  0
   -5.3860   -2.5040   -0.1368 C   0  0  0  0  0  0  0  0  0  0  0  0
   -4.0559   -2.7861   -0.2968 C   0  0  0  0  0  0  0  0  0  0  0  0
   -3.3299   -1.5556   -0.2414 C   0  0  0  0  0  0  0  0  0  0  0  0
   -1.9500   -1.5252   -0.3712 N   0  0  0  0  0  0  0  0  0  0  0  0
   -0.9497   -0.5476   -0.4345 C   0  0  0  0  0  0  0  0  0  0  0  0
   -1.1463    0.6587   -0.4018 O   0  0  0  0  0  0  0  0  0  0  0  0
    0.3951   -1.0766   -0.5436 N   0  0  0  0  0  0  0  0  0  0  0  0
    1.5915   -0.4066   -0.6229 C   0  0  0  0  0  0  0  0  0  0  0  0
    1.7217    0.9739   -0.6078 C   0  0  0  0  0  0  0  0  0  0  0  0
    2.9394    1.6143   -0.6779 C   0  0  0  0  0  0  0  0  0  0  0  0
    4.1123    0.8856   -0.7685 C   0  0  0  0  0  0  0  0  0  0  0  0
    5.3367    1.5752   -0.8386 O   0  0  0  0  0  0  0  0  0  0  0  0
    6.1900    1.5777    0.2544 C   0  0  0  0  0  0  0  0  0  0  0  0
    5.8154    1.0198    1.4505 C   0  0  0  0  0  0  0  0  0  0  0  0
    6.6739    1.0304    2.5160 C   0  0  0  0  0  0  0  0  0  0  0  0
    7.9006    1.6066    2.3613 N   0  0  0  0  0  0  0  0  0  0  0  0
    8.3119    2.1598    1.2247 C   0  0  0  0  0  0  0  0  0  0  0  0
    9.5246    2.7056    1.1177 N   0  0  0  0  0  0  0  0  0  0  0  0
    9.8905    3.2516   -0.0789 C   0  0  0  0  0  0  0  0  0  0  0  0
   11.0401    3.7592   -0.1348 O   0  0  0  0  0  0  0  0  0  0  0  0
    9.0247    3.2363   -1.1476 C   0  0  0  0  0  0  0  0  0  0  0  0
    7.8077    2.6907   -1.0437 N   0  0  0  0  0  0  0  0  0  0  0  0
    7.4428    2.1491    0.1388 C   0  0  0  0  0  0  0  0  0  0  0  0
    4.0328   -0.4860   -0.7912 C   0  0  0  0  0  0  0  0  0  0  0  0
    5.2012   -1.1981   -0.9230 C   0  0  0  0  0  0  0  0  0  0  0  0
    5.1770   -2.5676   -0.9834 C   0  0  0  0  0  0  0  0  0  0  0  0
    3.9712   -3.1907   -0.9095 C   0  0  0  0  0  0  0  0  0  0  0  0
    2.7831   -2.4776   -0.7772 C   0  0  0  0  0  0  0  0  0  0  0  0
    2.7890   -1.1216   -0.7190 C   0  0  0  0  0  0  0  0  0  0  0  0
   -4.2326   -0.6117   -0.0534 N   0  0  0  0  0  0  0  0  0  0  0  0
   -5.4674   -1.1994    0.0073 N   0  0  0  0  0  0  0  0  0  0  0  0
   -4.1757    0.8069    0.0989 C   0  0  0  0  0  0  0  0  0  0  0  0
   -4.0110    1.3751    1.3669 C   0  0  0  0  0  0  0  0  0  0  0  0
   -4.0118    2.7320    1.5784 C   0  0  0  0  0  0  0  0  0  0  0  0
   -4.1735    3.6185    0.5406 C   0  0  0  0  0  0  0  0  0  0  0  0
   -4.1771    5.0863    0.7345 C   0  0  0  0  0  0  0  0  0  0  0  0
   -2.8973    5.6387    0.6169 O   0  0  0  0  0  0  0  0  0  0  0  0
   -4.3385    3.0656   -0.7249 C   0  0  0  0  0  0  0  0  0  0  0  0
   -4.3412    1.7041   -0.9493 C   0  0  0  0  0  0  0  0  0  0  0  0
   -8.6010   -3.5956    0.0769 H   0  0  0  0  0  0  0  0  0  0  0  0
   -7.9006   -2.0276    0.6323 H   0  0  0  0  0  0  0  0  0  0  0  0
   -8.0693   -2.3543   -1.1520 H   0  0  0  0  0  0  0  0  0  0  0  0
   -6.0324   -3.7907   -2.2482 H   0  0  0  0  0  0  0  0  0  0  0  0
   -5.5863   -5.1487   -1.1247 H   0  0  0  0  0  0  0  0  0  0  0  0
   -7.3696   -4.8698   -1.5402 H   0  0  0  0  0  0  0  0  0  0  0  0
   -6.6941   -5.3518    0.9077 H   0  0  0  0  0  0  0  0  0  0  0  0
   -5.3716   -4.3154    1.5497 H   0  0  0  0  0  0  0  0  0  0  0  0
   -7.0546   -3.8315    1.9040 H   0  0  0  0  0  0  0  0  0  0  0  0
   -3.6693   -3.7825   -0.4394 H   0  0  0  0  0  0  0  0  0  0  0  0
   -1.5290   -2.5771   -0.4202 H   0  0  0  0  0  0  0  0  0  0  0  0
    0.4003   -2.1430   -0.5688 H   0  0  0  0  0  0  0  0  0  0  0  0
    0.8324    1.6019   -0.5399 H   0  0  0  0  0  0  0  0  0  0  0  0
    2.9822    2.6799   -0.6612 H   0  0  0  0  0  0  0  0  0  0  0  0
    4.8313    0.5639    1.5800 H   0  0  0  0  0  0  0  0  0  0  0  0
    6.3663    0.5967    3.4284 H   0  0  0  0  0  0  0  0  0  0  0  0
   10.1694    2.7110    1.9310 H   0  0  0  0  0  0  0  0  0  0  0  0
    9.3860    3.6982   -2.0653 H   0  0  0  0  0  0  0  0  0  0  0  0
    6.1483   -0.7292   -1.0002 H   0  0  0  0  0  0  0  0  0  0  0  0
    6.1285   -3.1163   -1.0947 H   0  0  0  0  0  0  0  0  0  0  0  0
    3.9052   -4.2635   -0.9510 H   0  0  0  0  0  0  0  0  0  0  0  0
    1.8616   -3.0416   -0.7228 H   0  0  0  0  0  0  0  0  0  0  0  0
   -3.8854    0.6682    2.1994 H   0  0  0  0  0  0  0  0  0  0  0  0
   -3.8824    3.1365    2.5999 H   0  0  0  0  0  0  0  0  0  0  0  0
   -4.5479    5.3572    1.7578 H   0  0  0  0  0  0  0  0  0  0  0  0
   -4.8614    5.6284    0.0361 H   0  0  0  0  0  0  0  0  0  0  0  0
   -2.9335    6.6190    0.5243 H   0  0  0  0  0  0  0  0  0  0  0  0
   -4.4677    3.7510   -1.5570 H   0  0  0  0  0  0  0  0  0  0  0  0
   -4.4749    1.2805   -1.9319 H   0  0  0  0  0  0  0  0  0  0  0  0
  1  2  1  0
  2  3  1  0
  2  4  1  0
  2  5  1  0
  5  6  1  0
  6  7  2  0
  7  8  1  0
  8  9  1  0
  9 10  2  0
  9 11  1  0
 11 12  1  0
 12 13  2  0
 13 14  1  0
 14 15  2  0
 15 16  1  0
 16 17  1  0
 17 18  2  0
 18 19  1  0
 19 20  2  0
 20 21  1  0
 21 22  1  0
 22 23  1  0
 23 24  2  0
 23 25  1  0
 25 26  2  0
 26 27  1  0
 15 28  1  0
 28 29  2  0
 29 30  1  0
 30 31  2  0
 31 32  1  0
 32 33  2  0
  7 34  1  0
 34 35  1  0
 34 36  1  0
 36 37  2  0
 37 38  1  0
 38 39  2  0
 39 40  1  0
 40 41  1  0
 39 42  1  0
 42 43  2  0
 35  5  2  0
 43 36  1  0
 33 12  1  0
 27 17  1  0
 33 28  1  0
 27 21  2  0
  1 44  1  0
  1 45  1  0
  1 46  1  0
  3 47  1  0
  3 48  1  0
  3 49  1  0
  4 50  1  0
  4 51  1  0
  4 52  1  0
  6 53  1  0
  8 54  1  0
 11 55  1  0
 13 56  1  0
 14 57  1  0
 18 58  1  0
 19 59  1  0
 22 60  1  0
 25 61  1  0
 29 62  1  0
 30 63  1  0
 31 64  1  0
 32 65  1  0
 37 66  1  0
 38 67  1  0
 40 68  1  0
 40 69  1  0
 41 70  1  0
 42 71  1  0
 43 72  1  0
M  END
$$$$
[H]c1nc2c(nc([H])c(=O)n2[H])c(Oc2c([H])c([H])c(N([H])C(=O)N([H])c3c([H])c(C(C([H])([H])[H])(C([H])([H])[H])C([H])([H])[H])nn3-c3c([H])c([H])c([H])c(N([H])[H])c3[H])c3c([H])c([H])c([H])c([H])c23)c1[H]
     RDKit          3D

 70 75  0  0  0  0  0  0  0  0999 V2000
   -7.0457   -3.3371   -0.7930 C   0  0  0  0  0  0  0  0  0  0  0  0
   -7.1854   -1.8466   -0.8301 C   0  0  0  0  0  0  0  0  0  0  0  0
   -8.1566   -1.3307    0.2114 C   0  0  0  0  0  0  0  0  0  0  0  0
   -7.5690   -1.3086   -2.1713 C   0  0  0  0  0  0  0  0  0  0  0  0
   -5.8467   -1.2456   -0.4622 C   0  0  0  0  0  0  0  0  0  0  0  0
   -4.6600   -1.8867   -0.6543 C   0  0  0  0  0  0  0  0  0  0  0  0
   -3.6489   -0.9791   -0.1698 C   0  0  0  0  0  0  0  0  0  0  0  0
   -2.3165   -1.3437   -0.1748 N   0  0  0  0  0  0  0  0  0  0  0  0
   -1.1241   -0.6491    0.0587 C   0  0  0  0  0  0  0  0  0  0  0  0
   -0.9826    0.5568    0.2691 O   0  0  0  0  0  0  0  0  0  0  0  0
    0.1269   -1.4022    0.0650 N   0  0  0  0  0  0  0  0  0  0  0  0
    1.3940   -0.8712    0.3011 C   0  0  0  0  0  0  0  0  0  0  0  0
    1.6700    0.3395    0.8830 C   0  0  0  0  0  0  0  0  0  0  0  0
    2.9252    0.8138    1.1572 C   0  0  0  0  0  0  0  0  0  0  0  0
    4.0345    0.0659    0.8505 C   0  0  0  0  0  0  0  0  0  0  0  0
    5.2987    0.5429    1.1282 O   0  0  0  0  0  0  0  0  0  0  0  0
    6.2057    0.9494    0.1794 C   0  0  0  0  0  0  0  0  0  0  0  0
    5.9202    1.0116   -1.1594 C   0  0  0  0  0  0  0  0  0  0  0  0
    6.8244    1.4177   -2.1145 C   0  0  0  0  0  0  0  0  0  0  0  0
    8.0629    1.7748   -1.6995 N   0  0  0  0  0  0  0  0  0  0  0  0
    8.3762    1.7264   -0.4021 C   0  0  0  0  0  0  0  0  0  0  0  0
    9.6224    2.0929   -0.0377 N   0  0  0  0  0  0  0  0  0  0  0  0
    9.9656    2.0559    1.2652 C   0  0  0  0  0  0  0  0  0  0  0  0
   11.1319    2.3945    1.6444 O   0  0  0  0  0  0  0  0  0  0  0  0
    9.0760    1.6524    2.2386 C   0  0  0  0  0  0  0  0  0  0  0  0
    7.8266    1.2847    1.8704 N   0  0  0  0  0  0  0  0  0  0  0  0
    7.4852    1.3231    0.5627 C   0  0  0  0  0  0  0  0  0  0  0  0
    3.8019   -1.1621    0.2661 C   0  0  0  0  0  0  0  0  0  0  0  0
    4.8846   -1.9950   -0.0459 C   0  0  0  0  0  0  0  0  0  0  0  0
    4.7274   -3.2403   -0.6119 C   0  0  0  0  0  0  0  0  0  0  0  0
    3.4854   -3.6944   -0.8835 C   0  0  0  0  0  0  0  0  0  0  0  0
    2.3794   -2.8812   -0.5781 C   0  0  0  0  0  0  0  0  0  0  0  0
    2.5391   -1.6431   -0.0132 C   0  0  0  0  0  0  0  0  0  0  0  0
   -4.2539    0.1058    0.2675 N   0  0  0  0  0  0  0  0  0  0  0  0
   -5.5936   -0.0826    0.0765 N   0  0  0  0  0  0  0  0  0  0  0  0
   -3.8686    1.3265    0.8868 C   0  0  0  0  0  0  0  0  0  0  0  0
   -3.6157    1.3539    2.2668 C   0  0  0  0  0  0  0  0  0  0  0  0
   -3.3022    2.5221    2.9225 C   0  0  0  0  0  0  0  0  0  0  0  0
   -3.2274    3.7166    2.2277 C   0  0  0  0  0  0  0  0  0  0  0  0
   -3.4722    3.7178    0.8693 C   0  0  0  0  0  0  0  0  0  0  0  0
   -3.3922    4.9652    0.2126 N   0  0  0  0  0  0  0  0  0  0  0  0
   -3.7839    2.5395    0.2314 C   0  0  0  0  0  0  0  0  0  0  0  0
   -6.4119   -3.6014    0.0980 H   0  0  0  0  0  0  0  0  0  0  0  0
   -6.5401   -3.6603   -1.7194 H   0  0  0  0  0  0  0  0  0  0  0  0
   -8.0096   -3.8604   -0.6177 H   0  0  0  0  0  0  0  0  0  0  0  0
   -9.1605   -1.7486    0.1306 H   0  0  0  0  0  0  0  0  0  0  0  0
   -7.7450   -1.5567    1.2316 H   0  0  0  0  0  0  0  0  0  0  0  0
   -8.1593   -0.2338    0.1210 H   0  0  0  0  0  0  0  0  0  0  0  0
   -8.5240   -1.7489   -2.4989 H   0  0  0  0  0  0  0  0  0  0  0  0
   -7.6393   -0.1969   -2.0642 H   0  0  0  0  0  0  0  0  0  0  0  0
   -6.8072   -1.5808   -2.9192 H   0  0  0  0  0  0  0  0  0  0  0  0
   -4.4776   -2.8562   -1.0754 H   0  0  0  0  0  0  0  0  0  0  0  0
   -2.1309   -2.4073   -0.3391 H   0  0  0  0  0  0  0  0  0  0  0  0
    0.0080   -2.4548   -0.1126 H   0  0  0  0  0  0  0  0  0  0  0  0
    0.8432    0.9862    1.1785 H   0  0  0  0  0  0  0  0  0  0  0  0
    3.0506    1.7960    1.6255 H   0  0  0  0  0  0  0  0  0  0  0  0
    4.9189    0.7344   -1.5142 H   0  0  0  0  0  0  0  0  0  0  0  0
    6.5155    1.4375   -3.1519 H   0  0  0  0  0  0  0  0  0  0  0  0
   10.3528    2.4112   -0.7282 H   0  0  0  0  0  0  0  0  0  0  0  0
    9.3839    1.6326    3.2796 H   0  0  0  0  0  0  0  0  0  0  0  0
    5.8780   -1.6605    0.1924 H   0  0  0  0  0  0  0  0  0  0  0  0
    5.6357   -3.8242   -0.8221 H   0  0  0  0  0  0  0  0  0  0  0  0
    3.3364   -4.6681   -1.3285 H   0  0  0  0  0  0  0  0  0  0  0  0
    1.4209   -3.3050   -0.8309 H   0  0  0  0  0  0  0  0  0  0  0  0
   -3.6762    0.4143    2.8057 H   0  0  0  0  0  0  0  0  0  0  0  0
   -3.1016    2.5653    3.9858 H   0  0  0  0  0  0  0  0  0  0  0  0
   -2.9775    4.6467    2.7500 H   0  0  0  0  0  0  0  0  0  0  0  0
   -2.4789    5.3221   -0.1044 H   0  0  0  0  0  0  0  0  0  0  0  0
   -4.2479    5.5218    0.0488 H   0  0  0  0  0  0  0  0  0  0  0  0
   -3.9752    2.5457   -0.8324 H   0  0  0  0  0  0  0  0  0  0  0  0
  1  2  1  0
  2  3  1  0
  2  4  1  0
  2  5  1  0
  5  6  1  0
  6  7  2  0
  7  8  1  0
  8  9  1  0
  9 10  2  0
  9 11  1  0
 11 12  1  0
 12 13  2  0
 13 14  1  0
 14 15  2  0
 15 16  1  0
 16 17  1  0
 17 18  2  0
 18 19  1  0
 19 20  2  0
 20 21  1  0
 21 22  1  0
 22 23  1  0
 23 24  2  0
 23 25  1  0
 25 26  2  0
 26 27  1  0
 15 28  1  0
 28 29  2  0
 29 30  1  0
 30 31  2  0
 31 32  1  0
 32 33  2  0
  7 34  1  0
 34 35  1  0
 34 36  1  0
 36 37  2  0
 37 38  1  0
 38 39  2  0
 39 40  1  0
 40 41  1  0
 40 42  2  0
 35  5  2  0
 42 36  1  0
 33 12  1  0
 27 17  1  0
 33 28  1  0
 27 21  2  0
  1 43  1  0
  1 44  1  0
  1 45  1  0
  3 46  1  0
  3 47  1  0
  3 48  1  0
  4 49  1  0
  4 50  1  0
  4 51  1  0
  6 52  1  0
  8 53  1  0
 11 54  1  0
 13 55  1  0
 14 56  1  0
 18 57  1  0
 19 58  1  0
 22 59  1  0
 25 60  1  0
 29 61  1  0
 30 62  1  0
 31 63  1  0
 32 64  1  0
 37 65  1  0
 38 66  1  0
 39 67  1  0
 41 68  1  0
 41 69  1  0
 42 70  1  0
M  END
$$$$
[H]c1nc(N([H])[H])c([H])c(-n2c(N([H])c3c([H])c(N([H])C(=O)c4c([H])c([H])c([H])c(C(F)(F)F)c4[H])c([H])c([H])c3C([H])([H])[H])nc3c([H])c([H])c([H])c([H])c32)n1
     RDKit          3D

 57 61  0  0  0  0  0  0  0  0999 V2000
   -1.6432   -2.0416    2.7169 C   0  0  0  0  0  0  0  0  0  0  0  0
   -0.4053   -1.4867    2.0633 C   0  0  0  0  0  0  0  0  0  0  0  0
    0.8342   -1.8560    2.4707 C   0  0  0  0  0  0  0  0  0  0  0  0
    1.9648   -1.3222    1.8953 C   0  0  0  0  0  0  0  0  0  0  0  0
    1.8822   -0.3874    0.8761 C   0  0  0  0  0  0  0  0  0  0  0  0
    3.1468    0.0395    0.2902 N   0  0  0  0  0  0  0  0  0  0  0  0
    4.1825   -0.8981    0.1319 C   0  0  0  0  0  0  0  0  0  0  0  0
    3.9574   -2.1254    0.4591 O   0  0  0  0  0  0  0  0  0  0  0  0
    5.5124   -0.6686   -0.3620 C   0  0  0  0  0  0  0  0  0  0  0  0
    6.2085   -1.7268   -0.9935 C   0  0  0  0  0  0  0  0  0  0  0  0
    7.5029   -1.5976   -1.4178 C   0  0  0  0  0  0  0  0  0  0  0  0
    8.1760   -0.4198   -1.2395 C   0  0  0  0  0  0  0  0  0  0  0  0
    7.5489    0.6476   -0.6304 C   0  0  0  0  0  0  0  0  0  0  0  0
    6.2433    0.5004   -0.2105 C   0  0  0  0  0  0  0  0  0  0  0  0
    8.3554    1.8848   -0.4631 C   0  0  0  0  0  0  0  0  0  0  0  0
    9.1827    1.7204    0.6569 F   0  0  0  0  0  0  0  0  0  0  0  0
    7.6253    3.0175   -0.2734 F   0  0  0  0  0  0  0  0  0  0  0  0
    9.1307    2.1006   -1.6059 F   0  0  0  0  0  0  0  0  0  0  0  0
    0.6387    0.0017    0.4544 C   0  0  0  0  0  0  0  0  0  0  0  0
   -0.5280   -0.5230    1.0190 C   0  0  0  0  0  0  0  0  0  0  0  0
   -1.8358   -0.3085    0.6216 N   0  0  0  0  0  0  0  0  0  0  0  0
   -2.4500    0.8405    0.1121 C   0  0  0  0  0  0  0  0  0  0  0  0
   -2.0584    2.0868   -0.1661 N   0  0  0  0  0  0  0  0  0  0  0  0
   -3.0946    2.8754   -0.5621 C   0  0  0  0  0  0  0  0  0  0  0  0
   -3.2513    4.1921   -0.9126 C   0  0  0  0  0  0  0  0  0  0  0  0
   -4.4890    4.7055   -1.2275 C   0  0  0  0  0  0  0  0  0  0  0  0
   -5.6142    3.9009   -1.2026 C   0  0  0  0  0  0  0  0  0  0  0  0
   -5.4598    2.5754   -0.8527 C   0  0  0  0  0  0  0  0  0  0  0  0
   -4.1912    2.0914   -0.5358 C   0  0  0  0  0  0  0  0  0  0  0  0
   -3.8198    0.8820   -0.1403 N   0  0  0  0  0  0  0  0  0  0  0  0
   -4.6993   -0.2178    0.0100 C   0  0  0  0  0  0  0  0  0  0  0  0
   -4.7485   -1.2047   -0.9499 C   0  0  0  0  0  0  0  0  0  0  0  0
   -5.5854   -2.2820   -0.8318 C   0  0  0  0  0  0  0  0  0  0  0  0
   -5.6390   -3.3228   -1.8083 N   0  0  0  0  0  0  0  0  0  0  0  0
   -6.3867   -2.3688    0.2666 N   0  0  0  0  0  0  0  0  0  0  0  0
   -6.3356   -1.3968    1.2079 C   0  0  0  0  0  0  0  0  0  0  0  0
   -5.5174   -0.3658    1.0689 N   0  0  0  0  0  0  0  0  0  0  0  0
   -2.1040   -2.7528    2.0101 H   0  0  0  0  0  0  0  0  0  0  0  0
   -2.3603   -1.2131    2.9698 H   0  0  0  0  0  0  0  0  0  0  0  0
   -1.3766   -2.5985    3.6355 H   0  0  0  0  0  0  0  0  0  0  0  0
    0.9458   -2.5873    3.2690 H   0  0  0  0  0  0  0  0  0  0  0  0
    2.9552   -1.6055    2.2730 H   0  0  0  0  0  0  0  0  0  0  0  0
    3.2243    1.0157    0.0065 H   0  0  0  0  0  0  0  0  0  0  0  0
    5.6386   -2.6562   -1.1109 H   0  0  0  0  0  0  0  0  0  0  0  0
    8.0121   -2.4455   -1.9029 H   0  0  0  0  0  0  0  0  0  0  0  0
    9.2259   -0.3527   -1.5914 H   0  0  0  0  0  0  0  0  0  0  0  0
    5.7761    1.3585    0.2692 H   0  0  0  0  0  0  0  0  0  0  0  0
    0.5548    0.7297   -0.3343 H   0  0  0  0  0  0  0  0  0  0  0  0
   -2.4657   -1.2163    0.6894 H   0  0  0  0  0  0  0  0  0  0  0  0
   -2.3778    4.8442   -0.9514 H   0  0  0  0  0  0  0  0  0  0  0  0
   -4.6482    5.7667   -1.5019 H   0  0  0  0  0  0  0  0  0  0  0  0
   -6.6089    4.2836   -1.4481 H   0  0  0  0  0  0  0  0  0  0  0  0
   -6.3267    1.9303   -0.8277 H   0  0  0  0  0  0  0  0  0  0  0  0
   -4.1093   -1.1586   -1.8510 H   0  0  0  0  0  0  0  0  0  0  0  0
   -6.4919   -3.9111   -1.8868 H   0  0  0  0  0  0  0  0  0  0  0  0
   -4.8081   -3.4688   -2.4320 H   0  0  0  0  0  0  0  0  0  0  0  0
   -6.9953   -1.5044    2.0761 H   0  0  0  0  0  0  0  0  0  0  0  0
  1  2  1  0
  2  3  2  0
  3  4  1  0
  4  5  2  0
  5  6  1  0
  6  7  1  0
  7  8  2  0
  7  9  1  0
  9 10  2  0
 10 11  1  0
 11 12  2  0
 12 13  1  0
 13 14  2  0
 13 15  1  0
 15 16  1  0
 15 17  1  0
 15 18  1  0
  5 19  1  0
 19 20  2  0
 20 21  1  0
 21 22  1  0
 22 23  2  0
 23 24  1  0
 24 25  2  0
 25 26  1  0
 26 27  2  0
 27 28  1  0
 28 29  2  0
 29 30  1  0
 30 31  1  0
 31 32  2  0
 32 33  1  0
 33 34  1  0
 33 35  2  0
 35 36  1  0
 36 37  2  0
 20  2  1  0
 30 22  1  0
 37 31  1  0
 14  9  1  0
 29 24  1  0
  1 38  1  0
  1 39  1  0
  1 40  1  0
  3 41  1  0
  4 42  1  0
  6 43  1  0
 10 44  1  0
 11 45  1  0
 12 46  1  0
 14 47  1  0
 19 48  1  0
 21 49  1  0
 25 50  1  0
 26 51  1  0
 27 52  1  0
 28 53  1  0
 32 54  1  0
 34 55  1  0
 34 56  1  0
 36 57  1  0
M  END
$$$$
[H]OC(=O)[C@]([H])(N([H])[C@]1([H])C([H])([H])C([H])([H])[C@@]([H])(n2nc(-c3c([H])c([H])c(Oc4c([H])c([H])c([H])c([H])c4[H])c([H])c3[H])c3c(N([H])[H])nc([H])nc32)C([H])([H])C1([H])[H])C([H])([H])c1c([H])c([H])c([H])c([H])c1[H]
     RDKit          3D

 73 78  0  0  0  0  0  0  0  0999 V2000
   -4.2836   -1.5922    2.1126 N   0  0  0  0  0  0  0  0  0  0  0  0
   -2.8622   -1.6090    1.9799 C   0  0  0  0  0  0  0  0  0  0  0  0
   -2.0877   -2.0739    2.9898 N   0  0  0  0  0  0  0  0  0  0  0  0
   -0.7466   -2.0450    2.9145 C   0  0  0  0  0  0  0  0  0  0  0  0
   -0.1663   -1.5423    1.8141 N   0  0  0  0  0  0  0  0  0  0  0  0
   -0.8932   -1.0695    0.7861 C   0  0  0  0  0  0  0  0  0  0  0  0
   -0.5874   -0.5077   -0.3909 N   0  0  0  0  0  0  0  0  0  0  0  0
   -1.6935   -0.1900   -1.0646 N   0  0  0  0  0  0  0  0  0  0  0  0
   -2.7850   -0.5447   -0.3204 C   0  0  0  0  0  0  0  0  0  0  0  0
   -4.1594   -0.3204   -0.7366 C   0  0  0  0  0  0  0  0  0  0  0  0
   -4.5660    0.9811   -1.0943 C   0  0  0  0  0  0  0  0  0  0  0  0
   -5.8404    1.2095   -1.5533 C   0  0  0  0  0  0  0  0  0  0  0  0
   -6.7476    0.1808   -1.6747 C   0  0  0  0  0  0  0  0  0  0  0  0
   -8.0469    0.3786   -2.1336 O   0  0  0  0  0  0  0  0  0  0  0  0
   -9.0545    0.7034   -1.2085 C   0  0  0  0  0  0  0  0  0  0  0  0
  -10.3502    0.8788   -1.6351 C   0  0  0  0  0  0  0  0  0  0  0  0
  -11.3119    1.1992   -0.6909 C   0  0  0  0  0  0  0  0  0  0  0  0
  -11.0178    1.3467    0.6492 C   0  0  0  0  0  0  0  0  0  0  0  0
   -9.7146    1.1690    1.0723 C   0  0  0  0  0  0  0  0  0  0  0  0
   -8.7633    0.8509    0.1244 C   0  0  0  0  0  0  0  0  0  0  0  0
   -6.3692   -1.0992   -1.3314 C   0  0  0  0  0  0  0  0  0  0  0  0
   -5.0793   -1.3117   -0.8710 C   0  0  0  0  0  0  0  0  0  0  0  0
   -2.2986   -1.0917    0.8398 C   0  0  0  0  0  0  0  0  0  0  0  0
    0.7251   -0.2144   -0.8936 C   0  0  1  0  0  0  0  0  0  0  0  0
    1.1918    1.1710   -0.4730 C   0  0  0  0  0  0  0  0  0  0  0  0
    2.2370    1.1032    0.6053 C   0  0  0  0  0  0  0  0  0  0  0  0
    3.5211    0.4494    0.0871 C   0  0  1  0  0  0  0  0  0  0  0  0
    3.1075   -0.4485   -1.0665 C   0  0  0  0  0  0  0  0  0  0  0  0
    1.8114   -1.1624   -0.5826 C   0  0  0  0  0  0  0  0  0  0  0  0
    4.4920    1.4213   -0.2297 N   0  0  0  0  0  0  0  0  0  0  0  0
    5.8553    1.1991    0.1535 C   0  0  2  0  0  0  0  0  0  0  0  0
    6.4291    0.0131   -0.5528 C   0  0  0  0  0  0  0  0  0  0  0  0
    7.8389   -0.2276   -0.2071 C   0  0  0  0  0  0  0  0  0  0  0  0
    8.8351    0.5297   -0.8310 C   0  0  0  0  0  0  0  0  0  0  0  0
   10.1501    0.2712   -0.5730 C   0  0  0  0  0  0  0  0  0  0  0  0
   10.5757   -0.7144    0.2876 C   0  0  0  0  0  0  0  0  0  0  0  0
    9.6114   -1.4700    0.9109 C   0  0  0  0  0  0  0  0  0  0  0  0
    8.2837   -1.2199    0.6588 C   0  0  0  0  0  0  0  0  0  0  0  0
    6.0580    1.1727    1.6040 C   0  0  0  0  0  0  0  0  0  0  0  0
    7.2755    1.1167    2.2019 O   0  0  0  0  0  0  0  0  0  0  0  0
    5.0341    1.2090    2.3947 O   0  0  0  0  0  0  0  0  0  0  0  0
   -4.8215   -2.4756    2.0557 H   0  0  0  0  0  0  0  0  0  0  0  0
   -4.8056   -0.7074    2.2652 H   0  0  0  0  0  0  0  0  0  0  0  0
   -0.1397   -2.4240    3.7349 H   0  0  0  0  0  0  0  0  0  0  0  0
   -3.8719    1.8010   -1.0079 H   0  0  0  0  0  0  0  0  0  0  0  0
   -6.1738    2.2234   -1.8392 H   0  0  0  0  0  0  0  0  0  0  0  0
  -10.6258    0.7704   -2.6792 H   0  0  0  0  0  0  0  0  0  0  0  0
  -12.3541    1.3472   -0.9687 H   0  0  0  0  0  0  0  0  0  0  0  0
  -11.7796    1.5979    1.3780 H   0  0  0  0  0  0  0  0  0  0  0  0
   -9.4385    1.2723    2.1044 H   0  0  0  0  0  0  0  0  0  0  0  0
   -7.7162    0.6997    0.4202 H   0  0  0  0  0  0  0  0  0  0  0  0
   -7.0462   -1.9298   -1.4131 H   0  0  0  0  0  0  0  0  0  0  0  0
   -4.8415   -2.3581   -0.6434 H   0  0  0  0  0  0  0  0  0  0  0  0
    0.6503   -0.1792   -2.0218 H   0  0  0  0  0  0  0  0  0  0  0  0
    1.5977    1.7411   -1.3512 H   0  0  0  0  0  0  0  0  0  0  0  0
    0.3314    1.7342   -0.0970 H   0  0  0  0  0  0  0  0  0  0  0  0
    2.5001    2.1756    0.8325 H   0  0  0  0  0  0  0  0  0  0  0  0
    1.8342    0.6314    1.4945 H   0  0  0  0  0  0  0  0  0  0  0  0
    3.8214   -0.2636    0.8977 H   0  0  0  0  0  0  0  0  0  0  0  0
    3.8162   -1.2464   -1.2476 H   0  0  0  0  0  0  0  0  0  0  0  0
    2.8669    0.1634   -1.9787 H   0  0  0  0  0  0  0  0  0  0  0  0
    2.0059   -1.3883    0.4697 H   0  0  0  0  0  0  0  0  0  0  0  0
    1.7052   -2.0879   -1.2109 H   0  0  0  0  0  0  0  0  0  0  0  0
    4.4302    1.6640   -1.2368 H   0  0  0  0  0  0  0  0  0  0  0  0
    6.4218    2.1055   -0.2254 H   0  0  0  0  0  0  0  0  0  0  0  0
    6.2984    0.0751   -1.6508 H   0  0  0  0  0  0  0  0  0  0  0  0
    5.8684   -0.8805   -0.1431 H   0  0  0  0  0  0  0  0  0  0  0  0
    8.4868    1.3222   -1.5128 H   0  0  0  0  0  0  0  0  0  0  0  0
   10.9107    0.8888   -1.0750 H   0  0  0  0  0  0  0  0  0  0  0  0
   11.6241   -0.9117    0.4845 H   0  0  0  0  0  0  0  0  0  0  0  0
    9.9088   -2.2598    1.5937 H   0  0  0  0  0  0  0  0  0  0  0  0
    7.4880   -1.8074    1.1392 H   0  0  0  0  0  0  0  0  0  0  0  0
    7.4406    0.6072    3.0702 H   0  0  0  0  0  0  0  0  0  0  0  0
  1  2  1  0
  2  3  2  0
  3  4  1  0
  4  5  2  0
  5  6  1  0
  6  7  1  0
  7  8  1  0
  8  9  2  0
  9 10  1  0
 10 11  2  0
 11 12  1  0
 12 13  2  0
 13 14  1  0
 14 15  1  0
 15 16  2  0
 16 17  1  0
 17 18  2  0
 18 19  1  0
 19 20  2  0
 13 21  1  0
 21 22  2  0
  9 23  1  0
  7 24  1  0
 24 25  1  0
 25 26  1  0
 26 27  1  0
 27 28  1  0
 28 29  1  0
 27 30  1  0
 30 31  1  0
 31 32  1  0
 32 33  1  0
 33 34  2  0
 34 35  1  0
 35 36  2  0
 36 37  1  0
 37 38  2  0
 31 39  1  0
 39 40  1  0
 39 41  2  0
 23  2  1  0
 29 24  1  0
 38 33  1  0
 23  6  2  0
 22 10  1  0
 20 15  1  0
  1 42  1  0
  1 43  1  0
  4 44  1  0
 11 45  1  0
 12 46  1  0
 16 47  1  0
 17 48  1  0
 18 49  1  0
 19 50  1  0
 20 51  1  0
 21 52  1  0
 22 53  1  0
 24 54  1  6
 25 55  1  0
 25 56  1  0
 26 57  1  0
 26 58  1  0
 27 59  1  1
 28 60  1  0
 28 61  1  0
 29 62  1  0
 29 63  1  0
 30 64  1  0
 31 65  1  6
 32 66  1  0
 32 67  1  0
 34 68  1  0
 35 69  1  0
 36 70  1  0
 37 71  1  0
 38 72  1  0
 40 73  1  0
M  END
$$$$
[H]OC(=O)[C@]([H])(N([H])[C@]1([H])C([H])([H])C([H])([H])[C@@]([H])(n2c([H])c(-c3c([H])c([H])c(Oc4c([H])c([H])c([H])c([H])c4[H])c([H])c3[H])c3c(N([H])[H])nc([H])nc32)C([H])([H])C1([H])[H])C([H])([H])O[H]
     RDKit          3D

 65 69  0  0  0  0  0  0  0  0999 V2000
   -3.2123    1.3292   -2.3250 N   0  0  0  0  0  0  0  0  0  0  0  0
   -1.8067    1.4510   -2.3608 C   0  0  0  0  0  0  0  0  0  0  0  0
   -1.1817    2.2408   -3.2625 N   0  0  0  0  0  0  0  0  0  0  0  0
    0.1529    2.3528   -3.2610 C   0  0  0  0  0  0  0  0  0  0  0  0
    0.8835    1.6858   -2.3672 N   0  0  0  0  0  0  0  0  0  0  0  0
    0.3348    0.8937   -1.4546 C   0  0  0  0  0  0  0  0  0  0  0  0
    0.8364    0.1247   -0.4450 N   0  0  0  0  0  0  0  0  0  0  0  0
   -0.1736   -0.4753    0.1919 C   0  0  0  0  0  0  0  0  0  0  0  0
   -1.3635   -0.0923   -0.4143 C   0  0  0  0  0  0  0  0  0  0  0  0
   -2.6529   -0.5879   -0.0253 C   0  0  0  0  0  0  0  0  0  0  0  0
   -3.1855   -0.3033    1.2236 C   0  0  0  0  0  0  0  0  0  0  0  0
   -4.4096   -0.8121    1.5990 C   0  0  0  0  0  0  0  0  0  0  0  0
   -5.1707   -1.6196    0.7796 C   0  0  0  0  0  0  0  0  0  0  0  0
   -6.4238   -2.1318    1.1773 O   0  0  0  0  0  0  0  0  0  0  0  0
   -7.5062   -1.3414    0.8038 C   0  0  0  0  0  0  0  0  0  0  0  0
   -8.1398   -1.5312   -0.4293 C   0  0  0  0  0  0  0  0  0  0  0  0
   -9.2145   -0.7724   -0.8411 C   0  0  0  0  0  0  0  0  0  0  0  0
   -9.6964    0.2120   -0.0250 C   0  0  0  0  0  0  0  0  0  0  0  0
   -9.1032    0.4340    1.1979 C   0  0  0  0  0  0  0  0  0  0  0  0
   -8.0190   -0.3429    1.5961 C   0  0  0  0  0  0  0  0  0  0  0  0
   -4.6523   -1.9107   -0.4632 C   0  0  0  0  0  0  0  0  0  0  0  0
   -3.4332   -1.4066   -0.8429 C   0  0  0  0  0  0  0  0  0  0  0  0
   -1.0519    0.7531   -1.4286 C   0  0  0  0  0  0  0  0  0  0  0  0
    2.2265    0.0250   -0.1893 C   0  0  1  0  0  0  0  0  0  0  0  0
    2.7242    0.8306    0.9596 C   0  0  0  0  0  0  0  0  0  0  0  0
    4.2597    0.8930    0.7986 C   0  0  0  0  0  0  0  0  0  0  0  0
    4.8555   -0.4516    0.8925 C   0  0  1  0  0  0  0  0  0  0  0  0
    4.0836   -1.5818    0.2449 C   0  0  0  0  0  0  0  0  0  0  0  0
    2.6242   -1.4187    0.1300 C   0  0  0  0  0  0  0  0  0  0  0  0
    6.1580   -0.4999    0.3192 N   0  0  0  0  0  0  0  0  0  0  0  0
    7.2392    0.2063    0.7987 C   0  0  2  0  0  0  0  0  0  0  0  0
    7.2740    1.6938    0.7522 C   0  0  0  0  0  0  0  0  0  0  0  0
    7.1700    2.1580   -0.5628 O   0  0  0  0  0  0  0  0  0  0  0  0
    8.4667   -0.2547    0.0436 C   0  0  0  0  0  0  0  0  0  0  0  0
    9.7246    0.2632    0.2968 O   0  0  0  0  0  0  0  0  0  0  0  0
    8.3343   -1.1272   -0.8318 O   0  0  0  0  0  0  0  0  0  0  0  0
   -3.7040    0.8485   -3.1021 H   0  0  0  0  0  0  0  0  0  0  0  0
   -3.8186    1.6969   -1.5524 H   0  0  0  0  0  0  0  0  0  0  0  0
    0.6006    3.0068   -4.0165 H   0  0  0  0  0  0  0  0  0  0  0  0
   -0.1432   -1.1488    1.0339 H   0  0  0  0  0  0  0  0  0  0  0  0
   -2.6286    0.3276    1.9067 H   0  0  0  0  0  0  0  0  0  0  0  0
   -4.8365   -0.5869    2.5893 H   0  0  0  0  0  0  0  0  0  0  0  0
   -7.7820   -2.2924   -1.0833 H   0  0  0  0  0  0  0  0  0  0  0  0
   -9.6591   -0.9632   -1.7941 H   0  0  0  0  0  0  0  0  0  0  0  0
  -10.5351    0.8252   -0.3168 H   0  0  0  0  0  0  0  0  0  0  0  0
   -9.5005    1.2196    1.8286 H   0  0  0  0  0  0  0  0  0  0  0  0
   -7.5897   -0.1414    2.5446 H   0  0  0  0  0  0  0  0  0  0  0  0
   -5.2084   -2.5377   -1.1363 H   0  0  0  0  0  0  0  0  0  0  0  0
   -3.0033   -1.6361   -1.8250 H   0  0  0  0  0  0  0  0  0  0  0  0
    2.8603    0.2950   -1.0741 H   0  0  0  0  0  0  0  0  0  0  0  0
    2.3947    1.8761    0.9932 H   0  0  0  0  0  0  0  0  0  0  0  0
    2.5566    0.2950    1.9250 H   0  0  0  0  0  0  0  0  0  0  0  0
    4.5762    1.4959    1.6837 H   0  0  0  0  0  0  0  0  0  0  0  0
    4.4633    1.3521   -0.1682 H   0  0  0  0  0  0  0  0  0  0  0  0
    4.9073   -0.6840    2.0197 H   0  0  0  0  0  0  0  0  0  0  0  0
    4.2864   -2.4994    0.8648 H   0  0  0  0  0  0  0  0  0  0  0  0
    4.5103   -1.8021   -0.7580 H   0  0  0  0  0  0  0  0  0  0  0  0
    2.0596   -1.7922    1.0240 H   0  0  0  0  0  0  0  0  0  0  0  0
    2.2560   -2.0193   -0.7266 H   0  0  0  0  0  0  0  0  0  0  0  0
    6.2095   -0.8867   -0.6447 H   0  0  0  0  0  0  0  0  0  0  0  0
    7.4319   -0.1248    1.8705 H   0  0  0  0  0  0  0  0  0  0  0  0
    6.6913    2.2458    1.4735 H   0  0  0  0  0  0  0  0  0  0  0  0
    8.3627    1.9592    1.0271 H   0  0  0  0  0  0  0  0  0  0  0  0
    6.7372    3.0648   -0.5409 H   0  0  0  0  0  0  0  0  0  0  0  0
   10.5542   -0.2792    0.2801 H   0  0  0  0  0  0  0  0  0  0  0  0
  1  2  1  0
  2  3  2  0
  3  4  1  0
  4  5  2  0
  5  6  1  0
  6  7  1  0
  7  8  1  0
  8  9  2  0
  9 10  1  0
 10 11  2  0
 11 12  1  0
 12 13  2  0
 13 14  1  0
 14 15  1  0
 15 16  2  0
 16 17  1  0
 17 18  2  0
 18 19  1  0
 19 20  2  0
 13 21  1  0
 21 22  2  0
  9 23  1  0
  7 24  1  0
 24 25  1  0
 25 26  1  0
 26 27  1  0
 27 28  1  0
 28 29  1  0
 27 30  1  0
 30 31  1  0
 31 32  1  0
 32 33  1  0
 31 34  1  0
 34 35  1  0
 34 36  2  0
 23  2  1  0
 29 24  1  0
 23  6  2  0
 22 10  1  0
 20 15  1  0
  1 37  1  0
  1 38  1  0
  4 39  1  0
  8 40  1  0
 11 41  1  0
 12 42  1  0
 16 43  1  0
 17 44  1  0
 18 45  1  0
 19 46  1  0
 20 47  1  0
 21 48  1  0
 22 49  1  0
 24 50  1  6
 25 51  1  0
 25 52  1  0
 26 53  1  0
 26 54  1  0
 27 55  1  1
 28 56  1  0
 28 57  1  0
 29 58  1  0
 29 59  1  0
 30 60  1  0
 31 61  1  1
 32 62  1  0
 32 63  1  0
 33 64  1  0
 35 65  1  0
M  END
$$$$
[H]c1c([H])c(Cl)c(-c2c([H])c3c([H])nc(N([H])c4c([H])c([H])c(N5C([H])([H])C([H])([H])N(C([H])([H])[H])C([H])([H])C5([H])[H])c([H])c4[H])nc3n(C([H])([H])[H])c2=O)c(Cl)c1[H]
     RDKit          3D

 58 62  0  0  0  0  0  0  0  0999 V2000
    8.7224   -0.7038   -1.0744 C   0  0  0  0  0  0  0  0  0  0  0  0
    7.4397   -0.3590   -1.6865 N   0  0  0  0  0  0  0  0  0  0  0  0
    7.0422    0.9098   -1.1085 C   0  0  0  0  0  0  0  0  0  0  0  0
    6.3179    0.6491    0.1968 C   0  0  0  0  0  0  0  0  0  0  0  0
    5.0438    0.0436   -0.1284 N   0  0  0  0  0  0  0  0  0  0  0  0
    5.0923   -0.9153   -1.2399 C   0  0  0  0  0  0  0  0  0  0  0  0
    6.5145   -1.4160   -1.3667 C   0  0  0  0  0  0  0  0  0  0  0  0
    3.8252    0.3062    0.5286 C   0  0  0  0  0  0  0  0  0  0  0  0
    3.7214    1.1243    1.6305 C   0  0  0  0  0  0  0  0  0  0  0  0
    2.5219    1.3736    2.2571 C   0  0  0  0  0  0  0  0  0  0  0  0
    1.3265    0.7971    1.7969 C   0  0  0  0  0  0  0  0  0  0  0  0
    0.1469    1.0923    2.4998 N   0  0  0  0  0  0  0  0  0  0  0  0
   -1.1899    0.8532    2.1110 C   0  0  0  0  0  0  0  0  0  0  0  0
   -2.2165    1.2108    2.9512 N   0  0  0  0  0  0  0  0  0  0  0  0
   -3.5029    1.0306    2.6538 C   0  0  0  0  0  0  0  0  0  0  0  0
   -3.8747    0.4675    1.4698 C   0  0  0  0  0  0  0  0  0  0  0  0
   -5.2097    0.2655    1.1275 C   0  0  0  0  0  0  0  0  0  0  0  0
   -5.5448   -0.3068   -0.0798 C   0  0  0  0  0  0  0  0  0  0  0  0
   -6.9463   -0.5110   -0.4233 C   0  0  0  0  0  0  0  0  0  0  0  0
   -7.5727   -1.6909   -0.0816 C   0  0  0  0  0  0  0  0  0  0  0  0
   -6.7254   -2.9692    0.7637 Cl  0  0  0  0  0  0  0  0  0  0  0  0
   -8.9062   -1.9121   -0.3963 C   0  0  0  0  0  0  0  0  0  0  0  0
   -9.6532   -0.9477   -1.0678 C   0  0  0  0  0  0  0  0  0  0  0  0
   -9.0241    0.2360   -1.4104 C   0  0  0  0  0  0  0  0  0  0  0  0
   -7.7010    0.4264   -1.0849 C   0  0  0  0  0  0  0  0  0  0  0  0
   -6.9498    1.9389   -1.5390 Cl  0  0  0  0  0  0  0  0  0  0  0  0
   -4.5000   -0.6566   -0.9040 C   0  0  0  0  0  0  0  0  0  0  0  0
   -4.7838   -1.1819   -2.0136 O   0  0  0  0  0  0  0  0  0  0  0  0
   -3.2127   -0.4601   -0.5703 N   0  0  0  0  0  0  0  0  0  0  0  0
   -2.1231   -0.8424   -1.4667 C   0  0  0  0  0  0  0  0  0  0  0  0
   -2.8626    0.0985    0.6064 C   0  0  0  0  0  0  0  0  0  0  0  0
   -1.5959    0.3058    0.9635 N   0  0  0  0  0  0  0  0  0  0  0  0
    1.4499   -0.0143    0.6998 C   0  0  0  0  0  0  0  0  0  0  0  0
    2.6757   -0.2660    0.0631 C   0  0  0  0  0  0  0  0  0  0  0  0
    8.4600   -1.1949   -0.0924 H   0  0  0  0  0  0  0  0  0  0  0  0
    9.2266   -1.4433   -1.7258 H   0  0  0  0  0  0  0  0  0  0  0  0
    9.3445    0.2028   -0.8899 H   0  0  0  0  0  0  0  0  0  0  0  0
    7.8706    1.5909   -0.9005 H   0  0  0  0  0  0  0  0  0  0  0  0
    6.3455    1.3995   -1.8075 H   0  0  0  0  0  0  0  0  0  0  0  0
    6.2737    1.5522    0.7954 H   0  0  0  0  0  0  0  0  0  0  0  0
    6.9057   -0.1203    0.7570 H   0  0  0  0  0  0  0  0  0  0  0  0
    4.7414   -0.4993   -2.1814 H   0  0  0  0  0  0  0  0  0  0  0  0
    4.5014   -1.8035   -0.8821 H   0  0  0  0  0  0  0  0  0  0  0  0
    6.5452   -2.1425   -2.2209 H   0  0  0  0  0  0  0  0  0  0  0  0
    6.8537   -1.9325   -0.4561 H   0  0  0  0  0  0  0  0  0  0  0  0
    4.6486    1.5712    1.9890 H   0  0  0  0  0  0  0  0  0  0  0  0
    2.4849    2.0217    3.1179 H   0  0  0  0  0  0  0  0  0  0  0  0
    0.2484    1.5552    3.4589 H   0  0  0  0  0  0  0  0  0  0  0  0
   -4.2586    1.3336    3.3571 H   0  0  0  0  0  0  0  0  0  0  0  0
   -5.9798    0.5697    1.8346 H   0  0  0  0  0  0  0  0  0  0  0  0
   -9.4125   -2.8283   -0.1374 H   0  0  0  0  0  0  0  0  0  0  0  0
  -10.7017   -1.1457   -1.3040 H   0  0  0  0  0  0  0  0  0  0  0  0
   -9.6092    0.9884   -1.9349 H   0  0  0  0  0  0  0  0  0  0  0  0
   -1.4230   -1.4968   -0.8848 H   0  0  0  0  0  0  0  0  0  0  0  0
   -2.4850   -1.4366   -2.3206 H   0  0  0  0  0  0  0  0  0  0  0  0
   -1.5780    0.0677   -1.7368 H   0  0  0  0  0  0  0  0  0  0  0  0
    0.5779   -0.5003    0.2943 H   0  0  0  0  0  0  0  0  0  0  0  0
    2.6748   -0.9267   -0.8068 H   0  0  0  0  0  0  0  0  0  0  0  0
  1  2  1  0
  2  3  1  0
  3  4  1  0
  4  5  1  0
  5  6  1  0
  6  7  1  0
  5  8  1  0
  8  9  2  0
  9 10  1  0
 10 11  2  0
 11 12  1  0
 12 13  1  0
 13 14  2  0
 14 15  1  0
 15 16  2  0
 16 17  1  0
 17 18  2  0
 18 19  1  0
 19 20  2  0
 20 21  1  0
 20 22  1  0
 22 23  2  0
 23 24  1  0
 24 25  2  0
 25 26  1  0
 18 27  1  0
 27 28  2  0
 27 29  1  0
 29 30  1  0
 29 31  1  0
 31 32  2  0
 11 33  1  0
 33 34  2  0
  7  2  1  0
 34  8  1  0
 32 13  1  0
 31 16  1  0
 25 19  1  0
  1 35  1  0
  1 36  1  0
  1 37  1  0
  3 38  1  0
  3 39  1  0
  4 40  1  0
  4 41  1  0
  6 42  1  0
  6 43  1  0
  7 44  1  0
  7 45  1  0
  9 46  1  0
 10 47  1  0
 12 48  1  0
 15 49  1  0
 17 50  1  0
 22 51  1  0
 23 52  1  0
 24 53  1  0
 30 54  1  0
 30 55  1  0
 30 56  1  0
 33 57  1  0
 34 58  1  0
M  END
$$$$
[H]c1c([H])c(N([H])C(=O)c2c([H])c([H])c(C([H])([H])[H])c(-c3c([H])c([H])c4nc(N([H])C([H])([H])[H])nc([H])c4c3[H])c2[H])c(C([H])([H])[H])c(C(F)(F)F)c1[H]
     RDKit          3D

 54 57  0  0  0  0  0  0  0  0999 V2000
    9.1630   -1.8977    0.4381 C   0  0  0  0  0  0  0  0  0  0  0  0
    8.2538   -2.1455   -0.6600 N   0  0  0  0  0  0  0  0  0  0  0  0
    6.9361   -1.6191   -0.6640 C   0  0  0  0  0  0  0  0  0  0  0  0
    6.0896   -1.8530   -1.6920 N   0  0  0  0  0  0  0  0  0  0  0  0
    4.8517   -1.3848   -1.7430 C   0  0  0  0  0  0  0  0  0  0  0  0
    4.3544   -0.6212   -0.7322 C   0  0  0  0  0  0  0  0  0  0  0  0
    3.0811   -0.0984   -0.7110 C   0  0  0  0  0  0  0  0  0  0  0  0
    2.6025    0.6731    0.3276 C   0  0  0  0  0  0  0  0  0  0  0  0
    3.4391    0.9294    1.3892 C   0  0  0  0  0  0  0  0  0  0  0  0
    4.7142    0.4081    1.3718 C   0  0  0  0  0  0  0  0  0  0  0  0
    5.1961   -0.3589    0.3432 C   0  0  0  0  0  0  0  0  0  0  0  0
    6.4550   -0.8662    0.3394 N   0  0  0  0  0  0  0  0  0  0  0  0
    1.2354    1.1771    0.2686 C   0  0  0  0  0  0  0  0  0  0  0  0
    0.1933    0.3241   -0.0414 C   0  0  0  0  0  0  0  0  0  0  0  0
   -1.1146    0.7186   -0.1087 C   0  0  0  0  0  0  0  0  0  0  0  0
   -1.4085    2.0252    0.1432 C   0  0  0  0  0  0  0  0  0  0  0  0
   -0.3887    2.9090    0.4573 C   0  0  0  0  0  0  0  0  0  0  0  0
    0.9367    2.4868    0.5207 C   0  0  0  0  0  0  0  0  0  0  0  0
    1.9591    3.4909    0.8526 C   0  0  0  0  0  0  0  0  0  0  0  0
   -2.1915   -0.2388   -0.4556 C   0  0  0  0  0  0  0  0  0  0  0  0
   -1.8145   -1.2831   -1.0468 O   0  0  0  0  0  0  0  0  0  0  0  0
   -3.5207    0.0465   -0.1250 N   0  0  0  0  0  0  0  0  0  0  0  0
   -4.6730   -0.7317   -0.3713 C   0  0  0  0  0  0  0  0  0  0  0  0
   -4.6684   -1.9537   -1.0032 C   0  0  0  0  0  0  0  0  0  0  0  0
   -5.8425   -2.6530   -1.2048 C   0  0  0  0  0  0  0  0  0  0  0  0
   -7.0112   -2.1089   -0.7646 C   0  0  0  0  0  0  0  0  0  0  0  0
   -7.0663   -0.8770   -0.1206 C   0  0  0  0  0  0  0  0  0  0  0  0
   -5.9073   -0.1900    0.0762 C   0  0  0  0  0  0  0  0  0  0  0  0
   -5.9448    1.1171    0.7445 C   0  0  0  0  0  0  0  0  0  0  0  0
   -8.3699   -0.4161    0.3079 C   0  0  0  0  0  0  0  0  0  0  0  0
   -9.3778   -1.3343   -0.0619 F   0  0  0  0  0  0  0  0  0  0  0  0
   -8.6945    0.7517   -0.3495 F   0  0  0  0  0  0  0  0  0  0  0  0
   -8.5571   -0.2351    1.6523 F   0  0  0  0  0  0  0  0  0  0  0  0
    8.5982   -1.6540    1.3811 H   0  0  0  0  0  0  0  0  0  0  0  0
    9.7372   -2.8164    0.6442 H   0  0  0  0  0  0  0  0  0  0  0  0
    9.7954   -1.0155    0.2389 H   0  0  0  0  0  0  0  0  0  0  0  0
    8.6024   -2.7258   -1.4494 H   0  0  0  0  0  0  0  0  0  0  0  0
    4.2360   -1.6124   -2.5936 H   0  0  0  0  0  0  0  0  0  0  0  0
    2.4604   -0.3348   -1.5811 H   0  0  0  0  0  0  0  0  0  0  0  0
    3.0964    1.5401    2.2470 H   0  0  0  0  0  0  0  0  0  0  0  0
    5.3689    0.6139    2.2115 H   0  0  0  0  0  0  0  0  0  0  0  0
    0.4265   -0.7197   -0.2431 H   0  0  0  0  0  0  0  0  0  0  0  0
   -2.3971    2.4520    0.1150 H   0  0  0  0  0  0  0  0  0  0  0  0
   -0.6242    3.9437    0.6568 H   0  0  0  0  0  0  0  0  0  0  0  0
    1.6039    4.4950    0.4700 H   0  0  0  0  0  0  0  0  0  0  0  0
    2.0366    3.6668    1.9651 H   0  0  0  0  0  0  0  0  0  0  0  0
    2.9313    3.3426    0.3711 H   0  0  0  0  0  0  0  0  0  0  0  0
   -3.6647    0.9739    0.3846 H   0  0  0  0  0  0  0  0  0  0  0  0
   -3.7670   -2.3874   -1.3497 H   0  0  0  0  0  0  0  0  0  0  0  0
   -5.8249   -3.6291   -1.7115 H   0  0  0  0  0  0  0  0  0  0  0  0
   -7.9305   -2.6797   -0.9344 H   0  0  0  0  0  0  0  0  0  0  0  0
   -5.4440    1.9193    0.1474 H   0  0  0  0  0  0  0  0  0  0  0  0
   -6.8916    1.4283    1.1714 H   0  0  0  0  0  0  0  0  0  0  0  0
   -5.2590    1.0082    1.6431 H   0  0  0  0  0  0  0  0  0  0  0  0
  1  2  1  0
  2  3  1  0
  3  4  2  0
  4  5  1  0
  5  6  2  0
  6  7  1  0
  7  8  2  0
  8  9  1  0
  9 10  2  0
 10 11  1  0
 11 12  2  0
  8 13  1  0
 13 14  2  0
 14 15  1  0
 15 16  2  0
 16 17  1  0
 17 18  2  0
 18 19  1  0
 15 20  1  0
 20 21  2  0
 20 22  1  0
 22 23  1  0
 23 24  2  0
 24 25  1  0
 25 26  2  0
 26 27  1  0
 27 28  2  0
 28 29  1  0
 27 30  1  0
 30 31  1  0
 30 32  1  0
 30 33  1  0
 12  3  1  0
 18 13  1  0
 28 23  1  0
 11  6  1  0
  1 34  1  0
  1 35  1  0
  1 36  1  0
  2 37  1  0
  5 38  1  0
  7 39  1  0
  9 40  1  0
 10 41  1  0
 14 42  1  0
 16 43  1  0
 17 44  1  0
 19 45  1  0
 19 46  1  0
 19 47  1  0
 22 48  1  0
 24 49  1  0
 25 50  1  0
 26 51  1  0
 29 52  1  0
 29 53  1  0
 29 54  1  0
M  END
$$$$
[H]O[C@]1([H])C([H])([H])C([H])([H])[C@@]([H])(N([H])[C@]2([H])C([H])([H])C([H])([H])[C@@]([H])(n3c([H])c(-c4c([H])c([H])c(Oc5c([H])c([H])c([H])c([H])c5[H])c([H])c4[H])c4c(N([H])[H])nc([H])nc43)C([H])([H])C2([H])[H])C([H])([H])C1([H])[H]
     RDKit          3D

 72 77  0  0  0  0  0  0  0  0999 V2000
   -3.8672    2.6662    0.8145 N   0  0  0  0  0  0  0  0  0  0  0  0
   -2.4507    2.6608    0.6540 C   0  0  0  0  0  0  0  0  0  0  0  0
   -1.8006    3.8703    0.6877 N   0  0  0  0  0  0  0  0  0  0  0  0
   -0.4806    3.9146    0.5882 C   0  0  0  0  0  0  0  0  0  0  0  0
    0.2056    2.7820    0.4544 N   0  0  0  0  0  0  0  0  0  0  0  0
   -0.3891    1.5767    0.4147 C   0  0  0  0  0  0  0  0  0  0  0  0
    0.0491    0.3103    0.2907 N   0  0  0  0  0  0  0  0  0  0  0  0
   -0.9933   -0.5515    0.3016 C   0  0  0  0  0  0  0  0  0  0  0  0
   -2.1379    0.1387    0.4373 C   0  0  0  0  0  0  0  0  0  0  0  0
   -3.5639   -0.2232    0.4576 C   0  0  0  0  0  0  0  0  0  0  0  0
   -4.2774   -0.5477    1.5658 C   0  0  0  0  0  0  0  0  0  0  0  0
   -5.6520   -0.7005    1.4990 C   0  0  0  0  0  0  0  0  0  0  0  0
   -6.3753   -0.5419    0.3350 C   0  0  0  0  0  0  0  0  0  0  0  0
   -7.6506   -0.6354    0.1498 O   0  0  0  0  0  0  0  0  0  0  0  0
   -8.8895   -0.7277   -0.0303 C   0  0  0  0  0  0  0  0  0  0  0  0
   -9.4061   -0.5526   -1.3344 C   0  0  0  0  0  0  0  0  0  0  0  0
  -10.7372   -0.6240   -1.6166 C   0  0  0  0  0  0  0  0  0  0  0  0
  -11.6096   -0.8734   -0.5942 C   0  0  0  0  0  0  0  0  0  0  0  0
  -11.1735   -1.0564    0.6992 C   0  0  0  0  0  0  0  0  0  0  0  0
   -9.8332   -0.9813    0.9507 C   0  0  0  0  0  0  0  0  0  0  0  0
   -5.5970   -0.2148   -0.8079 C   0  0  0  0  0  0  0  0  0  0  0  0
   -4.2539   -0.0600   -0.7598 C   0  0  0  0  0  0  0  0  0  0  0  0
   -1.7662    1.5026    0.5168 C   0  0  0  0  0  0  0  0  0  0  0  0
    1.4375   -0.0664    0.1771 C   0  0  1  0  0  0  0  0  0  0  0  0
    1.6830   -0.9747   -0.9789 C   0  0  0  0  0  0  0  0  0  0  0  0
    3.1758   -1.4146   -0.8852 C   0  0  0  0  0  0  0  0  0  0  0  0
    3.9673   -0.1311   -1.1816 C   0  0  1  0  0  0  0  0  0  0  0  0
    3.7712    0.7264    0.0731 C   0  0  0  0  0  0  0  0  0  0  0  0
    2.3278    1.1774    0.0881 C   0  0  0  0  0  0  0  0  0  0  0  0
    5.2769   -0.2779   -1.5699 N   0  0  0  0  0  0  0  0  0  0  0  0
    6.3642   -0.7326   -0.8549 C   0  0  1  0  0  0  0  0  0  0  0  0
    7.4354    0.3943   -0.9902 C   0  0  0  0  0  0  0  0  0  0  0  0
    8.7781   -0.2346   -0.6756 C   0  0  0  0  0  0  0  0  0  0  0  0
    8.7769   -0.6325    0.7889 C   0  0  2  0  0  0  0  0  0  0  0  0
    9.9176   -1.4192    0.9956 O   0  0  0  0  0  0  0  0  0  0  0  0
    7.5803   -1.4430    1.1566 C   0  0  0  0  0  0  0  0  0  0  0  0
    6.2663   -0.9091    0.6275 C   0  0  0  0  0  0  0  0  0  0  0  0
   -4.2108    2.4907    1.8066 H   0  0  0  0  0  0  0  0  0  0  0  0
   -4.5533    2.8490    0.0716 H   0  0  0  0  0  0  0  0  0  0  0  0
    0.0738    4.8713    0.6092 H   0  0  0  0  0  0  0  0  0  0  0  0
   -0.9327   -1.6463    0.2196 H   0  0  0  0  0  0  0  0  0  0  0  0
   -3.7407   -0.6825    2.5049 H   0  0  0  0  0  0  0  0  0  0  0  0
   -6.2034   -0.9637    2.4119 H   0  0  0  0  0  0  0  0  0  0  0  0
   -8.7138   -0.3435   -2.1469 H   0  0  0  0  0  0  0  0  0  0  0  0
  -11.1383   -0.4872   -2.6216 H   0  0  0  0  0  0  0  0  0  0  0  0
  -12.6819   -0.9394   -0.7893 H   0  0  0  0  0  0  0  0  0  0  0  0
  -11.9419   -1.2561    1.4573 H   0  0  0  0  0  0  0  0  0  0  0  0
   -9.5301   -1.1316    2.0057 H   0  0  0  0  0  0  0  0  0  0  0  0
   -6.1503   -0.0918   -1.7518 H   0  0  0  0  0  0  0  0  0  0  0  0
   -3.6438    0.1911   -1.6259 H   0  0  0  0  0  0  0  0  0  0  0  0
    1.7668   -0.6402    1.0884 H   0  0  0  0  0  0  0  0  0  0  0  0
    1.0731   -1.8703   -0.8295 H   0  0  0  0  0  0  0  0  0  0  0  0
    1.5259   -0.4775   -1.9919 H   0  0  0  0  0  0  0  0  0  0  0  0
    3.2668   -1.7627    0.1410 H   0  0  0  0  0  0  0  0  0  0  0  0
    3.4014   -2.2188   -1.5955 H   0  0  0  0  0  0  0  0  0  0  0  0
    3.4157    0.3685   -1.9670 H   0  0  0  0  0  0  0  0  0  0  0  0
    4.4651    1.5812    0.0025 H   0  0  0  0  0  0  0  0  0  0  0  0
    3.8627    0.1485    1.0185 H   0  0  0  0  0  0  0  0  0  0  0  0
    2.2280    1.7381    1.0385 H   0  0  0  0  0  0  0  0  0  0  0  0
    2.0735    1.7254   -0.8418 H   0  0  0  0  0  0  0  0  0  0  0  0
    5.5380   -0.1078   -2.5580 H   0  0  0  0  0  0  0  0  0  0  0  0
    6.8484   -1.6169   -1.2992 H   0  0  0  0  0  0  0  0  0  0  0  0
    7.4559    0.8036   -2.0057 H   0  0  0  0  0  0  0  0  0  0  0  0
    7.2524    1.2198   -0.2907 H   0  0  0  0  0  0  0  0  0  0  0  0
    9.0376   -1.0623   -1.3291 H   0  0  0  0  0  0  0  0  0  0  0  0
    9.5937    0.5287   -0.7999 H   0  0  0  0  0  0  0  0  0  0  0  0
    8.8518    0.2121    1.4650 H   0  0  0  0  0  0  0  0  0  0  0  0
   10.6758   -1.1355    0.4619 H   0  0  0  0  0  0  0  0  0  0  0  0
    7.6865   -2.4897    0.7513 H   0  0  0  0  0  0  0  0  0  0  0  0
    7.5638   -1.5025    2.2677 H   0  0  0  0  0  0  0  0  0  0  0  0
    5.4958   -1.6050    0.9608 H   0  0  0  0  0  0  0  0  0  0  0  0
    6.1800    0.1089    1.0836 H   0  0  0  0  0  0  0  0  0  0  0  0
  1  2  1  0
  2  3  2  0
  3  4  1  0
  4  5  2  0
  5  6  1  0
  6  7  1  0
  7  8  1  0
  8  9  2  0
  9 10  1  0
 10 11  2  0
 11 12  1  0
 12 13  2  0
 13 14  1  0
 14 15  1  0
 15 16  2  0
 16 17  1  0
 17 18  2  0
 18 19  1  0
 19 20  2  0
 13 21  1  0
 21 22  2  0
  9 23  1  0
  7 24  1  0
 24 25  1  0
 25 26  1  0
 26 27  1  0
 27 28  1  0
 28 29  1  0
 27 30  1  0
 30 31  1  0
 31 32  1  0
 32 33  1  0
 33 34  1  0
 34 35  1  0
 34 36  1  0
 36 37  1  0
 23  2  1  0
 29 24  1  0
 37 31  1  0
 23  6  2  0
 22 10  1  0
 20 15  1  0
  1 38  1  0
  1 39  1  0
  4 40  1  0
  8 41  1  0
 11 42  1  0
 12 43  1  0
 16 44  1  0
 17 45  1  0
 18 46  1  0
 19 47  1  0
 20 48  1  0
 21 49  1  0
 22 50  1  0
 24 51  1  1
 25 52  1  0
 25 53  1  0
 26 54  1  0
 26 55  1  0
 27 56  1  6
 28 57  1  0
 28 58  1  0
 29 59  1  0
 29 60  1  0
 30 61  1  0
 31 62  1  6
 32 63  1  0
 32 64  1  0
 33 65  1  0
 33 66  1  0
 34 67  1  1
 35 68  1  0
 36 69  1  0
 36 70  1  0
 37 71  1  0
 37 72  1  0
M  END
$$$$
[H]c1nc2c(nc([H])c(=O)n2[H])c(Oc2c([H])c([H])c(N([H])C(=O)N([H])c3c([H])c(C(C([H])([H])[H])(C([H])([H])[H])C([H])([H])[H])nn3-c3c([H])c([H])c([H])c(C(F)(F)F)c3[H])c3c([H])c([H])c([H])c([H])c23)c1[H]
     RDKit          3D

 71 76  0  0  0  0  0  0  0  0999 V2000
   -7.3488    2.4249   -0.1659 C   0  0  0  0  0  0  0  0  0  0  0  0
   -5.9662    2.9783   -0.0548 C   0  0  0  0  0  0  0  0  0  0  0  0
   -5.9175    3.8505    1.1892 C   0  0  0  0  0  0  0  0  0  0  0  0
   -5.5881    3.7357   -1.2858 C   0  0  0  0  0  0  0  0  0  0  0  0
   -5.0265    1.8175    0.1573 C   0  0  0  0  0  0  0  0  0  0  0  0
   -3.6646    1.8766    0.2074 C   0  0  0  0  0  0  0  0  0  0  0  0
   -3.1251    0.5637    0.4378 C   0  0  0  0  0  0  0  0  0  0  0  0
   -1.7467    0.4044    0.5169 N   0  0  0  0  0  0  0  0  0  0  0  0
   -0.8932   -0.6816    0.8161 C   0  0  0  0  0  0  0  0  0  0  0  0
   -1.3882   -1.8278    1.1034 O   0  0  0  0  0  0  0  0  0  0  0  0
    0.4796   -0.4929    0.8072 N   0  0  0  0  0  0  0  0  0  0  0  0
    1.8093   -0.3509    0.8108 C   0  0  0  0  0  0  0  0  0  0  0  0
    2.6719   -0.9456    1.7547 C   0  0  0  0  0  0  0  0  0  0  0  0
    3.9848   -0.6386    1.8813 C   0  0  0  0  0  0  0  0  0  0  0  0
    4.5641    0.3388    1.0260 C   0  0  0  0  0  0  0  0  0  0  0  0
    5.8824    0.5805    1.2332 O   0  0  0  0  0  0  0  0  0  0  0  0
    7.0146    0.5012    0.5599 C   0  0  0  0  0  0  0  0  0  0  0  0
    7.8608    1.6135    0.4644 C   0  0  0  0  0  0  0  0  0  0  0  0
    9.0214    1.4898   -0.2394 C   0  0  0  0  0  0  0  0  0  0  0  0
    9.3859    0.3412   -0.8460 N   0  0  0  0  0  0  0  0  0  0  0  0
    8.5876   -0.7533   -0.7719 C   0  0  0  0  0  0  0  0  0  0  0  0
    8.9935   -1.8596   -1.3943 N   0  0  0  0  0  0  0  0  0  0  0  0
    8.2332   -2.9560   -1.3497 C   0  0  0  0  0  0  0  0  0  0  0  0
    8.5827   -4.0354   -1.9323 O   0  0  0  0  0  0  0  0  0  0  0  0
    7.0486   -2.9153   -0.6610 C   0  0  0  0  0  0  0  0  0  0  0  0
    6.6201   -1.7916   -0.0196 N   0  0  0  0  0  0  0  0  0  0  0  0
    7.4100   -0.6872   -0.0788 C   0  0  0  0  0  0  0  0  0  0  0  0
    3.7534    0.9318    0.0950 C   0  0  0  0  0  0  0  0  0  0  0  0
    4.3009    1.8747   -0.7758 C   0  0  0  0  0  0  0  0  0  0  0  0
    3.5021    2.4604   -1.7372 C   0  0  0  0  0  0  0  0  0  0  0  0
    2.1793    2.1299   -1.8493 C   0  0  0  0  0  0  0  0  0  0  0  0
    1.6358    1.1974   -0.9869 C   0  0  0  0  0  0  0  0  0  0  0  0
    2.4358    0.6120   -0.0218 C   0  0  0  0  0  0  0  0  0  0  0  0
   -4.1980   -0.1993    0.5096 N   0  0  0  0  0  0  0  0  0  0  0  0
   -5.3389    0.5540    0.3415 N   0  0  0  0  0  0  0  0  0  0  0  0
   -4.4032   -1.5920    0.7063 C   0  0  0  0  0  0  0  0  0  0  0  0
   -4.6452   -2.0829    1.9671 C   0  0  0  0  0  0  0  0  0  0  0  0
   -4.9209   -3.4215    2.1446 C   0  0  0  0  0  0  0  0  0  0  0  0
   -4.9496   -4.2640    1.0283 C   0  0  0  0  0  0  0  0  0  0  0  0
   -4.7115   -3.7950   -0.2434 C   0  0  0  0  0  0  0  0  0  0  0  0
   -4.4395   -2.4579   -0.3894 C   0  0  0  0  0  0  0  0  0  0  0  0
   -4.7707   -4.7510   -1.3741 C   0  0  0  0  0  0  0  0  0  0  0  0
   -4.5233   -4.1198   -2.5854 F   0  0  0  0  0  0  0  0  0  0  0  0
   -3.9180   -5.8054   -1.2262 F   0  0  0  0  0  0  0  0  0  0  0  0
   -6.1061   -5.1664   -1.4630 F   0  0  0  0  0  0  0  0  0  0  0  0
   -7.9898    3.0696   -0.7760 H   0  0  0  0  0  0  0  0  0  0  0  0
   -7.3855    1.4041   -0.6460 H   0  0  0  0  0  0  0  0  0  0  0  0
   -7.8529    2.3233    0.8327 H   0  0  0  0  0  0  0  0  0  0  0  0
   -6.8487    4.3960    1.3253 H   0  0  0  0  0  0  0  0  0  0  0  0
   -5.0387    4.5152    1.1722 H   0  0  0  0  0  0  0  0  0  0  0  0
   -5.7859    3.1541    2.0526 H   0  0  0  0  0  0  0  0  0  0  0  0
   -6.4082    3.6572   -2.0137 H   0  0  0  0  0  0  0  0  0  0  0  0
   -5.4331    4.7934   -0.9909 H   0  0  0  0  0  0  0  0  0  0  0  0
   -4.6852    3.2760   -1.7365 H   0  0  0  0  0  0  0  0  0  0  0  0
   -3.1053    2.7860    0.0912 H   0  0  0  0  0  0  0  0  0  0  0  0
   -1.1485    1.2984    0.3020 H   0  0  0  0  0  0  0  0  0  0  0  0
    0.6396   -1.8534    0.8830 H   0  0  0  0  0  0  0  0  0  0  0  0
    2.2141   -1.6859    2.4153 H   0  0  0  0  0  0  0  0  0  0  0  0
    4.6461   -1.0970    2.6094 H   0  0  0  0  0  0  0  0  0  0  0  0
    7.5418    2.5269    0.9664 H   0  0  0  0  0  0  0  0  0  0  0  0
    9.7021    2.3478   -0.3331 H   0  0  0  0  0  0  0  0  0  0  0  0
    9.8845   -1.9243   -1.9250 H   0  0  0  0  0  0  0  0  0  0  0  0
    6.4335   -3.8153   -0.6275 H   0  0  0  0  0  0  0  0  0  0  0  0
    5.3207    2.1211   -0.6688 H   0  0  0  0  0  0  0  0  0  0  0  0
    3.9648    3.1872   -2.3930 H   0  0  0  0  0  0  0  0  0  0  0  0
    1.5279    2.5887   -2.6133 H   0  0  0  0  0  0  0  0  0  0  0  0
    0.6064    0.9563   -1.1296 H   0  0  0  0  0  0  0  0  0  0  0  0
   -4.6340   -1.4692    2.8569 H   0  0  0  0  0  0  0  0  0  0  0  0
   -5.1155   -3.8586    3.1147 H   0  0  0  0  0  0  0  0  0  0  0  0
   -5.1672   -5.3063    1.1747 H   0  0  0  0  0  0  0  0  0  0  0  0
   -4.2511   -2.0772   -1.3831 H   0  0  0  0  0  0  0  0  0  0  0  0
  1  2  1  0
  2  3  1  0
  2  4  1  0
  2  5  1  0
  5  6  1  0
  6  7  2  0
  7  8  1  0
  8  9  1  0
  9 10  2  0
  9 11  1  0
 11 12  1  0
 12 13  2  0
 13 14  1  0
 14 15  2  0
 15 16  1  0
 16 17  1  0
 17 18  2  0
 18 19  1  0
 19 20  2  0
 20 21  1  0
 21 22  1  0
 22 23  1  0
 23 24  2  0
 23 25  1  0
 25 26  2  0
 26 27  1  0
 15 28  1  0
 28 29  2  0
 29 30  1  0
 30 31  2  0
 31 32  1  0
 32 33  2  0
  7 34  1  0
 34 35  1  0
 34 36  1  0
 36 37  2  0
 37 38  1  0
 38 39  2  0
 39 40  1  0
 40 41  2  0
 40 42  1  0
 42 43  1  0
 42 44  1  0
 42 45  1  0
 35  5  2  0
 41 36  1  0
 33 12  1  0
 27 17  1  0
 33 28  1  0
 27 21  2  0
  1 46  1  0
  1 47  1  0
  1 48  1  0
  3 49  1  0
  3 50  1  0
  3 51  1  0
  4 52  1  0
  4 53  1  0
  4 54  1  0
  6 55  1  0
  8 56  1  0
 11 57  1  0
 13 58  1  0
 14 59  1  0
 18 60  1  0
 19 61  1  0
 22 62  1  0
 25 63  1  0
 29 64  1  0
 30 65  1  0
 31 66  1  0
 32 67  1  0
 37 68  1  0
 38 69  1  0
 39 70  1  0
 41 71  1  0
M  END
$$$$
[H]OC(=O)[C@]([H])(N([H])[C@]1([H])C([H])([H])C([H])([H])[C@]([H])(n2c([H])c(-c3c([H])c([H])c(Oc4c([H])c([H])c([H])c([H])c4[H])c([H])c3[H])c3c(N([H])[H])nc([H])nc32)C([H])([H])C1([H])[H])C([H])([H])O[H]
     RDKit          3D

 65 69  0  0  0  0  0  0  0  0999 V2000
   -2.7650    1.7000   -1.8760 N   0  0  0  0  0  0  0  0  0  0  0  0
   -1.3917    1.9039   -1.5313 C   0  0  0  0  0  0  0  0  0  0  0  0
   -0.7064    2.8674   -2.1721 N   0  0  0  0  0  0  0  0  0  0  0  0
    0.5670    3.0558   -1.8092 C   0  0  0  0  0  0  0  0  0  0  0  0
    1.1653    2.3426   -0.8608 N   0  0  0  0  0  0  0  0  0  0  0  0
    0.4978    1.3703   -0.2041 C   0  0  0  0  0  0  0  0  0  0  0  0
    0.8060    0.5134    0.7731 N   0  0  0  0  0  0  0  0  0  0  0  0
   -0.2888   -0.2593    1.0589 C   0  0  0  0  0  0  0  0  0  0  0  0
   -1.3300    0.1105    0.2425 C   0  0  0  0  0  0  0  0  0  0  0  0
   -2.6526   -0.5236    0.2186 C   0  0  0  0  0  0  0  0  0  0  0  0
   -3.4565   -0.4824    1.3404 C   0  0  0  0  0  0  0  0  0  0  0  0
   -4.6750   -1.1078    1.3473 C   0  0  0  0  0  0  0  0  0  0  0  0
   -5.1743   -1.8036    0.2680 C   0  0  0  0  0  0  0  0  0  0  0  0
   -6.4191   -2.4216    0.3267 O   0  0  0  0  0  0  0  0  0  0  0  0
   -7.5897   -1.7651   -0.0338 C   0  0  0  0  0  0  0  0  0  0  0  0
   -8.0722   -1.7780   -1.3316 C   0  0  0  0  0  0  0  0  0  0  0  0
   -9.2312   -1.1131   -1.6238 C   0  0  0  0  0  0  0  0  0  0  0  0
   -9.9254   -0.4315   -0.6482 C   0  0  0  0  0  0  0  0  0  0  0  0
   -9.4564   -0.4098    0.6511 C   0  0  0  0  0  0  0  0  0  0  0  0
   -8.2722   -1.0882    0.9522 C   0  0  0  0  0  0  0  0  0  0  0  0
   -4.3756   -1.8478   -0.8545 C   0  0  0  0  0  0  0  0  0  0  0  0
   -3.1501   -1.2210   -0.8666 C   0  0  0  0  0  0  0  0  0  0  0  0
   -0.8510    1.1273   -0.5479 C   0  0  0  0  0  0  0  0  0  0  0  0
    2.0785    0.3806    1.4508 C   0  0  2  0  0  0  0  0  0  0  0  0
    3.0869    1.4156    1.2519 C   0  0  0  0  0  0  0  0  0  0  0  0
    4.2095    1.1074    0.2792 C   0  0  0  0  0  0  0  0  0  0  0  0
    4.7798   -0.2487    0.6055 C   0  0  1  0  0  0  0  0  0  0  0  0
    3.6135   -1.2172    0.2776 C   0  0  0  0  0  0  0  0  0  0  0  0
    2.6040   -1.0390    1.3600 C   0  0  0  0  0  0  0  0  0  0  0  0
    5.9568   -0.6319   -0.0297 N   0  0  0  0  0  0  0  0  0  0  0  0
    7.1981   -0.0472    0.1373 C   0  0  2  0  0  0  0  0  0  0  0  0
    7.4371    1.3738   -0.2357 C   0  0  0  0  0  0  0  0  0  0  0  0
    7.1551    1.6381   -1.5814 O   0  0  0  0  0  0  0  0  0  0  0  0
    8.1934   -0.8493   -0.6848 C   0  0  0  0  0  0  0  0  0  0  0  0
    9.5301   -0.4994   -0.7187 O   0  0  0  0  0  0  0  0  0  0  0  0
    7.8175   -1.8415   -1.3455 O   0  0  0  0  0  0  0  0  0  0  0  0
   -2.9693    1.2625   -2.7952 H   0  0  0  0  0  0  0  0  0  0  0  0
   -3.5449    1.9615   -1.2681 H   0  0  0  0  0  0  0  0  0  0  0  0
    1.1802    3.8210   -2.2879 H   0  0  0  0  0  0  0  0  0  0  0  0
   -0.3222   -1.0298    1.8045 H   0  0  0  0  0  0  0  0  0  0  0  0
   -3.0908    0.0528    2.1983 H   0  0  0  0  0  0  0  0  0  0  0  0
   -5.3250   -1.0818    2.2351 H   0  0  0  0  0  0  0  0  0  0  0  0
   -7.5051   -2.3236   -2.0853 H   0  0  0  0  0  0  0  0  0  0  0  0
   -9.6367   -1.1037   -2.6259 H   0  0  0  0  0  0  0  0  0  0  0  0
  -10.8551    0.1115   -0.8436 H   0  0  0  0  0  0  0  0  0  0  0  0
   -9.9691    0.1157    1.4580 H   0  0  0  0  0  0  0  0  0  0  0  0
   -7.8798   -1.0885    1.9570 H   0  0  0  0  0  0  0  0  0  0  0  0
   -4.7496   -2.3963   -1.7332 H   0  0  0  0  0  0  0  0  0  0  0  0
   -2.5296   -1.2772   -1.7574 H   0  0  0  0  0  0  0  0  0  0  0  0
    1.7662    0.4592    2.5577 H   0  0  0  0  0  0  0  0  0  0  0  0
    2.7118    2.4102    1.0325 H   0  0  0  0  0  0  0  0  0  0  0  0
    3.6557    1.5691    2.2467 H   0  0  0  0  0  0  0  0  0  0  0  0
    4.8939    1.9444    0.3296 H   0  0  0  0  0  0  0  0  0  0  0  0
    3.8289    1.0785   -0.7779 H   0  0  0  0  0  0  0  0  0  0  0  0
    4.8261   -0.2817    1.7284 H   0  0  0  0  0  0  0  0  0  0  0  0
    3.9431   -2.2563    0.2624 H   0  0  0  0  0  0  0  0  0  0  0  0
    3.1891   -0.8820   -0.6866 H   0  0  0  0  0  0  0  0  0  0  0  0
    3.1211   -1.2624    2.3186 H   0  0  0  0  0  0  0  0  0  0  0  0
    1.7407   -1.7041    1.3023 H   0  0  0  0  0  0  0  0  0  0  0  0
    5.8572   -1.2957   -0.8332 H   0  0  0  0  0  0  0  0  0  0  0  0
    7.5803   -0.1321    1.2105 H   0  0  0  0  0  0  0  0  0  0  0  0
    7.1345    2.1399    0.4672 H   0  0  0  0  0  0  0  0  0  0  0  0
    8.5938    1.4696   -0.2163 H   0  0  0  0  0  0  0  0  0  0  0  0
    7.2032    2.6006   -1.7672 H   0  0  0  0  0  0  0  0  0  0  0  0
   10.2385   -1.1607   -0.4148 H   0  0  0  0  0  0  0  0  0  0  0  0
  1  2  1  0
  2  3  2  0
  3  4  1  0
  4  5  2  0
  5  6  1  0
  6  7  1  0
  7  8  1  0
  8  9  2  0
  9 10  1  0
 10 11  2  0
 11 12  1  0
 12 13  2  0
 13 14  1  0
 14 15  1  0
 15 16  2  0
 16 17  1  0
 17 18  2  0
 18 19  1  0
 19 20  2  0
 13 21  1  0
 21 22  2  0
  9 23  1  0
  7 24  1  0
 24 25  1  0
 25 26  1  0
 26 27  1  0
 27 28  1  0
 28 29  1  0
 27 30  1  0
 30 31  1  0
 31 32  1  0
 32 33  1  0
 31 34  1  0
 34 35  1  0
 34 36  2  0
 23  2  1  0
 29 24  1  0
 23  6  2  0
 22 10  1  0
 20 15  1  0
  1 37  1  0
  1 38  1  0
  4 39  1  0
  8 40  1  0
 11 41  1  0
 12 42  1  0
 16 43  1  0
 17 44  1  0
 18 45  1  0
 19 46  1  0
 20 47  1  0
 21 48  1  0
 22 49  1  0
 24 50  1  1
 25 51  1  0
 25 52  1  0
 26 53  1  0
 26 54  1  0
 27 55  1  1
 28 56  1  0
 28 57  1  0
 29 58  1  0
 29 59  1  0
 30 60  1  0
 31 61  1  1
 32 62  1  0
 32 63  1  0
 33 64  1  0
 35 65  1  0
M  END
$$$$
[H]c1nc(N([H])c2c([H])c([H])c([H])c(N([H])[H])c2[H])nc([H])c1N([H])C(=O)c1c([H])c(N([H])C(=O)c2c([H])c([H])c([H])c(C(F)(F)F)c2[H])c([H])c([H])c1C([H])([H])[H]
     RDKit          3D

 58 61  0  0  0  0  0  0  0  0999 V2000
   -0.1659    1.9961   -2.8176 C   0  0  0  0  0  0  0  0  0  0  0  0
   -1.3012    1.3262   -2.1376 C   0  0  0  0  0  0  0  0  0  0  0  0
   -2.6044    1.6662   -2.5289 C   0  0  0  0  0  0  0  0  0  0  0  0
   -3.6784    1.0260   -1.9311 C   0  0  0  0  0  0  0  0  0  0  0  0
   -3.4753    0.0779   -0.9753 C   0  0  0  0  0  0  0  0  0  0  0  0
   -4.5489   -0.5579   -0.3021 N   0  0  0  0  0  0  0  0  0  0  0  0
   -5.7359    0.1083    0.0424 C   0  0  0  0  0  0  0  0  0  0  0  0
   -5.8190    1.3572   -0.2626 O   0  0  0  0  0  0  0  0  0  0  0  0
   -6.8852   -0.4917    0.7176 C   0  0  0  0  0  0  0  0  0  0  0  0
   -7.0136   -1.8449    0.9241 C   0  0  0  0  0  0  0  0  0  0  0  0
   -8.1253   -2.3845    1.5771 C   0  0  0  0  0  0  0  0  0  0  0  0
   -9.1232   -1.5759    2.0334 C   0  0  0  0  0  0  0  0  0  0  0  0
   -9.0252   -0.2174    1.8441 C   0  0  0  0  0  0  0  0  0  0  0  0
   -7.9171    0.3124    1.1933 C   0  0  0  0  0  0  0  0  0  0  0  0
  -10.0692    0.7453    2.3178 C   0  0  0  0  0  0  0  0  0  0  0  0
   -9.8972    1.9967    1.7661 F   0  0  0  0  0  0  0  0  0  0  0  0
  -10.0789    0.8282    3.7137 F   0  0  0  0  0  0  0  0  0  0  0  0
  -11.3035    0.2934    1.9250 F   0  0  0  0  0  0  0  0  0  0  0  0
   -2.1534   -0.2435   -0.6049 C   0  0  0  0  0  0  0  0  0  0  0  0
   -1.0621    0.3765   -1.1804 C   0  0  0  0  0  0  0  0  0  0  0  0
    0.2999    0.0986   -0.7569 C   0  0  0  0  0  0  0  0  0  0  0  0
    0.7069   -1.0908   -0.6650 O   0  0  0  0  0  0  0  0  0  0  0  0
    1.2438    1.1133   -0.4228 N   0  0  0  0  0  0  0  0  0  0  0  0
    2.5763    0.8994   -0.0438 C   0  0  0  0  0  0  0  0  0  0  0  0
    3.4680    0.1485   -0.7802 C   0  0  0  0  0  0  0  0  0  0  0  0
    4.7219   -0.0089   -0.3357 N   0  0  0  0  0  0  0  0  0  0  0  0
    5.1757    0.5161    0.7867 C   0  0  0  0  0  0  0  0  0  0  0  0
    6.4915    0.4066    1.2642 N   0  0  0  0  0  0  0  0  0  0  0  0
    7.5925   -0.2306    0.6491 C   0  0  0  0  0  0  0  0  0  0  0  0
    7.7499   -0.4172   -0.7100 C   0  0  0  0  0  0  0  0  0  0  0  0
    8.8590   -1.0705   -1.2445 C   0  0  0  0  0  0  0  0  0  0  0  0
    9.8537   -1.5632   -0.4361 C   0  0  0  0  0  0  0  0  0  0  0  0
    9.7269   -1.3929    0.9492 C   0  0  0  0  0  0  0  0  0  0  0  0
   10.7654   -1.8991    1.7745 N   0  0  0  0  0  0  0  0  0  0  0  0
    8.6170   -0.7420    1.4499 C   0  0  0  0  0  0  0  0  0  0  0  0
    4.3020    1.2492    1.5058 N   0  0  0  0  0  0  0  0  0  0  0  0
    3.0468    1.4541    1.1385 C   0  0  0  0  0  0  0  0  0  0  0  0
   -0.4905    2.0860   -3.9058 H   0  0  0  0  0  0  0  0  0  0  0  0
   -0.0649    3.0596   -2.5010 H   0  0  0  0  0  0  0  0  0  0  0  0
    0.7570    1.4276   -2.8693 H   0  0  0  0  0  0  0  0  0  0  0  0
   -2.7282    2.4186   -3.2858 H   0  0  0  0  0  0  0  0  0  0  0  0
   -4.6805    1.2774   -2.2603 H   0  0  0  0  0  0  0  0  0  0  0  0
   -4.4583   -1.5753   -0.0401 H   0  0  0  0  0  0  0  0  0  0  0  0
   -6.2306   -2.5109    0.5657 H   0  0  0  0  0  0  0  0  0  0  0  0
   -8.1784   -3.4437    1.7118 H   0  0  0  0  0  0  0  0  0  0  0  0
  -10.0058   -1.9579    2.5437 H   0  0  0  0  0  0  0  0  0  0  0  0
   -7.8508    1.3785    1.0605 H   0  0  0  0  0  0  0  0  0  0  0  0
   -1.9977   -0.9890    0.1378 H   0  0  0  0  0  0  0  0  0  0  0  0
    0.8945    2.1028   -0.4571 H   0  0  0  0  0  0  0  0  0  0  0  0
    3.1590   -0.3204   -1.7256 H   0  0  0  0  0  0  0  0  0  0  0  0
    6.7268    0.8456    2.2118 H   0  0  0  0  0  0  0  0  0  0  0  0
    6.9841   -0.0256   -1.3577 H   0  0  0  0  0  0  0  0  0  0  0  0
    8.9672   -1.2007   -2.3145 H   0  0  0  0  0  0  0  0  0  0  0  0
   10.7410   -2.0804   -0.7792 H   0  0  0  0  0  0  0  0  0  0  0  0
   10.5243   -2.4580    2.6246 H   0  0  0  0  0  0  0  0  0  0  0  0
   11.7700   -1.7415    1.5696 H   0  0  0  0  0  0  0  0  0  0  0  0
    8.5281   -0.6177    2.5254 H   0  0  0  0  0  0  0  0  0  0  0  0
    2.4193    2.0601    1.8006 H   0  0  0  0  0  0  0  0  0  0  0  0
  1  2  1  0
  2  3  2  0
  3  4  1  0
  4  5  2  0
  5  6  1  0
  6  7  1  0
  7  8  2  0
  7  9  1  0
  9 10  2  0
 10 11  1  0
 11 12  2  0
 12 13  1  0
 13 14  2  0
 13 15  1  0
 15 16  1  0
 15 17  1  0
 15 18  1  0
  5 19  1  0
 19 20  2  0
 20 21  1  0
 21 22  2  0
 21 23  1  0
 23 24  1  0
 24 25  2  0
 25 26  1  0
 26 27  2  0
 27 28  1  0
 28 29  1  0
 29 30  2  0
 30 31  1  0
 31 32  2  0
 32 33  1  0
 33 34  1  0
 33 35  2  0
 27 36  1  0
 36 37  2  0
 20  2  1  0
 37 24  1  0
 14  9  1  0
 35 29  1  0
  1 38  1  0
  1 39  1  0
  1 40  1  0
  3 41  1  0
  4 42  1  0
  6 43  1  0
 10 44  1  0
 11 45  1  0
 12 46  1  0
 14 47  1  0
 19 48  1  0
 23 49  1  0
 25 50  1  0
 28 51  1  0
 30 52  1  0
 31 53  1  0
 32 54  1  0
 34 55  1  0
 34 56  1  0
 35 57  1  0
 37 58  1  0
M  END
$$$$
