[H]c1c([H])c(Cl)c(N([H])c2nc3c([H])c([H])c(N4C([H])([H])C([H])([H])N([H])C([H])([H])C4([H])[H])c([H])c3n3c([H])nc([H])c23)c(C([H])([H])[H])c1[H]
     RDKit          3D

 49 53  0  0  0  0  0  0  0  0999 V2000
    4.5147   -1.2345   -2.0233 C   0  0  0  0  0  0  0  0  0  0  0  0
    5.0627   -0.9886   -0.6829 C   0  0  0  0  0  0  0  0  0  0  0  0
    6.0054   -1.8572   -0.1145 C   0  0  0  0  0  0  0  0  0  0  0  0
    6.5163   -1.6180    1.1482 C   0  0  0  0  0  0  0  0  0  0  0  0
    6.0790   -0.5075    1.8365 C   0  0  0  0  0  0  0  0  0  0  0  0
    5.1449    0.3504    1.2696 C   0  0  0  0  0  0  0  0  0  0  0  0
    4.5744    1.7689    2.1265 Cl  0  0  0  0  0  0  0  0  0  0  0  0
    4.6276    0.1215    0.0087 C   0  0  0  0  0  0  0  0  0  0  0  0
    3.6753    0.9770   -0.5947 N   0  0  0  0  0  0  0  0  0  0  0  0
    2.2957    0.8773   -0.5017 C   0  0  0  0  0  0  0  0  0  0  0  0
    1.7088   -0.0948    0.2091 N   0  0  0  0  0  0  0  0  0  0  0  0
    0.3493   -0.1771    0.2891 C   0  0  0  0  0  0  0  0  0  0  0  0
   -0.2629   -1.1699    1.0154 C   0  0  0  0  0  0  0  0  0  0  0  0
   -1.6376   -1.2631    1.1036 C   0  0  0  0  0  0  0  0  0  0  0  0
   -2.4700   -0.3569    0.4618 C   0  0  0  0  0  0  0  0  0  0  0  0
   -1.8465    0.6348   -0.2639 C   0  0  0  0  0  0  0  0  0  0  0  0
   -0.4509    0.7372   -0.3590 C   0  0  0  0  0  0  0  0  0  0  0  0
    0.1245    1.7070   -1.0680 N   0  0  0  0  0  0  0  0  0  0  0  0
   -0.3877    2.7190   -1.7910 C   0  0  0  0  0  0  0  0  0  0  0  0
    0.6438    3.4117   -2.3069 N   0  0  0  0  0  0  0  0  0  0  0  0
    1.8082    2.8628   -1.9281 C   0  0  0  0  0  0  0  0  0  0  0  0
    1.4813    1.7772   -1.1392 C   0  0  0  0  0  0  0  0  0  0  0  0
   -3.8731   -0.4736    0.5669 N   0  0  0  0  0  0  0  0  0  0  0  0
   -4.6848    0.5103   -0.1074 C   0  0  0  0  0  0  0  0  0  0  0  0
   -6.1260    0.4430    0.2775 C   0  0  0  0  0  0  0  0  0  0  0  0
   -6.5401   -0.9498    0.0389 N   0  0  0  0  0  0  0  0  0  0  0  0
   -5.9485   -1.7178    1.0977 C   0  0  0  0  0  0  0  0  0  0  0  0
   -4.4926   -1.5163    1.3062 C   0  0  0  0  0  0  0  0  0  0  0  0
    5.2563   -1.8791   -2.5655 H   0  0  0  0  0  0  0  0  0  0  0  0
    4.4027   -0.3268   -2.6368 H   0  0  0  0  0  0  0  0  0  0  0  0
    3.5767   -1.8517   -2.0053 H   0  0  0  0  0  0  0  0  0  0  0  0
    6.3182   -2.7209   -0.6997 H   0  0  0  0  0  0  0  0  0  0  0  0
    7.2361   -2.3181    1.5326 H   0  0  0  0  0  0  0  0  0  0  0  0
    6.4797   -0.3256    2.8193 H   0  0  0  0  0  0  0  0  0  0  0  0
    4.0907    1.7659   -1.1706 H   0  0  0  0  0  0  0  0  0  0  0  0
    0.3757   -1.8858    1.5226 H   0  0  0  0  0  0  0  0  0  0  0  0
   -2.1016   -2.0584    1.6858 H   0  0  0  0  0  0  0  0  0  0  0  0
   -2.4598    1.3665   -0.7830 H   0  0  0  0  0  0  0  0  0  0  0  0
   -1.4275    2.9781   -1.9624 H   0  0  0  0  0  0  0  0  0  0  0  0
    2.8083    3.1806   -2.1728 H   0  0  0  0  0  0  0  0  0  0  0  0
   -4.2721    1.5096    0.1882 H   0  0  0  0  0  0  0  0  0  0  0  0
   -4.6092    0.4180   -1.2111 H   0  0  0  0  0  0  0  0  0  0  0  0
   -6.6908    1.1439   -0.3663 H   0  0  0  0  0  0  0  0  0  0  0  0
   -6.3048    0.6807    1.3279 H   0  0  0  0  0  0  0  0  0  0  0  0
   -7.5731   -0.9429    0.1161 H   0  0  0  0  0  0  0  0  0  0  0  0
   -6.4930   -1.4109    2.0357 H   0  0  0  0  0  0  0  0  0  0  0  0
   -6.2187   -2.8015    0.9304 H   0  0  0  0  0  0  0  0  0  0  0  0
   -4.2803   -1.3173    2.3981 H   0  0  0  0  0  0  0  0  0  0  0  0
   -4.0046   -2.5194    1.1420 H   0  0  0  0  0  0  0  0  0  0  0  0
  1  2  1  0
  2  3  2  0
  3  4  1  0
  4  5  2  0
  5  6  1  0
  6  7  1  0
  6  8  2  0
  8  9  1  0
  9 10  1  0
 10 11  2  0
 11 12  1  0
 12 13  2  0
 13 14  1  0
 14 15  2  0
 15 16  1  0
 16 17  2  0
 17 18  1  0
 18 19  1  0
 19 20  2  0
 20 21  1  0
 21 22  2  0
 15 23  1  0
 23 24  1  0
 24 25  1  0
 25 26  1  0
 26 27  1  0
 27 28  1  0
  8  2  1  0
 22 10  1  0
 28 23  1  0
 17 12  1  0
 22 18  1  0
  1 29  1  0
  1 30  1  0
  1 31  1  0
  3 32  1  0
  4 33  1  0
  5 34  1  0
  9 35  1  0
 13 36  1  0
 14 37  1  0
 16 38  1  0
 19 39  1  0
 21 40  1  0
 24 41  1  0
 24 42  1  0
 25 43  1  0
 25 44  1  0
 26 45  1  0
 27 46  1  0
 27 47  1  0
 28 48  1  0
 28 49  1  0
M  END
$$$$
[H]c1nc(N([H])[H])c2c(n1)c(-c1c([H])c([H])nc(N([H])C([H])([H])C([H])([H])C([H])([H])[C@@]([H])(N([H])C([H])([H])[H])C([H])([H])[H])c1[H])c([H])n2-c1c([H])c([H])c(Oc2c([H])c([H])c([H])c([H])c2[H])c([H])c1[H]
     RDKit          3D

 68 72  0  0  0  0  0  0  0  0999 V2000
   -6.2758    3.8778   -0.6672 C   0  0  0  0  0  0  0  0  0  0  0  0
   -6.9722    2.5937   -0.6110 N   0  0  0  0  0  0  0  0  0  0  0  0
   -6.2151    1.6552    0.2146 C   0  0  1  0  0  0  0  0  0  0  0  0
   -6.1780    2.2516    1.6054 C   0  0  0  0  0  0  0  0  0  0  0  0
   -7.0005    0.3536    0.2041 C   0  0  0  0  0  0  0  0  0  0  0  0
   -6.3152   -0.6984    1.0266 C   0  0  0  0  0  0  0  0  0  0  0  0
   -4.9381   -1.0274    0.5402 C   0  0  0  0  0  0  0  0  0  0  0  0
   -4.9233   -1.5257   -0.8110 N   0  0  0  0  0  0  0  0  0  0  0  0
   -3.7016   -1.8794   -1.4186 C   0  0  0  0  0  0  0  0  0  0  0  0
   -2.5335   -1.7377   -0.7053 C   0  0  0  0  0  0  0  0  0  0  0  0
   -1.3531   -2.0940   -1.3277 C   0  0  0  0  0  0  0  0  0  0  0  0
   -1.4053   -2.5695   -2.6216 C   0  0  0  0  0  0  0  0  0  0  0  0
   -2.5781   -2.7098   -3.3327 C   0  0  0  0  0  0  0  0  0  0  0  0
   -3.7135   -2.3464   -2.6782 N   0  0  0  0  0  0  0  0  0  0  0  0
   -0.0727   -1.9755   -0.6491 C   0  0  0  0  0  0  0  0  0  0  0  0
    1.1201   -1.4740   -1.1104 C   0  0  0  0  0  0  0  0  0  0  0  0
    2.0822   -1.5437   -0.1560 N   0  0  0  0  0  0  0  0  0  0  0  0
    3.4253   -1.1350   -0.2395 C   0  0  0  0  0  0  0  0  0  0  0  0
    4.4216   -2.0112   -0.5923 C   0  0  0  0  0  0  0  0  0  0  0  0
    5.7532   -1.5849   -0.6759 C   0  0  0  0  0  0  0  0  0  0  0  0
    6.0626   -0.2686   -0.3998 C   0  0  0  0  0  0  0  0  0  0  0  0
    7.3909    0.1907   -0.4748 O   0  0  0  0  0  0  0  0  0  0  0  0
    7.6771    1.5133   -0.1944 C   0  0  0  0  0  0  0  0  0  0  0  0
    7.9741    1.8675    1.0965 C   0  0  0  0  0  0  0  0  0  0  0  0
    8.2571    3.1913    1.3585 C   0  0  0  0  0  0  0  0  0  0  0  0
    8.2490    4.1565    0.3675 C   0  0  0  0  0  0  0  0  0  0  0  0
    7.9460    3.7567   -0.9112 C   0  0  0  0  0  0  0  0  0  0  0  0
    7.6570    2.4338   -1.2077 C   0  0  0  0  0  0  0  0  0  0  0  0
    5.0647    0.6180   -0.0443 C   0  0  0  0  0  0  0  0  0  0  0  0
    3.7700    0.1668    0.0281 C   0  0  0  0  0  0  0  0  0  0  0  0
    1.4964   -2.0990    0.9353 C   0  0  0  0  0  0  0  0  0  0  0  0
    1.9701   -2.4121    2.1862 C   0  0  0  0  0  0  0  0  0  0  0  0
    3.3342   -2.1382    2.4993 N   0  0  0  0  0  0  0  0  0  0  0  0
    1.1376   -2.9678    3.0840 N   0  0  0  0  0  0  0  0  0  0  0  0
   -0.1482   -3.2358    2.8183 C   0  0  0  0  0  0  0  0  0  0  0  0
   -0.6163   -2.9316    1.5971 N   0  0  0  0  0  0  0  0  0  0  0  0
    0.1516   -2.3763    0.6492 C   0  0  0  0  0  0  0  0  0  0  0  0
   -5.2600    3.7495   -0.2841 H   0  0  0  0  0  0  0  0  0  0  0  0
   -6.2552    4.2050   -1.7145 H   0  0  0  0  0  0  0  0  0  0  0  0
   -6.8861    4.5628   -0.0103 H   0  0  0  0  0  0  0  0  0  0  0  0
   -7.1281    2.2106   -1.5717 H   0  0  0  0  0  0  0  0  0  0  0  0
   -5.1892    1.5326   -0.1316 H   0  0  0  0  0  0  0  0  0  0  0  0
   -5.1740    2.0702    2.0877 H   0  0  0  0  0  0  0  0  0  0  0  0
   -6.9815    1.7931    2.2246 H   0  0  0  0  0  0  0  0  0  0  0  0
   -6.2665    3.3628    1.5649 H   0  0  0  0  0  0  0  0  0  0  0  0
   -7.0953   -0.0269   -0.8297 H   0  0  0  0  0  0  0  0  0  0  0  0
   -8.0016    0.5256    0.6123 H   0  0  0  0  0  0  0  0  0  0  0  0
   -6.2241   -0.3912    2.0945 H   0  0  0  0  0  0  0  0  0  0  0  0
   -6.9251   -1.6258    0.9519 H   0  0  0  0  0  0  0  0  0  0  0  0
   -4.2561   -0.1326    0.6237 H   0  0  0  0  0  0  0  0  0  0  0  0
   -4.5085   -1.7683    1.2660 H   0  0  0  0  0  0  0  0  0  0  0  0
   -5.8156   -1.6216   -1.3312 H   0  0  0  0  0  0  0  0  0  0  0  0
   -2.5233   -1.3557    0.3249 H   0  0  0  0  0  0  0  0  0  0  0  0
   -0.4930   -2.8547   -3.1292 H   0  0  0  0  0  0  0  0  0  0  0  0
   -2.5636   -3.0810   -4.3266 H   0  0  0  0  0  0  0  0  0  0  0  0
    1.3121   -1.0679   -2.0952 H   0  0  0  0  0  0  0  0  0  0  0  0
    4.2316   -3.0511   -0.8180 H   0  0  0  0  0  0  0  0  0  0  0  0
    6.5257   -2.2934   -0.9565 H   0  0  0  0  0  0  0  0  0  0  0  0
    7.9974    1.1503    1.9272 H   0  0  0  0  0  0  0  0  0  0  0  0
    8.4900    3.4784    2.3597 H   0  0  0  0  0  0  0  0  0  0  0  0
    8.4786    5.2068    0.6044 H   0  0  0  0  0  0  0  0  0  0  0  0
    7.9366    4.5121   -1.7043 H   0  0  0  0  0  0  0  0  0  0  0  0
    7.4263    2.1940   -2.2458 H   0  0  0  0  0  0  0  0  0  0  0  0
    5.2824    1.6528    0.1763 H   0  0  0  0  0  0  0  0  0  0  0  0
    2.9924    0.8741    0.3088 H   0  0  0  0  0  0  0  0  0  0  0  0
    3.5614   -1.1833    2.8431 H   0  0  0  0  0  0  0  0  0  0  0  0
    4.1151   -2.8185    2.4139 H   0  0  0  0  0  0  0  0  0  0  0  0
   -0.8030   -3.6933    3.5816 H   0  0  0  0  0  0  0  0  0  0  0  0
  1  2  1  0
  2  3  1  0
  3  4  1  0
  3  5  1  0
  5  6  1  0
  6  7  1  0
  7  8  1  0
  8  9  1  0
  9 10  2  0
 10 11  1  0
 11 12  2  0
 12 13  1  0
 13 14  2  0
 11 15  1  0
 15 16  2  0
 16 17  1  0
 17 18  1  0
 18 19  2  0
 19 20  1  0
 20 21  2  0
 21 22  1  0
 22 23  1  0
 23 24  2  0
 24 25  1  0
 25 26  2  0
 26 27  1  0
 27 28  2  0
 21 29  1  0
 29 30  2  0
 17 31  1  0
 31 32  2  0
 32 33  1  0
 32 34  1  0
 34 35  2  0
 35 36  1  0
 36 37  2  0
 14  9  1  0
 37 15  1  0
 30 18  1  0
 37 31  1  0
 28 23  1  0
  1 38  1  0
  1 39  1  0
  1 40  1  0
  2 41  1  0
  3 42  1  6
  4 43  1  0
  4 44  1  0
  4 45  1  0
  5 46  1  0
  5 47  1  0
  6 48  1  0
  6 49  1  0
  7 50  1  0
  7 51  1  0
  8 52  1  0
 10 53  1  0
 12 54  1  0
 13 55  1  0
 16 56  1  0
 19 57  1  0
 20 58  1  0
 24 59  1  0
 25 60  1  0
 26 61  1  0
 27 62  1  0
 28 63  1  0
 29 64  1  0
 30 65  1  0
 33 66  1  0
 33 67  1  0
 35 68  1  0
M  END
$$$$
[H]c1nc(N([H])C(=O)c2c([H])c([H])c(-c3nc([C@@]4([H])C([H])([H])N(C([H])([H])C(=O)N([H])[H])C([H])([H])C([H])([H])C4([H])[H])n4c([H])c([H])nc(N([H])[H])c34)c([H])c2[H])c([H])c(C(F)(F)F)c1[H]
     RDKit          3D

 64 68  0  0  0  0  0  0  0  0999 V2000
   -6.4151    4.1320    1.8318 N   0  0  0  0  0  0  0  0  0  0  0  0
   -6.4247    2.7709    1.3614 C   0  0  0  0  0  0  0  0  0  0  0  0
   -7.1967    2.3304    0.4987 O   0  0  0  0  0  0  0  0  0  0  0  0
   -5.4381    1.8729    1.9664 C   0  0  0  0  0  0  0  0  0  0  0  0
   -5.3741    0.5527    1.4864 N   0  0  0  0  0  0  0  0  0  0  0  0
   -6.3817   -0.3670    1.6767 C   0  0  0  0  0  0  0  0  0  0  0  0
   -6.2087   -1.7411    1.1039 C   0  0  0  0  0  0  0  0  0  0  0  0
   -5.3940   -1.5565   -0.2145 C   0  0  0  0  0  0  0  0  0  0  0  0
   -4.0671   -1.1532    0.2464 C   0  0  2  0  0  0  0  0  0  0  0  0
   -4.1552    0.2273    0.9193 C   0  0  0  0  0  0  0  0  0  0  0  0
   -2.9031   -1.1835   -0.6316 C   0  0  0  0  0  0  0  0  0  0  0  0
   -1.6427   -1.4021   -0.1148 N   0  0  0  0  0  0  0  0  0  0  0  0
   -0.7194   -1.2784   -1.1184 C   0  0  0  0  0  0  0  0  0  0  0  0
    0.7125   -1.3532   -0.8706 C   0  0  0  0  0  0  0  0  0  0  0  0
    1.3186   -2.4271   -0.3283 C   0  0  0  0  0  0  0  0  0  0  0  0
    2.6508   -2.3673    0.1088 C   0  0  0  0  0  0  0  0  0  0  0  0
    3.4013   -1.2281    0.0090 C   0  0  0  0  0  0  0  0  0  0  0  0
    2.7928   -0.0961   -0.5626 C   0  0  0  0  0  0  0  0  0  0  0  0
    1.4892   -0.1857   -0.9794 C   0  0  0  0  0  0  0  0  0  0  0  0
    4.7300   -1.1223    0.5878 C   0  0  0  0  0  0  0  0  0  0  0  0
    5.0628   -1.9286    1.4868 O   0  0  0  0  0  0  0  0  0  0  0  0
    5.6053   -0.1246    0.1469 N   0  0  0  0  0  0  0  0  0  0  0  0
    6.8405    0.1634    0.7768 C   0  0  0  0  0  0  0  0  0  0  0  0
    7.7117    1.1141    0.3140 C   0  0  0  0  0  0  0  0  0  0  0  0
    8.8742    1.4514    0.9768 C   0  0  0  0  0  0  0  0  0  0  0  0
    9.1959    0.8198    2.1482 C   0  0  0  0  0  0  0  0  0  0  0  0
    8.3061   -0.1555    2.6212 C   0  0  0  0  0  0  0  0  0  0  0  0
    7.2037   -0.4377    1.9446 N   0  0  0  0  0  0  0  0  0  0  0  0
    9.7758    2.5050    0.4187 C   0  0  0  0  0  0  0  0  0  0  0  0
    8.9785    3.6142    0.2395 F   0  0  0  0  0  0  0  0  0  0  0  0
   10.2101    2.0161   -0.8054 F   0  0  0  0  0  0  0  0  0  0  0  0
   10.8173    2.7519    1.2800 F   0  0  0  0  0  0  0  0  0  0  0  0
   -1.4390   -0.9956   -2.2337 C   0  0  0  0  0  0  0  0  0  0  0  0
   -1.0586   -0.7699   -3.5481 C   0  0  0  0  0  0  0  0  0  0  0  0
    0.3118   -0.8777   -3.8738 N   0  0  0  0  0  0  0  0  0  0  0  0
   -1.9866   -0.5006   -4.4777 N   0  0  0  0  0  0  0  0  0  0  0  0
   -3.2843   -0.4482   -4.1540 C   0  0  0  0  0  0  0  0  0  0  0  0
   -3.7157   -0.6669   -2.8523 C   0  0  0  0  0  0  0  0  0  0  0  0
   -2.7864   -0.9365   -1.9265 N   0  0  0  0  0  0  0  0  0  0  0  0
   -5.6583    4.7958    1.4789 H   0  0  0  0  0  0  0  0  0  0  0  0
   -7.1285    4.4401    2.4972 H   0  0  0  0  0  0  0  0  0  0  0  0
   -5.4687    1.8495    3.0746 H   0  0  0  0  0  0  0  0  0  0  0  0
   -4.4316    2.3531    1.7414 H   0  0  0  0  0  0  0  0  0  0  0  0
   -7.4080   -0.0099    1.3369 H   0  0  0  0  0  0  0  0  0  0  0  0
   -6.5685   -0.5308    2.7778 H   0  0  0  0  0  0  0  0  0  0  0  0
   -5.7485   -2.4714    1.7589 H   0  0  0  0  0  0  0  0  0  0  0  0
   -7.1740   -2.2008    0.7478 H   0  0  0  0  0  0  0  0  0  0  0  0
   -6.0007   -0.7550   -0.7073 H   0  0  0  0  0  0  0  0  0  0  0  0
   -5.4230   -2.4623   -0.8270 H   0  0  0  0  0  0  0  0  0  0  0  0
   -3.8168   -1.8062    1.1569 H   0  0  0  0  0  0  0  0  0  0  0  0
   -3.3135    0.3153    1.6361 H   0  0  0  0  0  0  0  0  0  0  0  0
   -3.9171    0.9374    0.1008 H   0  0  0  0  0  0  0  0  0  0  0  0
    0.8201   -3.3652   -0.2236 H   0  0  0  0  0  0  0  0  0  0  0  0
    3.0777   -3.2931    0.5372 H   0  0  0  0  0  0  0  0  0  0  0  0
    3.3913    0.7951   -0.6365 H   0  0  0  0  0  0  0  0  0  0  0  0
    1.0385    0.6793   -1.3968 H   0  0  0  0  0  0  0  0  0  0  0  0
    5.3146    0.5245   -0.6198 H   0  0  0  0  0  0  0  0  0  0  0  0
    7.4523    1.6029   -0.6380 H   0  0  0  0  0  0  0  0  0  0  0  0
   10.0962    1.0536    2.7005 H   0  0  0  0  0  0  0  0  0  0  0  0
    8.5947   -0.6364    3.5708 H   0  0  0  0  0  0  0  0  0  0  0  0
    0.9867   -0.1243   -4.0591 H   0  0  0  0  0  0  0  0  0  0  0  0
    0.6803   -1.8600   -3.9453 H   0  0  0  0  0  0  0  0  0  0  0  0
   -4.0207   -0.2315   -4.9060 H   0  0  0  0  0  0  0  0  0  0  0  0
   -4.7719   -0.6186   -2.6148 H   0  0  0  0  0  0  0  0  0  0  0  0
  1  2  1  0
  2  3  2  0
  2  4  1  0
  4  5  1  0
  5  6  1  0
  6  7  1  0
  7  8  1  0
  8  9  1  0
  9 10  1  0
  9 11  1  0
 11 12  2  0
 12 13  1  0
 13 14  1  0
 14 15  2  0
 15 16  1  0
 16 17  2  0
 17 18  1  0
 18 19  2  0
 17 20  1  0
 20 21  2  0
 20 22  1  0
 22 23  1  0
 23 24  2  0
 24 25  1  0
 25 26  2  0
 26 27  1  0
 27 28  2  0
 25 29  1  0
 29 30  1  0
 29 31  1  0
 29 32  1  0
 13 33  2  0
 33 34  1  0
 34 35  1  0
 34 36  2  0
 36 37  1  0
 37 38  2  0
 38 39  1  0
 10  5  1  0
 39 11  1  0
 19 14  1  0
 28 23  1  0
 39 33  1  0
  1 40  1  0
  1 41  1  0
  4 42  1  0
  4 43  1  0
  6 44  1  0
  6 45  1  0
  7 46  1  0
  7 47  1  0
  8 48  1  0
  8 49  1  0
  9 50  1  1
 10 51  1  0
 10 52  1  0
 15 53  1  0
 16 54  1  0
 18 55  1  0
 19 56  1  0
 22 57  1  0
 24 58  1  0
 26 59  1  0
 27 60  1  0
 35 61  1  0
 35 62  1  0
 37 63  1  0
 38 64  1  0
M  END
$$$$
[H]c1nc(N([H])[H])c(C(=O)N([H])[H])c(N([H])c2c([H])c([H])c([H])c(C(=O)N3C([H])([H])C([H])([H])C([H])([H])[C@]([H])(N([H])[H])C3([H])[H])c2[H])n1
     RDKit          3D

 47 49  0  0  0  0  0  0  0  0999 V2000
   -3.3405   -2.5945   -0.6823 N   0  0  0  0  0  0  0  0  0  0  0  0
   -4.3499   -1.7060   -1.0215 C   0  0  0  0  0  0  0  0  0  0  0  0
   -5.3095   -2.2180   -1.7021 O   0  0  0  0  0  0  0  0  0  0  0  0
   -4.4653   -0.2964   -0.7134 C   0  0  0  0  0  0  0  0  0  0  0  0
   -5.6168    0.3906   -1.1691 C   0  0  0  0  0  0  0  0  0  0  0  0
   -6.5948   -0.3237   -1.9102 N   0  0  0  0  0  0  0  0  0  0  0  0
   -5.7753    1.6936   -0.9022 N   0  0  0  0  0  0  0  0  0  0  0  0
   -4.8756    2.3914   -0.2094 C   0  0  0  0  0  0  0  0  0  0  0  0
   -3.8037    1.7449    0.2124 N   0  0  0  0  0  0  0  0  0  0  0  0
   -3.5510    0.4453   -0.0014 C   0  0  0  0  0  0  0  0  0  0  0  0
   -2.3268   -0.1197    0.4642 N   0  0  0  0  0  0  0  0  0  0  0  0
   -1.3685    0.5984    1.2598 C   0  0  0  0  0  0  0  0  0  0  0  0
   -1.7357    1.5418    2.1595 C   0  0  0  0  0  0  0  0  0  0  0  0
   -0.7269    2.1964    2.8471 C   0  0  0  0  0  0  0  0  0  0  0  0
    0.5953    1.9110    2.6365 C   0  0  0  0  0  0  0  0  0  0  0  0
    1.0177    0.9363    1.7100 C   0  0  0  0  0  0  0  0  0  0  0  0
    0.0035    0.3128    1.0529 C   0  0  0  0  0  0  0  0  0  0  0  0
    2.4345    0.7060    1.6028 C   0  0  0  0  0  0  0  0  0  0  0  0
    3.1722    1.3333    2.5003 O   0  0  0  0  0  0  0  0  0  0  0  0
    3.2079   -0.0579    0.7282 N   0  0  0  0  0  0  0  0  0  0  0  0
    4.6625   -0.0464    1.0055 C   0  0  0  0  0  0  0  0  0  0  0  0
    5.4852   -0.0862   -0.2337 C   0  0  0  0  0  0  0  0  0  0  0  0
    5.0912   -1.3453   -0.9886 C   0  0  0  0  0  0  0  0  0  0  0  0
    3.6603   -1.2567   -1.4124 C   0  0  2  0  0  0  0  0  0  0  0  0
    3.5031   -0.4418   -2.6165 N   0  0  0  0  0  0  0  0  0  0  0  0
    2.6956   -0.7914   -0.3714 C   0  0  0  0  0  0  0  0  0  0  0  0
   -2.5401   -2.8200   -1.3157 H   0  0  0  0  0  0  0  0  0  0  0  0
   -3.3109   -3.1117    0.2474 H   0  0  0  0  0  0  0  0  0  0  0  0
   -6.5125   -0.3836   -2.9333 H   0  0  0  0  0  0  0  0  0  0  0  0
   -7.3776   -0.7755   -1.4199 H   0  0  0  0  0  0  0  0  0  0  0  0
   -4.9694    3.4499    0.0273 H   0  0  0  0  0  0  0  0  0  0  0  0
   -2.0420   -1.0879    0.2517 H   0  0  0  0  0  0  0  0  0  0  0  0
   -2.7717    1.7889    2.3795 H   0  0  0  0  0  0  0  0  0  0  0  0
   -1.0471    2.9560    3.5696 H   0  0  0  0  0  0  0  0  0  0  0  0
    1.3336    2.4597    3.2042 H   0  0  0  0  0  0  0  0  0  0  0  0
    0.2181   -0.4531    0.3492 H   0  0  0  0  0  0  0  0  0  0  0  0
    4.8907    0.8722    1.5436 H   0  0  0  0  0  0  0  0  0  0  0  0
    4.9105   -0.8919    1.6920 H   0  0  0  0  0  0  0  0  0  0  0  0
    6.5376   -0.1954    0.0370 H   0  0  0  0  0  0  0  0  0  0  0  0
    5.2546    0.8049   -0.8419 H   0  0  0  0  0  0  0  0  0  0  0  0
    5.2427   -2.2196   -0.3565 H   0  0  0  0  0  0  0  0  0  0  0  0
    5.7136   -1.4153   -1.8973 H   0  0  0  0  0  0  0  0  0  0  0  0
    3.3846   -2.3016   -1.7565 H   0  0  0  0  0  0  0  0  0  0  0  0
    4.4171   -0.2197   -3.0596 H   0  0  0  0  0  0  0  0  0  0  0  0
    2.9257    0.3830   -2.3991 H   0  0  0  0  0  0  0  0  0  0  0  0
    2.0718   -1.6682   -0.0683 H   0  0  0  0  0  0  0  0  0  0  0  0
    1.9819   -0.0888   -0.9069 H   0  0  0  0  0  0  0  0  0  0  0  0
  1  2  1  0
  2  3  2  0
  2  4  1  0
  4  5  2  0
  5  6  1  0
  5  7  1  0
  7  8  2  0
  8  9  1  0
  9 10  2  0
 10 11  1  0
 11 12  1  0
 12 13  2  0
 13 14  1  0
 14 15  2  0
 15 16  1  0
 16 17  2  0
 16 18  1  0
 18 19  2  0
 18 20  1  0
 20 21  1  0
 21 22  1  0
 22 23  1  0
 23 24  1  0
 24 25  1  0
 24 26  1  0
 10  4  1  0
 17 12  1  0
 26 20  1  0
  1 27  1  0
  1 28  1  0
  6 29  1  0
  6 30  1  0
  8 31  1  0
 11 32  1  0
 13 33  1  0
 14 34  1  0
 15 35  1  0
 17 36  1  0
 21 37  1  0
 21 38  1  0
 22 39  1  0
 22 40  1  0
 23 41  1  0
 23 42  1  0
 24 43  1  6
 25 44  1  0
 25 45  1  0
 26 46  1  0
 26 47  1  0
M  END
$$$$
[H]c1nc(N([H])c2c([H])c([H])c(F)c([H])c2Cl)nc(-c2c([H])nn3nc([H])c([H])c([H])c23)c1[H]
     RDKit          3D

 34 37  0  0  0  0  0  0  0  0999 V2000
   -7.6425    0.7621   -0.1357 F   0  0  0  0  0  0  0  0  0  0  0  0
   -6.3047    0.5772    0.0834 C   0  0  0  0  0  0  0  0  0  0  0  0
   -5.4113    0.5646   -0.9718 C   0  0  0  0  0  0  0  0  0  0  0  0
   -4.0404    0.3742   -0.7383 C   0  0  0  0  0  0  0  0  0  0  0  0
   -3.5689    0.1989    0.5318 C   0  0  0  0  0  0  0  0  0  0  0  0
   -2.2420    0.0074    0.8369 N   0  0  0  0  0  0  0  0  0  0  0  0
   -1.1166   -0.0521   -0.0215 C   0  0  0  0  0  0  0  0  0  0  0  0
   -1.1413    0.0732   -1.3523 N   0  0  0  0  0  0  0  0  0  0  0  0
   -0.0882    0.0186   -2.1605 C   0  0  0  0  0  0  0  0  0  0  0  0
    1.1615   -0.1895   -1.5584 C   0  0  0  0  0  0  0  0  0  0  0  0
    1.2652   -0.3253   -0.2006 C   0  0  0  0  0  0  0  0  0  0  0  0
    0.1216   -0.2516    0.5108 N   0  0  0  0  0  0  0  0  0  0  0  0
    2.5178   -0.5964    0.4925 C   0  0  0  0  0  0  0  0  0  0  0  0
    2.5608   -1.1955    1.7349 C   0  0  0  0  0  0  0  0  0  0  0  0
    3.8448   -1.2539    2.0909 N   0  0  0  0  0  0  0  0  0  0  0  0
    4.6148   -0.7195    1.1340 N   0  0  0  0  0  0  0  0  0  0  0  0
    5.9221   -0.5570    1.0747 N   0  0  0  0  0  0  0  0  0  0  0  0
    6.5294    0.0241    0.0348 C   0  0  0  0  0  0  0  0  0  0  0  0
    5.7725    0.4722   -1.0148 C   0  0  0  0  0  0  0  0  0  0  0  0
    4.4072    0.3038   -0.9564 C   0  0  0  0  0  0  0  0  0  0  0  0
    3.7835   -0.3070    0.1341 C   0  0  0  0  0  0  0  0  0  0  0  0
   -4.5090    0.2182    1.5762 C   0  0  0  0  0  0  0  0  0  0  0  0
   -3.9811    0.0014    3.2203 Cl  0  0  0  0  0  0  0  0  0  0  0  0
   -5.8540    0.4024    1.3747 C   0  0  0  0  0  0  0  0  0  0  0  0
   -5.7657    0.7012   -1.9781 H   0  0  0  0  0  0  0  0  0  0  0  0
   -3.4458    0.3837   -1.6336 H   0  0  0  0  0  0  0  0  0  0  0  0
   -2.0030   -0.1180    1.8781 H   0  0  0  0  0  0  0  0  0  0  0  0
   -0.1495    0.1254   -3.2427 H   0  0  0  0  0  0  0  0  0  0  0  0
    1.9939   -0.2640   -2.2308 H   0  0  0  0  0  0  0  0  0  0  0  0
    1.7058   -1.5596    2.3280 H   0  0  0  0  0  0  0  0  0  0  0  0
    7.6231    0.1443    0.0152 H   0  0  0  0  0  0  0  0  0  0  0  0
    6.2021    0.9458   -1.8736 H   0  0  0  0  0  0  0  0  0  0  0  0
    3.8191    0.6725   -1.7534 H   0  0  0  0  0  0  0  0  0  0  0  0
   -6.5812    0.4183    2.1720 H   0  0  0  0  0  0  0  0  0  0  0  0
  1  2  1  0
  2  3  2  0
  3  4  1  0
  4  5  2  0
  5  6  1  0
  6  7  1  0
  7  8  2  0
  8  9  1  0
  9 10  2  0
 10 11  1  0
 11 12  2  0
 11 13  1  0
 13 14  1  0
 14 15  2  0
 15 16  1  0
 16 17  1  0
 17 18  2  0
 18 19  1  0
 19 20  2  0
 20 21  1  0
  5 22  1  0
 22 23  1  0
 22 24  2  0
 24  2  1  0
 12  7  1  0
 21 13  2  0
 21 16  1  0
  3 25  1  0
  4 26  1  0
  6 27  1  0
  9 28  1  0
 10 29  1  0
 14 30  1  0
 18 31  1  0
 19 32  1  0
 20 33  1  0
 24 34  1  0
M  END
$$$$
[H]c1c([H])c(Cl)c(N([H])c2nc3c([H])c(-c4nn([H])c(N([H])C([H])([H])C([H])([H])C([H])([H])N5C([H])([H])C([H])([H])N(C([H])([H])[H])C([H])([H])C5([H])[H])c4[H])c([H])c([H])c3n2C([H])([H])[H])c([H])c1Cl
     RDKit          3D

 65 69  0  0  0  0  0  0  0  0999 V2000
   -7.4244   -0.8888   -3.2115 C   0  0  0  0  0  0  0  0  0  0  0  0
   -7.4670   -0.5120   -1.8228 N   0  0  0  0  0  0  0  0  0  0  0  0
   -6.1622   -0.6520   -1.2101 C   0  0  0  0  0  0  0  0  0  0  0  0
   -5.4241    0.6414   -1.3553 C   0  0  0  0  0  0  0  0  0  0  0  0
   -6.0331    1.6162   -0.5116 N   0  0  0  0  0  0  0  0  0  0  0  0
   -5.3017    1.9976    0.6488 C   0  0  0  0  0  0  0  0  0  0  0  0
   -5.1741    0.9011    1.6856 C   0  0  0  0  0  0  0  0  0  0  0  0
   -4.3831    1.4608    2.8393 C   0  0  0  0  0  0  0  0  0  0  0  0
   -3.0631    1.9110    2.4967 N   0  0  0  0  0  0  0  0  0  0  0  0
   -1.9879    1.0640    2.0977 C   0  0  0  0  0  0  0  0  0  0  0  0
   -0.6935    1.4612    1.7549 C   0  0  0  0  0  0  0  0  0  0  0  0
    0.0591    0.3553    1.4453 C   0  0  0  0  0  0  0  0  0  0  0  0
   -0.7535   -0.6973    1.5944 N   0  0  0  0  0  0  0  0  0  0  0  0
   -1.9674   -0.2725    1.9819 N   0  0  0  0  0  0  0  0  0  0  0  0
    1.4609    0.2926    1.0345 C   0  0  0  0  0  0  0  0  0  0  0  0
    2.2339    1.4268    0.9055 C   0  0  0  0  0  0  0  0  0  0  0  0
    3.5491    1.4066    0.5252 C   0  0  0  0  0  0  0  0  0  0  0  0
    4.1454    0.1827    0.2526 C   0  0  0  0  0  0  0  0  0  0  0  0
    5.4191   -0.1600   -0.1412 N   0  0  0  0  0  0  0  0  0  0  0  0
    6.4120    0.8519   -0.4289 C   0  0  0  0  0  0  0  0  0  0  0  0
    5.4928   -1.4649   -0.2647 C   0  0  0  0  0  0  0  0  0  0  0  0
    6.5553   -2.3469   -0.5362 N   0  0  0  0  0  0  0  0  0  0  0  0
    7.9161   -2.2351   -0.4839 C   0  0  0  0  0  0  0  0  0  0  0  0
    8.6850   -3.0864   -1.3139 C   0  0  0  0  0  0  0  0  0  0  0  0
    7.8620   -4.1497   -2.4434 Cl  0  0  0  0  0  0  0  0  0  0  0  0
   10.0582   -3.0974   -1.2554 C   0  0  0  0  0  0  0  0  0  0  0  0
   10.7517   -2.2911   -0.3966 C   0  0  0  0  0  0  0  0  0  0  0  0
   10.0303   -1.4555    0.4217 C   0  0  0  0  0  0  0  0  0  0  0  0
   10.8855   -0.4159    1.5264 Cl  0  0  0  0  0  0  0  0  0  0  0  0
    8.6306   -1.4492    0.3583 C   0  0  0  0  0  0  0  0  0  0  0  0
    4.2475   -1.9484    0.0508 N   0  0  0  0  0  0  0  0  0  0  0  0
    3.4078   -0.9678    0.3702 C   0  0  0  0  0  0  0  0  0  0  0  0
    2.0814   -0.9069    0.7570 C   0  0  0  0  0  0  0  0  0  0  0  0
   -7.4353    1.4379   -0.3329 C   0  0  0  0  0  0  0  0  0  0  0  0
   -7.9891    0.8055   -1.6148 C   0  0  0  0  0  0  0  0  0  0  0  0
   -6.5866   -1.6174   -3.4176 H   0  0  0  0  0  0  0  0  0  0  0  0
   -7.2628   -0.0330   -3.8948 H   0  0  0  0  0  0  0  0  0  0  0  0
   -8.3565   -1.3962   -3.5469 H   0  0  0  0  0  0  0  0  0  0  0  0
   -6.3659   -0.9279   -0.1377 H   0  0  0  0  0  0  0  0  0  0  0  0
   -5.6466   -1.5015   -1.7278 H   0  0  0  0  0  0  0  0  0  0  0  0
   -4.3302    0.5389   -1.2017 H   0  0  0  0  0  0  0  0  0  0  0  0
   -5.5499    0.9779   -2.4120 H   0  0  0  0  0  0  0  0  0  0  0  0
   -5.8827    2.8241    1.1414 H   0  0  0  0  0  0  0  0  0  0  0  0
   -4.3087    2.4332    0.4241 H   0  0  0  0  0  0  0  0  0  0  0  0
   -4.7027    0.0044    1.3142 H   0  0  0  0  0  0  0  0  0  0  0  0
   -6.1792    0.6191    2.0663 H   0  0  0  0  0  0  0  0  0  0  0  0
   -4.2464    0.6717    3.6254 H   0  0  0  0  0  0  0  0  0  0  0  0
   -4.9171    2.3036    3.3399 H   0  0  0  0  0  0  0  0  0  0  0  0
   -2.8199    2.9566    2.5291 H   0  0  0  0  0  0  0  0  0  0  0  0
   -0.3563    2.4822    1.7414 H   0  0  0  0  0  0  0  0  0  0  0  0
   -2.7485   -0.9307    2.1617 H   0  0  0  0  0  0  0  0  0  0  0  0
    1.7635    2.3751    1.1190 H   0  0  0  0  0  0  0  0  0  0  0  0
    4.1527    2.3061    0.4264 H   0  0  0  0  0  0  0  0  0  0  0  0
    7.0433    0.6222   -1.3137 H   0  0  0  0  0  0  0  0  0  0  0  0
    6.9769    1.1911    0.4602 H   0  0  0  0  0  0  0  0  0  0  0  0
    5.8467    1.7786   -0.7536 H   0  0  0  0  0  0  0  0  0  0  0  0
    6.2148   -3.3519   -0.8653 H   0  0  0  0  0  0  0  0  0  0  0  0
   10.6444   -3.7557   -1.8974 H   0  0  0  0  0  0  0  0  0  0  0  0
   11.8254   -2.3121   -0.3643 H   0  0  0  0  0  0  0  0  0  0  0  0
    8.1671   -0.8019    1.0700 H   0  0  0  0  0  0  0  0  0  0  0  0
    1.5035   -1.8291    0.8471 H   0  0  0  0  0  0  0  0  0  0  0  0
   -7.7198    0.8339    0.5477 H   0  0  0  0  0  0  0  0  0  0  0  0
   -7.9334    2.4276   -0.2500 H   0  0  0  0  0  0  0  0  0  0  0  0
   -9.0954    0.7886   -1.5332 H   0  0  0  0  0  0  0  0  0  0  0  0
   -7.7535    1.5078   -2.4412 H   0  0  0  0  0  0  0  0  0  0  0  0
  1  2  1  0
  2  3  1  0
  3  4  1  0
  4  5  1  0
  5  6  1  0
  6  7  1  0
  7  8  1  0
  8  9  1  0
  9 10  1  0
 10 11  2  0
 11 12  1  0
 12 13  2  0
 13 14  1  0
 12 15  1  0
 15 16  2  0
 16 17  1  0
 17 18  2  0
 18 19  1  0
 19 20  1  0
 19 21  1  0
 21 22  1  0
 22 23  1  0
 23 24  2  0
 24 25  1  0
 24 26  1  0
 26 27  2  0
 27 28  1  0
 28 29  1  0
 28 30  2  0
 21 31  2  0
 31 32  1  0
 32 33  2  0
  5 34  1  0
 34 35  1  0
 35  2  1  0
 14 10  1  0
 33 15  1  0
 32 18  1  0
 30 23  1  0
  1 36  1  0
  1 37  1  0
  1 38  1  0
  3 39  1  0
  3 40  1  0
  4 41  1  0
  4 42  1  0
  6 43  1  0
  6 44  1  0
  7 45  1  0
  7 46  1  0
  8 47  1  0
  8 48  1  0
  9 49  1  0
 11 50  1  0
 14 51  1  0
 16 52  1  0
 17 53  1  0
 20 54  1  0
 20 55  1  0
 20 56  1  0
 22 57  1  0
 26 58  1  0
 27 59  1  0
 30 60  1  0
 33 61  1  0
 34 62  1  0
 34 63  1  0
 35 64  1  0
 35 65  1  0
M  END
$$$$
[H]c1c([H])c(Cl)c(N([H])c2nc3c([H])c(OC([H])([H])[H])c([H])c([H])c3n3c([H])nc([H])c23)c(C([H])([H])[H])c1[H]
     RDKit          3D

 39 42  0  0  0  0  0  0  0  0999 V2000
    3.3893    2.7639    2.6044 C   0  0  0  0  0  0  0  0  0  0  0  0
    4.1122    1.7981    1.8925 O   0  0  0  0  0  0  0  0  0  0  0  0
    3.4883    0.8245    1.1038 C   0  0  0  0  0  0  0  0  0  0  0  0
    4.2330   -0.1103    0.4169 C   0  0  0  0  0  0  0  0  0  0  0  0
    3.6166   -1.0685   -0.3595 C   0  0  0  0  0  0  0  0  0  0  0  0
    2.2333   -1.1030   -0.4589 C   0  0  0  0  0  0  0  0  0  0  0  0
    1.4815   -0.1719    0.2247 C   0  0  0  0  0  0  0  0  0  0  0  0
    2.1113    0.7757    0.9935 C   0  0  0  0  0  0  0  0  0  0  0  0
    0.1282   -0.2303    0.1083 N   0  0  0  0  0  0  0  0  0  0  0  0
   -0.4832   -1.1510   -0.6387 C   0  0  0  0  0  0  0  0  0  0  0  0
   -1.8831   -1.1702   -0.7270 N   0  0  0  0  0  0  0  0  0  0  0  0
   -2.7328   -0.2484   -0.0558 C   0  0  0  0  0  0  0  0  0  0  0  0
   -3.0890    0.9266   -0.6815 C   0  0  0  0  0  0  0  0  0  0  0  0
   -2.5788    1.2098   -2.0470 C   0  0  0  0  0  0  0  0  0  0  0  0
   -3.9169    1.8563   -0.0639 C   0  0  0  0  0  0  0  0  0  0  0  0
   -4.3983    1.6078    1.2031 C   0  0  0  0  0  0  0  0  0  0  0  0
   -4.0583    0.4392    1.8545 C   0  0  0  0  0  0  0  0  0  0  0  0
   -3.2282   -0.4718    1.2106 C   0  0  0  0  0  0  0  0  0  0  0  0
   -2.7575   -1.9817    1.9884 Cl  0  0  0  0  0  0  0  0  0  0  0  0
    0.2643   -2.0805   -1.3212 C   0  0  0  0  0  0  0  0  0  0  0  0
   -0.0699   -3.1412   -2.1624 C   0  0  0  0  0  0  0  0  0  0  0  0
    1.0966   -3.6938   -2.5303 N   0  0  0  0  0  0  0  0  0  0  0  0
    2.1235   -3.0366   -1.9661 C   0  0  0  0  0  0  0  0  0  0  0  0
    1.5997   -2.0278   -1.2102 N   0  0  0  0  0  0  0  0  0  0  0  0
    2.6498    3.2855    1.9445 H   0  0  0  0  0  0  0  0  0  0  0  0
    4.0796    3.5404    2.9682 H   0  0  0  0  0  0  0  0  0  0  0  0
    2.8518    2.3264    3.4867 H   0  0  0  0  0  0  0  0  0  0  0  0
    5.3137   -0.0757    0.5006 H   0  0  0  0  0  0  0  0  0  0  0  0
    4.1958   -1.8109   -0.9056 H   0  0  0  0  0  0  0  0  0  0  0  0
    1.5189    1.5057    1.5293 H   0  0  0  0  0  0  0  0  0  0  0  0
   -2.3282   -1.9124   -1.3267 H   0  0  0  0  0  0  0  0  0  0  0  0
   -3.4247    1.4395   -2.7268 H   0  0  0  0  0  0  0  0  0  0  0  0
   -1.9436    2.1278   -1.9565 H   0  0  0  0  0  0  0  0  0  0  0  0
   -2.0348    0.3605   -2.4564 H   0  0  0  0  0  0  0  0  0  0  0  0
   -4.2033    2.7888   -0.5526 H   0  0  0  0  0  0  0  0  0  0  0  0
   -5.0553    2.3295    1.7119 H   0  0  0  0  0  0  0  0  0  0  0  0
   -4.4264    0.2166    2.8605 H   0  0  0  0  0  0  0  0  0  0  0  0
   -1.0615   -3.4163   -2.4281 H   0  0  0  0  0  0  0  0  0  0  0  0
    3.1867   -3.2200   -2.0527 H   0  0  0  0  0  0  0  0  0  0  0  0
  1  2  1  0
  2  3  1  0
  3  4  2  0
  4  5  1  0
  5  6  2  0
  6  7  1  0
  7  8  2  0
  7  9  1  0
  9 10  2  0
 10 11  1  0
 11 12  1  0
 12 13  2  0
 13 14  1  0
 13 15  1  0
 15 16  2  0
 16 17  1  0
 17 18  2  0
 18 19  1  0
 10 20  1  0
 20 21  2  0
 21 22  1  0
 22 23  2  0
 23 24  1  0
  8  3  1  0
 18 12  1  0
 24 20  1  0
 24  6  1  0
  1 25  1  0
  1 26  1  0
  1 27  1  0
  4 28  1  0
  5 29  1  0
  8 30  1  0
 11 31  1  0
 14 32  1  0
 14 33  1  0
 14 34  1  0
 15 35  1  0
 16 36  1  0
 17 37  1  0
 21 38  1  0
 23 39  1  0
M  END
$$$$
[H]Oc1c([H])c([H])c(-c2nn(C([H])([H])[H])c(N([H])c3nc4c([H])c([H])c(N5C([H])([H])C([H])([H])C([H])(N([H])C(=O)C([H])([H])C([H])([H])N(C([H])([H])[H])C([H])([H])[H])C([H])([H])C5([H])[H])c([H])c4o3)c2[H])c([H])c1[H]
     RDKit          3D

 70 74  0  0  0  0  0  0  0  0999 V2000
   -9.2821   -1.2934    3.2579 C   0  0  0  0  0  0  0  0  0  0  0  0
   -8.6279   -0.4433    2.2844 N   0  0  0  0  0  0  0  0  0  0  0  0
   -8.9998    0.9258    2.4736 C   0  0  0  0  0  0  0  0  0  0  0  0
   -8.8775   -0.9446    0.9582 C   0  0  0  0  0  0  0  0  0  0  0  0
   -8.2258   -0.1065   -0.1032 C   0  0  0  0  0  0  0  0  0  0  0  0
   -6.7551   -0.0633    0.0742 C   0  0  0  0  0  0  0  0  0  0  0  0
   -6.2529   -0.6928    1.0338 O   0  0  0  0  0  0  0  0  0  0  0  0
   -5.9092    0.6567   -0.7935 N   0  0  0  0  0  0  0  0  0  0  0  0
   -4.4898    0.6678   -0.5797 C   0  0  0  0  0  0  0  0  0  0  0  0
   -4.0470    2.0862   -0.2441 C   0  0  0  0  0  0  0  0  0  0  0  0
   -2.5724    2.1274    0.0172 C   0  0  0  0  0  0  0  0  0  0  0  0
   -1.8956    1.4269   -1.0705 N   0  0  0  0  0  0  0  0  0  0  0  0
   -2.7044    1.1183   -2.2252 C   0  0  0  0  0  0  0  0  0  0  0  0
   -3.7337    0.0928   -1.7552 C   0  0  0  0  0  0  0  0  0  0  0  0
   -0.5315    1.1114   -0.9146 C   0  0  0  0  0  0  0  0  0  0  0  0
    0.1298    1.4894    0.2469 C   0  0  0  0  0  0  0  0  0  0  0  0
    1.4621    1.1772    0.3930 C   0  0  0  0  0  0  0  0  0  0  0  0
    2.1928    0.4991   -0.5625 C   0  0  0  0  0  0  0  0  0  0  0  0
    3.4725    0.0935   -0.6381 N   0  0  0  0  0  0  0  0  0  0  0  0
    3.5973   -0.5233   -1.8250 C   0  0  0  0  0  0  0  0  0  0  0  0
    4.7158   -1.1360   -2.4188 N   0  0  0  0  0  0  0  0  0  0  0  0
    6.0006   -1.2128   -1.8169 C   0  0  0  0  0  0  0  0  0  0  0  0
    6.4322   -0.7409   -0.5912 C   0  0  0  0  0  0  0  0  0  0  0  0
    7.7814   -1.0417   -0.4134 C   0  0  0  0  0  0  0  0  0  0  0  0
    8.1301   -1.6872   -1.5355 N   0  0  0  0  0  0  0  0  0  0  0  0
    7.0949   -1.7877   -2.3534 N   0  0  0  0  0  0  0  0  0  0  0  0
    7.1192   -2.4317   -3.6634 C   0  0  0  0  0  0  0  0  0  0  0  0
    8.6143   -0.7198    0.7390 C   0  0  0  0  0  0  0  0  0  0  0  0
    9.9421   -1.0624    0.8117 C   0  0  0  0  0  0  0  0  0  0  0  0
   10.7385   -0.7644    1.8942 C   0  0  0  0  0  0  0  0  0  0  0  0
   10.2126   -0.0874    2.9824 C   0  0  0  0  0  0  0  0  0  0  0  0
   11.0154    0.2145    4.0765 O   0  0  0  0  0  0  0  0  0  0  0  0
    8.8820    0.2628    2.9236 C   0  0  0  0  0  0  0  0  0  0  0  0
    8.0955   -0.0465    1.8235 C   0  0  0  0  0  0  0  0  0  0  0  0
    2.4134   -0.4824   -2.4381 O   0  0  0  0  0  0  0  0  0  0  0  0
    1.5298    0.1255   -1.7159 C   0  0  0  0  0  0  0  0  0  0  0  0
    0.1950    0.4300   -1.8793 C   0  0  0  0  0  0  0  0  0  0  0  0
   -8.6066   -1.5729    4.0934 H   0  0  0  0  0  0  0  0  0  0  0  0
  -10.1760   -0.7674    3.6955 H   0  0  0  0  0  0  0  0  0  0  0  0
   -9.6318   -2.2231    2.7568 H   0  0  0  0  0  0  0  0  0  0  0  0
   -9.4221    1.0261    3.4995 H   0  0  0  0  0  0  0  0  0  0  0  0
   -9.7352    1.2901    1.7314 H   0  0  0  0  0  0  0  0  0  0  0  0
   -8.1011    1.5836    2.4463 H   0  0  0  0  0  0  0  0  0  0  0  0
   -9.9567   -1.0587    0.7251 H   0  0  0  0  0  0  0  0  0  0  0  0
   -8.4372   -1.9622    0.8969 H   0  0  0  0  0  0  0  0  0  0  0  0
   -8.4057   -0.6310   -1.0762 H   0  0  0  0  0  0  0  0  0  0  0  0
   -8.6667    0.9069   -0.1873 H   0  0  0  0  0  0  0  0  0  0  0  0
   -6.3042    1.1812   -1.5894 H   0  0  0  0  0  0  0  0  0  0  0  0
   -4.2577    0.0567    0.3109 H   0  0  0  0  0  0  0  0  0  0  0  0
   -4.4091    2.8072   -0.9767 H   0  0  0  0  0  0  0  0  0  0  0  0
   -4.5801    2.3287    0.7217 H   0  0  0  0  0  0  0  0  0  0  0  0
   -2.3698    1.5731    0.9473 H   0  0  0  0  0  0  0  0  0  0  0  0
   -2.2426    3.1759    0.0402 H   0  0  0  0  0  0  0  0  0  0  0  0
   -3.3245    2.0193   -2.5116 H   0  0  0  0  0  0  0  0  0  0  0  0
   -2.1478    0.7817   -3.0981 H   0  0  0  0  0  0  0  0  0  0  0  0
   -4.3858   -0.1493   -2.6077 H   0  0  0  0  0  0  0  0  0  0  0  0
   -3.1639   -0.8054   -1.4580 H   0  0  0  0  0  0  0  0  0  0  0  0
   -0.3853    2.0267    1.0415 H   0  0  0  0  0  0  0  0  0  0  0  0
    1.9654    1.4838    1.3154 H   0  0  0  0  0  0  0  0  0  0  0  0
    4.6230   -1.5774   -3.3773 H   0  0  0  0  0  0  0  0  0  0  0  0
    5.8528   -0.2199    0.1392 H   0  0  0  0  0  0  0  0  0  0  0  0
    6.3967   -3.2492   -3.6248 H   0  0  0  0  0  0  0  0  0  0  0  0
    8.1499   -2.7731   -3.8953 H   0  0  0  0  0  0  0  0  0  0  0  0
    6.8647   -1.6921   -4.4750 H   0  0  0  0  0  0  0  0  0  0  0  0
   10.3862   -1.5892   -0.0145 H   0  0  0  0  0  0  0  0  0  0  0  0
   11.7892   -1.0468    1.9294 H   0  0  0  0  0  0  0  0  0  0  0  0
   10.5822    0.7093    4.8428 H   0  0  0  0  0  0  0  0  0  0  0  0
    8.4628    0.7902    3.7659 H   0  0  0  0  0  0  0  0  0  0  0  0
    7.0411    0.2240    1.7624 H   0  0  0  0  0  0  0  0  0  0  0  0
   -0.2669    0.1157   -2.7919 H   0  0  0  0  0  0  0  0  0  0  0  0
  1  2  1  0
  2  3  1  0
  2  4  1  0
  4  5  1  0
  5  6  1  0
  6  7  2  0
  6  8  1  0
  8  9  1  0
  9 10  1  0
 10 11  1  0
 11 12  1  0
 12 13  1  0
 13 14  1  0
 12 15  1  0
 15 16  2  0
 16 17  1  0
 17 18  2  0
 18 19  1  0
 19 20  2  0
 20 21  1  0
 21 22  1  0
 22 23  2  0
 23 24  1  0
 24 25  2  0
 25 26  1  0
 26 27  1  0
 24 28  1  0
 28 29  2  0
 29 30  1  0
 30 31  2  0
 31 32  1  0
 31 33  1  0
 33 34  2  0
 20 35  1  0
 35 36  1  0
 36 37  2  0
 14  9  1  0
 37 15  1  0
 36 18  1  0
 26 22  1  0
 34 28  1  0
  1 38  1  0
  1 39  1  0
  1 40  1  0
  3 41  1  0
  3 42  1  0
  3 43  1  0
  4 44  1  0
  4 45  1  0
  5 46  1  0
  5 47  1  0
  8 48  1  0
  9 49  1  0
 10 50  1  0
 10 51  1  0
 11 52  1  0
 11 53  1  0
 13 54  1  0
 13 55  1  0
 14 56  1  0
 14 57  1  0
 16 58  1  0
 17 59  1  0
 21 60  1  0
 23 61  1  0
 27 62  1  0
 27 63  1  0
 27 64  1  0
 29 65  1  0
 30 66  1  0
 32 67  1  0
 33 68  1  0
 34 69  1  0
 37 70  1  0
M  END
$$$$
[H]c1c([H])c([H])c(-n2c(N([H])c3c([H])c(N([H])C(=O)c4c([H])c([H])c([H])c(C(F)(F)F)c4[H])c([H])c([H])c3C([H])([H])[H])nc3c([H])c([H])c([H])c([H])c32)c([H])c1[H]
     RDKit          3D

 57 61  0  0  0  0  0  0  0  0999 V2000
   -1.5326    3.4199   -1.6299 C   0  0  0  0  0  0  0  0  0  0  0  0
   -0.2837    2.6503   -1.3629 C   0  0  0  0  0  0  0  0  0  0  0  0
    0.9567    3.2273   -1.5023 C   0  0  0  0  0  0  0  0  0  0  0  0
    2.1088    2.5551   -1.2453 C   0  0  0  0  0  0  0  0  0  0  0  0
    2.0201    1.2118   -0.8200 C   0  0  0  0  0  0  0  0  0  0  0  0
    3.2515    0.6612   -0.4168 N   0  0  0  0  0  0  0  0  0  0  0  0
    3.4678   -0.4434    0.3879 C   0  0  0  0  0  0  0  0  0  0  0  0
    2.5639   -1.2037    0.8704 O   0  0  0  0  0  0  0  0  0  0  0  0
    4.8702   -0.7863    0.7830 C   0  0  0  0  0  0  0  0  0  0  0  0
    5.0237   -1.4920    1.9546 C   0  0  0  0  0  0  0  0  0  0  0  0
    6.3220   -1.7088    2.4159 C   0  0  0  0  0  0  0  0  0  0  0  0
    7.4368   -1.2540    1.7554 C   0  0  0  0  0  0  0  0  0  0  0  0
    7.2635   -0.5446    0.5817 C   0  0  0  0  0  0  0  0  0  0  0  0
    5.9613   -0.3130    0.0903 C   0  0  0  0  0  0  0  0  0  0  0  0
    8.4258    0.0003   -0.1138 C   0  0  0  0  0  0  0  0  0  0  0  0
    9.4582   -0.9340   -0.2558 F   0  0  0  0  0  0  0  0  0  0  0  0
    8.9787    1.0751    0.6123 F   0  0  0  0  0  0  0  0  0  0  0  0
    8.0926    0.5473   -1.3344 F   0  0  0  0  0  0  0  0  0  0  0  0
    0.7791    0.6453   -0.6913 C   0  0  0  0  0  0  0  0  0  0  0  0
   -0.4034    1.3202   -0.9512 C   0  0  0  0  0  0  0  0  0  0  0  0
   -1.6637    0.8629   -0.6542 N   0  0  0  0  0  0  0  0  0  0  0  0
   -2.4406   -0.2398   -0.9342 C   0  0  0  0  0  0  0  0  0  0  0  0
   -2.2595   -1.1496   -1.8738 N   0  0  0  0  0  0  0  0  0  0  0  0
   -3.2950   -2.0271   -1.8756 C   0  0  0  0  0  0  0  0  0  0  0  0
   -3.6874   -3.0953   -2.6214 C   0  0  0  0  0  0  0  0  0  0  0  0
   -4.8962   -3.7728   -2.4047 C   0  0  0  0  0  0  0  0  0  0  0  0
   -5.7438   -3.3651   -1.4004 C   0  0  0  0  0  0  0  0  0  0  0  0
   -5.3678   -2.2624   -0.6038 C   0  0  0  0  0  0  0  0  0  0  0  0
   -4.1572   -1.6385   -0.8788 C   0  0  0  0  0  0  0  0  0  0  0  0
   -3.6061   -0.5256   -0.3054 N   0  0  0  0  0  0  0  0  0  0  0  0
   -4.2077    0.0882    0.8377 C   0  0  0  0  0  0  0  0  0  0  0  0
   -3.9254   -0.5011    2.0722 C   0  0  0  0  0  0  0  0  0  0  0  0
   -4.4442    0.0379    3.2263 C   0  0  0  0  0  0  0  0  0  0  0  0
   -5.2691    1.1893    3.1774 C   0  0  0  0  0  0  0  0  0  0  0  0
   -5.5416    1.7532    1.9580 C   0  0  0  0  0  0  0  0  0  0  0  0
   -5.0004    1.1920    0.8101 C   0  0  0  0  0  0  0  0  0  0  0  0
   -2.0552    3.1314   -2.5746 H   0  0  0  0  0  0  0  0  0  0  0  0
   -2.1744    3.5423   -0.7811 H   0  0  0  0  0  0  0  0  0  0  0  0
   -1.1588    4.4598   -1.8825 H   0  0  0  0  0  0  0  0  0  0  0  0
    1.0386    4.2741   -1.8224 H   0  0  0  0  0  0  0  0  0  0  0  0
    3.0817    3.0481   -1.3838 H   0  0  0  0  0  0  0  0  0  0  0  0
    4.1594    1.1410   -0.7873 H   0  0  0  0  0  0  0  0  0  0  0  0
    4.2033   -1.8620    2.5138 H   0  0  0  0  0  0  0  0  0  0  0  0
    6.4245   -2.2726    3.3450 H   0  0  0  0  0  0  0  0  0  0  0  0
    8.4341   -1.4460    2.1641 H   0  0  0  0  0  0  0  0  0  0  0  0
    5.8347    0.2423   -0.8151 H   0  0  0  0  0  0  0  0  0  0  0  0
    0.6807   -0.4061   -0.3588 H   0  0  0  0  0  0  0  0  0  0  0  0
   -2.1895    1.5714    0.0282 H   0  0  0  0  0  0  0  0  0  0  0  0
   -3.0425   -3.4316   -3.4312 H   0  0  0  0  0  0  0  0  0  0  0  0
   -5.1766   -4.6142   -3.0151 H   0  0  0  0  0  0  0  0  0  0  0  0
   -6.6860   -3.8538   -1.2120 H   0  0  0  0  0  0  0  0  0  0  0  0
   -6.0361   -1.9538    0.1710 H   0  0  0  0  0  0  0  0  0  0  0  0
   -3.2931   -1.3680    2.1145 H   0  0  0  0  0  0  0  0  0  0  0  0
   -4.2350   -0.4160    4.1689 H   0  0  0  0  0  0  0  0  0  0  0  0
   -5.6708    1.5799    4.1139 H   0  0  0  0  0  0  0  0  0  0  0  0
   -6.1670    2.6306    1.9282 H   0  0  0  0  0  0  0  0  0  0  0  0
   -5.2276    1.6894   -0.1411 H   0  0  0  0  0  0  0  0  0  0  0  0
  1  2  1  0
  2  3  2  0
  3  4  1  0
  4  5  2  0
  5  6  1  0
  6  7  1  0
  7  8  2  0
  7  9  1  0
  9 10  2  0
 10 11  1  0
 11 12  2  0
 12 13  1  0
 13 14  2  0
 13 15  1  0
 15 16  1  0
 15 17  1  0
 15 18  1  0
  5 19  1  0
 19 20  2  0
 20 21  1  0
 21 22  1  0
 22 23  2  0
 23 24  1  0
 24 25  2  0
 25 26  1  0
 26 27  2  0
 27 28  1  0
 28 29  2  0
 29 30  1  0
 30 31  1  0
 31 32  2  0
 32 33  1  0
 33 34  2  0
 34 35  1  0
 35 36  2  0
 20  2  1  0
 30 22  1  0
 36 31  1  0
 14  9  1  0
 29 24  1  0
  1 37  1  0
  1 38  1  0
  1 39  1  0
  3 40  1  0
  4 41  1  0
  6 42  1  0
 10 43  1  0
 11 44  1  0
 12 45  1  0
 14 46  1  0
 19 47  1  0
 21 48  1  0
 25 49  1  0
 26 50  1  0
 27 51  1  0
 28 52  1  0
 32 53  1  0
 33 54  1  0
 34 55  1  0
 35 56  1  0
 36 57  1  0
M  END
$$$$
[H]C([H])=C([H])C(=O)N1C([H])([H])C([H])([H])C([H])([H])C([H])(n2nc(-c3c([H])nc(N4C([H])([H])C([H])([H])C([H])([H])[C@@]4([H])C4([H])C([H])([H])C4(C([H])([H])[H])C([H])([H])[H])c([H])c3[H])c3c(N([H])[H])nc([H])nc32)C1([H])[H]
     RDKit          3D

 70 75  0  0  0  0  0  0  0  0999 V2000
   -6.5968    2.6553    1.2408 C   0  0  0  0  0  0  0  0  0  0  0  0
   -6.1294    1.7407    0.0983 C   0  0  0  0  0  0  0  0  0  0  0  0
   -4.8103    2.1812   -0.4729 C   0  0  0  0  0  0  0  0  0  0  0  0
   -7.1727    1.2204   -0.8289 C   0  0  0  0  0  0  0  0  0  0  0  0
   -6.4928    0.3259    0.1382 C   0  0  0  0  0  0  0  0  0  0  0  0
   -5.5443   -0.7344   -0.3550 C   0  0  2  0  0  0  0  0  0  0  0  0
   -6.2402   -2.1212   -0.1972 C   0  0  0  0  0  0  0  0  0  0  0  0
   -6.0926   -2.3516    1.2939 C   0  0  0  0  0  0  0  0  0  0  0  0
   -5.0409   -1.3467    1.7873 C   0  0  0  0  0  0  0  0  0  0  0  0
   -4.4309   -0.9798    0.5333 N   0  0  0  0  0  0  0  0  0  0  0  0
   -3.0625   -0.9108    0.2453 C   0  0  0  0  0  0  0  0  0  0  0  0
   -2.1302   -0.9910    1.2898 C   0  0  0  0  0  0  0  0  0  0  0  0
   -0.7785   -0.9407    1.0287 C   0  0  0  0  0  0  0  0  0  0  0  0
   -0.3736   -0.8104   -0.2772 C   0  0  0  0  0  0  0  0  0  0  0  0
   -1.3001   -0.7343   -1.2674 C   0  0  0  0  0  0  0  0  0  0  0  0
   -2.5907   -0.7848   -0.9961 N   0  0  0  0  0  0  0  0  0  0  0  0
    1.0433   -0.6882   -0.5429 C   0  0  0  0  0  0  0  0  0  0  0  0
    1.8579    0.2840   -0.0319 N   0  0  0  0  0  0  0  0  0  0  0  0
    3.0928    0.1057   -0.4359 N   0  0  0  0  0  0  0  0  0  0  0  0
    4.2139    0.9505   -0.0833 C   0  0  0  0  0  0  0  0  0  0  0  0
    4.0234    1.3441    1.3628 C   0  0  0  0  0  0  0  0  0  0  0  0
    5.1376    0.7210    2.1899 C   0  0  0  0  0  0  0  0  0  0  0  0
    6.4894    1.3103    1.7478 C   0  0  0  0  0  0  0  0  0  0  0  0
    6.6347    1.0316    0.3563 N   0  0  0  0  0  0  0  0  0  0  0  0
    5.5416    0.3181   -0.2841 C   0  0  0  0  0  0  0  0  0  0  0  0
    7.7557    1.3962   -0.3898 C   0  0  0  0  0  0  0  0  0  0  0  0
    7.6312    1.0352   -1.6654 O   0  0  0  0  0  0  0  0  0  0  0  0
    8.9556    2.0614   -0.0220 C   0  0  0  0  0  0  0  0  0  0  0  0
    9.3257    2.5025    1.1190 C   0  0  0  0  0  0  0  0  0  0  0  0
    3.1345   -0.9793   -1.2180 C   0  0  0  0  0  0  0  0  0  0  0  0
    4.1488   -1.5851   -1.8627 N   0  0  0  0  0  0  0  0  0  0  0  0
    3.8952   -2.6876   -2.5736 C   0  0  0  0  0  0  0  0  0  0  0  0
    2.6658   -3.2166   -2.6699 N   0  0  0  0  0  0  0  0  0  0  0  0
    1.6102   -2.6434   -2.0392 C   0  0  0  0  0  0  0  0  0  0  0  0
    0.3192   -3.2262   -2.1116 N   0  0  0  0  0  0  0  0  0  0  0  0
    1.8371   -1.5038   -1.2997 C   0  0  0  0  0  0  0  0  0  0  0  0
   -6.9556    3.6280    0.8461 H   0  0  0  0  0  0  0  0  0  0  0  0
   -7.3669    2.1400    1.8429 H   0  0  0  0  0  0  0  0  0  0  0  0
   -5.6851    2.8781    1.8423 H   0  0  0  0  0  0  0  0  0  0  0  0
   -4.8412    3.2345   -0.8228 H   0  0  0  0  0  0  0  0  0  0  0  0
   -4.4977    1.5673   -1.3382 H   0  0  0  0  0  0  0  0  0  0  0  0
   -4.0440    2.0789    0.3291 H   0  0  0  0  0  0  0  0  0  0  0  0
   -8.2400    1.4742   -0.6352 H   0  0  0  0  0  0  0  0  0  0  0  0
   -6.9254    1.1150   -1.8938 H   0  0  0  0  0  0  0  0  0  0  0  0
   -7.1089   -0.0274    0.9990 H   0  0  0  0  0  0  0  0  0  0  0  0
   -5.2771   -0.6655   -1.4132 H   0  0  0  0  0  0  0  0  0  0  0  0
   -7.2705   -2.0732   -0.5464 H   0  0  0  0  0  0  0  0  0  0  0  0
   -5.6696   -2.8679   -0.7829 H   0  0  0  0  0  0  0  0  0  0  0  0
   -7.0440   -2.1962    1.8425 H   0  0  0  0  0  0  0  0  0  0  0  0
   -5.6712   -3.3708    1.4644 H   0  0  0  0  0  0  0  0  0  0  0  0
   -5.5364   -0.4676    2.2511 H   0  0  0  0  0  0  0  0  0  0  0  0
   -4.3645   -1.8484    2.4902 H   0  0  0  0  0  0  0  0  0  0  0  0
   -2.4809   -1.0931    2.3075 H   0  0  0  0  0  0  0  0  0  0  0  0
   -0.0683   -1.0054    1.8623 H   0  0  0  0  0  0  0  0  0  0  0  0
   -1.0089   -0.6081   -2.3309 H   0  0  0  0  0  0  0  0  0  0  0  0
    4.0919    1.8803   -0.6953 H   0  0  0  0  0  0  0  0  0  0  0  0
    3.0836    0.9176    1.7611 H   0  0  0  0  0  0  0  0  0  0  0  0
    4.0039    2.4495    1.4825 H   0  0  0  0  0  0  0  0  0  0  0  0
    4.9745    0.8837    3.2621 H   0  0  0  0  0  0  0  0  0  0  0  0
    5.1106   -0.3655    2.0056 H   0  0  0  0  0  0  0  0  0  0  0  0
    6.4986    2.3996    1.9791 H   0  0  0  0  0  0  0  0  0  0  0  0
    7.2458    0.7327    2.3128 H   0  0  0  0  0  0  0  0  0  0  0  0
    5.7399    0.3491   -1.4006 H   0  0  0  0  0  0  0  0  0  0  0  0
    5.6043   -0.7258    0.0860 H   0  0  0  0  0  0  0  0  0  0  0  0
    9.6961    2.2285   -0.8551 H   0  0  0  0  0  0  0  0  0  0  0  0
    8.7919    2.4520    2.0252 H   0  0  0  0  0  0  0  0  0  0  0  0
   10.3182    3.0080    1.2273 H   0  0  0  0  0  0  0  0  0  0  0  0
    4.7521   -3.1516   -3.0858 H   0  0  0  0  0  0  0  0  0  0  0  0
   -0.1504   -3.7060   -1.3156 H   0  0  0  0  0  0  0  0  0  0  0  0
   -0.2320   -3.1923   -3.0104 H   0  0  0  0  0  0  0  0  0  0  0  0
  1  2  1  0
  2  3  1  0
  2  4  1  0
  4  5  1  0
  5  6  1  0
  6  7  1  0
  7  8  1  0
  8  9  1  0
  9 10  1  0
 10 11  1  0
 11 12  2  0
 12 13  1  0
 13 14  2  0
 14 15  1  0
 15 16  2  0
 14 17  1  0
 17 18  2  0
 18 19  1  0
 19 20  1  0
 20 21  1  0
 21 22  1  0
 22 23  1  0
 23 24  1  0
 24 25  1  0
 24 26  1  0
 26 27  2  0
 26 28  1  0
 28 29  2  3
 19 30  1  0
 30 31  2  0
 31 32  1  0
 32 33  2  0
 33 34  1  0
 34 35  1  0
 34 36  2  0
  5  2  1  0
 10  6  1  0
 16 11  1  0
 36 17  1  0
 25 20  1  0
 36 30  1  0
  1 37  1  0
  1 38  1  0
  1 39  1  0
  3 40  1  0
  3 41  1  0
  3 42  1  0
  4 43  1  0
  4 44  1  0
  5 45  1  0
  6 46  1  6
  7 47  1  0
  7 48  1  0
  8 49  1  0
  8 50  1  0
  9 51  1  0
  9 52  1  0
 12 53  1  0
 13 54  1  0
 15 55  1  0
 20 56  1  0
 21 57  1  0
 21 58  1  0
 22 59  1  0
 22 60  1  0
 23 61  1  0
 23 62  1  0
 25 63  1  0
 25 64  1  0
 28 65  1  0
 29 66  1  0
 29 67  1  0
 32 68  1  0
 35 69  1  0
 35 70  1  0
M  END
$$$$
[H]c1c([H])c(N2C([H])([H])C([H])([H])N(C([H])([H])[H])C([H])([H])C2([H])[H])c([H])c([H])c1N([H])c1nc2c([H])c([H])c([H])c([H])c2n2c([H])nc([H])c12
     RDKit          3D

 49 53  0  0  0  0  0  0  0  0999 V2000
    7.2699   -0.6910    1.0308 C   0  0  0  0  0  0  0  0  0  0  0  0
    6.2589   -0.5779    0.0051 N   0  0  0  0  0  0  0  0  0  0  0  0
    5.2973   -1.6120    0.0133 C   0  0  0  0  0  0  0  0  0  0  0  0
    3.8961   -1.1556    0.3475 C   0  0  0  0  0  0  0  0  0  0  0  0
    3.4855    0.0045   -0.3933 N   0  0  0  0  0  0  0  0  0  0  0  0
    4.4949    0.8829   -0.9188 C   0  0  0  0  0  0  0  0  0  0  0  0
    5.7919    0.7357   -0.2112 C   0  0  0  0  0  0  0  0  0  0  0  0
    2.1268    0.2967   -0.6083 C   0  0  0  0  0  0  0  0  0  0  0  0
    1.7116    1.3362   -1.4046 C   0  0  0  0  0  0  0  0  0  0  0  0
    0.3832    1.6277   -1.6132 C   0  0  0  0  0  0  0  0  0  0  0  0
   -0.6192    0.8575   -1.0075 C   0  0  0  0  0  0  0  0  0  0  0  0
   -1.9613    1.1908   -1.2664 N   0  0  0  0  0  0  0  0  0  0  0  0
   -3.1158    0.7367   -0.5923 C   0  0  0  0  0  0  0  0  0  0  0  0
   -3.1663   -0.0890    0.4515 N   0  0  0  0  0  0  0  0  0  0  0  0
   -4.2941   -0.4820    1.0661 C   0  0  0  0  0  0  0  0  0  0  0  0
   -4.2826   -1.3406    2.1448 C   0  0  0  0  0  0  0  0  0  0  0  0
   -5.4376   -1.7438    2.7751 C   0  0  0  0  0  0  0  0  0  0  0  0
   -6.6313   -1.2576    2.2909 C   0  0  0  0  0  0  0  0  0  0  0  0
   -6.6598   -0.3930    1.2064 C   0  0  0  0  0  0  0  0  0  0  0  0
   -5.4892    0.0006    0.5865 C   0  0  0  0  0  0  0  0  0  0  0  0
   -5.5083    0.8448   -0.4732 N   0  0  0  0  0  0  0  0  0  0  0  0
   -6.5575    1.4243   -1.0904 C   0  0  0  0  0  0  0  0  0  0  0  0
   -6.0315    2.1632   -2.0760 N   0  0  0  0  0  0  0  0  0  0  0  0
   -4.6974    2.0569   -2.0845 C   0  0  0  0  0  0  0  0  0  0  0  0
   -4.3583    1.2083   -1.0530 C   0  0  0  0  0  0  0  0  0  0  0  0
   -0.1889   -0.1711   -0.2205 C   0  0  0  0  0  0  0  0  0  0  0  0
    1.1639   -0.4698   -0.0062 C   0  0  0  0  0  0  0  0  0  0  0  0
    6.8996   -0.4962    2.0443 H   0  0  0  0  0  0  0  0  0  0  0  0
    8.0324    0.0995    0.8089 H   0  0  0  0  0  0  0  0  0  0  0  0
    7.7774   -1.6598    0.9052 H   0  0  0  0  0  0  0  0  0  0  0  0
    5.5752   -2.3708    0.7762 H   0  0  0  0  0  0  0  0  0  0  0  0
    5.3015   -2.1577   -0.9648 H   0  0  0  0  0  0  0  0  0  0  0  0
    3.7179   -1.0751    1.4379 H   0  0  0  0  0  0  0  0  0  0  0  0
    3.2206   -1.9963    0.0066 H   0  0  0  0  0  0  0  0  0  0  0  0
    4.1539    1.9451   -0.7991 H   0  0  0  0  0  0  0  0  0  0  0  0
    4.6542    0.6744   -1.9944 H   0  0  0  0  0  0  0  0  0  0  0  0
    6.5636    1.3056   -0.7887 H   0  0  0  0  0  0  0  0  0  0  0  0
    5.7322    1.2690    0.7757 H   0  0  0  0  0  0  0  0  0  0  0  0
    2.4573    1.9563   -1.8940 H   0  0  0  0  0  0  0  0  0  0  0  0
    0.1394    2.4591   -2.2504 H   0  0  0  0  0  0  0  0  0  0  0  0
   -2.1052    1.8805   -2.0933 H   0  0  0  0  0  0  0  0  0  0  0  0
   -3.3353   -1.7106    2.5092 H   0  0  0  0  0  0  0  0  0  0  0  0
   -5.4640   -2.4130    3.6197 H   0  0  0  0  0  0  0  0  0  0  0  0
   -7.5695   -1.5603    2.7717 H   0  0  0  0  0  0  0  0  0  0  0  0
   -7.6113   -0.0297    0.8510 H   0  0  0  0  0  0  0  0  0  0  0  0
   -7.5871    1.2768   -0.7952 H   0  0  0  0  0  0  0  0  0  0  0  0
   -3.9744    2.5191   -2.7429 H   0  0  0  0  0  0  0  0  0  0  0  0
   -0.8833   -0.8165    0.2725 H   0  0  0  0  0  0  0  0  0  0  0  0
    1.4242   -1.3167    0.6452 H   0  0  0  0  0  0  0  0  0  0  0  0
  1  2  1  0
  2  3  1  0
  3  4  1  0
  4  5  1  0
  5  6  1  0
  6  7  1  0
  5  8  1  0
  8  9  2  0
  9 10  1  0
 10 11  2  0
 11 12  1  0
 12 13  1  0
 13 14  2  0
 14 15  1  0
 15 16  2  0
 16 17  1  0
 17 18  2  0
 18 19  1  0
 19 20  2  0
 20 21  1  0
 21 22  1  0
 22 23  2  0
 23 24  1  0
 24 25  2  0
 11 26  1  0
 26 27  2  0
  7  2  1  0
 27  8  1  0
 25 13  1  0
 20 15  1  0
 25 21  1  0
  1 28  1  0
  1 29  1  0
  1 30  1  0
  3 31  1  0
  3 32  1  0
  4 33  1  0
  4 34  1  0
  6 35  1  0
  6 36  1  0
  7 37  1  0
  7 38  1  0
  9 39  1  0
 10 40  1  0
 12 41  1  0
 16 42  1  0
 17 43  1  0
 18 44  1  0
 19 45  1  0
 22 46  1  0
 24 47  1  0
 26 48  1  0
 27 49  1  0
M  END
$$$$
[H]c1nc(C(=O)N([H])[H])c(N([H])c2c([H])c([H])c(C3(C([H])([H])[H])C(=O)N([H])C([H])([H])C3([H])[H])c([H])c2[H])nc1N1C([H])([H])C([H])([H])C([H])([H])[C@@]([H])(N([H])[C@@]([H])(C([H])([H])[H])C(F)(F)F)C1([H])[H]
     RDKit          3D

 66 69  0  0  0  0  0  0  0  0999 V2000
   -2.9675    1.1270    1.1124 C   0  0  0  0  0  0  0  0  0  0  0  0
   -3.5014    1.9726    0.0024 C   0  0  2  0  0  0  0  0  0  0  0  0
   -2.8092    1.9486   -1.2068 N   0  0  0  0  0  0  0  0  0  0  0  0
   -2.7132    0.7811   -1.9997 C   0  0  2  0  0  0  0  0  0  0  0  0
   -4.0492    0.2652   -2.4744 C   0  0  0  0  0  0  0  0  0  0  0  0
   -3.7617   -1.0989   -3.1299 C   0  0  0  0  0  0  0  0  0  0  0  0
   -3.4699   -2.0087   -1.9592 C   0  0  0  0  0  0  0  0  0  0  0  0
   -2.3058   -1.5053   -1.2706 N   0  0  0  0  0  0  0  0  0  0  0  0
   -1.7219   -0.2546   -1.6082 C   0  0  0  0  0  0  0  0  0  0  0  0
   -1.7375   -2.3370   -0.2169 C   0  0  0  0  0  0  0  0  0  0  0  0
   -2.3885   -3.4768    0.1938 C   0  0  0  0  0  0  0  0  0  0  0  0
   -1.8897   -4.2693    1.1514 N   0  0  0  0  0  0  0  0  0  0  0  0
   -0.6963   -3.9897    1.7808 C   0  0  0  0  0  0  0  0  0  0  0  0
   -0.2757   -4.9091    2.8163 C   0  0  0  0  0  0  0  0  0  0  0  0
   -1.0539   -6.0630    3.1102 N   0  0  0  0  0  0  0  0  0  0  0  0
    0.7432   -4.7651    3.4893 O   0  0  0  0  0  0  0  0  0  0  0  0
   -0.0523   -2.8573    1.3687 C   0  0  0  0  0  0  0  0  0  0  0  0
    1.2117   -2.5264    1.9152 N   0  0  0  0  0  0  0  0  0  0  0  0
    1.8897   -1.3160    1.5272 C   0  0  0  0  0  0  0  0  0  0  0  0
    1.2142   -0.1486    1.3441 C   0  0  0  0  0  0  0  0  0  0  0  0
    1.9185    0.9858    0.9108 C   0  0  0  0  0  0  0  0  0  0  0  0
    3.2597    0.9502    0.6696 C   0  0  0  0  0  0  0  0  0  0  0  0
    3.9188   -0.2486    0.8664 C   0  0  0  0  0  0  0  0  0  0  0  0
    3.2709   -1.3808    1.2882 C   0  0  0  0  0  0  0  0  0  0  0  0
    4.0241    2.1171    0.1978 C   0  0  0  0  0  0  0  0  0  0  0  0
    4.2480    3.0323    1.3891 C   0  0  0  0  0  0  0  0  0  0  0  0
    5.3504    1.7081   -0.4272 C   0  0  0  0  0  0  0  0  0  0  0  0
    5.7022    2.8579   -1.3794 C   0  0  0  0  0  0  0  0  0  0  0  0
    4.4051    3.4301   -1.7460 N   0  0  0  0  0  0  0  0  0  0  0  0
    3.3930    2.8300   -0.9226 C   0  0  0  0  0  0  0  0  0  0  0  0
    2.1761    2.9409   -1.1825 O   0  0  0  0  0  0  0  0  0  0  0  0
   -0.5870   -2.0626    0.3849 N   0  0  0  0  0  0  0  0  0  0  0  0
   -3.5353    3.4391    0.4851 C   0  0  0  0  0  0  0  0  0  0  0  0
   -4.0276    4.2618   -0.5260 F   0  0  0  0  0  0  0  0  0  0  0  0
   -2.2949    3.8881    0.8337 F   0  0  0  0  0  0  0  0  0  0  0  0
   -4.3663    3.5886    1.5719 F   0  0  0  0  0  0  0  0  0  0  0  0
   -1.8537    1.2346    1.2352 H   0  0  0  0  0  0  0  0  0  0  0  0
   -3.3502    1.5099    2.1171 H   0  0  0  0  0  0  0  0  0  0  0  0
   -3.2542    0.0629    1.0719 H   0  0  0  0  0  0  0  0  0  0  0  0
   -4.5920    1.7103   -0.0790 H   0  0  0  0  0  0  0  0  0  0  0  0
   -1.9189    2.4582   -1.1928 H   0  0  0  0  0  0  0  0  0  0  0  0
   -2.2640    1.2018   -3.0056 H   0  0  0  0  0  0  0  0  0  0  0  0
   -4.7607    0.0538   -1.6541 H   0  0  0  0  0  0  0  0  0  0  0  0
   -4.4348    0.9271   -3.2458 H   0  0  0  0  0  0  0  0  0  0  0  0
   -2.8640   -1.0484   -3.7641 H   0  0  0  0  0  0  0  0  0  0  0  0
   -4.6695   -1.4538   -3.6455 H   0  0  0  0  0  0  0  0  0  0  0  0
   -3.2407   -3.0438   -2.3249 H   0  0  0  0  0  0  0  0  0  0  0  0
   -4.3145   -2.0470   -1.2394 H   0  0  0  0  0  0  0  0  0  0  0  0
   -0.9489   -0.4003   -2.4140 H   0  0  0  0  0  0  0  0  0  0  0  0
   -1.1412    0.0648   -0.6793 H   0  0  0  0  0  0  0  0  0  0  0  0
   -3.3356   -3.6957   -0.3090 H   0  0  0  0  0  0  0  0  0  0  0  0
   -1.8069   -6.0192    3.8072 H   0  0  0  0  0  0  0  0  0  0  0  0
   -0.8502   -6.9399    2.6134 H   0  0  0  0  0  0  0  0  0  0  0  0
    1.7189   -3.1130    2.5966 H   0  0  0  0  0  0  0  0  0  0  0  0
    0.1421   -0.0549    1.5429 H   0  0  0  0  0  0  0  0  0  0  0  0
    1.3386    1.8724    0.7933 H   0  0  0  0  0  0  0  0  0  0  0  0
    4.9906   -0.2841    0.6783 H   0  0  0  0  0  0  0  0  0  0  0  0
    3.8142   -2.2815    1.4278 H   0  0  0  0  0  0  0  0  0  0  0  0
    3.2583    3.1321    1.9020 H   0  0  0  0  0  0  0  0  0  0  0  0
    4.6193    4.0259    1.0802 H   0  0  0  0  0  0  0  0  0  0  0  0
    4.9183    2.4929    2.0826 H   0  0  0  0  0  0  0  0  0  0  0  0
    5.2961    0.7901   -1.0154 H   0  0  0  0  0  0  0  0  0  0  0  0
    6.1494    1.6590    0.3119 H   0  0  0  0  0  0  0  0  0  0  0  0
    6.3060    3.6356   -0.8487 H   0  0  0  0  0  0  0  0  0  0  0  0
    6.2468    2.4955   -2.2708 H   0  0  0  0  0  0  0  0  0  0  0  0
    4.2804    4.1480   -2.4851 H   0  0  0  0  0  0  0  0  0  0  0  0
  1  2  1  0
  2  3  1  0
  3  4  1  0
  4  5  1  0
  5  6  1  0
  6  7  1  0
  7  8  1  0
  8  9  1  0
  8 10  1  0
 10 11  2  0
 11 12  1  0
 12 13  2  0
 13 14  1  0
 14 15  1  0
 14 16  2  0
 13 17  1  0
 17 18  1  0
 18 19  1  0
 19 20  2  0
 20 21  1  0
 21 22  2  0
 22 23  1  0
 23 24  2  0
 22 25  1  0
 25 26  1  0
 25 27  1  0
 27 28  1  0
 28 29  1  0
 29 30  1  0
 30 31  2  0
 17 32  2  0
  2 33  1  0
 33 34  1  0
 33 35  1  0
 33 36  1  0
  9  4  1  0
 32 10  1  0
 24 19  1  0
 30 25  1  0
  1 37  1  0
  1 38  1  0
  1 39  1  0
  2 40  1  6
  3 41  1  0
  4 42  1  6
  5 43  1  0
  5 44  1  0
  6 45  1  0
  6 46  1  0
  7 47  1  0
  7 48  1  0
  9 49  1  0
  9 50  1  0
 11 51  1  0
 15 52  1  0
 15 53  1  0
 18 54  1  0
 20 55  1  0
 21 56  1  0
 23 57  1  0
 24 58  1  0
 26 59  1  0
 26 60  1  0
 26 61  1  0
 27 62  1  0
 27 63  1  0
 28 64  1  0
 28 65  1  0
 29 66  1  0
M  END
$$$$
[H]c1c(OC([H])([H])[H])nc(N2C([H])([H])C([H])([H])N(C([H])([H])[H])C([H])([H])C2([H])[H])nc1N([H])c1nc2c([H])c([H])c(C(=O)N([H])c3c(Cl)c([H])c([H])c([H])c3C([H])([H])[H])c([H])c2s1
     RDKit          3D

 62 66  0  0  0  0  0  0  0  0999 V2000
   -4.0043   -4.4117    0.3366 C   0  0  0  0  0  0  0  0  0  0  0  0
   -3.0171   -3.4274    0.3044 O   0  0  0  0  0  0  0  0  0  0  0  0
   -3.3533   -2.0951    0.1999 C   0  0  0  0  0  0  0  0  0  0  0  0
   -2.3317   -1.1578    0.1721 C   0  0  0  0  0  0  0  0  0  0  0  0
   -2.6302    0.1588    0.0700 C   0  0  0  0  0  0  0  0  0  0  0  0
   -1.6800    1.1857    0.0330 N   0  0  0  0  0  0  0  0  0  0  0  0
   -0.2676    1.0808    0.0882 C   0  0  0  0  0  0  0  0  0  0  0  0
    0.5385    0.0495    0.1834 N   0  0  0  0  0  0  0  0  0  0  0  0
    1.8255    0.1855    0.2188 C   0  0  0  0  0  0  0  0  0  0  0  0
    2.7737   -0.8507    0.3189 C   0  0  0  0  0  0  0  0  0  0  0  0
    4.1048   -0.5751    0.3465 C   0  0  0  0  0  0  0  0  0  0  0  0
    4.6284    0.6892    0.2817 C   0  0  0  0  0  0  0  0  0  0  0  0
    3.6972    1.7170    0.1829 C   0  0  0  0  0  0  0  0  0  0  0  0
    2.3305    1.4559    0.1533 C   0  0  0  0  0  0  0  0  0  0  0  0
    0.8946    2.3799    0.0434 S   0  0  0  0  0  0  0  0  0  0  0  0
    6.0445    0.9141    0.3082 C   0  0  0  0  0  0  0  0  0  0  0  0
    6.5130    2.0848    0.5359 O   0  0  0  0  0  0  0  0  0  0  0  0
    6.9979   -0.0922    0.0938 N   0  0  0  0  0  0  0  0  0  0  0  0
    8.3902    0.1071    0.1166 C   0  0  0  0  0  0  0  0  0  0  0  0
    9.0503    0.4393   -1.0370 C   0  0  0  0  0  0  0  0  0  0  0  0
    8.3196    0.5899   -2.2960 C   0  0  0  0  0  0  0  0  0  0  0  0
   10.4312    0.6390   -1.0260 C   0  0  0  0  0  0  0  0  0  0  0  0
   11.1513    0.5104    0.1181 C   0  0  0  0  0  0  0  0  0  0  0  0
   10.4992    0.1759    1.2885 C   0  0  0  0  0  0  0  0  0  0  0  0
    9.1254   -0.0214    1.2716 C   0  0  0  0  0  0  0  0  0  0  0  0
    8.3419   -0.4425    2.7720 Cl  0  0  0  0  0  0  0  0  0  0  0  0
   -3.9604    0.4757   -0.0003 N   0  0  0  0  0  0  0  0  0  0  0  0
   -4.9408   -0.4326    0.0270 C   0  0  0  0  0  0  0  0  0  0  0  0
   -4.6250   -1.7304    0.1285 N   0  0  0  0  0  0  0  0  0  0  0  0
   -6.3178   -0.0285   -0.0525 N   0  0  0  0  0  0  0  0  0  0  0  0
   -7.3463   -1.0122   -0.0034 C   0  0  0  0  0  0  0  0  0  0  0  0
   -8.6495   -0.4971    0.5357 C   0  0  0  0  0  0  0  0  0  0  0  0
   -8.9601    0.8480    0.1590 N   0  0  0  0  0  0  0  0  0  0  0  0
   -9.2933    1.7038    1.2703 C   0  0  0  0  0  0  0  0  0  0  0  0
   -8.0482    1.4364   -0.7736 C   0  0  0  0  0  0  0  0  0  0  0  0
   -6.6429    1.3723   -0.1832 C   0  0  0  0  0  0  0  0  0  0  0  0
   -4.1572   -4.7805    1.3747 H   0  0  0  0  0  0  0  0  0  0  0  0
   -4.9680   -4.0370   -0.0658 H   0  0  0  0  0  0  0  0  0  0  0  0
   -3.6838   -5.3023   -0.2549 H   0  0  0  0  0  0  0  0  0  0  0  0
   -1.3235   -1.5123    0.2334 H   0  0  0  0  0  0  0  0  0  0  0  0
   -2.0233    2.2069   -0.0478 H   0  0  0  0  0  0  0  0  0  0  0  0
    2.4500   -1.9026    0.3763 H   0  0  0  0  0  0  0  0  0  0  0  0
    4.7895   -1.4246    0.4303 H   0  0  0  0  0  0  0  0  0  0  0  0
    4.0165    2.7350    0.1275 H   0  0  0  0  0  0  0  0  0  0  0  0
    6.6461   -1.0756   -0.1044 H   0  0  0  0  0  0  0  0  0  0  0  0
    8.9830    0.8906   -3.1338 H   0  0  0  0  0  0  0  0  0  0  0  0
    7.6023    1.4414   -2.1670 H   0  0  0  0  0  0  0  0  0  0  0  0
    7.8003   -0.3333   -2.6236 H   0  0  0  0  0  0  0  0  0  0  0  0
   10.9067    0.9027   -1.9775 H   0  0  0  0  0  0  0  0  0  0  0  0
   12.2348    0.6757    0.0848 H   0  0  0  0  0  0  0  0  0  0  0  0
   11.1003    0.0817    2.1801 H   0  0  0  0  0  0  0  0  0  0  0  0
   -7.0669   -1.9257    0.5585 H   0  0  0  0  0  0  0  0  0  0  0  0
   -7.5373   -1.3541   -1.0542 H   0  0  0  0  0  0  0  0  0  0  0  0
   -8.6114   -0.5443    1.6502 H   0  0  0  0  0  0  0  0  0  0  0  0
   -9.5106   -1.1399    0.2449 H   0  0  0  0  0  0  0  0  0  0  0  0
  -10.3577    1.5546    1.5317 H   0  0  0  0  0  0  0  0  0  0  0  0
   -9.1628    2.7609    0.9722 H   0  0  0  0  0  0  0  0  0  0  0  0
   -8.6494    1.4967    2.1638 H   0  0  0  0  0  0  0  0  0  0  0  0
   -8.3388    2.4999   -0.9033 H   0  0  0  0  0  0  0  0  0  0  0  0
   -8.1174    0.8710   -1.7255 H   0  0  0  0  0  0  0  0  0  0  0  0
   -5.9274    1.8834   -0.8619 H   0  0  0  0  0  0  0  0  0  0  0  0
   -6.6833    1.9075    0.7842 H   0  0  0  0  0  0  0  0  0  0  0  0
  1  2  1  0
  2  3  1  0
  3  4  2  0
  4  5  1  0
  5  6  1  0
  6  7  1  0
  7  8  2  0
  8  9  1  0
  9 10  2  0
 10 11  1  0
 11 12  2  0
 12 13  1  0
 13 14  2  0
 14 15  1  0
 12 16  1  0
 16 17  2  0
 16 18  1  0
 18 19  1  0
 19 20  2  0
 20 21  1  0
 20 22  1  0
 22 23  2  0
 23 24  1  0
 24 25  2  0
 25 26  1  0
  5 27  2  0
 27 28  1  0
 28 29  2  0
 28 30  1  0
 30 31  1  0
 31 32  1  0
 32 33  1  0
 33 34  1  0
 33 35  1  0
 35 36  1  0
 29  3  1  0
 36 30  1  0
 15  7  1  0
 25 19  1  0
 14  9  1  0
  1 37  1  0
  1 38  1  0
  1 39  1  0
  4 40  1  0
  6 41  1  0
 10 42  1  0
 11 43  1  0
 13 44  1  0
 18 45  1  0
 21 46  1  0
 21 47  1  0
 21 48  1  0
 22 49  1  0
 23 50  1  0
 24 51  1  0
 31 52  1  0
 31 53  1  0
 32 54  1  0
 32 55  1  0
 34 56  1  0
 34 57  1  0
 34 58  1  0
 35 59  1  0
 35 60  1  0
 36 61  1  0
 36 62  1  0
M  END
$$$$
[H]c1c([H])c(C2([H])C([H])([H])C([H])([H])N(C(=O)C([H])([H])C([H])([H])C(C([H])([H])[H])(C([H])([H])[H])C([H])([H])[H])C([H])([H])C2([H])[H])c([H])c(F)c1C#CC([H])([H])N(C(=O)N([H])c1c([H])c([H])c(C([H])([H])[H])c(C(F)(F)F)c1[H])C([H])([H])[H]
     RDKit          3D

 77 79  0  0  0  0  0  0  0  0999 V2000
    6.0012   -3.4905    3.6182 C   0  0  0  0  0  0  0  0  0  0  0  0
    5.9446   -3.1872    2.2112 N   0  0  0  0  0  0  0  0  0  0  0  0
    5.1079   -3.9543    1.3356 C   0  0  0  0  0  0  0  0  0  0  0  0
    3.7709   -3.3171    1.2118 C   0  0  0  0  0  0  0  0  0  0  0  0
    2.6973   -2.7776    1.1084 C   0  0  0  0  0  0  0  0  0  0  0  0
    1.4362   -2.1106    0.9780 C   0  0  0  0  0  0  0  0  0  0  0  0
    0.2575   -2.7940    0.8112 C   0  0  0  0  0  0  0  0  0  0  0  0
   -0.9309   -2.1332    0.6867 C   0  0  0  0  0  0  0  0  0  0  0  0
   -0.9846   -0.7637    0.7244 C   0  0  0  0  0  0  0  0  0  0  0  0
    0.1885   -0.0635    0.8913 C   0  0  0  0  0  0  0  0  0  0  0  0
    1.4112   -0.7363    1.0195 C   0  0  0  0  0  0  0  0  0  0  0  0
    2.5629   -0.0098    1.1843 F   0  0  0  0  0  0  0  0  0  0  0  0
   -2.2781   -0.0791    0.5848 C   0  0  0  0  0  0  0  0  0  0  0  0
   -3.2835   -0.4132    1.6499 C   0  0  0  0  0  0  0  0  0  0  0  0
   -4.3908    0.6061    1.5480 C   0  0  0  0  0  0  0  0  0  0  0  0
   -4.7913    0.7839    0.1926 N   0  0  0  0  0  0  0  0  0  0  0  0
   -4.2427    0.1130   -0.9543 C   0  0  0  0  0  0  0  0  0  0  0  0
   -2.8657   -0.4422   -0.7599 C   0  0  0  0  0  0  0  0  0  0  0  0
   -5.8474    1.7362   -0.0745 C   0  0  0  0  0  0  0  0  0  0  0  0
   -6.3004    2.3353    0.9599 O   0  0  0  0  0  0  0  0  0  0  0  0
   -6.3318    1.9774   -1.4227 C   0  0  0  0  0  0  0  0  0  0  0  0
   -7.6903    2.5164   -1.5690 C   0  0  0  0  0  0  0  0  0  0  0  0
   -8.8611    1.7204   -1.1768 C   0  0  0  0  0  0  0  0  0  0  0  0
  -10.1443    2.5546   -1.4477 C   0  0  0  0  0  0  0  0  0  0  0  0
   -9.0389    0.5140   -2.1348 C   0  0  0  0  0  0  0  0  0  0  0  0
   -8.9902    1.1845    0.1882 C   0  0  0  0  0  0  0  0  0  0  0  0
    6.7384   -2.1248    1.6939 C   0  0  0  0  0  0  0  0  0  0  0  0
    7.4735   -1.5167    2.5484 O   0  0  0  0  0  0  0  0  0  0  0  0
    6.6963   -1.7890    0.3379 N   0  0  0  0  0  0  0  0  0  0  0  0
    7.4488   -0.7417   -0.2300 C   0  0  0  0  0  0  0  0  0  0  0  0
    7.6624   -0.7775   -1.6241 C   0  0  0  0  0  0  0  0  0  0  0  0
    8.3574    0.2163   -2.2557 C   0  0  0  0  0  0  0  0  0  0  0  0
    8.8864    1.2982   -1.5909 C   0  0  0  0  0  0  0  0  0  0  0  0
    9.6094    2.2960   -2.3727 C   0  0  0  0  0  0  0  0  0  0  0  0
    8.6887    1.3485   -0.2430 C   0  0  0  0  0  0  0  0  0  0  0  0
    7.9759    0.3349    0.4223 C   0  0  0  0  0  0  0  0  0  0  0  0
    9.2345    2.4943    0.5139 C   0  0  0  0  0  0  0  0  0  0  0  0
    8.7160    3.7056    0.0829 F   0  0  0  0  0  0  0  0  0  0  0  0
   10.6235    2.5065    0.5502 F   0  0  0  0  0  0  0  0  0  0  0  0
    8.8289    2.3647    1.8292 F   0  0  0  0  0  0  0  0  0  0  0  0
    7.0132   -3.2761    4.0471 H   0  0  0  0  0  0  0  0  0  0  0  0
    5.7646   -4.5278    3.8609 H   0  0  0  0  0  0  0  0  0  0  0  0
    5.2863   -2.8539    4.2082 H   0  0  0  0  0  0  0  0  0  0  0  0
    4.9345   -4.9817    1.7932 H   0  0  0  0  0  0  0  0  0  0  0  0
    5.4867   -4.1319    0.3371 H   0  0  0  0  0  0  0  0  0  0  0  0
    0.2556   -3.8811    0.7753 H   0  0  0  0  0  0  0  0  0  0  0  0
   -1.8478   -2.7282    0.5549 H   0  0  0  0  0  0  0  0  0  0  0  0
    0.1312    1.0202    0.9200 H   0  0  0  0  0  0  0  0  0  0  0  0
   -2.0948    1.0232    0.6607 H   0  0  0  0  0  0  0  0  0  0  0  0
   -3.6661   -1.4509    1.5555 H   0  0  0  0  0  0  0  0  0  0  0  0
   -2.8512   -0.3210    2.6614 H   0  0  0  0  0  0  0  0  0  0  0  0
   -3.9409    1.5794    1.9040 H   0  0  0  0  0  0  0  0  0  0  0  0
   -5.2489    0.3347    2.2187 H   0  0  0  0  0  0  0  0  0  0  0  0
   -4.1640    0.8333   -1.8167 H   0  0  0  0  0  0  0  0  0  0  0  0
   -4.9527   -0.6726   -1.2720 H   0  0  0  0  0  0  0  0  0  0  0  0
   -2.8921   -1.5530   -0.8140 H   0  0  0  0  0  0  0  0  0  0  0  0
   -2.1466   -0.1037   -1.5320 H   0  0  0  0  0  0  0  0  0  0  0  0
   -6.1416    1.0719   -2.0598 H   0  0  0  0  0  0  0  0  0  0  0  0
   -5.6264    2.7458   -1.8772 H   0  0  0  0  0  0  0  0  0  0  0  0
   -7.7324    3.5165   -1.0138 H   0  0  0  0  0  0  0  0  0  0  0  0
   -7.8865    2.8661   -2.6392 H   0  0  0  0  0  0  0  0  0  0  0  0
  -10.0696    3.4642   -0.8062 H   0  0  0  0  0  0  0  0  0  0  0  0
  -11.0320    1.9551   -1.1630 H   0  0  0  0  0  0  0  0  0  0  0  0
  -10.1842    2.7667   -2.5215 H   0  0  0  0  0  0  0  0  0  0  0  0
   -8.3690   -0.3053   -1.8528 H   0  0  0  0  0  0  0  0  0  0  0  0
  -10.0977    0.1977   -1.9907 H   0  0  0  0  0  0  0  0  0  0  0  0
   -8.8933    0.8433   -3.1827 H   0  0  0  0  0  0  0  0  0  0  0  0
   -9.9886    0.6271    0.2178 H   0  0  0  0  0  0  0  0  0  0  0  0
   -9.0962    1.9387    0.9950 H   0  0  0  0  0  0  0  0  0  0  0  0
   -8.2557    0.3823    0.3982 H   0  0  0  0  0  0  0  0  0  0  0  0
    6.0485   -2.3665   -0.2740 H   0  0  0  0  0  0  0  0  0  0  0  0
    7.2476   -1.6347   -2.1776 H   0  0  0  0  0  0  0  0  0  0  0  0
    8.4849    0.1239   -3.3391 H   0  0  0  0  0  0  0  0  0  0  0  0
   10.1555    3.0587   -1.8280 H   0  0  0  0  0  0  0  0  0  0  0  0
    8.8634    2.8171   -3.0367 H   0  0  0  0  0  0  0  0  0  0  0  0
   10.3128    1.7832   -3.0755 H   0  0  0  0  0  0  0  0  0  0  0  0
    7.8470    0.4547    1.4972 H   0  0  0  0  0  0  0  0  0  0  0  0
  1  2  1  0
  2  3  1  0
  3  4  1  0
  4  5  3  0
  5  6  1  0
  6  7  2  0
  7  8  1  0
  8  9  2  0
  9 10  1  0
 10 11  2  0
 11 12  1  0
  9 13  1  0
 13 14  1  0
 14 15  1  0
 15 16  1  0
 16 17  1  0
 17 18  1  0
 16 19  1  0
 19 20  2  0
 19 21  1  0
 21 22  1  0
 22 23  1  0
 23 24  1  0
 23 25  1  0
 23 26  1  0
  2 27  1  0
 27 28  2  0
 27 29  1  0
 29 30  1  0
 30 31  2  0
 31 32  1  0
 32 33  2  0
 33 34  1  0
 33 35  1  0
 35 36  2  0
 35 37  1  0
 37 38  1  0
 37 39  1  0
 37 40  1  0
 11  6  1  0
 18 13  1  0
 36 30  1  0
  1 41  1  0
  1 42  1  0
  1 43  1  0
  3 44  1  0
  3 45  1  0
  7 46  1  0
  8 47  1  0
 10 48  1  0
 13 49  1  0
 14 50  1  0
 14 51  1  0
 15 52  1  0
 15 53  1  0
 17 54  1  0
 17 55  1  0
 18 56  1  0
 18 57  1  0
 21 58  1  0
 21 59  1  0
 22 60  1  0
 22 61  1  0
 24 62  1  0
 24 63  1  0
 24 64  1  0
 25 65  1  0
 25 66  1  0
 25 67  1  0
 26 68  1  0
 26 69  1  0
 26 70  1  0
 29 71  1  0
 31 72  1  0
 32 73  1  0
 34 74  1  0
 34 75  1  0
 34 76  1  0
 36 77  1  0
M  END
$$$$
[H]c1nc(N([H])[H])c2c(-c3c([H])c([H])c(C(=O)N([H])c4nc([H])c([H])c(C([H])(F)F)c4[H])c([H])c3OC([H])([H])[H])c([H])n(C3([H])C([H])([H])C3([H])[H])c2n1
     RDKit          3D

 53 57  0  0  0  0  0  0  0  0999 V2000
   -1.2808   -4.0133   -0.6387 C   0  0  0  0  0  0  0  0  0  0  0  0
   -1.6202   -2.7041   -0.3448 O   0  0  0  0  0  0  0  0  0  0  0  0
   -0.8045   -1.6365   -0.1217 C   0  0  0  0  0  0  0  0  0  0  0  0
    0.5849   -1.7928   -0.1802 C   0  0  0  0  0  0  0  0  0  0  0  0
    1.4125   -0.7116    0.0452 C   0  0  0  0  0  0  0  0  0  0  0  0
    0.9125    0.5399    0.3315 C   0  0  0  0  0  0  0  0  0  0  0  0
   -0.4582    0.6547    0.3810 C   0  0  0  0  0  0  0  0  0  0  0  0
   -1.3153   -0.3996    0.1619 C   0  0  0  0  0  0  0  0  0  0  0  0
   -2.7324   -0.1264    0.1732 C   0  0  0  0  0  0  0  0  0  0  0  0
   -3.6147   -0.1996   -0.8990 C   0  0  0  0  0  0  0  0  0  0  0  0
   -4.8343    0.2224   -0.5571 N   0  0  0  0  0  0  0  0  0  0  0  0
   -6.0296    0.3170   -1.3860 C   0  0  0  0  0  0  0  0  0  0  0  0
   -5.9829    1.4081   -2.3959 C   0  0  0  0  0  0  0  0  0  0  0  0
   -6.8888    1.5169   -1.1905 C   0  0  0  0  0  0  0  0  0  0  0  0
   -4.7515    0.5696    0.7418 C   0  0  0  0  0  0  0  0  0  0  0  0
   -5.6616    1.0454    1.5998 N   0  0  0  0  0  0  0  0  0  0  0  0
   -5.4032    1.3278    2.8781 C   0  0  0  0  0  0  0  0  0  0  0  0
   -4.1673    1.1241    3.3298 N   0  0  0  0  0  0  0  0  0  0  0  0
   -3.1618    0.6462    2.5547 C   0  0  0  0  0  0  0  0  0  0  0  0
   -1.8721    0.4139    3.0995 N   0  0  0  0  0  0  0  0  0  0  0  0
   -3.4589    0.3655    1.2347 C   0  0  0  0  0  0  0  0  0  0  0  0
    2.8624   -0.8839    0.0110 C   0  0  0  0  0  0  0  0  0  0  0  0
    3.3642   -2.0098    0.2411 O   0  0  0  0  0  0  0  0  0  0  0  0
    3.7278    0.2048   -0.2786 N   0  0  0  0  0  0  0  0  0  0  0  0
    5.1325    0.0395   -0.2977 C   0  0  0  0  0  0  0  0  0  0  0  0
    5.9572    1.0907   -0.5911 C   0  0  0  0  0  0  0  0  0  0  0  0
    7.3460    0.9186   -0.5929 C   0  0  0  0  0  0  0  0  0  0  0  0
    7.8737   -0.3162   -0.2974 C   0  0  0  0  0  0  0  0  0  0  0  0
    7.0032   -1.3461   -0.0078 C   0  0  0  0  0  0  0  0  0  0  0  0
    5.6611   -1.1519   -0.0129 N   0  0  0  0  0  0  0  0  0  0  0  0
    8.2292    2.0598   -0.9193 C   0  0  0  0  0  0  0  0  0  0  0  0
    9.2749    1.6907   -1.7336 F   0  0  0  0  0  0  0  0  0  0  0  0
    8.7688    2.6267    0.2303 F   0  0  0  0  0  0  0  0  0  0  0  0
   -1.8213   -4.7434    0.0323 H   0  0  0  0  0  0  0  0  0  0  0  0
   -0.2328   -4.2900   -0.5971 H   0  0  0  0  0  0  0  0  0  0  0  0
   -1.6769   -4.2539   -1.6606 H   0  0  0  0  0  0  0  0  0  0  0  0
    1.0218   -2.7511   -0.4025 H   0  0  0  0  0  0  0  0  0  0  0  0
    1.5726    1.3836    0.5097 H   0  0  0  0  0  0  0  0  0  0  0  0
   -0.8373    1.6606    0.5954 H   0  0  0  0  0  0  0  0  0  0  0  0
   -3.3247   -0.5607   -1.8721 H   0  0  0  0  0  0  0  0  0  0  0  0
   -6.5327   -0.6038   -1.6995 H   0  0  0  0  0  0  0  0  0  0  0  0
   -6.4952    1.2942   -3.3738 H   0  0  0  0  0  0  0  0  0  0  0  0
   -5.0859    2.0594   -2.4549 H   0  0  0  0  0  0  0  0  0  0  0  0
   -6.6053    2.3446   -0.5076 H   0  0  0  0  0  0  0  0  0  0  0  0
   -7.9786    1.4527   -1.3685 H   0  0  0  0  0  0  0  0  0  0  0  0
   -6.2154    1.7092    3.4877 H   0  0  0  0  0  0  0  0  0  0  0  0
   -1.4970   -0.5816    3.1145 H   0  0  0  0  0  0  0  0  0  0  0  0
   -1.2512    1.1286    3.4903 H   0  0  0  0  0  0  0  0  0  0  0  0
    3.3076    1.1495   -0.4760 H   0  0  0  0  0  0  0  0  0  0  0  0
    5.5765    2.0696   -0.8275 H   0  0  0  0  0  0  0  0  0  0  0  0
    8.9558   -0.4808   -0.2909 H   0  0  0  0  0  0  0  0  0  0  0  0
    7.4130   -2.3384    0.2266 H   0  0  0  0  0  0  0  0  0  0  0  0
    7.6342    2.8610   -1.3900 H   0  0  0  0  0  0  0  0  0  0  0  0
  1  2  1  0
  2  3  1  0
  3  4  2  0
  4  5  1  0
  5  6  2  0
  6  7  1  0
  7  8  2  0
  8  9  1  0
  9 10  2  0
 10 11  1  0
 11 12  1  0
 12 13  1  0
 13 14  1  0
 11 15  1  0
 15 16  2  0
 16 17  1  0
 17 18  2  0
 18 19  1  0
 19 20  1  0
 19 21  2  0
  5 22  1  0
 22 23  2  0
 22 24  1  0
 24 25  1  0
 25 26  2  0
 26 27  1  0
 27 28  2  0
 28 29  1  0
 29 30  2  0
 27 31  1  0
 31 32  1  0
 31 33  1  0
  8  3  1  0
 21  9  1  0
 30 25  1  0
 14 12  1  0
 21 15  1  0
  1 34  1  0
  1 35  1  0
  1 36  1  0
  4 37  1  0
  6 38  1  0
  7 39  1  0
 10 40  1  0
 12 41  1  0
 13 42  1  0
 13 43  1  0
 14 44  1  0
 14 45  1  0
 17 46  1  0
 20 47  1  0
 20 48  1  0
 24 49  1  0
 26 50  1  0
 28 51  1  0
 29 52  1  0
 31 53  1  0
M  END
$$$$
