[H]Cl.[H]c1nc(N([H])c2c([H])c([H])c(N3C([H])([H])C([H])([H])[C@]([H])(N(C([H])([H])[H])C([H])([H])[H])C3([H])[H])c([H])c2[H])nc2c1C(=O)N([H])C([H])([H])C2([H])[H]
     RDKit          3D

 52 54  0  0  0  0  0  0  0  0999 V2000
    0.6866    0.0000    0.0000 Cl  0  0  0  0  0  0  0  0  0  0  0  0
   -5.9690    0.2929   -1.6474 C   0  0  0  0  0  0  0  0  0  0  0  0
   -5.4309   -0.6260   -0.6882 N   0  0  0  0  0  0  0  0  0  0  0  0
   -6.0206   -1.9283   -0.7273 C   0  0  0  0  0  0  0  0  0  0  0  0
   -5.3905   -0.0446    0.6393 C   0  0  1  0  0  0  0  0  0  0  0  0
   -4.8389   -1.0064    1.6389 C   0  0  0  0  0  0  0  0  0  0  0  0
   -3.6235   -0.3034    2.2592 C   0  0  0  0  0  0  0  0  0  0  0  0
   -3.1831    0.5193    1.1556 N   0  0  0  0  0  0  0  0  0  0  0  0
   -4.3873    1.0945    0.5847 C   0  0  0  0  0  0  0  0  0  0  0  0
   -1.8382    0.7138    0.7321 C   0  0  0  0  0  0  0  0  0  0  0  0
   -0.7934    0.1150    1.3922 C   0  0  0  0  0  0  0  0  0  0  0  0
    0.5222    0.3002    0.9823 C   0  0  0  0  0  0  0  0  0  0  0  0
    0.8649    1.0787   -0.0902 C   0  0  0  0  0  0  0  0  0  0  0  0
    2.1641    1.3042   -0.5857 N   0  0  0  0  0  0  0  0  0  0  0  0
    3.3405    0.5769   -0.2783 C   0  0  0  0  0  0  0  0  0  0  0  0
    3.4243   -0.4727    0.5429 N   0  0  0  0  0  0  0  0  0  0  0  0
    4.5962   -1.0858    0.7585 C   0  0  0  0  0  0  0  0  0  0  0  0
    5.7699   -0.6829    0.1596 C   0  0  0  0  0  0  0  0  0  0  0  0
    7.0444   -1.3711    0.3940 C   0  0  0  0  0  0  0  0  0  0  0  0
    7.0953   -2.3419    1.1619 O   0  0  0  0  0  0  0  0  0  0  0  0
    8.1892   -0.8625   -0.3008 N   0  0  0  0  0  0  0  0  0  0  0  0
    7.9026   -0.2167   -1.5632 C   0  0  0  0  0  0  0  0  0  0  0  0
    6.9158    0.9068   -1.3660 C   0  0  0  0  0  0  0  0  0  0  0  0
    5.6891    0.3985   -0.6873 C   0  0  0  0  0  0  0  0  0  0  0  0
    4.4950    0.9786   -0.8714 N   0  0  0  0  0  0  0  0  0  0  0  0
   -0.2194    1.6804   -0.7486 C   0  0  0  0  0  0  0  0  0  0  0  0
   -1.5215    1.5032   -0.3507 C   0  0  0  0  0  0  0  0  0  0  0  0
   -0.6866    0.0000    0.0000 H   0  0  0  0  0  0  0  0  0  0  0  0
   -6.5151   -0.3105   -2.4209 H   0  0  0  0  0  0  0  0  0  0  0  0
   -5.1952    0.8669   -2.1914 H   0  0  0  0  0  0  0  0  0  0  0  0
   -6.6707    1.0301   -1.1973 H   0  0  0  0  0  0  0  0  0  0  0  0
   -6.8044   -2.0839    0.0358 H   0  0  0  0  0  0  0  0  0  0  0  0
   -6.4476   -2.0663   -1.7637 H   0  0  0  0  0  0  0  0  0  0  0  0
   -5.2270   -2.6908   -0.6436 H   0  0  0  0  0  0  0  0  0  0  0  0
   -6.4001    0.3283    0.9484 H   0  0  0  0  0  0  0  0  0  0  0  0
   -5.5448   -1.2542    2.4571 H   0  0  0  0  0  0  0  0  0  0  0  0
   -4.4508   -1.9384    1.1888 H   0  0  0  0  0  0  0  0  0  0  0  0
   -2.9176   -1.0626    2.5877 H   0  0  0  0  0  0  0  0  0  0  0  0
   -4.0294    0.3100    3.0926 H   0  0  0  0  0  0  0  0  0  0  0  0
   -4.2251    1.4481   -0.4457 H   0  0  0  0  0  0  0  0  0  0  0  0
   -4.6829    1.9256    1.2678 H   0  0  0  0  0  0  0  0  0  0  0  0
   -1.0016   -0.5122    2.2485 H   0  0  0  0  0  0  0  0  0  0  0  0
    1.2568   -0.1929    1.5598 H   0  0  0  0  0  0  0  0  0  0  0  0
    2.2797    2.1264   -1.2728 H   0  0  0  0  0  0  0  0  0  0  0  0
    4.6900   -1.9478    1.4271 H   0  0  0  0  0  0  0  0  0  0  0  0
    9.1314   -0.9704    0.1028 H   0  0  0  0  0  0  0  0  0  0  0  0
    7.3962   -0.9443   -2.2620 H   0  0  0  0  0  0  0  0  0  0  0  0
    8.8236    0.1285   -2.0756 H   0  0  0  0  0  0  0  0  0  0  0  0
    7.4001    1.6396   -0.6810 H   0  0  0  0  0  0  0  0  0  0  0  0
    6.6300    1.3438   -2.3284 H   0  0  0  0  0  0  0  0  0  0  0  0
    0.0195    2.3126   -1.6154 H   0  0  0  0  0  0  0  0  0  0  0  0
   -2.3127    1.9937   -0.8990 H   0  0  0  0  0  0  0  0  0  0  0  0
  2  3  1  0
  3  4  1  0
  3  5  1  0
  5  6  1  0
  6  7  1  0
  7  8  1  0
  8  9  1  0
  8 10  1  0
 10 11  2  0
 11 12  1  0
 12 13  2  0
 13 14  1  0
 14 15  1  0
 15 16  2  0
 16 17  1  0
 17 18  2  0
 18 19  1  0
 19 20  2  0
 19 21  1  0
 21 22  1  0
 22 23  1  0
 23 24  1  0
 24 25  2  0
 13 26  1  0
 26 27  2  0
  9  5  1  0
 27 10  1  0
 25 15  1  0
 24 18  1  0
  1 28  1  0
  2 29  1  0
  2 30  1  0
  2 31  1  0
  4 32  1  0
  4 33  1  0
  4 34  1  0
  5 35  1  1
  6 36  1  0
  6 37  1  0
  7 38  1  0
  7 39  1  0
  9 40  1  0
  9 41  1  0
 11 42  1  0
 12 43  1  0
 14 44  1  0
 17 45  1  0
 21 46  1  0
 22 47  1  0
 22 48  1  0
 23 49  1  0
 23 50  1  0
 26 51  1  0
 27 52  1  0
M  END
$$$$
[H]c1oc(-c2c([H])c([H])c3nc([H])n(C([H])([H])C(=O)N([H])C([H])([H])C([H])([H])c4c([H])c([H])c(Cl)c(Cl)c4[H])c3c2[H])nc1C(=O)C([H])([H])[H]
     RDKit          3D

 49 52  0  0  0  0  0  0  0  0999 V2000
    8.7177    0.1053   -0.9049 C   0  0  0  0  0  0  0  0  0  0  0  0
    7.9324   -1.1483   -0.7152 C   0  0  0  0  0  0  0  0  0  0  0  0
    8.4555   -2.2792   -0.8027 O   0  0  0  0  0  0  0  0  0  0  0  0
    6.5145   -1.0454   -0.4165 C   0  0  0  0  0  0  0  0  0  0  0  0
    5.6478   -2.0868   -0.1757 C   0  0  0  0  0  0  0  0  0  0  0  0
    4.4672   -1.5781    0.0726 O   0  0  0  0  0  0  0  0  0  0  0  0
    4.4863   -0.2820    0.0149 C   0  0  0  0  0  0  0  0  0  0  0  0
    5.7641    0.0791   -0.2915 N   0  0  0  0  0  0  0  0  0  0  0  0
    3.3613    0.6081    0.2369 C   0  0  0  0  0  0  0  0  0  0  0  0
    3.4677    1.9865    0.0909 C   0  0  0  0  0  0  0  0  0  0  0  0
    2.3809    2.8164    0.3253 C   0  0  0  0  0  0  0  0  0  0  0  0
    1.1579    2.2814    0.7127 C   0  0  0  0  0  0  0  0  0  0  0  0
   -0.0490    2.8280    1.0137 N   0  0  0  0  0  0  0  0  0  0  0  0
   -0.8937    1.8219    1.3427 C   0  0  0  0  0  0  0  0  0  0  0  0
   -0.2281    0.6547    1.2503 N   0  0  0  0  0  0  0  0  0  0  0  0
   -0.7246   -0.6716    1.5163 C   0  0  0  0  0  0  0  0  0  0  0  0
   -1.3476   -1.3491    0.3789 C   0  0  0  0  0  0  0  0  0  0  0  0
   -0.6409   -1.8676   -0.5079 O   0  0  0  0  0  0  0  0  0  0  0  0
   -2.7855   -1.4107    0.3004 N   0  0  0  0  0  0  0  0  0  0  0  0
   -3.5006   -2.0483   -0.7655 C   0  0  0  0  0  0  0  0  0  0  0  0
   -4.9766   -1.9542   -0.5324 C   0  0  0  0  0  0  0  0  0  0  0  0
   -5.5211   -0.6003   -0.4280 C   0  0  0  0  0  0  0  0  0  0  0  0
   -5.8561    0.1637   -1.5379 C   0  0  0  0  0  0  0  0  0  0  0  0
   -6.3846    1.4290   -1.4058 C   0  0  0  0  0  0  0  0  0  0  0  0
   -6.5888    1.9565   -0.1374 C   0  0  0  0  0  0  0  0  0  0  0  0
   -7.2473    3.5491    0.1365 Cl  0  0  0  0  0  0  0  0  0  0  0  0
   -6.2660    1.2203    0.9861 C   0  0  0  0  0  0  0  0  0  0  0  0
   -6.5041    1.8401    2.6051 Cl  0  0  0  0  0  0  0  0  0  0  0  0
   -5.7378   -0.0470    0.8141 C   0  0  0  0  0  0  0  0  0  0  0  0
    1.0488    0.9207    0.8583 C   0  0  0  0  0  0  0  0  0  0  0  0
    2.1383    0.1108    0.6211 C   0  0  0  0  0  0  0  0  0  0  0  0
    8.6859    0.6069    0.1055 H   0  0  0  0  0  0  0  0  0  0  0  0
    8.1805    0.7622   -1.6170 H   0  0  0  0  0  0  0  0  0  0  0  0
    9.7657   -0.1026   -1.2082 H   0  0  0  0  0  0  0  0  0  0  0  0
    5.8325   -3.1440   -0.1734 H   0  0  0  0  0  0  0  0  0  0  0  0
    4.4000    2.4390   -0.2093 H   0  0  0  0  0  0  0  0  0  0  0  0
    2.4431    3.8959    0.2164 H   0  0  0  0  0  0  0  0  0  0  0  0
   -1.9431    1.9785    1.6326 H   0  0  0  0  0  0  0  0  0  0  0  0
    0.1250   -1.2952    1.9101 H   0  0  0  0  0  0  0  0  0  0  0  0
   -1.4745   -0.5804    2.3635 H   0  0  0  0  0  0  0  0  0  0  0  0
   -3.2929   -0.9541    1.0885 H   0  0  0  0  0  0  0  0  0  0  0  0
   -3.2608   -3.1536   -0.7790 H   0  0  0  0  0  0  0  0  0  0  0  0
   -3.2070   -1.6051   -1.7451 H   0  0  0  0  0  0  0  0  0  0  0  0
   -5.5596   -2.5783   -1.2612 H   0  0  0  0  0  0  0  0  0  0  0  0
   -5.1624   -2.4724    0.4602 H   0  0  0  0  0  0  0  0  0  0  0  0
   -5.6878   -0.2688   -2.4946 H   0  0  0  0  0  0  0  0  0  0  0  0
   -6.6513    2.0400   -2.2443 H   0  0  0  0  0  0  0  0  0  0  0  0
   -5.5093   -0.5938    1.7245 H   0  0  0  0  0  0  0  0  0  0  0  0
    2.0280   -0.9775    0.7416 H   0  0  0  0  0  0  0  0  0  0  0  0
  1  2  1  0
  2  3  2  0
  2  4  1  0
  4  5  2  0
  5  6  1  0
  6  7  1  0
  7  8  2  0
  7  9  1  0
  9 10  2  0
 10 11  1  0
 11 12  2  0
 12 13  1  0
 13 14  2  0
 14 15  1  0
 15 16  1  0
 16 17  1  0
 17 18  2  0
 17 19  1  0
 19 20  1  0
 20 21  1  0
 21 22  1  0
 22 23  2  0
 23 24  1  0
 24 25  2  0
 25 26  1  0
 25 27  1  0
 27 28  1  0
 27 29  2  0
 15 30  1  0
 30 31  2  0
  8  4  1  0
 31  9  1  0
 30 12  1  0
 29 22  1  0
  1 32  1  0
  1 33  1  0
  1 34  1  0
  5 35  1  0
 10 36  1  0
 11 37  1  0
 14 38  1  0
 16 39  1  0
 16 40  1  0
 19 41  1  0
 20 42  1  0
 20 43  1  0
 21 44  1  0
 21 45  1  0
 23 46  1  0
 24 47  1  0
 29 48  1  0
 31 49  1  0
M  END
$$$$
[H]OC(=O)C([H])([H])[C@@]([H])(C(=O)O[H])N([H])C(=O)[C@@]([H])(N([H])C(=O)[C@@]([H])(N([H])C(=O)OC(C([H])([H])[H])(C([H])([H])[H])C([H])([H])[H])C([H])([H])C([H])([H])N([H])C(=O)N([H])c1c([H])c([H])c([N+](=O)[O-])c([H])c1[H])C([H])([H])c1c([H])c([H])c([H])c([N+](=O)[O-])c1[H]
     RDKit          3D

 84 85  0  0  0  0  0  0  0  0999 V2000
    4.2715    4.6175    1.7862 C   0  0  0  0  0  0  0  0  0  0  0  0
    3.2552    4.3422    0.7036 C   0  0  0  0  0  0  0  0  0  0  0  0
    3.8916    4.7205   -0.6168 C   0  0  0  0  0  0  0  0  0  0  0  0
    2.0772    5.2622    0.9166 C   0  0  0  0  0  0  0  0  0  0  0  0
    2.9063    2.9855    0.6699 O   0  0  0  0  0  0  0  0  0  0  0  0
    1.9647    2.5019   -0.2402 C   0  0  0  0  0  0  0  0  0  0  0  0
    1.4776    3.3409   -1.0109 O   0  0  0  0  0  0  0  0  0  0  0  0
    1.6128    1.1067   -0.2318 N   0  0  0  0  0  0  0  0  0  0  0  0
    0.6535    0.5625   -1.1261 C   0  0  1  0  0  0  0  0  0  0  0  0
    1.0489   -0.7212   -1.7201 C   0  0  0  0  0  0  0  0  0  0  0  0
    2.2759   -0.8813   -2.5277 C   0  0  0  0  0  0  0  0  0  0  0  0
    3.5489   -0.7027   -1.9384 N   0  0  0  0  0  0  0  0  0  0  0  0
    4.7418   -0.5367   -1.3914 C   0  0  0  0  0  0  0  0  0  0  0  0
    5.8516   -0.6870   -2.0747 O   0  0  0  0  0  0  0  0  0  0  0  0
    5.0176   -0.1868    0.0021 N   0  0  0  0  0  0  0  0  0  0  0  0
    6.3162   -0.0749    0.5023 C   0  0  0  0  0  0  0  0  0  0  0  0
    7.3389   -0.8941    0.1208 C   0  0  0  0  0  0  0  0  0  0  0  0
    8.6354   -0.6895    0.6191 C   0  0  0  0  0  0  0  0  0  0  0  0
    8.8698    0.3317    1.4867 C   0  0  0  0  0  0  0  0  0  0  0  0
    7.8415    1.1888    1.9003 C   0  0  0  0  0  0  0  0  0  0  0  0
    6.5924    0.9514    1.3867 C   0  0  0  0  0  0  0  0  0  0  0  0
   10.1739    0.5545    1.9809 N   0  0  0  0  0  0  0  0  0  0  0  0
   10.4067    1.5858    2.8479 O   0  0  0  0  0  0  0  0  0  0  0  0
   11.0826   -0.2068    1.5943 O   0  0  0  0  0  0  0  0  0  0  0  0
   -0.6682    0.3321   -0.3708 C   0  0  0  0  0  0  0  0  0  0  0  0
   -0.6304    0.6113    0.8460 O   0  0  0  0  0  0  0  0  0  0  0  0
   -1.7650   -0.1609   -1.0896 N   0  0  0  0  0  0  0  0  0  0  0  0
   -3.0760   -0.4437   -0.4543 C   0  0  1  0  0  0  0  0  0  0  0  0
   -4.1135    0.4305   -1.0279 C   0  0  0  0  0  0  0  0  0  0  0  0
   -5.4796    0.3140   -0.5504 C   0  0  0  0  0  0  0  0  0  0  0  0
   -5.9264    0.8965    0.6450 C   0  0  0  0  0  0  0  0  0  0  0  0
   -7.2509    0.8119    1.0233 C   0  0  0  0  0  0  0  0  0  0  0  0
   -8.1791    0.1501    0.2357 C   0  0  0  0  0  0  0  0  0  0  0  0
   -7.7790   -0.4347   -0.9493 C   0  0  0  0  0  0  0  0  0  0  0  0
   -6.4531   -0.3347   -1.2993 C   0  0  0  0  0  0  0  0  0  0  0  0
   -8.6726   -1.1221   -1.8069 N   0  0  0  0  0  0  0  0  0  0  0  0
   -8.2248   -1.6766   -2.9603 O   0  0  0  0  0  0  0  0  0  0  0  0
   -9.8633   -1.2086   -1.4963 O   0  0  0  0  0  0  0  0  0  0  0  0
   -3.2736   -1.8878   -0.4084 C   0  0  0  0  0  0  0  0  0  0  0  0
   -2.3882   -2.6443   -1.0137 O   0  0  0  0  0  0  0  0  0  0  0  0
   -4.2920   -2.6228    0.2104 N   0  0  0  0  0  0  0  0  0  0  0  0
   -4.3435   -4.0738    0.1810 C   0  0  1  0  0  0  0  0  0  0  0  0
   -4.3115   -4.6983    1.5590 C   0  0  0  0  0  0  0  0  0  0  0  0
   -5.4184   -4.3388    2.4251 C   0  0  0  0  0  0  0  0  0  0  0  0
   -5.4554   -4.8379    3.7360 O   0  0  0  0  0  0  0  0  0  0  0  0
   -6.3467   -3.6012    2.0652 O   0  0  0  0  0  0  0  0  0  0  0  0
   -5.3848   -4.6404   -0.6733 C   0  0  0  0  0  0  0  0  0  0  0  0
   -5.5126   -6.0264   -0.7917 O   0  0  0  0  0  0  0  0  0  0  0  0
   -6.1865   -3.9352   -1.3191 O   0  0  0  0  0  0  0  0  0  0  0  0
    5.2436    4.9351    1.3692 H   0  0  0  0  0  0  0  0  0  0  0  0
    3.9391    5.4383    2.4797 H   0  0  0  0  0  0  0  0  0  0  0  0
    4.4184    3.7359    2.4390 H   0  0  0  0  0  0  0  0  0  0  0  0
    4.4318    3.8818   -1.0994 H   0  0  0  0  0  0  0  0  0  0  0  0
    3.1498    5.1030   -1.3384 H   0  0  0  0  0  0  0  0  0  0  0  0
    4.6287    5.5594   -0.4725 H   0  0  0  0  0  0  0  0  0  0  0  0
    2.4775    6.1906    1.3768 H   0  0  0  0  0  0  0  0  0  0  0  0
    1.3669    4.8455    1.6858 H   0  0  0  0  0  0  0  0  0  0  0  0
    1.5649    5.5702   -0.0169 H   0  0  0  0  0  0  0  0  0  0  0  0
    2.0626    0.4739    0.4518 H   0  0  0  0  0  0  0  0  0  0  0  0
    0.4158    1.3113   -1.8996 H   0  0  0  0  0  0  0  0  0  0  0  0
    0.1936   -1.1608   -2.3459 H   0  0  0  0  0  0  0  0  0  0  0  0
    1.1215   -1.5365   -0.9051 H   0  0  0  0  0  0  0  0  0  0  0  0
    2.2232   -2.0001   -2.8645 H   0  0  0  0  0  0  0  0  0  0  0  0
    2.1156   -0.2933   -3.4890 H   0  0  0  0  0  0  0  0  0  0  0  0
    4.1352   -0.9472   -3.1594 H   0  0  0  0  0  0  0  0  0  0  0  0
    4.2412   -0.0301    0.6533 H   0  0  0  0  0  0  0  0  0  0  0  0
    7.2195   -1.7276   -0.5349 H   0  0  0  0  0  0  0  0  0  0  0  0
    9.4632   -1.3251    0.3355 H   0  0  0  0  0  0  0  0  0  0  0  0
    8.0810    1.9705    2.5885 H   0  0  0  0  0  0  0  0  0  0  0  0
    5.7686    1.6105    1.6937 H   0  0  0  0  0  0  0  0  0  0  0  0
   -1.6656   -0.3393   -2.1111 H   0  0  0  0  0  0  0  0  0  0  0  0
   -2.9409   -0.1287    0.6306 H   0  0  0  0  0  0  0  0  0  0  0  0
   -3.7871    1.4974   -0.8093 H   0  0  0  0  0  0  0  0  0  0  0  0
   -4.1617    0.3867   -2.1513 H   0  0  0  0  0  0  0  0  0  0  0  0
   -5.1988    1.4031    1.2463 H   0  0  0  0  0  0  0  0  0  0  0  0
   -7.5609    1.2808    1.9502 H   0  0  0  0  0  0  0  0  0  0  0  0
   -9.2308    0.0730    0.5207 H   0  0  0  0  0  0  0  0  0  0  0  0
   -6.1423   -0.8029   -2.2476 H   0  0  0  0  0  0  0  0  0  0  0  0
   -5.0399   -2.1224    0.7255 H   0  0  0  0  0  0  0  0  0  0  0  0
   -3.3634   -4.3736   -0.3107 H   0  0  0  0  0  0  0  0  0  0  0  0
   -4.2434   -5.8238    1.4507 H   0  0  0  0  0  0  0  0  0  0  0  0
   -3.3144   -4.4389    2.0356 H   0  0  0  0  0  0  0  0  0  0  0  0
   -6.3438   -4.9629    4.2277 H   0  0  0  0  0  0  0  0  0  0  0  0
   -6.1261   -6.5829   -0.1847 H   0  0  0  0  0  0  0  0  0  0  0  0
  1  2  1  0
  2  3  1  0
  2  4  1  0
  2  5  1  0
  5  6  1  0
  6  7  2  0
  6  8  1  0
  8  9  1  0
  9 10  1  0
 10 11  1  0
 11 12  1  0
 12 13  1  0
 13 14  2  0
 13 15  1  0
 15 16  1  0
 16 17  2  0
 17 18  1  0
 18 19  2  0
 19 20  1  0
 20 21  2  0
 19 22  1  0
 22 23  1  0
 22 24  2  0
  9 25  1  0
 25 26  2  0
 25 27  1  0
 27 28  1  0
 28 29  1  0
 29 30  1  0
 30 31  2  0
 31 32  1  0
 32 33  2  0
 33 34  1  0
 34 35  2  0
 34 36  1  0
 36 37  1  0
 36 38  2  0
 28 39  1  0
 39 40  2  0
 39 41  1  0
 41 42  1  0
 42 43  1  0
 43 44  1  0
 44 45  1  0
 44 46  2  0
 42 47  1  0
 47 48  1  0
 47 49  2  0
 21 16  1  0
 35 30  1  0
  1 50  1  0
  1 51  1  0
  1 52  1  0
  3 53  1  0
  3 54  1  0
  3 55  1  0
  4 56  1  0
  4 57  1  0
  4 58  1  0
  8 59  1  0
  9 60  1  6
 10 61  1  0
 10 62  1  0
 11 63  1  0
 11 64  1  0
 12 65  1  0
 15 66  1  0
 17 67  1  0
 18 68  1  0
 20 69  1  0
 21 70  1  0
 27 71  1  0
 28 72  1  1
 29 73  1  0
 29 74  1  0
 31 75  1  0
 32 76  1  0
 33 77  1  0
 35 78  1  0
 41 79  1  0
 42 80  1  6
 43 81  1  0
 43 82  1  0
 45 83  1  0
 48 84  1  0
M  CHG  4  22   1  23  -1  36   1  37  -1
M  END
$$$$
[H]c1c([H])c([H])c(C([H])([H])[C@@]([H])(C(=O)N2C([H])([H])C([H])([H])C3(c4c([H])c(F)c([H])c([H])c4N([H])C(=O)C([H])([H])C3([H])[H])C([H])([H])C2([H])[H])N([H])[H])c(-c2c([H])c([H])c([H])c3c([H])c([H])c([H])c([H])c23)c1[H]
     RDKit          3D

 71 76  0  0  0  0  0  0  0  0999 V2000
    1.1083   -0.7099    1.7243 N   0  0  0  0  0  0  0  0  0  0  0  0
    1.2713    0.6871    1.6494 C   0  0  1  0  0  0  0  0  0  0  0  0
    2.5630    1.0904    0.9570 C   0  0  0  0  0  0  0  0  0  0  0  0
    3.7123    0.5436    1.6812 C   0  0  0  0  0  0  0  0  0  0  0  0
    4.0707    1.1619    2.8823 C   0  0  0  0  0  0  0  0  0  0  0  0
    5.0620    0.6482    3.6665 C   0  0  0  0  0  0  0  0  0  0  0  0
    5.7296   -0.4944    3.2860 C   0  0  0  0  0  0  0  0  0  0  0  0
    5.4034   -1.1155    2.1219 C   0  0  0  0  0  0  0  0  0  0  0  0
    4.3795   -0.5804    1.3127 C   0  0  0  0  0  0  0  0  0  0  0  0
    4.2206   -1.2795    0.0405 C   0  0  0  0  0  0  0  0  0  0  0  0
    3.5943   -2.4882   -0.0757 C   0  0  0  0  0  0  0  0  0  0  0  0
    3.4663   -3.1669   -1.2766 C   0  0  0  0  0  0  0  0  0  0  0  0
    3.9893   -2.6172   -2.4319 C   0  0  0  0  0  0  0  0  0  0  0  0
    4.6319   -1.3961   -2.3587 C   0  0  0  0  0  0  0  0  0  0  0  0
    5.1591   -0.8817   -3.5309 C   0  0  0  0  0  0  0  0  0  0  0  0
    5.8167    0.3265   -3.4593 C   0  0  0  0  0  0  0  0  0  0  0  0
    5.9373    0.9894   -2.2503 C   0  0  0  0  0  0  0  0  0  0  0  0
    5.3948    0.4442   -1.0907 C   0  0  0  0  0  0  0  0  0  0  0  0
    4.7415   -0.7441   -1.1353 C   0  0  0  0  0  0  0  0  0  0  0  0
    0.1189    1.4260    1.0855 C   0  0  0  0  0  0  0  0  0  0  0  0
    0.3538    2.6534    0.8045 O   0  0  0  0  0  0  0  0  0  0  0  0
   -1.1749    0.9542    0.8269 N   0  0  0  0  0  0  0  0  0  0  0  0
   -2.1971    1.8373    0.2243 C   0  0  0  0  0  0  0  0  0  0  0  0
   -3.0263    1.0882   -0.7760 C   0  0  0  0  0  0  0  0  0  0  0  0
   -3.8446   -0.0357   -0.1146 C   0  0  0  0  0  0  0  0  0  0  0  0
   -3.6661   -1.2531   -0.9646 C   0  0  0  0  0  0  0  0  0  0  0  0
   -3.5165   -1.0917   -2.4220 C   0  0  0  0  0  0  0  0  0  0  0  0
   -4.3549   -0.0530   -3.0650 C   0  0  0  0  0  0  0  0  0  0  0  0
   -3.9570    0.4082   -4.1799 O   0  0  0  0  0  0  0  0  0  0  0  0
   -5.5687    0.4744   -2.5430 N   0  0  0  0  0  0  0  0  0  0  0  0
   -6.0059    0.6909   -1.2102 C   0  0  0  0  0  0  0  0  0  0  0  0
   -7.2994    1.1551   -1.0862 C   0  0  0  0  0  0  0  0  0  0  0  0
   -7.8139    1.3807    0.1725 C   0  0  0  0  0  0  0  0  0  0  0  0
   -7.0468    1.1454    1.2929 C   0  0  0  0  0  0  0  0  0  0  0  0
   -7.5440    1.3649    2.5356 F   0  0  0  0  0  0  0  0  0  0  0  0
   -5.7330    0.6742    1.1786 C   0  0  0  0  0  0  0  0  0  0  0  0
   -5.2261    0.4528   -0.0665 C   0  0  0  0  0  0  0  0  0  0  0  0
   -3.2122   -0.2136    1.2340 C   0  0  0  0  0  0  0  0  0  0  0  0
   -1.6782   -0.3770    1.1081 C   0  0  0  0  0  0  0  0  0  0  0  0
    1.7510   -1.1906    2.3850 H   0  0  0  0  0  0  0  0  0  0  0  0
    0.9076   -1.2217    0.8651 H   0  0  0  0  0  0  0  0  0  0  0  0
    1.3343    1.0569    2.7427 H   0  0  0  0  0  0  0  0  0  0  0  0
    2.5383    0.7972   -0.0995 H   0  0  0  0  0  0  0  0  0  0  0  0
    2.6140    2.2142    1.0630 H   0  0  0  0  0  0  0  0  0  0  0  0
    3.5283    2.0725    3.1714 H   0  0  0  0  0  0  0  0  0  0  0  0
    5.3429    1.1358    4.6116 H   0  0  0  0  0  0  0  0  0  0  0  0
    6.5164   -0.8651    3.9541 H   0  0  0  0  0  0  0  0  0  0  0  0
    5.9393   -2.0197    1.8321 H   0  0  0  0  0  0  0  0  0  0  0  0
    3.1822   -2.9187    0.8423 H   0  0  0  0  0  0  0  0  0  0  0  0
    2.9624   -4.1149   -1.3027 H   0  0  0  0  0  0  0  0  0  0  0  0
    3.9136   -3.1095   -3.3930 H   0  0  0  0  0  0  0  0  0  0  0  0
    5.0538   -1.4184   -4.4721 H   0  0  0  0  0  0  0  0  0  0  0  0
    6.2418    0.7538   -4.3711 H   0  0  0  0  0  0  0  0  0  0  0  0
    6.4513    1.9358   -2.1858 H   0  0  0  0  0  0  0  0  0  0  0  0
    5.5086    0.9812   -0.1603 H   0  0  0  0  0  0  0  0  0  0  0  0
   -2.7279    2.4440    0.9445 H   0  0  0  0  0  0  0  0  0  0  0  0
   -1.5866    2.5561   -0.3932 H   0  0  0  0  0  0  0  0  0  0  0  0
   -2.3147    0.6940   -1.5292 H   0  0  0  0  0  0  0  0  0  0  0  0
   -3.6709    1.8190   -1.2865 H   0  0  0  0  0  0  0  0  0  0  0  0
   -2.8786   -1.9414   -0.6026 H   0  0  0  0  0  0  0  0  0  0  0  0
   -4.6112   -1.8823   -0.8371 H   0  0  0  0  0  0  0  0  0  0  0  0
   -3.7354   -2.1075   -2.8839 H   0  0  0  0  0  0  0  0  0  0  0  0
   -2.4330   -0.9510   -2.6599 H   0  0  0  0  0  0  0  0  0  0  0  0
   -6.2771    0.7582   -3.2958 H   0  0  0  0  0  0  0  0  0  0  0  0
   -7.8493    1.3198   -2.0027 H   0  0  0  0  0  0  0  0  0  0  0  0
   -8.8236    1.7435    0.2459 H   0  0  0  0  0  0  0  0  0  0  0  0
   -5.1490    0.4828    2.0457 H   0  0  0  0  0  0  0  0  0  0  0  0
   -3.2697    0.7270    1.8659 H   0  0  0  0  0  0  0  0  0  0  0  0
   -3.5766   -1.0975    1.7531 H   0  0  0  0  0  0  0  0  0  0  0  0
   -1.3826   -1.0064    0.2796 H   0  0  0  0  0  0  0  0  0  0  0  0
   -1.3586   -0.7463    2.1208 H   0  0  0  0  0  0  0  0  0  0  0  0
  1  2  1  0
  2  3  1  0
  3  4  1  0
  4  5  2  0
  5  6  1  0
  6  7  2  0
  7  8  1  0
  8  9  2  0
  9 10  1  0
 10 11  2  0
 11 12  1  0
 12 13  2  0
 13 14  1  0
 14 15  2  0
 15 16  1  0
 16 17  2  0
 17 18  1  0
 18 19  2  0
  2 20  1  0
 20 21  2  0
 20 22  1  0
 22 23  1  0
 23 24  1  0
 24 25  1  0
 25 26  1  0
 26 27  1  0
 27 28  1  0
 28 29  2  0
 28 30  1  0
 30 31  1  0
 31 32  2  0
 32 33  1  0
 33 34  2  0
 34 35  1  0
 34 36  1  0
 36 37  2  0
 25 38  1  0
 38 39  1  0
  9  4  1  0
 19 10  1  0
 39 22  1  0
 19 14  1  0
 37 25  1  0
 37 31  1  0
  1 40  1  0
  1 41  1  0
  2 42  1  1
  3 43  1  0
  3 44  1  0
  5 45  1  0
  6 46  1  0
  7 47  1  0
  8 48  1  0
 11 49  1  0
 12 50  1  0
 13 51  1  0
 15 52  1  0
 16 53  1  0
 17 54  1  0
 18 55  1  0
 23 56  1  0
 23 57  1  0
 24 58  1  0
 24 59  1  0
 26 60  1  0
 26 61  1  0
 27 62  1  0
 27 63  1  0
 30 64  1  0
 32 65  1  0
 33 66  1  0
 36 67  1  0
 38 68  1  0
 38 69  1  0
 39 70  1  0
 39 71  1  0
M  END
$$$$
[H]c1c(N([H])[C@]2([H])C([H])([H])N(C([H])([H])[H])C([H])([H])C2([H])[H])nc(N([H])c2c([H])c([H])c(C([H])([H])[H])c(O[C@]3([H])C([H])([H])C([H])([H])[C@]([H])(N4C([H])([H])C([H])([H])N(C([H])([H])[H])C([H])([H])C4([H])[H])C([H])([H])C3([H])[H])c2[H])nc1C([H])([H])[H]
     RDKit          3D

 79 83  0  0  0  0  0  0  0  0999 V2000
   -9.9287   -0.8547    1.5155 C   0  0  0  0  0  0  0  0  0  0  0  0
   -9.8763    0.4310    0.8699 N   0  0  0  0  0  0  0  0  0  0  0  0
  -10.1219    0.4043   -0.5312 C   0  0  0  0  0  0  0  0  0  0  0  0
   -9.0034    1.1287   -1.2003 C   0  0  0  0  0  0  0  0  0  0  0  0
   -8.2860    1.8652   -0.1212 C   0  0  1  0  0  0  0  0  0  0  0  0
   -8.7059    1.1912    1.1648 C   0  0  0  0  0  0  0  0  0  0  0  0
   -6.8778    1.9943   -0.2996 N   0  0  0  0  0  0  0  0  0  0  0  0
   -5.9100    0.9627   -0.3753 C   0  0  0  0  0  0  0  0  0  0  0  0
   -6.2444   -0.3594   -0.2657 C   0  0  0  0  0  0  0  0  0  0  0  0
   -5.2729   -1.3621   -0.3471 C   0  0  0  0  0  0  0  0  0  0  0  0
   -5.6518   -2.7936   -0.2262 C   0  0  0  0  0  0  0  0  0  0  0  0
   -4.0030   -0.9861   -0.5359 N   0  0  0  0  0  0  0  0  0  0  0  0
   -3.6396    0.2957   -0.6473 C   0  0  0  0  0  0  0  0  0  0  0  0
   -2.2973    0.6470   -0.8447 N   0  0  0  0  0  0  0  0  0  0  0  0
   -1.2057   -0.2209   -0.9665 C   0  0  0  0  0  0  0  0  0  0  0  0
   -1.2341   -1.5263   -1.3808 C   0  0  0  0  0  0  0  0  0  0  0  0
   -0.0809   -2.3131   -1.4342 C   0  0  0  0  0  0  0  0  0  0  0  0
    1.1133   -1.7634   -1.0625 C   0  0  0  0  0  0  0  0  0  0  0  0
    2.3696   -2.5631   -1.1030 C   0  0  0  0  0  0  0  0  0  0  0  0
    1.1782   -0.4316   -0.6348 C   0  0  0  0  0  0  0  0  0  0  0  0
    2.4327    0.0296   -0.2809 O   0  0  0  0  0  0  0  0  0  0  0  0
    2.7388    1.3180    0.1729 C   0  0  2  0  0  0  0  0  0  0  0  0
    3.7655    1.8823   -0.8008 C   0  0  0  0  0  0  0  0  0  0  0  0
    5.0031    2.2821   -0.0572 C   0  0  0  0  0  0  0  0  0  0  0  0
    5.6756    1.1285    0.6525 C   0  0  1  0  0  0  0  0  0  0  0  0
    4.6384    0.2865    1.3017 C   0  0  0  0  0  0  0  0  0  0  0  0
    3.4108    1.1391    1.5464 C   0  0  0  0  0  0  0  0  0  0  0  0
    6.6231    0.4336   -0.1417 N   0  0  0  0  0  0  0  0  0  0  0  0
    7.7426    1.2001   -0.5678 C   0  0  0  0  0  0  0  0  0  0  0  0
    9.0015    0.7761    0.1484 C   0  0  0  0  0  0  0  0  0  0  0  0
    9.2769   -0.6228    0.0352 N   0  0  0  0  0  0  0  0  0  0  0  0
    9.7371   -1.1410    1.3093 C   0  0  0  0  0  0  0  0  0  0  0  0
    8.1634   -1.3818   -0.4867 C   0  0  0  0  0  0  0  0  0  0  0  0
    6.8441   -0.9314    0.1511 C   0  0  0  0  0  0  0  0  0  0  0  0
    0.0464    0.3089   -0.5919 C   0  0  0  0  0  0  0  0  0  0  0  0
   -4.6122    1.2503   -0.5635 N   0  0  0  0  0  0  0  0  0  0  0  0
   -9.5138   -1.5954    0.7818 H   0  0  0  0  0  0  0  0  0  0  0  0
  -10.9637   -1.1636    1.7466 H   0  0  0  0  0  0  0  0  0  0  0  0
   -9.3166   -0.8923    2.4402 H   0  0  0  0  0  0  0  0  0  0  0  0
  -11.0864    0.9721   -0.6946 H   0  0  0  0  0  0  0  0  0  0  0  0
  -10.2714   -0.6288   -0.9279 H   0  0  0  0  0  0  0  0  0  0  0  0
   -8.3330    0.4610   -1.7974 H   0  0  0  0  0  0  0  0  0  0  0  0
   -9.4401    1.8715   -1.9337 H   0  0  0  0  0  0  0  0  0  0  0  0
   -8.7201    2.9105   -0.1210 H   0  0  0  0  0  0  0  0  0  0  0  0
   -9.0120    1.9986    1.8838 H   0  0  0  0  0  0  0  0  0  0  0  0
   -7.9011    0.6509    1.6792 H   0  0  0  0  0  0  0  0  0  0  0  0
   -6.4516    2.9814   -0.3929 H   0  0  0  0  0  0  0  0  0  0  0  0
   -7.2474   -0.7180   -0.1106 H   0  0  0  0  0  0  0  0  0  0  0  0
   -4.7678   -3.4057   -0.4495 H   0  0  0  0  0  0  0  0  0  0  0  0
   -6.4700   -3.0497   -0.9567 H   0  0  0  0  0  0  0  0  0  0  0  0
   -6.0059   -2.9751    0.8180 H   0  0  0  0  0  0  0  0  0  0  0  0
   -2.1035    1.6969   -0.9127 H   0  0  0  0  0  0  0  0  0  0  0  0
   -2.1577   -1.9758   -1.6962 H   0  0  0  0  0  0  0  0  0  0  0  0
   -0.1739   -3.3476   -1.7738 H   0  0  0  0  0  0  0  0  0  0  0  0
    2.9477   -2.3920   -0.1688 H   0  0  0  0  0  0  0  0  0  0  0  0
    2.1642   -3.6425   -1.1808 H   0  0  0  0  0  0  0  0  0  0  0  0
    3.0306   -2.2371   -1.9329 H   0  0  0  0  0  0  0  0  0  0  0  0
    1.8979    2.0092    0.2394 H   0  0  0  0  0  0  0  0  0  0  0  0
    4.0490    1.1712   -1.5822 H   0  0  0  0  0  0  0  0  0  0  0  0
    3.3643    2.8217   -1.2658 H   0  0  0  0  0  0  0  0  0  0  0  0
    5.6747    2.7648   -0.7972 H   0  0  0  0  0  0  0  0  0  0  0  0
    4.7250    3.1013    0.6507 H   0  0  0  0  0  0  0  0  0  0  0  0
    6.2601    1.6133    1.4937 H   0  0  0  0  0  0  0  0  0  0  0  0
    4.3043   -0.5769    0.6947 H   0  0  0  0  0  0  0  0  0  0  0  0
    4.9790   -0.0474    2.3227 H   0  0  0  0  0  0  0  0  0  0  0  0
    3.6150    2.1006    2.0248 H   0  0  0  0  0  0  0  0  0  0  0  0
    2.6550    0.5996    2.1575 H   0  0  0  0  0  0  0  0  0  0  0  0
    7.5729    2.2689   -0.2620 H   0  0  0  0  0  0  0  0  0  0  0  0
    7.9531    1.1249   -1.6547 H   0  0  0  0  0  0  0  0  0  0  0  0
    9.8306    1.4051   -0.2446 H   0  0  0  0  0  0  0  0  0  0  0  0
    8.9253    1.0574    1.2374 H   0  0  0  0  0  0  0  0  0  0  0  0
   10.7411   -0.7138    1.4945 H   0  0  0  0  0  0  0  0  0  0  0  0
    9.0530   -0.7029    2.0815 H   0  0  0  0  0  0  0  0  0  0  0  0
    9.7373   -2.2309    1.3142 H   0  0  0  0  0  0  0  0  0  0  0  0
    8.3588   -2.4430   -0.3203 H   0  0  0  0  0  0  0  0  0  0  0  0
    8.1154   -1.1905   -1.5720 H   0  0  0  0  0  0  0  0  0  0  0  0
    6.9888   -1.0671    1.2484 H   0  0  0  0  0  0  0  0  0  0  0  0
    6.0815   -1.6253   -0.2597 H   0  0  0  0  0  0  0  0  0  0  0  0
    0.1020    1.3367   -0.2602 H   0  0  0  0  0  0  0  0  0  0  0  0
  1  2  1  0
  2  3  1  0
  3  4  1  0
  4  5  1  0
  5  6  1  0
  5  7  1  0
  7  8  1  0
  8  9  2  0
  9 10  1  0
 10 11  1  0
 10 12  2  0
 12 13  1  0
 13 14  1  0
 14 15  1  0
 15 16  2  0
 16 17  1  0
 17 18  2  0
 18 19  1  0
 18 20  1  0
 20 21  1  0
 21 22  1  0
 22 23  1  0
 23 24  1  0
 24 25  1  0
 25 26  1  0
 26 27  1  0
 25 28  1  0
 28 29  1  0
 29 30  1  0
 30 31  1  0
 31 32  1  0
 31 33  1  0
 33 34  1  0
 20 35  2  0
 13 36  2  0
  6  2  1  0
 36  8  1  0
 35 15  1  0
 27 22  1  0
 34 28  1  0
  1 37  1  0
  1 38  1  0
  1 39  1  0
  3 40  1  0
  3 41  1  0
  4 42  1  0
  4 43  1  0
  5 44  1  1
  6 45  1  0
  6 46  1  0
  7 47  1  0
  9 48  1  0
 11 49  1  0
 11 50  1  0
 11 51  1  0
 14 52  1  0
 16 53  1  0
 17 54  1  0
 19 55  1  0
 19 56  1  0
 19 57  1  0
 22 58  1  1
 23 59  1  0
 23 60  1  0
 24 61  1  0
 24 62  1  0
 25 63  1  1
 26 64  1  0
 26 65  1  0
 27 66  1  0
 27 67  1  0
 29 68  1  0
 29 69  1  0
 30 70  1  0
 30 71  1  0
 32 72  1  0
 32 73  1  0
 32 74  1  0
 33 75  1  0
 33 76  1  0
 34 77  1  0
 34 78  1  0
 35 79  1  0
M  END
$$$$
[H]c1nc(C([H])([H])[C@@]([H])(C(=O)[C@@]([H])(N([H])C#N)C([H])([H])[H])N([H])C(=O)[C@@]2([H])N(S(=O)(=O)c3c([H])c([H])c(OC([H])([H])[H])c([H])c3[H])C([H])([H])[C@@]([H])([C@@]([H])(C([H])([H])[H])C([H])([H])C([H])([H])[H])C2([H])[H])oc1-c1c([H])c([H])c([H])c2c([H])c([H])c([H])c([H])c12
     RDKit          3D

 86 90  0  0  0  0  0  0  0  0999 V2000
   -5.7406   -0.3077   -2.1341 C   0  0  0  0  0  0  0  0  0  0  0  0
   -5.9491   -1.4580   -1.2300 C   0  0  0  0  0  0  0  0  0  0  0  0
   -4.7941   -2.1455   -0.6210 C   0  0  2  0  0  0  0  0  0  0  0  0
   -5.3794   -3.2855    0.2277 C   0  0  0  0  0  0  0  0  0  0  0  0
   -3.8322   -1.3399    0.1951 C   0  0  1  0  0  0  0  0  0  0  0  0
   -2.7439   -2.2329    0.7767 C   0  0  0  0  0  0  0  0  0  0  0  0
   -1.5927   -1.2759    0.8957 C   0  0  2  0  0  0  0  0  0  0  0  0
   -1.7217   -0.3572   -0.1388 N   0  0  0  0  0  0  0  0  0  0  0  0
   -3.0334   -0.4151   -0.6841 C   0  0  0  0  0  0  0  0  0  0  0  0
   -1.1843    1.2324    0.2571 S   0  0  0  0  0  0  0  0  0  0  0  0
   -0.6607    1.2349    1.6855 O   0  0  0  0  0  0  0  0  0  0  0  0
   -0.1248    1.7074   -0.6950 O   0  0  0  0  0  0  0  0  0  0  0  0
   -2.5293    2.3361    0.1781 C   0  0  0  0  0  0  0  0  0  0  0  0
   -2.7785    3.0768   -0.9629 C   0  0  0  0  0  0  0  0  0  0  0  0
   -3.8405    3.9502   -1.0000 C   0  0  0  0  0  0  0  0  0  0  0  0
   -4.6598    4.0942    0.0893 C   0  0  0  0  0  0  0  0  0  0  0  0
   -5.7459    4.9592    0.1097 O   0  0  0  0  0  0  0  0  0  0  0  0
   -6.5827    5.1014    1.2401 C   0  0  0  0  0  0  0  0  0  0  0  0
   -4.4020    3.3596    1.2045 C   0  0  0  0  0  0  0  0  0  0  0  0
   -3.3568    2.4863    1.2679 C   0  0  0  0  0  0  0  0  0  0  0  0
   -0.3121   -2.0540    0.8574 C   0  0  0  0  0  0  0  0  0  0  0  0
   -0.1409   -2.8636    1.7955 O   0  0  0  0  0  0  0  0  0  0  0  0
    0.6546   -1.9089   -0.1617 N   0  0  0  0  0  0  0  0  0  0  0  0
    1.8803   -2.6481   -0.2453 C   0  0  1  0  0  0  0  0  0  0  0  0
    2.8540   -2.3429    0.8421 C   0  0  0  0  0  0  0  0  0  0  0  0
    3.2585   -0.8926    0.8297 C   0  0  0  0  0  0  0  0  0  0  0  0
    2.6253    0.0461    1.5121 N   0  0  0  0  0  0  0  0  0  0  0  0
    3.2552    1.2312    1.2698 C   0  0  0  0  0  0  0  0  0  0  0  0
    4.2927    1.0023    0.4233 C   0  0  0  0  0  0  0  0  0  0  0  0
    4.2180   -0.3289    0.2061 O   0  0  0  0  0  0  0  0  0  0  0  0
    5.3129    1.8382   -0.2075 C   0  0  0  0  0  0  0  0  0  0  0  0
    5.7965    1.3617   -1.4506 C   0  0  0  0  0  0  0  0  0  0  0  0
    6.7665    2.0242   -2.1578 C   0  0  0  0  0  0  0  0  0  0  0  0
    7.3029    3.1837   -1.6711 C   0  0  0  0  0  0  0  0  0  0  0  0
    6.8488    3.6736   -0.4516 C   0  0  0  0  0  0  0  0  0  0  0  0
    7.4048    4.8158    0.0632 C   0  0  0  0  0  0  0  0  0  0  0  0
    7.0208    5.3217    1.2813 C   0  0  0  0  0  0  0  0  0  0  0  0
    6.0539    4.6460    1.9809 C   0  0  0  0  0  0  0  0  0  0  0  0
    5.4676    3.4744    1.4765 C   0  0  0  0  0  0  0  0  0  0  0  0
    5.8567    2.9848    0.2622 C   0  0  0  0  0  0  0  0  0  0  0  0
    1.6398   -4.1151   -0.4005 C   0  0  0  0  0  0  0  0  0  0  0  0
    0.4852   -4.4952   -0.4617 O   0  0  0  0  0  0  0  0  0  0  0  0
    2.7195   -5.1117   -0.4810 C   0  0  2  0  0  0  0  0  0  0  0  0
    3.6348   -4.8709   -1.6680 C   0  0  0  0  0  0  0  0  0  0  0  0
    2.1466   -6.4256   -0.6266 N   0  0  0  0  0  0  0  0  0  0  0  0
    1.2806   -6.9280    0.3486 C   0  0  0  0  0  0  0  0  0  0  0  0
    0.5410   -7.3430    1.1722 N   0  0  0  0  0  0  0  0  0  0  0  0
   -5.5882    0.6714   -1.6814 H   0  0  0  0  0  0  0  0  0  0  0  0
   -6.7478   -0.1796   -2.6836 H   0  0  0  0  0  0  0  0  0  0  0  0
   -4.9740   -0.4627   -2.9189 H   0  0  0  0  0  0  0  0  0  0  0  0
   -6.6941   -1.2302   -0.4171 H   0  0  0  0  0  0  0  0  0  0  0  0
   -6.4922   -2.2504   -1.8451 H   0  0  0  0  0  0  0  0  0  0  0  0
   -4.2473   -2.6733   -1.4592 H   0  0  0  0  0  0  0  0  0  0  0  0
   -4.6275   -4.0640    0.3880 H   0  0  0  0  0  0  0  0  0  0  0  0
   -6.1707   -3.7373   -0.4067 H   0  0  0  0  0  0  0  0  0  0  0  0
   -5.8626   -2.8943    1.1394 H   0  0  0  0  0  0  0  0  0  0  0  0
   -4.3235   -0.8352    1.0513 H   0  0  0  0  0  0  0  0  0  0  0  0
   -2.9942   -2.6598    1.7486 H   0  0  0  0  0  0  0  0  0  0  0  0
   -2.4469   -3.0311    0.0677 H   0  0  0  0  0  0  0  0  0  0  0  0
   -1.6401   -0.7095    1.8817 H   0  0  0  0  0  0  0  0  0  0  0  0
   -3.5504    0.5793   -0.6272 H   0  0  0  0  0  0  0  0  0  0  0  0
   -3.0489   -0.8199   -1.7281 H   0  0  0  0  0  0  0  0  0  0  0  0
   -2.1145    2.9492   -1.8213 H   0  0  0  0  0  0  0  0  0  0  0  0
   -4.0645    4.5522   -1.8793 H   0  0  0  0  0  0  0  0  0  0  0  0
   -7.1007    4.1417    1.4019 H   0  0  0  0  0  0  0  0  0  0  0  0
   -7.3295    5.8939    1.0062 H   0  0  0  0  0  0  0  0  0  0  0  0
   -6.0247    5.4206    2.1489 H   0  0  0  0  0  0  0  0  0  0  0  0
   -5.0530    3.4725    2.0791 H   0  0  0  0  0  0  0  0  0  0  0  0
   -3.1703    1.9106    2.1600 H   0  0  0  0  0  0  0  0  0  0  0  0
    0.4348   -1.1976   -0.9039 H   0  0  0  0  0  0  0  0  0  0  0  0
    2.3919   -2.3182   -1.2096 H   0  0  0  0  0  0  0  0  0  0  0  0
    2.3701   -2.5263    1.8189 H   0  0  0  0  0  0  0  0  0  0  0  0
    3.7574   -2.9912    0.8084 H   0  0  0  0  0  0  0  0  0  0  0  0
    2.9142    2.1567    1.6781 H   0  0  0  0  0  0  0  0  0  0  0  0
    5.3693    0.4397   -1.8375 H   0  0  0  0  0  0  0  0  0  0  0  0
    7.1150    1.6363   -3.1077 H   0  0  0  0  0  0  0  0  0  0  0  0
    8.0734    3.7275   -2.2177 H   0  0  0  0  0  0  0  0  0  0  0  0
    8.1670    5.3023   -0.5431 H   0  0  0  0  0  0  0  0  0  0  0  0
    7.4770    6.2100    1.6461 H   0  0  0  0  0  0  0  0  0  0  0  0
    5.7355    5.0081    2.9320 H   0  0  0  0  0  0  0  0  0  0  0  0
    4.7502    2.9831    2.0944 H   0  0  0  0  0  0  0  0  0  0  0  0
    3.3893   -5.0964    0.4078 H   0  0  0  0  0  0  0  0  0  0  0  0
    3.1368   -4.3498   -2.4993 H   0  0  0  0  0  0  0  0  0  0  0  0
    4.1127   -5.8248   -1.9603 H   0  0  0  0  0  0  0  0  0  0  0  0
    4.4812   -4.2026   -1.3583 H   0  0  0  0  0  0  0  0  0  0  0  0
    2.3780   -6.9969   -1.4571 H   0  0  0  0  0  0  0  0  0  0  0  0
  1  2  1  0
  2  3  1  0
  3  4  1  0
  3  5  1  0
  5  6  1  0
  6  7  1  0
  7  8  1  0
  8  9  1  0
  8 10  1  0
 10 11  2  0
 10 12  2  0
 10 13  1  0
 13 14  2  0
 14 15  1  0
 15 16  2  0
 16 17  1  0
 17 18  1  0
 16 19  1  0
 19 20  2  0
  7 21  1  0
 21 22  2  0
 21 23  1  0
 23 24  1  0
 24 25  1  0
 25 26  1  0
 26 27  2  0
 27 28  1  0
 28 29  2  0
 29 30  1  0
 29 31  1  0
 31 32  2  0
 32 33  1  0
 33 34  2  0
 34 35  1  0
 35 36  2  0
 36 37  1  0
 37 38  2  0
 38 39  1  0
 39 40  2  0
 24 41  1  0
 41 42  2  0
 41 43  1  0
 43 44  1  0
 43 45  1  0
 45 46  1  0
 46 47  3  0
  9  5  1  0
 20 13  1  0
 30 26  1  0
 40 31  1  0
 40 35  1  0
  1 48  1  0
  1 49  1  0
  1 50  1  0
  2 51  1  0
  2 52  1  0
  3 53  1  6
  4 54  1  0
  4 55  1  0
  4 56  1  0
  5 57  1  1
  6 58  1  0
  6 59  1  0
  7 60  1  1
  9 61  1  0
  9 62  1  0
 14 63  1  0
 15 64  1  0
 18 65  1  0
 18 66  1  0
 18 67  1  0
 19 68  1  0
 20 69  1  0
 23 70  1  0
 24 71  1  6
 25 72  1  0
 25 73  1  0
 28 74  1  0
 32 75  1  0
 33 76  1  0
 34 77  1  0
 36 78  1  0
 37 79  1  0
 38 80  1  0
 39 81  1  0
 43 82  1  1
 44 83  1  0
 44 84  1  0
 44 85  1  0
 45 86  1  0
M  END
$$$$
[H]OC(=O)[C@]1([H])C([H])([H])[C@@]([H])(C(=O)N([H])c2c([H])c([H])c(I)c([H])c2[H])[C@@]1([H])C([H])([H])/C([H])=C([H])\C([H])=C(/c1c([H])c([H])c(F)c([H])c1[H])C([H])([H])[H]
     RDKit          3D

 53 55  0  0  0  0  0  0  0  0999 V2000
   -2.5020   -0.7207    2.6952 C   0  0  0  0  0  0  0  0  0  0  0  0
   -2.7976   -0.1167    1.2864 C   0  0  0  0  0  0  0  0  0  0  0  0
   -4.0556    0.5733    1.1736 C   0  0  0  0  0  0  0  0  0  0  0  0
   -4.8938    0.6106    0.1034 C   0  0  0  0  0  0  0  0  0  0  0  0
   -6.0568    1.3646    0.0336 C   0  0  0  0  0  0  0  0  0  0  0  0
   -6.4065    2.1326    1.1105 C   0  0  0  0  0  0  0  0  0  0  0  0
   -7.5481    2.8665    1.0294 F   0  0  0  0  0  0  0  0  0  0  0  0
   -5.5964    2.1287    2.2167 C   0  0  0  0  0  0  0  0  0  0  0  0
   -4.4563    1.3855    2.2738 C   0  0  0  0  0  0  0  0  0  0  0  0
   -1.9641   -0.4609    0.3377 C   0  0  0  0  0  0  0  0  0  0  0  0
   -2.0816    0.0220   -0.9941 C   0  0  0  0  0  0  0  0  0  0  0  0
   -1.3059   -0.3238   -1.9553 C   0  0  0  0  0  0  0  0  0  0  0  0
   -0.2061   -1.1786   -2.0517 C   0  0  0  0  0  0  0  0  0  0  0  0
    0.4979   -1.9720   -1.0607 C   0  0  1  0  0  0  0  0  0  0  0  0
    1.6509   -2.7083   -1.8599 C   0  0  1  0  0  0  0  0  0  0  0  0
    2.4321   -2.6594   -0.5784 C   0  0  0  0  0  0  0  0  0  0  0  0
    1.5816   -1.4699   -0.1963 C   0  0  1  0  0  0  0  0  0  0  0  0
    2.1651   -0.1441   -0.3618 C   0  0  0  0  0  0  0  0  0  0  0  0
    1.7092    0.6954   -1.1415 O   0  0  0  0  0  0  0  0  0  0  0  0
    3.3005    0.1561    0.4241 N   0  0  0  0  0  0  0  0  0  0  0  0
    3.9807    1.3817    0.4045 C   0  0  0  0  0  0  0  0  0  0  0  0
    3.3704    2.5509    0.0593 C   0  0  0  0  0  0  0  0  0  0  0  0
    4.1278    3.7174    0.0358 C   0  0  0  0  0  0  0  0  0  0  0  0
    5.4538    3.7013    0.3509 C   0  0  0  0  0  0  0  0  0  0  0  0
    6.5722    5.4935    0.3041 I   0  0  0  0  0  0  0  0  0  0  0  0
    6.0617    2.5049    0.7013 C   0  0  0  0  0  0  0  0  0  0  0  0
    5.3399    1.3528    0.7302 C   0  0  0  0  0  0  0  0  0  0  0  0
    1.2362   -4.0306   -2.3286 C   0  0  0  0  0  0  0  0  0  0  0  0
    0.8326   -5.0585   -1.5130 O   0  0  0  0  0  0  0  0  0  0  0  0
    1.2475   -4.2504   -3.5709 O   0  0  0  0  0  0  0  0  0  0  0  0
   -1.8482   -1.5788    2.6052 H   0  0  0  0  0  0  0  0  0  0  0  0
   -3.4959   -1.0167    3.0815 H   0  0  0  0  0  0  0  0  0  0  0  0
   -2.1264    0.0914    3.3466 H   0  0  0  0  0  0  0  0  0  0  0  0
   -4.7189   -0.0169   -0.7618 H   0  0  0  0  0  0  0  0  0  0  0  0
   -6.6438    1.3282   -0.8479 H   0  0  0  0  0  0  0  0  0  0  0  0
   -5.9007    2.7522    3.0658 H   0  0  0  0  0  0  0  0  0  0  0  0
   -3.8098    1.3630    3.1182 H   0  0  0  0  0  0  0  0  0  0  0  0
   -1.1743   -1.1607    0.6567 H   0  0  0  0  0  0  0  0  0  0  0  0
   -2.8543    0.8163   -1.1833 H   0  0  0  0  0  0  0  0  0  0  0  0
   -1.6162    0.2076   -2.9419 H   0  0  0  0  0  0  0  0  0  0  0  0
    0.6301   -0.6514   -2.6746 H   0  0  0  0  0  0  0  0  0  0  0  0
   -0.4497   -1.9804   -2.9347 H   0  0  0  0  0  0  0  0  0  0  0  0
   -0.0922   -2.7791   -0.5337 H   0  0  0  0  0  0  0  0  0  0  0  0
    2.0834   -2.0604   -2.6312 H   0  0  0  0  0  0  0  0  0  0  0  0
    2.2690   -3.5821    0.0198 H   0  0  0  0  0  0  0  0  0  0  0  0
    3.5028   -2.4017   -0.7285 H   0  0  0  0  0  0  0  0  0  0  0  0
    1.2847   -1.6583    0.9022 H   0  0  0  0  0  0  0  0  0  0  0  0
    3.6924   -0.5951    1.1022 H   0  0  0  0  0  0  0  0  0  0  0  0
    2.3091    2.6620   -0.1896 H   0  0  0  0  0  0  0  0  0  0  0  0
    3.6199    4.6435   -0.2442 H   0  0  0  0  0  0  0  0  0  0  0  0
    7.1371    2.5024    0.9554 H   0  0  0  0  0  0  0  0  0  0  0  0
    5.8144    0.4029    1.0064 H   0  0  0  0  0  0  0  0  0  0  0  0
    0.6980   -4.8315   -0.5211 H   0  0  0  0  0  0  0  0  0  0  0  0
  1  2  1  0
  2  3  1  0
  3  4  2  0
  4  5  1  0
  5  6  2  0
  6  7  1  0
  6  8  1  0
  8  9  2  0
  2 10  2  0
 10 11  1  0
 11 12  2  0
 12 13  1  0
 13 14  1  0
 14 15  1  0
 15 16  1  0
 16 17  1  0
 17 18  1  0
 18 19  2  0
 18 20  1  0
 20 21  1  0
 21 22  2  0
 22 23  1  0
 23 24  2  0
 24 25  1  0
 24 26  1  0
 26 27  2  0
 15 28  1  0
 28 29  1  0
 28 30  2  0
  9  3  1  0
 17 14  1  0
 27 21  1  0
  1 31  1  0
  1 32  1  0
  1 33  1  0
  4 34  1  0
  5 35  1  0
  8 36  1  0
  9 37  1  0
 10 38  1  0
 11 39  1  0
 12 40  1  0
 13 41  1  0
 13 42  1  0
 14 43  1  1
 15 44  1  6
 16 45  1  0
 16 46  1  0
 17 47  1  1
 20 48  1  0
 22 49  1  0
 23 50  1  0
 26 51  1  0
 27 52  1  0
 29 53  1  0
M  END
$$$$
[H]Oc1c(C(=O)OC(C([H])([H])[H])(C([H])([H])[H])C([H])([H])[H])c(N([H])[H])c(C(=O)N2C([H])([H])C([H])([H])C([H])([H])[C@]2([H])C([H])([H])N([H])C(=O)c2sc([H])c([H])c2N([H])[H])c([H])c1N1C([H])([H])C([H])([H])C([H])(C(=O)N2C([H])([H])C(F)(F)C2([H])[H])C([H])([H])C1([H])[H]
     RDKit          3D

 86 90  0  0  0  0  0  0  0  0999 V2000
   -0.8204   -7.5093    0.1710 C   0  0  0  0  0  0  0  0  0  0  0  0
    0.4066   -6.6870    0.3863 C   0  0  0  0  0  0  0  0  0  0  0  0
    0.8103   -6.8016    1.8349 C   0  0  0  0  0  0  0  0  0  0  0  0
    1.5168   -7.2773   -0.4538 C   0  0  0  0  0  0  0  0  0  0  0  0
    0.1982   -5.3183    0.0981 O   0  0  0  0  0  0  0  0  0  0  0  0
    1.1987   -4.3747    0.2292 C   0  0  0  0  0  0  0  0  0  0  0  0
    2.2922   -4.7876    0.6123 O   0  0  0  0  0  0  0  0  0  0  0  0
    0.9445   -2.9860   -0.0743 C   0  0  0  0  0  0  0  0  0  0  0  0
   -0.3431   -2.6386   -0.4985 C   0  0  0  0  0  0  0  0  0  0  0  0
   -1.3049   -3.6650   -0.6056 N   0  0  0  0  0  0  0  0  0  0  0  0
   -0.7213   -1.3392   -0.8190 C   0  0  0  0  0  0  0  0  0  0  0  0
    0.2556   -0.3942   -0.6944 C   0  0  0  0  0  0  0  0  0  0  0  0
    1.5648   -0.6796   -0.2742 C   0  0  0  0  0  0  0  0  0  0  0  0
    2.5332    0.3528   -0.1672 N   0  0  0  0  0  0  0  0  0  0  0  0
    3.1847    0.5449    1.1213 C   0  0  0  0  0  0  0  0  0  0  0  0
    3.4243    1.9950    1.4067 C   0  0  0  0  0  0  0  0  0  0  0  0
    4.2095    2.5838    0.2467 C   0  0  0  0  0  0  0  0  0  0  0  0
    3.3227    2.5348   -0.9720 C   0  0  0  0  0  0  0  0  0  0  0  0
    2.8224    1.1620   -1.3124 C   0  0  0  0  0  0  0  0  0  0  0  0
    4.4502    4.0170    0.5557 C   0  0  0  0  0  0  0  0  0  0  0  0
    3.8359    4.4872    1.5832 O   0  0  0  0  0  0  0  0  0  0  0  0
    5.2778    4.8743   -0.1735 N   0  0  0  0  0  0  0  0  0  0  0  0
    6.1269    4.8102   -1.3316 C   0  0  0  0  0  0  0  0  0  0  0  0
    5.7796    6.2886   -1.5672 C   0  0  0  0  0  0  0  0  0  0  0  0
    6.8083    7.0246   -2.0735 F   0  0  0  0  0  0  0  0  0  0  0  0
    4.5644    6.4541   -2.1923 F   0  0  0  0  0  0  0  0  0  0  0  0
    5.6529    6.2720   -0.0572 C   0  0  0  0  0  0  0  0  0  0  0  0
    1.9000   -1.9983    0.0367 C   0  0  0  0  0  0  0  0  0  0  0  0
    3.1930   -2.2178    0.4405 O   0  0  0  0  0  0  0  0  0  0  0  0
   -2.0608   -1.1109   -1.2427 C   0  0  0  0  0  0  0  0  0  0  0  0
   -2.8280   -2.1758   -1.2858 O   0  0  0  0  0  0  0  0  0  0  0  0
   -2.7476    0.0786   -1.6395 N   0  0  0  0  0  0  0  0  0  0  0  0
   -2.2328    1.3872   -1.7083 C   0  0  0  0  0  0  0  0  0  0  0  0
   -3.3709    2.2792   -2.1770 C   0  0  0  0  0  0  0  0  0  0  0  0
   -4.2933    1.3067   -2.8708 C   0  0  0  0  0  0  0  0  0  0  0  0
   -4.1063    0.0181   -2.0706 C   0  0  2  0  0  0  0  0  0  0  0  0
   -5.1914   -0.1932   -1.0932 C   0  0  0  0  0  0  0  0  0  0  0  0
   -5.4287    0.7093   -0.0411 N   0  0  0  0  0  0  0  0  0  0  0  0
   -4.6944    1.0653    1.0893 C   0  0  0  0  0  0  0  0  0  0  0  0
   -3.6015    0.5917    1.4111 O   0  0  0  0  0  0  0  0  0  0  0  0
   -5.2763    2.1087    1.9914 C   0  0  0  0  0  0  0  0  0  0  0  0
   -6.7470    2.9535    1.8235 S   0  0  0  0  0  0  0  0  0  0  0  0
   -6.6636    3.9267    3.2176 C   0  0  0  0  0  0  0  0  0  0  0  0
   -5.4725    3.5566    3.7795 C   0  0  0  0  0  0  0  0  0  0  0  0
   -4.7524    2.6154    3.1464 C   0  0  0  0  0  0  0  0  0  0  0  0
   -3.4712    2.1309    3.6370 N   0  0  0  0  0  0  0  0  0  0  0  0
   -1.4300   -7.2205   -0.6884 H   0  0  0  0  0  0  0  0  0  0  0  0
   -1.4893   -7.5429    1.0743 H   0  0  0  0  0  0  0  0  0  0  0  0
   -0.5314   -8.5820    0.0058 H   0  0  0  0  0  0  0  0  0  0  0  0
    0.7542   -5.7978    2.2988 H   0  0  0  0  0  0  0  0  0  0  0  0
    0.1453   -7.5098    2.3850 H   0  0  0  0  0  0  0  0  0  0  0  0
    1.8728   -7.1010    1.9009 H   0  0  0  0  0  0  0  0  0  0  0  0
    1.5298   -6.8766   -1.4863 H   0  0  0  0  0  0  0  0  0  0  0  0
    1.3206   -8.3668   -0.5365 H   0  0  0  0  0  0  0  0  0  0  0  0
    2.5091   -7.1797    0.0454 H   0  0  0  0  0  0  0  0  0  0  0  0
   -1.4850   -4.2423   -1.4411 H   0  0  0  0  0  0  0  0  0  0  0  0
   -1.8963   -3.8598    0.2518 H   0  0  0  0  0  0  0  0  0  0  0  0
    0.0609    0.6457   -0.9195 H   0  0  0  0  0  0  0  0  0  0  0  0
    2.6008    0.1183    1.9594 H   0  0  0  0  0  0  0  0  0  0  0  0
    4.1946    0.0572    1.0109 H   0  0  0  0  0  0  0  0  0  0  0  0
    4.0256    2.0809    2.3214 H   0  0  0  0  0  0  0  0  0  0  0  0
    2.4570    2.5345    1.4671 H   0  0  0  0  0  0  0  0  0  0  0  0
    5.1748    2.0710    0.1107 H   0  0  0  0  0  0  0  0  0  0  0  0
    2.4952    3.2572   -0.8150 H   0  0  0  0  0  0  0  0  0  0  0  0
    3.9102    2.8886   -1.8384 H   0  0  0  0  0  0  0  0  0  0  0  0
    1.8517    1.3059   -1.8682 H   0  0  0  0  0  0  0  0  0  0  0  0
    3.4838    0.6015   -2.0030 H   0  0  0  0  0  0  0  0  0  0  0  0
    5.8498    4.1701   -2.1618 H   0  0  0  0  0  0  0  0  0  0  0  0
    7.2080    4.7709   -1.0330 H   0  0  0  0  0  0  0  0  0  0  0  0
    4.8499    6.9528    0.2930 H   0  0  0  0  0  0  0  0  0  0  0  0
    6.5880    6.4602    0.4954 H   0  0  0  0  0  0  0  0  0  0  0  0
    3.6440   -3.0162    0.6985 H   0  0  0  0  0  0  0  0  0  0  0  0
   -1.3860    1.4672   -2.4501 H   0  0  0  0  0  0  0  0  0  0  0  0
   -1.8900    1.7816   -0.7086 H   0  0  0  0  0  0  0  0  0  0  0  0
   -2.9597    2.9937   -2.9496 H   0  0  0  0  0  0  0  0  0  0  0  0
   -3.8790    2.8099   -1.3693 H   0  0  0  0  0  0  0  0  0  0  0  0
   -5.3247    1.6567   -2.8532 H   0  0  0  0  0  0  0  0  0  0  0  0
   -3.9657    1.1683   -3.9134 H   0  0  0  0  0  0  0  0  0  0  0  0
   -4.2050   -0.8008   -2.8822 H   0  0  0  0  0  0  0  0  0  0  0  0
   -5.1452   -1.2789   -0.6827 H   0  0  0  0  0  0  0  0  0  0  0  0
   -6.1565   -0.2860   -1.7098 H   0  0  0  0  0  0  0  0  0  0  0  0
   -6.3814    1.2452   -0.1233 H   0  0  0  0  0  0  0  0  0  0  0  0
   -7.3683    4.6833    3.6132 H   0  0  0  0  0  0  0  0  0  0  0  0
   -5.1334    4.0343    4.7295 H   0  0  0  0  0  0  0  0  0  0  0  0
   -3.4225    1.5588    4.4913 H   0  0  0  0  0  0  0  0  0  0  0  0
   -2.6218    2.3722    3.1132 H   0  0  0  0  0  0  0  0  0  0  0  0
  1  2  1  0
  2  3  1  0
  2  4  1  0
  2  5  1  0
  5  6  1  0
  6  7  2  0
  6  8  1  0
  8  9  2  0
  9 10  1  0
  9 11  1  0
 11 12  2  0
 12 13  1  0
 13 14  1  0
 14 15  1  0
 15 16  1  0
 16 17  1  0
 17 18  1  0
 18 19  1  0
 17 20  1  0
 20 21  2  0
 20 22  1  0
 22 23  1  0
 23 24  1  0
 24 25  1  0
 24 26  1  0
 24 27  1  0
 13 28  2  0
 28 29  1  0
 11 30  1  0
 30 31  2  0
 30 32  1  0
 32 33  1  0
 33 34  1  0
 34 35  1  0
 35 36  1  0
 36 37  1  0
 37 38  1  0
 38 39  1  0
 39 40  2  0
 39 41  1  0
 41 42  1  0
 42 43  1  0
 43 44  2  0
 44 45  1  0
 45 46  1  0
 28  8  1  0
 36 32  1  0
 45 41  2  0
 19 14  1  0
 27 22  1  0
  1 47  1  0
  1 48  1  0
  1 49  1  0
  3 50  1  0
  3 51  1  0
  3 52  1  0
  4 53  1  0
  4 54  1  0
  4 55  1  0
 10 56  1  0
 10 57  1  0
 12 58  1  0
 15 59  1  0
 15 60  1  0
 16 61  1  0
 16 62  1  0
 17 63  1  0
 18 64  1  0
 18 65  1  0
 19 66  1  0
 19 67  1  0
 23 68  1  0
 23 69  1  0
 27 70  1  0
 27 71  1  0
 29 72  1  0
 33 73  1  0
 33 74  1  0
 34 75  1  0
 34 76  1  0
 35 77  1  0
 35 78  1  0
 36 79  1  6
 37 80  1  0
 37 81  1  0
 38 82  1  0
 43 83  1  0
 44 84  1  0
 46 85  1  0
 46 86  1  0
M  END
$$$$
[H]c1nc2c([H])c(OC([H])([H])C([H])([H])C([H])([H])N3C([H])([H])C([H])([H])N(C([H])([H])[H])C([H])([H])C3([H])[H])c(OC([H])([H])[H])c([H])c2c(N([H])[C@@]2([H])C([H])([H])[C@@]([H])(C([H])([H])C([H])([H])[H])C2(C([H])([H])[H])C([H])([H])[H])c1C#N
     RDKit          3D

 73 76  0  0  0  0  0  0  0  0999 V2000
   -8.0888    0.6050    2.0201 C   0  0  0  0  0  0  0  0  0  0  0  0
   -7.6147   -0.6625    1.2986 C   0  0  0  0  0  0  0  0  0  0  0  0
   -6.1251   -0.7106    1.3754 C   0  0  2  0  0  0  0  0  0  0  0  0
   -5.4359    0.5076    0.7164 C   0  0  0  0  0  0  0  0  0  0  0  0
   -4.3417   -0.4510    0.3433 C   0  0  2  0  0  0  0  0  0  0  0  0
   -3.5802   -0.2448   -0.8289 N   0  0  0  0  0  0  0  0  0  0  0  0
   -2.7307    0.8415   -1.0742 C   0  0  0  0  0  0  0  0  0  0  0  0
   -3.1700    1.9270   -1.7798 C   0  0  0  0  0  0  0  0  0  0  0  0
   -2.2751    2.9853   -1.9714 C   0  0  0  0  0  0  0  0  0  0  0  0
   -1.0355    2.9236   -1.4765 N   0  0  0  0  0  0  0  0  0  0  0  0
   -0.6043    1.8401   -0.7760 C   0  0  0  0  0  0  0  0  0  0  0  0
    0.6923    1.8231   -0.2844 C   0  0  0  0  0  0  0  0  0  0  0  0
    1.1967    0.7649    0.4278 C   0  0  0  0  0  0  0  0  0  0  0  0
    2.4572    0.6924    0.9289 O   0  0  0  0  0  0  0  0  0  0  0  0
    3.5476    1.5006    0.8946 C   0  0  0  0  0  0  0  0  0  0  0  0
    4.1802    1.7795   -0.4356 C   0  0  0  0  0  0  0  0  0  0  0  0
    4.6658    0.5467   -1.1309 C   0  0  0  0  0  0  0  0  0  0  0  0
    5.6573   -0.2054   -0.4508 N   0  0  0  0  0  0  0  0  0  0  0  0
    6.0572   -1.4044   -1.1430 C   0  0  0  0  0  0  0  0  0  0  0  0
    7.4810   -1.2815   -1.5800 C   0  0  0  0  0  0  0  0  0  0  0  0
    8.4011   -1.1916   -0.4605 N   0  0  0  0  0  0  0  0  0  0  0  0
    8.6166   -2.5434    0.0777 C   0  0  0  0  0  0  0  0  0  0  0  0
    7.8611   -0.3598    0.5992 C   0  0  0  0  0  0  0  0  0  0  0  0
    6.7507    0.5351    0.0874 C   0  0  0  0  0  0  0  0  0  0  0  0
    0.3060   -0.3173    0.6338 C   0  0  0  0  0  0  0  0  0  0  0  0
    0.8260   -1.3820    1.3561 O   0  0  0  0  0  0  0  0  0  0  0  0
   -0.0103   -2.4940    1.5974 C   0  0  0  0  0  0  0  0  0  0  0  0
   -0.9735   -0.3157    0.1567 C   0  0  0  0  0  0  0  0  0  0  0  0
   -1.4358    0.7702   -0.5544 C   0  0  0  0  0  0  0  0  0  0  0  0
   -4.4852    2.0344   -2.3516 C   0  0  0  0  0  0  0  0  0  0  0  0
   -5.5361    2.1008   -2.7983 N   0  0  0  0  0  0  0  0  0  0  0  0
   -5.4372   -1.5240    0.2699 C   0  0  0  0  0  0  0  0  0  0  0  0
   -4.9682   -2.8847    0.7092 C   0  0  0  0  0  0  0  0  0  0  0  0
   -6.1464   -1.5505   -1.0418 C   0  0  0  0  0  0  0  0  0  0  0  0
   -7.6075    0.6723    3.0289 H   0  0  0  0  0  0  0  0  0  0  0  0
   -9.1932    0.5843    2.1632 H   0  0  0  0  0  0  0  0  0  0  0  0
   -7.7564    1.5124    1.4655 H   0  0  0  0  0  0  0  0  0  0  0  0
   -8.0610   -1.5008    1.8686 H   0  0  0  0  0  0  0  0  0  0  0  0
   -7.9873   -0.5848    0.2767 H   0  0  0  0  0  0  0  0  0  0  0  0
   -5.6880   -0.9013    2.3547 H   0  0  0  0  0  0  0  0  0  0  0  0
   -6.1280    0.8408   -0.0755 H   0  0  0  0  0  0  0  0  0  0  0  0
   -5.1490    1.2779    1.4609 H   0  0  0  0  0  0  0  0  0  0  0  0
   -3.7454   -0.6684    1.2741 H   0  0  0  0  0  0  0  0  0  0  0  0
   -3.6462   -0.9695   -1.6044 H   0  0  0  0  0  0  0  0  0  0  0  0
   -2.6150    3.8456   -2.5270 H   0  0  0  0  0  0  0  0  0  0  0  0
    1.3196    2.6852   -0.4572 H   0  0  0  0  0  0  0  0  0  0  0  0
    3.2210    2.5230    1.2810 H   0  0  0  0  0  0  0  0  0  0  0  0
    4.3021    1.1777    1.6568 H   0  0  0  0  0  0  0  0  0  0  0  0
    3.4431    2.2452   -1.1000 H   0  0  0  0  0  0  0  0  0  0  0  0
    4.9957    2.5542   -0.3503 H   0  0  0  0  0  0  0  0  0  0  0  0
    5.0596    0.8440   -2.1251 H   0  0  0  0  0  0  0  0  0  0  0  0
    3.7808   -0.0936   -1.3267 H   0  0  0  0  0  0  0  0  0  0  0  0
    5.4320   -1.4706   -2.0604 H   0  0  0  0  0  0  0  0  0  0  0  0
    5.8842   -2.3261   -0.5640 H   0  0  0  0  0  0  0  0  0  0  0  0
    7.7532   -2.2212   -2.1253 H   0  0  0  0  0  0  0  0  0  0  0  0
    7.6263   -0.4073   -2.2187 H   0  0  0  0  0  0  0  0  0  0  0  0
    8.0144   -3.2641   -0.4858 H   0  0  0  0  0  0  0  0  0  0  0  0
    8.3080   -2.6027    1.1379 H   0  0  0  0  0  0  0  0  0  0  0  0
    9.6799   -2.8068   -0.0831 H   0  0  0  0  0  0  0  0  0  0  0  0
    8.6893    0.3161    0.9137 H   0  0  0  0  0  0  0  0  0  0  0  0
    7.4867   -1.0018    1.4147 H   0  0  0  0  0  0  0  0  0  0  0  0
    7.2075    1.1108   -0.7716 H   0  0  0  0  0  0  0  0  0  0  0  0
    6.5376    1.2618    0.8590 H   0  0  0  0  0  0  0  0  0  0  0  0
    0.5652   -3.3478    2.0381 H   0  0  0  0  0  0  0  0  0  0  0  0
   -0.4230   -2.8070    0.6075 H   0  0  0  0  0  0  0  0  0  0  0  0
   -0.8458   -2.2294    2.2829 H   0  0  0  0  0  0  0  0  0  0  0  0
   -1.6100   -1.1615    0.3372 H   0  0  0  0  0  0  0  0  0  0  0  0
   -5.8122   -3.5847    0.5632 H   0  0  0  0  0  0  0  0  0  0  0  0
   -4.1794   -3.2041   -0.0201 H   0  0  0  0  0  0  0  0  0  0  0  0
   -4.5989   -2.9049    1.7436 H   0  0  0  0  0  0  0  0  0  0  0  0
   -6.2431   -0.5750   -1.5241 H   0  0  0  0  0  0  0  0  0  0  0  0
   -7.1586   -2.0226   -0.9590 H   0  0  0  0  0  0  0  0  0  0  0  0
   -5.5607   -2.2496   -1.7046 H   0  0  0  0  0  0  0  0  0  0  0  0
  1  2  1  0
  2  3  1  0
  3  4  1  0
  4  5  1  0
  5  6  1  0
  6  7  1  0
  7  8  2  0
  8  9  1  0
  9 10  2  0
 10 11  1  0
 11 12  2  0
 12 13  1  0
 13 14  1  0
 14 15  1  0
 15 16  1  0
 16 17  1  0
 17 18  1  0
 18 19  1  0
 19 20  1  0
 20 21  1  0
 21 22  1  0
 21 23  1  0
 23 24  1  0
 13 25  2  0
 25 26  1  0
 26 27  1  0
 25 28  1  0
 28 29  2  0
  8 30  1  0
 30 31  3  0
  5 32  1  0
 32 33  1  0
 32 34  1  0
 32  3  1  0
 29  7  1  0
 29 11  1  0
 24 18  1  0
  1 35  1  0
  1 36  1  0
  1 37  1  0
  2 38  1  0
  2 39  1  0
  3 40  1  1
  4 41  1  0
  4 42  1  0
  5 43  1  1
  6 44  1  0
  9 45  1  0
 12 46  1  0
 15 47  1  0
 15 48  1  0
 16 49  1  0
 16 50  1  0
 17 51  1  0
 17 52  1  0
 19 53  1  0
 19 54  1  0
 20 55  1  0
 20 56  1  0
 22 57  1  0
 22 58  1  0
 22 59  1  0
 23 60  1  0
 23 61  1  0
 24 62  1  0
 24 63  1  0
 27 64  1  0
 27 65  1  0
 27 66  1  0
 28 67  1  0
 33 68  1  0
 33 69  1  0
 33 70  1  0
 34 71  1  0
 34 72  1  0
 34 73  1  0
M  END
$$$$
[H]OC(=O)C([H])([H])C([H])([H])C([H])([H])C([H])([H])N([H])C(=S)c1c([H])c([H])c([H])c([H])c1N([H])[H]
     RDKit          3D

 33 33  0  0  0  0  0  0  0  0999 V2000
   -2.5393   -1.3011   -1.1511 N   0  0  0  0  0  0  0  0  0  0  0  0
   -3.0963   -0.0787   -0.6282 C   0  0  0  0  0  0  0  0  0  0  0  0
   -4.4551    0.1501   -0.7589 C   0  0  0  0  0  0  0  0  0  0  0  0
   -4.9899    1.3205   -0.2601 C   0  0  0  0  0  0  0  0  0  0  0  0
   -4.1266    2.2220    0.3561 C   0  0  0  0  0  0  0  0  0  0  0  0
   -2.7776    1.9856    0.4811 C   0  0  0  0  0  0  0  0  0  0  0  0
   -2.2355    0.8102   -0.0188 C   0  0  0  0  0  0  0  0  0  0  0  0
   -0.7916    0.5367    0.1031 C   0  0  0  0  0  0  0  0  0  0  0  0
    0.2190    1.6940   -0.4308 S   0  0  0  0  0  0  0  0  0  0  0  0
   -0.3131   -0.6669    0.6587 N   0  0  0  0  0  0  0  0  0  0  0  0
    1.0659   -0.9836    0.7982 C   0  0  0  0  0  0  0  0  0  0  0  0
    1.8165   -1.2247   -0.4789 C   0  0  0  0  0  0  0  0  0  0  0  0
    3.2314   -1.5625   -0.1456 C   0  0  0  0  0  0  0  0  0  0  0  0
    3.9991   -0.5285    0.5941 C   0  0  0  0  0  0  0  0  0  0  0  0
    4.1653    0.7561   -0.0868 C   0  0  0  0  0  0  0  0  0  0  0  0
    4.8364    1.7717    0.5765 O   0  0  0  0  0  0  0  0  0  0  0  0
    3.7361    0.9997   -1.2397 O   0  0  0  0  0  0  0  0  0  0  0  0
   -1.7233   -1.3131   -1.8009 H   0  0  0  0  0  0  0  0  0  0  0  0
   -2.9414   -2.2299   -0.8923 H   0  0  0  0  0  0  0  0  0  0  0  0
   -5.0894   -0.5804   -1.2476 H   0  0  0  0  0  0  0  0  0  0  0  0
   -6.0484    1.5484   -0.3357 H   0  0  0  0  0  0  0  0  0  0  0  0
   -4.5433    3.1490    0.7507 H   0  0  0  0  0  0  0  0  0  0  0  0
   -2.1066    2.6860    0.9591 H   0  0  0  0  0  0  0  0  0  0  0  0
   -1.0267   -1.3702    0.9879 H   0  0  0  0  0  0  0  0  0  0  0  0
    1.2125   -1.8892    1.4335 H   0  0  0  0  0  0  0  0  0  0  0  0
    1.5460   -0.1405    1.3384 H   0  0  0  0  0  0  0  0  0  0  0  0
    1.7349   -0.4131   -1.2122 H   0  0  0  0  0  0  0  0  0  0  0  0
    1.3788   -2.1535   -0.9607 H   0  0  0  0  0  0  0  0  0  0  0  0
    3.7936   -1.9377   -1.0449 H   0  0  0  0  0  0  0  0  0  0  0  0
    3.1884   -2.4700    0.5288 H   0  0  0  0  0  0  0  0  0  0  0  0
    5.0210   -0.9386    0.8045 H   0  0  0  0  0  0  0  0  0  0  0  0
    3.5454   -0.3678    1.5931 H   0  0  0  0  0  0  0  0  0  0  0  0
    4.3138    2.5199    1.0566 H   0  0  0  0  0  0  0  0  0  0  0  0
  1  2  1  0
  2  3  2  0
  3  4  1  0
  4  5  2  0
  5  6  1  0
  6  7  2  0
  7  8  1  0
  8  9  2  0
  8 10  1  0
 10 11  1  0
 11 12  1  0
 12 13  1  0
 13 14  1  0
 14 15  1  0
 15 16  1  0
 15 17  2  0
  7  2  1  0
  1 18  1  0
  1 19  1  0
  3 20  1  0
  4 21  1  0
  5 22  1  0
  6 23  1  0
 10 24  1  0
 11 25  1  0
 11 26  1  0
 12 27  1  0
 12 28  1  0
 13 29  1  0
 13 30  1  0
 14 31  1  0
 14 32  1  0
 16 33  1  0
M  END
$$$$
[H]Oc1c([H])c([H])c([H])c(C([H])([H])N([H])C([H])([H])c2c([H])c([H])c(C(=O)N3C([H])([H])C([H])([H])C([H])([H])C3([H])c3c([H])c([H])c([H])c(F)c3[H])c([H])c2[H])c1[H]
     RDKit          3D

 55 58  0  0  0  0  0  0  0  0999 V2000
   -8.5839   -2.6117   -0.5231 O   0  0  0  0  0  0  0  0  0  0  0  0
   -7.9543   -1.3539   -0.5770 C   0  0  0  0  0  0  0  0  0  0  0  0
   -8.3647   -0.5117   -1.5896 C   0  0  0  0  0  0  0  0  0  0  0  0
   -7.7498    0.7238   -1.6468 C   0  0  0  0  0  0  0  0  0  0  0  0
   -6.7787    1.1077   -0.7491 C   0  0  0  0  0  0  0  0  0  0  0  0
   -6.3849    0.2482    0.2550 C   0  0  0  0  0  0  0  0  0  0  0  0
   -5.3306    0.6809    1.2199 C   0  0  0  0  0  0  0  0  0  0  0  0
   -4.0073    0.3304    0.7329 N   0  0  0  0  0  0  0  0  0  0  0  0
   -2.9742    0.7438    1.6592 C   0  0  0  0  0  0  0  0  0  0  0  0
   -1.6217    0.3945    1.1737 C   0  0  0  0  0  0  0  0  0  0  0  0
   -1.0213   -0.8136    1.4635 C   0  0  0  0  0  0  0  0  0  0  0  0
    0.2305   -1.1459    1.0189 C   0  0  0  0  0  0  0  0  0  0  0  0
    0.9621   -0.2554    0.2389 C   0  0  0  0  0  0  0  0  0  0  0  0
    0.4016    0.9465   -0.0674 C   0  0  0  0  0  0  0  0  0  0  0  0
   -0.8823    1.2588    0.4023 C   0  0  0  0  0  0  0  0  0  0  0  0
    2.2765   -0.6433   -0.2146 C   0  0  0  0  0  0  0  0  0  0  0  0
    2.6144   -1.8536    0.1737 O   0  0  0  0  0  0  0  0  0  0  0  0
    3.2254    0.0533   -0.9858 N   0  0  0  0  0  0  0  0  0  0  0  0
    3.2147    1.3457   -1.5617 C   0  0  0  0  0  0  0  0  0  0  0  0
    4.5013    1.5320   -2.3250 C   0  0  0  0  0  0  0  0  0  0  0  0
    5.0355    0.1449   -2.5073 C   0  0  0  0  0  0  0  0  0  0  0  0
    4.5150   -0.5992   -1.3225 C   0  0  0  0  0  0  0  0  0  0  0  0
    5.4725   -0.5097   -0.2069 C   0  0  0  0  0  0  0  0  0  0  0  0
    5.6404    0.6043    0.5904 C   0  0  0  0  0  0  0  0  0  0  0  0
    6.5779    0.5999    1.6177 C   0  0  0  0  0  0  0  0  0  0  0  0
    7.3483   -0.5269    1.8447 C   0  0  0  0  0  0  0  0  0  0  0  0
    7.1838   -1.6396    1.0525 C   0  0  0  0  0  0  0  0  0  0  0  0
    7.9538   -2.7389    1.2945 F   0  0  0  0  0  0  0  0  0  0  0  0
    6.2643   -1.6300    0.0475 C   0  0  0  0  0  0  0  0  0  0  0  0
   -6.9869   -0.9866    0.3268 C   0  0  0  0  0  0  0  0  0  0  0  0
   -8.1321   -3.3437   -1.0559 H   0  0  0  0  0  0  0  0  0  0  0  0
   -9.1353   -0.8206   -2.2993 H   0  0  0  0  0  0  0  0  0  0  0  0
   -8.0621    1.3977   -2.4383 H   0  0  0  0  0  0  0  0  0  0  0  0
   -6.3076    2.0997   -0.8217 H   0  0  0  0  0  0  0  0  0  0  0  0
   -5.5595    0.2371    2.1938 H   0  0  0  0  0  0  0  0  0  0  0  0
   -5.3582    1.7875    1.2994 H   0  0  0  0  0  0  0  0  0  0  0  0
   -4.0121   -0.7053    0.6064 H   0  0  0  0  0  0  0  0  0  0  0  0
   -3.1693    0.1796    2.6121 H   0  0  0  0  0  0  0  0  0  0  0  0
   -2.9995    1.8057    1.8905 H   0  0  0  0  0  0  0  0  0  0  0  0
   -1.6012   -1.5109    2.0776 H   0  0  0  0  0  0  0  0  0  0  0  0
    0.6353   -2.1186    1.2904 H   0  0  0  0  0  0  0  0  0  0  0  0
    0.8621    1.7040   -0.6562 H   0  0  0  0  0  0  0  0  0  0  0  0
   -1.3411    2.2150    0.1649 H   0  0  0  0  0  0  0  0  0  0  0  0
    3.0940    2.1692   -0.8042 H   0  0  0  0  0  0  0  0  0  0  0  0
    2.4021    1.3887   -2.3397 H   0  0  0  0  0  0  0  0  0  0  0  0
    5.2215    2.2040   -1.8029 H   0  0  0  0  0  0  0  0  0  0  0  0
    4.3205    2.0236   -3.3155 H   0  0  0  0  0  0  0  0  0  0  0  0
    4.5827   -0.2463   -3.4595 H   0  0  0  0  0  0  0  0  0  0  0  0
    6.1462    0.1185   -2.5591 H   0  0  0  0  0  0  0  0  0  0  0  0
    4.3073   -1.6657   -1.5675 H   0  0  0  0  0  0  0  0  0  0  0  0
    5.0537    1.4755    0.4344 H   0  0  0  0  0  0  0  0  0  0  0  0
    6.7335    1.4457    2.2532 H   0  0  0  0  0  0  0  0  0  0  0  0
    8.0856   -0.5454    2.6445 H   0  0  0  0  0  0  0  0  0  0  0  0
    6.1415   -2.5071   -0.5695 H   0  0  0  0  0  0  0  0  0  0  0  0
   -6.6855   -1.6826    1.1194 H   0  0  0  0  0  0  0  0  0  0  0  0
  1  2  1  0
  2  3  2  0
  3  4  1  0
  4  5  2  0
  5  6  1  0
  6  7  1  0
  7  8  1  0
  8  9  1  0
  9 10  1  0
 10 11  2  0
 11 12  1  0
 12 13  2  0
 13 14  1  0
 14 15  2  0
 13 16  1  0
 16 17  2  0
 16 18  1  0
 18 19  1  0
 19 20  1  0
 20 21  1  0
 21 22  1  0
 22 23  1  0
 23 24  2  0
 24 25  1  0
 25 26  2  0
 26 27  1  0
 27 28  1  0
 27 29  2  0
  6 30  2  0
 30  2  1  0
 15 10  1  0
 22 18  1  0
 29 23  1  0
  1 31  1  0
  3 32  1  0
  4 33  1  0
  5 34  1  0
  7 35  1  0
  7 36  1  0
  8 37  1  0
  9 38  1  0
  9 39  1  0
 11 40  1  0
 12 41  1  0
 14 42  1  0
 15 43  1  0
 19 44  1  0
 19 45  1  0
 20 46  1  0
 20 47  1  0
 21 48  1  0
 21 49  1  0
 22 50  1  0
 24 51  1  0
 25 52  1  0
 26 53  1  0
 29 54  1  0
 30 55  1  0
M  END
$$$$
[H]c1nc2c([H])c(OC([H])([H])C([H])([H])C([H])([H])N3C([H])([H])C([H])([H])OC([H])([H])C3([H])[H])c(OC([H])([H])[H])c([H])c2c(Oc2c([H])c([H])c(C(=O)N([H])c3c([H])c([H])c(F)c(C([H])([H])[H])c3[H])c([H])c2[H])c1[H]
     RDKit          3D

 72 76  0  0  0  0  0  0  0  0999 V2000
    1.7391   -0.6445   -4.2136 C   0  0  0  0  0  0  0  0  0  0  0  0
    2.7633   -0.6979   -3.2636 O   0  0  0  0  0  0  0  0  0  0  0  0
    2.4942   -0.5928   -1.9141 C   0  0  0  0  0  0  0  0  0  0  0  0
    1.2134   -0.4403   -1.4711 C   0  0  0  0  0  0  0  0  0  0  0  0
    0.9728   -0.3361   -0.1153 C   0  0  0  0  0  0  0  0  0  0  0  0
   -0.3480   -0.1781    0.3222 C   0  0  0  0  0  0  0  0  0  0  0  0
   -1.3182   -0.1433   -0.6416 O   0  0  0  0  0  0  0  0  0  0  0  0
   -2.6456   -0.0010   -0.4430 C   0  0  0  0  0  0  0  0  0  0  0  0
   -3.2589    1.2407   -0.4974 C   0  0  0  0  0  0  0  0  0  0  0  0
   -4.6148    1.3787   -0.3010 C   0  0  0  0  0  0  0  0  0  0  0  0
   -5.4153    0.2814   -0.0411 C   0  0  0  0  0  0  0  0  0  0  0  0
   -4.8235   -0.9614    0.0195 C   0  0  0  0  0  0  0  0  0  0  0  0
   -3.4666   -1.0970   -0.1780 C   0  0  0  0  0  0  0  0  0  0  0  0
   -6.8695    0.3738    0.1238 C   0  0  0  0  0  0  0  0  0  0  0  0
   -7.4832    0.9776   -0.7836 O   0  0  0  0  0  0  0  0  0  0  0  0
   -7.5762   -0.1652    1.2131 N   0  0  0  0  0  0  0  0  0  0  0  0
   -8.9902   -0.0688    1.3123 C   0  0  0  0  0  0  0  0  0  0  0  0
   -9.5514    0.1255    2.5633 C   0  0  0  0  0  0  0  0  0  0  0  0
  -10.9290    0.1787    2.6779 C   0  0  0  0  0  0  0  0  0  0  0  0
  -11.7139    0.0384    1.5563 C   0  0  0  0  0  0  0  0  0  0  0  0
  -13.0841    0.0900    1.6614 F   0  0  0  0  0  0  0  0  0  0  0  0
  -11.1584   -0.1534    0.3265 C   0  0  0  0  0  0  0  0  0  0  0  0
  -12.0371   -0.3165   -0.8893 C   0  0  0  0  0  0  0  0  0  0  0  0
   -9.7839   -0.2070    0.2047 C   0  0  0  0  0  0  0  0  0  0  0  0
   -0.5521   -0.0737    1.6806 C   0  0  0  0  0  0  0  0  0  0  0  0
    0.4778   -0.1191    2.6034 C   0  0  0  0  0  0  0  0  0  0  0  0
    1.7289   -0.2724    2.1357 N   0  0  0  0  0  0  0  0  0  0  0  0
    1.9885   -0.3805    0.8074 C   0  0  0  0  0  0  0  0  0  0  0  0
    3.2601   -0.5354    0.3206 C   0  0  0  0  0  0  0  0  0  0  0  0
    3.5947   -0.6490   -1.0196 C   0  0  0  0  0  0  0  0  0  0  0  0
    4.8160   -0.7993   -1.4549 O   0  0  0  0  0  0  0  0  0  0  0  0
    6.0122   -0.9463   -1.8794 C   0  0  0  0  0  0  0  0  0  0  0  0
    7.0709    0.1289   -1.5496 C   0  0  0  0  0  0  0  0  0  0  0  0
    7.2172    0.1812   -0.0647 C   0  0  0  0  0  0  0  0  0  0  0  0
    8.2117    1.1583    0.3573 N   0  0  0  0  0  0  0  0  0  0  0  0
    8.3298    1.0720    1.7931 C   0  0  0  0  0  0  0  0  0  0  0  0
    9.6189    0.3820    2.2053 C   0  0  0  0  0  0  0  0  0  0  0  0
    9.9078   -0.7478    1.4644 O   0  0  0  0  0  0  0  0  0  0  0  0
    9.9199   -0.5663    0.1034 C   0  0  0  0  0  0  0  0  0  0  0  0
    9.5084    0.8613   -0.2258 C   0  0  0  0  0  0  0  0  0  0  0  0
    1.1403   -1.5496   -4.3138 H   0  0  0  0  0  0  0  0  0  0  0  0
    2.2492   -0.3895   -5.1913 H   0  0  0  0  0  0  0  0  0  0  0  0
    1.0705    0.2270   -4.0160 H   0  0  0  0  0  0  0  0  0  0  0  0
    0.3678   -0.3978   -2.1454 H   0  0  0  0  0  0  0  0  0  0  0  0
   -2.6103    2.0898   -0.7050 H   0  0  0  0  0  0  0  0  0  0  0  0
   -5.0613    2.3712   -0.3513 H   0  0  0  0  0  0  0  0  0  0  0  0
   -5.3857   -1.8841    0.2215 H   0  0  0  0  0  0  0  0  0  0  0  0
   -3.0130   -2.0736   -0.1311 H   0  0  0  0  0  0  0  0  0  0  0  0
   -7.1019   -0.6670    2.0097 H   0  0  0  0  0  0  0  0  0  0  0  0
   -8.9260    0.2393    3.4534 H   0  0  0  0  0  0  0  0  0  0  0  0
  -11.4121    0.3341    3.6410 H   0  0  0  0  0  0  0  0  0  0  0  0
  -11.8313   -1.3563   -1.2737 H   0  0  0  0  0  0  0  0  0  0  0  0
  -13.0992   -0.2262   -0.5916 H   0  0  0  0  0  0  0  0  0  0  0  0
  -11.6957    0.4503   -1.6101 H   0  0  0  0  0  0  0  0  0  0  0  0
   -9.3892   -0.3810   -0.8050 H   0  0  0  0  0  0  0  0  0  0  0  0
   -1.5822    0.0490    2.0138 H   0  0  0  0  0  0  0  0  0  0  0  0
    0.2405   -0.0332    3.6542 H   0  0  0  0  0  0  0  0  0  0  0  0
    4.0548   -0.5710    1.0726 H   0  0  0  0  0  0  0  0  0  0  0  0
    6.1741   -1.1681   -2.9899 H   0  0  0  0  0  0  0  0  0  0  0  0
    6.4922   -1.9026   -1.4327 H   0  0  0  0  0  0  0  0  0  0  0  0
    7.9929   -0.1820   -2.0725 H   0  0  0  0  0  0  0  0  0  0  0  0
    6.6853    1.0686   -1.9923 H   0  0  0  0  0  0  0  0  0  0  0  0
    6.2369    0.5637    0.3509 H   0  0  0  0  0  0  0  0  0  0  0  0
    7.4067   -0.7986    0.3864 H   0  0  0  0  0  0  0  0  0  0  0  0
    7.5023    0.4688    2.2449 H   0  0  0  0  0  0  0  0  0  0  0  0
    8.3196    2.0408    2.3010 H   0  0  0  0  0  0  0  0  0  0  0  0
   10.4626    1.1055    2.2458 H   0  0  0  0  0  0  0  0  0  0  0  0
    9.4601    0.0367    3.2622 H   0  0  0  0  0  0  0  0  0  0  0  0
    9.2871   -1.3003   -0.4180 H   0  0  0  0  0  0  0  0  0  0  0  0
   10.9631   -0.6813   -0.2635 H   0  0  0  0  0  0  0  0  0  0  0  0
   10.2439    1.5419    0.2479 H   0  0  0  0  0  0  0  0  0  0  0  0
    9.5324    1.0393   -1.3075 H   0  0  0  0  0  0  0  0  0  0  0  0
  1  2  1  0
  2  3  1  0
  3  4  2  0
  4  5  1  0
  5  6  2  0
  6  7  1  0
  7  8  1  0
  8  9  2  0
  9 10  1  0
 10 11  2  0
 11 12  1  0
 12 13  2  0
 11 14  1  0
 14 15  2  0
 14 16  1  0
 16 17  1  0
 17 18  2  0
 18 19  1  0
 19 20  2  0
 20 21  1  0
 20 22  1  0
 22 23  1  0
 22 24  2  0
  6 25  1  0
 25 26  2  0
 26 27  1  0
 27 28  2  0
 28 29  1  0
 29 30  2  0
 30 31  1  0
 31 32  1  0
 32 33  1  0
 33 34  1  0
 34 35  1  0
 35 36  1  0
 36 37  1  0
 37 38  1  0
 38 39  1  0
 39 40  1  0
 30  3  1  0
 40 35  1  0
 28  5  1  0
 13  8  1  0
 24 17  1  0
  1 41  1  0
  1 42  1  0
  1 43  1  0
  4 44  1  0
  9 45  1  0
 10 46  1  0
 12 47  1  0
 13 48  1  0
 16 49  1  0
 18 50  1  0
 19 51  1  0
 23 52  1  0
 23 53  1  0
 23 54  1  0
 24 55  1  0
 25 56  1  0
 26 57  1  0
 29 58  1  0
 32 59  1  0
 32 60  1  0
 33 61  1  0
 33 62  1  0
 34 63  1  0
 34 64  1  0
 36 65  1  0
 36 66  1  0
 37 67  1  0
 37 68  1  0
 39 69  1  0
 39 70  1  0
 40 71  1  0
 40 72  1  0
M  END
$$$$
[H]ON([H])C(=O)C([H])([H])[C@](C(=O)N([H])C([H])(B1O[C@]2([H])C([H])([H])[C@@]3([H])C([H])([H])[C@]([H])(C1([H])[H])C([H])([H])[C@]([H])(C3([H])[H])C2(O[H])C([H])([H])[H])C([H])([H])C([H])(C([H])([H])[H])C([H])([H])[H])(N([H])C(=O)C(F)(C([H])([H])[H])C([H])([H])[H])C([H])([H])[H]
     RDKit          2D

 79 81  0  0  0  0  0  0  0  0999 V2000
    4.3243    5.4298    0.0000 C   0  0  0  0  0  0  0  0  0  0  0  0
    5.0743    4.1307    0.0000 C   0  0  0  0  0  0  0  0  0  0  0  0
    5.8243    2.8317    0.0000 C   0  0  0  0  0  0  0  0  0  0  0  0
    3.7753    3.3807    0.0000 C   0  0  0  0  0  0  0  0  0  0  0  0
    2.4762    2.6307    0.0000 C   0  0  0  0  0  0  0  0  0  0  0  0
    1.7262    3.9298    0.0000 N   0  0  0  0  0  0  0  0  0  0  0  0
    2.4762    5.2288    0.0000 C   0  0  0  0  0  0  0  0  0  0  0  0
    3.4530    5.3488    0.0000 O   0  0  0  0  0  0  0  0  0  0  0  0
    1.7262    6.5278    0.0000 C   0  0  0  0  0  0  0  0  0  0  0  0
    0.9762    7.8269    0.0000 C   0  0  0  0  0  0  0  0  0  0  0  0
    3.0253    7.2778    0.0000 C   0  0  0  0  0  0  0  0  0  0  0  0
    4.3243    8.0278    0.0000 C   0  0  0  0  0  0  0  0  0  0  0  0
    5.6233    7.2778    0.0000 O   0  0  0  0  0  0  0  0  0  0  0  0
    4.3243    9.5278    0.0000 N   0  0  0  0  0  0  0  0  0  0  0  0
    5.6233   10.2778    0.0000 O   0  0  0  0  0  0  0  0  0  0  0  0
    0.4272    5.7778    0.0000 N   0  0  0  0  0  0  0  0  0  0  0  0
   -0.8718    6.5278    0.0000 C   0  0  0  0  0  0  0  0  0  0  0  0
   -0.6890    8.0167    0.0000 O   0  0  0  0  0  0  0  0  0  0  0  0
   -2.1709    5.7778    0.0000 C   0  0  0  0  0  0  0  0  0  0  0  0
   -3.4699    5.0278    0.0000 C   0  0  0  0  0  0  0  0  0  0  0  0
   -2.9209    7.0769    0.0000 C   0  0  0  0  0  0  0  0  0  0  0  0
   -1.2681    4.5799    0.0000 F   0  0  0  0  0  0  0  0  0  0  0  0
    0.5710    1.5307    0.0000 B   0  0  0  0  0  0  0  0  0  0  0  0
    0.6940    0.2232    0.0000 O   0  0  0  0  0  0  0  0  0  0  0  0
    0.7500   -1.2990    0.0000 C   0  0  0  0  0  0  0  0  0  0  0  0
    0.1000   -0.0000    0.0000 C   0  0  0  0  0  0  0  0  0  0  0  0
    0.7500    1.2990    0.0000 C   0  0  0  0  0  0  0  0  0  0  0  0
   -0.7500    1.2990    0.0000 C   0  0  0  0  0  0  0  0  0  0  0  0
   -1.5000    0.0000    0.0000 C   0  0  0  0  0  0  0  0  0  0  0  0
   -2.2500    1.2990    0.0000 C   0  0  0  0  0  0  0  0  0  0  0  0
   -1.5000    2.5981    0.0000 C   0  0  0  0  0  0  0  0  0  0  0  0
   -0.0000    2.5981    0.0000 C   0  0  0  0  0  0  0  0  0  0  0  0
   -0.1940    2.1177    0.0000 C   0  0  0  0  0  0  0  0  0  0  0  0
   -0.7500   -1.2990    0.0000 C   0  0  0  0  0  0  0  0  0  0  0  0
   -0.4895   -2.7762    0.0000 C   0  0  0  0  0  0  0  0  0  0  0  0
   -2.1595   -1.8121    0.0000 O   0  0  0  0  0  0  0  0  0  0  0  0
    3.7383    6.8105    0.0000 H   0  0  0  0  0  0  0  0  0  0  0  0
    5.6233    6.1798    0.0000 H   0  0  0  0  0  0  0  0  0  0  0  0
    3.1264    4.5270    0.0000 H   0  0  0  0  0  0  0  0  0  0  0  0
    6.3733    4.8807    0.0000 H   0  0  0  0  0  0  0  0  0  0  0  0
    6.5743    1.5326    0.0000 H   0  0  0  0  0  0  0  0  0  0  0  0
    7.1233    3.5817    0.0000 H   0  0  0  0  0  0  0  0  0  0  0  0
    4.6264    1.9289    0.0000 H   0  0  0  0  0  0  0  0  0  0  0  0
    3.1892    4.7615    0.0000 H   0  0  0  0  0  0  0  0  0  0  0  0
    4.3613    2.0000    0.0000 H   0  0  0  0  0  0  0  0  0  0  0  0
    3.3790    1.4328    0.0000 H   0  0  0  0  0  0  0  0  0  0  0  0
    0.2374    4.1126    0.0000 H   0  0  0  0  0  0  0  0  0  0  0  0
    0.2262    9.1259    0.0000 H   0  0  0  0  0  0  0  0  0  0  0  0
   -0.4657    7.4135    0.0000 H   0  0  0  0  0  0  0  0  0  0  0  0
    2.1742    8.7296    0.0000 H   0  0  0  0  0  0  0  0  0  0  0  0
    3.4387    5.8359    0.0000 H   0  0  0  0  0  0  0  0  0  0  0  0
    2.4392    8.6586    0.0000 H   0  0  0  0  0  0  0  0  0  0  0  0
    3.0253   10.2778    0.0000 H   0  0  0  0  0  0  0  0  0  0  0  0
    5.6233   11.7778    0.0000 H   0  0  0  0  0  0  0  0  0  0  0  0
    0.0642    4.3224    0.0000 H   0  0  0  0  0  0  0  0  0  0  0  0
   -4.7690    4.2778    0.0000 H   0  0  0  0  0  0  0  0  0  0  0  0
   -4.3727    6.2258    0.0000 H   0  0  0  0  0  0  0  0  0  0  0  0
   -2.5672    3.8299    0.0000 H   0  0  0  0  0  0  0  0  0  0  0  0
   -3.6709    8.3759    0.0000 H   0  0  0  0  0  0  0  0  0  0  0  0
   -4.3017    6.4908    0.0000 H   0  0  0  0  0  0  0  0  0  0  0  0
   -1.7229    7.9796    0.0000 H   0  0  0  0  0  0  0  0  0  0  0  0
    1.6528   -2.4970    0.0000 H   0  0  0  0  0  0  0  0  0  0  0  0
    2.7580    0.8169    0.0000 H   0  0  0  0  0  0  0  0  0  0  0  0
    2.6491   -0.9642    0.0000 H   0  0  0  0  0  0  0  0  0  0  0  0
    1.3361    2.6798    0.0000 H   0  0  0  0  0  0  0  0  0  0  0  0
   -1.9935    2.1379    0.0000 H   0  0  0  0  0  0  0  0  0  0  0  0
   -0.4895    2.7762    0.0000 H   0  0  0  0  0  0  0  0  0  0  0  0
   -2.9888   -0.1828    0.0000 H   0  0  0  0  0  0  0  0  0  0  0  0
   -3.3991    2.2632    0.0000 H   0  0  0  0  0  0  0  0  0  0  0  0
   -3.5080    0.4821    0.0000 H   0  0  0  0  0  0  0  0  0  0  0  0
   -2.0861    3.9788    0.0000 H   0  0  0  0  0  0  0  0  0  0  0  0
    1.2435    3.4369    0.0000 H   0  0  0  0  0  0  0  0  0  0  0  0
   -0.7727    3.8838    0.0000 H   0  0  0  0  0  0  0  0  0  0  0  0
   -0.4137    4.2393    0.0000 H   0  0  0  0  0  0  0  0  0  0  0  0
    0.7708    4.0729    0.0000 H   0  0  0  0  0  0  0  0  0  0  0  0
   -0.2291   -4.2535    0.0000 H   0  0  0  0  0  0  0  0  0  0  0  0
   -1.9240   -3.2148    0.0000 H   0  0  0  0  0  0  0  0  0  0  0  0
    1.0084   -2.6978    0.0000 H   0  0  0  0  0  0  0  0  0  0  0  0
   -2.5981   -3.2465    0.0000 H   0  0  0  0  0  0  0  0  0  0  0  0
  1  2  1  0
  2  3  1  0
  2  4  1  0
  4  5  1  0
  5  6  1  0
  6  7  1  0
  7  8  2  0
  9  7  1  1
  9 10  1  0
  9 11  1  0
 11 12  1  0
 12 13  2  0
 12 14  1  0
 14 15  1  0
  9 16  1  0
 16 17  1  0
 17 18  2  0
 17 19  1  0
 19 20  1  0
 19 21  1  0
 19 22  1  0
  5 23  1  0
 23 24  1  0
 24 25  1  0
 25 26  1  0
 26 27  1  0
 27 28  1  0
 28 29  1  0
 29 30  1  0
 30 31  1  0
 31 32  1  0
 31 33  1  0
 29 34  1  0
 34 35  1  0
 34 36  1  0
 33 23  1  0
 34 25  1  0
 32 27  1  0
  1 37  1  0
  1 38  1  0
  1 39  1  0
  2 40  1  0
  3 41  1  0
  3 42  1  0
  3 43  1  0
  4 44  1  0
  4 45  1  0
  5 46  1  0
  6 47  1  0
 10 48  1  0
 10 49  1  0
 10 50  1  0
 11 51  1  0
 11 52  1  0
 14 53  1  0
 15 54  1  0
 16 55  1  0
 20 56  1  0
 20 57  1  0
 20 58  1  0
 21 59  1  0
 21 60  1  0
 21 61  1  0
 25 62  1  6
 26 63  1  0
 26 64  1  0
 27 65  1  1
 28 66  1  0
 28 67  1  0
 29 68  1  1
 30 69  1  0
 30 70  1  0
 31 71  1  1
 32 72  1  0
 32 73  1  0
 33 74  1  0
 33 75  1  0
 35 76  1  0
 35 77  1  0
 35 78  1  0
 36 79  1  0
M  END
$$$$
[H]O[C@@]1(C([H])([H])[H])C([H])([H])[C@@]([H])(c2nc(-c3c([H])c(C(=O)N([H])c4c([H])c(C(F)(C([H])([H])[H])C([H])([H])[H])c([H])c([H])c4OC([H])([H])[H])c([H])c([H])c3C([H])([H])[H])c3c(N([H])[H])nc([H])nn23)C1(C([H])([H])[H])C([H])([H])[H]
     RDKit          3D

 75 79  0  0  0  0  0  0  0  0999 V2000
    2.3944   -2.4987   -0.4264 C   0  0  0  0  0  0  0  0  0  0  0  0
    2.8021   -1.1326   -0.1330 O   0  0  0  0  0  0  0  0  0  0  0  0
    4.1669   -0.9223    0.0118 C   0  0  0  0  0  0  0  0  0  0  0  0
    5.0614   -1.9511   -0.0462 C   0  0  0  0  0  0  0  0  0  0  0  0
    6.4079   -1.7596    0.0893 C   0  0  0  0  0  0  0  0  0  0  0  0
    6.9181   -0.5110    0.2807 C   0  0  0  0  0  0  0  0  0  0  0  0
    6.0552    0.5635    0.3440 C   0  0  0  0  0  0  0  0  0  0  0  0
    4.6629    0.3904    0.2180 C   0  0  0  0  0  0  0  0  0  0  0  0
    3.7263    1.3828    0.3619 N   0  0  0  0  0  0  0  0  0  0  0  0
    2.8711    2.3171    0.4976 C   0  0  0  0  0  0  0  0  0  0  0  0
    3.5145    3.5877    0.7806 O   0  0  0  0  0  0  0  0  0  0  0  0
    1.4752    2.6528    0.4842 C   0  0  0  0  0  0  0  0  0  0  0  0
    1.0350    3.9290    0.3083 C   0  0  0  0  0  0  0  0  0  0  0  0
   -0.2953    4.3205    0.0501 C   0  0  0  0  0  0  0  0  0  0  0  0
   -1.2044    3.2701   -0.0162 C   0  0  0  0  0  0  0  0  0  0  0  0
   -2.6455    3.5648   -0.3295 C   0  0  0  0  0  0  0  0  0  0  0  0
   -0.8145    1.9630    0.1576 C   0  0  0  0  0  0  0  0  0  0  0  0
    0.4961    1.6799    0.4037 C   0  0  0  0  0  0  0  0  0  0  0  0
   -1.8821    0.9714   -0.0582 C   0  0  0  0  0  0  0  0  0  0  0  0
   -3.0224    0.8511    0.5911 N   0  0  0  0  0  0  0  0  0  0  0  0
   -3.7703   -0.1788    0.0996 C   0  0  0  0  0  0  0  0  0  0  0  0
   -5.1058   -0.4264    0.5983 C   0  0  2  0  0  0  0  0  0  0  0  0
   -5.2877   -1.1447    1.9143 C   0  0  0  0  0  0  0  0  0  0  0  0
   -6.7238   -1.3567    1.4312 C   0  0  2  0  0  0  0  0  0  0  0  0
   -7.5661   -0.1577    1.7192 C   0  0  0  0  0  0  0  0  0  0  0  0
   -7.3076   -2.5733    1.7749 O   0  0  0  0  0  0  0  0  0  0  0  0
   -6.0361   -1.3968    0.0304 C   0  0  0  0  0  0  0  0  0  0  0  0
   -5.6734   -2.8225   -0.1900 C   0  0  0  0  0  0  0  0  0  0  0  0
   -7.0457   -0.8460   -0.9658 C   0  0  0  0  0  0  0  0  0  0  0  0
   -3.0284   -0.6764   -0.8720 N   0  0  0  0  0  0  0  0  0  0  0  0
   -3.2278   -1.6808   -1.7251 N   0  0  0  0  0  0  0  0  0  0  0  0
   -2.3840   -2.0244   -2.6662 C   0  0  0  0  0  0  0  0  0  0  0  0
   -1.2278   -1.3577   -2.8221 N   0  0  0  0  0  0  0  0  0  0  0  0
   -0.9360   -0.3400   -2.0054 C   0  0  0  0  0  0  0  0  0  0  0  0
    0.2187    0.4111   -2.2973 N   0  0  0  0  0  0  0  0  0  0  0  0
   -1.8711   -0.0137   -1.0106 C   0  0  0  0  0  0  0  0  0  0  0  0
    8.3754   -0.2551    0.3953 C   0  0  0  0  0  0  0  0  0  0  0  0
    9.2833   -1.2316   -0.2229 C   0  0  0  0  0  0  0  0  0  0  0  0
    8.6415    1.1367   -0.2451 C   0  0  0  0  0  0  0  0  0  0  0  0
    8.6161   -0.0435    1.7624 F   0  0  0  0  0  0  0  0  0  0  0  0
    1.4420   -2.3679   -0.9355 H   0  0  0  0  0  0  0  0  0  0  0  0
    3.1240   -2.7550   -1.2779 H   0  0  0  0  0  0  0  0  0  0  0  0
    2.4964   -3.1838    0.3689 H   0  0  0  0  0  0  0  0  0  0  0  0
    4.6556   -2.9661   -0.1277 H   0  0  0  0  0  0  0  0  0  0  0  0
    7.0905   -2.5889    0.0769 H   0  0  0  0  0  0  0  0  0  0  0  0
    6.4978    1.5391    0.4785 H   0  0  0  0  0  0  0  0  0  0  0  0
    4.6468    2.3171   -0.1100 H   0  0  0  0  0  0  0  0  0  0  0  0
    1.7289    4.7348    0.3669 H   0  0  0  0  0  0  0  0  0  0  0  0
   -0.5993    5.3125   -0.1033 H   0  0  0  0  0  0  0  0  0  0  0  0
   -2.7005    4.6430   -0.6464 H   0  0  0  0  0  0  0  0  0  0  0  0
   -2.9446    2.9119   -1.1693 H   0  0  0  0  0  0  0  0  0  0  0  0
   -3.2364    3.4515    0.5696 H   0  0  0  0  0  0  0  0  0  0  0  0
    0.7784    0.6486    0.5788 H   0  0  0  0  0  0  0  0  0  0  0  0
   -5.7004    0.5753    0.7630 H   0  0  0  0  0  0  0  0  0  0  0  0
   -5.2427   -0.5339    2.8108 H   0  0  0  0  0  0  0  0  0  0  0  0
   -4.8005   -2.1536    1.9810 H   0  0  0  0  0  0  0  0  0  0  0  0
   -8.0816    0.3183    0.8980 H   0  0  0  0  0  0  0  0  0  0  0  0
   -8.3501   -0.4995    2.4551 H   0  0  0  0  0  0  0  0  0  0  0  0
   -7.0278    0.6406    2.2822 H   0  0  0  0  0  0  0  0  0  0  0  0
   -8.2643   -2.4989    1.9371 H   0  0  0  0  0  0  0  0  0  0  0  0
   -4.7513   -3.1840    0.2449 H   0  0  0  0  0  0  0  0  0  0  0  0
   -5.7908   -2.9973   -1.3092 H   0  0  0  0  0  0  0  0  0  0  0  0
   -6.4968   -3.5001    0.2263 H   0  0  0  0  0  0  0  0  0  0  0  0
   -7.0962    0.2431   -0.8087 H   0  0  0  0  0  0  0  0  0  0  0  0
   -8.0147   -1.3403   -0.8964 H   0  0  0  0  0  0  0  0  0  0  0  0
   -6.6730   -0.9574   -2.0161 H   0  0  0  0  0  0  0  0  0  0  0  0
   -2.5784   -2.8680   -3.3673 H   0  0  0  0  0  0  0  0  0  0  0  0
    1.1986    0.0463   -2.1633 H   0  0  0  0  0  0  0  0  0  0  0  0
    0.1071    1.3857   -2.6888 H   0  0  0  0  0  0  0  0  0  0  0  0
    8.7533   -2.0096   -0.7964 H   0  0  0  0  0  0  0  0  0  0  0  0
    9.9910   -1.6897    0.5219 H   0  0  0  0  0  0  0  0  0  0  0  0
    9.9572   -0.6891   -0.9564 H   0  0  0  0  0  0  0  0  0  0  0  0
    8.5060    1.9279    0.5276 H   0  0  0  0  0  0  0  0  0  0  0  0
    9.7139    1.1456   -0.5831 H   0  0  0  0  0  0  0  0  0  0  0  0
    7.9958    1.2515   -1.0904 H   0  0  0  0  0  0  0  0  0  0  0  0
  1  2  1  0
  2  3  1  0
  3  4  2  0
  4  5  1  0
  5  6  2  0
  6  7  1  0
  7  8  2  0
  8  9  1  0
  9 10  1  0
 10 11  2  0
 10 12  1  0
 12 13  2  0
 13 14  1  0
 14 15  2  0
 15 16  1  0
 15 17  1  0
 17 18  2  0
 17 19  1  0
 19 20  1  0
 20 21  2  0
 21 22  1  0
 22 23  1  0
 23 24  1  0
 24 25  1  0
 24 26  1  1
 24 27  1  0
 27 28  1  0
 27 29  1  0
 21 30  1  0
 30 31  1  0
 31 32  2  0
 32 33  1  0
 33 34  2  0
 34 35  1  0
 34 36  1  0
  6 37  1  0
 37 38  1  0
 37 39  1  0
 37 40  1  0
  8  3  1  0
 18 12  1  0
 36 19  2  0
 27 22  1  0
 36 30  1  0
  1 41  1  0
  1 42  1  0
  1 43  1  0
  4 44  1  0
  5 45  1  0
  7 46  1  0
  9 47  1  0
 13 48  1  0
 14 49  1  0
 16 50  1  0
 16 51  1  0
 16 52  1  0
 18 53  1  0
 22 54  1  1
 23 55  1  0
 23 56  1  0
 25 57  1  0
 25 58  1  0
 25 59  1  0
 26 60  1  0
 28 61  1  0
 28 62  1  0
 28 63  1  0
 29 64  1  0
 29 65  1  0
 29 66  1  0
 32 67  1  0
 35 68  1  0
 35 69  1  0
 38 70  1  0
 38 71  1  0
 38 72  1  0
 39 73  1  0
 39 74  1  0
 39 75  1  0
M  END
$$$$
[H]c1nc(C([H])([H])C([H])([H])[H])c([H])c(-c2c([H])c(-c3nc(-c4c([H])nc(C([H])([H])N([H])[H])c(C([H])([H])[H])c4[H])no3)c([H])c(C(F)(F)F)c2[H])c1[H]
     RDKit          3D

 52 55  0  0  0  0  0  0  0  0999 V2000
   -6.5332    2.8408   -0.5582 C   0  0  0  0  0  0  0  0  0  0  0  0
   -7.3798    1.6016   -0.4213 C   0  0  0  0  0  0  0  0  0  0  0  0
   -6.5930    0.3727   -0.4975 C   0  0  0  0  0  0  0  0  0  0  0  0
   -5.1801    0.3347   -0.4256 C   0  0  0  0  0  0  0  0  0  0  0  0
   -4.5598   -0.8590   -0.5236 C   0  0  0  0  0  0  0  0  0  0  0  0
   -5.3407   -2.0503   -0.6362 C   0  0  0  0  0  0  0  0  0  0  0  0
   -6.7270   -1.9999   -0.7034 C   0  0  0  0  0  0  0  0  0  0  0  0
   -7.2080   -0.7774   -0.6452 N   0  0  0  0  0  0  0  0  0  0  0  0
   -3.1515   -1.1042   -0.3712 C   0  0  0  0  0  0  0  0  0  0  0  0
   -2.0474   -0.4219   -0.8643 C   0  0  0  0  0  0  0  0  0  0  0  0
   -0.8122   -0.8853   -0.5553 C   0  0  0  0  0  0  0  0  0  0  0  0
   -0.6176   -2.0517    0.2579 C   0  0  0  0  0  0  0  0  0  0  0  0
   -1.6604   -2.7099    0.7892 C   0  0  0  0  0  0  0  0  0  0  0  0
   -2.8544   -2.1996    0.4675 C   0  0  0  0  0  0  0  0  0  0  0  0
   -1.3782   -3.7527    1.7898 C   0  0  0  0  0  0  0  0  0  0  0  0
   -0.9048   -4.9022    1.2552 F   0  0  0  0  0  0  0  0  0  0  0  0
   -2.4957   -3.9941    2.5714 F   0  0  0  0  0  0  0  0  0  0  0  0
   -0.4381   -3.2096    2.6963 F   0  0  0  0  0  0  0  0  0  0  0  0
    0.4162   -0.1123   -0.5561 C   0  0  0  0  0  0  0  0  0  0  0  0
    1.6667   -0.4890   -0.8679 N   0  0  0  0  0  0  0  0  0  0  0  0
    2.4659    0.5250   -0.6746 C   0  0  0  0  0  0  0  0  0  0  0  0
    1.6600    1.5890   -0.2307 N   0  0  0  0  0  0  0  0  0  0  0  0
    0.4941    1.1394   -0.2085 O   0  0  0  0  0  0  0  0  0  0  0  0
    3.9206    0.5933   -0.6640 C   0  0  0  0  0  0  0  0  0  0  0  0
    4.6520   -0.5523   -0.5763 C   0  0  0  0  0  0  0  0  0  0  0  0
    6.0126   -0.5748   -0.4157 N   0  0  0  0  0  0  0  0  0  0  0  0
    6.6600    0.6181   -0.3396 C   0  0  0  0  0  0  0  0  0  0  0  0
    8.1182    0.7466   -0.3593 C   0  0  0  0  0  0  0  0  0  0  0  0
    8.6398   -0.0425    0.7395 N   0  0  0  0  0  0  0  0  0  0  0  0
    5.9449    1.7840   -0.3542 C   0  0  0  0  0  0  0  0  0  0  0  0
    6.5982    2.9998    0.1959 C   0  0  0  0  0  0  0  0  0  0  0  0
    4.5904    1.8109   -0.5219 C   0  0  0  0  0  0  0  0  0  0  0  0
   -5.7253    2.9054    0.1657 H   0  0  0  0  0  0  0  0  0  0  0  0
   -7.2102    3.7002   -0.3944 H   0  0  0  0  0  0  0  0  0  0  0  0
   -6.1771    2.9521   -1.6257 H   0  0  0  0  0  0  0  0  0  0  0  0
   -8.1090    1.5727   -1.2557 H   0  0  0  0  0  0  0  0  0  0  0  0
   -7.9438    1.6789    0.5389 H   0  0  0  0  0  0  0  0  0  0  0  0
   -4.6667    1.2743   -0.4010 H   0  0  0  0  0  0  0  0  0  0  0  0
   -4.8456   -2.9745   -0.9377 H   0  0  0  0  0  0  0  0  0  0  0  0
   -7.3338   -2.8746   -0.7765 H   0  0  0  0  0  0  0  0  0  0  0  0
   -2.2601    0.4341   -1.4855 H   0  0  0  0  0  0  0  0  0  0  0  0
    0.4096   -2.4110    0.2689 H   0  0  0  0  0  0  0  0  0  0  0  0
   -3.6800   -2.5556    1.1238 H   0  0  0  0  0  0  0  0  0  0  0  0
    4.1809   -1.5496   -0.6064 H   0  0  0  0  0  0  0  0  0  0  0  0
    8.4134   -0.0285   -1.2479 H   0  0  0  0  0  0  0  0  0  0  0  0
    8.5942    1.6134   -0.7000 H   0  0  0  0  0  0  0  0  0  0  0  0
    8.2794   -0.9599    0.7854 H   0  0  0  0  0  0  0  0  0  0  0  0
    8.1409    0.4872    1.5981 H   0  0  0  0  0  0  0  0  0  0  0  0
    6.3281    2.7651    1.3534 H   0  0  0  0  0  0  0  0  0  0  0  0
    5.9771    3.8671    0.0129 H   0  0  0  0  0  0  0  0  0  0  0  0
    7.6253    3.1292    0.1322 H   0  0  0  0  0  0  0  0  0  0  0  0
    4.0454    2.7065   -0.6356 H   0  0  0  0  0  0  0  0  0  0  0  0
  1  2  1  0
  2  3  1  0
  3  4  2  0
  4  5  1  0
  5  6  2  0
  6  7  1  0
  7  8  2  0
  5  9  1  0
  9 10  2  0
 10 11  1  0
 11 12  2  0
 12 13  1  0
 13 14  2  0
 13 15  1  0
 15 16  1  0
 15 17  1  0
 15 18  1  0
 11 19  1  0
 19 20  2  0
 20 21  1  0
 21 22  2  0
 22 23  1  0
 21 24  1  0
 24 25  2  0
 25 26  1  0
 26 27  2  0
 27 28  1  0
 28 29  1  0
 27 30  1  0
 30 31  1  0
 30 32  2  0
  8  3  1  0
 14  9  1  0
 23 19  1  0
 32 24  1  0
  1 33  1  0
  1 34  1  0
  1 35  1  0
  2 36  1  0
  2 37  1  0
  4 38  1  0
  6 39  1  0
  7 40  1  0
 10 41  1  0
 12 42  1  0
 14 43  1  0
 25 44  1  0
 28 45  1  0
 28 46  1  0
 29 47  1  0
 29 48  1  0
 31 49  1  0
 31 50  1  0
 31 51  1  0
 32 52  1  0
M  END
$$$$
[H]c1c([H])c(Cl)c(-c2c([H])c3c([H])nc(N([H])c4c([H])c([H])c(OC([H])([H])C([H])([H])N(C([H])([H])[H])C([H])([H])[H])c([H])c4[H])nc3n(C([H])([H])[H])c2=O)c(Cl)c1[H]
     RDKit          3D

 56 59  0  0  0  0  0  0  0  0999 V2000
   -7.7792    1.6666    0.6130 C   0  0  0  0  0  0  0  0  0  0  0  0
   -6.4377    1.7798    0.0831 N   0  0  0  0  0  0  0  0  0  0  0  0
   -6.3749    2.7326   -1.0102 C   0  0  0  0  0  0  0  0  0  0  0  0
   -5.9031    0.4878   -0.3163 C   0  0  0  0  0  0  0  0  0  0  0  0
   -5.6998   -0.3119    0.9447 C   0  0  0  0  0  0  0  0  0  0  0  0
   -5.1882   -1.5796    0.7839 O   0  0  0  0  0  0  0  0  0  0  0  0
   -3.9636   -1.9123    0.3190 C   0  0  0  0  0  0  0  0  0  0  0  0
   -3.0010   -1.0085   -0.0409 C   0  0  0  0  0  0  0  0  0  0  0  0
   -1.7681   -1.4432   -0.5148 C   0  0  0  0  0  0  0  0  0  0  0  0
   -1.4420   -2.7532   -0.6477 C   0  0  0  0  0  0  0  0  0  0  0  0
   -0.2017   -3.2462   -1.0919 N   0  0  0  0  0  0  0  0  0  0  0  0
    1.0354   -2.5574   -0.9820 C   0  0  0  0  0  0  0  0  0  0  0  0
    2.1677   -3.1519   -1.4798 N   0  0  0  0  0  0  0  0  0  0  0  0
    3.3825   -2.6120   -1.4102 C   0  0  0  0  0  0  0  0  0  0  0  0
    3.5620   -1.3902   -0.8146 C   0  0  0  0  0  0  0  0  0  0  0  0
    4.7688   -0.7425   -0.6872 C   0  0  0  0  0  0  0  0  0  0  0  0
    4.8710    0.4873   -0.0730 C   0  0  0  0  0  0  0  0  0  0  0  0
    6.1901    1.1239    0.0296 C   0  0  0  0  0  0  0  0  0  0  0  0
    6.9971    0.8912    1.1235 C   0  0  0  0  0  0  0  0  0  0  0  0
    6.3983   -0.1837    2.3749 Cl  0  0  0  0  0  0  0  0  0  0  0  0
    8.2382    1.4880    1.2270 C   0  0  0  0  0  0  0  0  0  0  0  0
    8.7291    2.3354    0.2567 C   0  0  0  0  0  0  0  0  0  0  0  0
    7.9257    2.5740   -0.8441 C   0  0  0  0  0  0  0  0  0  0  0  0
    6.6737    1.9706   -0.9461 C   0  0  0  0  0  0  0  0  0  0  0  0
    5.6920    2.2905   -2.3382 Cl  0  0  0  0  0  0  0  0  0  0  0  0
    3.7318    1.0476    0.4087 C   0  0  0  0  0  0  0  0  0  0  0  0
    3.8071    2.1751    0.9750 O   0  0  0  0  0  0  0  0  0  0  0  0
    2.5603    0.4259    0.2887 N   0  0  0  0  0  0  0  0  0  0  0  0
    1.3614    1.0700    0.8272 C   0  0  0  0  0  0  0  0  0  0  0  0
    2.4153   -0.7828   -0.3077 C   0  0  0  0  0  0  0  0  0  0  0  0
    1.2164   -1.3705   -0.4046 N   0  0  0  0  0  0  0  0  0  0  0  0
   -2.4288   -3.6691   -0.2781 C   0  0  0  0  0  0  0  0  0  0  0  0
   -3.6390   -3.2710    0.1858 C   0  0  0  0  0  0  0  0  0  0  0  0
   -7.7480    1.6856    1.7126 H   0  0  0  0  0  0  0  0  0  0  0  0
   -8.3605    2.5312    0.2202 H   0  0  0  0  0  0  0  0  0  0  0  0
   -8.2656    0.7119    0.3126 H   0  0  0  0  0  0  0  0  0  0  0  0
   -7.0408    3.5797   -0.7520 H   0  0  0  0  0  0  0  0  0  0  0  0
   -6.8470    2.2063   -1.8898 H   0  0  0  0  0  0  0  0  0  0  0  0
   -5.3406    3.0372   -1.2080 H   0  0  0  0  0  0  0  0  0  0  0  0
   -5.0601    0.5906   -0.9741 H   0  0  0  0  0  0  0  0  0  0  0  0
   -6.6799   -0.0874   -0.9000 H   0  0  0  0  0  0  0  0  0  0  0  0
   -4.9987    0.2383    1.6379 H   0  0  0  0  0  0  0  0  0  0  0  0
   -6.6742   -0.3297    1.4986 H   0  0  0  0  0  0  0  0  0  0  0  0
   -3.1405    0.0701    0.0467 H   0  0  0  0  0  0  0  0  0  0  0  0
   -1.0569   -0.6542   -0.8038 H   0  0  0  0  0  0  0  0  0  0  0  0
   -0.2065   -4.2187   -1.5493 H   0  0  0  0  0  0  0  0  0  0  0  0
    4.2729   -3.0913   -1.8076 H   0  0  0  0  0  0  0  0  0  0  0  0
    5.6557   -1.2222   -1.0843 H   0  0  0  0  0  0  0  0  0  0  0  0
    8.8687    1.2918    2.1054 H   0  0  0  0  0  0  0  0  0  0  0  0
    9.7054    2.7968    0.3514 H   0  0  0  0  0  0  0  0  0  0  0  0
    8.2954    3.2292   -1.6025 H   0  0  0  0  0  0  0  0  0  0  0  0
    1.4998    1.2712    1.9210 H   0  0  0  0  0  0  0  0  0  0  0  0
    1.3131    2.0719    0.3363 H   0  0  0  0  0  0  0  0  0  0  0  0
    0.4593    0.4918    0.6434 H   0  0  0  0  0  0  0  0  0  0  0  0
   -2.1624   -4.7335   -0.3865 H   0  0  0  0  0  0  0  0  0  0  0  0
   -4.3857   -4.0265    0.4652 H   0  0  0  0  0  0  0  0  0  0  0  0
  1  2  1  0
  2  3  1  0
  2  4  1  0
  4  5  1  0
  5  6  1  0
  6  7  1  0
  7  8  2  0
  8  9  1  0
  9 10  2  0
 10 11  1  0
 11 12  1  0
 12 13  2  0
 13 14  1  0
 14 15  2  0
 15 16  1  0
 16 17  2  0
 17 18  1  0
 18 19  2  0
 19 20  1  0
 19 21  1  0
 21 22  2  0
 22 23  1  0
 23 24  2  0
 24 25  1  0
 17 26  1  0
 26 27  2  0
 26 28  1  0
 28 29  1  0
 28 30  1  0
 30 31  2  0
 10 32  1  0
 32 33  2  0
 33  7  1  0
 31 12  1  0
 30 15  1  0
 24 18  1  0
  1 34  1  0
  1 35  1  0
  1 36  1  0
  3 37  1  0
  3 38  1  0
  3 39  1  0
  4 40  1  0
  4 41  1  0
  5 42  1  0
  5 43  1  0
  8 44  1  0
  9 45  1  0
 11 46  1  0
 14 47  1  0
 16 48  1  0
 21 49  1  0
 22 50  1  0
 23 51  1  0
 29 52  1  0
 29 53  1  0
 29 54  1  0
 32 55  1  0
 33 56  1  0
M  END
$$$$
[H]c1nc(N([H])c2nn([H])c(C([H])([H])[H])c2[H])c2c([H])nn(S(=O)(=O)c3c([H])c([H])c([H])c([H])c3N3C([H])([H])C4([H])C([H])([H])C([H])([H])C3([H])C4([H])[H])c2n1
     RDKit          3D

 54 59  0  0  0  0  0  0  0  0999 V2000
    9.0656    0.8197   -1.7273 C   0  0  0  0  0  0  0  0  0  0  0  0
    8.1528    0.3753   -0.6710 C   0  0  0  0  0  0  0  0  0  0  0  0
    6.7643    0.4596   -0.6530 C   0  0  0  0  0  0  0  0  0  0  0  0
    6.3187   -0.0790    0.5350 C   0  0  0  0  0  0  0  0  0  0  0  0
    5.0267   -0.2387    1.0493 N   0  0  0  0  0  0  0  0  0  0  0  0
    3.8052    0.1395    0.4297 C   0  0  0  0  0  0  0  0  0  0  0  0
    3.7436    0.7207   -0.7760 N   0  0  0  0  0  0  0  0  0  0  0  0
    2.5615    1.0534   -1.3059 C   0  0  0  0  0  0  0  0  0  0  0  0
    1.3919    0.8337   -0.6844 N   0  0  0  0  0  0  0  0  0  0  0  0
    1.3860    0.2480    0.5388 C   0  0  0  0  0  0  0  0  0  0  0  0
    0.4061   -0.0840    1.3992 N   0  0  0  0  0  0  0  0  0  0  0  0
    0.9782   -0.6137    2.4485 N   0  0  0  0  0  0  0  0  0  0  0  0
    2.2936   -0.6395    2.3024 C   0  0  0  0  0  0  0  0  0  0  0  0
    2.5908   -0.0903    1.0797 C   0  0  0  0  0  0  0  0  0  0  0  0
   -1.3083    0.1340    1.1236 S   0  0  0  0  0  0  0  0  0  0  0  0
   -2.0593   -0.0092    2.3855 O   0  0  0  0  0  0  0  0  0  0  0  0
   -1.3870    1.6020    0.6887 O   0  0  0  0  0  0  0  0  0  0  0  0
   -1.9023   -0.7804   -0.2123 C   0  0  0  0  0  0  0  0  0  0  0  0
   -1.0568   -1.6248   -0.9416 C   0  0  0  0  0  0  0  0  0  0  0  0
   -1.4986   -2.3565   -2.0081 C   0  0  0  0  0  0  0  0  0  0  0  0
   -2.8186   -2.2574   -2.3724 C   0  0  0  0  0  0  0  0  0  0  0  0
   -3.6409   -1.4371   -1.6618 C   0  0  0  0  0  0  0  0  0  0  0  0
   -3.2226   -0.6668   -0.5559 C   0  0  0  0  0  0  0  0  0  0  0  0
   -4.2232    0.0932    0.0724 N   0  0  0  0  0  0  0  0  0  0  0  0
   -4.4558    1.4630    0.4086 C   0  0  0  0  0  0  0  0  0  0  0  0
   -5.9732    1.6159    0.5857 C   0  0  0  0  0  0  0  0  0  0  0  0
   -6.2511    1.1585    2.0025 C   0  0  0  0  0  0  0  0  0  0  0  0
   -5.7353   -0.2851    1.9474 C   0  0  0  0  0  0  0  0  0  0  0  0
   -5.4736   -0.5809    0.5196 C   0  0  0  0  0  0  0  0  0  0  0  0
   -6.4632    0.3928   -0.1653 C   0  0  0  0  0  0  0  0  0  0  0  0
    7.4370   -0.4765    1.2093 N   0  0  0  0  0  0  0  0  0  0  0  0
    8.4783   -0.2005    0.4868 N   0  0  0  0  0  0  0  0  0  0  0  0
    8.6626    0.5410   -2.7416 H   0  0  0  0  0  0  0  0  0  0  0  0
   10.0505    0.3627   -1.6427 H   0  0  0  0  0  0  0  0  0  0  0  0
    9.2008    1.9307   -1.7618 H   0  0  0  0  0  0  0  0  0  0  0  0
    6.1504    0.8791   -1.4439 H   0  0  0  0  0  0  0  0  0  0  0  0
    4.9236   -0.6904    2.0077 H   0  0  0  0  0  0  0  0  0  0  0  0
    2.5811    1.5268   -2.2968 H   0  0  0  0  0  0  0  0  0  0  0  0
    3.0703   -1.0065    2.9700 H   0  0  0  0  0  0  0  0  0  0  0  0
   -0.0281   -1.7189   -0.6440 H   0  0  0  0  0  0  0  0  0  0  0  0
   -0.7993   -3.0096   -2.5567 H   0  0  0  0  0  0  0  0  0  0  0  0
   -3.1995   -2.8293   -3.2200 H   0  0  0  0  0  0  0  0  0  0  0  0
   -4.6859   -1.3928   -1.9918 H   0  0  0  0  0  0  0  0  0  0  0  0
   -4.0600    1.7904    1.3929 H   0  0  0  0  0  0  0  0  0  0  0  0
   -4.1810    2.1356   -0.4205 H   0  0  0  0  0  0  0  0  0  0  0  0
   -6.3757    2.5539    0.2912 H   0  0  0  0  0  0  0  0  0  0  0  0
   -7.3093    1.2337    2.2416 H   0  0  0  0  0  0  0  0  0  0  0  0
   -5.5755    1.7154    2.6639 H   0  0  0  0  0  0  0  0  0  0  0  0
   -6.6278   -0.9050    2.2480 H   0  0  0  0  0  0  0  0  0  0  0  0
   -4.8928   -0.4326    2.6326 H   0  0  0  0  0  0  0  0  0  0  0  0
   -5.5764   -1.5874    0.1785 H   0  0  0  0  0  0  0  0  0  0  0  0
   -6.2327    0.4975   -1.2321 H   0  0  0  0  0  0  0  0  0  0  0  0
   -7.4972    0.1302    0.0695 H   0  0  0  0  0  0  0  0  0  0  0  0
    9.4710   -0.4134    0.7931 H   0  0  0  0  0  0  0  0  0  0  0  0
  1  2  1  0
  2  3  2  0
  3  4  1  0
  4  5  1  0
  5  6  1  0
  6  7  1  0
  7  8  2  0
  8  9  1  0
  9 10  2  0
 10 11  1  0
 11 12  1  0
 12 13  2  0
 13 14  1  0
 11 15  1  0
 15 16  2  0
 15 17  2  0
 15 18  1  0
 18 19  2  0
 19 20  1  0
 20 21  2  0
 21 22  1  0
 22 23  2  0
 23 24  1  0
 24 25  1  0
 25 26  1  0
 26 27  1  0
 27 28  1  0
 28 29  1  0
 29 30  1  0
  4 31  2  0
 31 32  1  0
 32  2  1  0
 14  6  2  0
 23 18  1  0
 29 24  1  0
 14 10  1  0
 30 26  1  0
  1 33  1  0
  1 34  1  0
  1 35  1  0
  3 36  1  0
  5 37  1  0
  8 38  1  0
 13 39  1  0
 19 40  1  0
 20 41  1  0
 21 42  1  0
 22 43  1  0
 25 44  1  0
 25 45  1  0
 26 46  1  0
 27 47  1  0
 27 48  1  0
 28 49  1  0
 28 50  1  0
 29 51  1  0
 30 52  1  0
 30 53  1  0
 32 54  1  0
M  END
$$$$
[H]c1c([H])c(Cl)c([H])c(Oc2c([H])c([H])c(C(=O)N([H])[C@]([H])(C(=O)c3nc4c([H])c([H])c([H])c([H])c4s3)C([H])([H])C([H])([H])C([H])([H])N=C(N([H])[H])N([H])[H])c(C([H])([H])[H])c2[H])c1[H]
     RDKit          3D

 63 66  0  0  0  0  0  0  0  0999 V2000
    2.3772    0.2191    1.8298 C   0  0  0  0  0  0  0  0  0  0  0  0
    2.9884    0.2055    0.4502 C   0  0  0  0  0  0  0  0  0  0  0  0
    4.3962    0.1797    0.3807 C   0  0  0  0  0  0  0  0  0  0  0  0
    5.0319    0.1145   -0.8250 C   0  0  0  0  0  0  0  0  0  0  0  0
    6.4132    0.0867   -0.9629 O   0  0  0  0  0  0  0  0  0  0  0  0
    7.1565   -1.0932   -1.0001 C   0  0  0  0  0  0  0  0  0  0  0  0
    6.5855   -2.3309   -0.9222 C   0  0  0  0  0  0  0  0  0  0  0  0
    7.3611   -3.4590   -0.9635 C   0  0  0  0  0  0  0  0  0  0  0  0
    8.7266   -3.3287   -1.0846 C   0  0  0  0  0  0  0  0  0  0  0  0
    9.3448   -2.0974   -1.1663 C   0  0  0  0  0  0  0  0  0  0  0  0
   11.0979   -1.9347   -1.3209 Cl  0  0  0  0  0  0  0  0  0  0  0  0
    8.5246   -0.9888   -1.1209 C   0  0  0  0  0  0  0  0  0  0  0  0
    4.2614    0.0746   -1.9654 C   0  0  0  0  0  0  0  0  0  0  0  0
    2.8944    0.1013   -1.8818 C   0  0  0  0  0  0  0  0  0  0  0  0
    2.2025    0.1702   -0.6428 C   0  0  0  0  0  0  0  0  0  0  0  0
    0.7715    0.2506   -0.7171 C   0  0  0  0  0  0  0  0  0  0  0  0
    0.1610   -0.2895   -1.7260 O   0  0  0  0  0  0  0  0  0  0  0  0
   -0.0572    0.8802    0.2163 N   0  0  0  0  0  0  0  0  0  0  0  0
   -1.5339    0.8969    0.0258 C   0  0  1  0  0  0  0  0  0  0  0  0
   -2.1218    0.0761    1.1410 C   0  0  0  0  0  0  0  0  0  0  0  0
   -1.6245   -1.3342    1.0851 C   0  0  0  0  0  0  0  0  0  0  0  0
   -2.2509   -2.1193    2.2432 C   0  0  0  0  0  0  0  0  0  0  0  0
   -3.6959   -2.1136    2.1401 N   0  0  0  0  0  0  0  0  0  0  0  0
   -4.3133   -3.1603    1.6758 C   0  0  0  0  0  0  0  0  0  0  0  0
   -5.7287   -3.1021    1.5963 N   0  0  0  0  0  0  0  0  0  0  0  0
   -3.5788   -4.2918    1.2757 N   0  0  0  0  0  0  0  0  0  0  0  0
   -1.9455    2.3013    0.0276 C   0  0  0  0  0  0  0  0  0  0  0  0
   -1.0820    3.2076    0.1687 O   0  0  0  0  0  0  0  0  0  0  0  0
   -3.3536    2.6977   -0.1317 C   0  0  0  0  0  0  0  0  0  0  0  0
   -3.7915    3.9354   -0.1401 N   0  0  0  0  0  0  0  0  0  0  0  0
   -5.0613    4.1790   -0.2855 C   0  0  0  0  0  0  0  0  0  0  0  0
   -5.6688    5.4548   -0.3125 C   0  0  0  0  0  0  0  0  0  0  0  0
   -7.0094    5.5440   -0.4718 C   0  0  0  0  0  0  0  0  0  0  0  0
   -7.8800    4.4891   -0.6158 C   0  0  0  0  0  0  0  0  0  0  0  0
   -7.2882    3.2300   -0.5901 C   0  0  0  0  0  0  0  0  0  0  0  0
   -5.9025    3.1069   -0.4267 C   0  0  0  0  0  0  0  0  0  0  0  0
   -4.7864    1.7970   -0.3386 S   0  0  0  0  0  0  0  0  0  0  0  0
    1.4934   -0.4365    1.8760 H   0  0  0  0  0  0  0  0  0  0  0  0
    2.2794    1.2182    2.2447 H   0  0  0  0  0  0  0  0  0  0  0  0
    3.1209   -0.3093    2.5216 H   0  0  0  0  0  0  0  0  0  0  0  0
    4.9520    0.2119    1.2892 H   0  0  0  0  0  0  0  0  0  0  0  0
    5.5079   -2.4084   -0.8267 H   0  0  0  0  0  0  0  0  0  0  0  0
    6.9109   -4.4660   -0.9009 H   0  0  0  0  0  0  0  0  0  0  0  0
    9.3857   -4.2092   -1.1218 H   0  0  0  0  0  0  0  0  0  0  0  0
    9.0238   -0.0261   -1.1857 H   0  0  0  0  0  0  0  0  0  0  0  0
    4.7399    0.0215   -2.9337 H   0  0  0  0  0  0  0  0  0  0  0  0
    2.2764    0.0695   -2.7802 H   0  0  0  0  0  0  0  0  0  0  0  0
    0.2955    1.3788    1.0468 H   0  0  0  0  0  0  0  0  0  0  0  0
   -1.7470    0.4176   -0.9567 H   0  0  0  0  0  0  0  0  0  0  0  0
   -3.2305    0.1423    1.1540 H   0  0  0  0  0  0  0  0  0  0  0  0
   -1.8108    0.4729    2.1506 H   0  0  0  0  0  0  0  0  0  0  0  0
   -0.5353   -1.4028    1.1628 H   0  0  0  0  0  0  0  0  0  0  0  0
   -1.9933   -1.7618    0.1075 H   0  0  0  0  0  0  0  0  0  0  0  0
   -2.0164   -1.5111    3.1634 H   0  0  0  0  0  0  0  0  0  0  0  0
   -1.8294   -3.1283    2.3193 H   0  0  0  0  0  0  0  0  0  0  0  0
   -6.1901   -2.7507    0.7506 H   0  0  0  0  0  0  0  0  0  0  0  0
   -6.2759   -3.4253    2.4180 H   0  0  0  0  0  0  0  0  0  0  0  0
   -3.3356   -4.4330    0.2802 H   0  0  0  0  0  0  0  0  0  0  0  0
   -3.2745   -4.9939    1.9733 H   0  0  0  0  0  0  0  0  0  0  0  0
   -5.0983    6.3608   -0.2107 H   0  0  0  0  0  0  0  0  0  0  0  0
   -7.4934    6.5351   -0.4944 H   0  0  0  0  0  0  0  0  0  0  0  0
   -8.9464    4.5729   -0.7416 H   0  0  0  0  0  0  0  0  0  0  0  0
   -7.8293    2.3061   -0.6889 H   0  0  0  0  0  0  0  0  0  0  0  0
  1  2  1  0
  2  3  2  0
  3  4  1  0
  4  5  1  0
  5  6  1  0
  6  7  2  0
  7  8  1  0
  8  9  2  0
  9 10  1  0
 10 11  1  0
 10 12  2  0
  4 13  2  0
 13 14  1  0
 14 15  2  0
 15 16  1  0
 16 17  2  0
 16 18  1  0
 18 19  1  0
 19 20  1  0
 20 21  1  0
 21 22  1  0
 22 23  1  0
 23 24  2  3
 24 25  1  0
 24 26  1  0
 19 27  1  0
 27 28  2  0
 27 29  1  0
 29 30  2  0
 30 31  1  0
 31 32  2  0
 32 33  1  0
 33 34  2  0
 34 35  1  0
 35 36  2  0
 36 37  1  0
 15  2  1  0
 37 29  1  0
 12  6  1  0
 36 31  1  0
  1 38  1  0
  1 39  1  0
  1 40  1  0
  3 41  1  0
  7 42  1  0
  8 43  1  0
  9 44  1  0
 12 45  1  0
 13 46  1  0
 14 47  1  0
 18 48  1  0
 19 49  1  6
 20 50  1  0
 20 51  1  0
 21 52  1  0
 21 53  1  0
 22 54  1  0
 22 55  1  0
 25 56  1  0
 25 57  1  0
 26 58  1  0
 26 59  1  0
 32 60  1  0
 33 61  1  0
 34 62  1  0
 35 63  1  0
M  END
$$$$
[H]OC([H])([H])C([H])([H])Oc1c([H])c([H])c2c(N([H])c3c([H])c([H])c(N4C([H])([H])C([H])([H])N(C(=O)C([H])([H])[H])C([H])([H])C4([H])[H])c([H])c3[H])c([H])c(N([H])C3([H])C([H])([H])C([H])([H])C([H])([H])C3([H])[H])nc2c1[H]
     RDKit          3D

 71 75  0  0  0  0  0  0  0  0999 V2000
    9.0488   -2.0600   -1.4870 C   0  0  0  0  0  0  0  0  0  0  0  0
    8.3388   -2.3397   -0.2281 C   0  0  0  0  0  0  0  0  0  0  0  0
    8.9780   -2.6150    0.8155 O   0  0  0  0  0  0  0  0  0  0  0  0
    6.9299   -2.3030   -0.1763 N   0  0  0  0  0  0  0  0  0  0  0  0
    6.2355   -2.5854    1.0827 C   0  0  0  0  0  0  0  0  0  0  0  0
    5.3517   -1.3830    1.3459 C   0  0  0  0  0  0  0  0  0  0  0  0
    4.4722   -1.2220    0.2137 N   0  0  0  0  0  0  0  0  0  0  0  0
    4.7243   -1.7289   -1.0959 C   0  0  0  0  0  0  0  0  0  0  0  0
    6.1911   -1.9857   -1.3716 C   0  0  0  0  0  0  0  0  0  0  0  0
    3.2480   -0.4824    0.4207 C   0  0  0  0  0  0  0  0  0  0  0  0
    3.0333    0.1941    1.6075 C   0  0  0  0  0  0  0  0  0  0  0  0
    1.8754    0.8942    1.8159 C   0  0  0  0  0  0  0  0  0  0  0  0
    0.8656    0.9629    0.8588 C   0  0  0  0  0  0  0  0  0  0  0  0
   -0.2794    1.7530    1.1547 N   0  0  0  0  0  0  0  0  0  0  0  0
   -1.6070    1.5020    0.7952 C   0  0  0  0  0  0  0  0  0  0  0  0
   -2.0311    0.2626    0.3317 C   0  0  0  0  0  0  0  0  0  0  0  0
   -3.3469   -0.0103    0.0209 C   0  0  0  0  0  0  0  0  0  0  0  0
   -3.7828   -1.2582   -0.4544 N   0  0  0  0  0  0  0  0  0  0  0  0
   -2.9224   -2.3713   -0.6981 C   0  0  0  0  0  0  0  0  0  0  0  0
   -3.7433   -3.6189   -1.0846 C   0  0  0  0  0  0  0  0  0  0  0  0
   -2.6632   -4.5632   -1.5674 C   0  0  0  0  0  0  0  0  0  0  0  0
   -1.6399   -3.6713   -2.2029 C   0  0  0  0  0  0  0  0  0  0  0  0
   -2.1069   -2.2298   -1.9805 C   0  0  0  0  0  0  0  0  0  0  0  0
   -4.2164    0.9970    0.1918 N   0  0  0  0  0  0  0  0  0  0  0  0
   -3.8616    2.2121    0.6370 C   0  0  0  0  0  0  0  0  0  0  0  0
   -4.8482    3.1812    0.7745 C   0  0  0  0  0  0  0  0  0  0  0  0
   -4.5716    4.4364    1.2155 C   0  0  0  0  0  0  0  0  0  0  0  0
   -5.4818    5.4208    1.3664 O   0  0  0  0  0  0  0  0  0  0  0  0
   -6.8340    5.4626    1.1144 C   0  0  0  0  0  0  0  0  0  0  0  0
   -7.1443    5.3038   -0.3407 C   0  0  0  0  0  0  0  0  0  0  0  0
   -8.5465    5.3544   -0.5133 O   0  0  0  0  0  0  0  0  0  0  0  0
   -3.2432    4.7290    1.5330 C   0  0  0  0  0  0  0  0  0  0  0  0
   -2.2619    3.7818    1.4021 C   0  0  0  0  0  0  0  0  0  0  0  0
   -2.5498    2.5087    0.9534 C   0  0  0  0  0  0  0  0  0  0  0  0
    1.0874    0.2905   -0.3136 C   0  0  0  0  0  0  0  0  0  0  0  0
    2.2612   -0.4232   -0.5317 C   0  0  0  0  0  0  0  0  0  0  0  0
   10.1450   -2.0486   -1.3337 H   0  0  0  0  0  0  0  0  0  0  0  0
    8.7309   -1.0341   -1.8108 H   0  0  0  0  0  0  0  0  0  0  0  0
    8.7521   -2.8047   -2.2757 H   0  0  0  0  0  0  0  0  0  0  0  0
    6.9755   -2.6093    1.9102 H   0  0  0  0  0  0  0  0  0  0  0  0
    5.6640   -3.5142    1.0292 H   0  0  0  0  0  0  0  0  0  0  0  0
    4.7845   -1.6328    2.2682 H   0  0  0  0  0  0  0  0  0  0  0  0
    5.9683   -0.5093    1.5561 H   0  0  0  0  0  0  0  0  0  0  0  0
    4.1649   -2.6767   -1.2231 H   0  0  0  0  0  0  0  0  0  0  0  0
    4.3355   -0.9830   -1.8422 H   0  0  0  0  0  0  0  0  0  0  0  0
    6.2745   -2.8465   -2.0638 H   0  0  0  0  0  0  0  0  0  0  0  0
    6.5859   -1.0985   -1.9190 H   0  0  0  0  0  0  0  0  0  0  0  0
    3.8288    0.1425    2.3617 H   0  0  0  0  0  0  0  0  0  0  0  0
    1.7358    1.4224    2.7743 H   0  0  0  0  0  0  0  0  0  0  0  0
   -0.0473    2.6216    1.7265 H   0  0  0  0  0  0  0  0  0  0  0  0
   -1.3154   -0.5690    0.2254 H   0  0  0  0  0  0  0  0  0  0  0  0
   -4.8150   -1.3912   -0.6474 H   0  0  0  0  0  0  0  0  0  0  0  0
   -2.2477   -2.6487    0.1102 H   0  0  0  0  0  0  0  0  0  0  0  0
   -4.3590   -3.2933   -1.9481 H   0  0  0  0  0  0  0  0  0  0  0  0
   -4.3142   -3.9950   -0.2361 H   0  0  0  0  0  0  0  0  0  0  0  0
   -3.0338   -5.2919   -2.2920 H   0  0  0  0  0  0  0  0  0  0  0  0
   -2.2585   -5.0860   -0.6565 H   0  0  0  0  0  0  0  0  0  0  0  0
   -0.6729   -3.8327   -1.6691 H   0  0  0  0  0  0  0  0  0  0  0  0
   -1.5125   -3.8974   -3.2694 H   0  0  0  0  0  0  0  0  0  0  0  0
   -2.7326   -1.9778   -2.8526 H   0  0  0  0  0  0  0  0  0  0  0  0
   -1.2021   -1.6399   -1.8712 H   0  0  0  0  0  0  0  0  0  0  0  0
   -5.8596    2.8710    0.5292 H   0  0  0  0  0  0  0  0  0  0  0  0
   -7.2064    6.4697    1.4859 H   0  0  0  0  0  0  0  0  0  0  0  0
   -7.3964    4.6955    1.7328 H   0  0  0  0  0  0  0  0  0  0  0  0
   -6.7570    4.4189   -0.8407 H   0  0  0  0  0  0  0  0  0  0  0  0
   -6.7249    6.2126   -0.8533 H   0  0  0  0  0  0  0  0  0  0  0  0
   -8.9224    4.9766    0.3206 H   0  0  0  0  0  0  0  0  0  0  0  0
   -2.9870    5.7046    1.8830 H   0  0  0  0  0  0  0  0  0  0  0  0
   -1.2354    4.0438    1.6520 H   0  0  0  0  0  0  0  0  0  0  0  0
    0.3248    0.3414   -1.0890 H   0  0  0  0  0  0  0  0  0  0  0  0
    2.3706   -0.9362   -1.4820 H   0  0  0  0  0  0  0  0  0  0  0  0
  1  2  1  0
  2  3  2  0
  2  4  1  0
  4  5  1  0
  5  6  1  0
  6  7  1  0
  7  8  1  0
  8  9  1  0
  7 10  1  0
 10 11  2  0
 11 12  1  0
 12 13  2  0
 13 14  1  0
 14 15  1  0
 15 16  2  0
 16 17  1  0
 17 18  1  0
 18 19  1  0
 19 20  1  0
 20 21  1  0
 21 22  1  0
 22 23  1  0
 17 24  2  0
 24 25  1  0
 25 26  2  0
 26 27  1  0
 27 28  1  0
 28 29  1  0
 29 30  1  0
 30 31  1  0
 27 32  2  0
 32 33  1  0
 33 34  2  0
 13 35  1  0
 35 36  2  0
  9  4  1  0
 36 10  1  0
 34 15  1  0
 23 19  1  0
 34 25  1  0
  1 37  1  0
  1 38  1  0
  1 39  1  0
  5 40  1  0
  5 41  1  0
  6 42  1  0
  6 43  1  0
  8 44  1  0
  8 45  1  0
  9 46  1  0
  9 47  1  0
 11 48  1  0
 12 49  1  0
 14 50  1  0
 16 51  1  0
 18 52  1  0
 19 53  1  0
 20 54  1  0
 20 55  1  0
 21 56  1  0
 21 57  1  0
 22 58  1  0
 22 59  1  0
 23 60  1  0
 23 61  1  0
 26 62  1  0
 29 63  1  0
 29 64  1  0
 30 65  1  0
 30 66  1  0
 31 67  1  0
 32 68  1  0
 33 69  1  0
 35 70  1  0
 36 71  1  0
M  END
$$$$
[H]c1nc2c(c([H])c([H])n2[H])c(-c2nc3c([H])c([H])c(OC([H])([H])C([H])([H])N4C([H])([H])C([H])([H])OC([H])([H])C4([H])[H])c([H])c3n2-c2c([H])c([H])c(C(F)(F)F)c([H])c2[H])c1[H]
     RDKit          3D

 61 66  0  0  0  0  0  0  0  0999 V2000
   -1.3487    4.0627   -4.1076 F   0  0  0  0  0  0  0  0  0  0  0  0
   -2.5841    3.6694   -3.6182 C   0  0  0  0  0  0  0  0  0  0  0  0
   -3.2685    3.0699   -4.6553 F   0  0  0  0  0  0  0  0  0  0  0  0
   -3.2624    4.7338   -3.0822 F   0  0  0  0  0  0  0  0  0  0  0  0
   -2.4390    2.6471   -2.5220 C   0  0  0  0  0  0  0  0  0  0  0  0
   -2.1844    3.1214   -1.2400 C   0  0  0  0  0  0  0  0  0  0  0  0
   -2.0577    2.1434   -0.2511 C   0  0  0  0  0  0  0  0  0  0  0  0
   -2.1757    0.8148   -0.5258 C   0  0  0  0  0  0  0  0  0  0  0  0
   -2.4248    0.3994   -1.8000 C   0  0  0  0  0  0  0  0  0  0  0  0
   -2.5608    1.3005   -2.8157 C   0  0  0  0  0  0  0  0  0  0  0  0
   -2.0000   -0.1353    0.5063 N   0  0  0  0  0  0  0  0  0  0  0  0
   -2.8496   -0.9225    1.1418 C   0  0  0  0  0  0  0  0  0  0  0  0
   -2.0745   -1.6542    1.9953 N   0  0  0  0  0  0  0  0  0  0  0  0
   -0.7996   -1.3501    1.9122 C   0  0  0  0  0  0  0  0  0  0  0  0
    0.3644   -1.7814    2.5586 C   0  0  0  0  0  0  0  0  0  0  0  0
    1.5638   -1.2128    2.2293 C   0  0  0  0  0  0  0  0  0  0  0  0
    1.6897   -0.2192    1.2764 C   0  0  0  0  0  0  0  0  0  0  0  0
    2.9137    0.3232    0.9871 O   0  0  0  0  0  0  0  0  0  0  0  0
    3.0915    1.3254    0.0179 C   0  0  0  0  0  0  0  0  0  0  0  0
    4.5006    1.8121   -0.0692 C   0  0  0  0  0  0  0  0  0  0  0  0
    5.5173    0.8854   -0.3528 N   0  0  0  0  0  0  0  0  0  0  0  0
    5.8031   -0.0686    0.7069 C   0  0  0  0  0  0  0  0  0  0  0  0
    7.1635   -0.6631    0.3879 C   0  0  0  0  0  0  0  0  0  0  0  0
    7.2041   -1.2333   -0.8583 O   0  0  0  0  0  0  0  0  0  0  0  0
    6.8131   -0.3918   -1.8874 C   0  0  0  0  0  0  0  0  0  0  0  0
    5.4174    0.1293   -1.5665 C   0  0  0  0  0  0  0  0  0  0  0  0
    0.5255    0.1944    0.6427 C   0  0  0  0  0  0  0  0  0  0  0  0
   -0.7076   -0.3678    0.9606 C   0  0  0  0  0  0  0  0  0  0  0  0
   -4.2830   -1.0470    1.0049 C   0  0  0  0  0  0  0  0  0  0  0  0
   -5.0815   -0.1112    0.4166 C   0  0  0  0  0  0  0  0  0  0  0  0
   -6.4555   -0.3611    0.3315 C   0  0  0  0  0  0  0  0  0  0  0  0
   -7.0192   -1.4748    0.8012 N   0  0  0  0  0  0  0  0  0  0  0  0
   -6.2663   -2.4184    1.3878 C   0  0  0  0  0  0  0  0  0  0  0  0
   -6.5998   -3.6218    1.9405 N   0  0  0  0  0  0  0  0  0  0  0  0
   -5.5010   -4.2192    2.4062 C   0  0  0  0  0  0  0  0  0  0  0  0
   -4.4353   -3.3463    2.1310 C   0  0  0  0  0  0  0  0  0  0  0  0
   -4.9013   -2.2197    1.4963 C   0  0  0  0  0  0  0  0  0  0  0  0
   -2.0977    4.1813   -1.0337 H   0  0  0  0  0  0  0  0  0  0  0  0
   -1.8624    2.5278    0.7641 H   0  0  0  0  0  0  0  0  0  0  0  0
   -2.5155   -0.6639   -2.0064 H   0  0  0  0  0  0  0  0  0  0  0  0
   -2.7599    0.9984   -3.8517 H   0  0  0  0  0  0  0  0  0  0  0  0
    0.2596   -2.5612    3.3007 H   0  0  0  0  0  0  0  0  0  0  0  0
    2.4632   -1.5514    2.7232 H   0  0  0  0  0  0  0  0  0  0  0  0
    2.5053    2.2131    0.4349 H   0  0  0  0  0  0  0  0  0  0  0  0
    2.6177    1.1222   -0.9405 H   0  0  0  0  0  0  0  0  0  0  0  0
    4.7365    2.2320    0.9621 H   0  0  0  0  0  0  0  0  0  0  0  0
    4.5580    2.6604   -0.8007 H   0  0  0  0  0  0  0  0  0  0  0  0
    5.0677   -0.8730    0.7933 H   0  0  0  0  0  0  0  0  0  0  0  0
    5.8911    0.4619    1.6504 H   0  0  0  0  0  0  0  0  0  0  0  0
    7.9550    0.1113    0.4965 H   0  0  0  0  0  0  0  0  0  0  0  0
    7.3527   -1.4728    1.1296 H   0  0  0  0  0  0  0  0  0  0  0  0
    7.5247    0.4791   -1.9722 H   0  0  0  0  0  0  0  0  0  0  0  0
    6.8386   -0.9755   -2.8329 H   0  0  0  0  0  0  0  0  0  0  0  0
    4.9897    0.6663   -2.4153 H   0  0  0  0  0  0  0  0  0  0  0  0
    4.8119   -0.8043   -1.3584 H   0  0  0  0  0  0  0  0  0  0  0  0
    0.6083    0.9620   -0.0943 H   0  0  0  0  0  0  0  0  0  0  0  0
   -4.7379    0.8298    0.0314 H   0  0  0  0  0  0  0  0  0  0  0  0
   -7.0850    0.3862   -0.1364 H   0  0  0  0  0  0  0  0  0  0  0  0
   -7.5678   -4.0079    1.9860 H   0  0  0  0  0  0  0  0  0  0  0  0
   -5.4219   -5.1655    2.8936 H   0  0  0  0  0  0  0  0  0  0  0  0
   -3.4193   -3.5689    2.3902 H   0  0  0  0  0  0  0  0  0  0  0  0
  1  2  1  0
  2  3  1  0
  2  4  1  0
  2  5  1  0
  5  6  2  0
  6  7  1  0
  7  8  2  0
  8  9  1  0
  9 10  2  0
  8 11  1  0
 11 12  1  0
 12 13  2  0
 13 14  1  0
 14 15  2  0
 15 16  1  0
 16 17  2  0
 17 18  1  0
 18 19  1  0
 19 20  1  0
 20 21  1  0
 21 22  1  0
 22 23  1  0
 23 24  1  0
 24 25  1  0
 25 26  1  0
 17 27  1  0
 27 28  2  0
 12 29  1  0
 29 30  2  0
 30 31  1  0
 31 32  2  0
 32 33  1  0
 33 34  1  0
 34 35  1  0
 35 36  2  0
 36 37  1  0
 10  5  1  0
 28 11  1  0
 37 29  1  0
 28 14  1  0
 37 33  2  0
 26 21  1  0
  6 38  1  0
  7 39  1  0
  9 40  1  0
 10 41  1  0
 15 42  1  0
 16 43  1  0
 19 44  1  0
 19 45  1  0
 20 46  1  0
 20 47  1  0
 22 48  1  0
 22 49  1  0
 23 50  1  0
 23 51  1  0
 25 52  1  0
 25 53  1  0
 26 54  1  0
 26 55  1  0
 27 56  1  0
 30 57  1  0
 31 58  1  0
 34 59  1  0
 35 60  1  0
 36 61  1  0
M  END
$$$$
[H]c1c([H])c([H])c(N([H])N(C([H])([H])c2c([H])c([H])c(C([H])([H])C#N)c([H])c2[H])S(=O)(=O)c2c([H])c([H])c(Cl)c([H])c2Cl)c([H])c1[H]
     RDKit          3D

 46 48  0  0  0  0  0  0  0  0999 V2000
    3.9046   -5.0773   -1.1340 N   0  0  0  0  0  0  0  0  0  0  0  0
    4.2007   -3.9582   -1.1816 C   0  0  0  0  0  0  0  0  0  0  0  0
    4.5614   -2.5612   -1.2634 C   0  0  0  0  0  0  0  0  0  0  0  0
    3.3791   -1.6737   -1.1711 C   0  0  0  0  0  0  0  0  0  0  0  0
    2.9746   -1.2258    0.0702 C   0  0  0  0  0  0  0  0  0  0  0  0
    1.8658   -0.3780    0.1349 C   0  0  0  0  0  0  0  0  0  0  0  0
    1.1661    0.0276   -0.9660 C   0  0  0  0  0  0  0  0  0  0  0  0
    0.0183    0.9330   -0.9262 C   0  0  0  0  0  0  0  0  0  0  0  0
   -0.6434    0.9505    0.3179 N   0  0  0  0  0  0  0  0  0  0  0  0
   -0.4089    1.9766    1.1764 N   0  0  0  0  0  0  0  0  0  0  0  0
   -1.0131    3.2379    1.2829 C   0  0  0  0  0  0  0  0  0  0  0  0
   -0.7026    4.2521    0.4171 C   0  0  0  0  0  0  0  0  0  0  0  0
   -1.2857    5.5139    0.5409 C   0  0  0  0  0  0  0  0  0  0  0  0
   -2.1933    5.7620    1.5483 C   0  0  0  0  0  0  0  0  0  0  0  0
   -2.5105    4.7677    2.4138 C   0  0  0  0  0  0  0  0  0  0  0  0
   -1.9172    3.5107    2.2746 C   0  0  0  0  0  0  0  0  0  0  0  0
   -2.0418    0.0397    0.4455 S   0  0  0  0  0  0  0  0  0  0  0  0
   -3.1336    0.5702   -0.4694 O   0  0  0  0  0  0  0  0  0  0  0  0
   -2.6241    0.2027    1.8450 O   0  0  0  0  0  0  0  0  0  0  0  0
   -1.8693   -1.6799    0.2224 C   0  0  0  0  0  0  0  0  0  0  0  0
   -2.3534   -2.2761   -0.9236 C   0  0  0  0  0  0  0  0  0  0  0  0
   -2.2260   -3.6048   -1.1951 C   0  0  0  0  0  0  0  0  0  0  0  0
   -1.5763   -4.3878   -0.2670 C   0  0  0  0  0  0  0  0  0  0  0  0
   -1.3825   -6.0996   -0.5667 Cl  0  0  0  0  0  0  0  0  0  0  0  0
   -1.0791   -3.8268    0.8921 C   0  0  0  0  0  0  0  0  0  0  0  0
   -1.2260   -2.4752    1.1362 C   0  0  0  0  0  0  0  0  0  0  0  0
   -0.6121   -1.8006    2.6609 Cl  0  0  0  0  0  0  0  0  0  0  0  0
    1.6207   -0.4583   -2.2012 C   0  0  0  0  0  0  0  0  0  0  0  0
    2.7061   -1.2929   -2.3024 C   0  0  0  0  0  0  0  0  0  0  0  0
    5.0752   -2.2812   -2.2316 H   0  0  0  0  0  0  0  0  0  0  0  0
    5.2477   -2.2401   -0.4297 H   0  0  0  0  0  0  0  0  0  0  0  0
    3.4981   -1.5241    0.9560 H   0  0  0  0  0  0  0  0  0  0  0  0
    1.6055   -0.0739    1.1447 H   0  0  0  0  0  0  0  0  0  0  0  0
   -0.7012    0.5848   -1.7247 H   0  0  0  0  0  0  0  0  0  0  0  0
    0.2968    1.9646   -1.3066 H   0  0  0  0  0  0  0  0  0  0  0  0
    0.3757    1.7777    1.8990 H   0  0  0  0  0  0  0  0  0  0  0  0
    0.0045    4.0764   -0.3694 H   0  0  0  0  0  0  0  0  0  0  0  0
   -1.0303    6.2929   -0.1461 H   0  0  0  0  0  0  0  0  0  0  0  0
   -2.6546    6.7548    1.6516 H   0  0  0  0  0  0  0  0  0  0  0  0
   -3.2225    4.9313    3.2217 H   0  0  0  0  0  0  0  0  0  0  0  0
   -2.1878    2.7363    2.9968 H   0  0  0  0  0  0  0  0  0  0  0  0
   -2.8727   -1.6594   -1.6699 H   0  0  0  0  0  0  0  0  0  0  0  0
   -2.6039   -4.0732   -2.0905 H   0  0  0  0  0  0  0  0  0  0  0  0
   -0.5610   -4.4219    1.6416 H   0  0  0  0  0  0  0  0  0  0  0  0
    1.0995   -0.1660   -3.0974 H   0  0  0  0  0  0  0  0  0  0  0  0
    3.0326   -1.6476   -3.2567 H   0  0  0  0  0  0  0  0  0  0  0  0
  1  2  3  0
  2  3  1  0
  3  4  1  0
  4  5  2  0
  5  6  1  0
  6  7  2  0
  7  8  1  0
  8  9  1  0
  9 10  1  0
 10 11  1  0
 11 12  2  0
 12 13  1  0
 13 14  2  0
 14 15  1  0
 15 16  2  0
  9 17  1  0
 17 18  2  0
 17 19  2  0
 17 20  1  0
 20 21  2  0
 21 22  1  0
 22 23  2  0
 23 24  1  0
 23 25  1  0
 25 26  2  0
 26 27  1  0
  7 28  1  0
 28 29  2  0
 29  4  1  0
 16 11  1  0
 26 20  1  0
  3 30  1  0
  3 31  1  0
  5 32  1  0
  6 33  1  0
  8 34  1  0
  8 35  1  0
 10 36  1  0
 12 37  1  0
 13 38  1  0
 14 39  1  0
 15 40  1  0
 16 41  1  0
 21 42  1  0
 22 43  1  0
 25 44  1  0
 28 45  1  0
 29 46  1  0
M  END
$$$$
[H]c1nc(N([H])[H])c2c(-c3c([H])c([H])c(N([H])C(=O)N([H])c4c([H])c(OC([H])([H])[H])c(OC([H])([H])[H])c(OC([H])([H])[H])c4[H])c([H])c3[H])c([H])sc2c1C1([H])C([H])([H])C1([H])[H]
     RDKit          3D

 61 65  0  0  0  0  0  0  0  0999 V2000
    6.1693    3.6649   -0.8620 C   0  0  0  0  0  0  0  0  0  0  0  0
    6.7503    2.4260   -0.5682 O   0  0  0  0  0  0  0  0  0  0  0  0
    6.0115    1.3079   -0.2608 C   0  0  0  0  0  0  0  0  0  0  0  0
    4.5766    1.3759   -0.2278 C   0  0  0  0  0  0  0  0  0  0  0  0
    3.8301    0.2661    0.0703 C   0  0  0  0  0  0  0  0  0  0  0  0
    2.4806    0.3569    0.2272 N   0  0  0  0  0  0  0  0  0  0  0  0
    2.2704    1.3796    1.6572 C   0  0  0  0  0  0  0  0  0  0  0  0
    3.4328    1.4866    1.6747 O   0  0  0  0  0  0  0  0  0  0  0  0
    0.9113    1.2477    1.6282 N   0  0  0  0  0  0  0  0  0  0  0  0
    0.0625    0.4345    0.8184 C   0  0  0  0  0  0  0  0  0  0  0  0
   -0.8081    1.1401   -0.0020 C   0  0  0  0  0  0  0  0  0  0  0  0
   -1.8536    0.5131   -0.5476 C   0  0  0  0  0  0  0  0  0  0  0  0
   -2.1140   -0.8732   -0.3173 C   0  0  0  0  0  0  0  0  0  0  0  0
   -1.2806   -1.5548    0.4506 C   0  0  0  0  0  0  0  0  0  0  0  0
   -0.1790   -0.9076    1.0251 C   0  0  0  0  0  0  0  0  0  0  0  0
   -3.4975   -1.2693   -0.7956 C   0  0  0  0  0  0  0  0  0  0  0  0
   -3.6288   -1.9453   -1.9532 C   0  0  0  0  0  0  0  0  0  0  0  0
   -5.2925   -1.7769   -2.3245 S   0  0  0  0  0  0  0  0  0  0  0  0
   -5.8041   -0.8540   -0.9920 C   0  0  0  0  0  0  0  0  0  0  0  0
   -6.9712   -0.2566   -0.5407 C   0  0  0  0  0  0  0  0  0  0  0  0
   -7.0430    0.4894    0.6325 C   0  0  0  0  0  0  0  0  0  0  0  0
   -5.8971    0.5965    1.3022 N   0  0  0  0  0  0  0  0  0  0  0  0
   -4.7284    0.0494    0.9141 C   0  0  0  0  0  0  0  0  0  0  0  0
   -3.7147    0.1787    1.8990 N   0  0  0  0  0  0  0  0  0  0  0  0
   -4.6119   -0.7009   -0.2671 C   0  0  0  0  0  0  0  0  0  0  0  0
   -8.2126   -0.3800   -1.3967 C   0  0  0  0  0  0  0  0  0  0  0  0
   -9.0174    0.9576   -1.2719 C   0  0  0  0  0  0  0  0  0  0  0  0
   -9.5458   -0.3497   -0.7034 C   0  0  0  0  0  0  0  0  0  0  0  0
    4.4372   -0.9690    0.3461 C   0  0  0  0  0  0  0  0  0  0  0  0
    5.8038   -1.0233    0.3177 C   0  0  0  0  0  0  0  0  0  0  0  0
    6.3952   -2.2765    0.5877 O   0  0  0  0  0  0  0  0  0  0  0  0
    5.5864   -3.4290    0.8286 C   0  0  0  0  0  0  0  0  0  0  0  0
    6.5662    0.0828    0.0273 C   0  0  0  0  0  0  0  0  0  0  0  0
    7.9369   -0.0443    0.0207 O   0  0  0  0  0  0  0  0  0  0  0  0
    8.5201   -0.3774   -1.2448 C   0  0  0  0  0  0  0  0  0  0  0  0
    5.6765    4.0547    0.0707 H   0  0  0  0  0  0  0  0  0  0  0  0
    5.4471    3.6131   -1.7196 H   0  0  0  0  0  0  0  0  0  0  0  0
    6.9540    4.3749   -1.1091 H   0  0  0  0  0  0  0  0  0  0  0  0
    4.1990    2.3252   -0.4416 H   0  0  0  0  0  0  0  0  0  0  0  0
    1.6989    0.1173   -0.1589 H   0  0  0  0  0  0  0  0  0  0  0  0
    0.3812    1.8907    2.3532 H   0  0  0  0  0  0  0  0  0  0  0  0
   -0.6131    2.2177   -0.2039 H   0  0  0  0  0  0  0  0  0  0  0  0
   -2.5387    1.0542   -1.2265 H   0  0  0  0  0  0  0  0  0  0  0  0
   -1.4651   -2.6127    0.6142 H   0  0  0  0  0  0  0  0  0  0  0  0
    0.4952   -1.4849    1.6374 H   0  0  0  0  0  0  0  0  0  0  0  0
   -2.8378   -2.4868   -2.5173 H   0  0  0  0  0  0  0  0  0  0  0  0
   -7.9558    0.9624    0.9613 H   0  0  0  0  0  0  0  0  0  0  0  0
   -3.3141    1.0636    2.1768 H   0  0  0  0  0  0  0  0  0  0  0  0
   -3.4044   -0.7131    2.3793 H   0  0  0  0  0  0  0  0  0  0  0  0
   -8.1239   -0.8288   -2.3698 H   0  0  0  0  0  0  0  0  0  0  0  0
   -8.5861    1.7484   -0.6463 H   0  0  0  0  0  0  0  0  0  0  0  0
   -9.4984    1.3272   -2.2224 H   0  0  0  0  0  0  0  0  0  0  0  0
  -10.3887   -0.8120   -1.2791 H   0  0  0  0  0  0  0  0  0  0  0  0
   -9.6427   -0.4136    0.3980 H   0  0  0  0  0  0  0  0  0  0  0  0
    3.8436   -1.8179    0.5848 H   0  0  0  0  0  0  0  0  0  0  0  0
    5.1631   -3.6691   -0.1808 H   0  0  0  0  0  0  0  0  0  0  0  0
    6.2021   -4.2735    1.0995 H   0  0  0  0  0  0  0  0  0  0  0  0
    4.7514   -3.2330    1.5278 H   0  0  0  0  0  0  0  0  0  0  0  0
    7.8030   -0.9225   -1.8717 H   0  0  0  0  0  0  0  0  0  0  0  0
    8.8047    0.5644   -1.7001 H   0  0  0  0  0  0  0  0  0  0  0  0
    9.4083   -1.0121   -0.9956 H   0  0  0  0  0  0  0  0  0  0  0  0
  1  2  1  0
  2  3  1  0
  3  4  2  0
  4  5  1  0
  5  6  1  0
  6  7  1  0
  7  8  2  0
  7  9  1  0
  9 10  1  0
 10 11  2  0
 11 12  1  0
 12 13  2  0
 13 14  1  0
 14 15  2  0
 13 16  1  0
 16 17  2  0
 17 18  1  0
 18 19  1  0
 19 20  2  0
 20 21  1  0
 21 22  2  0
 22 23  1  0
 23 24  1  0
 23 25  2  0
 20 26  1  0
 26 27  1  0
 27 28  1  0
  5 29  2  0
 29 30  1  0
 30 31  1  0
 31 32  1  0
 30 33  2  0
 33 34  1  0
 34 35  1  0
 33  3  1  0
 15 10  1  0
 25 16  1  0
 28 26  1  0
 25 19  1  0
  1 36  1  0
  1 37  1  0
  1 38  1  0
  4 39  1  0
  6 40  1  0
  9 41  1  0
 11 42  1  0
 12 43  1  0
 14 44  1  0
 15 45  1  0
 17 46  1  0
 21 47  1  0
 24 48  1  0
 24 49  1  0
 26 50  1  0
 27 51  1  0
 27 52  1  0
 28 53  1  0
 28 54  1  0
 29 55  1  0
 32 56  1  0
 32 57  1  0
 32 58  1  0
 35 59  1  0
 35 60  1  0
 35 61  1  0
M  END
$$$$
[H]c1nc(N([H])C(=O)c2c([H])c([H])c3c(C([H])([H])[H])c([H])c([H])nc3c2[H])c(C([H])([H])[H])c([H])c1[H]
     RDKit          3D

 36 38  0  0  0  0  0  0  0  0999 V2000
   -3.9489   -1.6772   -0.0023 C   0  0  0  0  0  0  0  0  0  0  0  0
   -4.2710   -0.2187   -0.1653 C   0  0  0  0  0  0  0  0  0  0  0  0
   -5.5580    0.2221   -0.2768 C   0  0  0  0  0  0  0  0  0  0  0  0
   -5.7728    1.5777   -0.4240 C   0  0  0  0  0  0  0  0  0  0  0  0
   -4.7250    2.4801   -0.4596 C   0  0  0  0  0  0  0  0  0  0  0  0
   -3.4810    1.9820   -0.3446 N   0  0  0  0  0  0  0  0  0  0  0  0
   -3.2173    0.6760   -0.1999 C   0  0  0  0  0  0  0  0  0  0  0  0
   -1.8753    0.2125   -0.0832 N   0  0  0  0  0  0  0  0  0  0  0  0
   -0.8001    1.1242   -0.1184 C   0  0  0  0  0  0  0  0  0  0  0  0
   -1.0436    2.3677   -0.2559 O   0  0  0  0  0  0  0  0  0  0  0  0
    0.5716    0.6465    0.0013 C   0  0  0  0  0  0  0  0  0  0  0  0
    1.6323    1.5542   -0.0573 C   0  0  0  0  0  0  0  0  0  0  0  0
    2.9445    1.1622    0.0501 C   0  0  0  0  0  0  0  0  0  0  0  0
    3.2612   -0.1686    0.2227 C   0  0  0  0  0  0  0  0  0  0  0  0
    4.5871   -0.5766    0.3326 C   0  0  0  0  0  0  0  0  0  0  0  0
    5.6493    0.4574    0.2591 C   0  0  0  0  0  0  0  0  0  0  0  0
    4.8741   -1.9097    0.5041 C   0  0  0  0  0  0  0  0  0  0  0  0
    3.8175   -2.7948    0.5601 C   0  0  0  0  0  0  0  0  0  0  0  0
    2.5460   -2.3713    0.4509 N   0  0  0  0  0  0  0  0  0  0  0  0
    2.2187   -1.0641    0.2806 C   0  0  0  0  0  0  0  0  0  0  0  0
    0.8821   -0.6775    0.1728 C   0  0  0  0  0  0  0  0  0  0  0  0
   -3.5211   -1.8835    1.0057 H   0  0  0  0  0  0  0  0  0  0  0  0
   -4.8729   -2.2802   -0.0767 H   0  0  0  0  0  0  0  0  0  0  0  0
   -3.1885   -2.0089   -0.7448 H   0  0  0  0  0  0  0  0  0  0  0  0
   -6.3535   -0.5110   -0.2450 H   0  0  0  0  0  0  0  0  0  0  0  0
   -6.7817    1.9283   -0.5119 H   0  0  0  0  0  0  0  0  0  0  0  0
   -4.9126    3.5524   -0.5769 H   0  0  0  0  0  0  0  0  0  0  0  0
   -1.7158   -0.8061    0.0272 H   0  0  0  0  0  0  0  0  0  0  0  0
    1.3980    2.5975   -0.1920 H   0  0  0  0  0  0  0  0  0  0  0  0
    3.7728    1.8745    0.0039 H   0  0  0  0  0  0  0  0  0  0  0  0
    5.7458    0.7737   -0.8072 H   0  0  0  0  0  0  0  0  0  0  0  0
    6.6006   -0.0357    0.6097 H   0  0  0  0  0  0  0  0  0  0  0  0
    5.4868    1.3001    0.9493 H   0  0  0  0  0  0  0  0  0  0  0  0
    5.9066   -2.2143    0.5881 H   0  0  0  0  0  0  0  0  0  0  0  0
    4.0096   -3.8515    0.6944 H   0  0  0  0  0  0  0  0  0  0  0  0
    0.1344   -1.4394    0.2289 H   0  0  0  0  0  0  0  0  0  0  0  0
  1  2  1  0
  2  3  2  0
  3  4  1  0
  4  5  2  0
  5  6  1  0
  6  7  2  0
  7  8  1  0
  8  9  1  0
  9 10  2  0
  9 11  1  0
 11 12  2  0
 12 13  1  0
 13 14  2  0
 14 15  1  0
 15 16  1  0
 15 17  2  0
 17 18  1  0
 18 19  2  0
 19 20  1  0
 20 21  2  0
  7  2  1  0
 21 11  1  0
 20 14  1  0
  1 22  1  0
  1 23  1  0
  1 24  1  0
  3 25  1  0
  4 26  1  0
  5 27  1  0
  8 28  1  0
 12 29  1  0
 13 30  1  0
 16 31  1  0
 16 32  1  0
 16 33  1  0
 17 34  1  0
 18 35  1  0
 21 36  1  0
M  END
$$$$
[H]O[C@@]1([H])C([H])([H])[C@]([H])(C([H])([H])N([H])C([H])([H])[C@]([H])(N([H])[H])[C@]([H])(O[H])C([H])([H])[H])[C@]([H])(C([H])([H])[H])[C@@]1([H])O[H]
     RDKit          3D

 40 40  0  0  0  0  0  0  0  0999 V2000
    5.0700    0.8213    0.9354 C   0  0  0  0  0  0  0  0  0  0  0  0
    3.6018    0.5830    1.1063 C   0  0  1  0  0  0  0  0  0  0  0  0
    2.9080    1.7223    1.5677 O   0  0  0  0  0  0  0  0  0  0  0  0
    2.9355    0.0233   -0.1453 C   0  0  1  0  0  0  0  0  0  0  0  0
    3.7279   -1.1243   -0.5485 N   0  0  0  0  0  0  0  0  0  0  0  0
    1.5384   -0.3852    0.2608 C   0  0  0  0  0  0  0  0  0  0  0  0
    0.7833   -0.9393   -0.8477 N   0  0  0  0  0  0  0  0  0  0  0  0
   -0.4982   -1.3343   -0.3662 C   0  0  0  0  0  0  0  0  0  0  0  0
   -1.4094   -0.2216    0.0492 C   0  0  1  0  0  0  0  0  0  0  0  0
   -1.7452    0.7525   -1.0291 C   0  0  0  0  0  0  0  0  0  0  0  0
   -2.8965    1.5348   -0.3785 C   0  0  2  0  0  0  0  0  0  0  0  0
   -2.3469    2.3780    0.5833 O   0  0  0  0  0  0  0  0  0  0  0  0
   -3.6915    0.4721    0.3452 C   0  0  2  0  0  0  0  0  0  0  0  0
   -4.0079    0.8418    1.6605 O   0  0  0  0  0  0  0  0  0  0  0  0
   -2.7874   -0.7416    0.4330 C   0  0  1  0  0  0  0  0  0  0  0  0
   -3.2688   -1.7889   -0.5478 C   0  0  0  0  0  0  0  0  0  0  0  0
    5.3685    1.0655   -0.1061 H   0  0  0  0  0  0  0  0  0  0  0  0
    5.3620    1.6898    1.5659 H   0  0  0  0  0  0  0  0  0  0  0  0
    5.6255   -0.0579    1.3288 H   0  0  0  0  0  0  0  0  0  0  0  0
    3.4838   -0.1501    1.9611 H   0  0  0  0  0  0  0  0  0  0  0  0
    2.7329    2.2620    0.7322 H   0  0  0  0  0  0  0  0  0  0  0  0
    2.9785    0.7668   -0.9457 H   0  0  0  0  0  0  0  0  0  0  0  0
    4.2469   -1.5643    0.2368 H   0  0  0  0  0  0  0  0  0  0  0  0
    3.1626   -1.8226   -1.0756 H   0  0  0  0  0  0  0  0  0  0  0  0
    1.6212   -1.1306    1.0643 H   0  0  0  0  0  0  0  0  0  0  0  0
    1.0069    0.5288    0.5805 H   0  0  0  0  0  0  0  0  0  0  0  0
    0.6804   -0.1220   -1.5245 H   0  0  0  0  0  0  0  0  0  0  0  0
   -1.0573   -1.9474   -1.1320 H   0  0  0  0  0  0  0  0  0  0  0  0
   -0.3992   -2.0077    0.5205 H   0  0  0  0  0  0  0  0  0  0  0  0
   -1.0325    0.3425    0.9284 H   0  0  0  0  0  0  0  0  0  0  0  0
   -2.0679    0.3097   -1.9708 H   0  0  0  0  0  0  0  0  0  0  0  0
   -0.9380    1.5265   -1.1743 H   0  0  0  0  0  0  0  0  0  0  0  0
   -3.4891    2.0701   -1.1435 H   0  0  0  0  0  0  0  0  0  0  0  0
   -2.9227    2.5207    1.3701 H   0  0  0  0  0  0  0  0  0  0  0  0
   -4.6365    0.2479   -0.1910 H   0  0  0  0  0  0  0  0  0  0  0  0
   -4.7043    0.2565    2.0326 H   0  0  0  0  0  0  0  0  0  0  0  0
   -2.7041   -1.1664    1.4398 H   0  0  0  0  0  0  0  0  0  0  0  0
   -2.8198   -2.7694   -0.2694 H   0  0  0  0  0  0  0  0  0  0  0  0
   -4.3696   -1.9177   -0.4845 H   0  0  0  0  0  0  0  0  0  0  0  0
   -3.0414   -1.5246   -1.5994 H   0  0  0  0  0  0  0  0  0  0  0  0
  1  2  1  0
  2  3  1  0
  2  4  1  0
  4  5  1  0
  4  6  1  0
  6  7  1  0
  7  8  1  0
  8  9  1  0
  9 10  1  0
 10 11  1  0
 11 12  1  0
 11 13  1  0
 13 14  1  0
 13 15  1  0
 15 16  1  0
 15  9  1  0
  1 17  1  0
  1 18  1  0
  1 19  1  0
  2 20  1  1
  3 21  1  0
  4 22  1  6
  5 23  1  0
  5 24  1  0
  6 25  1  0
  6 26  1  0
  7 27  1  0
  8 28  1  0
  8 29  1  0
  9 30  1  1
 10 31  1  0
 10 32  1  0
 11 33  1  6
 12 34  1  0
 13 35  1  6
 14 36  1  0
 15 37  1  1
 16 38  1  0
 16 39  1  0
 16 40  1  0
M  END
$$$$
[H]C1=C(n2c([H])nc3c([H])c(-c4nc(OC([H])([H])[H])c([H])c(N([H])[H])n4)c([H])c([H])c32)C([H])([H])C(=O)N([H])C1([H])[H]
     RDKit          3D

 41 44  0  0  0  0  0  0  0  0999 V2000
    5.0592    2.8346   -1.6765 C   0  0  0  0  0  0  0  0  0  0  0  0
    5.6729    1.7283   -1.0612 O   0  0  0  0  0  0  0  0  0  0  0  0
    4.9783    0.6778   -0.4855 C   0  0  0  0  0  0  0  0  0  0  0  0
    5.7225   -0.3359    0.0795 C   0  0  0  0  0  0  0  0  0  0  0  0
    5.0513   -1.3817    0.6528 C   0  0  0  0  0  0  0  0  0  0  0  0
    5.7542   -2.4514    1.2484 N   0  0  0  0  0  0  0  0  0  0  0  0
    3.6897   -1.3991    0.6533 N   0  0  0  0  0  0  0  0  0  0  0  0
    2.9581   -0.4136    0.1040 C   0  0  0  0  0  0  0  0  0  0  0  0
    3.6327    0.6075   -0.4556 N   0  0  0  0  0  0  0  0  0  0  0  0
    1.5013   -0.4588    0.1193 C   0  0  0  0  0  0  0  0  0  0  0  0
    0.7208    0.5266   -0.4303 C   0  0  0  0  0  0  0  0  0  0  0  0
   -0.6805    0.4803   -0.4147 C   0  0  0  0  0  0  0  0  0  0  0  0
   -1.3322   -0.5857    0.1677 C   0  0  0  0  0  0  0  0  0  0  0  0
   -2.6384   -0.8824    0.3419 N   0  0  0  0  0  0  0  0  0  0  0  0
   -2.6348   -2.0793    1.0215 C   0  0  0  0  0  0  0  0  0  0  0  0
   -1.3858   -2.4726    1.2361 N   0  0  0  0  0  0  0  0  0  0  0  0
   -0.5351   -1.5787    0.7236 C   0  0  0  0  0  0  0  0  0  0  0  0
    0.8367   -1.5129    0.6972 C   0  0  0  0  0  0  0  0  0  0  0  0
   -3.8077   -0.2489   -0.1155 C   0  0  0  0  0  0  0  0  0  0  0  0
   -3.9340    0.6511   -1.0478 C   0  0  0  0  0  0  0  0  0  0  0  0
   -5.2685    1.2384   -1.4182 C   0  0  0  0  0  0  0  0  0  0  0  0
   -6.0733    1.4811   -0.2452 N   0  0  0  0  0  0  0  0  0  0  0  0
   -5.8712    0.6260    0.8856 C   0  0  0  0  0  0  0  0  0  0  0  0
   -6.2955    0.9115    2.0158 O   0  0  0  0  0  0  0  0  0  0  0  0
   -5.1054   -0.6380    0.5843 C   0  0  0  0  0  0  0  0  0  0  0  0
    4.0793    2.5204   -2.0525 H   0  0  0  0  0  0  0  0  0  0  0  0
    4.9660    3.6525   -0.9176 H   0  0  0  0  0  0  0  0  0  0  0  0
    5.6678    3.2367   -2.5052 H   0  0  0  0  0  0  0  0  0  0  0  0
    6.8029   -0.3408    0.0894 H   0  0  0  0  0  0  0  0  0  0  0  0
    5.3112   -3.3940    1.2874 H   0  0  0  0  0  0  0  0  0  0  0  0
    6.7001   -2.3477    1.6543 H   0  0  0  0  0  0  0  0  0  0  0  0
    1.1870    1.3976   -0.9080 H   0  0  0  0  0  0  0  0  0  0  0  0
   -1.2444    1.2783   -0.8248 H   0  0  0  0  0  0  0  0  0  0  0  0
   -3.5502   -2.5954    1.3152 H   0  0  0  0  0  0  0  0  0  0  0  0
    1.4639   -2.3024    1.1383 H   0  0  0  0  0  0  0  0  0  0  0  0
   -3.0921    0.9770   -1.6106 H   0  0  0  0  0  0  0  0  0  0  0  0
   -5.8235    0.5832   -2.1171 H   0  0  0  0  0  0  0  0  0  0  0  0
   -5.1033    2.2146   -1.9171 H   0  0  0  0  0  0  0  0  0  0  0  0
   -6.7712    2.2424   -0.2167 H   0  0  0  0  0  0  0  0  0  0  0  0
   -4.9298   -1.1800    1.5099 H   0  0  0  0  0  0  0  0  0  0  0  0
   -5.6790   -1.2665   -0.1235 H   0  0  0  0  0  0  0  0  0  0  0  0
  1  2  1  0
  2  3  1  0
  3  4  2  0
  4  5  1  0
  5  6  1  0
  5  7  2  0
  7  8  1  0
  8  9  2  0
  8 10  1  0
 10 11  2  0
 11 12  1  0
 12 13  2  0
 13 14  1  0
 14 15  1  0
 15 16  2  0
 16 17  1  0
 17 18  2  0
 14 19  1  0
 19 20  2  0
 20 21  1  0
 21 22  1  0
 22 23  1  0
 23 24  2  0
 23 25  1  0
  9  3  1  0
 18 10  1  0
 25 19  1  0
 17 13  1  0
  1 26  1  0
  1 27  1  0
  1 28  1  0
  4 29  1  0
  6 30  1  0
  6 31  1  0
 11 32  1  0
 12 33  1  0
 15 34  1  0
 18 35  1  0
 20 36  1  0
 21 37  1  0
 21 38  1  0
 22 39  1  0
 25 40  1  0
 25 41  1  0
M  END
$$$$
[H]OC(=O)N1C(=O)C([H])([H])N(S(=O)(=O)c2c([H])c([H])c(OC([H])([H])[H])c([H])c2[H])C(=O)C1([H])C([H])([H])c1c([H])c([H])c([N+](=O)[O-])c([H])c1[H]
     RDKit          3D

 49 51  0  0  0  0  0  0  0  0999 V2000
    7.9272    1.5696    0.1641 C   0  0  0  0  0  0  0  0  0  0  0  0
    7.2348    0.7666    1.1022 O   0  0  0  0  0  0  0  0  0  0  0  0
    6.0627    0.1330    0.7116 C   0  0  0  0  0  0  0  0  0  0  0  0
    5.5263    0.2429   -0.5570 C   0  0  0  0  0  0  0  0  0  0  0  0
    4.3590   -0.3909   -0.9391 C   0  0  0  0  0  0  0  0  0  0  0  0
    3.6777   -1.1733   -0.0379 C   0  0  0  0  0  0  0  0  0  0  0  0
    4.1922   -1.2964    1.2285 C   0  0  0  0  0  0  0  0  0  0  0  0
    5.3585   -0.6624    1.6079 C   0  0  0  0  0  0  0  0  0  0  0  0
    2.2223   -1.9853   -0.4570 S   0  0  0  0  0  0  0  0  0  0  0  0
    2.2388   -2.4467   -1.8992 O   0  0  0  0  0  0  0  0  0  0  0  0
    2.0994   -3.2528    0.3802 O   0  0  0  0  0  0  0  0  0  0  0  0
    0.8040   -1.0559   -0.1645 N   0  0  0  0  0  0  0  0  0  0  0  0
    0.7754    0.3782   -0.1330 C   0  0  0  0  0  0  0  0  0  0  0  0
   -0.3204    0.8597   -0.9962 C   0  0  0  0  0  0  0  0  0  0  0  0
   -0.3588    1.9756   -1.5628 O   0  0  0  0  0  0  0  0  0  0  0  0
   -1.4442   -0.0163   -1.2128 N   0  0  0  0  0  0  0  0  0  0  0  0
   -1.7248   -1.1077   -0.3153 C   0  0  0  0  0  0  0  0  0  0  0  0
   -2.3992   -0.6716    0.9611 C   0  0  0  0  0  0  0  0  0  0  0  0
   -3.7025   -0.0104    0.7151 C   0  0  0  0  0  0  0  0  0  0  0  0
   -3.8439    1.3445    0.5015 C   0  0  0  0  0  0  0  0  0  0  0  0
   -5.1043    1.8902    0.2836 C   0  0  0  0  0  0  0  0  0  0  0  0
   -6.2561    1.1107    0.2711 C   0  0  0  0  0  0  0  0  0  0  0  0
   -6.1151   -0.2445    0.4848 C   0  0  0  0  0  0  0  0  0  0  0  0
   -4.8650   -0.7661    0.6979 C   0  0  0  0  0  0  0  0  0  0  0  0
   -7.5349    1.6642    0.0504 N   0  0  0  0  0  0  0  0  0  0  0  0
   -7.6647    3.0263   -0.1623 O   0  0  0  0  0  0  0  0  0  0  0  0
   -8.5384    0.9263    0.0480 O   0  0  0  0  0  0  0  0  0  0  0  0
   -0.4128   -1.7603    0.0610 C   0  0  0  0  0  0  0  0  0  0  0  0
   -0.3880   -2.9201    0.5711 O   0  0  0  0  0  0  0  0  0  0  0  0
   -2.2877    0.1882   -2.3334 C   0  0  0  0  0  0  0  0  0  0  0  0
   -3.3718   -0.6260   -2.6051 O   0  0  0  0  0  0  0  0  0  0  0  0
   -2.0655    1.1531   -3.1446 O   0  0  0  0  0  0  0  0  0  0  0  0
    8.0461    0.9903   -0.7832 H   0  0  0  0  0  0  0  0  0  0  0  0
    8.9008    1.9234    0.5612 H   0  0  0  0  0  0  0  0  0  0  0  0
    7.3497    2.4863   -0.1146 H   0  0  0  0  0  0  0  0  0  0  0  0
    6.0712    0.8669   -1.2746 H   0  0  0  0  0  0  0  0  0  0  0  0
    4.0272   -0.2374   -1.9575 H   0  0  0  0  0  0  0  0  0  0  0  0
    3.6963   -1.9074    1.9950 H   0  0  0  0  0  0  0  0  0  0  0  0
    5.7791   -0.7521    2.6105 H   0  0  0  0  0  0  0  0  0  0  0  0
    0.5381    0.7121    0.9208 H   0  0  0  0  0  0  0  0  0  0  0  0
    1.7498    0.8415   -0.3772 H   0  0  0  0  0  0  0  0  0  0  0  0
   -2.3302   -1.8679   -0.8069 H   0  0  0  0  0  0  0  0  0  0  0  0
   -2.4867   -1.5060    1.6808 H   0  0  0  0  0  0  0  0  0  0  0  0
   -1.6957    0.0588    1.4467 H   0  0  0  0  0  0  0  0  0  0  0  0
   -2.9646    1.9695    0.5074 H   0  0  0  0  0  0  0  0  0  0  0  0
   -5.2162    2.9446    0.1165 H   0  0  0  0  0  0  0  0  0  0  0  0
   -7.0062   -0.8646    0.4779 H   0  0  0  0  0  0  0  0  0  0  0  0
   -4.7634   -1.8198    0.8622 H   0  0  0  0  0  0  0  0  0  0  0  0
   -3.7753   -0.6807   -3.5266 H   0  0  0  0  0  0  0  0  0  0  0  0
  1  2  1  0
  2  3  1  0
  3  4  2  0
  4  5  1  0
  5  6  2  0
  6  7  1  0
  7  8  2  0
  6  9  1  0
  9 10  2  0
  9 11  2  0
  9 12  1  0
 12 13  1  0
 13 14  1  0
 14 15  2  0
 14 16  1  0
 16 17  1  0
 17 18  1  0
 18 19  1  0
 19 20  2  0
 20 21  1  0
 21 22  2  0
 22 23  1  0
 23 24  2  0
 22 25  1  0
 25 26  1  0
 25 27  2  0
 17 28  1  0
 28 29  2  0
 16 30  1  0
 30 31  1  0
 30 32  2  0
  8  3  1  0
 28 12  1  0
 24 19  1  0
  1 33  1  0
  1 34  1  0
  1 35  1  0
  4 36  1  0
  5 37  1  0
  7 38  1  0
  8 39  1  0
 13 40  1  0
 13 41  1  0
 17 42  1  0
 18 43  1  0
 18 44  1  0
 20 45  1  0
 21 46  1  0
 23 47  1  0
 24 48  1  0
 31 49  1  0
M  CHG  2  25   1  26  -1
M  END
$$$$
[H]c1nc(N2C([H])([H])C([H])([H])C([H])(C(=O)N3C([H])([H])C([H])([H])OC([H])(C(C([H])([H])[H])(C([H])([H])[H])C([H])([H])[H])C([H])([H])C3([H])[H])C([H])([H])C2([H])[H])nc(OC([H])([H])[H])c1N([H])C(=O)c1c([H])c([H])c(F)c([H])c1[H]
     RDKit          3D

 73 76  0  0  0  0  0  0  0  0999 V2000
    6.1715   -0.3265   -2.1005 C   0  0  0  0  0  0  0  0  0  0  0  0
    6.1194   -0.0444   -0.7368 O   0  0  0  0  0  0  0  0  0  0  0  0
    5.0045    0.2134    0.0145 C   0  0  0  0  0  0  0  0  0  0  0  0
    3.7710    0.2266   -0.4648 N   0  0  0  0  0  0  0  0  0  0  0  0
    2.6941    0.4766    0.2687 C   0  0  0  0  0  0  0  0  0  0  0  0
    2.8669    0.7278    1.5591 N   0  0  0  0  0  0  0  0  0  0  0  0
    4.0976    0.7334    2.1285 C   0  0  0  0  0  0  0  0  0  0  0  0
    5.2411    0.4831    1.4214 C   0  0  0  0  0  0  0  0  0  0  0  0
    6.5484    0.4325    1.8112 N   0  0  0  0  0  0  0  0  0  0  0  0
    7.8294    0.3829    2.1934 C   0  0  0  0  0  0  0  0  0  0  0  0
    8.3084    0.6343    3.3468 O   0  0  0  0  0  0  0  0  0  0  0  0
    8.9085    0.0029    1.2395 C   0  0  0  0  0  0  0  0  0  0  0  0
    9.4097    0.8753    0.3156 C   0  0  0  0  0  0  0  0  0  0  0  0
   10.4330    0.4652   -0.5335 C   0  0  0  0  0  0  0  0  0  0  0  0
   10.9608   -0.8101   -0.4688 C   0  0  0  0  0  0  0  0  0  0  0  0
   11.9558   -1.1553   -1.3186 F   0  0  0  0  0  0  0  0  0  0  0  0
   10.4343   -1.6679    0.4735 C   0  0  0  0  0  0  0  0  0  0  0  0
    9.4288   -1.2594    1.3058 C   0  0  0  0  0  0  0  0  0  0  0  0
    1.4153    0.4660   -0.3144 N   0  0  0  0  0  0  0  0  0  0  0  0
    0.2641    1.0049    0.3730 C   0  0  0  0  0  0  0  0  0  0  0  0
   -0.7987   -0.0989    0.3215 C   0  0  0  0  0  0  0  0  0  0  0  0
   -1.2345   -0.3587   -1.1015 C   0  0  0  0  0  0  0  0  0  0  0  0
   -0.1819    0.1435   -2.0575 C   0  0  0  0  0  0  0  0  0  0  0  0
    1.2275   -0.0995   -1.6236 C   0  0  0  0  0  0  0  0  0  0  0  0
   -2.5228    0.2669   -1.4421 C   0  0  0  0  0  0  0  0  0  0  0  0
   -2.5017    1.1749   -2.3244 O   0  0  0  0  0  0  0  0  0  0  0  0
   -3.7681   -0.0475   -0.8832 N   0  0  0  0  0  0  0  0  0  0  0  0
   -3.8997   -1.0798    0.1224 C   0  0  0  0  0  0  0  0  0  0  0  0
   -4.6131   -0.4274    1.3125 C   0  0  0  0  0  0  0  0  0  0  0  0
   -5.9536   -0.7136    1.1887 O   0  0  0  0  0  0  0  0  0  0  0  0
   -6.6222    0.1905    0.3596 C   0  0  0  0  0  0  0  0  0  0  0  0
   -6.2283    0.0623   -1.0789 C   0  0  0  0  0  0  0  0  0  0  0  0
   -4.9015    0.7267   -1.3784 C   0  0  0  0  0  0  0  0  0  0  0  0
   -8.0989   -0.1546    0.4799 C   0  0  0  0  0  0  0  0  0  0  0  0
   -8.5692   -0.0183    1.9203 C   0  0  0  0  0  0  0  0  0  0  0  0
   -8.9472    0.7248   -0.3987 C   0  0  0  0  0  0  0  0  0  0  0  0
   -8.3293   -1.6110    0.1097 C   0  0  0  0  0  0  0  0  0  0  0  0
    7.2415   -0.1731   -2.4143 H   0  0  0  0  0  0  0  0  0  0  0  0
    5.5375    0.3976   -2.6891 H   0  0  0  0  0  0  0  0  0  0  0  0
    5.8894   -1.3648   -2.2853 H   0  0  0  0  0  0  0  0  0  0  0  0
    4.1674    0.9479    3.2072 H   0  0  0  0  0  0  0  0  0  0  0  0
    6.2313    0.8817    3.0831 H   0  0  0  0  0  0  0  0  0  0  0  0
    9.0153    1.8771    0.2448 H   0  0  0  0  0  0  0  0  0  0  0  0
   10.8250    1.1832   -1.2691 H   0  0  0  0  0  0  0  0  0  0  0  0
   10.8645   -2.6621    0.5022 H   0  0  0  0  0  0  0  0  0  0  0  0
    9.0394   -1.9685    2.0389 H   0  0  0  0  0  0  0  0  0  0  0  0
    0.5530    1.1843    1.4197 H   0  0  0  0  0  0  0  0  0  0  0  0
   -0.0898    1.9350   -0.1246 H   0  0  0  0  0  0  0  0  0  0  0  0
   -0.3129   -0.9893    0.7804 H   0  0  0  0  0  0  0  0  0  0  0  0
   -1.6259    0.2865    0.9473 H   0  0  0  0  0  0  0  0  0  0  0  0
   -1.3860   -1.4681   -1.2646 H   0  0  0  0  0  0  0  0  0  0  0  0
   -0.2869   -0.3400   -3.0620 H   0  0  0  0  0  0  0  0  0  0  0  0
   -0.3745    1.2382   -2.2056 H   0  0  0  0  0  0  0  0  0  0  0  0
    1.5238   -1.1690   -1.6944 H   0  0  0  0  0  0  0  0  0  0  0  0
    1.8783    0.5079   -2.3222 H   0  0  0  0  0  0  0  0  0  0  0  0
   -4.5747   -1.8685   -0.3225 H   0  0  0  0  0  0  0  0  0  0  0  0
   -2.9900   -1.5936    0.3927 H   0  0  0  0  0  0  0  0  0  0  0  0
   -4.3937    0.6860    1.3124 H   0  0  0  0  0  0  0  0  0  0  0  0
   -4.2265   -0.7923    2.2759 H   0  0  0  0  0  0  0  0  0  0  0  0
   -6.5110    1.2314    0.6648 H   0  0  0  0  0  0  0  0  0  0  0  0
   -6.1878   -1.0261   -1.3150 H   0  0  0  0  0  0  0  0  0  0  0  0
   -6.9862    0.5943   -1.6829 H   0  0  0  0  0  0  0  0  0  0  0  0
   -4.8599    0.8592   -2.4803 H   0  0  0  0  0  0  0  0  0  0  0  0
   -4.9251    1.7030   -0.8595 H   0  0  0  0  0  0  0  0  0  0  0  0
   -7.9049   -0.6814    2.5221 H   0  0  0  0  0  0  0  0  0  0  0  0
   -8.4667    1.0067    2.3122 H   0  0  0  0  0  0  0  0  0  0  0  0
   -9.5760   -0.4391    2.0118 H   0  0  0  0  0  0  0  0  0  0  0  0
   -8.4835    1.6859   -0.6574 H   0  0  0  0  0  0  0  0  0  0  0  0
   -9.2065    0.1938   -1.3427 H   0  0  0  0  0  0  0  0  0  0  0  0
   -9.9322    0.9055    0.1033 H   0  0  0  0  0  0  0  0  0  0  0  0
   -9.4067   -1.8083    0.3657 H   0  0  0  0  0  0  0  0  0  0  0  0
   -8.2441   -1.8029   -0.9734 H   0  0  0  0  0  0  0  0  0  0  0  0
   -7.7342   -2.2856    0.7404 H   0  0  0  0  0  0  0  0  0  0  0  0
  1  2  1  0
  2  3  1  0
  3  4  2  0
  4  5  1  0
  5  6  2  0
  6  7  1  0
  7  8  2  0
  8  9  1  0
  9 10  1  0
 10 11  2  0
 10 12  1  0
 12 13  2  0
 13 14  1  0
 14 15  2  0
 15 16  1  0
 15 17  1  0
 17 18  2  0
  5 19  1  0
 19 20  1  0
 20 21  1  0
 21 22  1  0
 22 23  1  0
 23 24  1  0
 22 25  1  0
 25 26  2  0
 25 27  1  0
 27 28  1  0
 28 29  1  0
 29 30  1  0
 30 31  1  0
 31 32  1  0
 32 33  1  0
 31 34  1  0
 34 35  1  0
 34 36  1  0
 34 37  1  0
  8  3  1  0
 18 12  1  0
 24 19  1  0
 33 27  1  0
  1 38  1  0
  1 39  1  0
  1 40  1  0
  7 41  1  0
  9 42  1  0
 13 43  1  0
 14 44  1  0
 17 45  1  0
 18 46  1  0
 20 47  1  0
 20 48  1  0
 21 49  1  0
 21 50  1  0
 22 51  1  0
 23 52  1  0
 23 53  1  0
 24 54  1  0
 24 55  1  0
 28 56  1  0
 28 57  1  0
 29 58  1  0
 29 59  1  0
 31 60  1  0
 32 61  1  0
 32 62  1  0
 33 63  1  0
 33 64  1  0
 35 65  1  0
 35 66  1  0
 35 67  1  0
 36 68  1  0
 36 69  1  0
 36 70  1  0
 37 71  1  0
 37 72  1  0
 37 73  1  0
M  END
$$$$
[H]OC(=O)C1(S[C@]2([H])C([H])([H])[C@](C(=O)O[H])(N([H])[H])[C@@]3([H])[C@@]2([H])[C@]3([H])C(=O)O[H])C([H])([H])C1([H])[H]
     RDKit          2D

 35 37  0  0  0  0  0  0  0  0999 V2000
   -1.2495   -2.5838    0.0000 N   0  0  0  0  0  0  0  0  0  0  0  0
   -1.8596   -1.2135    0.0000 C   0  0  0  0  0  0  0  0  0  0  0  0
   -2.7413    0.0000    0.0000 C   0  0  0  0  0  0  0  0  0  0  0  0
   -1.8596    1.2135    0.0000 C   0  0  0  0  0  0  0  0  0  0  0  0
   -1.2495    2.5838    0.0000 S   0  0  0  0  0  0  0  0  0  0  0  0
   -2.1312    3.7974    0.0000 C   0  0  0  0  0  0  0  0  0  0  0  0
   -3.3747    4.6362    0.0000 C   0  0  0  0  0  0  0  0  0  0  0  0
   -3.4794    3.1398    0.0000 C   0  0  0  0  0  0  0  0  0  0  0  0
   -1.0892    4.8764    0.0000 C   0  0  0  0  0  0  0  0  0  0  0  0
    0.3663    4.5135    0.0000 O   0  0  0  0  0  0  0  0  0  0  0  0
   -1.5026    6.3183    0.0000 O   0  0  0  0  0  0  0  0  0  0  0  0
   -0.4330    0.7500    0.0000 C   0  0  0  0  0  0  0  0  0  0  0  0
    0.8660    0.0000    0.0000 C   0  0  0  0  0  0  0  0  0  0  0  0
   -0.4330   -0.7500    0.0000 C   0  0  0  0  0  0  0  0  0  0  0  0
    1.8302    1.1491    0.0000 C   0  0  0  0  0  0  0  0  0  0  0  0
    1.3172    2.5586    0.0000 O   0  0  0  0  0  0  0  0  0  0  0  0
    3.3074    0.8886    0.0000 O   0  0  0  0  0  0  0  0  0  0  0  0
   -3.1586   -1.9635    0.0000 C   0  0  0  0  0  0  0  0  0  0  0  0
   -3.1586   -3.4635    0.0000 O   0  0  0  0  0  0  0  0  0  0  0  0
   -4.2771   -1.4888    0.0000 O   0  0  0  0  0  0  0  0  0  0  0  0
   -2.1312   -3.7974    0.0000 H   0  0  0  0  0  0  0  0  0  0  0  0
    0.2121   -2.9213    0.0000 H   0  0  0  0  0  0  0  0  0  0  0  0
   -3.7445    0.9033    0.0000 H   0  0  0  0  0  0  0  0  0  0  0  0
   -3.7366   -0.6969    0.0000 H   0  0  0  0  0  0  0  0  0  0  0  0
   -2.6749    1.5596    0.0000 H   0  0  0  0  0  0  0  0  0  0  0  0
   -2.7646    6.0065    0.0000 H   0  0  0  0  0  0  0  0  0  0  0  0
   -4.8302    4.9990    0.0000 H   0  0  0  0  0  0  0  0  0  0  0  0
   -4.9711    2.9830    0.0000 H   0  0  0  0  0  0  0  0  0  0  0  0
   -3.3547    2.3525    0.0000 H   0  0  0  0  0  0  0  0  0  0  0  0
    1.4082    5.5925    0.0000 H   0  0  0  0  0  0  0  0  0  0  0  0
    0.1771    2.1203    0.0000 H   0  0  0  0  0  0  0  0  0  0  0  0
    1.8302   -1.1491    0.0000 H   0  0  0  0  0  0  0  0  0  0  0  0
    0.3396   -2.0357    0.0000 H   0  0  0  0  0  0  0  0  0  0  0  0
    2.2814    3.7077    0.0000 H   0  0  0  0  0  0  0  0  0  0  0  0
   -4.4577   -4.2135    0.0000 H   0  0  0  0  0  0  0  0  0  0  0  0
  1  2  1  0
  2  3  1  0
  3  4  1  0
  4  5  1  0
  5  6  1  0
  6  7  1  0
  7  8  1  0
  6  9  1  0
  9 10  1  0
  9 11  2  0
  4 12  1  0
 12 13  1  0
 13 14  1  0
 13 15  1  0
 15 16  1  0
 15 17  2  0
  2 18  1  6
 18 19  1  0
 18 20  2  0
 14  2  1  0
  8  6  1  0
 14 12  1  0
  1 21  1  0
  1 22  1  0
  3 23  1  0
  3 24  1  0
  4 25  1  6
  7 26  1  0
  7 27  1  0
  8 28  1  0
  8 29  1  0
 10 30  1  0
 12 31  1  1
 13 32  1  1
 14 33  1  6
 16 34  1  0
 19 35  1  0
M  END
$$$$
[H]N=C(c1c([H])c([H])c(C([H])([H])c2noc(C3([H])C([H])([H])C([H])([H])C([H])([H])C3([H])[H])n2)c([H])c1[H])N([H])[H]
     RDKit          3D

 38 40  0  0  0  0  0  0  0  0999 V2000
    5.8133    2.2024   -0.7460 N   0  0  0  0  0  0  0  0  0  0  0  0
    5.2906    0.8992   -0.9509 C   0  0  0  0  0  0  0  0  0  0  0  0
    5.8568    0.2059   -1.8806 N   0  0  0  0  0  0  0  0  0  0  0  0
    4.1827    0.4087   -0.1423 C   0  0  0  0  0  0  0  0  0  0  0  0
    3.6491   -0.8334   -0.3033 C   0  0  0  0  0  0  0  0  0  0  0  0
    2.5890   -1.2428    0.5032 C   0  0  0  0  0  0  0  0  0  0  0  0
    2.0418   -0.4207    1.4848 C   0  0  0  0  0  0  0  0  0  0  0  0
    0.9229   -0.9183    2.3002 C   0  0  0  0  0  0  0  0  0  0  0  0
   -0.3814   -0.5991    1.6827 C   0  0  0  0  0  0  0  0  0  0  0  0
   -1.0869    0.5207    1.9078 N   0  0  0  0  0  0  0  0  0  0  0  0
   -2.1880    0.4635    1.1937 O   0  0  0  0  0  0  0  0  0  0  0  0
   -2.2394   -0.6479    0.5059 C   0  0  0  0  0  0  0  0  0  0  0  0
   -1.1047   -1.3140    0.8138 N   0  0  0  0  0  0  0  0  0  0  0  0
   -3.3285   -1.0614   -0.4111 C   0  0  0  0  0  0  0  0  0  0  0  0
   -3.5717   -0.0665   -1.5088 C   0  0  0  0  0  0  0  0  0  0  0  0
   -4.4689    0.9486   -0.8654 C   0  0  0  0  0  0  0  0  0  0  0  0
   -5.4091    0.1150   -0.0550 C   0  0  0  0  0  0  0  0  0  0  0  0
   -4.6406   -1.1073    0.3260 C   0  0  0  0  0  0  0  0  0  0  0  0
    2.5968    0.8292    1.6291 C   0  0  0  0  0  0  0  0  0  0  0  0
    3.6427    1.2343    0.8342 C   0  0  0  0  0  0  0  0  0  0  0  0
    6.2384    2.4668    0.1541 H   0  0  0  0  0  0  0  0  0  0  0  0
    5.7630    2.8877   -1.5137 H   0  0  0  0  0  0  0  0  0  0  0  0
    5.5865   -0.7413   -2.1360 H   0  0  0  0  0  0  0  0  0  0  0  0
    4.0595   -1.4866   -1.0596 H   0  0  0  0  0  0  0  0  0  0  0  0
    2.2103   -2.2416    0.3249 H   0  0  0  0  0  0  0  0  0  0  0  0
    1.0227   -2.0405    2.3524 H   0  0  0  0  0  0  0  0  0  0  0  0
    1.0120   -0.5374    3.3361 H   0  0  0  0  0  0  0  0  0  0  0  0
   -3.1029   -2.0647   -0.8626 H   0  0  0  0  0  0  0  0  0  0  0  0
   -2.6315    0.3839   -1.8924 H   0  0  0  0  0  0  0  0  0  0  0  0
   -4.0487   -0.5811   -2.3667 H   0  0  0  0  0  0  0  0  0  0  0  0
   -3.8461    1.6116   -0.2223 H   0  0  0  0  0  0  0  0  0  0  0  0
   -4.9829    1.5977   -1.6025 H   0  0  0  0  0  0  0  0  0  0  0  0
   -6.3637   -0.1111   -0.5975 H   0  0  0  0  0  0  0  0  0  0  0  0
   -5.7107    0.7297    0.8326 H   0  0  0  0  0  0  0  0  0  0  0  0
   -5.1840   -2.0181    0.0003 H   0  0  0  0  0  0  0  0  0  0  0  0
   -4.4950   -1.2047    1.4221 H   0  0  0  0  0  0  0  0  0  0  0  0
    2.2220    1.5133    2.3678 H   0  0  0  0  0  0  0  0  0  0  0  0
    4.0848    2.2203    0.9439 H   0  0  0  0  0  0  0  0  0  0  0  0
  1  2  1  0
  2  3  2  3
  2  4  1  0
  4  5  2  0
  5  6  1  0
  6  7  2  0
  7  8  1  0
  8  9  1  0
  9 10  2  0
 10 11  1  0
 11 12  1  0
 12 13  2  0
 12 14  1  0
 14 15  1  0
 15 16  1  0
 16 17  1  0
 17 18  1  0
  7 19  1  0
 19 20  2  0
 20  4  1  0
 13  9  1  0
 18 14  1  0
  1 21  1  0
  1 22  1  0
  3 23  1  0
  5 24  1  0
  6 25  1  0
  8 26  1  0
  8 27  1  0
 14 28  1  0
 15 29  1  0
 15 30  1  0
 16 31  1  0
 16 32  1  0
 17 33  1  0
 17 34  1  0
 18 35  1  0
 18 36  1  0
 19 37  1  0
 20 38  1  0
M  END
$$$$
[H]c1c([H])c([H])c(-c2c([H])c([H])c3c(N([H])C4([H])C([H])([H])C([H])([H])N([H])C([H])([H])C4([H])[H])onc3c2[H])c(F)c1[H]
     RDKit          3D

 41 44  0  0  0  0  0  0  0  0999 V2000
    4.6013    2.2037    0.7333 F   0  0  0  0  0  0  0  0  0  0  0  0
    5.1611    1.0155    0.4200 C   0  0  0  0  0  0  0  0  0  0  0  0
    6.5550    0.9645    0.4273 C   0  0  0  0  0  0  0  0  0  0  0  0
    7.2305   -0.1789    0.1267 C   0  0  0  0  0  0  0  0  0  0  0  0
    6.5183   -1.3191   -0.1939 C   0  0  0  0  0  0  0  0  0  0  0  0
    5.1451   -1.2660   -0.2003 C   0  0  0  0  0  0  0  0  0  0  0  0
    4.4489   -0.1108    0.1031 C   0  0  0  0  0  0  0  0  0  0  0  0
    2.9994   -0.0431    0.1006 C   0  0  0  0  0  0  0  0  0  0  0  0
    2.2990    0.5622    1.1194 C   0  0  0  0  0  0  0  0  0  0  0  0
    0.9206    0.6247    1.1118 C   0  0  0  0  0  0  0  0  0  0  0  0
    0.2182    0.0696    0.0615 C   0  0  0  0  0  0  0  0  0  0  0  0
   -1.1245   -0.0284   -0.2292 C   0  0  0  0  0  0  0  0  0  0  0  0
   -2.1532    0.4897    0.6057 N   0  0  0  0  0  0  0  0  0  0  0  0
   -3.5527    0.3733    0.2773 C   0  0  0  0  0  0  0  0  0  0  0  0
   -3.9835   -1.0767    0.1504 C   0  0  0  0  0  0  0  0  0  0  0  0
   -5.4978   -1.0925    0.1421 C   0  0  0  0  0  0  0  0  0  0  0  0
   -6.0387    0.2109   -0.1470 N   0  0  0  0  0  0  0  0  0  0  0  0
   -5.3825    0.8534   -1.2604 C   0  0  0  0  0  0  0  0  0  0  0  0
   -3.9050    1.0710   -1.0109 C   0  0  0  0  0  0  0  0  0  0  0  0
   -1.1988   -0.6611   -1.3636 O   0  0  0  0  0  0  0  0  0  0  0  0
   -0.0219   -0.9732   -1.8184 N   0  0  0  0  0  0  0  0  0  0  0  0
    0.9353   -0.5460   -0.9741 C   0  0  0  0  0  0  0  0  0  0  0  0
    2.3103   -0.5980   -0.9480 C   0  0  0  0  0  0  0  0  0  0  0  0
    7.1442    1.8467    0.6759 H   0  0  0  0  0  0  0  0  0  0  0  0
    8.3147   -0.1851    0.1415 H   0  0  0  0  0  0  0  0  0  0  0  0
    7.0965   -2.1969   -0.4237 H   0  0  0  0  0  0  0  0  0  0  0  0
    4.5915   -2.1568   -0.4508 H   0  0  0  0  0  0  0  0  0  0  0  0
    2.8040    1.0145    1.9711 H   0  0  0  0  0  0  0  0  0  0  0  0
    0.3493    1.0989    1.9079 H   0  0  0  0  0  0  0  0  0  0  0  0
   -1.9084    0.9772    1.4954 H   0  0  0  0  0  0  0  0  0  0  0  0
   -4.1569    0.8084    1.0902 H   0  0  0  0  0  0  0  0  0  0  0  0
   -3.5672   -1.7102    0.9482 H   0  0  0  0  0  0  0  0  0  0  0  0
   -3.6670   -1.4173   -0.8761 H   0  0  0  0  0  0  0  0  0  0  0  0
   -5.8999   -1.8847   -0.5209 H   0  0  0  0  0  0  0  0  0  0  0  0
   -5.8151   -1.3797    1.1794 H   0  0  0  0  0  0  0  0  0  0  0  0
   -6.1557    0.8179    0.6826 H   0  0  0  0  0  0  0  0  0  0  0  0
   -5.9043    1.8390   -1.4023 H   0  0  0  0  0  0  0  0  0  0  0  0
   -5.5221    0.1953   -2.1428 H   0  0  0  0  0  0  0  0  0  0  0  0
   -3.3387    0.6834   -1.8637 H   0  0  0  0  0  0  0  0  0  0  0  0
   -3.7139    2.1734   -0.9238 H   0  0  0  0  0  0  0  0  0  0  0  0
    2.8649   -1.0689   -1.7397 H   0  0  0  0  0  0  0  0  0  0  0  0
  1  2  1  0
  2  3  2  0
  3  4  1  0
  4  5  2  0
  5  6  1  0
  6  7  2  0
  7  8  1  0
  8  9  1  0
  9 10  2  0
 10 11  1  0
 11 12  2  0
 12 13  1  0
 13 14  1  0
 14 15  1  0
 15 16  1  0
 16 17  1  0
 17 18  1  0
 18 19  1  0
 12 20  1  0
 20 21  1  0
 21 22  2  0
 22 23  1  0
  7  2  1  0
 23  8  2  0
 22 11  1  0
 19 14  1  0
  3 24  1  0
  4 25  1  0
  5 26  1  0
  6 27  1  0
  9 28  1  0
 10 29  1  0
 13 30  1  0
 14 31  1  0
 15 32  1  0
 15 33  1  0
 16 34  1  0
 16 35  1  0
 17 36  1  0
 18 37  1  0
 18 38  1  0
 19 39  1  0
 19 40  1  0
 23 41  1  0
M  END
$$$$
[H]OC(=O)C([H])([H])N([H])C(=O)[C@]([H])(c1c([H])c(Br)c([H])c(Br)c1OC([H])([H])C1(C(=O)N([H])c2c([H])c([H])c([H])c([H])c2[H])c2c([H])c([H])c(Cl)c([H])c21)C([H])([H])[H]
     RDKit          3D

 57 60  0  0  0  0  0  0  0  0999 V2000
    2.3277    1.6927   -1.0037 C   0  0  0  0  0  0  0  0  0  0  0  0
    2.1622    0.6399    0.0721 C   0  0  2  0  0  0  0  0  0  0  0  0
    3.4115    0.9241    0.9960 C   0  0  0  0  0  0  0  0  0  0  0  0
    3.2601    0.7482    2.1826 O   0  0  0  0  0  0  0  0  0  0  0  0
    4.6023    1.3618    0.3861 N   0  0  0  0  0  0  0  0  0  0  0  0
    5.8211    1.6288    1.1307 C   0  0  0  0  0  0  0  0  0  0  0  0
    6.8633    2.0649    0.1677 C   0  0  0  0  0  0  0  0  0  0  0  0
    8.0155    2.6966    0.6028 O   0  0  0  0  0  0  0  0  0  0  0  0
    6.6818    1.8501   -1.0634 O   0  0  0  0  0  0  0  0  0  0  0  0
    2.5047   -0.7521   -0.3409 C   0  0  0  0  0  0  0  0  0  0  0  0
    3.5854   -1.0579   -1.0944 C   0  0  0  0  0  0  0  0  0  0  0  0
    4.0489   -2.3683   -1.1987 C   0  0  0  0  0  0  0  0  0  0  0  0
    5.6107   -2.7655   -2.2554 Br  0  0  0  0  0  0  0  0  0  0  0  0
    3.3998   -3.3758   -0.5388 C   0  0  0  0  0  0  0  0  0  0  0  0
    2.2611   -3.0783    0.2419 C   0  0  0  0  0  0  0  0  0  0  0  0
    1.3553   -4.4283    1.1796 Br  0  0  0  0  0  0  0  0  0  0  0  0
    1.8772   -1.7904    0.2967 C   0  0  0  0  0  0  0  0  0  0  0  0
    0.6880   -1.4500    1.0558 O   0  0  0  0  0  0  0  0  0  0  0  0
   -0.4106   -1.6351    0.1334 C   0  0  0  0  0  0  0  0  0  0  0  0
   -1.7920   -1.3550    0.4653 C   0  0  0  0  0  0  0  0  0  0  0  0
   -2.2369    0.0397    0.8583 C   0  0  0  0  0  0  0  0  0  0  0  0
   -1.4928    0.6508    1.6489 O   0  0  0  0  0  0  0  0  0  0  0  0
   -3.4287    0.5577    0.3271 N   0  0  0  0  0  0  0  0  0  0  0  0
   -4.0793    1.7741    0.5009 C   0  0  0  0  0  0  0  0  0  0  0  0
   -5.3767    1.8632    0.0537 C   0  0  0  0  0  0  0  0  0  0  0  0
   -6.0986    3.0324    0.1667 C   0  0  0  0  0  0  0  0  0  0  0  0
   -5.5556    4.1690    0.7391 C   0  0  0  0  0  0  0  0  0  0  0  0
   -4.2525    4.0865    1.1855 C   0  0  0  0  0  0  0  0  0  0  0  0
   -3.5238    2.9218    1.0708 C   0  0  0  0  0  0  0  0  0  0  0  0
   -2.8184   -2.3432    0.8962 C   0  0  0  0  0  0  0  0  0  0  0  0
   -3.7249   -3.2375    1.3615 C   0  0  0  0  0  0  0  0  0  0  0  0
   -4.6613   -3.8192    0.5008 C   0  0  0  0  0  0  0  0  0  0  0  0
   -5.8662   -4.9708    1.0824 Cl  0  0  0  0  0  0  0  0  0  0  0  0
   -4.6351   -3.4656   -0.8445 C   0  0  0  0  0  0  0  0  0  0  0  0
   -3.7154   -2.5538   -1.3210 C   0  0  0  0  0  0  0  0  0  0  0  0
   -2.8337   -2.0249   -0.4083 C   0  0  0  0  0  0  0  0  0  0  0  0
    1.3056    2.0954   -1.2782 H   0  0  0  0  0  0  0  0  0  0  0  0
    2.8867    1.3204   -1.8665 H   0  0  0  0  0  0  0  0  0  0  0  0
    2.9056    2.5627   -0.6172 H   0  0  0  0  0  0  0  0  0  0  0  0
    1.3139    0.8263    0.7005 H   0  0  0  0  0  0  0  0  0  0  0  0
    4.6605    1.5394   -0.6660 H   0  0  0  0  0  0  0  0  0  0  0  0
    6.2294    0.6517    1.5184 H   0  0  0  0  0  0  0  0  0  0  0  0
    5.5982    2.3109    1.9493 H   0  0  0  0  0  0  0  0  0  0  0  0
    8.1129    3.6963    0.3198 H   0  0  0  0  0  0  0  0  0  0  0  0
    4.0848   -0.2834   -1.6575 H   0  0  0  0  0  0  0  0  0  0  0  0
    3.7289   -4.3958   -0.5783 H   0  0  0  0  0  0  0  0  0  0  0  0
   -0.1543   -0.9717   -0.7867 H   0  0  0  0  0  0  0  0  0  0  0  0
   -0.3395   -2.6827   -0.2979 H   0  0  0  0  0  0  0  0  0  0  0  0
   -3.9275   -0.1205   -0.3681 H   0  0  0  0  0  0  0  0  0  0  0  0
   -5.8603    1.0009   -0.4124 H   0  0  0  0  0  0  0  0  0  0  0  0
   -7.1334    3.0527   -0.2044 H   0  0  0  0  0  0  0  0  0  0  0  0
   -6.1539    5.0525    0.8069 H   0  0  0  0  0  0  0  0  0  0  0  0
   -3.8448    4.9874    1.6242 H   0  0  0  0  0  0  0  0  0  0  0  0
   -2.5181    2.8733    1.4248 H   0  0  0  0  0  0  0  0  0  0  0  0
   -3.8037   -3.5372    2.4326 H   0  0  0  0  0  0  0  0  0  0  0  0
   -5.3588   -3.9102   -1.5659 H   0  0  0  0  0  0  0  0  0  0  0  0
   -3.7063   -2.2991   -2.3407 H   0  0  0  0  0  0  0  0  0  0  0  0
  1  2  1  0
  2  3  1  0
  3  4  2  0
  3  5  1  0
  5  6  1  0
  6  7  1  0
  7  8  1  0
  7  9  2  0
  2 10  1  0
 10 11  2  0
 11 12  1  0
 12 13  1  0
 12 14  2  0
 14 15  1  0
 15 16  1  0
 15 17  2  0
 17 18  1  0
 18 19  1  0
 19 20  1  0
 20 21  1  0
 21 22  2  0
 21 23  1  0
 23 24  1  0
 24 25  2  0
 25 26  1  0
 26 27  2  0
 27 28  1  0
 28 29  2  0
 20 30  1  0
 30 31  2  0
 31 32  1  0
 32 33  1  0
 32 34  2  0
 34 35  1  0
 35 36  2  0
 17 10  1  0
 36 20  1  0
 29 24  1  0
 36 30  1  0
  1 37  1  0
  1 38  1  0
  1 39  1  0
  2 40  1  1
  5 41  1  0
  6 42  1  0
  6 43  1  0
  8 44  1  0
 11 45  1  0
 14 46  1  0
 19 47  1  0
 19 48  1  0
 23 49  1  0
 25 50  1  0
 26 51  1  0
 27 52  1  0
 28 53  1  0
 29 54  1  0
 31 55  1  0
 34 56  1  0
 35 57  1  0
M  END
$$$$
[H]c1c([H])c(C(=O)C([H])([H])[H])c([H])c(C2=C(c3c([H])c([H])c(F)c([H])c3F)Oc3c([H])c([H])c(C(F)(F)F)c([H])c3N([H])C2=O)c1[H]
     RDKit          3D

 47 50  0  0  0  0  0  0  0  0999 V2000
   -6.2454   -0.3949    0.2178 C   0  0  0  0  0  0  0  0  0  0  0  0
   -4.9433    0.2274    0.5721 C   0  0  0  0  0  0  0  0  0  0  0  0
   -4.9180    1.4351    0.8710 O   0  0  0  0  0  0  0  0  0  0  0  0
   -3.7564   -0.5989    0.5505 C   0  0  0  0  0  0  0  0  0  0  0  0
   -3.8549   -1.9582    0.2771 C   0  0  0  0  0  0  0  0  0  0  0  0
   -2.6907   -2.6857    0.2374 C   0  0  0  0  0  0  0  0  0  0  0  0
   -1.5020   -2.0791    0.4569 C   0  0  0  0  0  0  0  0  0  0  0  0
   -1.3832   -0.6855    0.7370 C   0  0  0  0  0  0  0  0  0  0  0  0
   -2.5339    0.0191    0.7783 C   0  0  0  0  0  0  0  0  0  0  0  0
   -0.0225   -0.2625    0.9382 C   0  0  0  0  0  0  0  0  0  0  0  0
    0.4545    0.7931    0.4020 C   0  0  0  0  0  0  0  0  0  0  0  0
    1.8259    1.3128    0.5479 O   0  0  0  0  0  0  0  0  0  0  0  0
    2.9581    0.4852    0.4166 C   0  0  0  0  0  0  0  0  0  0  0  0
    3.9713    0.9978   -0.3624 C   0  0  0  0  0  0  0  0  0  0  0  0
    5.1459    0.2939   -0.5916 C   0  0  0  0  0  0  0  0  0  0  0  0
    5.3201   -0.9582   -0.0291 C   0  0  0  0  0  0  0  0  0  0  0  0
    4.2888   -1.4615    0.7593 C   0  0  0  0  0  0  0  0  0  0  0  0
    3.1472   -0.7672    0.9758 C   0  0  0  0  0  0  0  0  0  0  0  0
    2.1775   -1.4199    1.7944 N   0  0  0  0  0  0  0  0  0  0  0  0
    0.7615   -1.1926    1.8415 C   0  0  0  0  0  0  0  0  0  0  0  0
    0.0532   -1.7782    2.6707 O   0  0  0  0  0  0  0  0  0  0  0  0
    6.5460   -1.6929   -0.3174 C   0  0  0  0  0  0  0  0  0  0  0  0
    7.7101   -1.1244    0.1786 F   0  0  0  0  0  0  0  0  0  0  0  0
    6.7670   -1.8418   -1.7013 F   0  0  0  0  0  0  0  0  0  0  0  0
    6.4468   -2.9896    0.1861 F   0  0  0  0  0  0  0  0  0  0  0  0
   -0.3206    1.6334   -0.4545 C   0  0  0  0  0  0  0  0  0  0  0  0
   -0.5171    2.9647   -0.0799 C   0  0  0  0  0  0  0  0  0  0  0  0
   -1.1685    3.8666   -0.8883 C   0  0  0  0  0  0  0  0  0  0  0  0
   -1.6439    3.4644   -2.1083 C   0  0  0  0  0  0  0  0  0  0  0  0
   -2.3091    4.3514   -2.9375 F   0  0  0  0  0  0  0  0  0  0  0  0
   -1.4553    2.1491   -2.4954 C   0  0  0  0  0  0  0  0  0  0  0  0
   -0.7893    1.2328   -1.6628 C   0  0  0  0  0  0  0  0  0  0  0  0
   -0.6286    0.0021   -2.2252 F   0  0  0  0  0  0  0  0  0  0  0  0
   -7.0422    0.3566    0.0462 H   0  0  0  0  0  0  0  0  0  0  0  0
   -6.5717   -1.1029    1.0221 H   0  0  0  0  0  0  0  0  0  0  0  0
   -6.0446   -0.9520   -0.7504 H   0  0  0  0  0  0  0  0  0  0  0  0
   -4.8407   -2.3671    0.1144 H   0  0  0  0  0  0  0  0  0  0  0  0
   -2.7724   -3.7672    0.0195 H   0  0  0  0  0  0  0  0  0  0  0  0
   -0.5952   -2.6773    0.4379 H   0  0  0  0  0  0  0  0  0  0  0  0
   -2.4887    1.0713    1.0219 H   0  0  0  0  0  0  0  0  0  0  0  0
    3.8551    1.9725   -0.8297 H   0  0  0  0  0  0  0  0  0  0  0  0
    5.9299    0.7353   -1.2032 H   0  0  0  0  0  0  0  0  0  0  0  0
    4.3877   -2.4420    1.2310 H   0  0  0  0  0  0  0  0  0  0  0  0
    2.5446   -2.1539    2.4373 H   0  0  0  0  0  0  0  0  0  0  0  0
   -0.1458    3.2704    0.8915 H   0  0  0  0  0  0  0  0  0  0  0  0
   -1.2757    4.8677   -0.5423 H   0  0  0  0  0  0  0  0  0  0  0  0
   -1.8314    1.8506   -3.4519 H   0  0  0  0  0  0  0  0  0  0  0  0
  1  2  1  0
  2  3  2  0
  2  4  1  0
  4  5  2  0
  5  6  1  0
  6  7  2  0
  7  8  1  0
  8  9  2  0
  8 10  1  0
 10 11  2  0
 11 12  1  0
 12 13  1  0
 13 14  2  0
 14 15  1  0
 15 16  2  0
 16 17  1  0
 17 18  2  0
 18 19  1  0
 19 20  1  0
 20 21  2  0
 16 22  1  0
 22 23  1  0
 22 24  1  0
 22 25  1  0
 11 26  1  0
 26 27  2  0
 27 28  1  0
 28 29  2  0
 29 30  1  0
 29 31  1  0
 31 32  2  0
 32 33  1  0
  9  4  1  0
 20 10  1  0
 32 26  1  0
 18 13  1  0
  1 34  1  0
  1 35  1  0
  1 36  1  0
  5 37  1  0
  6 38  1  0
  7 39  1  0
  9 40  1  0
 14 41  1  0
 15 42  1  0
 17 43  1  0
 19 44  1  0
 27 45  1  0
 28 46  1  0
 31 47  1  0
M  END
$$$$
[H]/C(=C1\C(=O)N2[C@@]1([H])C([H])([H])[C@@]2([H])OC([H])([H])[H])c1sc2c(c1[H])C([H])([H])C([H])([H])C([H])([H])C2([H])[H]
     RDKit          3D

 36 39  0  0  0  0  0  0  0  0999 V2000
    5.1469    1.1242    1.7724 C   0  0  0  0  0  0  0  0  0  0  0  0
    4.0583    0.4463    1.2222 O   0  0  0  0  0  0  0  0  0  0  0  0
    3.8154    0.8322   -0.0879 C   0  0  2  0  0  0  0  0  0  0  0  0
    2.3314    1.0653   -0.3994 C   0  0  0  0  0  0  0  0  0  0  0  0
    2.3104   -0.4312   -0.2604 C   0  0  2  0  0  0  0  0  0  0  0  0
    3.6826   -0.3503   -0.9242 N   0  0  0  0  0  0  0  0  0  0  0  0
    3.2490   -1.5141   -1.6153 C   0  0  0  0  0  0  0  0  0  0  0  0
    3.9572   -2.4020   -2.2016 O   0  0  0  0  0  0  0  0  0  0  0  0
    1.8417   -1.2382   -1.3689 C   0  0  0  0  0  0  0  0  0  0  0  0
    0.7213   -1.5973   -1.9220 C   0  0  0  0  0  0  0  0  0  0  0  0
   -0.5946   -1.1690   -1.4294 C   0  0  0  0  0  0  0  0  0  0  0  0
   -1.0730   -1.1987   -0.1467 C   0  0  0  0  0  0  0  0  0  0  0  0
   -2.3156   -0.7359    0.0623 C   0  0  0  0  0  0  0  0  0  0  0  0
   -3.0806   -0.6815    1.3741 C   0  0  0  0  0  0  0  0  0  0  0  0
   -3.7662    0.6312    1.4836 C   0  0  0  0  0  0  0  0  0  0  0  0
   -4.7185    0.9236    0.3739 C   0  0  0  0  0  0  0  0  0  0  0  0
   -4.4112    0.2900   -0.9374 C   0  0  0  0  0  0  0  0  0  0  0  0
   -3.0084   -0.2696   -1.0169 C   0  0  0  0  0  0  0  0  0  0  0  0
   -1.8842   -0.4999   -2.3035 S   0  0  0  0  0  0  0  0  0  0  0  0
    5.0024    2.2103    1.7867 H   0  0  0  0  0  0  0  0  0  0  0  0
    5.2756    0.6979    2.7953 H   0  0  0  0  0  0  0  0  0  0  0  0
    6.0364    0.8429    1.1799 H   0  0  0  0  0  0  0  0  0  0  0  0
    4.4924    1.6046   -0.5062 H   0  0  0  0  0  0  0  0  0  0  0  0
    1.8674    1.6711    0.3711 H   0  0  0  0  0  0  0  0  0  0  0  0
    2.2396    1.3821   -1.4573 H   0  0  0  0  0  0  0  0  0  0  0  0
    2.3598   -0.8336    0.7455 H   0  0  0  0  0  0  0  0  0  0  0  0
    0.7124   -2.2539   -2.8072 H   0  0  0  0  0  0  0  0  0  0  0  0
   -0.4138   -1.6033    0.6601 H   0  0  0  0  0  0  0  0  0  0  0  0
   -2.4114   -0.8132    2.2422 H   0  0  0  0  0  0  0  0  0  0  0  0
   -3.8563   -1.4777    1.2829 H   0  0  0  0  0  0  0  0  0  0  0  0
   -4.3871    0.6051    2.4246 H   0  0  0  0  0  0  0  0  0  0  0  0
   -3.0511    1.4771    1.6557 H   0  0  0  0  0  0  0  0  0  0  0  0
   -4.7402    2.0483    0.2703 H   0  0  0  0  0  0  0  0  0  0  0  0
   -5.7780    0.6692    0.6552 H   0  0  0  0  0  0  0  0  0  0  0  0
   -4.4791    1.0552   -1.7488 H   0  0  0  0  0  0  0  0  0  0  0  0
   -5.1309   -0.5074   -1.2249 H   0  0  0  0  0  0  0  0  0  0  0  0
  1  2  1  0
  2  3  1  0
  3  4  1  0
  4  5  1  0
  5  6  1  0
  6  7  1  0
  7  8  2  0
  7  9  1  0
  9 10  2  0
 10 11  1  0
 11 12  2  0
 12 13  1  0
 13 14  1  0
 14 15  1  0
 15 16  1  0
 16 17  1  0
 17 18  1  0
 18 19  1  0
  6  3  1  0
 19 11  1  0
  9  5  1  0
 18 13  2  0
  1 20  1  0
  1 21  1  0
  1 22  1  0
  3 23  1  6
  4 24  1  0
  4 25  1  0
  5 26  1  1
 10 27  1  0
 12 28  1  0
 14 29  1  0
 14 30  1  0
 15 31  1  0
 15 32  1  0
 16 33  1  0
 16 34  1  0
 17 35  1  0
 17 36  1  0
M  END
$$$$
[H]Oc1c(Br)c([H])c(Br)c([H])c1[C@@]1([H])OC([H])([H])[C@]([H])(C([H])([H])OS(=O)(=O)N([H])[H])O1
     RDKit          3D

 31 32  0  0  0  0  0  0  0  0999 V2000
    5.2454    1.8352    0.9002 N   0  0  0  0  0  0  0  0  0  0  0  0
    4.4712    0.3266    0.4805 S   0  0  0  0  0  0  0  0  0  0  0  0
    5.1263   -0.2679   -0.7303 O   0  0  0  0  0  0  0  0  0  0  0  0
    4.7304   -0.6068    1.6367 O   0  0  0  0  0  0  0  0  0  0  0  0
    2.8336    0.5069    0.3073 O   0  0  0  0  0  0  0  0  0  0  0  0
    2.3119   -0.2519   -0.7383 C   0  0  0  0  0  0  0  0  0  0  0  0
    0.8166   -0.0660   -0.8708 C   0  0  1  0  0  0  0  0  0  0  0  0
    0.2982   -1.0248   -1.8913 C   0  0  0  0  0  0  0  0  0  0  0  0
   -0.8322   -1.5466   -1.3292 O   0  0  0  0  0  0  0  0  0  0  0  0
   -0.8785   -1.2011    0.0231 C   0  0  1  0  0  0  0  0  0  0  0  0
    0.2463   -0.4729    0.3328 O   0  0  0  0  0  0  0  0  0  0  0  0
   -2.1006   -0.4313    0.2586 C   0  0  0  0  0  0  0  0  0  0  0  0
   -2.4549    0.5604   -0.6572 C   0  0  0  0  0  0  0  0  0  0  0  0
   -3.5836    1.3050   -0.5016 C   0  0  0  0  0  0  0  0  0  0  0  0
   -3.9821    2.6481   -1.8214 Br  0  0  0  0  0  0  0  0  0  0  0  0
   -4.4141    1.0945    0.5781 C   0  0  0  0  0  0  0  0  0  0  0  0
   -4.0803    0.1312    1.4783 C   0  0  0  0  0  0  0  0  0  0  0  0
   -5.2001   -0.1998    2.9943 Br  0  0  0  0  0  0  0  0  0  0  0  0
   -2.9151   -0.6482    1.3316 C   0  0  0  0  0  0  0  0  0  0  0  0
   -2.6389   -1.6042    2.2816 O   0  0  0  0  0  0  0  0  0  0  0  0
    5.0092    2.0146    1.9004 H   0  0  0  0  0  0  0  0  0  0  0  0
    4.7868    2.5631    0.3005 H   0  0  0  0  0  0  0  0  0  0  0  0
    2.8051   -0.0101   -1.6964 H   0  0  0  0  0  0  0  0  0  0  0  0
    2.4831   -1.3216   -0.4901 H   0  0  0  0  0  0  0  0  0  0  0  0
    0.5660    0.9764   -1.1319 H   0  0  0  0  0  0  0  0  0  0  0  0
    1.0196   -1.8600   -2.0596 H   0  0  0  0  0  0  0  0  0  0  0  0
    0.1130   -0.5352   -2.8766 H   0  0  0  0  0  0  0  0  0  0  0  0
   -0.8585   -2.1480    0.5784 H   0  0  0  0  0  0  0  0  0  0  0  0
   -1.7905    0.7114   -1.4990 H   0  0  0  0  0  0  0  0  0  0  0  0
   -5.2979    1.7077    0.6614 H   0  0  0  0  0  0  0  0  0  0  0  0
   -1.8353   -2.1848    2.2500 H   0  0  0  0  0  0  0  0  0  0  0  0
  1  2  1  0
  2  3  2  0
  2  4  2  0
  2  5  1  0
  5  6  1  0
  6  7  1  0
  7  8  1  0
  8  9  1  0
  9 10  1  0
 10 11  1  0
 10 12  1  0
 12 13  2  0
 13 14  1  0
 14 15  1  0
 14 16  2  0
 16 17  1  0
 17 18  1  0
 17 19  2  0
 19 20  1  0
 11  7  1  0
 19 12  1  0
  1 21  1  0
  1 22  1  0
  6 23  1  0
  6 24  1  0
  7 25  1  6
  8 26  1  0
  8 27  1  0
 10 28  1  1
 13 29  1  0
 16 30  1  0
 20 31  1  0
M  END
$$$$
[H]OB(O[H])[C@]1([H])n2c([H])nc([H])c2-c2c([H])c(Br)c(Br)c([H])c2C1([H])[H]
     RDKit          3D

 27 29  0  0  0  0  0  0  0  0999 V2000
   -4.0160    0.2774    0.5517 O   0  0  0  0  0  0  0  0  0  0  0  0
   -2.8049   -0.4046    0.1029 B   0  0  0  0  0  0  0  0  0  0  0  0
   -2.6851   -0.6261   -1.3552 O   0  0  0  0  0  0  0  0  0  0  0  0
   -1.4214   -0.1054    0.8856 C   0  0  1  0  0  0  0  0  0  0  0  0
   -0.5066   -1.2323    0.7337 C   0  0  0  0  0  0  0  0  0  0  0  0
    0.8472   -0.9741    0.2103 C   0  0  0  0  0  0  0  0  0  0  0  0
    1.7720   -2.0386    0.1407 C   0  0  0  0  0  0  0  0  0  0  0  0
    3.0321   -1.8370   -0.3573 C   0  0  0  0  0  0  0  0  0  0  0  0
    4.2895   -3.2933   -0.4495 Br  0  0  0  0  0  0  0  0  0  0  0  0
    3.3747   -0.5729   -0.7879 C   0  0  0  0  0  0  0  0  0  0  0  0
    5.1080   -0.2656   -1.4807 Br  0  0  0  0  0  0  0  0  0  0  0  0
    2.4697    0.4657   -0.7187 C   0  0  0  0  0  0  0  0  0  0  0  0
    1.1785    0.2785   -0.2127 C   0  0  0  0  0  0  0  0  0  0  0  0
    0.2343    1.3838   -0.1239 C   0  0  0  0  0  0  0  0  0  0  0  0
    0.2928    2.7142   -0.4796 C   0  0  0  0  0  0  0  0  0  0  0  0
   -0.9114    3.2730   -0.1700 N   0  0  0  0  0  0  0  0  0  0  0  0
   -1.7003    2.3213    0.3636 C   0  0  0  0  0  0  0  0  0  0  0  0
   -0.9939    1.1822    0.3860 N   0  0  0  0  0  0  0  0  0  0  0  0
   -3.8849    0.5615    1.4810 H   0  0  0  0  0  0  0  0  0  0  0  0
   -3.0888   -1.5203   -1.5627 H   0  0  0  0  0  0  0  0  0  0  0  0
   -1.7263   -0.0235    1.9663 H   0  0  0  0  0  0  0  0  0  0  0  0
   -0.4652   -1.8102    1.6969 H   0  0  0  0  0  0  0  0  0  0  0  0
   -0.9601   -1.9425   -0.0427 H   0  0  0  0  0  0  0  0  0  0  0  0
    1.4517   -3.0256    0.4957 H   0  0  0  0  0  0  0  0  0  0  0  0
    2.6937    1.4777   -1.0455 H   0  0  0  0  0  0  0  0  0  0  0  0
    1.1364    3.2188   -0.9212 H   0  0  0  0  0  0  0  0  0  0  0  0
   -2.7156    2.5182    0.6933 H   0  0  0  0  0  0  0  0  0  0  0  0
  1  2  1  0
  2  3  1  0
  2  4  1  0
  4  5  1  0
  5  6  1  0
  6  7  2  0
  7  8  1  0
  8  9  1  0
  8 10  2  0
 10 11  1  0
 10 12  1  0
 12 13  2  0
 13 14  1  0
 14 15  2  0
 15 16  1  0
 16 17  2  0
 17 18  1  0
 18  4  1  0
 13  6  1  0
 18 14  1  0
  1 19  1  0
  3 20  1  0
  4 21  1  1
  5 22  1  0
  5 23  1  0
  7 24  1  0
 12 25  1  0
 15 26  1  0
 17 27  1  0
M  END
$$$$
[H]OC(=O)C(F)(F)F.[H]OC(=O)c1c([H])nc([H])c([H])c1S(=O)(=O)N1C([H])([H])C([H])([H])C([H])([H])C([H])([H])C1([H])[H]
     RDKit          3D

 40 40  0  0  0  0  0  0  0  0999 V2000
   -1.4839   -0.4635    0.3845 O   0  0  0  0  0  0  0  0  0  0  0  0
   -0.4239   -0.3865   -0.5079 C   0  0  0  0  0  0  0  0  0  0  0  0
   -0.6220   -0.8081   -1.6672 O   0  0  0  0  0  0  0  0  0  0  0  0
    0.8663    0.1848   -0.0385 C   0  0  0  0  0  0  0  0  0  0  0  0
    0.6683    1.4762    0.3786 F   0  0  0  0  0  0  0  0  0  0  0  0
    1.7941    0.1720   -1.0648 F   0  0  0  0  0  0  0  0  0  0  0  0
    1.2846   -0.5451    1.0514 F   0  0  0  0  0  0  0  0  0  0  0  0
    4.5540    1.2347    1.8673 O   0  0  0  0  0  0  0  0  0  0  0  0
    3.2724    0.6986    1.5810 C   0  0  0  0  0  0  0  0  0  0  0  0
    2.5300    0.6058    2.5628 O   0  0  0  0  0  0  0  0  0  0  0  0
    2.9972    0.3362    0.2141 C   0  0  0  0  0  0  0  0  0  0  0  0
    4.0255    0.4318   -0.7519 C   0  0  0  0  0  0  0  0  0  0  0  0
    3.8563    0.1036   -2.0243 N   0  0  0  0  0  0  0  0  0  0  0  0
    2.6636   -0.3422   -2.4353 C   0  0  0  0  0  0  0  0  0  0  0  0
    1.6453   -0.4483   -1.5299 C   0  0  0  0  0  0  0  0  0  0  0  0
    1.7694   -0.1183   -0.1943 C   0  0  0  0  0  0  0  0  0  0  0  0
    0.4284   -0.3036    0.8945 S   0  0  0  0  0  0  0  0  0  0  0  0
    0.0465    1.0035    1.5784 O   0  0  0  0  0  0  0  0  0  0  0  0
    0.7422   -1.3641    1.8980 O   0  0  0  0  0  0  0  0  0  0  0  0
   -0.9885   -0.7355   -0.0090 N   0  0  0  0  0  0  0  0  0  0  0  0
   -1.4200    0.2292   -0.9456 C   0  0  0  0  0  0  0  0  0  0  0  0
   -2.6121    1.0443   -0.4996 C   0  0  0  0  0  0  0  0  0  0  0  0
   -3.7166    0.2328    0.0812 C   0  0  0  0  0  0  0  0  0  0  0  0
   -3.3615   -1.2046    0.2865 C   0  0  0  0  0  0  0  0  0  0  0  0
   -1.9803   -1.3257    0.8205 C   0  0  0  0  0  0  0  0  0  0  0  0
   -2.0834    0.3704    0.4279 H   0  0  0  0  0  0  0  0  0  0  0  0
    4.7318    2.2250    1.6696 H   0  0  0  0  0  0  0  0  0  0  0  0
    4.9930    0.7995   -0.3864 H   0  0  0  0  0  0  0  0  0  0  0  0
    2.5331   -0.6132   -3.4970 H   0  0  0  0  0  0  0  0  0  0  0  0
    0.7022   -0.8316   -1.8831 H   0  0  0  0  0  0  0  0  0  0  0  0
   -1.5934   -0.2255   -1.9260 H   0  0  0  0  0  0  0  0  0  0  0  0
   -0.5940    0.9835   -1.0787 H   0  0  0  0  0  0  0  0  0  0  0  0
   -3.0158    1.5268   -1.4381 H   0  0  0  0  0  0  0  0  0  0  0  0
   -2.2998    1.8903    0.1416 H   0  0  0  0  0  0  0  0  0  0  0  0
   -4.6535    0.2764   -0.5232 H   0  0  0  0  0  0  0  0  0  0  0  0
   -3.9827    0.6931    1.0784 H   0  0  0  0  0  0  0  0  0  0  0  0
   -3.5065   -1.7859   -0.6440 H   0  0  0  0  0  0  0  0  0  0  0  0
   -4.0640   -1.6124    1.0663 H   0  0  0  0  0  0  0  0  0  0  0  0
   -1.7444   -2.4288    0.8881 H   0  0  0  0  0  0  0  0  0  0  0  0
   -1.9578   -0.9754    1.8818 H   0  0  0  0  0  0  0  0  0  0  0  0
  1  2  1  0
  2  3  2  0
  2  4  1  0
  4  5  1  0
  4  6  1  0
  4  7  1  0
  8  9  1  0
  9 10  2  0
  9 11  1  0
 11 12  2  0
 12 13  1  0
 13 14  2  0
 14 15  1  0
 15 16  2  0
 16 17  1  0
 17 18  2  0
 17 19  2  0
 17 20  1  0
 20 21  1  0
 21 22  1  0
 22 23  1  0
 23 24  1  0
 24 25  1  0
 16 11  1  0
 25 20  1  0
  1 26  1  0
  8 27  1  0
 12 28  1  0
 14 29  1  0
 15 30  1  0
 21 31  1  0
 21 32  1  0
 22 33  1  0
 22 34  1  0
 23 35  1  0
 23 36  1  0
 24 37  1  0
 24 38  1  0
 25 39  1  0
 25 40  1  0
M  END
$$$$
[H]OC(=O)[C@]1([H])C([H])([H])N([H])C([H])([H])C([H])([H])C([H])([H])[C@@]1([H])N([H])C(=O)c1c([H])c([H])c(-c2c([H])c([H])c(O[H])c([H])c2[H])c(N([H])[H])c1[H]
     RDKit          3D

 50 52  0  0  0  0  0  0  0  0999 V2000
    3.3767    1.4493    0.8376 N   0  0  0  0  0  0  0  0  0  0  0  0
    2.6460    0.3933    0.2115 C   0  0  0  0  0  0  0  0  0  0  0  0
    1.2498    0.4084    0.1897 C   0  0  0  0  0  0  0  0  0  0  0  0
    0.5261   -0.5992   -0.4006 C   0  0  0  0  0  0  0  0  0  0  0  0
    1.2809   -1.6318   -0.9731 C   0  0  0  0  0  0  0  0  0  0  0  0
    2.6542   -1.6503   -0.9540 C   0  0  0  0  0  0  0  0  0  0  0  0
    3.3754   -0.6257   -0.3541 C   0  0  0  0  0  0  0  0  0  0  0  0
    4.8311   -0.6234   -0.3285 C   0  0  0  0  0  0  0  0  0  0  0  0
    5.6177    0.4540   -0.6683 C   0  0  0  0  0  0  0  0  0  0  0  0
    6.9941    0.3941   -0.6175 C   0  0  0  0  0  0  0  0  0  0  0  0
    7.6446   -0.7539   -0.2222 C   0  0  0  0  0  0  0  0  0  0  0  0
    9.0473   -0.8186   -0.1692 O   0  0  0  0  0  0  0  0  0  0  0  0
    6.8739   -1.8434    0.1217 C   0  0  0  0  0  0  0  0  0  0  0  0
    5.4919   -1.7725    0.0672 C   0  0  0  0  0  0  0  0  0  0  0  0
   -0.9245   -0.6375   -0.4538 C   0  0  0  0  0  0  0  0  0  0  0  0
   -1.5096   -1.5966   -1.0130 O   0  0  0  0  0  0  0  0  0  0  0  0
   -1.6957    0.3880    0.1139 N   0  0  0  0  0  0  0  0  0  0  0  0
   -3.1645    0.3721    0.0730 C   0  0  2  0  0  0  0  0  0  0  0  0
   -3.6409    1.5782   -0.6651 C   0  0  0  0  0  0  0  0  0  0  0  0
   -4.8800    1.3135   -1.4902 C   0  0  0  0  0  0  0  0  0  0  0  0
   -6.1033    1.0765   -0.6702 C   0  0  0  0  0  0  0  0  0  0  0  0
   -5.8776    0.2412    0.4777 N   0  0  0  0  0  0  0  0  0  0  0  0
   -5.1225    0.9167    1.4982 C   0  0  0  0  0  0  0  0  0  0  0  0
   -3.7211    0.2982    1.4975 C   0  0  1  0  0  0  0  0  0  0  0  0
   -3.8944   -1.1118    1.9222 C   0  0  0  0  0  0  0  0  0  0  0  0
   -4.7249   -1.9972    1.2516 O   0  0  0  0  0  0  0  0  0  0  0  0
   -3.2595   -1.5118    2.9313 O   0  0  0  0  0  0  0  0  0  0  0  0
    3.8940    1.2613    1.7220 H   0  0  0  0  0  0  0  0  0  0  0  0
    3.4098    2.4041    0.4383 H   0  0  0  0  0  0  0  0  0  0  0  0
    0.7533    1.2409    0.6538 H   0  0  0  0  0  0  0  0  0  0  0  0
    0.7066   -2.4388   -1.4457 H   0  0  0  0  0  0  0  0  0  0  0  0
    3.1975   -2.4752   -1.4127 H   0  0  0  0  0  0  0  0  0  0  0  0
    5.1707    1.3818   -0.9906 H   0  0  0  0  0  0  0  0  0  0  0  0
    7.5879    1.2781   -0.8973 H   0  0  0  0  0  0  0  0  0  0  0  0
    9.5796   -1.1178   -0.9809 H   0  0  0  0  0  0  0  0  0  0  0  0
    7.4013   -2.7359    0.4294 H   0  0  0  0  0  0  0  0  0  0  0  0
    4.9418   -2.6493    0.3456 H   0  0  0  0  0  0  0  0  0  0  0  0
   -1.2394    1.1868    0.5789 H   0  0  0  0  0  0  0  0  0  0  0  0
   -3.4914   -0.5459   -0.4574 H   0  0  0  0  0  0  0  0  0  0  0  0
   -2.8343    1.8417   -1.4108 H   0  0  0  0  0  0  0  0  0  0  0  0
   -3.7376    2.4887   -0.0316 H   0  0  0  0  0  0  0  0  0  0  0  0
   -5.0575    2.2480   -2.0872 H   0  0  0  0  0  0  0  0  0  0  0  0
   -4.6539    0.5238   -2.2106 H   0  0  0  0  0  0  0  0  0  0  0  0
   -6.6196    2.0158   -0.3771 H   0  0  0  0  0  0  0  0  0  0  0  0
   -6.8411    0.5267   -1.3211 H   0  0  0  0  0  0  0  0  0  0  0  0
   -6.8249   -0.0129    0.8612 H   0  0  0  0  0  0  0  0  0  0  0  0
   -5.5231    0.7001    2.5284 H   0  0  0  0  0  0  0  0  0  0  0  0
   -5.0991    2.0049    1.4077 H   0  0  0  0  0  0  0  0  0  0  0  0
   -3.1186    0.8561    2.2121 H   0  0  0  0  0  0  0  0  0  0  0  0
   -4.6932   -2.0928    0.2320 H   0  0  0  0  0  0  0  0  0  0  0  0
  1  2  1  0
  2  3  2  0
  3  4  1  0
  4  5  2  0
  5  6  1  0
  6  7  2  0
  7  8  1  0
  8  9  2  0
  9 10  1  0
 10 11  2  0
 11 12  1  0
 11 13  1  0
 13 14  2  0
  4 15  1  0
 15 16  2  0
 15 17  1  0
 17 18  1  0
 18 19  1  0
 19 20  1  0
 20 21  1  0
 21 22  1  0
 22 23  1  0
 23 24  1  0
 24 25  1  0
 25 26  1  0
 25 27  2  0
  7  2  1  0
 14  8  1  0
 24 18  1  0
  1 28  1  0
  1 29  1  0
  3 30  1  0
  5 31  1  0
  6 32  1  0
  9 33  1  0
 10 34  1  0
 12 35  1  0
 13 36  1  0
 14 37  1  0
 17 38  1  0
 18 39  1  6
 19 40  1  0
 19 41  1  0
 20 42  1  0
 20 43  1  0
 21 44  1  0
 21 45  1  0
 22 46  1  0
 23 47  1  0
 23 48  1  0
 24 49  1  1
 26 50  1  0
M  END
$$$$
[H]OC(=O)C([H])([H])C([H])([H])N([H])C(=O)C([H])([H])c1c([H])c([H])c([H])c([H])c1[H]
     RDKit          3D

 28 28  0  0  0  0  0  0  0  0999 V2000
    4.6973    1.8688    0.9864 O   0  0  0  0  0  0  0  0  0  0  0  0
    4.2345    0.6349    0.5587 C   0  0  0  0  0  0  0  0  0  0  0  0
    5.1159   -0.1970    0.1733 O   0  0  0  0  0  0  0  0  0  0  0  0
    2.7809    0.3062    0.5522 C   0  0  0  0  0  0  0  0  0  0  0  0
    2.6166   -1.0852    0.0310 C   0  0  0  0  0  0  0  0  0  0  0  0
    1.2694   -1.5575   -0.0423 N   0  0  0  0  0  0  0  0  0  0  0  0
    0.2737   -0.9118   -0.8255 C   0  0  0  0  0  0  0  0  0  0  0  0
    0.5631    0.1162   -1.4860 O   0  0  0  0  0  0  0  0  0  0  0  0
   -1.1201   -1.3816   -0.9189 C   0  0  0  0  0  0  0  0  0  0  0  0
   -2.1219   -0.3930   -0.4728 C   0  0  0  0  0  0  0  0  0  0  0  0
   -2.6512   -0.4381    0.8158 C   0  0  0  0  0  0  0  0  0  0  0  0
   -3.5701    0.4609    1.2766 C   0  0  0  0  0  0  0  0  0  0  0  0
   -4.0100    1.4743    0.4395 C   0  0  0  0  0  0  0  0  0  0  0  0
   -3.5009    1.5444   -0.8476 C   0  0  0  0  0  0  0  0  0  0  0  0
   -2.5732    0.6215   -1.2864 C   0  0  0  0  0  0  0  0  0  0  0  0
    5.6003    2.2420    0.7446 H   0  0  0  0  0  0  0  0  0  0  0  0
    2.4012    0.4498    1.5799 H   0  0  0  0  0  0  0  0  0  0  0  0
    2.2824    1.0903   -0.0578 H   0  0  0  0  0  0  0  0  0  0  0  0
    3.2134   -1.7459    0.6933 H   0  0  0  0  0  0  0  0  0  0  0  0
    3.1332   -1.1335   -0.9710 H   0  0  0  0  0  0  0  0  0  0  0  0
    0.9846   -2.4045    0.4929 H   0  0  0  0  0  0  0  0  0  0  0  0
   -1.3226   -1.6594   -1.9708 H   0  0  0  0  0  0  0  0  0  0  0  0
   -1.2116   -2.3483   -0.3481 H   0  0  0  0  0  0  0  0  0  0  0  0
   -2.3142   -1.2213    1.4675 H   0  0  0  0  0  0  0  0  0  0  0  0
   -3.9752    0.4039    2.2976 H   0  0  0  0  0  0  0  0  0  0  0  0
   -4.7399    2.1960    0.7937 H   0  0  0  0  0  0  0  0  0  0  0  0
   -3.8407    2.3348   -1.5042 H   0  0  0  0  0  0  0  0  0  0  0  0
   -2.2148    0.7331   -2.3008 H   0  0  0  0  0  0  0  0  0  0  0  0
  1  2  1  0
  2  3  2  0
  2  4  1  0
  4  5  1  0
  5  6  1  0
  6  7  1  0
  7  8  2  0
  7  9  1  0
  9 10  1  0
 10 11  2  0
 11 12  1  0
 12 13  2  0
 13 14  1  0
 14 15  2  0
 15 10  1  0
  1 16  1  0
  4 17  1  0
  4 18  1  0
  5 19  1  0
  5 20  1  0
  6 21  1  0
  9 22  1  0
  9 23  1  0
 11 24  1  0
 12 25  1  0
 13 26  1  0
 14 27  1  0
 15 28  1  0
M  END
$$$$
[H]c1nc([H])c2nc(-c3c([H])n([H])c4c([H])c(Cl)c([H])c([H])c34)n([H])c2c1[H]
     RDKit          3D

 28 31  0  0  0  0  0  0  0  0999 V2000
   -5.9767    0.4240    1.7710 Cl  0  0  0  0  0  0  0  0  0  0  0  0
   -4.3683    0.2215    1.0975 C   0  0  0  0  0  0  0  0  0  0  0  0
   -3.2674    0.6151    1.8214 C   0  0  0  0  0  0  0  0  0  0  0  0
   -2.0029    0.4569    1.2944 C   0  0  0  0  0  0  0  0  0  0  0  0
   -1.8402   -0.0920    0.0498 C   0  0  0  0  0  0  0  0  0  0  0  0
   -0.7083   -0.3529   -0.6876 C   0  0  0  0  0  0  0  0  0  0  0  0
   -1.1942   -0.9197   -1.8822 C   0  0  0  0  0  0  0  0  0  0  0  0
   -2.5256   -0.9886   -1.8513 N   0  0  0  0  0  0  0  0  0  0  0  0
   -2.9732   -0.4886   -0.6763 C   0  0  0  0  0  0  0  0  0  0  0  0
   -4.2418   -0.3332   -0.1549 C   0  0  0  0  0  0  0  0  0  0  0  0
    0.6941   -0.1360   -0.3989 C   0  0  0  0  0  0  0  0  0  0  0  0
    1.6800   -0.4804   -1.3019 N   0  0  0  0  0  0  0  0  0  0  0  0
    2.8946   -0.1970   -0.8391 C   0  0  0  0  0  0  0  0  0  0  0  0
    4.1670   -0.3604   -1.3791 C   0  0  0  0  0  0  0  0  0  0  0  0
    5.2095    0.0352   -0.6425 N   0  0  0  0  0  0  0  0  0  0  0  0
    5.0426    0.5772    0.5873 C   0  0  0  0  0  0  0  0  0  0  0  0
    3.7737    0.7491    1.1456 C   0  0  0  0  0  0  0  0  0  0  0  0
    2.7056    0.3500    0.4048 C   0  0  0  0  0  0  0  0  0  0  0  0
    1.3629    0.3650    0.6241 N   0  0  0  0  0  0  0  0  0  0  0  0
   -3.3609    1.0546    2.8128 H   0  0  0  0  0  0  0  0  0  0  0  0
   -1.1292    0.7578    1.8433 H   0  0  0  0  0  0  0  0  0  0  0  0
   -0.5442   -1.2455   -2.6974 H   0  0  0  0  0  0  0  0  0  0  0  0
   -3.1634   -1.3592   -2.5881 H   0  0  0  0  0  0  0  0  0  0  0  0
   -5.0774   -0.6556   -0.7570 H   0  0  0  0  0  0  0  0  0  0  0  0
    4.3337   -0.7845   -2.3463 H   0  0  0  0  0  0  0  0  0  0  0  0
    5.9069    0.8835    1.1495 H   0  0  0  0  0  0  0  0  0  0  0  0
    3.6358    1.1800    2.1239 H   0  0  0  0  0  0  0  0  0  0  0  0
    0.9672    0.7236    1.4772 H   0  0  0  0  0  0  0  0  0  0  0  0
  1  2  1  0
  2  3  2  0
  3  4  1  0
  4  5  2  0
  5  6  1  0
  6  7  2  0
  7  8  1  0
  8  9  1  0
  9 10  2  0
  6 11  1  0
 11 12  2  0
 12 13  1  0
 13 14  2  0
 14 15  1  0
 15 16  2  0
 16 17  1  0
 17 18  2  0
 18 19  1  0
 10  2  1  0
 19 11  1  0
  9  5  1  0
 18 13  1  0
  3 20  1  0
  4 21  1  0
  7 22  1  0
  8 23  1  0
 10 24  1  0
 14 25  1  0
 16 26  1  0
 17 27  1  0
 19 28  1  0
M  END
$$$$
[H]Oc1c([H])c([H])c([H])c(C([H])([H])[C@]([H])(S[H])C(=O)N([H])C([H])(c2c([H])c([H])c(OC([H])([H])[H])c(OC([H])([H])[H])c2[H])C([H])([H])C([H])([H])SC([H])([H])[C@]([H])(O[H])C([H])([H])O[H])c1O[H].[Na+]
     RDKit          3D

 65 65  0  0  0  0  0  0  0  0999 V2000
    0.0000    0.0000    0.0000 Na  0  0  0  0  0 15  0  0  0  0  0  0
   -0.6026    6.2334    3.0635 C   0  0  0  0  0  0  0  0  0  0  0  0
   -0.9969    5.8595    1.7458 O   0  0  0  0  0  0  0  0  0  0  0  0
   -0.9187    4.5052    1.3527 C   0  0  0  0  0  0  0  0  0  0  0  0
   -0.4669    3.5418    2.2227 C   0  0  0  0  0  0  0  0  0  0  0  0
   -0.4097    2.2339    1.7898 C   0  0  0  0  0  0  0  0  0  0  0  0
   -0.8045    1.9080    0.4949 C   0  0  0  0  0  0  0  0  0  0  0  0
   -1.2550    2.8761   -0.3692 C   0  0  0  0  0  0  0  0  0  0  0  0
   -1.3077    4.1764    0.0732 C   0  0  0  0  0  0  0  0  0  0  0  0
   -1.7638    5.2106   -0.7769 O   0  0  0  0  0  0  0  0  0  0  0  0
   -2.1636    4.8629   -2.0964 C   0  0  0  0  0  0  0  0  0  0  0  0
   -0.7485    0.4962    0.0099 C   0  0  0  0  0  0  0  0  0  0  0  0
   -1.8427   -0.2813    0.6848 C   0  0  0  0  0  0  0  0  0  0  0  0
   -3.2115    0.2767    0.3829 C   0  0  0  0  0  0  0  0  0  0  0  0
   -4.4933   -0.6829    1.2168 S   0  0  0  0  0  0  0  0  0  0  0  0
   -4.6289   -2.3612    0.6028 C   0  0  0  0  0  0  0  0  0  0  0  0
   -5.1177   -2.3186   -0.8358 C   0  0  2  0  0  0  0  0  0  0  0  0
   -6.3631   -1.7013   -0.9236 O   0  0  0  0  0  0  0  0  0  0  0  0
   -5.3107   -3.7690   -1.2723 C   0  0  0  0  0  0  0  0  0  0  0  0
   -5.7799   -3.7959   -2.5667 O   0  0  0  0  0  0  0  0  0  0  0  0
    0.5278   -0.0457    0.4141 N   0  0  0  0  0  0  0  0  0  0  0  0
    1.4847   -0.4998   -0.5590 C   0  0  0  0  0  0  0  0  0  0  0  0
    1.2184   -0.4291   -1.7815 O   0  0  0  0  0  0  0  0  0  0  0  0
    2.7967   -1.0581   -0.1525 C   0  0  1  0  0  0  0  0  0  0  0  0
    2.7097   -2.5297    0.8437 S   0  0  0  0  0  0  0  0  0  0  0  0
    3.6807   -1.1522   -1.3684 C   0  0  0  0  0  0  0  0  0  0  0  0
    5.0114   -1.7116   -1.1319 C   0  0  0  0  0  0  0  0  0  0  0  0
    6.0342   -0.8385   -0.7898 C   0  0  0  0  0  0  0  0  0  0  0  0
    7.2639   -1.3628   -0.4890 C   0  0  0  0  0  0  0  0  0  0  0  0
    7.4822   -2.7155   -0.5242 C   0  0  0  0  0  0  0  0  0  0  0  0
    6.4896   -3.6051   -0.8606 C   0  0  0  0  0  0  0  0  0  0  0  0
    6.7387   -4.9622   -0.8875 O   0  0  0  0  0  0  0  0  0  0  0  0
    5.2283   -3.0703   -1.1707 C   0  0  0  0  0  0  0  0  0  0  0  0
    4.2759   -4.0023   -1.5120 O   0  0  0  0  0  0  0  0  0  0  0  0
   -1.3082    5.8640    3.8161 H   0  0  0  0  0  0  0  0  0  0  0  0
    0.3993    5.7596    3.2313 H   0  0  0  0  0  0  0  0  0  0  0  0
   -0.4401    7.3167    3.0879 H   0  0  0  0  0  0  0  0  0  0  0  0
   -0.1589    3.7848    3.2278 H   0  0  0  0  0  0  0  0  0  0  0  0
   -0.0666    1.4402    2.4227 H   0  0  0  0  0  0  0  0  0  0  0  0
   -1.5522    2.5964   -1.3602 H   0  0  0  0  0  0  0  0  0  0  0  0
   -3.0958    4.2445   -2.0632 H   0  0  0  0  0  0  0  0  0  0  0  0
   -1.3758    4.2635   -2.6061 H   0  0  0  0  0  0  0  0  0  0  0  0
   -2.3887    5.8077   -2.6388 H   0  0  0  0  0  0  0  0  0  0  0  0
   -0.7906    0.4620   -1.0967 H   0  0  0  0  0  0  0  0  0  0  0  0
   -1.6466   -0.2898    1.7612 H   0  0  0  0  0  0  0  0  0  0  0  0
   -1.8343   -1.3246    0.2738 H   0  0  0  0  0  0  0  0  0  0  0  0
   -3.4112    0.2254   -0.7020 H   0  0  0  0  0  0  0  0  0  0  0  0
   -3.3260    1.3304    0.6960 H   0  0  0  0  0  0  0  0  0  0  0  0
   -3.6751   -2.9266    0.6169 H   0  0  0  0  0  0  0  0  0  0  0  0
   -5.3382   -2.9197    1.2294 H   0  0  0  0  0  0  0  0  0  0  0  0
   -4.4179   -1.7922   -1.4856 H   0  0  0  0  0  0  0  0  0  0  0  0
   -6.5861   -1.2423   -0.0773 H   0  0  0  0  0  0  0  0  0  0  0  0
   -6.0464   -4.1949   -0.5436 H   0  0  0  0  0  0  0  0  0  0  0  0
   -4.3548   -4.2974   -1.1607 H   0  0  0  0  0  0  0  0  0  0  0  0
   -5.8647   -4.7494   -2.8307 H   0  0  0  0  0  0  0  0  0  0  0  0
    0.7871   -0.1210    1.4188 H   0  0  0  0  0  0  0  0  0  0  0  0
    3.3203   -0.2704    0.5119 H   0  0  0  0  0  0  0  0  0  0  0  0
    1.8777   -3.4669    0.2115 H   0  0  0  0  0  0  0  0  0  0  0  0
    3.7390   -0.1120   -1.7979 H   0  0  0  0  0  0  0  0  0  0  0  0
    3.1178   -1.7371   -2.1266 H   0  0  0  0  0  0  0  0  0  0  0  0
    5.8249    0.2275   -0.7724 H   0  0  0  0  0  0  0  0  0  0  0  0
    8.0551   -0.6532   -0.2218 H   0  0  0  0  0  0  0  0  0  0  0  0
    8.4743   -3.0719   -0.2755 H   0  0  0  0  0  0  0  0  0  0  0  0
    5.9836   -5.5745   -1.1389 H   0  0  0  0  0  0  0  0  0  0  0  0
    3.3426   -3.8665   -1.8116 H   0  0  0  0  0  0  0  0  0  0  0  0
  2  3  1  0
  3  4  1  0
  4  5  2  0
  5  6  1  0
  6  7  2  0
  7  8  1  0
  8  9  2  0
  9 10  1  0
 10 11  1  0
  7 12  1  0
 12 13  1  0
 13 14  1  0
 14 15  1  0
 15 16  1  0
 16 17  1  0
 17 18  1  0
 17 19  1  0
 19 20  1  0
 12 21  1  0
 21 22  1  0
 22 23  2  0
 22 24  1  0
 24 25  1  0
 24 26  1  0
 26 27  1  0
 27 28  2  0
 28 29  1  0
 29 30  2  0
 30 31  1  0
 31 32  1  0
 31 33  2  0
 33 34  1  0
  9  4  1  0
 33 27  1  0
  2 35  1  0
  2 36  1  0
  2 37  1  0
  5 38  1  0
  6 39  1  0
  8 40  1  0
 11 41  1  0
 11 42  1  0
 11 43  1  0
 12 44  1  0
 13 45  1  0
 13 46  1  0
 14 47  1  0
 14 48  1  0
 16 49  1  0
 16 50  1  0
 17 51  1  6
 18 52  1  0
 19 53  1  0
 19 54  1  0
 20 55  1  0
 21 56  1  0
 24 57  1  1
 25 58  1  0
 26 59  1  0
 26 60  1  0
 28 61  1  0
 29 62  1  0
 30 63  1  0
 32 64  1  0
 34 65  1  0
M  CHG  1   1   1
M  END
$$$$
[H]c1nc([H])c(N([H])c2nc(N([H])c3c([H])c([H])c(C([H])([H])C([H])([H])N4C([H])([H])C([H])([H])OC([H])([H])C4([H])[H])c([H])c3OC([H])([H])[H])nc([H])c2Cl)nc1[H]
     RDKit          3D

 55 58  0  0  0  0  0  0  0  0999 V2000
   -0.0269    3.1717    0.7262 C   0  0  0  0  0  0  0  0  0  0  0  0
    0.6441    2.0280    0.2854 O   0  0  0  0  0  0  0  0  0  0  0  0
    0.0044    0.9892   -0.3891 C   0  0  0  0  0  0  0  0  0  0  0  0
   -1.3381    1.0876   -0.6329 C   0  0  0  0  0  0  0  0  0  0  0  0
   -2.0067    0.0883   -1.2933 C   0  0  0  0  0  0  0  0  0  0  0  0
   -3.4713    0.1866   -1.5652 C   0  0  0  0  0  0  0  0  0  0  0  0
   -4.1964   -0.4245   -0.3878 C   0  0  0  0  0  0  0  0  0  0  0  0
   -5.6354   -0.3764   -0.5566 N   0  0  0  0  0  0  0  0  0  0  0  0
   -6.1555    0.9576   -0.5070 C   0  0  0  0  0  0  0  0  0  0  0  0
   -7.2709    1.0841    0.5227 C   0  0  0  0  0  0  0  0  0  0  0  0
   -6.6711    0.9191    1.7676 O   0  0  0  0  0  0  0  0  0  0  0  0
   -6.1739   -0.3747    1.8370 C   0  0  0  0  0  0  0  0  0  0  0  0
   -6.2143   -1.1256    0.5410 C   0  0  0  0  0  0  0  0  0  0  0  0
   -1.2935   -1.0001   -1.6965 C   0  0  0  0  0  0  0  0  0  0  0  0
    0.0668   -1.1095   -1.4544 C   0  0  0  0  0  0  0  0  0  0  0  0
    0.7587   -0.1262   -0.7972 C   0  0  0  0  0  0  0  0  0  0  0  0
    2.1262   -0.1211   -0.4934 N   0  0  0  0  0  0  0  0  0  0  0  0
    3.0658   -1.1063   -0.8020 C   0  0  0  0  0  0  0  0  0  0  0  0
    2.8556   -2.2507   -1.4480 N   0  0  0  0  0  0  0  0  0  0  0  0
    3.7932   -3.1647   -1.7206 C   0  0  0  0  0  0  0  0  0  0  0  0
    5.0934   -2.9576   -1.3255 C   0  0  0  0  0  0  0  0  0  0  0  0
    6.3531   -4.1226   -1.6595 Cl  0  0  0  0  0  0  0  0  0  0  0  0
    5.3529   -1.7711   -0.6462 C   0  0  0  0  0  0  0  0  0  0  0  0
    6.6987   -1.5688   -0.2440 N   0  0  0  0  0  0  0  0  0  0  0  0
    7.0209   -0.3770    0.4533 C   0  0  0  0  0  0  0  0  0  0  0  0
    8.3342   -0.1432    0.8644 C   0  0  0  0  0  0  0  0  0  0  0  0
    8.6781    0.9719    1.5273 N   0  0  0  0  0  0  0  0  0  0  0  0
    7.7777    1.9089    1.8235 C   0  0  0  0  0  0  0  0  0  0  0  0
    6.4765    1.7063    1.4313 C   0  0  0  0  0  0  0  0  0  0  0  0
    6.1301    0.5802    0.7622 N   0  0  0  0  0  0  0  0  0  0  0  0
    4.3778   -0.9105   -0.4101 N   0  0  0  0  0  0  0  0  0  0  0  0
    0.6813    3.9334    1.1036 H   0  0  0  0  0  0  0  0  0  0  0  0
   -0.6930    3.6151   -0.0568 H   0  0  0  0  0  0  0  0  0  0  0  0
   -0.6763    2.8987    1.5874 H   0  0  0  0  0  0  0  0  0  0  0  0
   -1.8653    1.9651   -0.2972 H   0  0  0  0  0  0  0  0  0  0  0  0
   -3.7325    1.2330   -1.7486 H   0  0  0  0  0  0  0  0  0  0  0  0
   -3.7033   -0.3841   -2.4911 H   0  0  0  0  0  0  0  0  0  0  0  0
   -3.9261    0.0276    0.5648 H   0  0  0  0  0  0  0  0  0  0  0  0
   -3.9109   -1.4963   -0.3482 H   0  0  0  0  0  0  0  0  0  0  0  0
   -6.5985    1.1986   -1.4932 H   0  0  0  0  0  0  0  0  0  0  0  0
   -5.3972    1.7148   -0.2226 H   0  0  0  0  0  0  0  0  0  0  0  0
   -7.6865    2.1121    0.4382 H   0  0  0  0  0  0  0  0  0  0  0  0
   -8.0646    0.3380    0.3963 H   0  0  0  0  0  0  0  0  0  0  0  0
   -6.8031   -0.9012    2.5974 H   0  0  0  0  0  0  0  0  0  0  0  0
   -5.1379   -0.2906    2.2445 H   0  0  0  0  0  0  0  0  0  0  0  0
   -7.2260   -1.5101    0.3299 H   0  0  0  0  0  0  0  0  0  0  0  0
   -5.5242   -2.0120    0.6769 H   0  0  0  0  0  0  0  0  0  0  0  0
   -1.7593   -1.8428   -2.2323 H   0  0  0  0  0  0  0  0  0  0  0  0
    0.5945   -1.9951   -1.7932 H   0  0  0  0  0  0  0  0  0  0  0  0
    2.5081    0.7261    0.0343 H   0  0  0  0  0  0  0  0  0  0  0  0
    3.5573   -4.0739   -2.2488 H   0  0  0  0  0  0  0  0  0  0  0  0
    7.4401   -2.2557   -0.4423 H   0  0  0  0  0  0  0  0  0  0  0  0
    9.0708   -0.8857    0.6343 H   0  0  0  0  0  0  0  0  0  0  0  0
    8.0297    2.8172    2.3574 H   0  0  0  0  0  0  0  0  0  0  0  0
    5.6687    2.4188    1.6294 H   0  0  0  0  0  0  0  0  0  0  0  0
  1  2  1  0
  2  3  1  0
  3  4  2  0
  4  5  1  0
  5  6  1  0
  6  7  1  0
  7  8  1  0
  8  9  1  0
  9 10  1  0
 10 11  1  0
 11 12  1  0
 12 13  1  0
  5 14  2  0
 14 15  1  0
 15 16  2  0
 16 17  1  0
 17 18  1  0
 18 19  2  0
 19 20  1  0
 20 21  2  0
 21 22  1  0
 21 23  1  0
 23 24  1  0
 24 25  1  0
 25 26  2  0
 26 27  1  0
 27 28  2  0
 28 29  1  0
 29 30  2  0
 23 31  2  0
 16  3  1  0
 31 18  1  0
 13  8  1  0
 30 25  1  0
  1 32  1  0
  1 33  1  0
  1 34  1  0
  4 35  1  0
  6 36  1  0
  6 37  1  0
  7 38  1  0
  7 39  1  0
  9 40  1  0
  9 41  1  0
 10 42  1  0
 10 43  1  0
 12 44  1  0
 12 45  1  0
 13 46  1  0
 13 47  1  0
 14 48  1  0
 15 49  1  0
 17 50  1  0
 20 51  1  0
 24 52  1  0
 26 53  1  0
 28 54  1  0
 29 55  1  0
M  END
$$$$
[H]c1c([H])c(-c2nnn(-c3c([H])c([H])c(N([H])C(=O)c4c([H])c([H])c5c(c4[H])OC([H])([H])O5)c([H])c3[H])c2[H])c([H])c([H])c1Cl
     RDKit          3D

 45 49  0  0  0  0  0  0  0  0999 V2000
  -10.6818    2.1386    0.3300 Cl  0  0  0  0  0  0  0  0  0  0  0  0
   -9.0941    1.3904    0.3212 C   0  0  0  0  0  0  0  0  0  0  0  0
   -7.9950    2.2094    0.1601 C   0  0  0  0  0  0  0  0  0  0  0  0
   -6.7105    1.6608    0.1464 C   0  0  0  0  0  0  0  0  0  0  0  0
   -6.5107    0.3077    0.2912 C   0  0  0  0  0  0  0  0  0  0  0  0
   -7.6178   -0.4950    0.4509 C   0  0  0  0  0  0  0  0  0  0  0  0
   -8.9049    0.0452    0.4657 C   0  0  0  0  0  0  0  0  0  0  0  0
   -5.1766   -0.2767    0.2787 C   0  0  0  0  0  0  0  0  0  0  0  0
   -3.9639    0.3839    0.1291 C   0  0  0  0  0  0  0  0  0  0  0  0
   -2.9941   -0.5132    0.1748 N   0  0  0  0  0  0  0  0  0  0  0  0
   -3.5423   -1.6920    0.3444 N   0  0  0  0  0  0  0  0  0  0  0  0
   -4.8513   -1.5736    0.4095 N   0  0  0  0  0  0  0  0  0  0  0  0
   -1.5842   -0.3231    0.0679 C   0  0  0  0  0  0  0  0  0  0  0  0
   -1.0165    0.7137   -0.6401 C   0  0  0  0  0  0  0  0  0  0  0  0
    0.3483    0.8550   -0.7144 C   0  0  0  0  0  0  0  0  0  0  0  0
    1.2252   -0.0493   -0.0730 C   0  0  0  0  0  0  0  0  0  0  0  0
    2.6160    0.1544   -0.1601 N   0  0  0  0  0  0  0  0  0  0  0  0
    3.6010   -0.7974    0.0956 C   0  0  0  0  0  0  0  0  0  0  0  0
    3.3290   -1.9834    0.4335 O   0  0  0  0  0  0  0  0  0  0  0  0
    5.0165   -0.4330   -0.0264 C   0  0  0  0  0  0  0  0  0  0  0  0
    5.3948    0.8673    0.0262 C   0  0  0  0  0  0  0  0  0  0  0  0
    6.7391    1.1651   -0.1023 C   0  0  0  0  0  0  0  0  0  0  0  0
    7.6622    0.1624   -0.2784 C   0  0  0  0  0  0  0  0  0  0  0  0
    9.0375    0.2324   -0.4269 O   0  0  0  0  0  0  0  0  0  0  0  0
    9.4648   -1.0651   -0.7441 C   0  0  0  0  0  0  0  0  0  0  0  0
    8.3982   -1.9442   -0.5138 O   0  0  0  0  0  0  0  0  0  0  0  0
    7.2634   -1.1686   -0.3307 C   0  0  0  0  0  0  0  0  0  0  0  0
    5.9340   -1.4369   -0.2019 C   0  0  0  0  0  0  0  0  0  0  0  0
    0.6612   -1.0709    0.6253 C   0  0  0  0  0  0  0  0  0  0  0  0
   -0.7127   -1.1861    0.6810 C   0  0  0  0  0  0  0  0  0  0  0  0
   -8.1321    3.2650    0.0460 H   0  0  0  0  0  0  0  0  0  0  0  0
   -5.8242    2.2730    0.0221 H   0  0  0  0  0  0  0  0  0  0  0  0
   -7.4990   -1.5504    0.5661 H   0  0  0  0  0  0  0  0  0  0  0  0
   -9.7649   -0.5880    0.5909 H   0  0  0  0  0  0  0  0  0  0  0  0
   -3.8528    1.4654   -0.0029 H   0  0  0  0  0  0  0  0  0  0  0  0
   -1.6540    1.4320   -1.1486 H   0  0  0  0  0  0  0  0  0  0  0  0
    0.8288    1.6558   -1.2611 H   0  0  0  0  0  0  0  0  0  0  0  0
    2.9525    1.1322   -0.4535 H   0  0  0  0  0  0  0  0  0  0  0  0
    4.7384    1.6863    0.1643 H   0  0  0  0  0  0  0  0  0  0  0  0
    7.0694    2.1848   -0.0650 H   0  0  0  0  0  0  0  0  0  0  0  0
   10.3060   -1.3525   -0.0775 H   0  0  0  0  0  0  0  0  0  0  0  0
    9.8419   -1.1523   -1.7760 H   0  0  0  0  0  0  0  0  0  0  0  0
    5.6096   -2.4869   -0.2421 H   0  0  0  0  0  0  0  0  0  0  0  0
    1.2020   -1.8189    1.1700 H   0  0  0  0  0  0  0  0  0  0  0  0
   -1.1562   -2.0161    1.2480 H   0  0  0  0  0  0  0  0  0  0  0  0
  1  2  1  0
  2  3  2  0
  3  4  1  0
  4  5  2  0
  5  6  1  0
  6  7  2  0
  5  8  1  0
  8  9  2  0
  9 10  1  0
 10 11  1  0
 11 12  2  0
 10 13  1  0
 13 14  2  0
 14 15  1  0
 15 16  2  0
 16 17  1  0
 17 18  1  0
 18 19  2  0
 18 20  1  0
 20 21  2  0
 21 22  1  0
 22 23  2  0
 23 24  1  0
 24 25  1  0
 25 26  1  0
 26 27  1  0
 27 28  2  0
 16 29  1  0
 29 30  2  0
  7  2  1  0
 12  8  1  0
 30 13  1  0
 28 20  1  0
 27 23  1  0
  3 31  1  0
  4 32  1  0
  6 33  1  0
  7 34  1  0
  9 35  1  0
 14 36  1  0
 15 37  1  0
 17 38  1  0
 21 39  1  0
 22 40  1  0
 25 41  1  0
 25 42  1  0
 28 43  1  0
 29 44  1  0
 30 45  1  0
M  END
$$$$
[H]c1c([H])c(C([H])([H])Oc2c([H])c([H])c(C(=O)N([H])[C@@]3([H])C([H])([H])N4C([H])([H])C([H])([H])N(C([H])([H])[C@]([H])(C([H])([H])[H])C3([H])[H])[C@@]([H])(C(F)(F)F)C4([H])[H])c([H])c2[H])c([H])c(C([H])([H])[H])c1F
     RDKit          3D

 66 69  0  0  0  0  0  0  0  0999 V2000
   -2.9739   -1.6253   -2.4125 C   0  0  0  0  0  0  0  0  0  0  0  0
   -3.6689   -0.8526   -1.2790 C   0  0  1  0  0  0  0  0  0  0  0  0
   -4.9384   -0.3003   -1.8804 C   0  0  0  0  0  0  0  0  0  0  0  0
   -5.5362    0.7603   -1.1503 N   0  0  0  0  0  0  0  0  0  0  0  0
   -6.5562    0.4030   -0.2378 C   0  0  0  0  0  0  0  0  0  0  0  0
   -6.0654    0.3667    1.2148 C   0  0  0  0  0  0  0  0  0  0  0  0
   -4.6814    0.5461    1.2055 N   0  0  0  0  0  0  0  0  0  0  0  0
   -4.1688    1.7103    0.6327 C   0  0  0  0  0  0  0  0  0  0  0  0
   -4.6868    1.8312   -0.7797 C   0  0  2  0  0  0  0  0  0  0  0  0
   -5.3470    3.1788   -0.9830 C   0  0  0  0  0  0  0  0  0  0  0  0
   -4.3966    4.1275   -0.5790 F   0  0  0  0  0  0  0  0  0  0  0  0
   -6.4266    3.3692   -0.1404 F   0  0  0  0  0  0  0  0  0  0  0  0
   -5.6298    3.4168   -2.2921 F   0  0  0  0  0  0  0  0  0  0  0  0
   -3.8550   -0.3263    1.9101 C   0  0  0  0  0  0  0  0  0  0  0  0
   -3.1633   -1.3905    1.1356 C   0  0  1  0  0  0  0  0  0  0  0  0
   -3.8959   -1.7794   -0.1337 C   0  0  0  0  0  0  0  0  0  0  0  0
   -1.7691   -1.0627    0.8505 N   0  0  0  0  0  0  0  0  0  0  0  0
   -0.7009   -1.8631    1.3394 C   0  0  0  0  0  0  0  0  0  0  0  0
   -0.9762   -2.8952    2.0463 O   0  0  0  0  0  0  0  0  0  0  0  0
    0.6943   -1.5934    1.0932 C   0  0  0  0  0  0  0  0  0  0  0  0
    1.1230   -0.5154    0.3501 C   0  0  0  0  0  0  0  0  0  0  0  0
    2.4701   -0.2518    0.1103 C   0  0  0  0  0  0  0  0  0  0  0  0
    3.4384   -1.0776    0.6190 C   0  0  0  0  0  0  0  0  0  0  0  0
    4.8035   -0.8344    0.3921 O   0  0  0  0  0  0  0  0  0  0  0  0
    5.1556    0.2941   -0.3814 C   0  0  0  0  0  0  0  0  0  0  0  0
    6.6180    0.3929   -0.5160 C   0  0  0  0  0  0  0  0  0  0  0  0
    7.2434   -0.2336   -1.5804 C   0  0  0  0  0  0  0  0  0  0  0  0
    8.6103   -0.1430   -1.7088 C   0  0  0  0  0  0  0  0  0  0  0  0
    9.3803    0.5558   -0.8057 C   0  0  0  0  0  0  0  0  0  0  0  0
   10.7220    0.6056   -0.9906 F   0  0  0  0  0  0  0  0  0  0  0  0
    8.7707    1.1858    0.2609 C   0  0  0  0  0  0  0  0  0  0  0  0
    9.6117    1.9444    1.2403 C   0  0  0  0  0  0  0  0  0  0  0  0
    7.4101    1.0894    0.3794 C   0  0  0  0  0  0  0  0  0  0  0  0
    3.0337   -2.1637    1.3665 C   0  0  0  0  0  0  0  0  0  0  0  0
    1.7005   -2.4137    1.5965 C   0  0  0  0  0  0  0  0  0  0  0  0
   -2.1990   -2.2923   -2.0170 H   0  0  0  0  0  0  0  0  0  0  0  0
   -3.7776   -2.2898   -2.8451 H   0  0  0  0  0  0  0  0  0  0  0  0
   -2.6546   -0.9633   -3.2196 H   0  0  0  0  0  0  0  0  0  0  0  0
   -3.0104   -0.0009   -1.0672 H   0  0  0  0  0  0  0  0  0  0  0  0
   -4.6574    0.0926   -2.8971 H   0  0  0  0  0  0  0  0  0  0  0  0
   -5.6561   -1.1092   -2.0188 H   0  0  0  0  0  0  0  0  0  0  0  0
   -7.4141    1.0964   -0.3367 H   0  0  0  0  0  0  0  0  0  0  0  0
   -6.9594   -0.6023   -0.5263 H   0  0  0  0  0  0  0  0  0  0  0  0
   -6.3313   -0.5898    1.7010 H   0  0  0  0  0  0  0  0  0  0  0  0
   -6.5684    1.1659    1.7937 H   0  0  0  0  0  0  0  0  0  0  0  0
   -3.0710    1.7717    0.6940 H   0  0  0  0  0  0  0  0  0  0  0  0
   -4.5452    2.5986    1.2180 H   0  0  0  0  0  0  0  0  0  0  0  0
   -3.7915    1.8374   -1.4574 H   0  0  0  0  0  0  0  0  0  0  0  0
   -3.0516    0.2740    2.4303 H   0  0  0  0  0  0  0  0  0  0  0  0
   -4.4346   -0.7822    2.7470 H   0  0  0  0  0  0  0  0  0  0  0  0
   -3.1386   -2.3073    1.7600 H   0  0  0  0  0  0  0  0  0  0  0  0
   -3.5980   -2.8330   -0.4147 H   0  0  0  0  0  0  0  0  0  0  0  0
   -4.9863   -1.8374    0.0465 H   0  0  0  0  0  0  0  0  0  0  0  0
   -1.5047   -0.2308    0.2794 H   0  0  0  0  0  0  0  0  0  0  0  0
    0.4271    0.1824   -0.0855 H   0  0  0  0  0  0  0  0  0  0  0  0
    2.7871    0.6114   -0.4836 H   0  0  0  0  0  0  0  0  0  0  0  0
    4.7785    1.2448    0.0846 H   0  0  0  0  0  0  0  0  0  0  0  0
    4.7280    0.1684   -1.4044 H   0  0  0  0  0  0  0  0  0  0  0  0
    6.6563   -0.7868   -2.2996 H   0  0  0  0  0  0  0  0  0  0  0  0
    9.0878   -0.6357   -2.5432 H   0  0  0  0  0  0  0  0  0  0  0  0
    9.0451    1.9953    2.1800 H   0  0  0  0  0  0  0  0  0  0  0  0
   10.5193    1.3334    1.4231 H   0  0  0  0  0  0  0  0  0  0  0  0
    9.8657    2.9509    0.8499 H   0  0  0  0  0  0  0  0  0  0  0  0
    6.9153    1.5762    1.2082 H   0  0  0  0  0  0  0  0  0  0  0  0
    3.8125   -2.8228    1.7722 H   0  0  0  0  0  0  0  0  0  0  0  0
    1.3779   -3.2719    2.1873 H   0  0  0  0  0  0  0  0  0  0  0  0
  1  2  1  0
  2  3  1  0
  3  4  1  0
  4  5  1  0
  5  6  1  0
  6  7  1  0
  7  8  1  0
  8  9  1  0
  9 10  1  0
 10 11  1  0
 10 12  1  0
 10 13  1  0
  7 14  1  0
 14 15  1  0
 15 16  1  0
 15 17  1  0
 17 18  1  0
 18 19  2  0
 18 20  1  0
 20 21  2  0
 21 22  1  0
 22 23  2  0
 23 24  1  0
 24 25  1  0
 25 26  1  0
 26 27  2  0
 27 28  1  0
 28 29  2  0
 29 30  1  0
 29 31  1  0
 31 32  1  0
 31 33  2  0
 23 34  1  0
 34 35  2  0
 16  2  1  0
 35 20  1  0
  9  4  1  0
 33 26  1  0
  1 36  1  0
  1 37  1  0
  1 38  1  0
  2 39  1  1
  3 40  1  0
  3 41  1  0
  5 42  1  0
  5 43  1  0
  6 44  1  0
  6 45  1  0
  8 46  1  0
  8 47  1  0
  9 48  1  6
 14 49  1  0
 14 50  1  0
 15 51  1  1
 16 52  1  0
 16 53  1  0
 17 54  1  0
 21 55  1  0
 22 56  1  0
 25 57  1  0
 25 58  1  0
 27 59  1  0
 28 60  1  0
 32 61  1  0
 32 62  1  0
 32 63  1  0
 33 64  1  0
 34 65  1  0
 35 66  1  0
M  END
$$$$
[H]c1nc(N(C([H])([H])C([H])([H])[H])C([H])([H])C([H])([H])[H])c2c([H])c(C(=O)N([H])c3noc(C([H])(F)F)c3[H])c([H])c([H])c2n1
     RDKit          3D

 43 45  0  0  0  0  0  0  0  0999 V2000
   -2.6071   -2.8297   -0.2475 C   0  0  0  0  0  0  0  0  0  0  0  0
   -3.4104   -1.7879   -0.9147 C   0  0  0  0  0  0  0  0  0  0  0  0
   -3.4827   -0.4719   -0.3702 N   0  0  0  0  0  0  0  0  0  0  0  0
   -4.1098   -0.2486    0.9019 C   0  0  0  0  0  0  0  0  0  0  0  0
   -3.4088   -0.8127    2.0850 C   0  0  0  0  0  0  0  0  0  0  0  0
   -3.0424    0.6623   -1.1022 C   0  0  0  0  0  0  0  0  0  0  0  0
   -3.9712    1.3755   -1.8170 N   0  0  0  0  0  0  0  0  0  0  0  0
   -3.6779    2.4240   -2.5834 C   0  0  0  0  0  0  0  0  0  0  0  0
   -2.4043    2.8193   -2.6727 N   0  0  0  0  0  0  0  0  0  0  0  0
   -1.4387    2.1457   -1.9809 C   0  0  0  0  0  0  0  0  0  0  0  0
   -0.1310    2.5641   -2.0641 C   0  0  0  0  0  0  0  0  0  0  0  0
    0.8760    1.9116   -1.3614 C   0  0  0  0  0  0  0  0  0  0  0  0
    0.5925    0.8289   -0.5625 C   0  0  0  0  0  0  0  0  0  0  0  0
   -0.7234    0.4247   -0.4925 C   0  0  0  0  0  0  0  0  0  0  0  0
   -1.7556    1.0478   -1.1792 C   0  0  0  0  0  0  0  0  0  0  0  0
    1.6295    0.1323    0.1790 C   0  0  0  0  0  0  0  0  0  0  0  0
    1.3093   -0.7932    0.9663 O   0  0  0  0  0  0  0  0  0  0  0  0
    2.9992    0.4606    0.0459 N   0  0  0  0  0  0  0  0  0  0  0  0
    3.9877   -0.2311    0.7813 C   0  0  0  0  0  0  0  0  0  0  0  0
    5.3446   -0.0058    0.7356 C   0  0  0  0  0  0  0  0  0  0  0  0
    5.9670   -0.8707    1.5881 C   0  0  0  0  0  0  0  0  0  0  0  0
    5.0100   -1.5998    2.1347 O   0  0  0  0  0  0  0  0  0  0  0  0
    3.8457   -1.2369    1.6721 N   0  0  0  0  0  0  0  0  0  0  0  0
    7.4249   -0.9799    1.8557 C   0  0  0  0  0  0  0  0  0  0  0  0
    7.6918   -0.6364    3.1726 F   0  0  0  0  0  0  0  0  0  0  0  0
    7.8060   -2.2899    1.6521 F   0  0  0  0  0  0  0  0  0  0  0  0
   -3.2101   -3.6723    0.1693 H   0  0  0  0  0  0  0  0  0  0  0  0
   -1.8693   -3.2370   -1.0098 H   0  0  0  0  0  0  0  0  0  0  0  0
   -1.9671   -2.4290    0.5501 H   0  0  0  0  0  0  0  0  0  0  0  0
   -4.4956   -2.1622   -0.8880 H   0  0  0  0  0  0  0  0  0  0  0  0
   -3.2228   -1.7560   -2.0333 H   0  0  0  0  0  0  0  0  0  0  0  0
   -5.1744   -0.6471    0.9038 H   0  0  0  0  0  0  0  0  0  0  0  0
   -4.2649    0.8435    1.1081 H   0  0  0  0  0  0  0  0  0  0  0  0
   -3.8450   -0.4066    3.0306 H   0  0  0  0  0  0  0  0  0  0  0  0
   -2.3256   -0.6097    2.0491 H   0  0  0  0  0  0  0  0  0  0  0  0
   -3.6444   -1.9098    2.1387 H   0  0  0  0  0  0  0  0  0  0  0  0
   -4.4550    2.9693   -3.1413 H   0  0  0  0  0  0  0  0  0  0  0  0
    0.1160    3.4268   -2.6962 H   0  0  0  0  0  0  0  0  0  0  0  0
    1.8823    2.3025   -1.4795 H   0  0  0  0  0  0  0  0  0  0  0  0
   -0.9656   -0.3950    0.1353 H   0  0  0  0  0  0  0  0  0  0  0  0
    3.3119    1.2212   -0.5959 H   0  0  0  0  0  0  0  0  0  0  0  0
    5.8449    0.7430    0.1184 H   0  0  0  0  0  0  0  0  0  0  0  0
    7.9638   -0.2568    1.2186 H   0  0  0  0  0  0  0  0  0  0  0  0
  1  2  1  0
  2  3  1  0
  3  4  1  0
  4  5  1  0
  3  6  1  0
  6  7  2  0
  7  8  1  0
  8  9  2  0
  9 10  1  0
 10 11  2  0
 11 12  1  0
 12 13  2  0
 13 14  1  0
 14 15  2  0
 13 16  1  0
 16 17  2  0
 16 18  1  0
 18 19  1  0
 19 20  1  0
 20 21  2  0
 21 22  1  0
 22 23  1  0
 21 24  1  0
 24 25  1  0
 24 26  1  0
 15  6  1  0
 23 19  2  0
 15 10  1  0
  1 27  1  0
  1 28  1  0
  1 29  1  0
  2 30  1  0
  2 31  1  0
  4 32  1  0
  4 33  1  0
  5 34  1  0
  5 35  1  0
  5 36  1  0
  8 37  1  0
 11 38  1  0
 12 39  1  0
 14 40  1  0
 18 41  1  0
 20 42  1  0
 24 43  1  0
M  END
$$$$
[H]c1c([H])c(C([H])([H])[H])c(N2C([H])([H])C([H])([H])N(C([H])([H])[H])C([H])([H])C2([H])[H])c([H])c1C(=O)N([H])c1c([H])c([H])c(C([H])([H])N2C([H])([H])C([H])([H])N(C([H])([H])C([H])([H])[H])C([H])([H])C2([H])[H])c(C(F)(F)F)c1[H]
     RDKit          3D

 72 75  0  0  0  0  0  0  0  0999 V2000
    9.9347    2.1475   -0.3610 C   0  0  0  0  0  0  0  0  0  0  0  0
    8.6018    2.2074    0.3570 C   0  0  0  0  0  0  0  0  0  0  0  0
    7.5303    1.7362   -0.5009 N   0  0  0  0  0  0  0  0  0  0  0  0
    7.7150    0.3147   -0.6975 C   0  0  0  0  0  0  0  0  0  0  0  0
    6.8791   -0.3648    0.3671 C   0  0  0  0  0  0  0  0  0  0  0  0
    5.4824   -0.3116   -0.1111 N   0  0  0  0  0  0  0  0  0  0  0  0
    4.6331   -0.7867    0.9724 C   0  0  0  0  0  0  0  0  0  0  0  0
    3.2467   -0.9489    0.6148 C   0  0  0  0  0  0  0  0  0  0  0  0
    2.7880   -0.7595   -0.6559 C   0  0  0  0  0  0  0  0  0  0  0  0
    1.4421   -0.9404   -1.0251 C   0  0  0  0  0  0  0  0  0  0  0  0
    0.5324   -1.3261   -0.0763 C   0  0  0  0  0  0  0  0  0  0  0  0
   -0.8331   -1.5391   -0.2969 N   0  0  0  0  0  0  0  0  0  0  0  0
   -1.5748   -1.3555   -1.4730 C   0  0  0  0  0  0  0  0  0  0  0  0
   -1.0714   -0.9529   -2.5358 O   0  0  0  0  0  0  0  0  0  0  0  0
   -3.0253   -1.6371   -1.5121 C   0  0  0  0  0  0  0  0  0  0  0  0
   -3.4549   -2.8570   -1.9811 C   0  0  0  0  0  0  0  0  0  0  0  0
   -4.7978   -3.1759   -2.0473 C   0  0  0  0  0  0  0  0  0  0  0  0
   -5.7499   -2.2501   -1.6335 C   0  0  0  0  0  0  0  0  0  0  0  0
   -7.1875   -2.5959   -1.7081 C   0  0  0  0  0  0  0  0  0  0  0  0
   -5.3318   -1.0298   -1.1644 C   0  0  0  0  0  0  0  0  0  0  0  0
   -3.9657   -0.7302   -1.1061 C   0  0  0  0  0  0  0  0  0  0  0  0
   -6.3105   -0.0654   -0.7381 N   0  0  0  0  0  0  0  0  0  0  0  0
   -7.2198   -0.3169    0.3411 C   0  0  0  0  0  0  0  0  0  0  0  0
   -7.3971    0.8643    1.2737 C   0  0  0  0  0  0  0  0  0  0  0  0
   -7.5535    2.1023    0.5343 N   0  0  0  0  0  0  0  0  0  0  0  0
   -7.5266    3.1981    1.4815 C   0  0  0  0  0  0  0  0  0  0  0  0
   -6.4673    2.3019   -0.4067 C   0  0  0  0  0  0  0  0  0  0  0  0
   -6.3843    1.2087   -1.4218 C   0  0  0  0  0  0  0  0  0  0  0  0
    1.0173   -1.5140    1.2054 C   0  0  0  0  0  0  0  0  0  0  0  0
    2.3291   -1.3415    1.5830 C   0  0  0  0  0  0  0  0  0  0  0  0
    2.7594   -1.5630    2.9677 C   0  0  0  0  0  0  0  0  0  0  0  0
    3.7076   -2.5420    3.1348 F   0  0  0  0  0  0  0  0  0  0  0  0
    1.6453   -2.0079    3.7032 F   0  0  0  0  0  0  0  0  0  0  0  0
    3.1169   -0.3745    3.6113 F   0  0  0  0  0  0  0  0  0  0  0  0
    5.1672    1.0887   -0.4206 C   0  0  0  0  0  0  0  0  0  0  0  0
    6.2339    2.0379    0.0705 C   0  0  0  0  0  0  0  0  0  0  0  0
    9.6915    2.1382   -1.4583 H   0  0  0  0  0  0  0  0  0  0  0  0
   10.5160    3.0379   -0.0690 H   0  0  0  0  0  0  0  0  0  0  0  0
   10.4630    1.1919   -0.1734 H   0  0  0  0  0  0  0  0  0  0  0  0
    8.7104    1.5564    1.2596 H   0  0  0  0  0  0  0  0  0  0  0  0
    8.3893    3.2346    0.7301 H   0  0  0  0  0  0  0  0  0  0  0  0
    7.3520   -0.0192   -1.6913 H   0  0  0  0  0  0  0  0  0  0  0  0
    8.7800    0.0858   -0.5820 H   0  0  0  0  0  0  0  0  0  0  0  0
    7.1626   -1.4111    0.4574 H   0  0  0  0  0  0  0  0  0  0  0  0
    6.8945    0.1637    1.3282 H   0  0  0  0  0  0  0  0  0  0  0  0
    4.7471   -0.0039    1.7790 H   0  0  0  0  0  0  0  0  0  0  0  0
    5.1557   -1.6777    1.3715 H   0  0  0  0  0  0  0  0  0  0  0  0
    3.4192   -0.4754   -1.4734 H   0  0  0  0  0  0  0  0  0  0  0  0
    1.1405   -0.7803   -2.0379 H   0  0  0  0  0  0  0  0  0  0  0  0
   -1.4308   -1.8974    0.5357 H   0  0  0  0  0  0  0  0  0  0  0  0
   -2.7014   -3.5794   -2.3034 H   0  0  0  0  0  0  0  0  0  0  0  0
   -5.1414   -4.1292   -2.4147 H   0  0  0  0  0  0  0  0  0  0  0  0
   -7.3496   -3.4851   -2.3633 H   0  0  0  0  0  0  0  0  0  0  0  0
   -7.7939   -1.7708   -2.1121 H   0  0  0  0  0  0  0  0  0  0  0  0
   -7.6126   -2.8712   -0.7186 H   0  0  0  0  0  0  0  0  0  0  0  0
   -3.6442    0.2231   -0.7403 H   0  0  0  0  0  0  0  0  0  0  0  0
   -6.8080   -1.1633    0.9476 H   0  0  0  0  0  0  0  0  0  0  0  0
   -8.1987   -0.6551   -0.0316 H   0  0  0  0  0  0  0  0  0  0  0  0
   -8.3427    0.6775    1.8271 H   0  0  0  0  0  0  0  0  0  0  0  0
   -6.5525    0.9575    1.9519 H   0  0  0  0  0  0  0  0  0  0  0  0
   -6.8668    3.0092    2.3551 H   0  0  0  0  0  0  0  0  0  0  0  0
   -8.5651    3.4078    1.8703 H   0  0  0  0  0  0  0  0  0  0  0  0
   -7.1679    4.1582    1.0299 H   0  0  0  0  0  0  0  0  0  0  0  0
   -6.7487    3.2423   -0.9677 H   0  0  0  0  0  0  0  0  0  0  0  0
   -5.4970    2.4614    0.0644 H   0  0  0  0  0  0  0  0  0  0  0  0
   -5.4674    1.3590   -2.0217 H   0  0  0  0  0  0  0  0  0  0  0  0
   -7.3034    1.2082   -2.0669 H   0  0  0  0  0  0  0  0  0  0  0  0
    0.3285   -1.8193    1.9731 H   0  0  0  0  0  0  0  0  0  0  0  0
    5.0833    1.2059   -1.4968 H   0  0  0  0  0  0  0  0  0  0  0  0
    4.2231    1.3530    0.0796 H   0  0  0  0  0  0  0  0  0  0  0  0
    6.2801    2.1017    1.1762 H   0  0  0  0  0  0  0  0  0  0  0  0
    5.9445    3.0440   -0.2998 H   0  0  0  0  0  0  0  0  0  0  0  0
  1  2  1  0
  2  3  1  0
  3  4  1  0
  4  5  1  0
  5  6  1  0
  6  7  1  0
  7  8  1  0
  8  9  2  0
  9 10  1  0
 10 11  2  0
 11 12  1  0
 12 13  1  0
 13 14  2  0
 13 15  1  0
 15 16  2  0
 16 17  1  0
 17 18  2  0
 18 19  1  0
 18 20  1  0
 20 21  2  0
 20 22  1  0
 22 23  1  0
 23 24  1  0
 24 25  1  0
 25 26  1  0
 25 27  1  0
 27 28  1  0
 11 29  1  0
 29 30  2  0
 30 31  1  0
 31 32  1  0
 31 33  1  0
 31 34  1  0
  6 35  1  0
 35 36  1  0
 36  3  1  0
 30  8  1  0
 21 15  1  0
 28 22  1  0
  1 37  1  0
  1 38  1  0
  1 39  1  0
  2 40  1  0
  2 41  1  0
  4 42  1  0
  4 43  1  0
  5 44  1  0
  5 45  1  0
  7 46  1  0
  7 47  1  0
  9 48  1  0
 10 49  1  0
 12 50  1  0
 16 51  1  0
 17 52  1  0
 19 53  1  0
 19 54  1  0
 19 55  1  0
 21 56  1  0
 23 57  1  0
 23 58  1  0
 24 59  1  0
 24 60  1  0
 26 61  1  0
 26 62  1  0
 26 63  1  0
 27 64  1  0
 27 65  1  0
 28 66  1  0
 28 67  1  0
 29 68  1  0
 35 69  1  0
 35 70  1  0
 36 71  1  0
 36 72  1  0
M  END
$$$$
[H]OC([H])([H])C([H])([H])N([H])c1nc(N([H])c2c([H])c([H])c(C([H])=C3C([H])([H])C([H])([H])N([H])C([H])([H])C3([H])[H])c(C(F)(F)F)c2[H])nc([H])c1[H]
     RDKit          3D

 50 52  0  0  0  0  0  0  0  0999 V2000
   -2.9800   -2.6029   -2.0323 F   0  0  0  0  0  0  0  0  0  0  0  0
   -1.9404   -2.9557   -1.2258 C   0  0  0  0  0  0  0  0  0  0  0  0
   -0.9602   -3.4737   -2.0735 F   0  0  0  0  0  0  0  0  0  0  0  0
   -2.2023   -3.8873   -0.2778 F   0  0  0  0  0  0  0  0  0  0  0  0
   -1.3365   -1.7439   -0.5550 C   0  0  0  0  0  0  0  0  0  0  0  0
   -0.0216   -1.4372   -0.7449 C   0  0  0  0  0  0  0  0  0  0  0  0
    0.6332   -0.3319   -0.1710 C   0  0  0  0  0  0  0  0  0  0  0  0
    1.9886   -0.1129   -0.4552 N   0  0  0  0  0  0  0  0  0  0  0  0
    2.8770    0.6449    0.3129 C   0  0  0  0  0  0  0  0  0  0  0  0
    2.5979    1.2839    1.4534 N   0  0  0  0  0  0  0  0  0  0  0  0
    3.4410    2.0013    2.1855 C   0  0  0  0  0  0  0  0  0  0  0  0
    4.7398    2.1196    1.7563 C   0  0  0  0  0  0  0  0  0  0  0  0
    5.1043    1.4746    0.5664 C   0  0  0  0  0  0  0  0  0  0  0  0
    6.4486    1.6168    0.1329 N   0  0  0  0  0  0  0  0  0  0  0  0
    6.9098    0.9603   -1.0533 C   0  0  0  0  0  0  0  0  0  0  0  0
    6.9183   -0.5439   -0.9702 C   0  0  0  0  0  0  0  0  0  0  0  0
    7.7534   -0.9736    0.0689 O   0  0  0  0  0  0  0  0  0  0  0  0
    4.1862    0.7767   -0.0999 N   0  0  0  0  0  0  0  0  0  0  0  0
   -0.1467    0.4512    0.6174 C   0  0  0  0  0  0  0  0  0  0  0  0
   -1.5062    0.1520    0.8275 C   0  0  0  0  0  0  0  0  0  0  0  0
   -2.1061   -0.9368    0.2491 C   0  0  0  0  0  0  0  0  0  0  0  0
   -3.4982   -1.2061    0.5294 C   0  0  0  0  0  0  0  0  0  0  0  0
   -4.4942   -0.3731    0.5254 C   0  0  0  0  0  0  0  0  0  0  0  0
   -5.8812   -0.8680    0.8527 C   0  0  0  0  0  0  0  0  0  0  0  0
   -6.6492   -0.7658   -0.4628 C   0  0  0  0  0  0  0  0  0  0  0  0
   -6.5083    0.5450   -1.0494 N   0  0  0  0  0  0  0  0  0  0  0  0
   -5.8862    1.4747   -0.1430 C   0  0  0  0  0  0  0  0  0  0  0  0
   -4.4411    1.0748    0.2019 C   0  0  0  0  0  0  0  0  0  0  0  0
    0.5787   -2.0799   -1.3806 H   0  0  0  0  0  0  0  0  0  0  0  0
    2.3674   -0.5674   -1.3406 H   0  0  0  0  0  0  0  0  0  0  0  0
    3.1436    2.4947    3.1045 H   0  0  0  0  0  0  0  0  0  0  0  0
    5.4774    2.6788    2.2893 H   0  0  0  0  0  0  0  0  0  0  0  0
    7.1197    2.2121    0.6897 H   0  0  0  0  0  0  0  0  0  0  0  0
    7.9773    1.2580   -1.2663 H   0  0  0  0  0  0  0  0  0  0  0  0
    6.3324    1.2508   -1.9702 H   0  0  0  0  0  0  0  0  0  0  0  0
    7.3780   -0.9618   -1.9049 H   0  0  0  0  0  0  0  0  0  0  0  0
    5.9213   -0.9574   -0.7970 H   0  0  0  0  0  0  0  0  0  0  0  0
    8.5572   -0.3919    0.0776 H   0  0  0  0  0  0  0  0  0  0  0  0
    0.2531    1.3291    1.0870 H   0  0  0  0  0  0  0  0  0  0  0  0
   -2.0240    0.8414    1.4774 H   0  0  0  0  0  0  0  0  0  0  0  0
   -3.7203   -2.2570    0.7789 H   0  0  0  0  0  0  0  0  0  0  0  0
   -6.3548   -0.2728    1.6326 H   0  0  0  0  0  0  0  0  0  0  0  0
   -5.8709   -1.9318    1.1515 H   0  0  0  0  0  0  0  0  0  0  0  0
   -6.1959   -1.5057   -1.1504 H   0  0  0  0  0  0  0  0  0  0  0  0
   -7.7148   -1.0465   -0.3205 H   0  0  0  0  0  0  0  0  0  0  0  0
   -5.9659    0.5478   -1.9377 H   0  0  0  0  0  0  0  0  0  0  0  0
   -5.8172    2.4659   -0.6349 H   0  0  0  0  0  0  0  0  0  0  0  0
   -6.4840    1.5946    0.7680 H   0  0  0  0  0  0  0  0  0  0  0  0
   -4.1605    1.7269    1.0261 H   0  0  0  0  0  0  0  0  0  0  0  0
   -3.8373    1.2092   -0.7301 H   0  0  0  0  0  0  0  0  0  0  0  0
  1  2  1  0
  2  3  1  0
  2  4  1  0
  2  5  1  0
  5  6  2  0
  6  7  1  0
  7  8  1  0
  8  9  1  0
  9 10  2  0
 10 11  1  0
 11 12  2  0
 12 13  1  0
 13 14  1  0
 14 15  1  0
 15 16  1  0
 16 17  1  0
 13 18  2  0
  7 19  2  0
 19 20  1  0
 20 21  2  0
 21 22  1  0
 22 23  2  3
 23 24  1  0
 24 25  1  0
 25 26  1  0
 26 27  1  0
 27 28  1  0
 21  5  1  0
 28 23  1  0
 18  9  1  0
  6 29  1  0
  8 30  1  0
 11 31  1  0
 12 32  1  0
 14 33  1  0
 15 34  1  0
 15 35  1  0
 16 36  1  0
 16 37  1  0
 17 38  1  0
 19 39  1  0
 20 40  1  0
 22 41  1  0
 24 42  1  0
 24 43  1  0
 25 44  1  0
 25 45  1  0
 26 46  1  0
 27 47  1  0
 27 48  1  0
 28 49  1  0
 28 50  1  0
M  END
$$$$
[H]OC(=O)[C@@]([H])(C([H])([H])C([H])([H])C([H])([H])[H])C([H])([H])[C@@]1([H])O[C@@]([H])(n2nnc(-c3c([H])c([H])c(S(=O)(=O)N([H])[H])c([H])c3[H])c2[H])C([H])([H])[C@]1([H])O[H]
     RDKit          3D

 53 55  0  0  0  0  0  0  0  0999 V2000
   -6.8236   -2.8923    0.6323 C   0  0  0  0  0  0  0  0  0  0  0  0
   -5.9668   -1.6375    0.9029 C   0  0  0  0  0  0  0  0  0  0  0  0
   -5.6715   -1.0170   -0.4116 C   0  0  0  0  0  0  0  0  0  0  0  0
   -4.8275    0.2766   -0.3134 C   0  0  1  0  0  0  0  0  0  0  0  0
   -3.5402   -0.0428    0.3155 C   0  0  0  0  0  0  0  0  0  0  0  0
   -2.5604    1.0255    0.6244 C   0  0  1  0  0  0  0  0  0  0  0  0
   -1.4128    0.4664    1.2275 O   0  0  0  0  0  0  0  0  0  0  0  0
   -0.3499    1.2786    1.0446 C   0  0  2  0  0  0  0  0  0  0  0  0
   -0.7694    2.4410    0.1887 C   0  0  0  0  0  0  0  0  0  0  0  0
   -2.0148    1.7903   -0.5134 C   0  0  2  0  0  0  0  0  0  0  0  0
   -2.8155    2.8578   -0.9511 O   0  0  0  0  0  0  0  0  0  0  0  0
    0.7322    0.5992    0.3150 N   0  0  0  0  0  0  0  0  0  0  0  0
    2.0623    0.7683    0.5193 C   0  0  0  0  0  0  0  0  0  0  0  0
    2.7623   -0.0462   -0.3637 C   0  0  0  0  0  0  0  0  0  0  0  0
    1.8122   -0.6776   -1.0695 N   0  0  0  0  0  0  0  0  0  0  0  0
    0.6233   -0.2881   -0.6594 N   0  0  0  0  0  0  0  0  0  0  0  0
    4.2043   -0.1738   -0.4831 C   0  0  0  0  0  0  0  0  0  0  0  0
    5.0700    0.5386    0.3103 C   0  0  0  0  0  0  0  0  0  0  0  0
    6.4532    0.4055    0.1840 C   0  0  0  0  0  0  0  0  0  0  0  0
    6.9683   -0.4619   -0.7596 C   0  0  0  0  0  0  0  0  0  0  0  0
    6.1193   -1.1775   -1.5563 C   0  0  0  0  0  0  0  0  0  0  0  0
    4.7342   -1.0328   -1.4174 C   0  0  0  0  0  0  0  0  0  0  0  0
    8.7064   -0.5848   -0.8697 S   0  0  0  0  0  0  0  0  0  0  0  0
    9.3088   -1.8233    0.1809 N   0  0  0  0  0  0  0  0  0  0  0  0
    9.0831   -0.9646   -2.2709 O   0  0  0  0  0  0  0  0  0  0  0  0
    9.3116    0.7341   -0.4669 O   0  0  0  0  0  0  0  0  0  0  0  0
   -4.7352    0.6655   -1.7720 C   0  0  0  0  0  0  0  0  0  0  0  0
   -5.6238    1.6069   -2.2938 O   0  0  0  0  0  0  0  0  0  0  0  0
   -3.8931    0.1746   -2.5522 O   0  0  0  0  0  0  0  0  0  0  0  0
   -6.6017   -3.6390    1.4139 H   0  0  0  0  0  0  0  0  0  0  0  0
   -7.9010   -2.6452    0.6712 H   0  0  0  0  0  0  0  0  0  0  0  0
   -6.6235   -3.2707   -0.4000 H   0  0  0  0  0  0  0  0  0  0  0  0
   -5.1250   -1.9005    1.5382 H   0  0  0  0  0  0  0  0  0  0  0  0
   -6.6352   -0.9787    1.5091 H   0  0  0  0  0  0  0  0  0  0  0  0
   -6.6057   -0.8123   -0.9531 H   0  0  0  0  0  0  0  0  0  0  0  0
   -5.0700   -1.6868   -1.0592 H   0  0  0  0  0  0  0  0  0  0  0  0
   -5.4130    1.0660    0.1933 H   0  0  0  0  0  0  0  0  0  0  0  0
   -3.7253   -0.5693    1.2963 H   0  0  0  0  0  0  0  0  0  0  0  0
   -3.0473   -0.8379   -0.3360 H   0  0  0  0  0  0  0  0  0  0  0  0
   -2.9797    1.7469    1.3959 H   0  0  0  0  0  0  0  0  0  0  0  0
    0.0810    1.6112    2.0220 H   0  0  0  0  0  0  0  0  0  0  0  0
   -1.1664    3.2878    0.7670 H   0  0  0  0  0  0  0  0  0  0  0  0
   -0.0284    2.6997   -0.5679 H   0  0  0  0  0  0  0  0  0  0  0  0
   -1.6228    1.1619   -1.3238 H   0  0  0  0  0  0  0  0  0  0  0  0
   -2.5528    3.0140   -1.9019 H   0  0  0  0  0  0  0  0  0  0  0  0
    2.5298    1.4215    1.2421 H   0  0  0  0  0  0  0  0  0  0  0  0
    4.6925    1.2209    1.0530 H   0  0  0  0  0  0  0  0  0  0  0  0
    7.1020    0.9715    0.8138 H   0  0  0  0  0  0  0  0  0  0  0  0
    6.5349   -1.8664   -2.3057 H   0  0  0  0  0  0  0  0  0  0  0  0
    4.1331   -1.6299   -2.0806 H   0  0  0  0  0  0  0  0  0  0  0  0
   10.3000   -1.6363    0.4624 H   0  0  0  0  0  0  0  0  0  0  0  0
    8.7301   -1.9331    1.0317 H   0  0  0  0  0  0  0  0  0  0  0  0
   -5.9525    2.3961   -1.7326 H   0  0  0  0  0  0  0  0  0  0  0  0
  1  2  1  0
  2  3  1  0
  3  4  1  0
  4  5  1  0
  5  6  1  0
  6  7  1  0
  7  8  1  0
  8  9  1  0
  9 10  1  0
 10 11  1  0
  8 12  1  0
 12 13  1  0
 13 14  2  0
 14 15  1  0
 15 16  2  0
 14 17  1  0
 17 18  2  0
 18 19  1  0
 19 20  2  0
 20 21  1  0
 21 22  2  0
 20 23  1  0
 23 24  1  0
 23 25  2  0
 23 26  2  0
  4 27  1  0
 27 28  1  0
 27 29  2  0
 10  6  1  0
 16 12  1  0
 22 17  1  0
  1 30  1  0
  1 31  1  0
  1 32  1  0
  2 33  1  0
  2 34  1  0
  3 35  1  0
  3 36  1  0
  4 37  1  1
  5 38  1  0
  5 39  1  0
  6 40  1  1
  8 41  1  1
  9 42  1  0
  9 43  1  0
 10 44  1  6
 11 45  1  0
 13 46  1  0
 18 47  1  0
 19 48  1  0
 21 49  1  0
 22 50  1  0
 24 51  1  0
 24 52  1  0
 28 53  1  0
M  END
$$$$
[H]c1c([H])c(Cl)c(C(=O)c2c(C(C([H])([H])[H])(C([H])([H])[H])C(F)(F)F)c(C(C([H])([H])[H])(C([H])([H])[H])C([H])([H])c3c([H])c([H])c(S(=O)(=O)C([H])([H])C([H])([H])[H])c([H])c3[H])nn2-c2c([H])c([H])c(F)c([H])c2[H])c(Cl)c1[H]
     RDKit          3D

 74 77  0  0  0  0  0  0  0  0999 V2000
    9.3850   -1.7150   -0.4601 C   0  0  0  0  0  0  0  0  0  0  0  0
    7.9809   -1.2463   -0.3472 C   0  0  0  0  0  0  0  0  0  0  0  0
    7.5121   -0.0496   -1.5935 S   0  0  0  0  0  0  0  0  0  0  0  0
    7.6317   -0.7386   -2.9241 O   0  0  0  0  0  0  0  0  0  0  0  0
    8.3761    1.1595   -1.4962 O   0  0  0  0  0  0  0  0  0  0  0  0
    5.8031    0.3254   -1.2838 C   0  0  0  0  0  0  0  0  0  0  0  0
    4.8350   -0.5170   -1.7884 C   0  0  0  0  0  0  0  0  0  0  0  0
    3.5257   -0.2924   -1.5483 C   0  0  0  0  0  0  0  0  0  0  0  0
    3.0519    0.8078   -0.7678 C   0  0  0  0  0  0  0  0  0  0  0  0
    1.6904    0.9409   -0.5599 C   0  0  0  0  0  0  0  0  0  0  0  0
    0.9351    0.4049    0.6913 C   0  0  0  0  0  0  0  0  0  0  0  0
    1.5596    1.1540    1.7860 C   0  0  0  0  0  0  0  0  0  0  0  0
    1.3015   -1.0784    0.7046 C   0  0  0  0  0  0  0  0  0  0  0  0
   -0.4964    0.5915    0.3429 C   0  0  0  0  0  0  0  0  0  0  0  0
   -0.8311    0.9354   -0.9735 N   0  0  0  0  0  0  0  0  0  0  0  0
   -2.0962    0.9193   -1.1633 N   0  0  0  0  0  0  0  0  0  0  0  0
   -2.6964    0.5547    0.0394 C   0  0  0  0  0  0  0  0  0  0  0  0
   -4.1125    0.3932    0.0435 C   0  0  0  0  0  0  0  0  0  0  0  0
   -4.7832    1.4632    0.0869 O   0  0  0  0  0  0  0  0  0  0  0  0
   -4.9410   -0.8107   -0.0066 C   0  0  0  0  0  0  0  0  0  0  0  0
   -6.3185   -0.6718    0.2807 C   0  0  0  0  0  0  0  0  0  0  0  0
   -7.0191    0.8758    0.7154 Cl  0  0  0  0  0  0  0  0  0  0  0  0
   -7.1754   -1.7347    0.2384 C   0  0  0  0  0  0  0  0  0  0  0  0
   -6.7105   -2.9859   -0.0909 C   0  0  0  0  0  0  0  0  0  0  0  0
   -5.3545   -3.1316   -0.3751 C   0  0  0  0  0  0  0  0  0  0  0  0
   -4.5004   -2.0558   -0.3287 C   0  0  0  0  0  0  0  0  0  0  0  0
   -2.8240   -2.3050   -0.6620 Cl  0  0  0  0  0  0  0  0  0  0  0  0
   -1.7068    0.3584    0.9827 C   0  0  0  0  0  0  0  0  0  0  0  0
   -1.8049    0.0947    2.3976 C   0  0  0  0  0  0  0  0  0  0  0  0
   -1.0833   -1.0812    2.9800 C   0  0  0  0  0  0  0  0  0  0  0  0
   -1.3771    1.3713    3.2090 C   0  0  0  0  0  0  0  0  0  0  0  0
   -3.1507   -0.0958    3.0616 C   0  0  0  0  0  0  0  0  0  0  0  0
   -4.0339    0.8863    3.0529 F   0  0  0  0  0  0  0  0  0  0  0  0
   -2.7614   -0.0549    4.4911 F   0  0  0  0  0  0  0  0  0  0  0  0
   -3.5800   -1.4014    3.1338 F   0  0  0  0  0  0  0  0  0  0  0  0
   -2.8200    1.2316   -2.3729 C   0  0  0  0  0  0  0  0  0  0  0  0
   -2.9259    0.3991   -3.4297 C   0  0  0  0  0  0  0  0  0  0  0  0
   -3.6278    0.7614   -4.5490 C   0  0  0  0  0  0  0  0  0  0  0  0
   -4.2624    1.9788   -4.6719 C   0  0  0  0  0  0  0  0  0  0  0  0
   -4.9599    2.3466   -5.7731 F   0  0  0  0  0  0  0  0  0  0  0  0
   -4.1595    2.8404   -3.5947 C   0  0  0  0  0  0  0  0  0  0  0  0
   -3.4484    2.4718   -2.4635 C   0  0  0  0  0  0  0  0  0  0  0  0
    4.0684    1.5923   -0.3119 C   0  0  0  0  0  0  0  0  0  0  0  0
    5.4257    1.3973   -0.5387 C   0  0  0  0  0  0  0  0  0  0  0  0
    9.4138   -2.8327   -0.3039 H   0  0  0  0  0  0  0  0  0  0  0  0
    9.8674   -1.4677   -1.4356 H   0  0  0  0  0  0  0  0  0  0  0  0
   10.0004   -1.3016    0.3699 H   0  0  0  0  0  0  0  0  0  0  0  0
    7.8283   -0.7319    0.6421 H   0  0  0  0  0  0  0  0  0  0  0  0
    7.2062   -2.0338   -0.3938 H   0  0  0  0  0  0  0  0  0  0  0  0
    5.1789   -1.3599   -2.3978 H   0  0  0  0  0  0  0  0  0  0  0  0
    2.8135   -0.9664   -1.9929 H   0  0  0  0  0  0  0  0  0  0  0  0
    1.3714    2.0260   -0.7142 H   0  0  0  0  0  0  0  0  0  0  0  0
    1.1288    0.4535   -1.4396 H   0  0  0  0  0  0  0  0  0  0  0  0
    1.4456    0.7086    2.8075 H   0  0  0  0  0  0  0  0  0  0  0  0
    1.2750    2.2200    1.7359 H   0  0  0  0  0  0  0  0  0  0  0  0
    2.6902    1.2044    1.7284 H   0  0  0  0  0  0  0  0  0  0  0  0
    0.3869   -1.6158    0.3627 H   0  0  0  0  0  0  0  0  0  0  0  0
    1.6266   -1.3785    1.7425 H   0  0  0  0  0  0  0  0  0  0  0  0
    2.0686   -1.4286    0.0578 H   0  0  0  0  0  0  0  0  0  0  0  0
   -8.2372   -1.6297    0.4581 H   0  0  0  0  0  0  0  0  0  0  0  0
   -7.4194   -3.7994   -0.1156 H   0  0  0  0  0  0  0  0  0  0  0  0
   -4.9997   -4.1115   -0.6322 H   0  0  0  0  0  0  0  0  0  0  0  0
   -0.1045   -0.9113    3.4030 H   0  0  0  0  0  0  0  0  0  0  0  0
   -1.6306   -1.5632    3.8658 H   0  0  0  0  0  0  0  0  0  0  0  0
   -1.1522   -1.9373    2.2434 H   0  0  0  0  0  0  0  0  0  0  0  0
   -0.6135    1.1222    3.9232 H   0  0  0  0  0  0  0  0  0  0  0  0
   -2.2159    1.8023    3.8072 H   0  0  0  0  0  0  0  0  0  0  0  0
   -1.1955    2.1679    2.4741 H   0  0  0  0  0  0  0  0  0  0  0  0
   -2.4513   -0.5692   -3.4044 H   0  0  0  0  0  0  0  0  0  0  0  0
   -3.7030    0.0797   -5.3885 H   0  0  0  0  0  0  0  0  0  0  0  0
   -4.6594    3.8095   -3.6812 H   0  0  0  0  0  0  0  0  0  0  0  0
   -3.4170    3.2248   -1.6808 H   0  0  0  0  0  0  0  0  0  0  0  0
    3.8145    2.4656    0.2620 H   0  0  0  0  0  0  0  0  0  0  0  0
    6.1624    2.0649   -0.1428 H   0  0  0  0  0  0  0  0  0  0  0  0
  1  2  1  0
  2  3  1  0
  3  4  2  0
  3  5  2  0
  3  6  1  0
  6  7  2  0
  7  8  1  0
  8  9  2  0
  9 10  1  0
 10 11  1  0
 11 12  1  0
 11 13  1  0
 11 14  1  0
 14 15  2  0
 15 16  1  0
 16 17  1  0
 17 18  1  0
 18 19  2  0
 18 20  1  0
 20 21  2  0
 21 22  1  0
 21 23  1  0
 23 24  2  0
 24 25  1  0
 25 26  2  0
 26 27  1  0
 17 28  2  0
 28 29  1  0
 29 30  1  0
 29 31  1  0
 29 32  1  0
 32 33  1  0
 32 34  1  0
 32 35  1  0
 16 36  1  0
 36 37  2  0
 37 38  1  0
 38 39  2  0
 39 40  1  0
 39 41  1  0
 41 42  2  0
  9 43  1  0
 43 44  2  0
 44  6  1  0
 28 14  1  0
 42 36  1  0
 26 20  1  0
  1 45  1  0
  1 46  1  0
  1 47  1  0
  2 48  1  0
  2 49  1  0
  7 50  1  0
  8 51  1  0
 10 52  1  0
 10 53  1  0
 12 54  1  0
 12 55  1  0
 12 56  1  0
 13 57  1  0
 13 58  1  0
 13 59  1  0
 23 60  1  0
 24 61  1  0
 25 62  1  0
 30 63  1  0
 30 64  1  0
 30 65  1  0
 31 66  1  0
 31 67  1  0
 31 68  1  0
 37 69  1  0
 38 70  1  0
 41 71  1  0
 42 72  1  0
 43 73  1  0
 44 74  1  0
M  END
$$$$
[H]c1nc(N([H])C([H])([H])c2c([H])c(C(F)(F)F)c([H])c(C(F)(F)F)c2[H])nc(-n2c([H])nc([H])c2[H])c1[H]
     RDKit          3D

 38 40  0  0  0  0  0  0  0  0999 V2000
   -4.3570   -2.5430   -1.5292 F   0  0  0  0  0  0  0  0  0  0  0  0
   -4.6453   -1.1923   -1.4363 C   0  0  0  0  0  0  0  0  0  0  0  0
   -4.2394   -0.5361   -2.5977 F   0  0  0  0  0  0  0  0  0  0  0  0
   -6.0253   -0.9570   -1.3594 F   0  0  0  0  0  0  0  0  0  0  0  0
   -3.9900   -0.5643   -0.2602 C   0  0  0  0  0  0  0  0  0  0  0  0
   -2.6099   -0.5555   -0.1862 C   0  0  0  0  0  0  0  0  0  0  0  0
   -1.9291    0.0240    0.8692 C   0  0  0  0  0  0  0  0  0  0  0  0
   -0.4113    0.0288    0.8720 C   0  0  0  0  0  0  0  0  0  0  0  0
    0.0442    0.3331   -0.4573 N   0  0  0  0  0  0  0  0  0  0  0  0
    1.3648    0.3382   -0.9060 C   0  0  0  0  0  0  0  0  0  0  0  0
    1.6270    0.6656   -2.2054 N   0  0  0  0  0  0  0  0  0  0  0  0
    2.8184    0.6909   -2.7782 C   0  0  0  0  0  0  0  0  0  0  0  0
    3.9371    0.3541   -2.0071 C   0  0  0  0  0  0  0  0  0  0  0  0
    3.6966    0.0191   -0.6874 C   0  0  0  0  0  0  0  0  0  0  0  0
    2.4570    0.0161   -0.1705 N   0  0  0  0  0  0  0  0  0  0  0  0
    4.8482   -0.3748    0.0660 N   0  0  0  0  0  0  0  0  0  0  0  0
    5.8294    0.3656    0.5738 C   0  0  0  0  0  0  0  0  0  0  0  0
    6.7113   -0.4854    1.2068 C   0  0  0  0  0  0  0  0  0  0  0  0
    6.2258   -1.7229    1.0575 N   0  0  0  0  0  0  0  0  0  0  0  0
    5.0911   -1.6750    0.3668 C   0  0  0  0  0  0  0  0  0  0  0  0
   -2.6579    0.6101    1.8705 C   0  0  0  0  0  0  0  0  0  0  0  0
   -4.0445    0.6366    1.8509 C   0  0  0  0  0  0  0  0  0  0  0  0
   -4.6566    0.0413    0.7706 C   0  0  0  0  0  0  0  0  0  0  0  0
   -4.8347    1.2900    2.9309 C   0  0  0  0  0  0  0  0  0  0  0  0
   -4.0456    2.1304    3.6727 F   0  0  0  0  0  0  0  0  0  0  0  0
   -5.8298    2.0812    2.3401 F   0  0  0  0  0  0  0  0  0  0  0  0
   -5.4846    0.3692    3.7407 F   0  0  0  0  0  0  0  0  0  0  0  0
   -2.0241   -1.0159   -0.9746 H   0  0  0  0  0  0  0  0  0  0  0  0
   -0.0363   -0.9838    1.1774 H   0  0  0  0  0  0  0  0  0  0  0  0
   -0.0741    0.8147    1.5811 H   0  0  0  0  0  0  0  0  0  0  0  0
   -0.7162    0.5558   -1.1510 H   0  0  0  0  0  0  0  0  0  0  0  0
    3.0041    0.9601   -3.8084 H   0  0  0  0  0  0  0  0  0  0  0  0
    4.9367    0.3332   -2.4086 H   0  0  0  0  0  0  0  0  0  0  0  0
    5.9064    1.4326    0.5046 H   0  0  0  0  0  0  0  0  0  0  0  0
    7.6146   -0.1680    1.7335 H   0  0  0  0  0  0  0  0  0  0  0  0
    4.4365   -2.4708    0.0649 H   0  0  0  0  0  0  0  0  0  0  0  0
   -2.1869    1.0794    2.7275 H   0  0  0  0  0  0  0  0  0  0  0  0
   -5.7508    0.0747    0.7449 H   0  0  0  0  0  0  0  0  0  0  0  0
  1  2  1  0
  2  3  1  0
  2  4  1  0
  2  5  1  0
  5  6  2  0
  6  7  1  0
  7  8  1  0
  8  9  1  0
  9 10  1  0
 10 11  2  0
 11 12  1  0
 12 13  2  0
 13 14  1  0
 14 15  2  0
 14 16  1  0
 16 17  1  0
 17 18  2  0
 18 19  1  0
 19 20  2  0
  7 21  2  0
 21 22  1  0
 22 23  2  0
 22 24  1  0
 24 25  1  0
 24 26  1  0
 24 27  1  0
 23  5  1  0
 15 10  1  0
 20 16  1  0
  6 28  1  0
  8 29  1  0
  8 30  1  0
  9 31  1  0
 12 32  1  0
 13 33  1  0
 17 34  1  0
 18 35  1  0
 20 36  1  0
 21 37  1  0
 23 38  1  0
M  END
$$$$
[H]OC([H])([H])C([H])(c1c([H])c([H])c([H])c([H])c1[H])n1nc([H])c(-c2noc(-c3c([H])c([H])c([H])c([H])c3OC([H])([H])[H])c2[H])c1[H]
     RDKit          3D

 46 49  0  0  0  0  0  0  0  0999 V2000
    5.0204    4.1142   -1.0315 C   0  0  0  0  0  0  0  0  0  0  0  0
    4.2992    2.9394   -0.7127 O   0  0  0  0  0  0  0  0  0  0  0  0
    5.0214    1.7522   -0.6099 C   0  0  0  0  0  0  0  0  0  0  0  0
    6.3997    1.7063   -0.8101 C   0  0  0  0  0  0  0  0  0  0  0  0
    7.0763    0.5093   -0.6987 C   0  0  0  0  0  0  0  0  0  0  0  0
    6.3685   -0.6222   -0.3896 C   0  0  0  0  0  0  0  0  0  0  0  0
    5.0047   -0.5582   -0.1948 C   0  0  0  0  0  0  0  0  0  0  0  0
    4.2976    0.6215   -0.2985 C   0  0  0  0  0  0  0  0  0  0  0  0
    2.8551    0.6765   -0.0903 C   0  0  0  0  0  0  0  0  0  0  0  0
    2.0591   -0.4171    0.2253 C   0  0  0  0  0  0  0  0  0  0  0  0
    0.7561    0.0187    0.3445 C   0  0  0  0  0  0  0  0  0  0  0  0
    0.8092    1.3399    0.1007 N   0  0  0  0  0  0  0  0  0  0  0  0
    2.0553    1.6885   -0.1500 O   0  0  0  0  0  0  0  0  0  0  0  0
   -0.4310   -0.8014    0.6704 C   0  0  0  0  0  0  0  0  0  0  0  0
   -0.3835   -2.1567    0.9052 C   0  0  0  0  0  0  0  0  0  0  0  0
   -1.6229   -2.5704    1.1664 N   0  0  0  0  0  0  0  0  0  0  0  0
   -2.4356   -1.5129    1.1005 N   0  0  0  0  0  0  0  0  0  0  0  0
   -1.7231   -0.4218    0.7980 C   0  0  0  0  0  0  0  0  0  0  0  0
   -3.8463   -1.5482    1.3200 C   0  0  0  0  0  0  0  0  0  0  0  0
   -4.1463   -0.6815    2.5329 C   0  0  0  0  0  0  0  0  0  0  0  0
   -3.4417   -1.2403    3.5993 O   0  0  0  0  0  0  0  0  0  0  0  0
   -4.6161   -1.1113    0.1237 C   0  0  0  0  0  0  0  0  0  0  0  0
   -4.9574    0.2093   -0.0710 C   0  0  0  0  0  0  0  0  0  0  0  0
   -5.6802    0.5930   -1.2022 C   0  0  0  0  0  0  0  0  0  0  0  0
   -6.0286   -0.3973   -2.0975 C   0  0  0  0  0  0  0  0  0  0  0  0
   -5.6882   -1.7211   -1.9052 C   0  0  0  0  0  0  0  0  0  0  0  0
   -4.9747   -2.0923   -0.7863 C   0  0  0  0  0  0  0  0  0  0  0  0
    4.4014    5.0243   -0.9409 H   0  0  0  0  0  0  0  0  0  0  0  0
    5.4934    4.0024   -2.0144 H   0  0  0  0  0  0  0  0  0  0  0  0
    5.8506    4.2145   -0.2854 H   0  0  0  0  0  0  0  0  0  0  0  0
    6.8923    2.6278   -1.0491 H   0  0  0  0  0  0  0  0  0  0  0  0
    8.1485    0.5179   -0.8623 H   0  0  0  0  0  0  0  0  0  0  0  0
    6.8669   -1.5737   -0.2951 H   0  0  0  0  0  0  0  0  0  0  0  0
    4.4292   -1.4602    0.0533 H   0  0  0  0  0  0  0  0  0  0  0  0
    2.4048   -1.4392    0.3556 H   0  0  0  0  0  0  0  0  0  0  0  0
    0.5293   -2.7574    0.8744 H   0  0  0  0  0  0  0  0  0  0  0  0
   -2.1204    0.5613    0.6826 H   0  0  0  0  0  0  0  0  0  0  0  0
   -4.2011   -2.5748    1.5942 H   0  0  0  0  0  0  0  0  0  0  0  0
   -3.7066    0.3299    2.3172 H   0  0  0  0  0  0  0  0  0  0  0  0
   -5.2029   -0.6515    2.7943 H   0  0  0  0  0  0  0  0  0  0  0  0
   -3.9732   -1.9920    4.0032 H   0  0  0  0  0  0  0  0  0  0  0  0
   -4.6752    0.9782    0.6441 H   0  0  0  0  0  0  0  0  0  0  0  0
   -5.9429    1.6297   -1.3462 H   0  0  0  0  0  0  0  0  0  0  0  0
   -6.5864   -0.1233   -2.9770 H   0  0  0  0  0  0  0  0  0  0  0  0
   -5.9695   -2.4931   -2.6198 H   0  0  0  0  0  0  0  0  0  0  0  0
   -4.6850   -3.1371   -0.5982 H   0  0  0  0  0  0  0  0  0  0  0  0
  1  2  1  0
  2  3  1  0
  3  4  2  0
  4  5  1  0
  5  6  2  0
  6  7  1  0
  7  8  2  0
  8  9  1  0
  9 10  2  0
 10 11  1  0
 11 12  2  0
 12 13  1  0
 11 14  1  0
 14 15  1  0
 15 16  2  0
 16 17  1  0
 17 18  1  0
 17 19  1  0
 19 20  1  0
 20 21  1  0
 19 22  1  0
 22 23  2  0
 23 24  1  0
 24 25  2  0
 25 26  1  0
 26 27  2  0
  8  3  1  0
 13  9  1  0
 18 14  2  0
 27 22  1  0
  1 28  1  0
  1 29  1  0
  1 30  1  0
  4 31  1  0
  5 32  1  0
  6 33  1  0
  7 34  1  0
 10 35  1  0
 15 36  1  0
 18 37  1  0
 19 38  1  0
 20 39  1  0
 20 40  1  0
 21 41  1  0
 23 42  1  0
 24 43  1  0
 25 44  1  0
 26 45  1  0
 27 46  1  0
M  END
$$$$
[H]c1nc(C([H])([H])[H])n(-c2nc3nc(N([H])c4c([H])c(N([H])C5([H])C([H])([H])N([H])C([H])([H])C([H])([H])C5([H])[H])nn4[H])nc([H])c3c([H])c2[H])c1[H]
     RDKit          3D

 51 55  0  0  0  0  0  0  0  0999 V2000
    7.8912    0.0900   -1.5315 C   0  0  0  0  0  0  0  0  0  0  0  0
    7.8251    0.7079   -0.1675 C   0  0  0  0  0  0  0  0  0  0  0  0
    8.7759    1.5405    0.2929 N   0  0  0  0  0  0  0  0  0  0  0  0
    8.4296    1.9186    1.5328 C   0  0  0  0  0  0  0  0  0  0  0  0
    7.2416    1.2915    1.8114 C   0  0  0  0  0  0  0  0  0  0  0  0
    6.8574    0.5320    0.7516 N   0  0  0  0  0  0  0  0  0  0  0  0
    5.6901   -0.2723    0.6367 C   0  0  0  0  0  0  0  0  0  0  0  0
    5.8212   -1.6316    0.4483 C   0  0  0  0  0  0  0  0  0  0  0  0
    4.7098   -2.4574    0.3305 C   0  0  0  0  0  0  0  0  0  0  0  0
    3.4516   -1.9089    0.4031 C   0  0  0  0  0  0  0  0  0  0  0  0
    2.2987   -2.6848    0.2920 C   0  0  0  0  0  0  0  0  0  0  0  0
    1.1202   -2.0549    0.3760 N   0  0  0  0  0  0  0  0  0  0  0  0
    0.9491   -0.7402    0.5580 C   0  0  0  0  0  0  0  0  0  0  0  0
   -0.3002   -0.0776    0.6464 N   0  0  0  0  0  0  0  0  0  0  0  0
   -1.5456   -0.7006    0.5563 C   0  0  0  0  0  0  0  0  0  0  0  0
   -2.7766   -0.0264    0.6463 C   0  0  0  0  0  0  0  0  0  0  0  0
   -3.7750   -0.9541    0.5146 C   0  0  0  0  0  0  0  0  0  0  0  0
   -5.1807   -0.6531    0.5505 N   0  0  0  0  0  0  0  0  0  0  0  0
   -5.6388    0.7044    0.7210 C   0  0  0  0  0  0  0  0  0  0  0  0
   -5.1814    1.5242   -0.4367 C   0  0  0  0  0  0  0  0  0  0  0  0
   -6.3166    2.1145   -1.2385 C   0  0  0  0  0  0  0  0  0  0  0  0
   -7.4677    1.1958   -1.4494 C   0  0  0  0  0  0  0  0  0  0  0  0
   -7.6059    0.1494   -0.4887 N   0  0  0  0  0  0  0  0  0  0  0  0
   -7.1709    0.6364    0.7960 C   0  0  0  0  0  0  0  0  0  0  0  0
   -3.1864   -2.1346    0.3525 N   0  0  0  0  0  0  0  0  0  0  0  0
   -1.8759   -1.9636    0.3801 N   0  0  0  0  0  0  0  0  0  0  0  0
    2.1088   -0.0188    0.6615 N   0  0  0  0  0  0  0  0  0  0  0  0
    3.3329   -0.5538    0.5908 C   0  0  0  0  0  0  0  0  0  0  0  0
    4.4490    0.2317    0.7030 N   0  0  0  0  0  0  0  0  0  0  0  0
    6.9971   -0.4957   -1.7596 H   0  0  0  0  0  0  0  0  0  0  0  0
    8.0694    0.9354   -2.2344 H   0  0  0  0  0  0  0  0  0  0  0  0
    8.8182   -0.5300   -1.5439 H   0  0  0  0  0  0  0  0  0  0  0  0
    9.0194    2.6002    2.1593 H   0  0  0  0  0  0  0  0  0  0  0  0
    6.7098    1.4020    2.7443 H   0  0  0  0  0  0  0  0  0  0  0  0
    6.8140   -2.0364    0.3950 H   0  0  0  0  0  0  0  0  0  0  0  0
    4.7974   -3.5260    0.1825 H   0  0  0  0  0  0  0  0  0  0  0  0
    2.3859   -3.7545    0.1438 H   0  0  0  0  0  0  0  0  0  0  0  0
   -0.2516    0.9836    0.7938 H   0  0  0  0  0  0  0  0  0  0  0  0
   -2.8644    1.0320    0.7943 H   0  0  0  0  0  0  0  0  0  0  0  0
   -5.8174   -1.4718    0.4462 H   0  0  0  0  0  0  0  0  0  0  0  0
   -5.3027    1.1289    1.7005 H   0  0  0  0  0  0  0  0  0  0  0  0
   -4.4735    1.0249   -1.1203 H   0  0  0  0  0  0  0  0  0  0  0  0
   -4.6300    2.4193   -0.0215 H   0  0  0  0  0  0  0  0  0  0  0  0
   -6.6380    3.1095   -0.8319 H   0  0  0  0  0  0  0  0  0  0  0  0
   -5.8946    2.3576   -2.2549 H   0  0  0  0  0  0  0  0  0  0  0  0
   -8.4151    1.8102   -1.4281 H   0  0  0  0  0  0  0  0  0  0  0  0
   -7.4784    0.7258   -2.4704 H   0  0  0  0  0  0  0  0  0  0  0  0
   -8.5613   -0.2237   -0.5075 H   0  0  0  0  0  0  0  0  0  0  0  0
   -7.5923    1.6263    1.0435 H   0  0  0  0  0  0  0  0  0  0  0  0
   -7.3932   -0.1418    1.5454 H   0  0  0  0  0  0  0  0  0  0  0  0
   -1.2290   -2.7795    0.2687 H   0  0  0  0  0  0  0  0  0  0  0  0
  1  2  1  0
  2  3  2  0
  3  4  1  0
  4  5  2  0
  5  6  1  0
  6  7  1  0
  7  8  2  0
  8  9  1  0
  9 10  2  0
 10 11  1  0
 11 12  2  0
 12 13  1  0
 13 14  1  0
 14 15  1  0
 15 16  2  0
 16 17  1  0
 17 18  1  0
 18 19  1  0
 19 20  1  0
 20 21  1  0
 21 22  1  0
 22 23  1  0
 23 24  1  0
 17 25  2  0
 25 26  1  0
 13 27  2  0
 27 28  1  0
 28 29  2  0
  6  2  1  0
 29  7  1  0
 28 10  1  0
 26 15  1  0
 24 19  1  0
  1 30  1  0
  1 31  1  0
  1 32  1  0
  4 33  1  0
  5 34  1  0
  8 35  1  0
  9 36  1  0
 11 37  1  0
 14 38  1  0
 16 39  1  0
 18 40  1  0
 19 41  1  0
 20 42  1  0
 20 43  1  0
 21 44  1  0
 21 45  1  0
 22 46  1  0
 22 47  1  0
 23 48  1  0
 24 49  1  0
 24 50  1  0
 26 51  1  0
M  END
$$$$
[H]C([H])=C([H])C(=O)N([H])c1c([H])c([H])c([H])c(-c2c([H])n([H])c3nc([H])c(-c4nc([H])c(C([H])([H])[H])n4[H])c([H])c23)c1Cl
     RDKit          3D

 43 46  0  0  0  0  0  0  0  0999 V2000
   -4.9440   -0.2643   -3.5512 C   0  0  0  0  0  0  0  0  0  0  0  0
   -4.8207   -0.4122   -2.0831 C   0  0  0  0  0  0  0  0  0  0  0  0
   -5.9158   -0.4501   -1.2074 C   0  0  0  0  0  0  0  0  0  0  0  0
   -5.3881   -0.5621    0.0381 N   0  0  0  0  0  0  0  0  0  0  0  0
   -4.0390   -0.5949   -0.0327 C   0  0  0  0  0  0  0  0  0  0  0  0
   -3.7201   -0.5033   -1.3312 N   0  0  0  0  0  0  0  0  0  0  0  0
   -3.1413   -0.6891    1.1081 C   0  0  0  0  0  0  0  0  0  0  0  0
   -3.5530   -0.7620    2.4123 C   0  0  0  0  0  0  0  0  0  0  0  0
   -2.6929   -0.8229    3.4731 N   0  0  0  0  0  0  0  0  0  0  0  0
   -1.3536   -0.8122    3.2557 C   0  0  0  0  0  0  0  0  0  0  0  0
   -0.2626   -0.8370    4.0479 N   0  0  0  0  0  0  0  0  0  0  0  0
    0.8433   -0.7838    3.2739 C   0  0  0  0  0  0  0  0  0  0  0  0
    0.4901   -0.7226    1.9508 C   0  0  0  0  0  0  0  0  0  0  0  0
    1.3153   -0.6771    0.7563 C   0  0  0  0  0  0  0  0  0  0  0  0
    1.0881   -1.6022   -0.2656 C   0  0  0  0  0  0  0  0  0  0  0  0
    1.8721   -1.5819   -1.3939 C   0  0  0  0  0  0  0  0  0  0  0  0
    2.9001   -0.6408   -1.5344 C   0  0  0  0  0  0  0  0  0  0  0  0
    3.1474    0.2680   -0.5663 C   0  0  0  0  0  0  0  0  0  0  0  0
    4.1489    1.2931   -0.6163 N   0  0  0  0  0  0  0  0  0  0  0  0
    5.0988    1.5133   -1.6019 C   0  0  0  0  0  0  0  0  0  0  0  0
    5.1833    0.7826   -2.6070 O   0  0  0  0  0  0  0  0  0  0  0  0
    6.0334    2.6316   -1.4753 C   0  0  0  0  0  0  0  0  0  0  0  0
    6.0762    3.4927   -0.5023 C   0  0  0  0  0  0  0  0  0  0  0  0
    2.3340    0.2209    0.5680 C   0  0  0  0  0  0  0  0  0  0  0  0
    2.5607    1.3641    1.9077 Cl  0  0  0  0  0  0  0  0  0  0  0  0
   -0.8906   -0.7408    1.9517 C   0  0  0  0  0  0  0  0  0  0  0  0
   -1.7623   -0.6796    0.8846 C   0  0  0  0  0  0  0  0  0  0  0  0
   -4.1388   -0.7033   -4.1371 H   0  0  0  0  0  0  0  0  0  0  0  0
   -5.9278   -0.7292   -3.8433 H   0  0  0  0  0  0  0  0  0  0  0  0
   -5.0405    0.8360   -3.7485 H   0  0  0  0  0  0  0  0  0  0  0  0
   -6.9499   -0.3969   -1.5216 H   0  0  0  0  0  0  0  0  0  0  0  0
   -2.7303   -0.5067   -1.6925 H   0  0  0  0  0  0  0  0  0  0  0  0
   -4.6107   -0.7681    2.6162 H   0  0  0  0  0  0  0  0  0  0  0  0
   -0.3048   -0.8875    5.0855 H   0  0  0  0  0  0  0  0  0  0  0  0
    1.8810   -0.7880    3.6435 H   0  0  0  0  0  0  0  0  0  0  0  0
    0.2890   -2.3371   -0.1600 H   0  0  0  0  0  0  0  0  0  0  0  0
    1.7129   -2.2942   -2.2025 H   0  0  0  0  0  0  0  0  0  0  0  0
    3.4596   -0.6912   -2.4384 H   0  0  0  0  0  0  0  0  0  0  0  0
    4.1474    1.9671    0.2048 H   0  0  0  0  0  0  0  0  0  0  0  0
    6.7660    2.7206   -2.3140 H   0  0  0  0  0  0  0  0  0  0  0  0
    5.4192    3.4852    0.3404 H   0  0  0  0  0  0  0  0  0  0  0  0
    6.8323    4.2919   -0.5318 H   0  0  0  0  0  0  0  0  0  0  0  0
   -1.4121   -0.6260   -0.1331 H   0  0  0  0  0  0  0  0  0  0  0  0
  1  2  1  0
  2  3  2  0
  3  4  1  0
  4  5  2  0
  5  6  1  0
  5  7  1  0
  7  8  2  0
  8  9  1  0
  9 10  2  0
 10 11  1  0
 11 12  1  0
 12 13  2  0
 13 14  1  0
 14 15  2  0
 15 16  1  0
 16 17  2  0
 17 18  1  0
 18 19  1  0
 19 20  1  0
 20 21  2  0
 20 22  1  0
 22 23  2  3
 18 24  2  0
 24 25  1  0
 13 26  1  0
 26 27  2  0
  6  2  1  0
 27  7  1  0
 26 10  1  0
 24 14  1  0
  1 28  1  0
  1 29  1  0
  1 30  1  0
  3 31  1  0
  6 32  1  0
  8 33  1  0
 11 34  1  0
 12 35  1  0
 15 36  1  0
 16 37  1  0
 17 38  1  0
 19 39  1  0
 22 40  1  0
 23 41  1  0
 23 42  1  0
 27 43  1  0
M  END
$$$$
[H]c1c([H])c(C([H])([H])[C@]([H])(N([H])C(=O)[C@@]([H])(N([H])C(=O)c2c([H])c([H])c(-c3c([H])c(C(F)(F)F)c([H])c(C4(C#N)C([H])([H])C4([H])[H])c3[H])c([H])c2[H])C([H])([H])C([H])(C([H])([H])[H])C([H])([H])[H])C(C([H])([H])[H])(C([H])([H])[H])C([H])([H])[H])c(F)c([H])c1C#N
     RDKit          3D

 85 88  0  0  0  0  0  0  0  0999 V2000
   -0.0458   -3.8038   -0.2367 C   0  0  0  0  0  0  0  0  0  0  0  0
   -1.2874   -3.4669   -0.9260 C   0  0  0  0  0  0  0  0  0  0  0  0
   -2.4136   -4.3626   -0.3753 C   0  0  0  0  0  0  0  0  0  0  0  0
   -1.6877   -2.2173   -1.4890 C   0  0  0  0  0  0  0  0  0  0  0  0
   -1.7580   -0.9114   -0.7564 C   0  0  2  0  0  0  0  0  0  0  0  0
   -0.4558   -0.5339   -0.2544 N   0  0  0  0  0  0  0  0  0  0  0  0
    0.2945    0.4933   -0.9928 C   0  0  0  0  0  0  0  0  0  0  0  0
   -0.2528    1.0399   -1.9758 O   0  0  0  0  0  0  0  0  0  0  0  0
    1.6364    0.8741   -0.6247 C   0  0  0  0  0  0  0  0  0  0  0  0
    2.1645    0.6626    0.6222 C   0  0  0  0  0  0  0  0  0  0  0  0
    3.5056    0.9563    0.8551 C   0  0  0  0  0  0  0  0  0  0  0  0
    4.3567    1.4478   -0.0804 C   0  0  0  0  0  0  0  0  0  0  0  0
    3.8086    1.6649   -1.3469 C   0  0  0  0  0  0  0  0  0  0  0  0
    2.5002    1.3891   -1.6099 C   0  0  0  0  0  0  0  0  0  0  0  0
    5.7990    1.6665    0.0907 C   0  0  0  0  0  0  0  0  0  0  0  0
    6.5076    2.6460   -0.5664 C   0  0  0  0  0  0  0  0  0  0  0  0
    7.8808    2.6938   -0.3901 C   0  0  0  0  0  0  0  0  0  0  0  0
    8.5586    1.8061    0.4139 C   0  0  0  0  0  0  0  0  0  0  0  0
    7.8293    0.8374    1.0670 C   0  0  0  0  0  0  0  0  0  0  0  0
    6.4622    0.7600    0.9109 C   0  0  0  0  0  0  0  0  0  0  0  0
    8.5959   -0.0818    1.9454 C   0  0  0  0  0  0  0  0  0  0  0  0
    9.6400   -1.0233    1.2786 C   0  0  0  0  0  0  0  0  0  0  0  0
    8.3884   -1.5351    1.9580 C   0  0  0  0  0  0  0  0  0  0  0  0
    9.0460    0.5713    3.1829 C   0  0  0  0  0  0  0  0  0  0  0  0
    9.4154    1.0622    4.1554 N   0  0  0  0  0  0  0  0  0  0  0  0
    8.6821    3.7286   -1.1253 C   0  0  0  0  0  0  0  0  0  0  0  0
    8.1441    3.9108   -2.3868 F   0  0  0  0  0  0  0  0  0  0  0  0
    9.9944    3.2635   -1.2225 F   0  0  0  0  0  0  0  0  0  0  0  0
    8.6927    4.9300   -0.4737 F   0  0  0  0  0  0  0  0  0  0  0  0
   -2.9194   -0.6978    0.0958 C   0  0  0  0  0  0  0  0  0  0  0  0
   -2.8045   -0.4736    1.3004 O   0  0  0  0  0  0  0  0  0  0  0  0
   -4.2152   -0.7454   -0.4796 N   0  0  0  0  0  0  0  0  0  0  0  0
   -5.4763   -0.5809    0.1330 C   0  0  1  0  0  0  0  0  0  0  0  0
   -6.1446    0.7011   -0.2439 C   0  0  0  0  0  0  0  0  0  0  0  0
   -5.5085    1.9449    0.1429 C   0  0  0  0  0  0  0  0  0  0  0  0
   -4.7781    2.7153   -0.7076 C   0  0  0  0  0  0  0  0  0  0  0  0
   -4.1833    3.9045   -0.3320 C   0  0  0  0  0  0  0  0  0  0  0  0
   -4.3119    4.3693    0.9613 C   0  0  0  0  0  0  0  0  0  0  0  0
   -5.0559    3.5974    1.8485 C   0  0  0  0  0  0  0  0  0  0  0  0
   -5.6338    2.4147    1.4309 C   0  0  0  0  0  0  0  0  0  0  0  0
   -6.3540    1.6549    2.3074 F   0  0  0  0  0  0  0  0  0  0  0  0
   -3.7271    5.6327    1.3944 C   0  0  0  0  0  0  0  0  0  0  0  0
   -3.2877    6.6408    1.7462 N   0  0  0  0  0  0  0  0  0  0  0  0
   -6.4581   -1.7289   -0.1212 C   0  0  0  0  0  0  0  0  0  0  0  0
   -5.8508   -3.0267    0.4158 C   0  0  0  0  0  0  0  0  0  0  0  0
   -7.6895   -1.4866    0.7075 C   0  0  0  0  0  0  0  0  0  0  0  0
   -6.8100   -1.8131   -1.5546 C   0  0  0  0  0  0  0  0  0  0  0  0
   -0.2865   -4.5253    0.6504 H   0  0  0  0  0  0  0  0  0  0  0  0
    0.6489   -3.0319    0.0902 H   0  0  0  0  0  0  0  0  0  0  0  0
    0.6102   -4.5124   -0.8406 H   0  0  0  0  0  0  0  0  0  0  0  0
   -1.1325   -4.1225   -1.9621 H   0  0  0  0  0  0  0  0  0  0  0  0
   -3.1687   -4.5810   -1.1619 H   0  0  0  0  0  0  0  0  0  0  0  0
   -2.8792   -3.9858    0.5349 H   0  0  0  0  0  0  0  0  0  0  0  0
   -1.9831   -5.3812   -0.1263 H   0  0  0  0  0  0  0  0  0  0  0  0
   -2.7951   -2.3706   -1.8208 H   0  0  0  0  0  0  0  0  0  0  0  0
   -1.2144   -1.9911   -2.4989 H   0  0  0  0  0  0  0  0  0  0  0  0
   -1.9423   -0.1613   -1.6200 H   0  0  0  0  0  0  0  0  0  0  0  0
   -0.0409   -0.9229    0.5703 H   0  0  0  0  0  0  0  0  0  0  0  0
    1.5807    0.2824    1.4345 H   0  0  0  0  0  0  0  0  0  0  0  0
    3.8957    0.7806    1.8709 H   0  0  0  0  0  0  0  0  0  0  0  0
    4.4702    2.0661   -2.1241 H   0  0  0  0  0  0  0  0  0  0  0  0
    2.0537    1.5642   -2.6011 H   0  0  0  0  0  0  0  0  0  0  0  0
    5.9901    3.3444   -1.1878 H   0  0  0  0  0  0  0  0  0  0  0  0
    9.6552    1.9051    0.5052 H   0  0  0  0  0  0  0  0  0  0  0  0
    5.9204   -0.0027    1.4207 H   0  0  0  0  0  0  0  0  0  0  0  0
    9.6507   -1.0785    0.1688 H   0  0  0  0  0  0  0  0  0  0  0  0
   10.5531   -1.1790    1.8707 H   0  0  0  0  0  0  0  0  0  0  0  0
    7.6022   -1.9516    1.3047 H   0  0  0  0  0  0  0  0  0  0  0  0
    8.4996   -2.0182    2.9798 H   0  0  0  0  0  0  0  0  0  0  0  0
   -4.2117   -0.9532   -1.5488 H   0  0  0  0  0  0  0  0  0  0  0  0
   -5.3316   -0.5919    1.2813 H   0  0  0  0  0  0  0  0  0  0  0  0
   -7.2003    0.6424    0.2056 H   0  0  0  0  0  0  0  0  0  0  0  0
   -6.3517    0.6937   -1.3710 H   0  0  0  0  0  0  0  0  0  0  0  0
   -4.6454    2.3975   -1.7383 H   0  0  0  0  0  0  0  0  0  0  0  0
   -3.6082    4.5095   -1.0431 H   0  0  0  0  0  0  0  0  0  0  0  0
   -5.1600    3.9497    2.8577 H   0  0  0  0  0  0  0  0  0  0  0  0
   -4.9286   -2.8196    1.0416 H   0  0  0  0  0  0  0  0  0  0  0  0
   -5.6217   -3.7461   -0.4213 H   0  0  0  0  0  0  0  0  0  0  0  0
   -6.5455   -3.5702    1.0871 H   0  0  0  0  0  0  0  0  0  0  0  0
   -7.4183   -1.0957    1.7266 H   0  0  0  0  0  0  0  0  0  0  0  0
   -8.4941   -0.9615    0.2264 H   0  0  0  0  0  0  0  0  0  0  0  0
   -8.0981   -2.5257    0.9328 H   0  0  0  0  0  0  0  0  0  0  0  0
   -7.9124   -1.5836   -1.7483 H   0  0  0  0  0  0  0  0  0  0  0  0
   -6.6823   -2.8549   -1.9781 H   0  0  0  0  0  0  0  0  0  0  0  0
   -6.2719   -1.1079   -2.2172 H   0  0  0  0  0  0  0  0  0  0  0  0
  1  2  1  0
  2  3  1  0
  2  4  1  0
  4  5  1  0
  5  6  1  0
  6  7  1  0
  7  8  2  0
  7  9  1  0
  9 10  2  0
 10 11  1  0
 11 12  2  0
 12 13  1  0
 13 14  2  0
 12 15  1  0
 15 16  2  0
 16 17  1  0
 17 18  2  0
 18 19  1  0
 19 20  2  0
 19 21  1  0
 21 22  1  0
 22 23  1  0
 21 24  1  0
 24 25  3  0
 17 26  1  0
 26 27  1  0
 26 28  1  0
 26 29  1  0
  5 30  1  0
 30 31  2  0
 30 32  1  0
 32 33  1  0
 33 34  1  0
 34 35  1  0
 35 36  2  0
 36 37  1  0
 37 38  2  0
 38 39  1  0
 39 40  2  0
 40 41  1  0
 38 42  1  0
 42 43  3  0
 33 44  1  0
 44 45  1  0
 44 46  1  0
 44 47  1  0
 14  9  1  0
 20 15  1  0
 23 21  1  0
 40 35  1  0
  1 48  1  0
  1 49  1  0
  1 50  1  0
  2 51  1  0
  3 52  1  0
  3 53  1  0
  3 54  1  0
  4 55  1  0
  4 56  1  0
  5 57  1  6
  6 58  1  0
 10 59  1  0
 11 60  1  0
 13 61  1  0
 14 62  1  0
 16 63  1  0
 18 64  1  0
 20 65  1  0
 22 66  1  0
 22 67  1  0
 23 68  1  0
 23 69  1  0
 32 70  1  0
 33 71  1  1
 34 72  1  0
 34 73  1  0
 36 74  1  0
 37 75  1  0
 39 76  1  0
 45 77  1  0
 45 78  1  0
 45 79  1  0
 46 80  1  0
 46 81  1  0
 46 82  1  0
 47 83  1  0
 47 84  1  0
 47 85  1  0
M  END
$$$$
[H]SC([H])([H])C([H])([H])C([H])(C(=O)N([H])c1c(OC([H])([H])[H])c([H])c([H])c2c([H])c([H])c([H])c([H])c12)N([H])C(=O)C([H])([H])c1c([H])c([H])c([H])c([H])c1[H]
     RDKit          3D

 53 55  0  0  0  0  0  0  0  0999 V2000
   -3.4777    0.8614    3.6887 C   0  0  0  0  0  0  0  0  0  0  0  0
   -3.0204    0.8988    2.3746 O   0  0  0  0  0  0  0  0  0  0  0  0
   -3.5214    0.1841    1.3258 C   0  0  0  0  0  0  0  0  0  0  0  0
   -4.5970   -0.6630    1.6178 C   0  0  0  0  0  0  0  0  0  0  0  0
   -5.1398   -1.4047    0.6064 C   0  0  0  0  0  0  0  0  0  0  0  0
   -4.6338   -1.3178   -0.6802 C   0  0  0  0  0  0  0  0  0  0  0  0
   -5.1889   -2.0707   -1.6980 C   0  0  0  0  0  0  0  0  0  0  0  0
   -4.6941   -1.9947   -2.9938 C   0  0  0  0  0  0  0  0  0  0  0  0
   -3.6323   -1.1607   -3.2915 C   0  0  0  0  0  0  0  0  0  0  0  0
   -3.0837   -0.4126   -2.2707 C   0  0  0  0  0  0  0  0  0  0  0  0
   -3.5675   -0.4773   -0.9684 C   0  0  0  0  0  0  0  0  0  0  0  0
   -3.0191    0.2716    0.0514 C   0  0  0  0  0  0  0  0  0  0  0  0
   -1.9263    1.1301   -0.2914 N   0  0  0  0  0  0  0  0  0  0  0  0
   -0.5815    0.7093   -0.1998 C   0  0  0  0  0  0  0  0  0  0  0  0
   -0.4044   -0.5271    0.2069 O   0  0  0  0  0  0  0  0  0  0  0  0
    0.6554    1.3979   -0.4887 C   0  0  0  0  0  0  0  0  0  0  0  0
    0.7752    2.8445   -0.6544 C   0  0  0  0  0  0  0  0  0  0  0  0
    0.5437    3.7172    0.5077 C   0  0  0  0  0  0  0  0  0  0  0  0
   -0.9713    3.7482    1.3808 S   0  0  0  0  0  0  0  0  0  0  0  0
    1.5952    0.6904   -1.3255 N   0  0  0  0  0  0  0  0  0  0  0  0
    2.7329    0.0554   -0.7843 C   0  0  0  0  0  0  0  0  0  0  0  0
    2.9093    0.1240    0.4620 O   0  0  0  0  0  0  0  0  0  0  0  0
    3.7202   -0.6824   -1.6121 C   0  0  0  0  0  0  0  0  0  0  0  0
    4.7836   -1.2215   -0.7402 C   0  0  0  0  0  0  0  0  0  0  0  0
    5.9346   -0.4818   -0.4912 C   0  0  0  0  0  0  0  0  0  0  0  0
    6.9645   -0.9194    0.3113 C   0  0  0  0  0  0  0  0  0  0  0  0
    6.8417   -2.1607    0.8978 C   0  0  0  0  0  0  0  0  0  0  0  0
    5.7163   -2.9239    0.6754 C   0  0  0  0  0  0  0  0  0  0  0  0
    4.7023   -2.4583   -0.1332 C   0  0  0  0  0  0  0  0  0  0  0  0
   -4.5842    0.9748    3.7713 H   0  0  0  0  0  0  0  0  0  0  0  0
   -2.9566    1.6794    4.2539 H   0  0  0  0  0  0  0  0  0  0  0  0
   -3.1312   -0.1008    4.1408 H   0  0  0  0  0  0  0  0  0  0  0  0
   -4.9858   -0.7234    2.6295 H   0  0  0  0  0  0  0  0  0  0  0  0
   -5.9792   -2.0645    0.8387 H   0  0  0  0  0  0  0  0  0  0  0  0
   -6.0160   -2.7131   -1.4383 H   0  0  0  0  0  0  0  0  0  0  0  0
   -5.1764   -2.6105   -3.7351 H   0  0  0  0  0  0  0  0  0  0  0  0
   -3.2780   -1.1313   -4.3134 H   0  0  0  0  0  0  0  0  0  0  0  0
   -2.2520    0.2473   -2.4779 H   0  0  0  0  0  0  0  0  0  0  0  0
   -2.1456    2.0709   -0.6629 H   0  0  0  0  0  0  0  0  0  0  0  0
    1.2172    1.1979    0.6003 H   0  0  0  0  0  0  0  0  0  0  0  0
    0.0779    3.1176   -1.5276 H   0  0  0  0  0  0  0  0  0  0  0  0
    1.7782    3.1373   -1.1308 H   0  0  0  0  0  0  0  0  0  0  0  0
    0.7990    4.7865    0.1874 H   0  0  0  0  0  0  0  0  0  0  0  0
    1.3847    3.5485    1.2797 H   0  0  0  0  0  0  0  0  0  0  0  0
   -0.9922    2.9680    2.5636 H   0  0  0  0  0  0  0  0  0  0  0  0
    1.3979    0.6642   -2.3789 H   0  0  0  0  0  0  0  0  0  0  0  0
    4.2318    0.0077   -2.3425 H   0  0  0  0  0  0  0  0  0  0  0  0
    3.2655   -1.4712   -2.2272 H   0  0  0  0  0  0  0  0  0  0  0  0
    6.0166    0.4824   -0.9538 H   0  0  0  0  0  0  0  0  0  0  0  0
    7.8327   -0.2984    0.4656 H   0  0  0  0  0  0  0  0  0  0  0  0
    7.6273   -2.5701    1.5499 H   0  0  0  0  0  0  0  0  0  0  0  0
    5.6360   -3.9051    1.1485 H   0  0  0  0  0  0  0  0  0  0  0  0
    3.8167   -3.0505   -0.3126 H   0  0  0  0  0  0  0  0  0  0  0  0
  1  2  1  0
  2  3  1  0
  3  4  2  0
  4  5  1  0
  5  6  2  0
  6  7  1  0
  7  8  2  0
  8  9  1  0
  9 10  2  0
 10 11  1  0
 11 12  2  0
 12 13  1  0
 13 14  1  0
 14 15  2  0
 14 16  1  0
 16 17  1  0
 17 18  1  0
 18 19  1  0
 16 20  1  0
 20 21  1  0
 21 22  2  0
 21 23  1  0
 23 24  1  0
 24 25  2  0
 25 26  1  0
 26 27  2  0
 27 28  1  0
 28 29  2  0
 12  3  1  0
 29 24  1  0
 11  6  1  0
  1 30  1  0
  1 31  1  0
  1 32  1  0
  4 33  1  0
  5 34  1  0
  7 35  1  0
  8 36  1  0
  9 37  1  0
 10 38  1  0
 13 39  1  0
 16 40  1  0
 17 41  1  0
 17 42  1  0
 18 43  1  0
 18 44  1  0
 19 45  1  0
 20 46  1  0
 23 47  1  0
 23 48  1  0
 25 49  1  0
 26 50  1  0
 27 51  1  0
 28 52  1  0
 29 53  1  0
M  END
$$$$
[H]c1c([H])c(C([H])([H])[H])c([H])c(F)c1OC([H])([H])C(=O)N([H])c1nc2c(C3([H])C([H])([H])C([H])([H])N(C([H])([H])[H])C([H])([H])C3([H])[H])c([H])n([H])c2c([H])c1[H]
     RDKit          3D

 54 57  0  0  0  0  0  0  0  0999 V2000
   -7.0522   -2.3697    0.2633 C   0  0  0  0  0  0  0  0  0  0  0  0
   -6.4893   -1.1332   -0.2223 N   0  0  0  0  0  0  0  0  0  0  0  0
   -6.7162   -0.0703    0.6840 C   0  0  0  0  0  0  0  0  0  0  0  0
   -5.8465    1.1476    0.5018 C   0  0  0  0  0  0  0  0  0  0  0  0
   -4.4116    0.8098    0.1584 C   0  0  0  0  0  0  0  0  0  0  0  0
   -4.1484   -0.6417    0.3500 C   0  0  0  0  0  0  0  0  0  0  0  0
   -5.1322   -1.3638   -0.5980 C   0  0  0  0  0  0  0  0  0  0  0  0
   -3.4706    1.7338    0.8046 C   0  0  0  0  0  0  0  0  0  0  0  0
   -3.7881    2.9124    1.4162 C   0  0  0  0  0  0  0  0  0  0  0  0
   -2.6514    3.5184    1.8441 N   0  0  0  0  0  0  0  0  0  0  0  0
   -1.5692    2.7496    1.5212 C   0  0  0  0  0  0  0  0  0  0  0  0
   -0.2218    2.8884    1.7033 C   0  0  0  0  0  0  0  0  0  0  0  0
    0.5945    1.8554    1.2129 C   0  0  0  0  0  0  0  0  0  0  0  0
    0.1105    0.7472    0.5768 C   0  0  0  0  0  0  0  0  0  0  0  0
    0.8803   -0.3006    0.0361 N   0  0  0  0  0  0  0  0  0  0  0  0
    2.2225   -0.4932   -0.1416 C   0  0  0  0  0  0  0  0  0  0  0  0
    2.5845   -1.6379   -0.6438 O   0  0  0  0  0  0  0  0  0  0  0  0
    3.3963    0.3893    0.1292 C   0  0  0  0  0  0  0  0  0  0  0  0
    4.5640   -0.0717   -0.2075 O   0  0  0  0  0  0  0  0  0  0  0  0
    5.7059   -0.5285   -0.5316 C   0  0  0  0  0  0  0  0  0  0  0  0
    6.3041   -1.6356    0.1108 C   0  0  0  0  0  0  0  0  0  0  0  0
    7.5532   -2.0527   -0.3223 C   0  0  0  0  0  0  0  0  0  0  0  0
    8.2400   -1.4708   -1.3202 C   0  0  0  0  0  0  0  0  0  0  0  0
    9.5510   -1.9435   -1.7530 C   0  0  0  0  0  0  0  0  0  0  0  0
    7.6985   -0.3800   -1.9844 C   0  0  0  0  0  0  0  0  0  0  0  0
    6.4774    0.0475   -1.5791 C   0  0  0  0  0  0  0  0  0  0  0  0
    5.8467    1.1167   -2.1907 F   0  0  0  0  0  0  0  0  0  0  0  0
   -1.2515    0.7077    0.4439 N   0  0  0  0  0  0  0  0  0  0  0  0
   -2.0740    1.6408    0.8789 C   0  0  0  0  0  0  0  0  0  0  0  0
   -8.1519   -2.4178    0.2016 H   0  0  0  0  0  0  0  0  0  0  0  0
   -6.7751   -2.5763    1.3319 H   0  0  0  0  0  0  0  0  0  0  0  0
   -6.6734   -3.2471   -0.3047 H   0  0  0  0  0  0  0  0  0  0  0  0
   -6.6514   -0.3941    1.7467 H   0  0  0  0  0  0  0  0  0  0  0  0
   -7.7789    0.2631    0.5556 H   0  0  0  0  0  0  0  0  0  0  0  0
   -5.8871    1.6851    1.4874 H   0  0  0  0  0  0  0  0  0  0  0  0
   -6.3312    1.7973   -0.2443 H   0  0  0  0  0  0  0  0  0  0  0  0
   -4.3624    0.9590   -0.9763 H   0  0  0  0  0  0  0  0  0  0  0  0
   -3.1571   -0.9441   -0.0527 H   0  0  0  0  0  0  0  0  0  0  0  0
   -4.3305   -0.9970    1.3888 H   0  0  0  0  0  0  0  0  0  0  0  0
   -4.9146   -0.9806   -1.6150 H   0  0  0  0  0  0  0  0  0  0  0  0
   -4.8521   -2.4416   -0.5264 H   0  0  0  0  0  0  0  0  0  0  0  0
   -4.7715    3.3325    1.5612 H   0  0  0  0  0  0  0  0  0  0  0  0
   -2.5458    4.4174    2.3472 H   0  0  0  0  0  0  0  0  0  0  0  0
    0.1718    3.7489    2.1996 H   0  0  0  0  0  0  0  0  0  0  0  0
    1.6436    1.9595    1.3577 H   0  0  0  0  0  0  0  0  0  0  0  0
    0.2646   -1.1567   -0.2828 H   0  0  0  0  0  0  0  0  0  0  0  0
    3.2106    1.4283   -0.2779 H   0  0  0  0  0  0  0  0  0  0  0  0
    3.4208    0.6134    1.2677 H   0  0  0  0  0  0  0  0  0  0  0  0
    5.7548   -2.0970    0.9024 H   0  0  0  0  0  0  0  0  0  0  0  0
    7.9413   -2.9154    0.2445 H   0  0  0  0  0  0  0  0  0  0  0  0
   10.0340   -1.2438   -2.4793 H   0  0  0  0  0  0  0  0  0  0  0  0
    9.4074   -2.9268   -2.2871 H   0  0  0  0  0  0  0  0  0  0  0  0
   10.2013   -2.1403   -0.8827 H   0  0  0  0  0  0  0  0  0  0  0  0
    8.2266    0.1025   -2.7891 H   0  0  0  0  0  0  0  0  0  0  0  0
  1  2  1  0
  2  3  1  0
  3  4  1  0
  4  5  1  0
  5  6  1  0
  6  7  1  0
  5  8  1  0
  8  9  2  0
  9 10  1  0
 10 11  1  0
 11 12  2  0
 12 13  1  0
 13 14  2  0
 14 15  1  0
 15 16  1  0
 16 17  2  0
 16 18  1  0
 18 19  1  0
 19 20  1  0
 20 21  2  0
 21 22  1  0
 22 23  2  0
 23 24  1  0
 23 25  1  0
 25 26  2  0
 26 27  1  0
 14 28  1  0
 28 29  2  0
  7  2  1  0
 29  8  1  0
 29 11  1  0
 26 20  1  0
  1 30  1  0
  1 31  1  0
  1 32  1  0
  3 33  1  0
  3 34  1  0
  4 35  1  0
  4 36  1  0
  5 37  1  0
  6 38  1  0
  6 39  1  0
  7 40  1  0
  7 41  1  0
  9 42  1  0
 10 43  1  0
 12 44  1  0
 13 45  1  0
 15 46  1  0
 18 47  1  0
 18 48  1  0
 21 49  1  0
 22 50  1  0
 24 51  1  0
 24 52  1  0
 24 53  1  0
 25 54  1  0
M  END
$$$$
[H]Oc1nc2c(-c3c([H])c([H])c([H])c([H])c3[H])c([H])n([H])c2c(=O)n1[H]
     RDKit          3D

 26 28  0  0  0  0  0  0  0  0999 V2000
    2.7563    2.3279    1.8655 O   0  0  0  0  0  0  0  0  0  0  0  0
    2.5530    1.2722    0.9620 C   0  0  0  0  0  0  0  0  0  0  0  0
    1.3024    0.8800    0.7110 N   0  0  0  0  0  0  0  0  0  0  0  0
    1.1065   -0.1381   -0.1603 C   0  0  0  0  0  0  0  0  0  0  0  0
   -0.0637   -0.7309   -0.5916 C   0  0  0  0  0  0  0  0  0  0  0  0
   -1.3960   -0.3102   -0.1297 C   0  0  0  0  0  0  0  0  0  0  0  0
   -1.6429   -0.0700    1.2067 C   0  0  0  0  0  0  0  0  0  0  0  0
   -2.9035    0.3270    1.6358 C   0  0  0  0  0  0  0  0  0  0  0  0
   -3.9511    0.4967    0.7568 C   0  0  0  0  0  0  0  0  0  0  0  0
   -3.7024    0.2563   -0.5773 C   0  0  0  0  0  0  0  0  0  0  0  0
   -2.4393   -0.1423   -1.0138 C   0  0  0  0  0  0  0  0  0  0  0  0
    0.2752   -1.7090   -1.4667 C   0  0  0  0  0  0  0  0  0  0  0  0
    1.6110   -1.7190   -1.5717 N   0  0  0  0  0  0  0  0  0  0  0  0
    2.1407   -0.7748   -0.7887 C   0  0  0  0  0  0  0  0  0  0  0  0
    3.4195   -0.3461   -0.5079 C   0  0  0  0  0  0  0  0  0  0  0  0
    4.3753   -0.9279   -1.0828 O   0  0  0  0  0  0  0  0  0  0  0  0
    3.5724    0.6592    0.3554 N   0  0  0  0  0  0  0  0  0  0  0  0
    2.3000    3.1967    1.6208 H   0  0  0  0  0  0  0  0  0  0  0  0
   -0.8194   -0.2018    1.9105 H   0  0  0  0  0  0  0  0  0  0  0  0
   -3.0860    0.5123    2.6836 H   0  0  0  0  0  0  0  0  0  0  0  0
   -4.9424    0.8075    1.0836 H   0  0  0  0  0  0  0  0  0  0  0  0
   -4.5178    0.3878   -1.2665 H   0  0  0  0  0  0  0  0  0  0  0  0
   -2.2695   -0.3231   -2.0535 H   0  0  0  0  0  0  0  0  0  0  0  0
   -0.4273   -2.3569   -1.9796 H   0  0  0  0  0  0  0  0  0  0  0  0
    2.2066   -2.3608   -2.1728 H   0  0  0  0  0  0  0  0  0  0  0  0
    4.5422    0.9873    0.5709 H   0  0  0  0  0  0  0  0  0  0  0  0
  1  2  1  0
  2  3  2  0
  3  4  1  0
  4  5  1  0
  5  6  1  0
  6  7  2  0
  7  8  1  0
  8  9  2  0
  9 10  1  0
 10 11  2  0
  5 12  2  0
 12 13  1  0
 13 14  1  0
 14 15  1  0
 15 16  2  0
 15 17  1  0
 17  2  1  0
 14  4  2  0
 11  6  1  0
  1 18  1  0
  7 19  1  0
  8 20  1  0
  9 21  1  0
 10 22  1  0
 11 23  1  0
 12 24  1  0
 13 25  1  0
 17 26  1  0
M  END
$$$$
[H]OC(=O)C([H])([H])N([H])C(=O)[C@@]([H])(N([H])C(=O)[C@@]1([H])N(C(=O)[C@@]([H])(N([H])C(=O)OC([H])([H])c2c([H])c([H])c([H])c([H])c2[H])C([H])([H])c2c([H])c([H])c([H])c([H])c2[H])C([H])([H])C([H])([H])C1([H])[H])C([H])([H])c1c([H])n([H])c2c([H])c([H])c(O[H])c([H])c12
     RDKit          3D

 85 89  0  0  0  0  0  0  0  0999 V2000
   -5.8244   -3.2810    4.4286 O   0  0  0  0  0  0  0  0  0  0  0  0
   -5.7607   -2.2987    3.4549 C   0  0  0  0  0  0  0  0  0  0  0  0
   -6.8033   -1.6590    3.1972 O   0  0  0  0  0  0  0  0  0  0  0  0
   -4.4739   -2.0601    2.7773 C   0  0  0  0  0  0  0  0  0  0  0  0
   -4.6539   -1.0095    1.8011 N   0  0  0  0  0  0  0  0  0  0  0  0
   -3.5886   -0.5440    0.9861 C   0  0  0  0  0  0  0  0  0  0  0  0
   -2.4608   -1.1278    1.1994 O   0  0  0  0  0  0  0  0  0  0  0  0
   -3.6391    0.4901   -0.0294 C   0  0  2  0  0  0  0  0  0  0  0  0
   -4.4286    0.1524   -1.2790 C   0  0  0  0  0  0  0  0  0  0  0  0
   -5.8352   -0.1576   -1.1017 C   0  0  0  0  0  0  0  0  0  0  0  0
   -6.4080   -1.3977   -1.1797 C   0  0  0  0  0  0  0  0  0  0  0  0
   -7.7404   -1.2971   -0.9761 N   0  0  0  0  0  0  0  0  0  0  0  0
   -8.0520    0.0106   -0.7629 C   0  0  0  0  0  0  0  0  0  0  0  0
   -9.2595    0.6276   -0.5136 C   0  0  0  0  0  0  0  0  0  0  0  0
   -9.2955    1.9870   -0.3340 C   0  0  0  0  0  0  0  0  0  0  0  0
   -8.1332    2.7523   -0.3998 C   0  0  0  0  0  0  0  0  0  0  0  0
   -8.2456    4.1179   -0.2090 O   0  0  0  0  0  0  0  0  0  0  0  0
   -6.9572    2.0902   -0.6514 C   0  0  0  0  0  0  0  0  0  0  0  0
   -6.8668    0.7267   -0.8386 C   0  0  0  0  0  0  0  0  0  0  0  0
   -2.2698    0.7255   -0.5325 N   0  0  0  0  0  0  0  0  0  0  0  0
   -1.7818    2.0006   -0.7989 C   0  0  0  0  0  0  0  0  0  0  0  0
   -2.5893    2.9739   -0.5861 O   0  0  0  0  0  0  0  0  0  0  0  0
   -0.4584    2.3851   -1.2952 C   0  0  2  0  0  0  0  0  0  0  0  0
   -0.5743    2.6860   -2.8059 C   0  0  0  0  0  0  0  0  0  0  0  0
   -0.7012    1.2689   -3.3357 C   0  0  0  0  0  0  0  0  0  0  0  0
    0.2966    0.5128   -2.4705 C   0  0  0  0  0  0  0  0  0  0  0  0
    0.5297    1.3448   -1.3197 N   0  0  0  0  0  0  0  0  0  0  0  0
    1.5875    1.2073   -0.3984 C   0  0  0  0  0  0  0  0  0  0  0  0
    1.7357    2.0823    0.5178 O   0  0  0  0  0  0  0  0  0  0  0  0
    2.5699    0.0941   -0.4190 C   0  0  2  0  0  0  0  0  0  0  0  0
    1.9325   -1.1609    0.1645 C   0  0  0  0  0  0  0  0  0  0  0  0
    2.8718   -2.2959    0.1687 C   0  0  0  0  0  0  0  0  0  0  0  0
    3.6718   -2.5018    1.2681 C   0  0  0  0  0  0  0  0  0  0  0  0
    4.5808   -3.5626    1.3212 C   0  0  0  0  0  0  0  0  0  0  0  0
    4.6450   -4.4007    0.2212 C   0  0  0  0  0  0  0  0  0  0  0  0
    3.8479   -4.2039   -0.8856 C   0  0  0  0  0  0  0  0  0  0  0  0
    2.9705   -3.1536   -0.8998 C   0  0  0  0  0  0  0  0  0  0  0  0
    3.7290    0.4265    0.4226 N   0  0  0  0  0  0  0  0  0  0  0  0
    5.0418    0.4033   -0.1394 C   0  0  0  0  0  0  0  0  0  0  0  0
    5.1626    0.0909   -1.3407 O   0  0  0  0  0  0  0  0  0  0  0  0
    6.1790    0.7127    0.5835 O   0  0  0  0  0  0  0  0  0  0  0  0
    7.4245    0.6491   -0.1047 C   0  0  0  0  0  0  0  0  0  0  0  0
    8.5699    1.0061    0.7342 C   0  0  0  0  0  0  0  0  0  0  0  0
    9.1566   -0.0009    1.4896 C   0  0  0  0  0  0  0  0  0  0  0  0
   10.2300    0.1955    2.3147 C   0  0  0  0  0  0  0  0  0  0  0  0
   10.7778    1.4638    2.4148 C   0  0  0  0  0  0  0  0  0  0  0  0
   10.2078    2.4801    1.6704 C   0  0  0  0  0  0  0  0  0  0  0  0
    9.1148    2.2564    0.8378 C   0  0  0  0  0  0  0  0  0  0  0  0
   -6.4882   -4.0543    4.3163 H   0  0  0  0  0  0  0  0  0  0  0  0
   -4.0891   -2.9801    2.2671 H   0  0  0  0  0  0  0  0  0  0  0  0
   -3.6976   -1.7201    3.5302 H   0  0  0  0  0  0  0  0  0  0  0  0
   -5.5860   -0.5776    1.7002 H   0  0  0  0  0  0  0  0  0  0  0  0
   -3.9872    1.4885    0.3476 H   0  0  0  0  0  0  0  0  0  0  0  0
   -3.8664   -0.6295   -1.8256 H   0  0  0  0  0  0  0  0  0  0  0  0
   -4.3697    1.0788   -1.9235 H   0  0  0  0  0  0  0  0  0  0  0  0
   -5.9253   -2.3652   -1.3821 H   0  0  0  0  0  0  0  0  0  0  0  0
   -8.4288   -2.0614   -0.9732 H   0  0  0  0  0  0  0  0  0  0  0  0
  -10.1355    0.0064   -0.4735 H   0  0  0  0  0  0  0  0  0  0  0  0
  -10.2551    2.4513   -0.1356 H   0  0  0  0  0  0  0  0  0  0  0  0
   -8.1535    4.4396    0.7622 H   0  0  0  0  0  0  0  0  0  0  0  0
   -6.0459    2.6589   -0.7100 H   0  0  0  0  0  0  0  0  0  0  0  0
   -1.6919   -0.1218   -0.6696 H   0  0  0  0  0  0  0  0  0  0  0  0
   -0.0722    3.3448   -0.8478 H   0  0  0  0  0  0  0  0  0  0  0  0
   -1.4939    3.2853   -2.9598 H   0  0  0  0  0  0  0  0  0  0  0  0
    0.2859    3.2355   -3.1756 H   0  0  0  0  0  0  0  0  0  0  0  0
   -1.7405    0.9135   -3.1180 H   0  0  0  0  0  0  0  0  0  0  0  0
   -0.4382    1.2035   -4.4045 H   0  0  0  0  0  0  0  0  0  0  0  0
    0.0030   -0.5066   -2.2484 H   0  0  0  0  0  0  0  0  0  0  0  0
    1.2205    0.4289   -3.1048 H   0  0  0  0  0  0  0  0  0  0  0  0
    2.9118   -0.1416   -1.4377 H   0  0  0  0  0  0  0  0  0  0  0  0
    1.0438   -1.4759   -0.3845 H   0  0  0  0  0  0  0  0  0  0  0  0
    1.6137   -0.9909    1.2307 H   0  0  0  0  0  0  0  0  0  0  0  0
    3.6498   -1.8651    2.1565 H   0  0  0  0  0  0  0  0  0  0  0  0
    5.1950   -3.7051    2.1931 H   0  0  0  0  0  0  0  0  0  0  0  0
    5.3559   -5.2383    0.2383 H   0  0  0  0  0  0  0  0  0  0  0  0
    3.9316   -4.8983   -1.7363 H   0  0  0  0  0  0  0  0  0  0  0  0
    2.3582   -3.0229   -1.7904 H   0  0  0  0  0  0  0  0  0  0  0  0
    3.5947    0.6747    1.4060 H   0  0  0  0  0  0  0  0  0  0  0  0
    7.4024    1.2673   -1.0318 H   0  0  0  0  0  0  0  0  0  0  0  0
    7.5346   -0.4106   -0.4288 H   0  0  0  0  0  0  0  0  0  0  0  0
    8.7506   -1.0119    1.4240 H   0  0  0  0  0  0  0  0  0  0  0  0
   10.6275   -0.6603    2.8801 H   0  0  0  0  0  0  0  0  0  0  0  0
   11.6380    1.6027    3.0758 H   0  0  0  0  0  0  0  0  0  0  0  0
   10.6431    3.4781    1.7544 H   0  0  0  0  0  0  0  0  0  0  0  0
    8.6734    3.0721    0.2550 H   0  0  0  0  0  0  0  0  0  0  0  0
  1  2  1  0
  2  3  2  0
  2  4  1  0
  4  5  1  0
  5  6  1  0
  6  7  2  0
  6  8  1  0
  8  9  1  0
  9 10  1  0
 10 11  2  0
 11 12  1  0
 12 13  1  0
 13 14  2  0
 14 15  1  0
 15 16  2  0
 16 17  1  0
 16 18  1  0
 18 19  2  0
  8 20  1  0
 20 21  1  0
 21 22  2  0
 21 23  1  0
 23 24  1  0
 24 25  1  0
 25 26  1  0
 26 27  1  0
 27 28  1  0
 28 29  2  0
 28 30  1  0
 30 31  1  0
 31 32  1  0
 32 33  2  0
 33 34  1  0
 34 35  2  0
 35 36  1  0
 36 37  2  0
 30 38  1  0
 38 39  1  0
 39 40  2  0
 39 41  1  0
 41 42  1  0
 42 43  1  0
 43 44  2  0
 44 45  1  0
 45 46  2  0
 46 47  1  0
 47 48  2  0
 19 10  1  0
 27 23  1  0
 37 32  1  0
 48 43  1  0
 19 13  1  0
  1 49  1  0
  4 50  1  0
  4 51  1  0
  5 52  1  0
  8 53  1  1
  9 54  1  0
  9 55  1  0
 11 56  1  0
 12 57  1  0
 14 58  1  0
 15 59  1  0
 17 60  1  0
 18 61  1  0
 20 62  1  0
 23 63  1  1
 24 64  1  0
 24 65  1  0
 25 66  1  0
 25 67  1  0
 26 68  1  0
 26 69  1  0
 30 70  1  6
 31 71  1  0
 31 72  1  0
 33 73  1  0
 34 74  1  0
 35 75  1  0
 36 76  1  0
 37 77  1  0
 38 78  1  0
 42 79  1  0
 42 80  1  0
 44 81  1  0
 45 82  1  0
 46 83  1  0
 47 84  1  0
 48 85  1  0
M  END
$$$$
[H]c1c([H])c(C(=O)N2C([H])([H])C([H])([H])C3(OC([H])([H])C([H])([H])O3)C2([H])[H])c([H])c([H])c1C(=O)N([H])c1c([H])c([H])c(C(F)(F)F)c(N([H])[H])c1[H]
     RDKit          3D

 51 54  0  0  0  0  0  0  0  0999 V2000
   -7.6270    1.7450   -0.6080 N   0  0  0  0  0  0  0  0  0  0  0  0
   -6.9834    0.5223   -0.3027 C   0  0  0  0  0  0  0  0  0  0  0  0
   -5.5940    0.4995   -0.1880 C   0  0  0  0  0  0  0  0  0  0  0  0
   -4.8841   -0.6418    0.1051 C   0  0  0  0  0  0  0  0  0  0  0  0
   -3.4829   -0.7279    0.2156 N   0  0  0  0  0  0  0  0  0  0  0  0
   -2.5484    0.2085   -0.1885 C   0  0  0  0  0  0  0  0  0  0  0  0
   -2.8745    1.2908   -0.7279 O   0  0  0  0  0  0  0  0  0  0  0  0
   -1.1006   -0.0084   -0.0083 C   0  0  0  0  0  0  0  0  0  0  0  0
   -0.5924   -1.2613    0.2241 C   0  0  0  0  0  0  0  0  0  0  0  0
    0.7418   -1.5036    0.4048 C   0  0  0  0  0  0  0  0  0  0  0  0
    1.6675   -0.4465    0.3573 C   0  0  0  0  0  0  0  0  0  0  0  0
    1.1544    0.7946    0.1245 C   0  0  0  0  0  0  0  0  0  0  0  0
   -0.2126    1.0335   -0.0587 C   0  0  0  0  0  0  0  0  0  0  0  0
    3.0569   -0.8006    0.5212 C   0  0  0  0  0  0  0  0  0  0  0  0
    3.3160   -2.0901    0.5087 O   0  0  0  0  0  0  0  0  0  0  0  0
    4.1473    0.0704    0.6921 N   0  0  0  0  0  0  0  0  0  0  0  0
    4.2275    1.4623    0.7928 C   0  0  0  0  0  0  0  0  0  0  0  0
    5.6105    1.8068    1.3064 C   0  0  0  0  0  0  0  0  0  0  0  0
    6.4210    0.7083    0.6118 C   0  0  0  0  0  0  0  0  0  0  0  0
    5.5155   -0.4931    0.7608 C   0  0  0  0  0  0  0  0  0  0  0  0
    6.6531    1.0653   -0.6952 O   0  0  0  0  0  0  0  0  0  0  0  0
    7.6844    0.2401   -1.0844 C   0  0  0  0  0  0  0  0  0  0  0  0
    8.3563   -0.1727    0.1965 C   0  0  0  0  0  0  0  0  0  0  0  0
    7.6509    0.5255    1.1977 O   0  0  0  0  0  0  0  0  0  0  0  0
   -5.6494   -1.8038    0.2867 C   0  0  0  0  0  0  0  0  0  0  0  0
   -7.0128   -1.7713    0.1724 C   0  0  0  0  0  0  0  0  0  0  0  0
   -7.7077   -0.6299   -0.1202 C   0  0  0  0  0  0  0  0  0  0  0  0
   -9.1846   -0.6199   -0.2391 C   0  0  0  0  0  0  0  0  0  0  0  0
   -9.7124    0.2578    0.7032 F   0  0  0  0  0  0  0  0  0  0  0  0
   -9.6523   -1.9022    0.0279 F   0  0  0  0  0  0  0  0  0  0  0  0
   -9.5942   -0.2514   -1.5243 F   0  0  0  0  0  0  0  0  0  0  0  0
   -8.0153    1.9973   -1.5389 H   0  0  0  0  0  0  0  0  0  0  0  0
   -7.7204    2.4503    0.1592 H   0  0  0  0  0  0  0  0  0  0  0  0
   -5.0952    1.4438   -0.3330 H   0  0  0  0  0  0  0  0  0  0  0  0
   -3.1011   -1.6205    0.6751 H   0  0  0  0  0  0  0  0  0  0  0  0
   -1.2457   -2.1338    0.2701 H   0  0  0  0  0  0  0  0  0  0  0  0
    1.0774   -2.5392    0.5897 H   0  0  0  0  0  0  0  0  0  0  0  0
    1.8109    1.6551    0.0473 H   0  0  0  0  0  0  0  0  0  0  0  0
   -0.5593    2.0451   -0.2398 H   0  0  0  0  0  0  0  0  0  0  0  0
    4.1121    1.9084   -0.2358 H   0  0  0  0  0  0  0  0  0  0  0  0
    3.4649    1.9073    1.5058 H   0  0  0  0  0  0  0  0  0  0  0  0
    5.6118    1.5953    2.3888 H   0  0  0  0  0  0  0  0  0  0  0  0
    5.9507    2.8048    1.0379 H   0  0  0  0  0  0  0  0  0  0  0  0
    5.6212   -1.1242   -0.1603 H   0  0  0  0  0  0  0  0  0  0  0  0
    5.6714   -1.0495    1.6876 H   0  0  0  0  0  0  0  0  0  0  0  0
    7.2226   -0.6323   -1.6183 H   0  0  0  0  0  0  0  0  0  0  0  0
    8.3732    0.7233   -1.8080 H   0  0  0  0  0  0  0  0  0  0  0  0
    8.3109   -1.2622    0.3371 H   0  0  0  0  0  0  0  0  0  0  0  0
    9.4298    0.1377    0.2187 H   0  0  0  0  0  0  0  0  0  0  0  0
   -5.1169   -2.7340    0.5217 H   0  0  0  0  0  0  0  0  0  0  0  0
   -7.5929   -2.6789    0.3158 H   0  0  0  0  0  0  0  0  0  0  0  0
  1  2  1  0
  2  3  2  0
  3  4  1  0
  4  5  1  0
  5  6  1  0
  6  7  2  0
  6  8  1  0
  8  9  2  0
  9 10  1  0
 10 11  2  0
 11 12  1  0
 12 13  2  0
 11 14  1  0
 14 15  2  0
 14 16  1  0
 16 17  1  0
 17 18  1  0
 18 19  1  0
 19 20  1  0
 19 21  1  0
 21 22  1  0
 22 23  1  0
 23 24  1  0
  4 25  2  0
 25 26  1  0
 26 27  2  0
 27 28  1  0
 28 29  1  0
 28 30  1  0
 28 31  1  0
 27  2  1  0
 13  8  1  0
 20 16  1  0
 24 19  1  0
  1 32  1  0
  1 33  1  0
  3 34  1  0
  5 35  1  0
  9 36  1  0
 10 37  1  0
 12 38  1  0
 13 39  1  0
 17 40  1  0
 17 41  1  0
 18 42  1  0
 18 43  1  0
 20 44  1  0
 20 45  1  0
 22 46  1  0
 22 47  1  0
 23 48  1  0
 23 49  1  0
 25 50  1  0
 26 51  1  0
M  END
$$$$
[H]O[C@]1([H])c2c(Br)c(OC([H])([H])[H])c([H])c([H])c2C([H])([H])[C@]2([H])[C@]([H])(C([H])([H])OC([H])([H])[H])OC([H])([H])[C@]12[H]
     RDKit          3D

 39 41  0  0  0  0  0  0  0  0999 V2000
    4.6498   -0.5736    2.2404 C   0  0  0  0  0  0  0  0  0  0  0  0
    3.6370   -1.0968    1.4342 O   0  0  0  0  0  0  0  0  0  0  0  0
    3.5842   -0.3698    0.2873 C   0  0  0  0  0  0  0  0  0  0  0  0
    2.5765   -0.7534   -0.7155 C   0  0  1  0  0  0  0  0  0  0  0  0
    1.1585   -0.7533   -0.3267 C   0  0  1  0  0  0  0  0  0  0  0  0
    0.6680    0.4413    0.4066 C   0  0  0  0  0  0  0  0  0  0  0  0
   -0.8181    0.4289    0.4706 C   0  0  0  0  0  0  0  0  0  0  0  0
   -1.5397    0.6077    1.6166 C   0  0  0  0  0  0  0  0  0  0  0  0
   -2.9347    0.5742    1.5450 C   0  0  0  0  0  0  0  0  0  0  0  0
   -3.5861    0.3662    0.3509 C   0  0  0  0  0  0  0  0  0  0  0  0
   -4.9678    0.3317    0.2724 O   0  0  0  0  0  0  0  0  0  0  0  0
   -5.7236    0.5161    1.4552 C   0  0  0  0  0  0  0  0  0  0  0  0
   -2.8533    0.1889   -0.7869 C   0  0  0  0  0  0  0  0  0  0  0  0
   -3.7293   -0.1001   -2.4482 Br  0  0  0  0  0  0  0  0  0  0  0  0
   -1.4880    0.2195   -0.7296 C   0  0  0  0  0  0  0  0  0  0  0  0
   -0.6198    0.0352   -1.9217 C   0  0  1  0  0  0  0  0  0  0  0  0
   -0.2170    1.2892   -2.3474 O   0  0  0  0  0  0  0  0  0  0  0  0
    0.4884   -0.9195   -1.6808 C   0  0  1  0  0  0  0  0  0  0  0  0
    1.6224   -0.5616   -2.6350 C   0  0  0  0  0  0  0  0  0  0  0  0
    2.6026    0.0517   -1.8547 O   0  0  0  0  0  0  0  0  0  0  0  0
    5.6325   -0.6214    1.7379 H   0  0  0  0  0  0  0  0  0  0  0  0
    4.7334   -1.1426    3.1877 H   0  0  0  0  0  0  0  0  0  0  0  0
    4.4663    0.4907    2.4970 H   0  0  0  0  0  0  0  0  0  0  0  0
    4.5938   -0.3633   -0.1735 H   0  0  0  0  0  0  0  0  0  0  0  0
    3.3965    0.7066    0.5774 H   0  0  0  0  0  0  0  0  0  0  0  0
    2.8256   -1.7863   -1.0870 H   0  0  0  0  0  0  0  0  0  0  0  0
    0.9381   -1.6536    0.3078 H   0  0  0  0  0  0  0  0  0  0  0  0
    1.0247    0.4338    1.4366 H   0  0  0  0  0  0  0  0  0  0  0  0
    0.9502    1.3977   -0.0809 H   0  0  0  0  0  0  0  0  0  0  0  0
   -1.0282    0.7689    2.5411 H   0  0  0  0  0  0  0  0  0  0  0  0
   -3.5305    0.7112    2.4272 H   0  0  0  0  0  0  0  0  0  0  0  0
   -5.5638    1.5816    1.7702 H   0  0  0  0  0  0  0  0  0  0  0  0
   -5.3842   -0.1272    2.2684 H   0  0  0  0  0  0  0  0  0  0  0  0
   -6.8059    0.3894    1.2219 H   0  0  0  0  0  0  0  0  0  0  0  0
   -1.2675   -0.3866   -2.7343 H   0  0  0  0  0  0  0  0  0  0  0  0
   -0.9578    1.9248   -2.1771 H   0  0  0  0  0  0  0  0  0  0  0  0
    0.1819   -1.9728   -1.8131 H   0  0  0  0  0  0  0  0  0  0  0  0
    2.0009   -1.4851   -3.1261 H   0  0  0  0  0  0  0  0  0  0  0  0
    1.2840    0.1548   -3.4138 H   0  0  0  0  0  0  0  0  0  0  0  0
  1  2  1  0
  2  3  1  0
  3  4  1  0
  4  5  1  0
  5  6  1  0
  6  7  1  0
  7  8  2  0
  8  9  1  0
  9 10  2  0
 10 11  1  0
 11 12  1  0
 10 13  1  0
 13 14  1  0
 13 15  2  0
 15 16  1  0
 16 17  1  0
 16 18  1  0
 18 19  1  0
 19 20  1  0
 20  4  1  0
 18  5  1  0
 15  7  1  0
  1 21  1  0
  1 22  1  0
  1 23  1  0
  3 24  1  0
  3 25  1  0
  4 26  1  6
  5 27  1  1
  6 28  1  0
  6 29  1  0
  8 30  1  0
  9 31  1  0
 12 32  1  0
 12 33  1  0
 12 34  1  0
 16 35  1  6
 17 36  1  0
 18 37  1  6
 19 38  1  0
 19 39  1  0
M  END
$$$$
[H]N=C(N([H])[H])N([H])C([H])([H])C([H])([H])C([H])([H])[C@@]([H])(C(=O)c1nc2c([H])c([H])c([H])c([H])c2s1)N([H])C(=O)[C@]([H])(N([H])C(=O)C([H])([H])c1nc([H])c([H])s1)C([H])([H])C([H])([H])C([H])([H])N=C(N([H])[H])N([H])[H]
     RDKit          3D

 71 73  0  0  0  0  0  0  0  0999 V2000
    4.1244    1.0602    5.1116 N   0  0  0  0  0  0  0  0  0  0  0  0
    4.6227    0.3961    3.9729 C   0  0  0  0  0  0  0  0  0  0  0  0
    5.5696   -0.6681    4.0702 N   0  0  0  0  0  0  0  0  0  0  0  0
    4.2203    0.7478    2.7985 N   0  0  0  0  0  0  0  0  0  0  0  0
    4.7070    0.0918    1.6037 C   0  0  0  0  0  0  0  0  0  0  0  0
    4.0509   -1.2222    1.3282 C   0  0  0  0  0  0  0  0  0  0  0  0
    2.5620   -1.0653    1.1392 C   0  0  0  0  0  0  0  0  0  0  0  0
    2.1945   -0.1711    0.0117 C   0  0  1  0  0  0  0  0  0  0  0  0
    2.7342   -0.6878   -1.2446 N   0  0  0  0  0  0  0  0  0  0  0  0
    3.4677    0.0802   -2.1727 C   0  0  0  0  0  0  0  0  0  0  0  0
    3.7135    1.2896   -1.9787 O   0  0  0  0  0  0  0  0  0  0  0  0
    3.9507   -0.5769   -3.4018 C   0  0  0  0  0  0  0  0  0  0  0  0
    4.6923    0.4553   -4.2080 C   0  0  0  0  0  0  0  0  0  0  0  0
    5.9706    0.7688   -4.2075 N   0  0  0  0  0  0  0  0  0  0  0  0
    6.4192    1.6985   -4.9856 C   0  0  0  0  0  0  0  0  0  0  0  0
    5.5176    2.3372   -5.8021 C   0  0  0  0  0  0  0  0  0  0  0  0
    4.0616    1.5443   -5.3883 S   0  0  0  0  0  0  0  0  0  0  0  0
    0.6969   -0.1653   -0.1058 C   0  0  0  0  0  0  0  0  0  0  0  0
    0.2160   -0.5210   -1.2003 O   0  0  0  0  0  0  0  0  0  0  0  0
   -0.1289    0.2183    0.9546 N   0  0  0  0  0  0  0  0  0  0  0  0
   -1.5780    0.2906    0.9759 C   0  0  1  0  0  0  0  0  0  0  0  0
   -2.2211    0.5871   -0.3432 C   0  0  0  0  0  0  0  0  0  0  0  0
   -1.7281    1.9593   -0.8150 C   0  0  0  0  0  0  0  0  0  0  0  0
   -2.3001    2.3363   -2.1501 C   0  0  0  0  0  0  0  0  0  0  0  0
   -3.7451    2.3851   -2.1351 N   0  0  0  0  0  0  0  0  0  0  0  0
   -4.5208    3.3320   -1.4385 C   0  0  0  0  0  0  0  0  0  0  0  0
   -5.8376    3.0032   -1.0265 N   0  0  0  0  0  0  0  0  0  0  0  0
   -4.0686    4.5010   -1.1610 N   0  0  0  0  0  0  0  0  0  0  0  0
   -2.1978   -0.6758    1.8385 C   0  0  0  0  0  0  0  0  0  0  0  0
   -1.6487   -0.8954    2.9749 O   0  0  0  0  0  0  0  0  0  0  0  0
   -3.4196   -1.4633    1.5552 C   0  0  0  0  0  0  0  0  0  0  0  0
   -4.0198   -2.3321    2.3344 N   0  0  0  0  0  0  0  0  0  0  0  0
   -5.0783   -2.9621    1.9230 C   0  0  0  0  0  0  0  0  0  0  0  0
   -5.8122   -3.9124    2.6514 C   0  0  0  0  0  0  0  0  0  0  0  0
   -6.9139   -4.5165    2.1197 C   0  0  0  0  0  0  0  0  0  0  0  0
   -7.3748   -4.2406    0.8512 C   0  0  0  0  0  0  0  0  0  0  0  0
   -6.6660   -3.3107    0.1226 C   0  0  0  0  0  0  0  0  0  0  0  0
   -5.5357   -2.6872    0.6620 C   0  0  0  0  0  0  0  0  0  0  0  0
   -4.3965   -1.5257    0.1472 S   0  0  0  0  0  0  0  0  0  0  0  0
    4.0072    2.0911    5.0908 H   0  0  0  0  0  0  0  0  0  0  0  0
    3.8796    0.5152    5.9561 H   0  0  0  0  0  0  0  0  0  0  0  0
    6.5328   -0.5625    3.7312 H   0  0  0  0  0  0  0  0  0  0  0  0
    5.2293   -1.5568    4.5035 H   0  0  0  0  0  0  0  0  0  0  0  0
    5.8157   -0.0965    1.6954 H   0  0  0  0  0  0  0  0  0  0  0  0
    4.5221    0.7893    0.7525 H   0  0  0  0  0  0  0  0  0  0  0  0
    4.1723   -1.8545    2.2475 H   0  0  0  0  0  0  0  0  0  0  0  0
    4.5252   -1.7904    0.5172 H   0  0  0  0  0  0  0  0  0  0  0  0
    2.1874   -0.5891    2.0890 H   0  0  0  0  0  0  0  0  0  0  0  0
    2.0574   -2.0374    1.0276 H   0  0  0  0  0  0  0  0  0  0  0  0
    2.5292    0.8792    0.1675 H   0  0  0  0  0  0  0  0  0  0  0  0
    2.5393   -1.7178   -1.4315 H   0  0  0  0  0  0  0  0  0  0  0  0
    3.1288   -1.0048   -4.0009 H   0  0  0  0  0  0  0  0  0  0  0  0
    4.7050   -1.3620   -3.1935 H   0  0  0  0  0  0  0  0  0  0  0  0
    7.4932    1.9893   -5.0125 H   0  0  0  0  0  0  0  0  0  0  0  0
    5.7239    3.1482   -6.5242 H   0  0  0  0  0  0  0  0  0  0  0  0
    0.3872    0.4847    1.8544 H   0  0  0  0  0  0  0  0  0  0  0  0
   -1.7403    1.3312    1.5101 H   0  0  0  0  0  0  0  0  0  0  0  0
   -3.3076    0.7957   -0.1009 H   0  0  0  0  0  0  0  0  0  0  0  0
   -2.1297   -0.1809   -1.0940 H   0  0  0  0  0  0  0  0  0  0  0  0
   -2.1950    2.7032   -0.0838 H   0  0  0  0  0  0  0  0  0  0  0  0
   -0.6613    2.0450   -0.7074 H   0  0  0  0  0  0  0  0  0  0  0  0
   -1.9016    1.7313   -2.9672 H   0  0  0  0  0  0  0  0  0  0  0  0
   -1.9810    3.4082   -2.3191 H   0  0  0  0  0  0  0  0  0  0  0  0
   -4.2524    1.6545   -2.6906 H   0  0  0  0  0  0  0  0  0  0  0  0
   -6.1057    2.0304   -0.7416 H   0  0  0  0  0  0  0  0  0  0  0  0
   -6.6238    3.7149   -0.9827 H   0  0  0  0  0  0  0  0  0  0  0  0
   -4.6446    5.1902   -0.6492 H   0  0  0  0  0  0  0  0  0  0  0  0
   -5.5242   -4.2012    3.6663 H   0  0  0  0  0  0  0  0  0  0  0  0
   -7.4834   -5.2654    2.7107 H   0  0  0  0  0  0  0  0  0  0  0  0
   -8.2436   -4.7396    0.4742 H   0  0  0  0  0  0  0  0  0  0  0  0
   -6.9416   -3.0254   -0.8765 H   0  0  0  0  0  0  0  0  0  0  0  0
  1  2  1  0
  2  3  1  0
  2  4  2  3
  4  5  1  0
  5  6  1  0
  6  7  1  0
  7  8  1  0
  8  9  1  0
  9 10  1  0
 10 11  2  0
 10 12  1  0
 12 13  1  0
 13 14  2  0
 14 15  1  0
 15 16  2  0
 16 17  1  0
  8 18  1  0
 18 19  2  0
 18 20  1  0
 20 21  1  0
 21 22  1  0
 22 23  1  0
 23 24  1  0
 24 25  1  0
 25 26  1  0
 26 27  1  0
 26 28  2  3
 21 29  1  0
 29 30  2  0
 29 31  1  0
 31 32  2  0
 32 33  1  0
 33 34  2  0
 34 35  1  0
 35 36  2  0
 36 37  1  0
 37 38  2  0
 38 39  1  0
 17 13  1  0
 39 31  1  0
 38 33  1  0
  1 40  1  0
  1 41  1  0
  3 42  1  0
  3 43  1  0
  5 44  1  0
  5 45  1  0
  6 46  1  0
  6 47  1  0
  7 48  1  0
  7 49  1  0
  8 50  1  1
  9 51  1  0
 12 52  1  0
 12 53  1  0
 15 54  1  0
 16 55  1  0
 20 56  1  0
 21 57  1  1
 22 58  1  0
 22 59  1  0
 23 60  1  0
 23 61  1  0
 24 62  1  0
 24 63  1  0
 25 64  1  0
 27 65  1  0
 27 66  1  0
 28 67  1  0
 34 68  1  0
 35 69  1  0
 36 70  1  0
 37 71  1  0
M  END
$$$$
[H]C1=C([H])C([H])(F)C([H])([H])C([H])=C1N([H])C(=O)C1(C(=O)N([H])c2c([H])c([H])c(Oc3c([H])c([H])nc4c([H])c(OC([H])([H])C([H])([H])C([H])([H])N5C([H])([H])C([H])([H])C([H])([H])C5([H])[H])c(OC([H])([H])[H])c([H])c34)c(F)c2[H])C([H])([H])C1([H])[H]
     RDKit          3D

 81 86  0  0  0  0  0  0  0  0999 V2000
   -3.5877    0.0230   -2.5605 C   0  0  0  0  0  0  0  0  0  0  0  0
   -4.4433   -0.0435   -1.4508 O   0  0  0  0  0  0  0  0  0  0  0  0
   -3.9880   -0.2494   -0.1491 C   0  0  0  0  0  0  0  0  0  0  0  0
   -2.6478   -0.3994    0.1096 C   0  0  0  0  0  0  0  0  0  0  0  0
   -2.1587   -0.6042    1.3755 C   0  0  0  0  0  0  0  0  0  0  0  0
   -0.7923   -0.7567    1.6112 C   0  0  0  0  0  0  0  0  0  0  0  0
    0.0250   -0.6916    0.5279 O   0  0  0  0  0  0  0  0  0  0  0  0
    1.3913   -0.8525    0.4754 C   0  0  0  0  0  0  0  0  0  0  0  0
    2.2342    0.1729    0.0692 C   0  0  0  0  0  0  0  0  0  0  0  0
    3.5918   -0.0103    0.0220 C   0  0  0  0  0  0  0  0  0  0  0  0
    4.2120   -1.2204    0.3732 C   0  0  0  0  0  0  0  0  0  0  0  0
    5.6358   -1.3113    0.3171 N   0  0  0  0  0  0  0  0  0  0  0  0
    6.4056   -2.4553    0.1478 C   0  0  0  0  0  0  0  0  0  0  0  0
    5.7718   -3.5663    0.0427 O   0  0  0  0  0  0  0  0  0  0  0  0
    7.8601   -2.5227    0.0895 C   0  0  0  0  0  0  0  0  0  0  0  0
    8.4588   -3.8753   -0.2867 C   0  0  0  0  0  0  0  0  0  0  0  0
    8.4428   -3.4847    1.1392 C   0  0  0  0  0  0  0  0  0  0  0  0
    8.7035   -1.3424   -0.2300 C   0  0  0  0  0  0  0  0  0  0  0  0
    9.9255   -1.4864    0.1717 O   0  0  0  0  0  0  0  0  0  0  0  0
    8.2626   -0.2155   -0.8859 N   0  0  0  0  0  0  0  0  0  0  0  0
    8.9663    0.9916   -1.2279 C   0  0  0  0  0  0  0  0  0  0  0  0
   10.2261    1.1961   -0.9431 C   0  0  0  0  0  0  0  0  0  0  0  0
   10.9546    2.4310   -1.2907 C   0  0  0  0  0  0  0  0  0  0  0  0
   10.1946    3.4846   -1.9837 C   0  0  0  0  0  0  0  0  0  0  0  0
   10.2335    4.6437   -1.1848 F   0  0  0  0  0  0  0  0  0  0  0  0
    8.8021    3.1813   -2.2644 C   0  0  0  0  0  0  0  0  0  0  0  0
    8.2359    2.0634   -1.9301 C   0  0  0  0  0  0  0  0  0  0  0  0
    3.3805   -2.2291    0.7736 C   0  0  0  0  0  0  0  0  0  0  0  0
    1.9865   -2.0377    0.8203 C   0  0  0  0  0  0  0  0  0  0  0  0
    1.2365   -3.0982    1.2142 F   0  0  0  0  0  0  0  0  0  0  0  0
   -0.4287   -0.9581    2.9201 C   0  0  0  0  0  0  0  0  0  0  0  0
   -1.3521   -1.0070    3.9339 C   0  0  0  0  0  0  0  0  0  0  0  0
   -2.6377   -0.8567    3.6575 N   0  0  0  0  0  0  0  0  0  0  0  0
   -3.0892   -0.6527    2.3915 C   0  0  0  0  0  0  0  0  0  0  0  0
   -4.4416   -0.5052    2.1646 C   0  0  0  0  0  0  0  0  0  0  0  0
   -4.8811   -0.3029    0.8827 C   0  0  0  0  0  0  0  0  0  0  0  0
   -6.2490   -0.1596    0.6965 O   0  0  0  0  0  0  0  0  0  0  0  0
   -7.1921   -0.2052    1.7204 C   0  0  0  0  0  0  0  0  0  0  0  0
   -8.5663   -0.0150    1.1322 C   0  0  0  0  0  0  0  0  0  0  0  0
   -8.6955    1.3020    0.4220 C   0  0  0  0  0  0  0  0  0  0  0  0
  -10.0037    1.4621   -0.1281 N   0  0  0  0  0  0  0  0  0  0  0  0
  -10.2287    2.6808   -0.8350 C   0  0  0  0  0  0  0  0  0  0  0  0
  -11.1566    2.3511   -2.0081 C   0  0  0  0  0  0  0  0  0  0  0  0
  -11.7165    1.0092   -1.5741 C   0  0  0  0  0  0  0  0  0  0  0  0
  -10.4689    0.3786   -0.9383 C   0  0  0  0  0  0  0  0  0  0  0  0
   -4.1462    0.4826   -3.4058 H   0  0  0  0  0  0  0  0  0  0  0  0
   -2.7486    0.7305   -2.3481 H   0  0  0  0  0  0  0  0  0  0  0  0
   -3.2042   -0.9751   -2.8684 H   0  0  0  0  0  0  0  0  0  0  0  0
   -1.9172   -0.3599   -0.6920 H   0  0  0  0  0  0  0  0  0  0  0  0
    1.7492    1.1006   -0.1989 H   0  0  0  0  0  0  0  0  0  0  0  0
    4.2444    0.7990   -0.2985 H   0  0  0  0  0  0  0  0  0  0  0  0
    6.1068   -0.3582    0.4880 H   0  0  0  0  0  0  0  0  0  0  0  0
    7.7266   -4.6220   -0.6534 H   0  0  0  0  0  0  0  0  0  0  0  0
    9.4183   -3.8918   -0.8472 H   0  0  0  0  0  0  0  0  0  0  0  0
    9.4104   -3.1476    1.6028 H   0  0  0  0  0  0  0  0  0  0  0  0
    7.7630   -3.9592    1.8454 H   0  0  0  0  0  0  0  0  0  0  0  0
    7.2650   -0.2466   -1.2614 H   0  0  0  0  0  0  0  0  0  0  0  0
   10.8241    0.4296   -0.4110 H   0  0  0  0  0  0  0  0  0  0  0  0
   11.8456    2.1794   -1.9484 H   0  0  0  0  0  0  0  0  0  0  0  0
   11.3908    2.8108   -0.3161 H   0  0  0  0  0  0  0  0  0  0  0  0
   10.6645    3.7949   -2.9610 H   0  0  0  0  0  0  0  0  0  0  0  0
    8.2315    3.9729   -2.7929 H   0  0  0  0  0  0  0  0  0  0  0  0
    7.1670    1.8981   -2.1758 H   0  0  0  0  0  0  0  0  0  0  0  0
    3.7856   -3.1876    1.0764 H   0  0  0  0  0  0  0  0  0  0  0  0
    0.6075   -1.0712    3.1537 H   0  0  0  0  0  0  0  0  0  0  0  0
   -1.0717   -1.1659    4.9745 H   0  0  0  0  0  0  0  0  0  0  0  0
   -5.1120   -0.5552    3.0169 H   0  0  0  0  0  0  0  0  0  0  0  0
   -7.1820   -1.2490    2.1462 H   0  0  0  0  0  0  0  0  0  0  0  0
   -6.9796    0.4646    2.5680 H   0  0  0  0  0  0  0  0  0  0  0  0
   -9.3685   -0.0413    1.9143 H   0  0  0  0  0  0  0  0  0  0  0  0
   -8.7385   -0.8568    0.4359 H   0  0  0  0  0  0  0  0  0  0  0  0
   -8.5595    2.1075    1.1881 H   0  0  0  0  0  0  0  0  0  0  0  0
   -7.8715    1.4342   -0.3151 H   0  0  0  0  0  0  0  0  0  0  0  0
  -10.7856    3.4045   -0.1999 H   0  0  0  0  0  0  0  0  0  0  0  0
   -9.3011    3.1863   -1.1756 H   0  0  0  0  0  0  0  0  0  0  0  0
  -11.9700    3.1048   -2.1030 H   0  0  0  0  0  0  0  0  0  0  0  0
  -10.5960    2.2617   -2.9622 H   0  0  0  0  0  0  0  0  0  0  0  0
  -12.4672    1.2054   -0.7918 H   0  0  0  0  0  0  0  0  0  0  0  0
  -12.0978    0.4163   -2.4102 H   0  0  0  0  0  0  0  0  0  0  0  0
  -10.7030   -0.5229   -0.3684 H   0  0  0  0  0  0  0  0  0  0  0  0
   -9.7919    0.1704   -1.8195 H   0  0  0  0  0  0  0  0  0  0  0  0
  1  2  1  0
  2  3  1  0
  3  4  2  0
  4  5  1  0
  5  6  2  0
  6  7  1  0
  7  8  1  0
  8  9  2  0
  9 10  1  0
 10 11  2  0
 11 12  1  0
 12 13  1  0
 13 14  2  0
 13 15  1  0
 15 16  1  0
 16 17  1  0
 15 18  1  0
 18 19  2  0
 18 20  1  0
 20 21  1  0
 21 22  2  0
 22 23  1  0
 23 24  1  0
 24 25  1  0
 24 26  1  0
 26 27  2  0
 11 28  1  0
 28 29  2  0
 29 30  1  0
  6 31  1  0
 31 32  2  0
 32 33  1  0
 33 34  2  0
 34 35  1  0
 35 36  2  0
 36 37  1  0
 37 38  1  0
 38 39  1  0
 39 40  1  0
 40 41  1  0
 41 42  1  0
 42 43  1  0
 43 44  1  0
 44 45  1  0
 36  3  1  0
 45 41  1  0
 34  5  1  0
 29  8  1  0
 17 15  1  0
 27 21  1  0
  1 46  1  0
  1 47  1  0
  1 48  1  0
  4 49  1  0
  9 50  1  0
 10 51  1  0
 12 52  1  0
 16 53  1  0
 16 54  1  0
 17 55  1  0
 17 56  1  0
 20 57  1  0
 22 58  1  0
 23 59  1  0
 23 60  1  0
 24 61  1  0
 26 62  1  0
 27 63  1  0
 28 64  1  0
 31 65  1  0
 32 66  1  0
 35 67  1  0
 38 68  1  0
 38 69  1  0
 39 70  1  0
 39 71  1  0
 40 72  1  0
 40 73  1  0
 42 74  1  0
 42 75  1  0
 43 76  1  0
 43 77  1  0
 44 78  1  0
 44 79  1  0
 45 80  1  0
 45 81  1  0
M  END
$$$$
[H]OC(C([H])([H])[H])(C([H])([H])[H])C([H])([H])N([H])c1nc(N2C([H])([H])C([H])([H])OC([H])([H])C2([H])[H])c([H])c2c1nc([H])n2-c1c([H])c([H])c([H])c(N([H])C(=O)N([H])c2c([H])c([H])c([H])c(C(F)(F)F)c2[H])c1[H]
     RDKit          3D

 71 75  0  0  0  0  0  0  0  0999 V2000
   -6.9629    4.0096    0.4183 C   0  0  0  0  0  0  0  0  0  0  0  0
   -5.5331    3.6896    0.7464 C   0  0  0  0  0  0  0  0  0  0  0  0
   -4.6818    4.6749   -0.0368 C   0  0  0  0  0  0  0  0  0  0  0  0
   -5.2940    3.8422    2.1171 O   0  0  0  0  0  0  0  0  0  0  0  0
   -5.1902    2.2718    0.3565 C   0  0  0  0  0  0  0  0  0  0  0  0
   -3.8078    1.9785    0.5631 N   0  0  0  0  0  0  0  0  0  0  0  0
   -3.3079    0.6745    0.3064 C   0  0  0  0  0  0  0  0  0  0  0  0
   -4.0541   -0.3481   -0.1134 N   0  0  0  0  0  0  0  0  0  0  0  0
   -3.5992   -1.5743   -0.3932 C   0  0  0  0  0  0  0  0  0  0  0  0
   -2.2386   -1.8165   -0.2466 C   0  0  0  0  0  0  0  0  0  0  0  0
   -1.3695   -0.8172    0.1916 C   0  0  0  0  0  0  0  0  0  0  0  0
   -0.0474   -0.7642    0.4513 N   0  0  0  0  0  0  0  0  0  0  0  0
    0.1742    0.5077    0.8849 C   0  0  0  0  0  0  0  0  0  0  0  0
   -0.9698    1.2032    0.8841 N   0  0  0  0  0  0  0  0  0  0  0  0
   -1.9557    0.3922    0.4522 C   0  0  0  0  0  0  0  0  0  0  0  0
    0.9318   -1.7425    0.2441 C   0  0  0  0  0  0  0  0  0  0  0  0
    0.7893   -3.0839    0.2201 C   0  0  0  0  0  0  0  0  0  0  0  0
    1.8873   -3.9131   -0.0630 C   0  0  0  0  0  0  0  0  0  0  0  0
    3.1177   -3.3853   -0.3143 C   0  0  0  0  0  0  0  0  0  0  0  0
    3.3206   -1.9751   -0.2995 C   0  0  0  0  0  0  0  0  0  0  0  0
    4.5783   -1.4478   -0.5384 N   0  0  0  0  0  0  0  0  0  0  0  0
    5.1224   -0.2876    0.1448 C   0  0  0  0  0  0  0  0  0  0  0  0
    4.5273    0.2898    0.9925 O   0  0  0  0  0  0  0  0  0  0  0  0
    6.4002    0.0763   -0.2630 N   0  0  0  0  0  0  0  0  0  0  0  0
    7.3044    1.0429    0.1160 C   0  0  0  0  0  0  0  0  0  0  0  0
    6.9212    2.0797    0.9655 C   0  0  0  0  0  0  0  0  0  0  0  0
    7.8348    3.0828    1.3215 C   0  0  0  0  0  0  0  0  0  0  0  0
    9.1074    3.0202    0.8243 C   0  0  0  0  0  0  0  0  0  0  0  0
    9.5208    2.0064   -0.0194 C   0  0  0  0  0  0  0  0  0  0  0  0
    8.6101    1.0191   -0.3681 C   0  0  0  0  0  0  0  0  0  0  0  0
   10.9128    1.9677   -0.5465 C   0  0  0  0  0  0  0  0  0  0  0  0
   11.7116    2.8573    0.1582 F   0  0  0  0  0  0  0  0  0  0  0  0
   11.4450    0.7095   -0.4897 F   0  0  0  0  0  0  0  0  0  0  0  0
   10.9505    2.3991   -1.8693 F   0  0  0  0  0  0  0  0  0  0  0  0
    2.2247   -1.2341   -0.0203 C   0  0  0  0  0  0  0  0  0  0  0  0
   -4.5067   -2.5861   -0.7426 N   0  0  0  0  0  0  0  0  0  0  0  0
   -4.3059   -3.6901   -1.6241 C   0  0  0  0  0  0  0  0  0  0  0  0
   -4.6562   -4.9454   -0.7761 C   0  0  0  0  0  0  0  0  0  0  0  0
   -5.9817   -4.9526   -0.4267 O   0  0  0  0  0  0  0  0  0  0  0  0
   -6.6341   -3.7615   -0.6159 C   0  0  0  0  0  0  0  0  0  0  0  0
   -5.8413   -2.5694   -0.0932 C   0  0  0  0  0  0  0  0  0  0  0  0
   -7.5996    3.1499    0.6751 H   0  0  0  0  0  0  0  0  0  0  0  0
   -7.2581    4.9187    1.0084 H   0  0  0  0  0  0  0  0  0  0  0  0
   -7.0536    4.2335   -0.6992 H   0  0  0  0  0  0  0  0  0  0  0  0
   -5.2275    5.6228   -0.2269 H   0  0  0  0  0  0  0  0  0  0  0  0
   -4.4238    4.2188   -0.9839 H   0  0  0  0  0  0  0  0  0  0  0  0
   -3.7097    4.8336    0.5096 H   0  0  0  0  0  0  0  0  0  0  0  0
   -4.9686    4.7667    2.3206 H   0  0  0  0  0  0  0  0  0  0  0  0
   -5.4771    2.1688   -0.7296 H   0  0  0  0  0  0  0  0  0  0  0  0
   -5.8034    1.5410    0.9397 H   0  0  0  0  0  0  0  0  0  0  0  0
   -3.1317    2.7179    0.8949 H   0  0  0  0  0  0  0  0  0  0  0  0
   -1.8794   -2.7653   -0.4948 H   0  0  0  0  0  0  0  0  0  0  0  0
    1.1347    0.9462    1.1979 H   0  0  0  0  0  0  0  0  0  0  0  0
   -0.1668   -3.5719    0.4407 H   0  0  0  0  0  0  0  0  0  0  0  0
    1.7324   -4.9771   -0.0710 H   0  0  0  0  0  0  0  0  0  0  0  0
    3.9743   -4.0265   -0.5348 H   0  0  0  0  0  0  0  0  0  0  0  0
    5.1714   -1.9260   -1.2714 H   0  0  0  0  0  0  0  0  0  0  0  0
    6.8145   -0.5745   -1.0855 H   0  0  0  0  0  0  0  0  0  0  0  0
    5.9301    2.1187    1.3250 H   0  0  0  0  0  0  0  0  0  0  0  0
    7.4998    3.8832    1.9858 H   0  0  0  0  0  0  0  0  0  0  0  0
    9.8398    3.7882    1.0802 H   0  0  0  0  0  0  0  0  0  0  0  0
    8.9574    0.2178   -1.0168 H   0  0  0  0  0  0  0  0  0  0  0  0
    2.3162   -0.1422   -0.0195 H   0  0  0  0  0  0  0  0  0  0  0  0
   -3.3048   -3.8392   -2.0054 H   0  0  0  0  0  0  0  0  0  0  0  0
   -5.0396   -3.7231   -2.4766 H   0  0  0  0  0  0  0  0  0  0  0  0
   -4.4069   -5.8503   -1.3818 H   0  0  0  0  0  0  0  0  0  0  0  0
   -3.9275   -4.9118    0.0528 H   0  0  0  0  0  0  0  0  0  0  0  0
   -7.5614   -3.8138    0.0085 H   0  0  0  0  0  0  0  0  0  0  0  0
   -6.9057   -3.6117   -1.6638 H   0  0  0  0  0  0  0  0  0  0  0  0
   -5.6365   -2.6304    1.0000 H   0  0  0  0  0  0  0  0  0  0  0  0
   -6.3437   -1.6624   -0.4112 H   0  0  0  0  0  0  0  0  0  0  0  0
  1  2  1  0
  2  3  1  0
  2  4  1  0
  2  5  1  0
  5  6  1  0
  6  7  1  0
  7  8  2  0
  8  9  1  0
  9 10  2  0
 10 11  1  0
 11 12  1  0
 12 13  1  0
 13 14  2  0
 14 15  1  0
 12 16  1  0
 16 17  2  0
 17 18  1  0
 18 19  2  0
 19 20  1  0
 20 21  1  0
 21 22  1  0
 22 23  2  0
 22 24  1  0
 24 25  1  0
 25 26  2  0
 26 27  1  0
 27 28  2  0
 28 29  1  0
 29 30  2  0
 29 31  1  0
 31 32  1  0
 31 33  1  0
 31 34  1  0
 20 35  2  0
  9 36  1  0
 36 37  1  0
 37 38  1  0
 38 39  1  0
 39 40  1  0
 40 41  1  0
 15  7  1  0
 35 16  1  0
 41 36  1  0
 15 11  2  0
 30 25  1  0
  1 42  1  0
  1 43  1  0
  1 44  1  0
  3 45  1  0
  3 46  1  0
  3 47  1  0
  4 48  1  0
  5 49  1  0
  5 50  1  0
  6 51  1  0
 10 52  1  0
 13 53  1  0
 17 54  1  0
 18 55  1  0
 19 56  1  0
 21 57  1  0
 24 58  1  0
 26 59  1  0
 27 60  1  0
 28 61  1  0
 30 62  1  0
 35 63  1  0
 37 64  1  0
 37 65  1  0
 38 66  1  0
 38 67  1  0
 40 68  1  0
 40 69  1  0
 41 70  1  0
 41 71  1  0
M  END
$$$$
[H]c1nc(N([H])[H])c([H])c([H])c1/C(=C1\C(=O)N(C([H])([H])C(=O)N([H])C([H])([H])[H])S1(=O)=O)c1c([H])nc(C([H])([H])[H])c([H])c1[H]
     RDKit          3D

 44 46  0  0  0  0  0  0  0  0999 V2000
    6.3329    0.3931    1.5496 C   0  0  0  0  0  0  0  0  0  0  0  0
    5.0141    0.3729    0.9558 N   0  0  0  0  0  0  0  0  0  0  0  0
    4.7867    0.9064   -0.3275 C   0  0  0  0  0  0  0  0  0  0  0  0
    5.7689    1.4231   -0.9732 O   0  0  0  0  0  0  0  0  0  0  0  0
    3.5077    0.9371   -1.0281 C   0  0  0  0  0  0  0  0  0  0  0  0
    2.4561    0.3356   -0.2719 N   0  0  0  0  0  0  0  0  0  0  0  0
    1.5228    0.8216    0.6779 C   0  0  0  0  0  0  0  0  0  0  0  0
    1.5929    1.6880    1.5860 O   0  0  0  0  0  0  0  0  0  0  0  0
    0.4536   -0.0807    0.1830 C   0  0  0  0  0  0  0  0  0  0  0  0
    1.7326   -1.2349   -0.0856 S   0  0  0  0  0  0  0  0  0  0  0  0
    1.6435   -2.0379   -1.3196 O   0  0  0  0  0  0  0  0  0  0  0  0
    2.1394   -1.9432    1.1510 O   0  0  0  0  0  0  0  0  0  0  0  0
   -0.8406   -0.0347    0.0123 C   0  0  0  0  0  0  0  0  0  0  0  0
   -1.5413    1.2010    0.3757 C   0  0  0  0  0  0  0  0  0  0  0  0
   -2.7462    1.1077    1.0681 C   0  0  0  0  0  0  0  0  0  0  0  0
   -3.3939    2.2762    1.3789 C   0  0  0  0  0  0  0  0  0  0  0  0
   -2.9012    3.5159    1.0354 C   0  0  0  0  0  0  0  0  0  0  0  0
   -3.6541    4.6592    1.4044 N   0  0  0  0  0  0  0  0  0  0  0  0
   -1.7210    3.5955    0.3582 N   0  0  0  0  0  0  0  0  0  0  0  0
   -1.0742    2.4476    0.0466 C   0  0  0  0  0  0  0  0  0  0  0  0
   -1.6161   -1.1618   -0.5344 C   0  0  0  0  0  0  0  0  0  0  0  0
   -1.3247   -2.4280   -0.0990 C   0  0  0  0  0  0  0  0  0  0  0  0
   -2.0442   -3.4837   -0.6378 C   0  0  0  0  0  0  0  0  0  0  0  0
   -3.0240   -3.2822   -1.5820 C   0  0  0  0  0  0  0  0  0  0  0  0
   -3.8113   -4.4167   -2.1776 C   0  0  0  0  0  0  0  0  0  0  0  0
   -3.2550   -2.0042   -1.9620 N   0  0  0  0  0  0  0  0  0  0  0  0
   -2.5986   -0.9543   -1.4812 C   0  0  0  0  0  0  0  0  0  0  0  0
    6.5170    1.2879    2.1650 H   0  0  0  0  0  0  0  0  0  0  0  0
    6.5464   -0.4928    2.1727 H   0  0  0  0  0  0  0  0  0  0  0  0
    7.0708    0.4152    0.7152 H   0  0  0  0  0  0  0  0  0  0  0  0
    4.2443   -0.0427    1.5099 H   0  0  0  0  0  0  0  0  0  0  0  0
    3.2024    1.9848   -1.3164 H   0  0  0  0  0  0  0  0  0  0  0  0
    3.5857    0.3681   -1.9973 H   0  0  0  0  0  0  0  0  0  0  0  0
   -3.1028    0.1240    1.3219 H   0  0  0  0  0  0  0  0  0  0  0  0
   -4.3366    2.1892    1.9223 H   0  0  0  0  0  0  0  0  0  0  0  0
   -4.6780    4.5626    1.5391 H   0  0  0  0  0  0  0  0  0  0  0  0
   -3.2059    5.5867    1.5413 H   0  0  0  0  0  0  0  0  0  0  0  0
   -0.1372    2.5632   -0.5050 H   0  0  0  0  0  0  0  0  0  0  0  0
   -0.5707   -2.6301    0.6425 H   0  0  0  0  0  0  0  0  0  0  0  0
   -1.8544   -4.5051   -0.3271 H   0  0  0  0  0  0  0  0  0  0  0  0
   -4.1825   -4.1160   -3.1676 H   0  0  0  0  0  0  0  0  0  0  0  0
   -4.6205   -4.7137   -1.5000 H   0  0  0  0  0  0  0  0  0  0  0  0
   -3.0940   -5.2678   -2.2293 H   0  0  0  0  0  0  0  0  0  0  0  0
   -2.7889    0.0678   -1.7903 H   0  0  0  0  0  0  0  0  0  0  0  0
  1  2  1  0
  2  3  1  0
  3  4  2  0
  3  5  1  0
  5  6  1  0
  6  7  1  0
  7  8  2  0
  7  9  1  0
  9 10  1  0
 10 11  2  0
 10 12  2  0
  9 13  2  0
 13 14  1  0
 14 15  2  0
 15 16  1  0
 16 17  2  0
 17 18  1  0
 17 19  1  0
 19 20  2  0
 13 21  1  0
 21 22  2  0
 22 23  1  0
 23 24  2  0
 24 25  1  0
 24 26  1  0
 26 27  2  0
 10  6  1  0
 20 14  1  0
 27 21  1  0
  1 28  1  0
  1 29  1  0
  1 30  1  0
  2 31  1  0
  5 32  1  0
  5 33  1  0
 15 34  1  0
 16 35  1  0
 18 36  1  0
 18 37  1  0
 20 38  1  0
 22 39  1  0
 23 40  1  0
 25 41  1  0
 25 42  1  0
 25 43  1  0
 27 44  1  0
M  END
$$$$
[H]OC(=O)[C@]1([H])O[C@]([H])([C@@]([H])(O[H])[C@]2([H])O[C@]([H])(n3c([H])c([H])c(=O)n([H])c3=O)[C@]([H])(O[H])[C@]2([H])O[H])[C@@]([H])(OC([H])([H])[H])[C@@]1([H])O[H]
     RDKit          3D

 48 50  0  0  0  0  0  0  0  0999 V2000
    3.2420    0.3515    2.5570 C   0  0  0  0  0  0  0  0  0  0  0  0
    3.3573   -0.3373    1.3841 O   0  0  0  0  0  0  0  0  0  0  0  0
    2.6574    0.2254    0.3020 C   0  0  1  0  0  0  0  0  0  0  0  0
    3.7464    0.7001   -0.7039 C   0  0  1  0  0  0  0  0  0  0  0  0
    4.7992    1.2934   -0.0574 O   0  0  0  0  0  0  0  0  0  0  0  0
    4.0850   -0.6761   -1.2709 C   0  0  1  0  0  0  0  0  0  0  0  0
    2.8544   -1.2047   -1.5164 O   0  0  0  0  0  0  0  0  0  0  0  0
    1.9690   -0.8313   -0.4859 C   0  0  2  0  0  0  0  0  0  0  0  0
    0.6554   -0.3877   -1.1214 C   0  0  1  0  0  0  0  0  0  0  0  0
    0.2703   -1.4807   -2.0031 O   0  0  0  0  0  0  0  0  0  0  0  0
   -0.4298   -0.4624   -0.0928 C   0  0  2  0  0  0  0  0  0  0  0  0
   -1.7011   -0.3333   -0.7055 O   0  0  0  0  0  0  0  0  0  0  0  0
   -2.5104   -0.5199    0.4161 C   0  0  1  0  0  0  0  0  0  0  0  0
   -1.9158    0.3155    1.5059 C   0  0  2  0  0  0  0  0  0  0  0  0
   -2.6215    1.4445    1.8124 O   0  0  0  0  0  0  0  0  0  0  0  0
   -0.5324    0.6606    0.8856 C   0  0  2  0  0  0  0  0  0  0  0  0
   -0.6366    1.8973    0.2421 O   0  0  0  0  0  0  0  0  0  0  0  0
   -3.8875   -0.2928    0.1706 N   0  0  0  0  0  0  0  0  0  0  0  0
   -4.3183    0.7696   -0.5259 C   0  0  0  0  0  0  0  0  0  0  0  0
   -5.6742    0.9695   -0.7528 C   0  0  0  0  0  0  0  0  0  0  0  0
   -6.5968    0.0774   -0.2645 C   0  0  0  0  0  0  0  0  0  0  0  0
   -7.8418    0.2011   -0.4355 O   0  0  0  0  0  0  0  0  0  0  0  0
   -6.1165   -0.9870    0.4370 N   0  0  0  0  0  0  0  0  0  0  0  0
   -4.8029   -1.1548    0.6406 C   0  0  0  0  0  0  0  0  0  0  0  0
   -4.4601   -2.1867    1.3115 O   0  0  0  0  0  0  0  0  0  0  0  0
    4.8891   -0.5644   -2.4929 C   0  0  0  0  0  0  0  0  0  0  0  0
    6.1746   -0.0444   -2.4254 O   0  0  0  0  0  0  0  0  0  0  0  0
    4.4773   -0.9216   -3.6433 O   0  0  0  0  0  0  0  0  0  0  0  0
    2.2169    0.4253    2.9072 H   0  0  0  0  0  0  0  0  0  0  0  0
    3.8078   -0.2313    3.3346 H   0  0  0  0  0  0  0  0  0  0  0  0
    3.7014    1.3533    2.4087 H   0  0  0  0  0  0  0  0  0  0  0  0
    2.1028    1.1252    0.5506 H   0  0  0  0  0  0  0  0  0  0  0  0
    3.2184    1.3167   -1.4375 H   0  0  0  0  0  0  0  0  0  0  0  0
    5.1353    2.0410   -0.6409 H   0  0  0  0  0  0  0  0  0  0  0  0
    4.6094   -1.2386   -0.4660 H   0  0  0  0  0  0  0  0  0  0  0  0
    1.8322   -1.7275    0.1432 H   0  0  0  0  0  0  0  0  0  0  0  0
    0.7006    0.4804   -1.7353 H   0  0  0  0  0  0  0  0  0  0  0  0
    1.0185   -1.6408   -2.6258 H   0  0  0  0  0  0  0  0  0  0  0  0
   -0.4109   -1.4309    0.3955 H   0  0  0  0  0  0  0  0  0  0  0  0
   -2.3494   -1.5996    0.7105 H   0  0  0  0  0  0  0  0  0  0  0  0
   -1.6708   -0.2825    2.4069 H   0  0  0  0  0  0  0  0  0  0  0  0
   -2.9971    1.3566    2.7310 H   0  0  0  0  0  0  0  0  0  0  0  0
    0.2151    0.6774    1.6868 H   0  0  0  0  0  0  0  0  0  0  0  0
   -0.6503    1.8047   -0.7391 H   0  0  0  0  0  0  0  0  0  0  0  0
   -3.6484    1.5117   -0.9394 H   0  0  0  0  0  0  0  0  0  0  0  0
   -6.0456    1.8195   -1.3121 H   0  0  0  0  0  0  0  0  0  0  0  0
   -6.7918   -1.6764    0.8171 H   0  0  0  0  0  0  0  0  0  0  0  0
    6.8741   -0.6051   -1.9509 H   0  0  0  0  0  0  0  0  0  0  0  0
  1  2  1  0
  2  3  1  0
  3  4  1  0
  4  5  1  0
  4  6  1  0
  6  7  1  0
  7  8  1  0
  8  9  1  0
  9 10  1  0
  9 11  1  0
 11 12  1  0
 12 13  1  0
 13 14  1  0
 14 15  1  0
 14 16  1  0
 16 17  1  0
 13 18  1  0
 18 19  1  0
 19 20  2  0
 20 21  1  0
 21 22  2  0
 21 23  1  0
 23 24  1  0
 24 25  2  0
  6 26  1  0
 26 27  1  0
 26 28  2  0
  8  3  1  0
 16 11  1  0
 24 18  1  0
  1 29  1  0
  1 30  1  0
  1 31  1  0
  3 32  1  1
  4 33  1  6
  5 34  1  0
  6 35  1  1
  8 36  1  1
  9 37  1  6
 10 38  1  0
 11 39  1  1
 13 40  1  1
 14 41  1  1
 15 42  1  0
 16 43  1  1
 17 44  1  0
 19 45  1  0
 20 46  1  0
 23 47  1  0
 27 48  1  0
M  END
$$$$
[H]c1nc([H])c2nc(-c3c([H])c([H])c(Cl)c([H])c3[H])n([H])c2c1[H]
     RDKit          3D

 24 26  0  0  0  0  0  0  0  0999 V2000
    5.9567   -0.5910    0.2425 Cl  0  0  0  0  0  0  0  0  0  0  0  0
    4.2161   -0.3798    0.1386 C   0  0  0  0  0  0  0  0  0  0  0  0
    3.6570    0.5569   -0.7071 C   0  0  0  0  0  0  0  0  0  0  0  0
    2.2878    0.7140   -0.7804 C   0  0  0  0  0  0  0  0  0  0  0  0
    1.4258   -0.0484   -0.0212 C   0  0  0  0  0  0  0  0  0  0  0  0
    1.9740   -0.9869    0.8268 C   0  0  0  0  0  0  0  0  0  0  0  0
    3.3419   -1.1377    0.8942 C   0  0  0  0  0  0  0  0  0  0  0  0
   -0.0344    0.1287   -0.1083 C   0  0  0  0  0  0  0  0  0  0  0  0
   -0.6986    0.9913   -0.8791 N   0  0  0  0  0  0  0  0  0  0  0  0
   -2.0101    0.8420   -0.6690 C   0  0  0  0  0  0  0  0  0  0  0  0
   -3.1516    1.4611   -1.1865 C   0  0  0  0  0  0  0  0  0  0  0  0
   -4.3424    1.0640   -0.7513 N   0  0  0  0  0  0  0  0  0  0  0  0
   -4.5347    0.1012    0.1593 C   0  0  0  0  0  0  0  0  0  0  0  0
   -3.4430   -0.5343    0.6947 C   0  0  0  0  0  0  0  0  0  0  0  0
   -2.1695   -0.1479    0.2650 C   0  0  0  0  0  0  0  0  0  0  0  0
   -0.9337   -0.5690    0.5924 N   0  0  0  0  0  0  0  0  0  0  0  0
    4.3328    1.1542   -1.3019 H   0  0  0  0  0  0  0  0  0  0  0  0
    1.8588    1.4575   -1.4525 H   0  0  0  0  0  0  0  0  0  0  0  0
    1.3012   -1.6010    1.4370 H   0  0  0  0  0  0  0  0  0  0  0  0
    3.7831   -1.8708    1.5559 H   0  0  0  0  0  0  0  0  0  0  0  0
   -3.0186    2.2396   -1.9215 H   0  0  0  0  0  0  0  0  0  0  0  0
   -5.5426   -0.1868    0.4828 H   0  0  0  0  0  0  0  0  0  0  0  0
   -3.5114   -1.3250    1.4377 H   0  0  0  0  0  0  0  0  0  0  0  0
   -0.7446   -1.3319    1.2955 H   0  0  0  0  0  0  0  0  0  0  0  0
  1  2  1  0
  2  3  2  0
  3  4  1  0
  4  5  2  0
  5  6  1  0
  6  7  2  0
  5  8  1  0
  8  9  2  0
  9 10  1  0
 10 11  2  0
 11 12  1  0
 12 13  2  0
 13 14  1  0
 14 15  2  0
 15 16  1  0
  7  2  1  0
 16  8  1  0
 15 10  1  0
  3 17  1  0
  4 18  1  0
  6 19  1  0
  7 20  1  0
 11 21  1  0
 13 22  1  0
 14 23  1  0
 16 24  1  0
M  END
$$$$
[H]OC(=O)c1c([H])c(N([H])C(=O)C([H])(c2c([H])c(OC([H])([H])[H])c(OC([H])([H])[H])c(OC([H])([H])[H])c2[H])C([H])([H])[H])c([H])c([H])c1C([H])([H])[H]
     RDKit          3D

 50 51  0  0  0  0  0  0  0  0999 V2000
   -4.4104   -1.4088   -0.6121 C   0  0  0  0  0  0  0  0  0  0  0  0
   -4.1025   -0.0628   -0.8092 O   0  0  0  0  0  0  0  0  0  0  0  0
   -3.1700    0.7028   -0.1715 C   0  0  0  0  0  0  0  0  0  0  0  0
   -2.3404    0.2220    0.8393 C   0  0  0  0  0  0  0  0  0  0  0  0
   -1.4083    1.0047    1.4698 C   0  0  0  0  0  0  0  0  0  0  0  0
   -1.3157    2.3414    1.0516 C   0  0  0  0  0  0  0  0  0  0  0  0
   -2.1374    2.8125    0.0519 C   0  0  0  0  0  0  0  0  0  0  0  0
   -2.0383    4.1442   -0.3580 O   0  0  0  0  0  0  0  0  0  0  0  0
   -1.1117    5.0580    0.2180 C   0  0  0  0  0  0  0  0  0  0  0  0
   -3.0721    2.0397   -0.5850 C   0  0  0  0  0  0  0  0  0  0  0  0
   -3.8983    2.5176   -1.5905 O   0  0  0  0  0  0  0  0  0  0  0  0
   -3.4785    2.4455   -2.9410 C   0  0  0  0  0  0  0  0  0  0  0  0
   -0.5126    0.5213    2.5488 C   0  0  0  0  0  0  0  0  0  0  0  0
   -1.3211    0.0491    3.7334 C   0  0  0  0  0  0  0  0  0  0  0  0
    0.3924   -0.5765    2.1078 C   0  0  0  0  0  0  0  0  0  0  0  0
    0.3693   -1.6260    2.7755 O   0  0  0  0  0  0  0  0  0  0  0  0
    1.2032   -0.3712    0.9891 N   0  0  0  0  0  0  0  0  0  0  0  0
    2.1338   -1.2494    0.4067 C   0  0  0  0  0  0  0  0  0  0  0  0
    2.6422   -2.3365    1.0626 C   0  0  0  0  0  0  0  0  0  0  0  0
    3.5530   -3.1614    0.4090 C   0  0  0  0  0  0  0  0  0  0  0  0
    3.9687   -2.9231   -0.8889 C   0  0  0  0  0  0  0  0  0  0  0  0
    4.9462   -3.8605   -1.5155 C   0  0  0  0  0  0  0  0  0  0  0  0
    3.4712   -1.8419   -1.5584 C   0  0  0  0  0  0  0  0  0  0  0  0
    2.5652   -1.0298   -0.8963 C   0  0  0  0  0  0  0  0  0  0  0  0
    3.8544   -1.5100   -2.9142 C   0  0  0  0  0  0  0  0  0  0  0  0
    4.8255   -2.2226   -3.5761 O   0  0  0  0  0  0  0  0  0  0  0  0
    3.2609   -0.5269   -3.4824 O   0  0  0  0  0  0  0  0  0  0  0  0
   -5.4821   -1.6578   -0.7658 H   0  0  0  0  0  0  0  0  0  0  0  0
   -4.0777   -1.7020    0.4088 H   0  0  0  0  0  0  0  0  0  0  0  0
   -3.8618   -2.0750   -1.3428 H   0  0  0  0  0  0  0  0  0  0  0  0
   -2.4163   -0.8083    1.1577 H   0  0  0  0  0  0  0  0  0  0  0  0
   -0.5802    2.9608    1.5509 H   0  0  0  0  0  0  0  0  0  0  0  0
   -1.4311    5.4569    1.1873 H   0  0  0  0  0  0  0  0  0  0  0  0
   -0.9315    5.9071   -0.4740 H   0  0  0  0  0  0  0  0  0  0  0  0
   -0.1506    4.5210    0.3179 H   0  0  0  0  0  0  0  0  0  0  0  0
   -4.2561    2.9266   -3.5917 H   0  0  0  0  0  0  0  0  0  0  0  0
   -3.3888    1.3845   -3.2750 H   0  0  0  0  0  0  0  0  0  0  0  0
   -2.5289    2.9479   -3.1517 H   0  0  0  0  0  0  0  0  0  0  0  0
    0.0889    1.3855    2.9118 H   0  0  0  0  0  0  0  0  0  0  0  0
   -2.1225    0.7771    3.9910 H   0  0  0  0  0  0  0  0  0  0  0  0
   -1.8651   -0.8946    3.4303 H   0  0  0  0  0  0  0  0  0  0  0  0
   -0.6451   -0.1421    4.5953 H   0  0  0  0  0  0  0  0  0  0  0  0
    1.1192    0.5816    0.5002 H   0  0  0  0  0  0  0  0  0  0  0  0
    2.3791   -2.5908    2.0821 H   0  0  0  0  0  0  0  0  0  0  0  0
    3.9466   -4.0235    0.9491 H   0  0  0  0  0  0  0  0  0  0  0  0
    4.5210   -4.2967   -2.4335 H   0  0  0  0  0  0  0  0  0  0  0  0
    5.2239   -4.6721   -0.7924 H   0  0  0  0  0  0  0  0  0  0  0  0
    5.8695   -3.3370   -1.7468 H   0  0  0  0  0  0  0  0  0  0  0  0
    2.1496   -0.1582   -1.4137 H   0  0  0  0  0  0  0  0  0  0  0  0
    5.5717   -1.6425   -3.9958 H   0  0  0  0  0  0  0  0  0  0  0  0
  1  2  1  0
  2  3  1  0
  3  4  2  0
  4  5  1  0
  5  6  2  0
  6  7  1  0
  7  8  1  0
  8  9  1  0
  7 10  2  0
 10 11  1  0
 11 12  1  0
  5 13  1  0
 13 14  1  0
 13 15  1  0
 15 16  2  0
 15 17  1  0
 17 18  1  0
 18 19  2  0
 19 20  1  0
 20 21  2  0
 21 22  1  0
 21 23  1  0
 23 24  2  0
 23 25  1  0
 25 26  1  0
 25 27  2  0
 10  3  1  0
 24 18  1  0
  1 28  1  0
  1 29  1  0
  1 30  1  0
  4 31  1  0
  6 32  1  0
  9 33  1  0
  9 34  1  0
  9 35  1  0
 12 36  1  0
 12 37  1  0
 12 38  1  0
 13 39  1  0
 14 40  1  0
 14 41  1  0
 14 42  1  0
 17 43  1  0
 19 44  1  0
 20 45  1  0
 22 46  1  0
 22 47  1  0
 22 48  1  0
 24 49  1  0
 26 50  1  0
M  END
$$$$
[H]c1nc2c(nc1N([H])C1=C(c3c([H])c([H])c([H])c([H])c3[H])C(=O)N([H])C1=O)c(-c1c([H])c([H])c(C([H])([H])N3C([H])([H])C([H])([H])C([H])([H])C([H])([H])C3([H])[H])c([H])c1[H])c([H])n2[H]
     RDKit          3D

 62 67  0  0  0  0  0  0  0  0999 V2000
   -8.5830   -0.1077   -1.2049 O   0  0  0  0  0  0  0  0  0  0  0  0
   -7.4829   -0.6301   -1.5377 C   0  0  0  0  0  0  0  0  0  0  0  0
   -7.3129   -1.7717   -2.3481 N   0  0  0  0  0  0  0  0  0  0  0  0
   -5.9334   -2.0039   -2.4633 C   0  0  0  0  0  0  0  0  0  0  0  0
   -5.3618   -2.9400   -3.1122 O   0  0  0  0  0  0  0  0  0  0  0  0
   -5.2806   -0.9540   -1.6878 C   0  0  0  0  0  0  0  0  0  0  0  0
   -3.8511   -0.8345   -1.5412 N   0  0  0  0  0  0  0  0  0  0  0  0
   -3.1816   -1.5704   -0.5156 C   0  0  0  0  0  0  0  0  0  0  0  0
   -3.9151   -2.3963    0.3112 C   0  0  0  0  0  0  0  0  0  0  0  0
   -3.3140   -3.1094    1.2946 N   0  0  0  0  0  0  0  0  0  0  0  0
   -1.9782   -2.9856    1.4383 C   0  0  0  0  0  0  0  0  0  0  0  0
   -1.1020   -3.5403    2.2927 N   0  0  0  0  0  0  0  0  0  0  0  0
    0.1421   -3.1141    2.0560 C   0  0  0  0  0  0  0  0  0  0  0  0
    0.1040   -2.2217    0.9814 C   0  0  0  0  0  0  0  0  0  0  0  0
    1.2498   -1.5259    0.4089 C   0  0  0  0  0  0  0  0  0  0  0  0
    2.4486   -2.1785    0.1352 C   0  0  0  0  0  0  0  0  0  0  0  0
    3.5159   -1.5053   -0.4001 C   0  0  0  0  0  0  0  0  0  0  0  0
    3.4229   -0.1600   -0.6797 C   0  0  0  0  0  0  0  0  0  0  0  0
    4.5776    0.5425   -1.2484 C   0  0  0  0  0  0  0  0  0  0  0  0
    5.1653    1.4608   -0.3323 N   0  0  0  0  0  0  0  0  0  0  0  0
    6.2884    2.0969   -1.0095 C   0  0  0  0  0  0  0  0  0  0  0  0
    7.1609    2.8147   -0.0028 C   0  0  0  0  0  0  0  0  0  0  0  0
    7.7717    1.8159    0.9406 C   0  0  0  0  0  0  0  0  0  0  0  0
    7.0128    0.5033    0.9634 C   0  0  0  0  0  0  0  0  0  0  0  0
    5.5290    0.8891    0.9197 C   0  0  0  0  0  0  0  0  0  0  0  0
    2.2225    0.4970   -0.4065 C   0  0  0  0  0  0  0  0  0  0  0  0
    1.1742   -0.1838    0.1239 C   0  0  0  0  0  0  0  0  0  0  0  0
   -1.2235   -2.1573    0.6136 C   0  0  0  0  0  0  0  0  0  0  0  0
   -1.8526   -1.4699   -0.3454 N   0  0  0  0  0  0  0  0  0  0  0  0
   -6.1527   -0.1319   -1.1321 C   0  0  0  0  0  0  0  0  0  0  0  0
   -5.8973    1.0369   -0.2932 C   0  0  0  0  0  0  0  0  0  0  0  0
   -4.8741    1.9261   -0.5170 C   0  0  0  0  0  0  0  0  0  0  0  0
   -4.6577    3.0191    0.3006 C   0  0  0  0  0  0  0  0  0  0  0  0
   -5.4720    3.2493    1.3749 C   0  0  0  0  0  0  0  0  0  0  0  0
   -6.5217    2.3536    1.6198 C   0  0  0  0  0  0  0  0  0  0  0  0
   -6.7164    1.2692    0.7877 C   0  0  0  0  0  0  0  0  0  0  0  0
   -8.0657   -2.3586   -2.7960 H   0  0  0  0  0  0  0  0  0  0  0  0
   -3.2760   -0.2296   -2.1628 H   0  0  0  0  0  0  0  0  0  0  0  0
   -4.9814   -2.4720    0.1682 H   0  0  0  0  0  0  0  0  0  0  0  0
   -1.3766   -4.2202    3.0449 H   0  0  0  0  0  0  0  0  0  0  0  0
    1.0503   -3.3861    2.5795 H   0  0  0  0  0  0  0  0  0  0  0  0
    2.4857   -3.2517    0.3708 H   0  0  0  0  0  0  0  0  0  0  0  0
    4.4241   -2.0477   -0.5967 H   0  0  0  0  0  0  0  0  0  0  0  0
    5.3094   -0.2020   -1.6578 H   0  0  0  0  0  0  0  0  0  0  0  0
    4.2102    1.0977   -2.1564 H   0  0  0  0  0  0  0  0  0  0  0  0
    6.9002    1.2906   -1.4626 H   0  0  0  0  0  0  0  0  0  0  0  0
    5.8646    2.7844   -1.7554 H   0  0  0  0  0  0  0  0  0  0  0  0
    6.5475    3.5553    0.5864 H   0  0  0  0  0  0  0  0  0  0  0  0
    7.9396    3.3803   -0.5583 H   0  0  0  0  0  0  0  0  0  0  0  0
    8.8082    1.6202    0.6200 H   0  0  0  0  0  0  0  0  0  0  0  0
    7.8234    2.2534    1.9718 H   0  0  0  0  0  0  0  0  0  0  0  0
    7.2606   -0.1398    0.1114 H   0  0  0  0  0  0  0  0  0  0  0  0
    7.1846    0.0193    1.9530 H   0  0  0  0  0  0  0  0  0  0  0  0
    4.9615    0.0082    1.2105 H   0  0  0  0  0  0  0  0  0  0  0  0
    5.4228    1.7074    1.6873 H   0  0  0  0  0  0  0  0  0  0  0  0
    2.1926    1.5630   -0.6447 H   0  0  0  0  0  0  0  0  0  0  0  0
    0.2419    0.3452    0.3315 H   0  0  0  0  0  0  0  0  0  0  0  0
   -4.2074    1.7903   -1.3511 H   0  0  0  0  0  0  0  0  0  0  0  0
   -3.8390    3.6712    0.0642 H   0  0  0  0  0  0  0  0  0  0  0  0
   -5.3136    4.1037    2.0252 H   0  0  0  0  0  0  0  0  0  0  0  0
   -7.1624    2.5352    2.4655 H   0  0  0  0  0  0  0  0  0  0  0  0
   -7.5259    0.6000    0.9964 H   0  0  0  0  0  0  0  0  0  0  0  0
  1  2  2  0
  2  3  1  0
  3  4  1  0
  4  5  2  0
  4  6  1  0
  6  7  1  0
  7  8  1  0
  8  9  2  0
  9 10  1  0
 10 11  2  0
 11 12  1  0
 12 13  1  0
 13 14  2  0
 14 15  1  0
 15 16  2  0
 16 17  1  0
 17 18  2  0
 18 19  1  0
 19 20  1  0
 20 21  1  0
 21 22  1  0
 22 23  1  0
 23 24  1  0
 24 25  1  0
 18 26  1  0
 26 27  2  0
 14 28  1  0
 28 29  2  0
  6 30  2  0
 30 31  1  0
 31 32  2  0
 32 33  1  0
 33 34  2  0
 34 35  1  0
 35 36  2  0
 30  2  1  0
 36 31  1  0
 29  8  1  0
 28 11  1  0
 27 15  1  0
 25 20  1  0
  3 37  1  0
  7 38  1  0
  9 39  1  0
 12 40  1  0
 13 41  1  0
 16 42  1  0
 17 43  1  0
 19 44  1  0
 19 45  1  0
 21 46  1  0
 21 47  1  0
 22 48  1  0
 22 49  1  0
 23 50  1  0
 23 51  1  0
 24 52  1  0
 24 53  1  0
 25 54  1  0
 25 55  1  0
 26 56  1  0
 27 57  1  0
 32 58  1  0
 33 59  1  0
 34 60  1  0
 35 61  1  0
 36 62  1  0
M  END
$$$$
[H]c1sc(-c2nc(N([H])C([H])([H])[C@]3([H])N(C([H])([H])[H])C([H])([H])C([H])([H])C3([H])[H])n3nc(-c4c(F)c([H])c(Cl)c(Cl)c4F)nc3c2[H])c([H])c1[H]
     RDKit          3D

 50 54  0  0  0  0  0  0  0  0999 V2000
   -4.6534    0.2064    0.0040 C   0  0  0  0  0  0  0  0  0  0  0  0
   -3.7381   -0.8777    0.2988 N   0  0  0  0  0  0  0  0  0  0  0  0
   -4.4291   -2.0948    0.6482 C   0  0  0  0  0  0  0  0  0  0  0  0
   -3.3147   -3.1154    0.5483 C   0  0  0  0  0  0  0  0  0  0  0  0
   -2.7680   -2.7416   -0.8372 C   0  0  0  0  0  0  0  0  0  0  0  0
   -2.8694   -1.2120   -0.7840 C   0  0  2  0  0  0  0  0  0  0  0  0
   -1.4386   -0.7300   -0.5827 C   0  0  0  0  0  0  0  0  0  0  0  0
   -1.3589    0.6852   -0.4431 N   0  0  0  0  0  0  0  0  0  0  0  0
   -0.1336    1.3566   -0.2428 C   0  0  0  0  0  0  0  0  0  0  0  0
   -0.1295    2.7128   -0.1173 N   0  0  0  0  0  0  0  0  0  0  0  0
    0.9899    3.4060    0.0731 C   0  0  0  0  0  0  0  0  0  0  0  0
    2.1759    2.7198    0.1438 C   0  0  0  0  0  0  0  0  0  0  0  0
    2.2113    1.3260    0.0193 C   0  0  0  0  0  0  0  0  0  0  0  0
    3.1968    0.4250    0.0475 N   0  0  0  0  0  0  0  0  0  0  0  0
    2.6576   -0.8153   -0.1278 C   0  0  0  0  0  0  0  0  0  0  0  0
    1.3374   -0.6059   -0.2576 N   0  0  0  0  0  0  0  0  0  0  0  0
    1.0377    0.6777   -0.1731 N   0  0  0  0  0  0  0  0  0  0  0  0
    3.3802   -2.0785   -0.1626 C   0  0  0  0  0  0  0  0  0  0  0  0
    3.5844   -2.7769    0.9984 C   0  0  0  0  0  0  0  0  0  0  0  0
    3.1352   -2.3359    2.2011 F   0  0  0  0  0  0  0  0  0  0  0  0
    4.2705   -3.9836    0.9904 C   0  0  0  0  0  0  0  0  0  0  0  0
    4.7580   -4.5014   -0.1802 C   0  0  0  0  0  0  0  0  0  0  0  0
    5.6336   -6.0276   -0.2370 Cl  0  0  0  0  0  0  0  0  0  0  0  0
    4.5540   -3.8002   -1.3519 C   0  0  0  0  0  0  0  0  0  0  0  0
    5.1620   -4.4314   -2.8617 Cl  0  0  0  0  0  0  0  0  0  0  0  0
    3.8635   -2.5882   -1.3357 C   0  0  0  0  0  0  0  0  0  0  0  0
    3.7030   -1.9600   -2.5206 F   0  0  0  0  0  0  0  0  0  0  0  0
    1.0301    4.8684    0.2125 C   0  0  0  0  0  0  0  0  0  0  0  0
   -0.0406    5.7201    0.1700 C   0  0  0  0  0  0  0  0  0  0  0  0
    0.2120    7.0343    0.3197 C   0  0  0  0  0  0  0  0  0  0  0  0
    1.5171    7.4029    0.5012 C   0  0  0  0  0  0  0  0  0  0  0  0
    2.3478    5.9173    0.4582 S   0  0  0  0  0  0  0  0  0  0  0  0
   -4.3805    1.0364    0.7099 H   0  0  0  0  0  0  0  0  0  0  0  0
   -4.5548    0.6049   -1.0093 H   0  0  0  0  0  0  0  0  0  0  0  0
   -5.7072   -0.0622    0.1971 H   0  0  0  0  0  0  0  0  0  0  0  0
   -4.8964   -2.0638    1.6440 H   0  0  0  0  0  0  0  0  0  0  0  0
   -5.1713   -2.3780   -0.1517 H   0  0  0  0  0  0  0  0  0  0  0  0
   -3.6882   -4.1572    0.5638 H   0  0  0  0  0  0  0  0  0  0  0  0
   -2.5620   -2.8849    1.2997 H   0  0  0  0  0  0  0  0  0  0  0  0
   -3.4722   -3.1548   -1.5982 H   0  0  0  0  0  0  0  0  0  0  0  0
   -1.7455   -3.0959   -0.9653 H   0  0  0  0  0  0  0  0  0  0  0  0
   -3.2565   -0.8911   -1.7699 H   0  0  0  0  0  0  0  0  0  0  0  0
   -0.8790   -1.0463   -1.4863 H   0  0  0  0  0  0  0  0  0  0  0  0
   -1.0874   -1.2165    0.3451 H   0  0  0  0  0  0  0  0  0  0  0  0
   -2.2406    1.2303   -0.4930 H   0  0  0  0  0  0  0  0  0  0  0  0
    3.1011    3.2623    0.2984 H   0  0  0  0  0  0  0  0  0  0  0  0
    4.4258   -4.5237    1.9045 H   0  0  0  0  0  0  0  0  0  0  0  0
   -1.0708    5.3150    0.0162 H   0  0  0  0  0  0  0  0  0  0  0  0
   -0.5928    7.8076    0.3001 H   0  0  0  0  0  0  0  0  0  0  0  0
    1.8939    8.4358    0.6391 H   0  0  0  0  0  0  0  0  0  0  0  0
  1  2  1  0
  2  3  1  0
  3  4  1  0
  4  5  1  0
  5  6  1  0
  6  7  1  0
  7  8  1  0
  8  9  1  0
  9 10  2  0
 10 11  1  0
 11 12  2  0
 12 13  1  0
 13 14  2  0
 14 15  1  0
 15 16  2  0
 16 17  1  0
 15 18  1  0
 18 19  2  0
 19 20  1  0
 19 21  1  0
 21 22  2  0
 22 23  1  0
 22 24  1  0
 24 25  1  0
 24 26  2  0
 26 27  1  0
 11 28  1  0
 28 29  2  0
 29 30  1  0
 30 31  2  0
 31 32  1  0
  6  2  1  0
 17  9  1  0
 26 18  1  0
 32 28  1  0
 17 13  1  0
  1 33  1  0
  1 34  1  0
  1 35  1  0
  3 36  1  0
  3 37  1  0
  4 38  1  0
  4 39  1  0
  5 40  1  0
  5 41  1  0
  6 42  1  6
  7 43  1  0
  7 44  1  0
  8 45  1  0
 12 46  1  0
 21 47  1  0
 29 48  1  0
 30 49  1  0
 31 50  1  0
M  END
$$$$
[H]c1nc([H])c([H])c(C([H])([H])N([H])C(=O)c2nc(N([H])c3c([H])c([H])c(F)c(Cl)c3[H])c([H])c([H])c2[H])c1[H]
     RDKit          3D

 39 41  0  0  0  0  0  0  0  0999 V2000
    7.7997    1.6946    0.0747 F   0  0  0  0  0  0  0  0  0  0  0  0
    6.4966    1.3800   -0.1560 C   0  0  0  0  0  0  0  0  0  0  0  0
    5.5571    1.4763    0.8574 C   0  0  0  0  0  0  0  0  0  0  0  0
    4.2217    1.1573    0.6323 C   0  0  0  0  0  0  0  0  0  0  0  0
    3.8335    0.7399   -0.6174 C   0  0  0  0  0  0  0  0  0  0  0  0
    2.5053    0.3884   -0.9035 N   0  0  0  0  0  0  0  0  0  0  0  0
    1.7106   -0.4317   -0.0545 C   0  0  0  0  0  0  0  0  0  0  0  0
    2.1454   -1.0840    1.0653 C   0  0  0  0  0  0  0  0  0  0  0  0
    1.3223   -1.8504    1.8893 C   0  0  0  0  0  0  0  0  0  0  0  0
   -0.0051   -1.9572    1.5547 C   0  0  0  0  0  0  0  0  0  0  0  0
   -0.4328   -1.2961    0.4228 C   0  0  0  0  0  0  0  0  0  0  0  0
    0.3729   -0.5699   -0.3473 N   0  0  0  0  0  0  0  0  0  0  0  0
   -1.8645   -1.4280    0.0823 C   0  0  0  0  0  0  0  0  0  0  0  0
   -2.6442   -2.1186    0.7941 O   0  0  0  0  0  0  0  0  0  0  0  0
   -2.3468   -0.7661   -1.0571 N   0  0  0  0  0  0  0  0  0  0  0  0
   -3.7554   -0.8895   -1.4041 C   0  0  0  0  0  0  0  0  0  0  0  0
   -4.5425   -0.0291   -0.5053 C   0  0  0  0  0  0  0  0  0  0  0  0
   -5.9216   -0.1312   -0.5432 C   0  0  0  0  0  0  0  0  0  0  0  0
   -6.7256    0.6518    0.2751 C   0  0  0  0  0  0  0  0  0  0  0  0
   -6.1346    1.5218    1.1155 N   0  0  0  0  0  0  0  0  0  0  0  0
   -4.7968    1.6541    1.1855 C   0  0  0  0  0  0  0  0  0  0  0  0
   -3.9933    0.8763    0.3723 C   0  0  0  0  0  0  0  0  0  0  0  0
    4.7974    0.6458   -1.6408 C   0  0  0  0  0  0  0  0  0  0  0  0
    6.1177    0.9632   -1.4120 C   0  0  0  0  0  0  0  0  0  0  0  0
    7.3309    0.8508   -2.6748 Cl  0  0  0  0  0  0  0  0  0  0  0  0
    5.8369    1.8020    1.8488 H   0  0  0  0  0  0  0  0  0  0  0  0
    3.5271    1.2621    1.4555 H   0  0  0  0  0  0  0  0  0  0  0  0
    2.0700    0.7546   -1.8040 H   0  0  0  0  0  0  0  0  0  0  0  0
    3.1959   -1.0421    1.3412 H   0  0  0  0  0  0  0  0  0  0  0  0
    1.7101   -2.3500    2.7675 H   0  0  0  0  0  0  0  0  0  0  0  0
   -0.7231   -2.5428    2.1507 H   0  0  0  0  0  0  0  0  0  0  0  0
   -1.7117   -0.1963   -1.6455 H   0  0  0  0  0  0  0  0  0  0  0  0
   -3.8783   -0.5719   -2.4737 H   0  0  0  0  0  0  0  0  0  0  0  0
   -4.1014   -1.9520   -1.3632 H   0  0  0  0  0  0  0  0  0  0  0  0
   -6.3660   -0.8283   -1.2188 H   0  0  0  0  0  0  0  0  0  0  0  0
   -7.8118    0.5501    0.2241 H   0  0  0  0  0  0  0  0  0  0  0  0
   -4.3340    2.3629    1.8710 H   0  0  0  0  0  0  0  0  0  0  0  0
   -2.9311    0.9867    0.4310 H   0  0  0  0  0  0  0  0  0  0  0  0
    4.4697    0.3167   -2.6152 H   0  0  0  0  0  0  0  0  0  0  0  0
  1  2  1  0
  2  3  2  0
  3  4  1  0
  4  5  2  0
  5  6  1  0
  6  7  1  0
  7  8  2  0
  8  9  1  0
  9 10  2  0
 10 11  1  0
 11 12  2  0
 11 13  1  0
 13 14  2  0
 13 15  1  0
 15 16  1  0
 16 17  1  0
 17 18  2  0
 18 19  1  0
 19 20  2  0
 20 21  1  0
 21 22  2  0
  5 23  1  0
 23 24  2  0
 24 25  1  0
 24  2  1  0
 12  7  1  0
 22 17  1  0
  3 26  1  0
  4 27  1  0
  6 28  1  0
  8 29  1  0
  9 30  1  0
 10 31  1  0
 15 32  1  0
 16 33  1  0
 16 34  1  0
 18 35  1  0
 19 36  1  0
 21 37  1  0
 22 38  1  0
 23 39  1  0
M  END
$$$$
[H]C([H])=C([H])C(=O)N1C([H])([H])C([H])([H])N(c2c(C3([H])C([H])([H])C3([H])[H])nc(-n3c([H])nc4c([H])c(-c5noc(C([H])([H])[H])n5)c([H])c([H])c43)c([H])c2F)C([H])([H])C1([H])[H]
     RDKit          3D

 59 64  0  0  0  0  0  0  0  0999 V2000
  -10.6984   -1.5880    0.7127 C   0  0  0  0  0  0  0  0  0  0  0  0
   -9.2166   -1.5893    0.8002 C   0  0  0  0  0  0  0  0  0  0  0  0
   -8.3176   -0.6868    0.3631 N   0  0  0  0  0  0  0  0  0  0  0  0
   -7.0715   -1.0955    0.6580 C   0  0  0  0  0  0  0  0  0  0  0  0
   -7.2299   -2.2720    1.2872 N   0  0  0  0  0  0  0  0  0  0  0  0
   -8.5138   -2.5378    1.3562 O   0  0  0  0  0  0  0  0  0  0  0  0
   -5.8135   -0.4229    0.3669 C   0  0  0  0  0  0  0  0  0  0  0  0
   -4.6057   -0.9782    0.7395 C   0  0  0  0  0  0  0  0  0  0  0  0
   -3.4056   -0.3576    0.4733 C   0  0  0  0  0  0  0  0  0  0  0  0
   -3.3618    0.8514   -0.1804 C   0  0  0  0  0  0  0  0  0  0  0  0
   -2.3304    1.6579   -0.5574 N   0  0  0  0  0  0  0  0  0  0  0  0
   -2.9125    2.7149   -1.1654 C   0  0  0  0  0  0  0  0  0  0  0  0
   -4.2356    2.5890   -1.1750 N   0  0  0  0  0  0  0  0  0  0  0  0
   -4.5566    1.4260   -0.5627 C   0  0  0  0  0  0  0  0  0  0  0  0
   -5.7587    0.7881   -0.2873 C   0  0  0  0  0  0  0  0  0  0  0  0
   -0.9480    1.4172   -0.3448 C   0  0  0  0  0  0  0  0  0  0  0  0
   -0.2583    2.1949    0.5588 C   0  0  0  0  0  0  0  0  0  0  0  0
    1.0837    2.0064    0.8051 C   0  0  0  0  0  0  0  0  0  0  0  0
    1.7267    2.7953    1.7043 F   0  0  0  0  0  0  0  0  0  0  0  0
    1.7859    1.0024    0.1296 C   0  0  0  0  0  0  0  0  0  0  0  0
    3.1877    0.8227    0.3932 N   0  0  0  0  0  0  0  0  0  0  0  0
    4.1285    1.5456   -0.4084 C   0  0  0  0  0  0  0  0  0  0  0  0
    5.2904    0.7138   -0.8490 C   0  0  0  0  0  0  0  0  0  0  0  0
    5.7649   -0.1559    0.2445 N   0  0  0  0  0  0  0  0  0  0  0  0
    4.8134   -0.9068    0.9908 C   0  0  0  0  0  0  0  0  0  0  0  0
    3.6575   -0.0447    1.4391 C   0  0  0  0  0  0  0  0  0  0  0  0
    7.1567   -0.1815    0.4755 C   0  0  0  0  0  0  0  0  0  0  0  0
    7.9531    0.5230   -0.2269 O   0  0  0  0  0  0  0  0  0  0  0  0
    7.7501   -0.9956    1.5051 C   0  0  0  0  0  0  0  0  0  0  0  0
    9.0754   -0.9693    1.6689 C   0  0  0  0  0  0  0  0  0  0  0  0
    1.0779    0.2442   -0.7623 C   0  0  0  0  0  0  0  0  0  0  0  0
   -0.2500    0.4629   -0.9774 N   0  0  0  0  0  0  0  0  0  0  0  0
    1.7443   -0.8430   -1.5224 C   0  0  0  0  0  0  0  0  0  0  0  0
    0.9187   -1.5740   -2.5341 C   0  0  0  0  0  0  0  0  0  0  0  0
    2.0795   -0.7286   -2.9418 C   0  0  0  0  0  0  0  0  0  0  0  0
  -11.0308   -0.5219    0.7856 H   0  0  0  0  0  0  0  0  0  0  0  0
  -11.1443   -2.2168    1.4881 H   0  0  0  0  0  0  0  0  0  0  0  0
  -10.9682   -1.9064   -0.3219 H   0  0  0  0  0  0  0  0  0  0  0  0
   -4.6390   -1.9444    1.2621 H   0  0  0  0  0  0  0  0  0  0  0  0
   -2.4817   -0.8150    0.7758 H   0  0  0  0  0  0  0  0  0  0  0  0
   -2.3099    3.5284   -1.5715 H   0  0  0  0  0  0  0  0  0  0  0  0
   -6.6933    1.2282   -0.5814 H   0  0  0  0  0  0  0  0  0  0  0  0
   -0.7673    2.9772    1.0969 H   0  0  0  0  0  0  0  0  0  0  0  0
    4.4886    2.4291    0.1755 H   0  0  0  0  0  0  0  0  0  0  0  0
    3.6611    1.9778   -1.3271 H   0  0  0  0  0  0  0  0  0  0  0  0
    4.9595    0.0204   -1.6463 H   0  0  0  0  0  0  0  0  0  0  0  0
    6.0952    1.3348   -1.2426 H   0  0  0  0  0  0  0  0  0  0  0  0
    5.2421   -1.3727    1.8962 H   0  0  0  0  0  0  0  0  0  0  0  0
    4.3771   -1.7586    0.4067 H   0  0  0  0  0  0  0  0  0  0  0  0
    4.0645    0.6191    2.2463 H   0  0  0  0  0  0  0  0  0  0  0  0
    2.8401   -0.6780    1.8241 H   0  0  0  0  0  0  0  0  0  0  0  0
    7.1445   -1.6126    2.1274 H   0  0  0  0  0  0  0  0  0  0  0  0
    9.6862   -0.3455    1.0360 H   0  0  0  0  0  0  0  0  0  0  0  0
    9.5039   -1.5853    2.4451 H   0  0  0  0  0  0  0  0  0  0  0  0
    2.3573   -1.4985   -0.8543 H   0  0  0  0  0  0  0  0  0  0  0  0
    1.0695   -2.6518   -2.6285 H   0  0  0  0  0  0  0  0  0  0  0  0
   -0.1022   -1.2095   -2.7845 H   0  0  0  0  0  0  0  0  0  0  0  0
    1.9047    0.1968   -3.5220 H   0  0  0  0  0  0  0  0  0  0  0  0
    3.0330   -1.2339   -3.2624 H   0  0  0  0  0  0  0  0  0  0  0  0
  1  2  1  0
  2  3  2  0
  3  4  1  0
  4  5  2  0
  5  6  1  0
  4  7  1  0
  7  8  2  0
  8  9  1  0
  9 10  2  0
 10 11  1  0
 11 12  1  0
 12 13  2  0
 13 14  1  0
 14 15  2  0
 11 16  1  0
 16 17  2  0
 17 18  1  0
 18 19  1  0
 18 20  2  0
 20 21  1  0
 21 22  1  0
 22 23  1  0
 23 24  1  0
 24 25  1  0
 25 26  1  0
 24 27  1  0
 27 28  2  0
 27 29  1  0
 29 30  2  3
 20 31  1  0
 31 32  2  0
 31 33  1  0
 33 34  1  0
 34 35  1  0
  6  2  1  0
 15  7  1  0
 32 16  1  0
 35 33  1  0
 14 10  1  0
 26 21  1  0
  1 36  1  0
  1 37  1  0
  1 38  1  0
  8 39  1  0
  9 40  1  0
 12 41  1  0
 15 42  1  0
 17 43  1  0
 22 44  1  0
 22 45  1  0
 23 46  1  0
 23 47  1  0
 25 48  1  0
 25 49  1  0
 26 50  1  0
 26 51  1  0
 29 52  1  0
 30 53  1  0
 30 54  1  0
 33 55  1  0
 34 56  1  0
 34 57  1  0
 35 58  1  0
 35 59  1  0
M  END
$$$$
[H]OC([H])([H])[C@]1([H])C([H])([H])[C@]([H])(C([H])([H])C(=S)N([H])C([H])([H])C([H])([H])C([H])([H])C([H])([H])C([H])([H])C([H])([H])C([H])([H])C(=O)SC([H])([H])C([H])([H])c2c([H])c([H])c([H])c([H])c2[H])C([H])([H])C([H])([H])[C@]1(C(=O)[O-])C([H])([H])[H]
     RDKit          3D

 74 75  0  0  0  0  0  0  0  0999 V2000
   -6.6762   -2.2639    2.1408 O   0  0  0  0  0  0  0  0  0  0  0  0
   -7.1392   -1.4243    1.1291 C   0  0  0  0  0  0  0  0  0  0  0  0
   -6.1716   -1.3992   -0.0441 C   0  0  2  0  0  0  0  0  0  0  0  0
   -4.8103   -0.9039    0.3694 C   0  0  0  0  0  0  0  0  0  0  0  0
   -4.4914    0.4445   -0.1829 C   0  0  2  0  0  0  0  0  0  0  0  0
   -3.2418    1.0454    0.4028 C   0  0  0  0  0  0  0  0  0  0  0  0
   -3.2238    1.2498    1.8351 C   0  0  0  0  0  0  0  0  0  0  0  0
   -4.6037    1.3741    2.7471 S   0  0  0  0  0  0  0  0  0  0  0  0
   -2.0269    1.3595    2.5508 N   0  0  0  0  0  0  0  0  0  0  0  0
   -0.6840    1.2831    1.9557 C   0  0  0  0  0  0  0  0  0  0  0  0
   -0.3151    2.4534    1.1386 C   0  0  0  0  0  0  0  0  0  0  0  0
    0.9847    2.5276    0.4622 C   0  0  0  0  0  0  0  0  0  0  0  0
    2.2441    2.5701    1.2283 C   0  0  0  0  0  0  0  0  0  0  0  0
    2.6182    1.4298    2.0892 C   0  0  0  0  0  0  0  0  0  0  0  0
    2.7255    0.0988    1.3904 C   0  0  0  0  0  0  0  0  0  0  0  0
    3.8049    0.2450    0.3075 C   0  0  0  0  0  0  0  0  0  0  0  0
    3.9511   -1.0271   -0.4085 C   0  0  0  0  0  0  0  0  0  0  0  0
    3.2848   -1.9846   -0.0046 O   0  0  0  0  0  0  0  0  0  0  0  0
    4.9954   -1.3309   -1.8105 S   0  0  0  0  0  0  0  0  0  0  0  0
    5.9327    0.0814   -2.3712 C   0  0  0  0  0  0  0  0  0  0  0  0
    7.0101    0.5422   -1.4278 C   0  0  0  0  0  0  0  0  0  0  0  0
    8.0106   -0.5429   -1.1827 C   0  0  0  0  0  0  0  0  0  0  0  0
    7.8674   -1.4443   -0.1630 C   0  0  0  0  0  0  0  0  0  0  0  0
    8.8228   -2.4369    0.0273 C   0  0  0  0  0  0  0  0  0  0  0  0
    9.9159   -2.5388   -0.7868 C   0  0  0  0  0  0  0  0  0  0  0  0
   10.0684   -1.6338   -1.8178 C   0  0  0  0  0  0  0  0  0  0  0  0
    9.1157   -0.6444   -2.0071 C   0  0  0  0  0  0  0  0  0  0  0  0
   -5.6779    1.3268   -0.2535 C   0  0  0  0  0  0  0  0  0  0  0  0
   -6.6084    0.7435   -1.3102 C   0  0  0  0  0  0  0  0  0  0  0  0
   -6.7254   -0.7387   -1.2587 C   0  0  2  0  0  0  0  0  0  0  0  0
   -8.2026   -1.0988   -1.3725 C   0  0  0  0  0  0  0  0  0  0  0  0
   -6.0734   -1.3940   -2.4507 C   0  0  0  0  0  0  0  0  0  0  0  0
   -6.4278   -0.9482   -3.6963 O   0  0  0  0  0  0  0  0  0  0  0  0
   -5.2381   -2.3107   -2.3418 O   0  0  0  0  0  0  0  0  0  0  0  0
   -6.4948   -1.7642    2.9845 H   0  0  0  0  0  0  0  0  0  0  0  0
   -7.3316   -0.4521    1.5770 H   0  0  0  0  0  0  0  0  0  0  0  0
   -8.1079   -1.8496    0.7984 H   0  0  0  0  0  0  0  0  0  0  0  0
   -6.0387   -2.4910   -0.3103 H   0  0  0  0  0  0  0  0  0  0  0  0
   -4.0008   -1.5993   -0.0104 H   0  0  0  0  0  0  0  0  0  0  0  0
   -4.7515   -1.0013    1.4637 H   0  0  0  0  0  0  0  0  0  0  0  0
   -4.2020    0.2499   -1.2716 H   0  0  0  0  0  0  0  0  0  0  0  0
   -2.3827    0.4487    0.0834 H   0  0  0  0  0  0  0  0  0  0  0  0
   -3.2318    2.1001   -0.0525 H   0  0  0  0  0  0  0  0  0  0  0  0
   -1.9946    1.5109    3.5991 H   0  0  0  0  0  0  0  0  0  0  0  0
   -0.7123    0.3950    1.2302 H   0  0  0  0  0  0  0  0  0  0  0  0
    0.0444    0.9785    2.7010 H   0  0  0  0  0  0  0  0  0  0  0  0
   -0.4123    3.3564    1.8484 H   0  0  0  0  0  0  0  0  0  0  0  0
   -1.0910    2.6386    0.3202 H   0  0  0  0  0  0  0  0  0  0  0  0
    1.0388    1.7204   -0.3539 H   0  0  0  0  0  0  0  0  0  0  0  0
    1.0257    3.4657   -0.2151 H   0  0  0  0  0  0  0  0  0  0  0  0
    3.1064    2.8820    0.5496 H   0  0  0  0  0  0  0  0  0  0  0  0
    2.1648    3.4741    1.9115 H   0  0  0  0  0  0  0  0  0  0  0  0
    3.7239    1.6462    2.3712 H   0  0  0  0  0  0  0  0  0  0  0  0
    2.1152    1.4424    3.0452 H   0  0  0  0  0  0  0  0  0  0  0  0
    1.8281   -0.2305    0.8702 H   0  0  0  0  0  0  0  0  0  0  0  0
    3.0028   -0.6642    2.1239 H   0  0  0  0  0  0  0  0  0  0  0  0
    3.5670    1.1069   -0.3330 H   0  0  0  0  0  0  0  0  0  0  0  0
    4.7279    0.5022    0.8807 H   0  0  0  0  0  0  0  0  0  0  0  0
    5.2668    0.9293   -2.6679 H   0  0  0  0  0  0  0  0  0  0  0  0
    6.4361   -0.2067   -3.3360 H   0  0  0  0  0  0  0  0  0  0  0  0
    7.5213    1.4369   -1.8552 H   0  0  0  0  0  0  0  0  0  0  0  0
    6.6017    0.8625   -0.4677 H   0  0  0  0  0  0  0  0  0  0  0  0
    7.0286   -1.4107    0.5062 H   0  0  0  0  0  0  0  0  0  0  0  0
    8.7206   -3.1555    0.8301 H   0  0  0  0  0  0  0  0  0  0  0  0
   10.6861   -3.2987   -0.6735 H   0  0  0  0  0  0  0  0  0  0  0  0
   10.9430   -1.7116   -2.4727 H   0  0  0  0  0  0  0  0  0  0  0  0
    9.2564    0.0489   -2.8166 H   0  0  0  0  0  0  0  0  0  0  0  0
   -5.4113    2.3487   -0.6274 H   0  0  0  0  0  0  0  0  0  0  0  0
   -6.2607    1.4730    0.6500 H   0  0  0  0  0  0  0  0  0  0  0  0
   -6.1939    1.0720   -2.3098 H   0  0  0  0  0  0  0  0  0  0  0  0
   -7.5961    1.2446   -1.1819 H   0  0  0  0  0  0  0  0  0  0  0  0
   -8.5078   -0.9214   -2.4259 H   0  0  0  0  0  0  0  0  0  0  0  0
   -8.8314   -0.5944   -0.6433 H   0  0  0  0  0  0  0  0  0  0  0  0
   -8.2667   -2.1908   -1.2028 H   0  0  0  0  0  0  0  0  0  0  0  0
  1  2  1  0
  2  3  1  0
  3  4  1  0
  4  5  1  0
  5  6  1  0
  6  7  1  0
  7  8  2  0
  7  9  1  0
  9 10  1  0
 10 11  1  0
 11 12  1  0
 12 13  1  0
 13 14  1  0
 14 15  1  0
 15 16  1  0
 16 17  1  0
 17 18  2  0
 17 19  1  0
 19 20  1  0
 20 21  1  0
 21 22  1  0
 22 23  2  0
 23 24  1  0
 24 25  2  0
 25 26  1  0
 26 27  2  0
  5 28  1  0
 28 29  1  0
 29 30  1  0
 30 31  1  0
 30 32  1  6
 32 33  1  0
 32 34  2  0
 30  3  1  0
 27 22  1  0
  1 35  1  0
  2 36  1  0
  2 37  1  0
  3 38  1  6
  4 39  1  0
  4 40  1  0
  5 41  1  6
  6 42  1  0
  6 43  1  0
  9 44  1  0
 10 45  1  0
 10 46  1  0
 11 47  1  0
 11 48  1  0
 12 49  1  0
 12 50  1  0
 13 51  1  0
 13 52  1  0
 14 53  1  0
 14 54  1  0
 15 55  1  0
 15 56  1  0
 16 57  1  0
 16 58  1  0
 20 59  1  0
 20 60  1  0
 21 61  1  0
 21 62  1  0
 23 63  1  0
 24 64  1  0
 25 65  1  0
 26 66  1  0
 27 67  1  0
 28 68  1  0
 28 69  1  0
 29 70  1  0
 29 71  1  0
 31 72  1  0
 31 73  1  0
 31 74  1  0
M  CHG  1  33  -1
M  END
$$$$
[H]/C(C(=O)N([H])c1c(OC([H])([H])C([H])([H])[H])c([H])c2nc([H])c(C#N)c(N([H])c3c([H])c([H])c(OC([H])([H])c4c([H])c([H])c([H])c(F)c4C(F)(F)F)c(Cl)c3[H])c2c1[H])=C(/[H])C([H])([H])N(C([H])([H])[H])C([H])([H])[H]
     RDKit          3D

 73 76  0  0  0  0  0  0  0  0999 V2000
   -6.1784   -3.8967    2.5814 C   0  0  0  0  0  0  0  0  0  0  0  0
   -4.9366   -4.2158    1.8004 C   0  0  0  0  0  0  0  0  0  0  0  0
   -4.3730   -3.0772    1.1887 O   0  0  0  0  0  0  0  0  0  0  0  0
   -3.2216   -3.2023    0.4306 C   0  0  0  0  0  0  0  0  0  0  0  0
   -2.6429   -4.4447    0.2861 C   0  0  0  0  0  0  0  0  0  0  0  0
   -1.5115   -4.6520   -0.4420 C   0  0  0  0  0  0  0  0  0  0  0  0
   -0.9348   -5.8638   -0.5938 N   0  0  0  0  0  0  0  0  0  0  0  0
    0.1825   -6.0445   -1.3200 C   0  0  0  0  0  0  0  0  0  0  0  0
    0.8014   -4.9700   -1.9564 C   0  0  0  0  0  0  0  0  0  0  0  0
    1.9982   -5.1392   -2.7394 C   0  0  0  0  0  0  0  0  0  0  0  0
    2.9576   -5.2653   -3.3664 N   0  0  0  0  0  0  0  0  0  0  0  0
    0.2078   -3.7362   -1.7975 C   0  0  0  0  0  0  0  0  0  0  0  0
    0.7837   -2.5883   -2.4221 N   0  0  0  0  0  0  0  0  0  0  0  0
    1.7666   -1.7938   -1.7820 C   0  0  0  0  0  0  0  0  0  0  0  0
    2.2354   -0.6806   -2.4393 C   0  0  0  0  0  0  0  0  0  0  0  0
    3.1978    0.1344   -1.8711 C   0  0  0  0  0  0  0  0  0  0  0  0
    3.7081   -0.1588   -0.6244 C   0  0  0  0  0  0  0  0  0  0  0  0
    4.6752    0.6275   -0.0128 O   0  0  0  0  0  0  0  0  0  0  0  0
    5.1945    1.7974   -0.6546 C   0  0  0  0  0  0  0  0  0  0  0  0
    6.2139    2.4314    0.2292 C   0  0  0  0  0  0  0  0  0  0  0  0
    6.5158    1.8616    1.4623 C   0  0  0  0  0  0  0  0  0  0  0  0
    7.4507    2.4110    2.3042 C   0  0  0  0  0  0  0  0  0  0  0  0
    8.0934    3.5456    1.9090 C   0  0  0  0  0  0  0  0  0  0  0  0
    7.8179    4.1347    0.6951 C   0  0  0  0  0  0  0  0  0  0  0  0
    8.4735    5.2716    0.3193 F   0  0  0  0  0  0  0  0  0  0  0  0
    6.8651    3.5754   -0.1635 C   0  0  0  0  0  0  0  0  0  0  0  0
    6.5726    4.2131   -1.4612 C   0  0  0  0  0  0  0  0  0  0  0  0
    5.2605    4.6175   -1.5970 F   0  0  0  0  0  0  0  0  0  0  0  0
    7.3281    5.3910   -1.5655 F   0  0  0  0  0  0  0  0  0  0  0  0
    6.9753    3.4390   -2.5399 F   0  0  0  0  0  0  0  0  0  0  0  0
    3.2301   -1.2799    0.0279 C   0  0  0  0  0  0  0  0  0  0  0  0
    3.8886   -1.6579    1.6360 Cl  0  0  0  0  0  0  0  0  0  0  0  0
    2.2788   -2.0758   -0.5460 C   0  0  0  0  0  0  0  0  0  0  0  0
   -0.9414   -3.5586   -1.0489 C   0  0  0  0  0  0  0  0  0  0  0  0
   -1.5224   -2.2983   -0.9062 C   0  0  0  0  0  0  0  0  0  0  0  0
   -2.6565   -2.0689   -0.1809 C   0  0  0  0  0  0  0  0  0  0  0  0
   -3.3041   -0.8254    0.0069 N   0  0  0  0  0  0  0  0  0  0  0  0
   -2.9516    0.4279   -0.4822 C   0  0  0  0  0  0  0  0  0  0  0  0
   -1.9296    0.5760   -1.2006 O   0  0  0  0  0  0  0  0  0  0  0  0
   -3.7295    1.6151   -0.1972 C   0  0  0  0  0  0  0  0  0  0  0  0
   -4.8097    1.6283    0.5271 C   0  0  0  0  0  0  0  0  0  0  0  0
   -5.6368    2.8175    0.8456 C   0  0  0  0  0  0  0  0  0  0  0  0
   -5.2307    4.0532    0.3506 N   0  0  0  0  0  0  0  0  0  0  0  0
   -4.0659    4.6710    0.8551 C   0  0  0  0  0  0  0  0  0  0  0  0
   -6.1603    4.8676   -0.3378 C   0  0  0  0  0  0  0  0  0  0  0  0
   -6.3243   -2.7957    2.7157 H   0  0  0  0  0  0  0  0  0  0  0  0
   -7.0526   -4.2743    1.9992 H   0  0  0  0  0  0  0  0  0  0  0  0
   -6.1650   -4.3835    3.5754 H   0  0  0  0  0  0  0  0  0  0  0  0
   -4.1768   -4.6073    2.5330 H   0  0  0  0  0  0  0  0  0  0  0  0
   -5.1432   -5.0329    1.0671 H   0  0  0  0  0  0  0  0  0  0  0  0
   -3.0930   -5.3108    0.7658 H   0  0  0  0  0  0  0  0  0  0  0  0
    0.6616   -7.0111   -1.4540 H   0  0  0  0  0  0  0  0  0  0  0  0
    0.4833   -2.3134   -3.3762 H   0  0  0  0  0  0  0  0  0  0  0  0
    1.8591   -0.4109   -3.4291 H   0  0  0  0  0  0  0  0  0  0  0  0
    3.5481    1.0046   -2.4113 H   0  0  0  0  0  0  0  0  0  0  0  0
    4.3353    2.5099   -0.7039 H   0  0  0  0  0  0  0  0  0  0  0  0
    5.5370    1.6051   -1.6727 H   0  0  0  0  0  0  0  0  0  0  0  0
    5.9858    0.9638    1.7399 H   0  0  0  0  0  0  0  0  0  0  0  0
    7.7085    1.9922    3.2696 H   0  0  0  0  0  0  0  0  0  0  0  0
    8.8452    3.9954    2.5753 H   0  0  0  0  0  0  0  0  0  0  0  0
    1.9231   -2.9414   -0.0197 H   0  0  0  0  0  0  0  0  0  0  0  0
   -1.0268   -1.4942   -1.4042 H   0  0  0  0  0  0  0  0  0  0  0  0
   -4.1880   -0.8525    0.6089 H   0  0  0  0  0  0  0  0  0  0  0  0
   -3.4358    2.5950   -0.5994 H   0  0  0  0  0  0  0  0  0  0  0  0
   -5.2055    0.7040    0.9783 H   0  0  0  0  0  0  0  0  0  0  0  0
   -5.6642    2.8692    1.9744 H   0  0  0  0  0  0  0  0  0  0  0  0
   -6.6988    2.6394    0.5553 H   0  0  0  0  0  0  0  0  0  0  0  0
   -3.4207    3.9664    1.4167 H   0  0  0  0  0  0  0  0  0  0  0  0
   -3.4888    5.2517    0.0993 H   0  0  0  0  0  0  0  0  0  0  0  0
   -4.3806    5.4424    1.6178 H   0  0  0  0  0  0  0  0  0  0  0  0
   -5.7215    5.8362   -0.6439 H   0  0  0  0  0  0  0  0  0  0  0  0
   -6.5234    4.3964   -1.2988 H   0  0  0  0  0  0  0  0  0  0  0  0
   -7.1141    5.0429    0.2406 H   0  0  0  0  0  0  0  0  0  0  0  0
  1  2  1  0
  2  3  1  0
  3  4  1  0
  4  5  2  0
  5  6  1  0
  6  7  2  0
  7  8  1  0
  8  9  2  0
  9 10  1  0
 10 11  3  0
  9 12  1  0
 12 13  1  0
 13 14  1  0
 14 15  2  0
 15 16  1  0
 16 17  2  0
 17 18  1  0
 18 19  1  0
 19 20  1  0
 20 21  2  0
 21 22  1  0
 22 23  2  0
 23 24  1  0
 24 25  1  0
 24 26  2  0
 26 27  1  0
 27 28  1  0
 27 29  1  0
 27 30  1  0
 17 31  1  0
 31 32  1  0
 31 33  2  0
 12 34  2  0
 34 35  1  0
 35 36  2  0
 36 37  1  0
 37 38  1  0
 38 39  2  0
 38 40  1  0
 40 41  2  0
 41 42  1  0
 42 43  1  0
 43 44  1  0
 43 45  1  0
 36  4  1  0
 34  6  1  0
 33 14  1  0
 26 20  1  0
  1 46  1  0
  1 47  1  0
  1 48  1  0
  2 49  1  0
  2 50  1  0
  5 51  1  0
  8 52  1  0
 13 53  1  0
 15 54  1  0
 16 55  1  0
 19 56  1  0
 19 57  1  0
 21 58  1  0
 22 59  1  0
 23 60  1  0
 33 61  1  0
 35 62  1  0
 37 63  1  0
 40 64  1  0
 41 65  1  0
 42 66  1  0
 42 67  1  0
 44 68  1  0
 44 69  1  0
 44 70  1  0
 45 71  1  0
 45 72  1  0
 45 73  1  0
M  END
$$$$
[H]OC(=O)C([H])([H])n1nc([H])c(C(=O)N2C([H])([H])C([H])([H])N(C([H])([H])c3c(Cl)c([H])c4c([H])c([H])n(C([H])([H])[H])c(=O)c4c3[H])[C@](F)(C([H])([H])[H])C2([H])[H])c1[H]
     RDKit          3D

 56 59  0  0  0  0  0  0  0  0999 V2000
    0.9669    2.8849    0.2081 C   0  0  0  0  0  0  0  0  0  0  0  0
    0.7654    1.4603    0.6915 C   0  0  2  0  0  0  0  0  0  0  0  0
    0.7562    1.5441    2.0918 F   0  0  0  0  0  0  0  0  0  0  0  0
    1.8654    0.5716    0.2733 C   0  0  0  0  0  0  0  0  0  0  0  0
    1.7751    0.1526   -1.0876 N   0  0  0  0  0  0  0  0  0  0  0  0
    0.5182    0.1419   -1.7915 C   0  0  0  0  0  0  0  0  0  0  0  0
   -0.5663    0.9286   -1.1674 C   0  0  0  0  0  0  0  0  0  0  0  0
   -0.5463    0.9587    0.2995 N   0  0  0  0  0  0  0  0  0  0  0  0
   -0.7099   -0.3884    0.7651 C   0  0  0  0  0  0  0  0  0  0  0  0
   -2.0953   -0.8902    0.7449 C   0  0  0  0  0  0  0  0  0  0  0  0
   -3.1830   -0.1401    0.4271 C   0  0  0  0  0  0  0  0  0  0  0  0
   -4.4887   -0.6498    0.4650 C   0  0  0  0  0  0  0  0  0  0  0  0
   -4.7185   -1.9574    0.8345 C   0  0  0  0  0  0  0  0  0  0  0  0
   -3.6172   -2.7127    1.1557 C   0  0  0  0  0  0  0  0  0  0  0  0
   -2.3326   -2.2137    1.1189 C   0  0  0  0  0  0  0  0  0  0  0  0
   -0.9687   -3.2306    1.5410 Cl  0  0  0  0  0  0  0  0  0  0  0  0
   -6.0084   -2.4445    0.8669 C   0  0  0  0  0  0  0  0  0  0  0  0
   -7.0875   -1.6384    0.5324 C   0  0  0  0  0  0  0  0  0  0  0  0
   -6.8442   -0.3644    0.1741 N   0  0  0  0  0  0  0  0  0  0  0  0
   -7.9293    0.5468   -0.1922 C   0  0  0  0  0  0  0  0  0  0  0  0
   -5.5812    0.1249    0.1387 C   0  0  0  0  0  0  0  0  0  0  0  0
   -5.3532    1.3202   -0.1976 O   0  0  0  0  0  0  0  0  0  0  0  0
    2.9264   -0.3256   -1.8209 C   0  0  0  0  0  0  0  0  0  0  0  0
    2.7063   -0.6225   -3.0590 O   0  0  0  0  0  0  0  0  0  0  0  0
    4.2576   -0.5070   -1.3472 C   0  0  0  0  0  0  0  0  0  0  0  0
    5.3587   -0.8584   -2.1592 C   0  0  0  0  0  0  0  0  0  0  0  0
    6.4511   -0.9871   -1.4044 N   0  0  0  0  0  0  0  0  0  0  0  0
    6.1374   -0.7434   -0.1527 N   0  0  0  0  0  0  0  0  0  0  0  0
    7.0847   -0.7940    0.9337 C   0  0  0  0  0  0  0  0  0  0  0  0
    7.6912    0.5422    1.1056 C   0  0  0  0  0  0  0  0  0  0  0  0
    7.3085    1.5811    0.2777 O   0  0  0  0  0  0  0  0  0  0  0  0
    8.5468    0.7506    1.9890 O   0  0  0  0  0  0  0  0  0  0  0  0
    4.7971   -0.4475   -0.0955 C   0  0  0  0  0  0  0  0  0  0  0  0
    0.9972    2.9829   -0.8759 H   0  0  0  0  0  0  0  0  0  0  0  0
    1.8764    3.2621    0.7190 H   0  0  0  0  0  0  0  0  0  0  0  0
    0.1156    3.5033    0.6045 H   0  0  0  0  0  0  0  0  0  0  0  0
    2.8012    1.2472    0.2924 H   0  0  0  0  0  0  0  0  0  0  0  0
    2.0109   -0.2763    0.9796 H   0  0  0  0  0  0  0  0  0  0  0  0
    0.6956    0.5728   -2.8217 H   0  0  0  0  0  0  0  0  0  0  0  0
    0.1845   -0.9263   -1.9082 H   0  0  0  0  0  0  0  0  0  0  0  0
   -0.6374    1.9759   -1.5641 H   0  0  0  0  0  0  0  0  0  0  0  0
   -1.5226    0.4618   -1.4699 H   0  0  0  0  0  0  0  0  0  0  0  0
   -0.1176   -1.0702    0.0832 H   0  0  0  0  0  0  0  0  0  0  0  0
   -0.2614   -0.5214    1.7831 H   0  0  0  0  0  0  0  0  0  0  0  0
   -3.0948    0.9109    0.1405 H   0  0  0  0  0  0  0  0  0  0  0  0
   -3.7919   -3.7392    1.4466 H   0  0  0  0  0  0  0  0  0  0  0  0
   -6.1851   -3.4708    1.1573 H   0  0  0  0  0  0  0  0  0  0  0  0
   -8.1061   -2.0020    0.5518 H   0  0  0  0  0  0  0  0  0  0  0  0
   -7.5537    1.1376   -1.0436 H   0  0  0  0  0  0  0  0  0  0  0  0
   -8.8385   -0.0234   -0.4091 H   0  0  0  0  0  0  0  0  0  0  0  0
   -8.0434    1.2453    0.6631 H   0  0  0  0  0  0  0  0  0  0  0  0
    5.3503   -1.0079   -3.2330 H   0  0  0  0  0  0  0  0  0  0  0  0
    7.8592   -1.5746    0.7545 H   0  0  0  0  0  0  0  0  0  0  0  0
    6.5466   -1.1008    1.8636 H   0  0  0  0  0  0  0  0  0  0  0  0
    7.4773    1.4550   -0.7233 H   0  0  0  0  0  0  0  0  0  0  0  0
    4.3549   -0.2340    0.8504 H   0  0  0  0  0  0  0  0  0  0  0  0
  1  2  1  0
  2  3  1  1
  2  4  1  0
  4  5  1  0
  5  6  1  0
  6  7  1  0
  7  8  1  0
  8  9  1  0
  9 10  1  0
 10 11  2  0
 11 12  1  0
 12 13  2  0
 13 14  1  0
 14 15  2  0
 15 16  1  0
 13 17  1  0
 17 18  2  0
 18 19  1  0
 19 20  1  0
 19 21  1  0
 21 22  2  0
  5 23  1  0
 23 24  2  0
 23 25  1  0
 25 26  1  0
 26 27  2  0
 27 28  1  0
 28 29  1  0
 29 30  1  0
 30 31  1  0
 30 32  2  0
 28 33  1  0
  8  2  1  0
 15 10  1  0
 33 25  2  0
 21 12  1  0
  1 34  1  0
  1 35  1  0
  1 36  1  0
  4 37  1  0
  4 38  1  0
  6 39  1  0
  6 40  1  0
  7 41  1  0
  7 42  1  0
  9 43  1  0
  9 44  1  0
 11 45  1  0
 14 46  1  0
 17 47  1  0
 18 48  1  0
 20 49  1  0
 20 50  1  0
 20 51  1  0
 26 52  1  0
 29 53  1  0
 29 54  1  0
 31 55  1  0
 33 56  1  0
M  END
$$$$
[H]c1nc(-c2c([H])c([H])c([H])c([H])c2[H])c(-c2nc3c(C(=O)N([H])[H])c([H])c([H])c([H])c3c([H])c2[H])o1
     RDKit          3D

 37 40  0  0  0  0  0  0  0  0999 V2000
    0.5757   -2.5874    0.5167 N   0  0  0  0  0  0  0  0  0  0  0  0
    1.8617   -2.2822    0.9586 C   0  0  0  0  0  0  0  0  0  0  0  0
    2.4432   -3.0899    1.7227 O   0  0  0  0  0  0  0  0  0  0  0  0
    2.5983   -1.0666    0.5903 C   0  0  0  0  0  0  0  0  0  0  0  0
    3.8599   -0.8287    1.0707 C   0  0  0  0  0  0  0  0  0  0  0  0
    4.4854    0.3345    0.6742 C   0  0  0  0  0  0  0  0  0  0  0  0
    3.8550    1.2186   -0.1749 C   0  0  0  0  0  0  0  0  0  0  0  0
    2.5779    0.9644   -0.6532 C   0  0  0  0  0  0  0  0  0  0  0  0
    1.9251    1.8239   -1.5006 C   0  0  0  0  0  0  0  0  0  0  0  0
    0.6533    1.4824   -1.9262 C   0  0  0  0  0  0  0  0  0  0  0  0
    0.0215    0.3212   -1.5342 C   0  0  0  0  0  0  0  0  0  0  0  0
    0.6868   -0.4963   -0.7055 N   0  0  0  0  0  0  0  0  0  0  0  0
    1.9328   -0.1893   -0.2723 C   0  0  0  0  0  0  0  0  0  0  0  0
   -1.3183    0.0339   -2.0337 C   0  0  0  0  0  0  0  0  0  0  0  0
   -1.7044   -0.2379   -3.2569 O   0  0  0  0  0  0  0  0  0  0  0  0
   -3.0019   -0.4430   -3.3086 C   0  0  0  0  0  0  0  0  0  0  0  0
   -3.5170   -0.3047   -2.0738 N   0  0  0  0  0  0  0  0  0  0  0  0
   -2.4775   -0.0073   -1.2699 C   0  0  0  0  0  0  0  0  0  0  0  0
   -2.5318    0.2390    0.1514 C   0  0  0  0  0  0  0  0  0  0  0  0
   -2.1675    1.4532    0.7177 C   0  0  0  0  0  0  0  0  0  0  0  0
   -2.2290    1.6729    2.0769 C   0  0  0  0  0  0  0  0  0  0  0  0
   -2.6598    0.6825    2.9306 C   0  0  0  0  0  0  0  0  0  0  0  0
   -3.0273   -0.5337    2.3881 C   0  0  0  0  0  0  0  0  0  0  0  0
   -2.9605   -0.7408    1.0222 C   0  0  0  0  0  0  0  0  0  0  0  0
    0.4141   -3.0546   -0.3981 H   0  0  0  0  0  0  0  0  0  0  0  0
   -0.2559   -2.3561    1.0913 H   0  0  0  0  0  0  0  0  0  0  0  0
    4.3383   -1.5433    1.7424 H   0  0  0  0  0  0  0  0  0  0  0  0
    5.4707    0.5679    1.0178 H   0  0  0  0  0  0  0  0  0  0  0  0
    4.3210    2.1374   -0.5019 H   0  0  0  0  0  0  0  0  0  0  0  0
    2.4296    2.7202   -1.7950 H   0  0  0  0  0  0  0  0  0  0  0  0
    0.1215    2.1432   -2.5932 H   0  0  0  0  0  0  0  0  0  0  0  0
   -3.6030   -0.6889   -4.1911 H   0  0  0  0  0  0  0  0  0  0  0  0
   -1.8332    2.2114    0.0245 H   0  0  0  0  0  0  0  0  0  0  0  0
   -1.9455    2.6219    2.4971 H   0  0  0  0  0  0  0  0  0  0  0  0
   -2.7173    0.8357    4.0084 H   0  0  0  0  0  0  0  0  0  0  0  0
   -3.3635   -1.2982    3.0878 H   0  0  0  0  0  0  0  0  0  0  0  0
   -3.2584   -1.7153    0.6293 H   0  0  0  0  0  0  0  0  0  0  0  0
  1  2  1  0
  2  3  2  0
  2  4  1  0
  4  5  2  0
  5  6  1  0
  6  7  2  0
  7  8  1  0
  8  9  2  0
  9 10  1  0
 10 11  2  0
 11 12  1  0
 12 13  2  0
 11 14  1  0
 14 15  1  0
 15 16  1  0
 16 17  2  0
 17 18  1  0
 18 19  1  0
 19 20  2  0
 20 21  1  0
 21 22  2  0
 22 23  1  0
 23 24  2  0
 13  4  1  0
 18 14  2  0
 24 19  1  0
 13  8  1  0
  1 25  1  0
  1 26  1  0
  5 27  1  0
  6 28  1  0
  7 29  1  0
  9 30  1  0
 10 31  1  0
 16 32  1  0
 20 33  1  0
 21 34  1  0
 22 35  1  0
 23 36  1  0
 24 37  1  0
M  END
$$$$
[H]ON([H])C(=O)C([H])([H])C([H])([H])c1c([H])c([H])c(OC([H])([H])[H])c([H])c1[H]
     RDKit          3D

 27 27  0  0  0  0  0  0  0  0999 V2000
    4.9542   -0.7603    0.2879 C   0  0  0  0  0  0  0  0  0  0  0  0
    4.1102   -0.1312    1.2309 O   0  0  0  0  0  0  0  0  0  0  0  0
    2.7819    0.0990    0.8218 C   0  0  0  0  0  0  0  0  0  0  0  0
    2.3308   -0.2724   -0.4373 C   0  0  0  0  0  0  0  0  0  0  0  0
    1.0287   -0.0529   -0.8538 C   0  0  0  0  0  0  0  0  0  0  0  0
    0.1393    0.5547    0.0022 C   0  0  0  0  0  0  0  0  0  0  0  0
   -1.2787    0.8437   -0.3269 C   0  0  0  0  0  0  0  0  0  0  0  0
   -2.2035   -0.2709    0.0365 C   0  0  0  0  0  0  0  0  0  0  0  0
   -3.5890    0.1019   -0.3249 C   0  0  0  0  0  0  0  0  0  0  0  0
   -3.8192    1.2149   -0.8510 O   0  0  0  0  0  0  0  0  0  0  0  0
   -4.6498   -0.7998   -0.0750 N   0  0  0  0  0  0  0  0  0  0  0  0
   -5.9249   -0.4939   -0.3911 O   0  0  0  0  0  0  0  0  0  0  0  0
    0.5975    0.9195    1.2499 C   0  0  0  0  0  0  0  0  0  0  0  0
    1.8836    0.7078    1.6742 C   0  0  0  0  0  0  0  0  0  0  0  0
    4.9482   -0.1663   -0.6709 H   0  0  0  0  0  0  0  0  0  0  0  0
    5.9730   -0.8999    0.6474 H   0  0  0  0  0  0  0  0  0  0  0  0
    4.4737   -1.7442    0.0391 H   0  0  0  0  0  0  0  0  0  0  0  0
    3.0380   -0.7452   -1.0922 H   0  0  0  0  0  0  0  0  0  0  0  0
    0.6824   -0.3417   -1.8295 H   0  0  0  0  0  0  0  0  0  0  0  0
   -1.6328    1.7772    0.1453 H   0  0  0  0  0  0  0  0  0  0  0  0
   -1.3070    0.9737   -1.4467 H   0  0  0  0  0  0  0  0  0  0  0  0
   -1.9575   -1.2275   -0.4673 H   0  0  0  0  0  0  0  0  0  0  0  0
   -2.1914   -0.4640    1.1329 H   0  0  0  0  0  0  0  0  0  0  0  0
   -4.4634   -1.7251    0.3616 H   0  0  0  0  0  0  0  0  0  0  0  0
   -6.0355    0.4871   -0.3225 H   0  0  0  0  0  0  0  0  0  0  0  0
   -0.1081    1.4060    1.9402 H   0  0  0  0  0  0  0  0  0  0  0  0
    2.2195    1.0098    2.6750 H   0  0  0  0  0  0  0  0  0  0  0  0
  1  2  1  0
  2  3  1  0
  3  4  2  0
  4  5  1  0
  5  6  2  0
  6  7  1  0
  7  8  1  0
  8  9  1  0
  9 10  2  0
  9 11  1  0
 11 12  1  0
  6 13  1  0
 13 14  2  0
 14  3  1  0
  1 15  1  0
  1 16  1  0
  1 17  1  0
  4 18  1  0
  5 19  1  0
  7 20  1  0
  7 21  1  0
  8 22  1  0
  8 23  1  0
 11 24  1  0
 12 25  1  0
 13 26  1  0
 14 27  1  0
M  END
$$$$
[H]OC([H])([H])[C@@]1(O[H])C([H])([H])[C@@]2([H])O[C@]1(C([H])([H])[H])n1c3c([H])c([H])c([H])c([H])c3c3c4c(c5c6c([H])c([H])c([H])c([H])c6n2c5c31)C(=O)N([H])C([H])([H])C4([H])[H]
     RDKit          3D

 57 64  0  0  0  0  0  0  0  0999 V2000
    3.5866    0.5893    1.0797 C   0  0  0  0  0  0  0  0  0  0  0  0
    2.4371   -0.0128    0.3507 C   0  0  2  0  0  0  0  0  0  0  0  0
    2.0711   -1.2065    1.0218 O   0  0  0  0  0  0  0  0  0  0  0  0
    1.4862   -2.0744    0.1595 C   0  0  2  0  0  0  0  0  0  0  0  0
    1.7685   -1.6410   -1.2688 C   0  0  0  0  0  0  0  0  0  0  0  0
    2.8664   -0.5652   -0.9592 C   0  0  1  0  0  0  0  0  0  0  0  0
    2.7771    0.4272   -1.9287 O   0  0  0  0  0  0  0  0  0  0  0  0
    4.1022   -1.3744   -1.0524 C   0  0  0  0  0  0  0  0  0  0  0  0
    5.3066   -0.6947   -0.9688 O   0  0  0  0  0  0  0  0  0  0  0  0
    0.0245   -1.9643    0.2355 N   0  0  0  0  0  0  0  0  0  0  0  0
   -0.8923   -2.9092    0.2339 C   0  0  0  0  0  0  0  0  0  0  0  0
   -0.6721   -4.2872    0.2228 C   0  0  0  0  0  0  0  0  0  0  0  0
   -1.7630   -5.1241    0.2364 C   0  0  0  0  0  0  0  0  0  0  0  0
   -3.0243   -4.5846    0.2607 C   0  0  0  0  0  0  0  0  0  0  0  0
   -3.2088   -3.1997    0.2714 C   0  0  0  0  0  0  0  0  0  0  0  0
   -2.1517   -2.3622    0.2572 C   0  0  0  0  0  0  0  0  0  0  0  0
   -1.9908   -1.0130    0.2711 C   0  0  0  0  0  0  0  0  0  0  0  0
   -2.8138    0.0956    0.2648 C   0  0  0  0  0  0  0  0  0  0  0  0
   -4.2399   -0.0870    0.1749 C   0  0  0  0  0  0  0  0  0  0  0  0
   -4.8944   -1.1183    0.1676 O   0  0  0  0  0  0  0  0  0  0  0  0
   -5.0398    1.1212    0.0744 N   0  0  0  0  0  0  0  0  0  0  0  0
   -4.5393    2.2742    0.7327 C   0  0  0  0  0  0  0  0  0  0  0  0
   -3.1077    2.5552    0.3444 C   0  0  0  0  0  0  0  0  0  0  0  0
   -2.2453    1.3793    0.2553 C   0  0  0  0  0  0  0  0  0  0  0  0
   -0.8718    1.5790    0.2454 C   0  0  0  0  0  0  0  0  0  0  0  0
    0.0019    2.6612    0.2046 C   0  0  0  0  0  0  0  0  0  0  0  0
   -0.2888    3.9991    0.1456 C   0  0  0  0  0  0  0  0  0  0  0  0
    0.7525    4.9094    0.0769 C   0  0  0  0  0  0  0  0  0  0  0  0
    2.0370    4.4777    0.0669 C   0  0  0  0  0  0  0  0  0  0  0  0
    2.3449    3.1378    0.1242 C   0  0  0  0  0  0  0  0  0  0  0  0
    1.3290    2.2135    0.1952 C   0  0  0  0  0  0  0  0  0  0  0  0
    1.2591    0.8461    0.2331 N   0  0  0  0  0  0  0  0  0  0  0  0
   -0.0546    0.4842    0.2520 C   0  0  0  0  0  0  0  0  0  0  0  0
   -0.6046   -0.7865    0.2616 C   0  0  0  0  0  0  0  0  0  0  0  0
    4.4420    0.8992    0.4759 H   0  0  0  0  0  0  0  0  0  0  0  0
    3.2828    1.3293    1.8795 H   0  0  0  0  0  0  0  0  0  0  0  0
    4.1062   -0.1802    1.7555 H   0  0  0  0  0  0  0  0  0  0  0  0
    1.8201   -3.1037    0.3133 H   0  0  0  0  0  0  0  0  0  0  0  0
    0.9710   -1.0841   -1.7503 H   0  0  0  0  0  0  0  0  0  0  0  0
    2.1356   -2.4186   -1.9218 H   0  0  0  0  0  0  0  0  0  0  0  0
    2.7457    0.0640   -2.8461 H   0  0  0  0  0  0  0  0  0  0  0  0
    4.1616   -1.8448   -2.0896 H   0  0  0  0  0  0  0  0  0  0  0  0
    4.0870   -2.2915   -0.4103 H   0  0  0  0  0  0  0  0  0  0  0  0
    6.0281   -1.1329   -1.4573 H   0  0  0  0  0  0  0  0  0  0  0  0
    0.3479   -4.6596    0.2036 H   0  0  0  0  0  0  0  0  0  0  0  0
   -1.5972   -6.1983    0.2269 H   0  0  0  0  0  0  0  0  0  0  0  0
   -3.8945   -5.2335    0.2718 H   0  0  0  0  0  0  0  0  0  0  0  0
   -4.2336   -2.8622    0.3090 H   0  0  0  0  0  0  0  0  0  0  0  0
   -5.9427    1.1297   -0.4615 H   0  0  0  0  0  0  0  0  0  0  0  0
   -5.1467    3.1621    0.4924 H   0  0  0  0  0  0  0  0  0  0  0  0
   -4.6138    2.1367    1.8301 H   0  0  0  0  0  0  0  0  0  0  0  0
   -2.7284    3.1426    1.2489 H   0  0  0  0  0  0  0  0  0  0  0  0
   -3.1375    3.1245   -0.5768 H   0  0  0  0  0  0  0  0  0  0  0  0
   -1.2966    4.3240    0.1367 H   0  0  0  0  0  0  0  0  0  0  0  0
    0.4634    5.9661    0.0329 H   0  0  0  0  0  0  0  0  0  0  0  0
    2.8783    5.1749    0.0131 H   0  0  0  0  0  0  0  0  0  0  0  0
    3.3739    2.8116    0.0817 H   0  0  0  0  0  0  0  0  0  0  0  0
  2  1  1  1
  2  3  1  0
  3  4  1  0
  4  5  1  0
  5  6  1  0
  6  7  1  6
  6  8  1  0
  8  9  1  0
  4 10  1  0
 10 11  1  0
 11 12  2  0
 12 13  1  0
 13 14  2  0
 14 15  1  0
 15 16  2  0
 16 17  1  0
 17 18  2  0
 18 19  1  0
 19 20  2  0
 19 21  1  0
 21 22  1  0
 22 23  1  0
 23 24  1  0
 24 25  2  0
 25 26  1  0
 26 27  2  0
 27 28  1  0
 28 29  2  0
 29 30  1  0
 30 31  2  0
 31 32  1  0
 32 33  1  0
 33 34  2  0
  6  2  1  0
 34 10  1  0
 32  2  1  0
 16 11  1  0
 34 17  1  0
 24 18  1  0
 33 25  1  0
 31 26  1  0
  1 35  1  0
  1 36  1  0
  1 37  1  0
  4 38  1  6
  5 39  1  0
  5 40  1  0
  7 41  1  0
  8 42  1  0
  8 43  1  0
  9 44  1  0
 12 45  1  0
 13 46  1  0
 14 47  1  0
 15 48  1  0
 21 49  1  0
 22 50  1  0
 22 51  1  0
 23 52  1  0
 23 53  1  0
 27 54  1  0
 28 55  1  0
 29 56  1  0
 30 57  1  0
M  END
$$$$
[H]c1nc(N([H])[H])c(-c2c([H])nn(C([H])([H])[H])c2C([H])([H])[H])c([H])c1-c1c([H])c([H])c(Cl)c([H])c1[H]
     RDKit          3D

 36 38  0  0  0  0  0  0  0  0999 V2000
   -2.5103    0.5488    1.2520 C   0  0  0  0  0  0  0  0  0  0  0  0
   -2.7729    0.2049   -0.1843 C   0  0  0  0  0  0  0  0  0  0  0  0
   -1.8828   -0.5363   -0.9742 C   0  0  0  0  0  0  0  0  0  0  0  0
   -2.5146   -0.6474   -2.2058 C   0  0  0  0  0  0  0  0  0  0  0  0
   -3.6994   -0.0232   -2.1697 N   0  0  0  0  0  0  0  0  0  0  0  0
   -3.8406    0.4836   -0.9538 N   0  0  0  0  0  0  0  0  0  0  0  0
   -4.9804    1.2571   -0.4185 C   0  0  0  0  0  0  0  0  0  0  0  0
   -0.5650   -1.0344   -0.6257 C   0  0  0  0  0  0  0  0  0  0  0  0
    0.4324   -0.1853   -0.2130 C   0  0  0  0  0  0  0  0  0  0  0  0
    1.7114   -0.6199    0.0658 C   0  0  0  0  0  0  0  0  0  0  0  0
    1.9773   -1.9643   -0.0804 C   0  0  0  0  0  0  0  0  0  0  0  0
    1.0141   -2.8015   -0.4813 N   0  0  0  0  0  0  0  0  0  0  0  0
   -0.2419   -2.3643   -0.7541 C   0  0  0  0  0  0  0  0  0  0  0  0
   -1.2895   -3.2455   -1.1522 N   0  0  0  0  0  0  0  0  0  0  0  0
    2.7870    0.2715    0.4793 C   0  0  0  0  0  0  0  0  0  0  0  0
    4.1152    0.0120    0.1530 C   0  0  0  0  0  0  0  0  0  0  0  0
    5.1469    0.8631    0.5312 C   0  0  0  0  0  0  0  0  0  0  0  0
    4.8834    2.0051    1.2507 C   0  0  0  0  0  0  0  0  0  0  0  0
    6.1623    3.1138    1.7441 Cl  0  0  0  0  0  0  0  0  0  0  0  0
    3.5634    2.2884    1.5895 C   0  0  0  0  0  0  0  0  0  0  0  0
    2.5442    1.4208    1.2011 C   0  0  0  0  0  0  0  0  0  0  0  0
   -2.2286   -0.3655    1.8228 H   0  0  0  0  0  0  0  0  0  0  0  0
   -1.8193    1.3857    1.3806 H   0  0  0  0  0  0  0  0  0  0  0  0
   -3.4928    0.8567    1.6684 H   0  0  0  0  0  0  0  0  0  0  0  0
   -2.0894   -1.1632   -3.0525 H   0  0  0  0  0  0  0  0  0  0  0  0
   -4.5589    2.2164   -0.0768 H   0  0  0  0  0  0  0  0  0  0  0  0
   -5.7718    1.3640   -1.1587 H   0  0  0  0  0  0  0  0  0  0  0  0
   -5.2901    0.6872    0.4972 H   0  0  0  0  0  0  0  0  0  0  0  0
    0.2106    0.8533   -0.0963 H   0  0  0  0  0  0  0  0  0  0  0  0
    2.9743   -2.3181    0.1310 H   0  0  0  0  0  0  0  0  0  0  0  0
   -2.0390   -3.5526   -0.5062 H   0  0  0  0  0  0  0  0  0  0  0  0
   -1.3100   -3.5941   -2.1259 H   0  0  0  0  0  0  0  0  0  0  0  0
    4.3228   -0.8838   -0.4153 H   0  0  0  0  0  0  0  0  0  0  0  0
    6.1924    0.6509    0.2674 H   0  0  0  0  0  0  0  0  0  0  0  0
    3.3440    3.1758    2.1472 H   0  0  0  0  0  0  0  0  0  0  0  0
    1.5158    1.6402    1.4634 H   0  0  0  0  0  0  0  0  0  0  0  0
  1  2  1  0
  2  3  2  0
  3  4  1  0
  4  5  2  0
  5  6  1  0
  6  7  1  0
  3  8  1  0
  8  9  2  0
  9 10  1  0
 10 11  2  0
 11 12  1  0
 12 13  2  0
 13 14  1  0
 10 15  1  0
 15 16  2  0
 16 17  1  0
 17 18  2  0
 18 19  1  0
 18 20  1  0
 20 21  2  0
  6  2  1  0
 13  8  1  0
 21 15  1  0
  1 22  1  0
  1 23  1  0
  1 24  1  0
  4 25  1  0
  7 26  1  0
  7 27  1  0
  7 28  1  0
  9 29  1  0
 11 30  1  0
 14 31  1  0
 14 32  1  0
 16 33  1  0
 17 34  1  0
 20 35  1  0
 21 36  1  0
M  END
$$$$
[H]O[C@]([H])(C([H])([H])[H])[C@@]([H])(C(=O)N1C([H])([H])C([H])([H])C([H])(C(=O)N([H])[H])C([H])([H])C1([H])[H])N([H])C(=O)[C@@]([H])(N([H])C(=O)[C@@]([H])(N([H])C(=O)C([H])([H])[H])C([H])([H])c1c([H])c([H])c([H])c(C([H])([H])[H])c1[H])[C@@]([H])(C([H])([H])[H])C([H])([H])C([H])([H])[H]
     RDKit          3D

 82 83  0  0  0  0  0  0  0  0999 V2000
   -0.1735   -1.2317   -4.9579 C   0  0  0  0  0  0  0  0  0  0  0  0
   -0.5312   -0.4743   -3.6679 C   0  0  0  0  0  0  0  0  0  0  0  0
    0.6960   -0.4979   -2.8203 C   0  0  2  0  0  0  0  0  0  0  0  0
    1.0656   -1.9302   -2.5076 C   0  0  0  0  0  0  0  0  0  0  0  0
    0.6136    0.3618   -1.5693 C   0  0  2  0  0  0  0  0  0  0  0  0
    1.9255    0.1725   -0.9246 N   0  0  0  0  0  0  0  0  0  0  0  0
    2.8021    1.2508   -0.7271 C   0  0  0  0  0  0  0  0  0  0  0  0
    2.4492    2.4037   -1.1201 O   0  0  0  0  0  0  0  0  0  0  0  0
    4.1188    1.1254   -0.0838 C   0  0  2  0  0  0  0  0  0  0  0  0
    3.9386    0.4655    1.2802 C   0  0  0  0  0  0  0  0  0  0  0  0
    5.2811    0.3490    1.9562 C   0  0  0  0  0  0  0  0  0  0  0  0
    5.7225    1.3751    2.7892 C   0  0  0  0  0  0  0  0  0  0  0  0
    6.9294    1.3253    3.4246 C   0  0  0  0  0  0  0  0  0  0  0  0
    7.7247    0.2308    3.2323 C   0  0  0  0  0  0  0  0  0  0  0  0
    7.3400   -0.8350    2.4070 C   0  0  0  0  0  0  0  0  0  0  0  0
    6.1170   -0.7235    1.7987 C   0  0  0  0  0  0  0  0  0  0  0  0
    8.2498   -2.0018    2.2242 C   0  0  0  0  0  0  0  0  0  0  0  0
    4.8168    2.3722    0.0268 N   0  0  0  0  0  0  0  0  0  0  0  0
    6.0990    2.6224   -0.5689 C   0  0  0  0  0  0  0  0  0  0  0  0
    6.7538    3.9333   -0.4071 C   0  0  0  0  0  0  0  0  0  0  0  0
    6.6838    1.7290   -1.2374 O   0  0  0  0  0  0  0  0  0  0  0  0
   -0.4522   -0.0810   -0.6508 C   0  0  0  0  0  0  0  0  0  0  0  0
   -0.1031   -0.6682    0.4119 O   0  0  0  0  0  0  0  0  0  0  0  0
   -1.8054    0.1193   -0.8977 N   0  0  0  0  0  0  0  0  0  0  0  0
   -2.8636   -0.3235    0.0123 C   0  0  1  0  0  0  0  0  0  0  0  0
   -3.3984    0.8978    0.7567 C   0  0  1  0  0  0  0  0  0  0  0  0
   -2.3016    1.4664    1.5980 C   0  0  0  0  0  0  0  0  0  0  0  0
   -3.9258    1.8320   -0.1337 O   0  0  0  0  0  0  0  0  0  0  0  0
   -3.9622   -0.9297   -0.7293 C   0  0  0  0  0  0  0  0  0  0  0  0
   -3.9458   -0.7841   -2.0102 O   0  0  0  0  0  0  0  0  0  0  0  0
   -5.0552   -1.6652   -0.2297 N   0  0  0  0  0  0  0  0  0  0  0  0
   -6.1159   -2.1437   -1.1501 C   0  0  0  0  0  0  0  0  0  0  0  0
   -7.3817   -1.3859   -0.7899 C   0  0  0  0  0  0  0  0  0  0  0  0
   -7.1515   -0.6315    0.5089 C   0  0  0  0  0  0  0  0  0  0  0  0
   -6.6816   -1.6337    1.5380 C   0  0  0  0  0  0  0  0  0  0  0  0
   -5.2745   -2.0621    1.1450 C   0  0  0  0  0  0  0  0  0  0  0  0
   -8.3942    0.0661    0.9384 C   0  0  0  0  0  0  0  0  0  0  0  0
   -8.9158    1.0482    0.0540 N   0  0  0  0  0  0  0  0  0  0  0  0
   -8.9271   -0.2202    2.0272 O   0  0  0  0  0  0  0  0  0  0  0  0
   -0.0363   -0.4919   -5.7770 H   0  0  0  0  0  0  0  0  0  0  0  0
   -1.0318   -1.9032   -5.2421 H   0  0  0  0  0  0  0  0  0  0  0  0
    0.7479   -1.8219   -4.8513 H   0  0  0  0  0  0  0  0  0  0  0  0
   -0.8582    0.5426   -3.9069 H   0  0  0  0  0  0  0  0  0  0  0  0
   -1.3421   -1.0699   -3.1884 H   0  0  0  0  0  0  0  0  0  0  0  0
    1.5257   -0.0795   -3.4523 H   0  0  0  0  0  0  0  0  0  0  0  0
    2.0772   -2.1307   -2.8456 H   0  0  0  0  0  0  0  0  0  0  0  0
    0.9755   -2.1503   -1.4133 H   0  0  0  0  0  0  0  0  0  0  0  0
    0.3449   -2.6269   -3.0287 H   0  0  0  0  0  0  0  0  0  0  0  0
    0.5300    1.4163   -1.8476 H   0  0  0  0  0  0  0  0  0  0  0  0
    2.1783   -0.7698   -0.6229 H   0  0  0  0  0  0  0  0  0  0  0  0
    4.7413    0.4329   -0.7154 H   0  0  0  0  0  0  0  0  0  0  0  0
    3.3087    1.0691    1.9370 H   0  0  0  0  0  0  0  0  0  0  0  0
    3.4921   -0.5234    1.1448 H   0  0  0  0  0  0  0  0  0  0  0  0
    5.0694    2.2300    2.9188 H   0  0  0  0  0  0  0  0  0  0  0  0
    7.2066    2.1642    4.0604 H   0  0  0  0  0  0  0  0  0  0  0  0
    8.6803    0.1651    3.7182 H   0  0  0  0  0  0  0  0  0  0  0  0
    5.8050   -1.5402    1.1578 H   0  0  0  0  0  0  0  0  0  0  0  0
    8.8568   -1.8692    1.2777 H   0  0  0  0  0  0  0  0  0  0  0  0
    7.7306   -2.9623    2.1882 H   0  0  0  0  0  0  0  0  0  0  0  0
    8.9797   -1.9848    3.0597 H   0  0  0  0  0  0  0  0  0  0  0  0
    4.3663    3.1388    0.5734 H   0  0  0  0  0  0  0  0  0  0  0  0
    6.2244    4.6747   -1.0676 H   0  0  0  0  0  0  0  0  0  0  0  0
    6.6947    4.2574    0.6744 H   0  0  0  0  0  0  0  0  0  0  0  0
    7.8028    3.9294   -0.7220 H   0  0  0  0  0  0  0  0  0  0  0  0
   -2.1233    0.6117   -1.7517 H   0  0  0  0  0  0  0  0  0  0  0  0
   -2.4510   -0.9976    0.7556 H   0  0  0  0  0  0  0  0  0  0  0  0
   -4.2146    0.5689    1.4053 H   0  0  0  0  0  0  0  0  0  0  0  0
   -2.7150    2.3584    2.1584 H   0  0  0  0  0  0  0  0  0  0  0  0
   -1.9245    0.7783    2.3601 H   0  0  0  0  0  0  0  0  0  0  0  0
   -1.4824    1.8290    0.9331 H   0  0  0  0  0  0  0  0  0  0  0  0
   -4.6375    1.4071   -0.6476 H   0  0  0  0  0  0  0  0  0  0  0  0
   -5.7927   -1.9539   -2.1782 H   0  0  0  0  0  0  0  0  0  0  0  0
   -6.2522   -3.2165   -0.9103 H   0  0  0  0  0  0  0  0  0  0  0  0
   -8.2008   -2.1145   -0.5520 H   0  0  0  0  0  0  0  0  0  0  0  0
   -7.7387   -0.7177   -1.5904 H   0  0  0  0  0  0  0  0  0  0  0  0
   -6.3859    0.1415    0.4107 H   0  0  0  0  0  0  0  0  0  0  0  0
   -7.3763   -2.4984    1.4983 H   0  0  0  0  0  0  0  0  0  0  0  0
   -6.6679   -1.2088    2.5750 H   0  0  0  0  0  0  0  0  0  0  0  0
   -5.2624   -3.1946    1.1668 H   0  0  0  0  0  0  0  0  0  0  0  0
   -4.5866   -1.6574    1.8771 H   0  0  0  0  0  0  0  0  0  0  0  0
   -9.5224    1.8266    0.3944 H   0  0  0  0  0  0  0  0  0  0  0  0
   -8.7023    1.0179   -0.9768 H   0  0  0  0  0  0  0  0  0  0  0  0
  1  2  1  0
  2  3  1  0
  3  4  1  0
  3  5  1  0
  5  6  1  0
  6  7  1  0
  7  8  2  0
  7  9  1  0
  9 10  1  0
 10 11  1  0
 11 12  2  0
 12 13  1  0
 13 14  2  0
 14 15  1  0
 15 16  2  0
 15 17  1  0
  9 18  1  0
 18 19  1  0
 19 20  1  0
 19 21  2  0
  5 22  1  0
 22 23  2  0
 22 24  1  0
 24 25  1  0
 25 26  1  0
 26 27  1  0
 26 28  1  0
 25 29  1  0
 29 30  2  0
 29 31  1  0
 31 32  1  0
 32 33  1  0
 33 34  1  0
 34 35  1  0
 35 36  1  0
 34 37  1  0
 37 38  1  0
 37 39  2  0
 16 11  1  0
 36 31  1  0
  1 40  1  0
  1 41  1  0
  1 42  1  0
  2 43  1  0
  2 44  1  0
  3 45  1  6
  4 46  1  0
  4 47  1  0
  4 48  1  0
  5 49  1  6
  6 50  1  0
  9 51  1  6
 10 52  1  0
 10 53  1  0
 12 54  1  0
 13 55  1  0
 14 56  1  0
 16 57  1  0
 17 58  1  0
 17 59  1  0
 17 60  1  0
 18 61  1  0
 20 62  1  0
 20 63  1  0
 20 64  1  0
 24 65  1  0
 25 66  1  1
 26 67  1  1
 27 68  1  0
 27 69  1  0
 27 70  1  0
 28 71  1  0
 32 72  1  0
 32 73  1  0
 33 74  1  0
 33 75  1  0
 34 76  1  0
 35 77  1  0
 35 78  1  0
 36 79  1  0
 36 80  1  0
 38 81  1  0
 38 82  1  0
M  END
$$$$
[H]OC(=O)c1c([H])c([H])c(-c2c([H])c([H])c(N([H])C(=O)N([H])c3c(C([H])([H])[H])c([H])c(OC([H])([H])[H])c([H])c3C([H])([H])[H])c([H])c2[H])c([H])c1[H]
     RDKit          3D

 51 53  0  0  0  0  0  0  0  0999 V2000
   -8.4544   -1.8256    1.1332 C   0  0  0  0  0  0  0  0  0  0  0  0
   -7.7196   -0.6526    1.3040 O   0  0  0  0  0  0  0  0  0  0  0  0
   -6.5128   -0.3722    0.6732 C   0  0  0  0  0  0  0  0  0  0  0  0
   -5.9009   -1.2203   -0.1949 C   0  0  0  0  0  0  0  0  0  0  0  0
   -4.6891   -0.8666   -0.7887 C   0  0  0  0  0  0  0  0  0  0  0  0
   -4.0540   -1.8022   -1.7229 C   0  0  0  0  0  0  0  0  0  0  0  0
   -4.0805    0.3330   -0.5209 C   0  0  0  0  0  0  0  0  0  0  0  0
   -2.8737    0.6583   -1.1248 N   0  0  0  0  0  0  0  0  0  0  0  0
   -1.5862    0.3708   -0.6126 C   0  0  0  0  0  0  0  0  0  0  0  0
   -1.5421   -0.2241    0.4717 O   0  0  0  0  0  0  0  0  0  0  0  0
   -0.4083    0.7304   -1.2798 N   0  0  0  0  0  0  0  0  0  0  0  0
    0.9251    0.5170   -0.9090 C   0  0  0  0  0  0  0  0  0  0  0  0
    1.9226    1.1594   -1.6483 C   0  0  0  0  0  0  0  0  0  0  0  0
    3.2666    1.0209   -1.3872 C   0  0  0  0  0  0  0  0  0  0  0  0
    3.6889    0.2218   -0.3586 C   0  0  0  0  0  0  0  0  0  0  0  0
    2.7458   -0.4243    0.3887 C   0  0  0  0  0  0  0  0  0  0  0  0
    1.3731   -0.2768    0.1140 C   0  0  0  0  0  0  0  0  0  0  0  0
    5.1171    0.1027   -0.1149 C   0  0  0  0  0  0  0  0  0  0  0  0
    5.9279    1.1846   -0.3889 C   0  0  0  0  0  0  0  0  0  0  0  0
    7.2997    1.1408   -0.1807 C   0  0  0  0  0  0  0  0  0  0  0  0
    7.8805   -0.0029    0.3106 C   0  0  0  0  0  0  0  0  0  0  0  0
    7.0568   -1.0812    0.5816 C   0  0  0  0  0  0  0  0  0  0  0  0
    5.6978   -1.0382    0.3756 C   0  0  0  0  0  0  0  0  0  0  0  0
    9.3111   -0.0834    0.5390 C   0  0  0  0  0  0  0  0  0  0  0  0
    9.9110   -1.2239    1.0340 O   0  0  0  0  0  0  0  0  0  0  0  0
   10.0272    0.9112    0.2799 O   0  0  0  0  0  0  0  0  0  0  0  0
   -4.7040    1.1849    0.3571 C   0  0  0  0  0  0  0  0  0  0  0  0
   -4.0558    2.4825    0.6544 C   0  0  0  0  0  0  0  0  0  0  0  0
   -5.9222    0.8357    0.9572 C   0  0  0  0  0  0  0  0  0  0  0  0
   -8.3469   -2.2079    0.1014 H   0  0  0  0  0  0  0  0  0  0  0  0
   -8.2347   -2.5942    1.9042 H   0  0  0  0  0  0  0  0  0  0  0  0
   -9.5428   -1.5393    1.2269 H   0  0  0  0  0  0  0  0  0  0  0  0
   -6.3741   -2.1768   -0.4158 H   0  0  0  0  0  0  0  0  0  0  0  0
   -3.6808   -1.3130   -2.6470 H   0  0  0  0  0  0  0  0  0  0  0  0
   -3.2395   -2.4099   -1.2511 H   0  0  0  0  0  0  0  0  0  0  0  0
   -4.8144   -2.5338   -2.0644 H   0  0  0  0  0  0  0  0  0  0  0  0
   -2.8994    1.1704   -2.0577 H   0  0  0  0  0  0  0  0  0  0  0  0
   -0.5581    1.2424   -2.2181 H   0  0  0  0  0  0  0  0  0  0  0  0
    1.6529    1.7997   -2.4660 H   0  0  0  0  0  0  0  0  0  0  0  0
    3.9958    1.5512   -2.0034 H   0  0  0  0  0  0  0  0  0  0  0  0
    3.0670   -1.0542    1.1984 H   0  0  0  0  0  0  0  0  0  0  0  0
    0.6580   -0.8083    0.7219 H   0  0  0  0  0  0  0  0  0  0  0  0
    5.5247    2.1104   -0.7769 H   0  0  0  0  0  0  0  0  0  0  0  0
    7.8855    1.9992   -0.4059 H   0  0  0  0  0  0  0  0  0  0  0  0
    7.5063   -1.9794    0.9666 H   0  0  0  0  0  0  0  0  0  0  0  0
    5.0342   -1.8801    0.5840 H   0  0  0  0  0  0  0  0  0  0  0  0
   10.8676   -1.2230    1.3544 H   0  0  0  0  0  0  0  0  0  0  0  0
   -4.1912    2.8230    1.6909 H   0  0  0  0  0  0  0  0  0  0  0  0
   -4.5610    3.2625    0.0099 H   0  0  0  0  0  0  0  0  0  0  0  0
   -3.0023    2.4824    0.3239 H   0  0  0  0  0  0  0  0  0  0  0  0
   -6.3943    1.5187    1.6427 H   0  0  0  0  0  0  0  0  0  0  0  0
  1  2  1  0
  2  3  1  0
  3  4  2  0
  4  5  1  0
  5  6  1  0
  5  7  2  0
  7  8  1  0
  8  9  1  0
  9 10  2  0
  9 11  1  0
 11 12  1  0
 12 13  2  0
 13 14  1  0
 14 15  2  0
 15 16  1  0
 16 17  2  0
 15 18  1  0
 18 19  2  0
 19 20  1  0
 20 21  2  0
 21 22  1  0
 22 23  2  0
 21 24  1  0
 24 25  1  0
 24 26  2  0
  7 27  1  0
 27 28  1  0
 27 29  2  0
 29  3  1  0
 17 12  1  0
 23 18  1  0
  1 30  1  0
  1 31  1  0
  1 32  1  0
  4 33  1  0
  6 34  1  0
  6 35  1  0
  6 36  1  0
  8 37  1  0
 11 38  1  0
 13 39  1  0
 14 40  1  0
 16 41  1  0
 17 42  1  0
 19 43  1  0
 20 44  1  0
 22 45  1  0
 23 46  1  0
 25 47  1  0
 28 48  1  0
 28 49  1  0
 28 50  1  0
 29 51  1  0
M  END
$$$$
[H]c1nc2c(c([H])nn2C([H])([H])[H])c([H])c1-c1c([H])nn([H])c1-c1c([H])c([H])c(N(C([H])([H])[H])C([H])([H])[H])c([H])c1[H]
     RDKit          3D

 42 45  0  0  0  0  0  0  0  0999 V2000
    3.4469    2.5448    1.5618 C   0  0  0  0  0  0  0  0  0  0  0  0
    4.0169    1.5062    0.7141 N   0  0  0  0  0  0  0  0  0  0  0  0
    5.4055    1.5121    0.3127 C   0  0  0  0  0  0  0  0  0  0  0  0
    3.0875    0.4906    0.3104 C   0  0  0  0  0  0  0  0  0  0  0  0
    2.3943    0.6270   -0.9001 C   0  0  0  0  0  0  0  0  0  0  0  0
    1.4952   -0.3241   -1.3132 C   0  0  0  0  0  0  0  0  0  0  0  0
    1.2192   -1.4551   -0.5808 C   0  0  0  0  0  0  0  0  0  0  0  0
    1.9135   -1.5756    0.6144 C   0  0  0  0  0  0  0  0  0  0  0  0
    2.8192   -0.6318    1.0455 C   0  0  0  0  0  0  0  0  0  0  0  0
    0.2807   -2.4951   -0.9840 C   0  0  0  0  0  0  0  0  0  0  0  0
    0.6622   -3.7372   -1.4374 N   0  0  0  0  0  0  0  0  0  0  0  0
   -0.4244   -4.4078   -1.7155 N   0  0  0  0  0  0  0  0  0  0  0  0
   -1.5180   -3.6918   -1.4764 C   0  0  0  0  0  0  0  0  0  0  0  0
   -1.0839   -2.4399   -0.9983 C   0  0  0  0  0  0  0  0  0  0  0  0
   -1.9417   -1.3433   -0.6076 C   0  0  0  0  0  0  0  0  0  0  0  0
   -2.0063   -0.2012   -1.3564 C   0  0  0  0  0  0  0  0  0  0  0  0
   -2.8004    0.8435   -1.0190 N   0  0  0  0  0  0  0  0  0  0  0  0
   -3.5838    0.8304    0.0811 C   0  0  0  0  0  0  0  0  0  0  0  0
   -4.4504    1.6781    0.6600 N   0  0  0  0  0  0  0  0  0  0  0  0
   -4.7640    2.9964    0.1350 C   0  0  0  0  0  0  0  0  0  0  0  0
   -4.9641    1.1310    1.7732 N   0  0  0  0  0  0  0  0  0  0  0  0
   -4.4352   -0.0855    1.9327 C   0  0  0  0  0  0  0  0  0  0  0  0
   -3.5675   -0.3096    0.8954 C   0  0  0  0  0  0  0  0  0  0  0  0
   -2.7477   -1.3722    0.5358 C   0  0  0  0  0  0  0  0  0  0  0  0
    2.7065    3.1551    0.9724 H   0  0  0  0  0  0  0  0  0  0  0  0
    4.2056    3.1920    2.0250 H   0  0  0  0  0  0  0  0  0  0  0  0
    2.8205    1.9912    2.3190 H   0  0  0  0  0  0  0  0  0  0  0  0
    5.5458    2.0531   -0.6621 H   0  0  0  0  0  0  0  0  0  0  0  0
    6.0353    1.9260    1.1133 H   0  0  0  0  0  0  0  0  0  0  0  0
    5.7097    0.4586    0.1501 H   0  0  0  0  0  0  0  0  0  0  0  0
    2.6183    1.5198   -1.4681 H   0  0  0  0  0  0  0  0  0  0  0  0
    0.9938   -0.1621   -2.2578 H   0  0  0  0  0  0  0  0  0  0  0  0
    1.7381   -2.4590    1.2502 H   0  0  0  0  0  0  0  0  0  0  0  0
    3.3428   -0.7602    1.9836 H   0  0  0  0  0  0  0  0  0  0  0  0
    1.6421   -4.0664   -1.5371 H   0  0  0  0  0  0  0  0  0  0  0  0
   -2.5640   -3.9363   -1.5931 H   0  0  0  0  0  0  0  0  0  0  0  0
   -1.4260   -0.0655   -2.2812 H   0  0  0  0  0  0  0  0  0  0  0  0
   -4.2347    3.7924    0.7308 H   0  0  0  0  0  0  0  0  0  0  0  0
   -4.4081    3.0844   -0.9120 H   0  0  0  0  0  0  0  0  0  0  0  0
   -5.8301    3.2186    0.1831 H   0  0  0  0  0  0  0  0  0  0  0  0
   -4.6510   -0.7609    2.7291 H   0  0  0  0  0  0  0  0  0  0  0  0
   -2.6987   -2.2709    1.1293 H   0  0  0  0  0  0  0  0  0  0  0  0
  1  2  1  0
  2  3  1  0
  2  4  1  0
  4  5  2  0
  5  6  1  0
  6  7  2  0
  7  8  1  0
  8  9  2  0
  7 10  1  0
 10 11  1  0
 11 12  1  0
 12 13  2  0
 13 14  1  0
 14 15  1  0
 15 16  2  0
 16 17  1  0
 17 18  2  0
 18 19  1  0
 19 20  1  0
 19 21  1  0
 21 22  2  0
 22 23  1  0
 23 24  2  0
  9  4  1  0
 14 10  2  0
 24 15  1  0
 23 18  1  0
  1 25  1  0
  1 26  1  0
  1 27  1  0
  3 28  1  0
  3 29  1  0
  3 30  1  0
  5 31  1  0
  6 32  1  0
  8 33  1  0
  9 34  1  0
 11 35  1  0
 13 36  1  0
 16 37  1  0
 20 38  1  0
 20 39  1  0
 20 40  1  0
 22 41  1  0
 24 42  1  0
M  END
$$$$
[H]c1c([H])c(-c2c([H])c(F)c(-c3nc(C([H])([H])[H])c([H])n3[H])c([H])c2C#N)c([H])c(C([H])([H])[H])c1[H]
     RDKit          3D

 36 38  0  0  0  0  0  0  0  0999 V2000
   -5.7175    0.9940   -0.2744 C   0  0  0  0  0  0  0  0  0  0  0  0
   -4.6670    0.0350    0.1430 C   0  0  0  0  0  0  0  0  0  0  0  0
   -5.0403   -1.1619    0.7299 C   0  0  0  0  0  0  0  0  0  0  0  0
   -4.0794   -2.0680    1.1256 C   0  0  0  0  0  0  0  0  0  0  0  0
   -2.7353   -1.8172    0.9529 C   0  0  0  0  0  0  0  0  0  0  0  0
   -2.3310   -0.6148    0.3619 C   0  0  0  0  0  0  0  0  0  0  0  0
   -3.3128    0.2759   -0.0252 C   0  0  0  0  0  0  0  0  0  0  0  0
   -0.9260   -0.3708    0.2024 C   0  0  0  0  0  0  0  0  0  0  0  0
   -0.0430   -0.5328    1.2777 C   0  0  0  0  0  0  0  0  0  0  0  0
    1.3068   -0.2899    1.1411 C   0  0  0  0  0  0  0  0  0  0  0  0
    2.1176   -0.4686    2.2374 F   0  0  0  0  0  0  0  0  0  0  0  0
    1.7853    0.1150   -0.0654 C   0  0  0  0  0  0  0  0  0  0  0  0
    0.9599    0.2896   -1.1557 C   0  0  0  0  0  0  0  0  0  0  0  0
   -0.4102    0.0398   -1.0058 C   0  0  0  0  0  0  0  0  0  0  0  0
   -1.2465    0.2177   -2.1671 C   0  0  0  0  0  0  0  0  0  0  0  0
   -1.9137    0.3472   -3.1244 N   0  0  0  0  0  0  0  0  0  0  0  0
    3.2288    0.3741   -0.2085 C   0  0  0  0  0  0  0  0  0  0  0  0
    4.1621    0.2519    0.7513 N   0  0  0  0  0  0  0  0  0  0  0  0
    5.3621    0.5713    0.2546 C   0  0  0  0  0  0  0  0  0  0  0  0
    6.6767    0.5706    0.9838 C   0  0  0  0  0  0  0  0  0  0  0  0
    5.1775    0.9064   -1.0645 C   0  0  0  0  0  0  0  0  0  0  0  0
    3.8676    0.7818   -1.3361 N   0  0  0  0  0  0  0  0  0  0  0  0
   -6.6813    0.4543   -0.3675 H   0  0  0  0  0  0  0  0  0  0  0  0
   -5.4134    1.4327   -1.2588 H   0  0  0  0  0  0  0  0  0  0  0  0
   -5.7963    1.8638    0.4331 H   0  0  0  0  0  0  0  0  0  0  0  0
   -6.0982   -1.3925    0.8817 H   0  0  0  0  0  0  0  0  0  0  0  0
   -4.3492   -3.0186    1.5909 H   0  0  0  0  0  0  0  0  0  0  0  0
   -2.0127   -2.5534    1.2766 H   0  0  0  0  0  0  0  0  0  0  0  0
   -3.0630    1.2230   -0.4797 H   0  0  0  0  0  0  0  0  0  0  0  0
   -0.4799   -0.8566    2.2125 H   0  0  0  0  0  0  0  0  0  0  0  0
    1.3265    0.6127   -2.1266 H   0  0  0  0  0  0  0  0  0  0  0  0
    7.0682    1.6030    1.0662 H   0  0  0  0  0  0  0  0  0  0  0  0
    7.4084   -0.0719    0.4459 H   0  0  0  0  0  0  0  0  0  0  0  0
    6.5092    0.0880    1.9646 H   0  0  0  0  0  0  0  0  0  0  0  0
    5.9731    1.2086   -1.7224 H   0  0  0  0  0  0  0  0  0  0  0  0
    3.3870    0.9605   -2.2511 H   0  0  0  0  0  0  0  0  0  0  0  0
  1  2  1  0
  2  3  2  0
  3  4  1  0
  4  5  2  0
  5  6  1  0
  6  7  2  0
  6  8  1  0
  8  9  2  0
  9 10  1  0
 10 11  1  0
 10 12  2  0
 12 13  1  0
 13 14  2  0
 14 15  1  0
 15 16  3  0
 12 17  1  0
 17 18  2  0
 18 19  1  0
 19 20  1  0
 19 21  2  0
 21 22  1  0
  7  2  1  0
 14  8  1  0
 22 17  1  0
  1 23  1  0
  1 24  1  0
  1 25  1  0
  3 26  1  0
  4 27  1  0
  5 28  1  0
  7 29  1  0
  9 30  1  0
 13 31  1  0
 20 32  1  0
 20 33  1  0
 20 34  1  0
 21 35  1  0
 22 36  1  0
M  END
$$$$
[H]c1c([H])c(-c2c([H])n([C@@]3([H])C([H])([H])N([H])C([H])([H])C3([H])[H])c3nc(N([H])[C@]([H])(C([H])([H])[H])C([H])([H])C([H])([H])[H])c([H])c([H])c23)c([H])c(N([H])C(=O)C2([H])C([H])([H])C2([H])[H])c1[H]
     RDKit          3D

 62 66  0  0  0  0  0  0  0  0999 V2000
   -5.3510    2.5699    0.1631 C   0  0  0  0  0  0  0  0  0  0  0  0
   -5.3193    2.1874   -1.3165 C   0  0  0  0  0  0  0  0  0  0  0  0
   -5.4770    0.6849   -1.3704 C   0  0  1  0  0  0  0  0  0  0  0  0
   -5.4589    0.1667   -2.7944 C   0  0  0  0  0  0  0  0  0  0  0  0
   -4.6059   -0.0184   -0.4969 N   0  0  0  0  0  0  0  0  0  0  0  0
   -3.2079   -0.1302   -0.5608 C   0  0  0  0  0  0  0  0  0  0  0  0
   -2.4455    0.4131   -1.5450 C   0  0  0  0  0  0  0  0  0  0  0  0
   -1.0570    0.2793   -1.5494 C   0  0  0  0  0  0  0  0  0  0  0  0
   -0.4440   -0.4158   -0.5398 C   0  0  0  0  0  0  0  0  0  0  0  0
    0.8744   -0.7142   -0.2706 C   0  0  0  0  0  0  0  0  0  0  0  0
    0.8593   -1.4453    0.8952 C   0  0  0  0  0  0  0  0  0  0  0  0
   -0.3990   -1.6029    1.3423 N   0  0  0  0  0  0  0  0  0  0  0  0
   -0.8059   -2.3153    2.5393 C   0  0  2  0  0  0  0  0  0  0  0  0
   -1.6604   -3.4895    2.1550 C   0  0  0  0  0  0  0  0  0  0  0  0
   -2.6883   -3.5405    3.2574 C   0  0  0  0  0  0  0  0  0  0  0  0
   -2.8320   -2.1959    3.7612 N   0  0  0  0  0  0  0  0  0  0  0  0
   -1.6421   -1.4767    3.4398 C   0  0  0  0  0  0  0  0  0  0  0  0
   -1.2225   -0.9733    0.4687 C   0  0  0  0  0  0  0  0  0  0  0  0
   -2.5513   -0.8104    0.4180 N   0  0  0  0  0  0  0  0  0  0  0  0
    2.0439   -0.3239   -1.0784 C   0  0  0  0  0  0  0  0  0  0  0  0
    2.0528   -0.4619   -2.4500 C   0  0  0  0  0  0  0  0  0  0  0  0
    3.1155   -0.1100   -3.2295 C   0  0  0  0  0  0  0  0  0  0  0  0
    4.2489    0.4184   -2.5779 C   0  0  0  0  0  0  0  0  0  0  0  0
    4.3170    0.5853   -1.2231 C   0  0  0  0  0  0  0  0  0  0  0  0
    5.4431    1.0917   -0.5502 N   0  0  0  0  0  0  0  0  0  0  0  0
    6.7247    1.2072   -1.0542 C   0  0  0  0  0  0  0  0  0  0  0  0
    7.0566    0.8652   -2.1904 O   0  0  0  0  0  0  0  0  0  0  0  0
    7.7682    1.7913   -0.1390 C   0  0  0  0  0  0  0  0  0  0  0  0
    7.3075    2.8545    0.7990 C   0  0  0  0  0  0  0  0  0  0  0  0
    7.5927    1.4743    1.3041 C   0  0  0  0  0  0  0  0  0  0  0  0
    3.1764    0.1949   -0.5130 C   0  0  0  0  0  0  0  0  0  0  0  0
   -6.2009    2.0542    0.6471 H   0  0  0  0  0  0  0  0  0  0  0  0
   -5.4673    3.6761    0.2130 H   0  0  0  0  0  0  0  0  0  0  0  0
   -4.4281    2.3151    0.6844 H   0  0  0  0  0  0  0  0  0  0  0  0
   -6.2368    2.6509   -1.7498 H   0  0  0  0  0  0  0  0  0  0  0  0
   -4.4741    2.6062   -1.8347 H   0  0  0  0  0  0  0  0  0  0  0  0
   -6.5535    0.5306   -1.0517 H   0  0  0  0  0  0  0  0  0  0  0  0
   -5.0529    1.0118   -3.4237 H   0  0  0  0  0  0  0  0  0  0  0  0
   -4.7947   -0.7192   -2.8759 H   0  0  0  0  0  0  0  0  0  0  0  0
   -6.4338   -0.0759   -3.2100 H   0  0  0  0  0  0  0  0  0  0  0  0
   -5.0775   -0.5306    0.3173 H   0  0  0  0  0  0  0  0  0  0  0  0
   -2.9130    0.9485   -2.3403 H   0  0  0  0  0  0  0  0  0  0  0  0
   -0.4962    0.7393   -2.3670 H   0  0  0  0  0  0  0  0  0  0  0  0
    1.7564   -1.8359    1.3769 H   0  0  0  0  0  0  0  0  0  0  0  0
    0.0871   -2.6797    3.0642 H   0  0  0  0  0  0  0  0  0  0  0  0
   -1.0425   -4.4143    2.1058 H   0  0  0  0  0  0  0  0  0  0  0  0
   -2.1259   -3.2720    1.1570 H   0  0  0  0  0  0  0  0  0  0  0  0
   -3.6511   -3.8270    2.7852 H   0  0  0  0  0  0  0  0  0  0  0  0
   -2.3522   -4.2674    3.9975 H   0  0  0  0  0  0  0  0  0  0  0  0
   -3.1298   -2.1415    4.7468 H   0  0  0  0  0  0  0  0  0  0  0  0
   -1.9232   -0.4965    3.0209 H   0  0  0  0  0  0  0  0  0  0  0  0
   -1.0649   -1.2439    4.3823 H   0  0  0  0  0  0  0  0  0  0  0  0
    1.1802   -0.8691   -2.9411 H   0  0  0  0  0  0  0  0  0  0  0  0
    3.1316   -0.2154   -4.3135 H   0  0  0  0  0  0  0  0  0  0  0  0
    5.0632    0.6989   -3.2197 H   0  0  0  0  0  0  0  0  0  0  0  0
    5.2440    1.4134    0.4546 H   0  0  0  0  0  0  0  0  0  0  0  0
    8.7640    1.8591   -0.5899 H   0  0  0  0  0  0  0  0  0  0  0  0
    6.2523    3.1749    0.7272 H   0  0  0  0  0  0  0  0  0  0  0  0
    8.0057    3.6796    1.0680 H   0  0  0  0  0  0  0  0  0  0  0  0
    8.5401    1.3334    1.8642 H   0  0  0  0  0  0  0  0  0  0  0  0
    6.7820    0.8232    1.6577 H   0  0  0  0  0  0  0  0  0  0  0  0
    3.1985    0.3134    0.5537 H   0  0  0  0  0  0  0  0  0  0  0  0
  1  2  1  0
  2  3  1  0
  3  4  1  0
  3  5  1  0
  5  6  1  0
  6  7  2  0
  7  8  1  0
  8  9  2  0
  9 10  1  0
 10 11  2  0
 11 12  1  0
 12 13  1  0
 13 14  1  0
 14 15  1  0
 15 16  1  0
 16 17  1  0
 12 18  1  0
 18 19  2  0
 10 20  1  0
 20 21  2  0
 21 22  1  0
 22 23  2  0
 23 24  1  0
 24 25  1  0
 25 26  1  0
 26 27  2  0
 26 28  1  0
 28 29  1  0
 29 30  1  0
 24 31  2  0
 19  6  1  0
 31 20  1  0
 18  9  1  0
 30 28  1  0
 17 13  1  0
  1 32  1  0
  1 33  1  0
  1 34  1  0
  2 35  1  0
  2 36  1  0
  3 37  1  1
  4 38  1  0
  4 39  1  0
  4 40  1  0
  5 41  1  0
  7 42  1  0
  8 43  1  0
 11 44  1  0
 13 45  1  1
 14 46  1  0
 14 47  1  0
 15 48  1  0
 15 49  1  0
 16 50  1  0
 17 51  1  0
 17 52  1  0
 21 53  1  0
 22 54  1  0
 23 55  1  0
 25 56  1  0
 28 57  1  0
 29 58  1  0
 29 59  1  0
 30 60  1  0
 30 61  1  0
 31 62  1  0
M  END
$$$$
[H]c1c([H])c(OC([H])(C([H])([H])[H])C([H])([H])[H])c(Cl)c([H])c1OC([H])([H])C([H])([H])N1C([H])([H])c2c([H])c(OC([H])([H])[H])c(OC([H])([H])[H])c([H])c2C([H])([H])C1([H])[H]
     RDKit          3D

 56 58  0  0  0  0  0  0  0  0999 V2000
   -8.0404   -2.3864    1.0106 C   0  0  0  0  0  0  0  0  0  0  0  0
   -7.8328   -1.0359    0.6277 O   0  0  0  0  0  0  0  0  0  0  0  0
   -6.5504   -0.5155    0.6899 C   0  0  0  0  0  0  0  0  0  0  0  0
   -5.4501   -1.2699    1.1167 C   0  0  0  0  0  0  0  0  0  0  0  0
   -4.1916   -0.7226    1.1663 C   0  0  0  0  0  0  0  0  0  0  0  0
   -3.0177   -1.5002    1.6140 C   0  0  0  0  0  0  0  0  0  0  0  0
   -1.8966   -1.2090    0.6531 C   0  0  0  0  0  0  0  0  0  0  0  0
   -1.6694    0.1567    0.4066 N   0  0  0  0  0  0  0  0  0  0  0  0
   -0.6958    0.5296   -0.5331 C   0  0  0  0  0  0  0  0  0  0  0  0
    0.7250    0.2336   -0.1404 C   0  0  0  0  0  0  0  0  0  0  0  0
    1.5997    0.6587   -1.1695 O   0  0  0  0  0  0  0  0  0  0  0  0
    2.9788    0.5141   -1.0796 C   0  0  0  0  0  0  0  0  0  0  0  0
    3.6180   -0.0492    0.0040 C   0  0  0  0  0  0  0  0  0  0  0  0
    4.9815   -0.2023    0.1153 C   0  0  0  0  0  0  0  0  0  0  0  0
    5.7854    0.2287   -0.9125 C   0  0  0  0  0  0  0  0  0  0  0  0
    7.1561    0.1301   -0.9155 O   0  0  0  0  0  0  0  0  0  0  0  0
    7.9988   -0.3906    0.0465 C   0  0  0  0  0  0  0  0  0  0  0  0
    8.9597    0.6398    0.6124 C   0  0  0  0  0  0  0  0  0  0  0  0
    8.8301   -1.5562   -0.4679 C   0  0  0  0  0  0  0  0  0  0  0  0
    5.1670    0.8050   -2.0265 C   0  0  0  0  0  0  0  0  0  0  0  0
    6.1660    1.3725   -3.3711 Cl  0  0  0  0  0  0  0  0  0  0  0  0
    3.8016    0.9400   -2.0997 C   0  0  0  0  0  0  0  0  0  0  0  0
   -2.5860    1.1143    0.8761 C   0  0  0  0  0  0  0  0  0  0  0  0
   -3.9801    0.5818    0.7978 C   0  0  0  0  0  0  0  0  0  0  0  0
   -5.0587    1.3379    0.3743 C   0  0  0  0  0  0  0  0  0  0  0  0
   -6.3373    0.8011    0.3179 C   0  0  0  0  0  0  0  0  0  0  0  0
   -7.4023    1.5852   -0.1119 O   0  0  0  0  0  0  0  0  0  0  0  0
   -7.1761    2.9202   -0.4874 C   0  0  0  0  0  0  0  0  0  0  0  0
   -7.4946   -3.0905    0.3658 H   0  0  0  0  0  0  0  0  0  0  0  0
   -9.1521   -2.5500    0.9324 H   0  0  0  0  0  0  0  0  0  0  0  0
   -7.7195   -2.5052    2.0547 H   0  0  0  0  0  0  0  0  0  0  0  0
   -5.6635   -2.2903    1.3966 H   0  0  0  0  0  0  0  0  0  0  0  0
   -3.2197   -2.5858    1.5717 H   0  0  0  0  0  0  0  0  0  0  0  0
   -2.7308   -1.2588    2.6602 H   0  0  0  0  0  0  0  0  0  0  0  0
   -0.9531   -1.7451    0.9457 H   0  0  0  0  0  0  0  0  0  0  0  0
   -2.1926   -1.6950   -0.3227 H   0  0  0  0  0  0  0  0  0  0  0  0
   -0.7683    1.6103   -0.7414 H   0  0  0  0  0  0  0  0  0  0  0  0
   -0.8787   -0.0035   -1.5118 H   0  0  0  0  0  0  0  0  0  0  0  0
    0.9596    0.8922    0.7420 H   0  0  0  0  0  0  0  0  0  0  0  0
    0.9239   -0.8201    0.0440 H   0  0  0  0  0  0  0  0  0  0  0  0
    2.9894   -0.3927    0.8206 H   0  0  0  0  0  0  0  0  0  0  0  0
    5.4296   -0.6585    1.0035 H   0  0  0  0  0  0  0  0  0  0  0  0
    7.4164   -0.7780    0.9002 H   0  0  0  0  0  0  0  0  0  0  0  0
    9.9503    0.4927    0.1479 H   0  0  0  0  0  0  0  0  0  0  0  0
    9.0882    0.4862    1.6971 H   0  0  0  0  0  0  0  0  0  0  0  0
    8.6481    1.6743    0.3533 H   0  0  0  0  0  0  0  0  0  0  0  0
    8.3266   -2.0731   -1.2976 H   0  0  0  0  0  0  0  0  0  0  0  0
    9.0868   -2.2412    0.3759 H   0  0  0  0  0  0  0  0  0  0  0  0
    9.7696   -1.1269   -0.8633 H   0  0  0  0  0  0  0  0  0  0  0  0
    3.3007    1.3859   -2.9587 H   0  0  0  0  0  0  0  0  0  0  0  0
   -2.4451    1.4238    1.9325 H   0  0  0  0  0  0  0  0  0  0  0  0
   -2.5610    2.0183    0.2071 H   0  0  0  0  0  0  0  0  0  0  0  0
   -4.8506    2.3616    0.0924 H   0  0  0  0  0  0  0  0  0  0  0  0
   -6.6640    3.4084    0.3858 H   0  0  0  0  0  0  0  0  0  0  0  0
   -6.4026    2.8934   -1.2986 H   0  0  0  0  0  0  0  0  0  0  0  0
   -8.0752    3.4564   -0.7887 H   0  0  0  0  0  0  0  0  0  0  0  0
  1  2  1  0
  2  3  1  0
  3  4  2  0
  4  5  1  0
  5  6  1  0
  6  7  1  0
  7  8  1  0
  8  9  1  0
  9 10  1  0
 10 11  1  0
 11 12  1  0
 12 13  2  0
 13 14  1  0
 14 15  2  0
 15 16  1  0
 16 17  1  0
 17 18  1  0
 17 19  1  0
 15 20  1  0
 20 21  1  0
 20 22  2  0
  8 23  1  0
 23 24  1  0
 24 25  1  0
 25 26  2  0
 26 27  1  0
 27 28  1  0
 26  3  1  0
 24  5  2  0
 22 12  1  0
  1 29  1  0
  1 30  1  0
  1 31  1  0
  4 32  1  0
  6 33  1  0
  6 34  1  0
  7 35  1  0
  7 36  1  0
  9 37  1  0
  9 38  1  0
 10 39  1  0
 10 40  1  0
 13 41  1  0
 14 42  1  0
 17 43  1  0
 18 44  1  0
 18 45  1  0
 18 46  1  0
 19 47  1  0
 19 48  1  0
 19 49  1  0
 22 50  1  0
 23 51  1  0
 23 52  1  0
 25 53  1  0
 28 54  1  0
 28 55  1  0
 28 56  1  0
M  END
$$$$
[H]OC(=O)C1([H])C([H])([H])C1([H])c1c([H])c(OC([H])([H])[H])nc(-c2c([H])c([H])c([H])c([H])c2[H])c1[H]
     RDKit          3D

 35 37  0  0  0  0  0  0  0  0999 V2000
    0.6747    4.2574   -0.1180 C   0  0  0  0  0  0  0  0  0  0  0  0
   -0.4122    3.3849   -0.0669 O   0  0  0  0  0  0  0  0  0  0  0  0
   -0.2979    2.0009   -0.0290 C   0  0  0  0  0  0  0  0  0  0  0  0
   -1.4415    1.2337    0.0204 C   0  0  0  0  0  0  0  0  0  0  0  0
   -1.3369   -0.1318    0.0580 C   0  0  0  0  0  0  0  0  0  0  0  0
   -0.0404   -0.6776    0.0436 C   0  0  0  0  0  0  0  0  0  0  0  0
    1.0792    0.1036   -0.0055 C   0  0  0  0  0  0  0  0  0  0  0  0
    0.9342    1.4474   -0.0416 N   0  0  0  0  0  0  0  0  0  0  0  0
    2.4644   -0.4006   -0.0232 C   0  0  0  0  0  0  0  0  0  0  0  0
    3.5256    0.4854   -0.0742 C   0  0  0  0  0  0  0  0  0  0  0  0
    4.8056    0.0009   -0.0899 C   0  0  0  0  0  0  0  0  0  0  0  0
    5.0439   -1.3578   -0.0554 C   0  0  0  0  0  0  0  0  0  0  0  0
    3.9917   -2.2453   -0.0046 C   0  0  0  0  0  0  0  0  0  0  0  0
    2.7155   -1.7451    0.0106 C   0  0  0  0  0  0  0  0  0  0  0  0
   -2.4912   -1.0468    0.1119 C   0  0  0  0  0  0  0  0  0  0  0  0
   -3.6224   -0.5502    1.0310 C   0  0  0  0  0  0  0  0  0  0  0  0
   -3.8014   -0.6779   -0.4548 C   0  0  0  0  0  0  0  0  0  0  0  0
   -4.7271   -1.7774   -0.8528 C   0  0  0  0  0  0  0  0  0  0  0  0
   -4.6969   -2.9960   -0.1898 O   0  0  0  0  0  0  0  0  0  0  0  0
   -5.5641   -1.6440   -1.7971 O   0  0  0  0  0  0  0  0  0  0  0  0
    0.6804    4.7516   -1.1109 H   0  0  0  0  0  0  0  0  0  0  0  0
    0.6463    5.0476    0.6493 H   0  0  0  0  0  0  0  0  0  0  0  0
    1.6561    3.7439   -0.0058 H   0  0  0  0  0  0  0  0  0  0  0  0
   -2.4074    1.7091    0.0290 H   0  0  0  0  0  0  0  0  0  0  0  0
    0.0867   -1.7486    0.0721 H   0  0  0  0  0  0  0  0  0  0  0  0
    3.2914    1.5431   -0.0999 H   0  0  0  0  0  0  0  0  0  0  0  0
    5.6458    0.6795   -0.1296 H   0  0  0  0  0  0  0  0  0  0  0  0
    6.0466   -1.7664   -0.0669 H   0  0  0  0  0  0  0  0  0  0  0  0
    4.1782   -3.3138    0.0225 H   0  0  0  0  0  0  0  0  0  0  0  0
    1.8771   -2.4620    0.0514 H   0  0  0  0  0  0  0  0  0  0  0  0
   -2.2669   -2.1311    0.1384 H   0  0  0  0  0  0  0  0  0  0  0  0
   -4.0210   -1.3214    1.7039 H   0  0  0  0  0  0  0  0  0  0  0  0
   -3.5273    0.4471    1.4783 H   0  0  0  0  0  0  0  0  0  0  0  0
   -3.8699    0.2584   -1.0116 H   0  0  0  0  0  0  0  0  0  0  0  0
   -4.8192   -3.1011    0.8071 H   0  0  0  0  0  0  0  0  0  0  0  0
  1  2  1  0
  2  3  1  0
  3  4  2  0
  4  5  1  0
  5  6  2  0
  6  7  1  0
  7  8  2  0
  7  9  1  0
  9 10  2  0
 10 11  1  0
 11 12  2  0
 12 13  1  0
 13 14  2  0
  5 15  1  0
 15 16  1  0
 16 17  1  0
 17 18  1  0
 18 19  1  0
 18 20  2  0
  8  3  1  0
 14  9  1  0
 17 15  1  0
  1 21  1  0
  1 22  1  0
  1 23  1  0
  4 24  1  0
  6 25  1  0
 10 26  1  0
 11 27  1  0
 12 28  1  0
 13 29  1  0
 14 30  1  0
 15 31  1  0
 16 32  1  0
 16 33  1  0
 17 34  1  0
 19 35  1  0
M  END
$$$$
[H]c1c([H])c([H])c2c(c1[H])C([H])(C1=C(N([H])[H])N([H])C(=O)c3c([H])c(nn3OC([H])(C([H])([H])[H])C([H])([H])[H])C(C([H])([H])[H])(C([H])([H])[H])C1([H])[H])c1c([H])c([H])c([H])c([H])c1C([H])([H])C2([H])[H]
     RDKit          2D

 66 70  0  0  0  0  0  0  0  0999 V2000
    8.4502   -7.8174    0.0000 C   0  0  0  0  0  0  0  0  0  0  0  0
    9.8572   -7.2974    0.0000 C   0  0  0  0  0  0  0  0  0  0  0  0
   11.2641   -6.7773    0.0000 C   0  0  0  0  0  0  0  0  0  0  0  0
    9.3371   -5.8904    0.0000 O   0  0  0  0  0  0  0  0  0  0  0  0
    7.8586   -5.6373    0.0000 N   0  0  0  0  0  0  0  0  0  0  0  0
    6.7848   -6.6846    0.0000 N   0  0  0  0  0  0  0  0  0  0  0  0
    5.4569   -5.9870    0.0000 C   0  0  0  0  0  0  0  0  0  0  0  0
    5.7100   -4.5086    0.0000 C   0  0  0  0  0  0  0  0  0  0  0  0
    7.1943   -4.2924    0.0000 C   0  0  0  0  0  0  0  0  0  0  0  0
    6.8242   -2.8388    0.0000 C   0  0  0  0  0  0  0  0  0  0  0  0
    8.0636   -1.9938    0.0000 O   0  0  0  0  0  0  0  0  0  0  0  0
    5.6063   -1.9632    0.0000 N   0  0  0  0  0  0  0  0  0  0  0  0
    4.1105   -2.0753    0.0000 C   0  0  0  0  0  0  0  0  0  0  0  0
    3.4936   -0.7080    0.0000 N   0  0  0  0  0  0  0  0  0  0  0  0
    3.0367   -3.1226    0.0000 C   0  0  0  0  0  0  0  0  0  0  0  0
    1.6852   -2.4718    0.0000 C   0  0  0  0  0  0  0  0  0  0  0  0
    0.1852   -2.4718    0.0000 C   0  0  0  0  0  0  0  0  0  0  0  0
   -0.3628   -3.8681    0.0000 C   0  0  0  0  0  0  0  0  0  0  0  0
   -1.8460   -4.0917    0.0000 C   0  0  0  0  0  0  0  0  0  0  0  0
   -2.7813   -2.9189    0.0000 C   0  0  0  0  0  0  0  0  0  0  0  0
   -2.2332   -1.5226    0.0000 C   0  0  0  0  0  0  0  0  0  0  0  0
   -0.7500   -1.2990    0.0000 C   0  0  0  0  0  0  0  0  0  0  0  0
   -0.4162    0.1634    0.0000 C   0  0  0  0  0  0  0  0  0  0  0  0
    0.9352    0.8142    0.0000 C   0  0  0  0  0  0  0  0  0  0  0  0
    2.2867    0.1634    0.0000 C   0  0  0  0  0  0  0  0  0  0  0  0
    3.3863    1.1836    0.0000 C   0  0  0  0  0  0  0  0  0  0  0  0
    4.8196    0.7415    0.0000 C   0  0  0  0  0  0  0  0  0  0  0  0
    5.1534   -0.7209    0.0000 C   0  0  0  0  0  0  0  0  0  0  0  0
    4.0538   -1.7412    0.0000 C   0  0  0  0  0  0  0  0  0  0  0  0
    2.6205   -1.2990    0.0000 C   0  0  0  0  0  0  0  0  0  0  0  0
    3.7323   -5.8545    0.0000 C   0  0  0  0  0  0  0  0  0  0  0  0
    2.3027   -6.3085    0.0000 C   0  0  0  0  0  0  0  0  0  0  0  0
    3.7572   -7.3543    0.0000 C   0  0  0  0  0  0  0  0  0  0  0  0
    2.8873   -4.6152    0.0000 C   0  0  0  0  0  0  0  0  0  0  0  0
    7.0432   -8.3375    0.0000 H   0  0  0  0  0  0  0  0  0  0  0  0
    8.9702   -9.2244    0.0000 H   0  0  0  0  0  0  0  0  0  0  0  0
    7.6051   -6.5781    0.0000 H   0  0  0  0  0  0  0  0  0  0  0  0
   10.3772   -8.7043    0.0000 H   0  0  0  0  0  0  0  0  0  0  0  0
   12.6711   -6.2572    0.0000 H   0  0  0  0  0  0  0  0  0  0  0  0
   11.7842   -8.1843    0.0000 H   0  0  0  0  0  0  0  0  0  0  0  0
   10.7441   -5.3703    0.0000 H   0  0  0  0  0  0  0  0  0  0  0  0
    4.5396   -3.5704    0.0000 H   0  0  0  0  0  0  0  0  0  0  0  0
    6.1855   -0.5795    0.0000 H   0  0  0  0  0  0  0  0  0  0  0  0
    4.6379    0.2618    0.0000 H   0  0  0  0  0  0  0  0  0  0  0  0
    2.0815   -0.2019    0.0000 H   0  0  0  0  0  0  0  0  0  0  0  0
    1.1757   -3.8826    0.0000 H   0  0  0  0  0  0  0  0  0  0  0  0
    0.5725   -5.0408    0.0000 H   0  0  0  0  0  0  0  0  0  0  0  0
   -2.3940   -5.4880    0.0000 H   0  0  0  0  0  0  0  0  0  0  0  0
   -4.2645   -3.1425    0.0000 H   0  0  0  0  0  0  0  0  0  0  0  0
   -3.1685   -0.3499    0.0000 H   0  0  0  0  0  0  0  0  0  0  0  0
   -1.9162    0.1634    0.0000 H   0  0  0  0  0  0  0  0  0  0  0  0
   -0.9258    1.5742    0.0000 H   0  0  0  0  0  0  0  0  0  0  0  0
    0.1499    2.0922    0.0000 H   0  0  0  0  0  0  0  0  0  0  0  0
    1.8705    1.9869    0.0000 H   0  0  0  0  0  0  0  0  0  0  0  0
    3.0525    2.6460    0.0000 H   0  0  0  0  0  0  0  0  0  0  0  0
    5.9192    1.7617    0.0000 H   0  0  0  0  0  0  0  0  0  0  0  0
    6.6300   -0.9850    0.0000 H   0  0  0  0  0  0  0  0  0  0  0  0
    4.2069   -3.2333    0.0000 H   0  0  0  0  0  0  0  0  0  0  0  0
    0.8730   -6.7626    0.0000 H   0  0  0  0  0  0  0  0  0  0  0  0
    2.5791   -7.7829    0.0000 H   0  0  0  0  0  0  0  0  0  0  0  0
    1.5162   -5.0313    0.0000 H   0  0  0  0  0  0  0  0  0  0  0  0
    3.7822   -8.8541    0.0000 H   0  0  0  0  0  0  0  0  0  0  0  0
    5.2570   -7.3294    0.0000 H   0  0  0  0  0  0  0  0  0  0  0  0
    2.2717   -7.5619    0.0000 H   0  0  0  0  0  0  0  0  0  0  0  0
    1.5003   -4.0440    0.0000 H   0  0  0  0  0  0  0  0  0  0  0  0
    1.5876   -5.3640    0.0000 H   0  0  0  0  0  0  0  0  0  0  0  0
  1  2  1  0
  2  3  1  0
  2  4  1  0
  4  5  1  0
  5  6  1  0
  6  7  2  0
  7  8  1  0
  8  9  2  0
  9 10  1  0
 10 11  2  0
 10 12  1  0
 12 13  1  0
 13 14  1  0
 13 15  2  0
 15 16  1  0
 16 17  1  0
 17 18  2  0
 18 19  1  0
 19 20  2  0
 20 21  1  0
 21 22  2  0
 22 23  1  0
 23 24  1  0
 24 25  1  0
 25 26  2  0
 26 27  1  0
 27 28  2  0
 28 29  1  0
 29 30  2  0
  7 31  1  0
 31 32  1  0
 31 33  1  0
 31 34  1  0
  9  5  1  0
 34 15  1  0
 30 16  1  0
 22 17  1  0
 30 25  1  0
  1 35  1  0
  1 36  1  0
  1 37  1  0
  2 38  1  0
  3 39  1  0
  3 40  1  0
  3 41  1  0
  8 42  1  0
 12 43  1  0
 14 44  1  0
 14 45  1  0
 16 46  1  0
 18 47  1  0
 19 48  1  0
 20 49  1  0
 21 50  1  0
 23 51  1  0
 23 52  1  0
 24 53  1  0
 24 54  1  0
 26 55  1  0
 27 56  1  0
 28 57  1  0
 29 58  1  0
 32 59  1  0
 32 60  1  0
 32 61  1  0
 33 62  1  0
 33 63  1  0
 33 64  1  0
 34 65  1  0
 34 66  1  0
M  END
$$$$
[H]c1c([H])c([H])c(C2([H])C([H])([H])N(C(=O)[C@]([H])(Oc3c([H])c([H])c([H])c(C([H])([H])C([H])([H])N4C([H])([H])C([H])([H])C(F)(F)C4([H])[H])c3[H])C([H])([H])[H])C([H])([H])C([H])([H])C2([H])[H])c([H])c1[H]
     RDKit          3D

 64 67  0  0  0  0  0  0  0  0999 V2000
   -0.9565   -2.1979   -0.1761 C   0  0  0  0  0  0  0  0  0  0  0  0
   -0.6625   -0.7818    0.3562 C   0  0  1  0  0  0  0  0  0  0  0  0
    0.4471   -0.2506   -0.3027 O   0  0  0  0  0  0  0  0  0  0  0  0
    1.6089    0.1943    0.2468 C   0  0  0  0  0  0  0  0  0  0  0  0
    1.8146    0.1609    1.6050 C   0  0  0  0  0  0  0  0  0  0  0  0
    3.0191    0.6269    2.1262 C   0  0  0  0  0  0  0  0  0  0  0  0
    3.9885    1.1161    1.2610 C   0  0  0  0  0  0  0  0  0  0  0  0
    3.8182    1.1633   -0.0895 C   0  0  0  0  0  0  0  0  0  0  0  0
    4.8351    1.6697   -1.0064 C   0  0  0  0  0  0  0  0  0  0  0  0
    5.7770    0.6671   -1.5687 C   0  0  0  0  0  0  0  0  0  0  0  0
    6.5285    0.0294   -0.5481 N   0  0  0  0  0  0  0  0  0  0  0  0
    7.4887    0.8465    0.1219 C   0  0  0  0  0  0  0  0  0  0  0  0
    8.7663   -0.0013    0.2049 C   0  0  0  0  0  0  0  0  0  0  0  0
    8.1713   -1.4108    0.1686 C   0  0  0  0  0  0  0  0  0  0  0  0
    9.0940   -2.3594   -0.1463 F   0  0  0  0  0  0  0  0  0  0  0  0
    7.5208   -1.6262    1.3580 F   0  0  0  0  0  0  0  0  0  0  0  0
    7.1257   -1.2131   -0.9259 C   0  0  0  0  0  0  0  0  0  0  0  0
    2.6239    0.7001   -0.5894 C   0  0  0  0  0  0  0  0  0  0  0  0
   -1.8858    0.0335    0.0711 C   0  0  0  0  0  0  0  0  0  0  0  0
   -1.7674    0.9769   -0.7660 O   0  0  0  0  0  0  0  0  0  0  0  0
   -3.1444   -0.1741    0.6644 N   0  0  0  0  0  0  0  0  0  0  0  0
   -3.3936   -1.1903    1.6411 C   0  0  0  0  0  0  0  0  0  0  0  0
   -4.5730   -2.0704    1.2280 C   0  0  0  0  0  0  0  0  0  0  0  0
   -5.7616   -1.1394    0.9992 C   0  0  0  0  0  0  0  0  0  0  0  0
   -5.3869   -0.2453   -0.1826 C   0  0  0  0  0  0  0  0  0  0  0  0
   -4.2756    0.6697    0.2861 C   0  0  0  0  0  0  0  0  0  0  0  0
   -6.5595    0.5014   -0.6605 C   0  0  0  0  0  0  0  0  0  0  0  0
   -7.2227    1.4194    0.1328 C   0  0  0  0  0  0  0  0  0  0  0  0
   -8.3217    2.1210   -0.3102 C   0  0  0  0  0  0  0  0  0  0  0  0
   -8.7909    1.9122   -1.5892 C   0  0  0  0  0  0  0  0  0  0  0  0
   -8.1346    0.9924   -2.3982 C   0  0  0  0  0  0  0  0  0  0  0  0
   -7.0238    0.2941   -1.9276 C   0  0  0  0  0  0  0  0  0  0  0  0
   -0.8044   -2.9220    0.6242 H   0  0  0  0  0  0  0  0  0  0  0  0
   -0.2126   -2.4274   -0.9717 H   0  0  0  0  0  0  0  0  0  0  0  0
   -1.9902   -2.2689   -0.5536 H   0  0  0  0  0  0  0  0  0  0  0  0
   -0.5566   -0.8485    1.4394 H   0  0  0  0  0  0  0  0  0  0  0  0
    1.0814   -0.2134    2.3098 H   0  0  0  0  0  0  0  0  0  0  0  0
    3.2133    0.6140    3.1982 H   0  0  0  0  0  0  0  0  0  0  0  0
    4.8909    1.4684    1.6971 H   0  0  0  0  0  0  0  0  0  0  0  0
    4.3232    2.2097   -1.8598 H   0  0  0  0  0  0  0  0  0  0  0  0
    5.4489    2.4814   -0.5211 H   0  0  0  0  0  0  0  0  0  0  0  0
    6.4424    1.1093   -2.3604 H   0  0  0  0  0  0  0  0  0  0  0  0
    5.2063   -0.1245   -2.1089 H   0  0  0  0  0  0  0  0  0  0  0  0
    7.6917    1.8199   -0.3646 H   0  0  0  0  0  0  0  0  0  0  0  0
    7.1724    0.9810    1.1758 H   0  0  0  0  0  0  0  0  0  0  0  0
    9.3767    0.2099   -0.6926 H   0  0  0  0  0  0  0  0  0  0  0  0
    9.3058    0.1627    1.1433 H   0  0  0  0  0  0  0  0  0  0  0  0
    6.3469   -2.0076   -0.8359 H   0  0  0  0  0  0  0  0  0  0  0  0
    7.6044   -1.2045   -1.9200 H   0  0  0  0  0  0  0  0  0  0  0  0
    2.4536    0.7223   -1.6533 H   0  0  0  0  0  0  0  0  0  0  0  0
   -3.6698   -0.6825    2.6130 H   0  0  0  0  0  0  0  0  0  0  0  0
   -2.5441   -1.8296    1.8655 H   0  0  0  0  0  0  0  0  0  0  0  0
   -4.3050   -2.5606    0.2897 H   0  0  0  0  0  0  0  0  0  0  0  0
   -4.7355   -2.7624    2.0658 H   0  0  0  0  0  0  0  0  0  0  0  0
   -5.8879   -0.5379    1.9090 H   0  0  0  0  0  0  0  0  0  0  0  0
   -6.6475   -1.7726    0.7602 H   0  0  0  0  0  0  0  0  0  0  0  0
   -5.0044   -0.8978   -0.9703 H   0  0  0  0  0  0  0  0  0  0  0  0
   -4.6004    1.1819    1.2133 H   0  0  0  0  0  0  0  0  0  0  0  0
   -3.9726    1.3711   -0.5078 H   0  0  0  0  0  0  0  0  0  0  0  0
   -6.8761    1.6023    1.1400 H   0  0  0  0  0  0  0  0  0  0  0  0
   -8.8254    2.8418    0.3438 H   0  0  0  0  0  0  0  0  0  0  0  0
   -9.6520    2.4484   -1.9641 H   0  0  0  0  0  0  0  0  0  0  0  0
   -8.4907    0.8147   -3.4093 H   0  0  0  0  0  0  0  0  0  0  0  0
   -6.5496   -0.4130   -2.6033 H   0  0  0  0  0  0  0  0  0  0  0  0
  1  2  1  0
  2  3  1  0
  3  4  1  0
  4  5  2  0
  5  6  1  0
  6  7  2  0
  7  8  1  0
  8  9  1  0
  9 10  1  0
 10 11  1  0
 11 12  1  0
 12 13  1  0
 13 14  1  0
 14 15  1  0
 14 16  1  0
 14 17  1  0
  8 18  2  0
  2 19  1  0
 19 20  2  0
 19 21  1  0
 21 22  1  0
 22 23  1  0
 23 24  1  0
 24 25  1  0
 25 26  1  0
 25 27  1  0
 27 28  2  0
 28 29  1  0
 29 30  2  0
 30 31  1  0
 31 32  2  0
 18  4  1  0
 26 21  1  0
 32 27  1  0
 17 11  1  0
  1 33  1  0
  1 34  1  0
  1 35  1  0
  2 36  1  1
  5 37  1  0
  6 38  1  0
  7 39  1  0
  9 40  1  0
  9 41  1  0
 10 42  1  0
 10 43  1  0
 12 44  1  0
 12 45  1  0
 13 46  1  0
 13 47  1  0
 17 48  1  0
 17 49  1  0
 18 50  1  0
 22 51  1  0
 22 52  1  0
 23 53  1  0
 23 54  1  0
 24 55  1  0
 24 56  1  0
 25 57  1  0
 26 58  1  0
 26 59  1  0
 28 60  1  0
 29 61  1  0
 30 62  1  0
 31 63  1  0
 32 64  1  0
M  END
$$$$
[H]c1nc2c(c([H])c1-c1c([H])nn([H])c1[H])n(C([H])([H])c1c([H])c([H])c(F)c(F)c1[H])c(=S)n2-c1c([H])nc(OC([H])([H])[H])nc1[H]
     RDKit          3D

 47 51  0  0  0  0  0  0  0  0999 V2000
    7.6386    0.6761   -0.4893 C   0  0  0  0  0  0  0  0  0  0  0  0
    6.9787   -0.0993    0.5090 O   0  0  0  0  0  0  0  0  0  0  0  0
    5.5905   -0.0864    0.5841 C   0  0  0  0  0  0  0  0  0  0  0  0
    4.8802    0.6526   -0.2798 N   0  0  0  0  0  0  0  0  0  0  0  0
    3.5364    0.7111   -0.2639 C   0  0  0  0  0  0  0  0  0  0  0  0
    2.8707   -0.0275    0.6895 C   0  0  0  0  0  0  0  0  0  0  0  0
    3.6115   -0.7829    1.5715 C   0  0  0  0  0  0  0  0  0  0  0  0
    4.9572   -0.8019    1.5068 N   0  0  0  0  0  0  0  0  0  0  0  0
    1.4406   -0.0027    0.7530 N   0  0  0  0  0  0  0  0  0  0  0  0
    0.6684    0.9599    1.2900 C   0  0  0  0  0  0  0  0  0  0  0  0
    1.2955    2.2835    1.9871 S   0  0  0  0  0  0  0  0  0  0  0  0
   -0.6494    0.6464    1.1683 N   0  0  0  0  0  0  0  0  0  0  0  0
   -1.8023    1.3936    1.6114 C   0  0  0  0  0  0  0  0  0  0  0  0
   -2.3447    2.3604    0.6610 C   0  0  0  0  0  0  0  0  0  0  0  0
   -1.9301    3.6706    0.6938 C   0  0  0  0  0  0  0  0  0  0  0  0
   -2.4061    4.6361   -0.1816 C   0  0  0  0  0  0  0  0  0  0  0  0
   -3.3345    4.2210   -1.1089 C   0  0  0  0  0  0  0  0  0  0  0  0
   -3.8314    5.1364   -1.9911 F   0  0  0  0  0  0  0  0  0  0  0  0
   -3.7766    2.9241   -1.1768 C   0  0  0  0  0  0  0  0  0  0  0  0
   -4.7033    2.5157   -2.1036 F   0  0  0  0  0  0  0  0  0  0  0  0
   -3.2705    1.9825   -0.2749 C   0  0  0  0  0  0  0  0  0  0  0  0
   -0.7197   -0.5444    0.5404 C   0  0  0  0  0  0  0  0  0  0  0  0
   -1.7320   -1.3947    0.1334 C   0  0  0  0  0  0  0  0  0  0  0  0
   -1.5057   -2.5948   -0.5028 C   0  0  0  0  0  0  0  0  0  0  0  0
   -0.1906   -2.9351   -0.7296 C   0  0  0  0  0  0  0  0  0  0  0  0
    0.7818   -2.1197   -0.3387 N   0  0  0  0  0  0  0  0  0  0  0  0
    0.5898   -0.9325    0.2897 C   0  0  0  0  0  0  0  0  0  0  0  0
   -2.6371   -3.4167   -0.8907 C   0  0  0  0  0  0  0  0  0  0  0  0
   -3.8445   -3.5085   -0.2321 C   0  0  0  0  0  0  0  0  0  0  0  0
   -4.6245   -4.3672   -0.8985 N   0  0  0  0  0  0  0  0  0  0  0  0
   -3.9815   -4.8265   -1.9434 N   0  0  0  0  0  0  0  0  0  0  0  0
   -2.7666   -4.2668   -1.9678 C   0  0  0  0  0  0  0  0  0  0  0  0
    8.6313    0.9959   -0.1355 H   0  0  0  0  0  0  0  0  0  0  0  0
    7.7716    0.0928   -1.4186 H   0  0  0  0  0  0  0  0  0  0  0  0
    7.0646    1.6017   -0.7125 H   0  0  0  0  0  0  0  0  0  0  0  0
    2.9625    1.3095   -0.9635 H   0  0  0  0  0  0  0  0  0  0  0  0
    3.0859   -1.3607    2.3177 H   0  0  0  0  0  0  0  0  0  0  0  0
   -1.5596    1.8507    2.6015 H   0  0  0  0  0  0  0  0  0  0  0  0
   -2.6357    0.6478    1.7986 H   0  0  0  0  0  0  0  0  0  0  0  0
   -1.2089    4.0407    1.4154 H   0  0  0  0  0  0  0  0  0  0  0  0
   -2.0917    5.6675   -0.1704 H   0  0  0  0  0  0  0  0  0  0  0  0
   -3.6631    0.9614   -0.3663 H   0  0  0  0  0  0  0  0  0  0  0  0
   -2.7812   -1.1283    0.3171 H   0  0  0  0  0  0  0  0  0  0  0  0
   -0.0074   -3.8756   -1.2286 H   0  0  0  0  0  0  0  0  0  0  0  0
   -4.0629   -2.9475    0.6756 H   0  0  0  0  0  0  0  0  0  0  0  0
   -4.3359   -5.5139   -2.6524 H   0  0  0  0  0  0  0  0  0  0  0  0
   -1.9582   -4.4043   -2.6802 H   0  0  0  0  0  0  0  0  0  0  0  0
  1  2  1  0
  2  3  1  0
  3  4  2  0
  4  5  1  0
  5  6  2  0
  6  7  1  0
  7  8  2  0
  6  9  1  0
  9 10  1  0
 10 11  2  0
 10 12  1  0
 12 13  1  0
 13 14  1  0
 14 15  2  0
 15 16  1  0
 16 17  2  0
 17 18  1  0
 17 19  1  0
 19 20  1  0
 19 21  2  0
 12 22  1  0
 22 23  2  0
 23 24  1  0
 24 25  2  0
 25 26  1  0
 26 27  2  0
 24 28  1  0
 28 29  1  0
 29 30  2  0
 30 31  1  0
 31 32  1  0
  8  3  1  0
 27  9  1  0
 32 28  2  0
 21 14  1  0
 27 22  1  0
  1 33  1  0
  1 34  1  0
  1 35  1  0
  5 36  1  0
  7 37  1  0
 13 38  1  0
 13 39  1  0
 15 40  1  0
 16 41  1  0
 21 42  1  0
 23 43  1  0
 25 44  1  0
 29 45  1  0
 31 46  1  0
 32 47  1  0
M  END
$$$$
[H]c1nc([H])c2c([H])c([H])c([H])c(-c3c([H])c4c(N([H])C([H])([H])C([H])([H])C([H])([H])N5C([H])([H])C([H])([H])N(C([H])([H])[H])C([H])([H])C5([H])[H])nc([H])c([H])c4n3[H])c2c1[H]
     RDKit          3D

 58 62  0  0  0  0  0  0  0  0999 V2000
   -6.6991   -1.4994   -1.3894 C   0  0  0  0  0  0  0  0  0  0  0  0
   -7.0781   -0.2468   -0.8137 N   0  0  0  0  0  0  0  0  0  0  0  0
   -6.4921    0.8720   -1.4740 C   0  0  0  0  0  0  0  0  0  0  0  0
   -5.0841    1.1916   -1.0534 C   0  0  0  0  0  0  0  0  0  0  0  0
   -4.8247    1.0493    0.3396 N   0  0  0  0  0  0  0  0  0  0  0  0
   -3.9043    0.0262    0.7114 C   0  0  0  0  0  0  0  0  0  0  0  0
   -2.4833    0.3239    0.2770 C   0  0  0  0  0  0  0  0  0  0  0  0
   -1.6170   -0.8246    0.7228 C   0  0  0  0  0  0  0  0  0  0  0  0
   -0.2350   -0.7027    0.3965 N   0  0  0  0  0  0  0  0  0  0  0  0
    0.5441    0.3460    0.9730 C   0  0  0  0  0  0  0  0  0  0  0  0
    0.0723    1.2477    1.8412 N   0  0  0  0  0  0  0  0  0  0  0  0
    0.8245    2.2226    2.3780 C   0  0  0  0  0  0  0  0  0  0  0  0
    2.1550    2.3345    2.0434 C   0  0  0  0  0  0  0  0  0  0  0  0
    2.7084    1.4231    1.1413 C   0  0  0  0  0  0  0  0  0  0  0  0
    3.9376    1.2705    0.6282 N   0  0  0  0  0  0  0  0  0  0  0  0
    3.9747    0.2496   -0.1932 C   0  0  0  0  0  0  0  0  0  0  0  0
    2.6624   -0.2848   -0.2024 C   0  0  0  0  0  0  0  0  0  0  0  0
    1.9025    0.4568    0.6288 C   0  0  0  0  0  0  0  0  0  0  0  0
    5.0141   -0.4308   -0.9666 C   0  0  0  0  0  0  0  0  0  0  0  0
    4.6232   -1.0895   -2.1487 C   0  0  0  0  0  0  0  0  0  0  0  0
    5.4796   -1.7658   -2.9534 C   0  0  0  0  0  0  0  0  0  0  0  0
    6.8057   -1.8191   -2.6070 C   0  0  0  0  0  0  0  0  0  0  0  0
    7.2122   -1.1865   -1.4556 C   0  0  0  0  0  0  0  0  0  0  0  0
    8.5358   -1.2658   -1.0871 C   0  0  0  0  0  0  0  0  0  0  0  0
    8.9967   -0.7018    0.0377 N   0  0  0  0  0  0  0  0  0  0  0  0
    8.1673   -0.0415    0.8371 C   0  0  0  0  0  0  0  0  0  0  0  0
    6.8155    0.0906    0.5454 C   0  0  0  0  0  0  0  0  0  0  0  0
    6.3346   -0.4825   -0.6108 C   0  0  0  0  0  0  0  0  0  0  0  0
   -6.0421    0.9366    1.0952 C   0  0  0  0  0  0  0  0  0  0  0  0
   -6.9594   -0.1506    0.6045 C   0  0  0  0  0  0  0  0  0  0  0  0
   -6.0776   -1.4037   -2.3015 H   0  0  0  0  0  0  0  0  0  0  0  0
   -6.0463   -2.0303   -0.6444 H   0  0  0  0  0  0  0  0  0  0  0  0
   -7.5651   -2.1520   -1.6338 H   0  0  0  0  0  0  0  0  0  0  0  0
   -7.1686    1.7447   -1.3521 H   0  0  0  0  0  0  0  0  0  0  0  0
   -6.4672    0.6532   -2.5624 H   0  0  0  0  0  0  0  0  0  0  0  0
   -4.3514    0.6642   -1.6987 H   0  0  0  0  0  0  0  0  0  0  0  0
   -4.9392    2.2867   -1.2957 H   0  0  0  0  0  0  0  0  0  0  0  0
   -3.8907   -0.0055    1.8333 H   0  0  0  0  0  0  0  0  0  0  0  0
   -4.1441   -0.9837    0.3787 H   0  0  0  0  0  0  0  0  0  0  0  0
   -2.1577    1.3106    0.5945 H   0  0  0  0  0  0  0  0  0  0  0  0
   -2.4378    0.3373   -0.8529 H   0  0  0  0  0  0  0  0  0  0  0  0
   -1.7246   -0.8506    1.8491 H   0  0  0  0  0  0  0  0  0  0  0  0
   -2.0058   -1.7710    0.2902 H   0  0  0  0  0  0  0  0  0  0  0  0
    0.2016   -1.3806   -0.2638 H   0  0  0  0  0  0  0  0  0  0  0  0
    0.4048    2.9490    3.0906 H   0  0  0  0  0  0  0  0  0  0  0  0
    2.7951    3.1072    2.4550 H   0  0  0  0  0  0  0  0  0  0  0  0
    4.7034    1.9441    0.8628 H   0  0  0  0  0  0  0  0  0  0  0  0
    2.3062   -1.1321   -0.7637 H   0  0  0  0  0  0  0  0  0  0  0  0
    3.5792   -1.0406   -2.4121 H   0  0  0  0  0  0  0  0  0  0  0  0
    5.1218   -2.2677   -3.8759 H   0  0  0  0  0  0  0  0  0  0  0  0
    7.5071   -2.3446   -3.2252 H   0  0  0  0  0  0  0  0  0  0  0  0
    9.2525   -1.7939   -1.7052 H   0  0  0  0  0  0  0  0  0  0  0  0
    8.5137    0.4168    1.7411 H   0  0  0  0  0  0  0  0  0  0  0  0
    6.1729    0.5948    1.2426 H   0  0  0  0  0  0  0  0  0  0  0  0
   -5.8102    0.7086    2.1735 H   0  0  0  0  0  0  0  0  0  0  0  0
   -6.5499    1.9453    1.0547 H   0  0  0  0  0  0  0  0  0  0  0  0
   -7.9592    0.0457    1.0609 H   0  0  0  0  0  0  0  0  0  0  0  0
   -6.6099   -1.1008    1.0734 H   0  0  0  0  0  0  0  0  0  0  0  0
  1  2  1  0
  2  3  1  0
  3  4  1  0
  4  5  1  0
  5  6  1  0
  6  7  1  0
  7  8  1  0
  8  9  1  0
  9 10  1  0
 10 11  2  0
 11 12  1  0
 12 13  2  0
 13 14  1  0
 14 15  1  0
 15 16  1  0
 16 17  2  0
 17 18  1  0
 16 19  1  0
 19 20  2  0
 20 21  1  0
 21 22  2  0
 22 23  1  0
 23 24  2  0
 24 25  1  0
 25 26  2  0
 26 27  1  0
 27 28  2  0
  5 29  1  0
 29 30  1  0
 30  2  1  0
 18 10  1  0
 28 19  1  0
 18 14  2  0
 28 23  1  0
  1 31  1  0
  1 32  1  0
  1 33  1  0
  3 34  1  0
  3 35  1  0
  4 36  1  0
  4 37  1  0
  6 38  1  0
  6 39  1  0
  7 40  1  0
  7 41  1  0
  8 42  1  0
  8 43  1  0
  9 44  1  0
 12 45  1  0
 13 46  1  0
 15 47  1  0
 17 48  1  0
 20 49  1  0
 21 50  1  0
 22 51  1  0
 24 52  1  0
 26 53  1  0
 27 54  1  0
 29 55  1  0
 29 56  1  0
 30 57  1  0
 30 58  1  0
M  END
$$$$
[H]c1nn([H])c([H])c1-c1c([H])c([H])c(OC([H])([H])[H])c2c([H])c(F)c([H])c([H])c12
     RDKit          3D

 29 31  0  0  0  0  0  0  0  0999 V2000
    4.0867   -1.4630   -0.0657 C   0  0  0  0  0  0  0  0  0  0  0  0
    3.2955   -0.3185   -0.1352 O   0  0  0  0  0  0  0  0  0  0  0  0
    1.9303   -0.3936   -0.0498 C   0  0  0  0  0  0  0  0  0  0  0  0
    1.3346   -1.6208    0.1071 C   0  0  0  0  0  0  0  0  0  0  0  0
   -0.0292   -1.7015    0.1925 C   0  0  0  0  0  0  0  0  0  0  0  0
   -0.8609   -0.5658    0.1255 C   0  0  0  0  0  0  0  0  0  0  0  0
   -2.2989   -0.7155    0.1950 C   0  0  0  0  0  0  0  0  0  0  0  0
   -2.9228   -1.4176    1.2327 C   0  0  0  0  0  0  0  0  0  0  0  0
   -4.2416   -1.4138    1.0146 N   0  0  0  0  0  0  0  0  0  0  0  0
   -4.4832   -0.7484   -0.1023 N   0  0  0  0  0  0  0  0  0  0  0  0
   -3.3228   -0.3149   -0.6185 C   0  0  0  0  0  0  0  0  0  0  0  0
   -0.2494    0.6594   -0.0313 C   0  0  0  0  0  0  0  0  0  0  0  0
   -0.9685    1.8222   -0.0980 C   0  0  0  0  0  0  0  0  0  0  0  0
   -0.3020    3.0266   -0.2494 C   0  0  0  0  0  0  0  0  0  0  0  0
    1.0680    3.1199   -0.3376 C   0  0  0  0  0  0  0  0  0  0  0  0
    1.7345    4.2780   -0.4851 F   0  0  0  0  0  0  0  0  0  0  0  0
    1.7920    1.9563   -0.2702 C   0  0  0  0  0  0  0  0  0  0  0  0
    1.1348    0.7453   -0.1186 C   0  0  0  0  0  0  0  0  0  0  0  0
    5.1176   -1.1707   -0.4174 H   0  0  0  0  0  0  0  0  0  0  0  0
    4.1687   -1.8532    0.9911 H   0  0  0  0  0  0  0  0  0  0  0  0
    3.7124   -2.2379   -0.7598 H   0  0  0  0  0  0  0  0  0  0  0  0
    1.9151   -2.5276    0.1652 H   0  0  0  0  0  0  0  0  0  0  0  0
   -0.5493   -2.6407    0.3163 H   0  0  0  0  0  0  0  0  0  0  0  0
   -2.4339   -1.8908    2.0778 H   0  0  0  0  0  0  0  0  0  0  0  0
   -5.4352   -0.6011   -0.4940 H   0  0  0  0  0  0  0  0  0  0  0  0
   -3.1619    0.2586   -1.5220 H   0  0  0  0  0  0  0  0  0  0  0  0
   -2.0376    1.7953   -0.0243 H   0  0  0  0  0  0  0  0  0  0  0  0
   -0.8546    3.9542   -0.3042 H   0  0  0  0  0  0  0  0  0  0  0  0
    2.8617    1.9797   -0.3342 H   0  0  0  0  0  0  0  0  0  0  0  0
  1  2  1  0
  2  3  1  0
  3  4  2  0
  4  5  1  0
  5  6  2  0
  6  7  1  0
  7  8  1  0
  8  9  2  0
  9 10  1  0
 10 11  1  0
  6 12  1  0
 12 13  2  0
 13 14  1  0
 14 15  2  0
 15 16  1  0
 15 17  1  0
 17 18  2  0
 18  3  1  0
 11  7  2  0
 18 12  1  0
  1 19  1  0
  1 20  1  0
  1 21  1  0
  4 22  1  0
  5 23  1  0
  8 24  1  0
 10 25  1  0
 11 26  1  0
 13 27  1  0
 14 28  1  0
 17 29  1  0
M  END
$$$$
[H]c1c([H])c(F)c(Cl)c(N2C([H])([H])C([H])([H])N(C([H])([H])C([H])([H])C([H])([H])C([H])([H])n3c([H])nc4c([H])c([H])c([H])c([H])c4c3=O)C([H])([H])C([H])([H])C2([H])[H])c1[H]
     RDKit          3D

 56 59  0  0  0  0  0  0  0  0999 V2000
   -7.8742   -2.8378    0.2743 F   0  0  0  0  0  0  0  0  0  0  0  0
   -6.5746   -2.5907    0.5330 C   0  0  0  0  0  0  0  0  0  0  0  0
   -5.8653   -3.5366    1.2457 C   0  0  0  0  0  0  0  0  0  0  0  0
   -4.5331   -3.2614    1.4993 C   0  0  0  0  0  0  0  0  0  0  0  0
   -3.9642   -2.0896    1.0504 C   0  0  0  0  0  0  0  0  0  0  0  0
   -4.6891   -1.1615    0.3421 C   0  0  0  0  0  0  0  0  0  0  0  0
   -3.9980    0.0201   -0.0756 N   0  0  0  0  0  0  0  0  0  0  0  0
   -3.9591    0.2498   -1.5104 C   0  0  0  0  0  0  0  0  0  0  0  0
   -2.6472    0.9366   -1.8229 C   0  0  0  0  0  0  0  0  0  0  0  0
   -1.5562    0.0964   -1.1493 C   0  0  0  0  0  0  0  0  0  0  0  0
   -1.1015    0.6481    0.0457 N   0  0  0  0  0  0  0  0  0  0  0  0
   -0.2240    1.7611   -0.1762 C   0  0  0  0  0  0  0  0  0  0  0  0
    1.1194    1.4004   -0.7675 C   0  0  0  0  0  0  0  0  0  0  0  0
    1.9548    2.6431   -0.9435 C   0  0  0  0  0  0  0  0  0  0  0  0
    3.3114    2.4135   -1.5001 C   0  0  0  0  0  0  0  0  0  0  0  0
    4.1793    1.5719   -0.7299 N   0  0  0  0  0  0  0  0  0  0  0  0
    4.9314    2.1107    0.2783 C   0  0  0  0  0  0  0  0  0  0  0  0
    5.7130    1.3301    0.9972 N   0  0  0  0  0  0  0  0  0  0  0  0
    5.7891    0.0098    0.7617 C   0  0  0  0  0  0  0  0  0  0  0  0
    6.6221   -0.8024    1.5359 C   0  0  0  0  0  0  0  0  0  0  0  0
    6.6843   -2.1517    1.2798 C   0  0  0  0  0  0  0  0  0  0  0  0
    5.9356   -2.7069    0.2711 C   0  0  0  0  0  0  0  0  0  0  0  0
    5.0981   -1.9337   -0.5174 C   0  0  0  0  0  0  0  0  0  0  0  0
    5.0604   -0.5748   -0.2307 C   0  0  0  0  0  0  0  0  0  0  0  0
    4.2292    0.2570   -0.9951 C   0  0  0  0  0  0  0  0  0  0  0  0
    3.5681   -0.3153   -1.9100 O   0  0  0  0  0  0  0  0  0  0  0  0
   -1.9717    0.8494    1.1152 C   0  0  0  0  0  0  0  0  0  0  0  0
   -3.4215    0.8522    0.9332 C   0  0  0  0  0  0  0  0  0  0  0  0
   -6.0105   -1.4111    0.0783 C   0  0  0  0  0  0  0  0  0  0  0  0
   -6.9645   -0.2404   -0.8236 Cl  0  0  0  0  0  0  0  0  0  0  0  0
   -6.3003   -4.4592    1.6037 H   0  0  0  0  0  0  0  0  0  0  0  0
   -3.9341   -3.9718    2.0548 H   0  0  0  0  0  0  0  0  0  0  0  0
   -2.9237   -1.9159    1.2710 H   0  0  0  0  0  0  0  0  0  0  0  0
   -3.9589   -0.7145   -2.0767 H   0  0  0  0  0  0  0  0  0  0  0  0
   -4.7827    0.9307   -1.8500 H   0  0  0  0  0  0  0  0  0  0  0  0
   -2.4954    0.9993   -2.9097 H   0  0  0  0  0  0  0  0  0  0  0  0
   -2.6391    1.9393   -1.3419 H   0  0  0  0  0  0  0  0  0  0  0  0
   -0.7457    0.0183   -1.8929 H   0  0  0  0  0  0  0  0  0  0  0  0
   -1.9219   -0.9688   -1.0394 H   0  0  0  0  0  0  0  0  0  0  0  0
   -0.0661    2.3100    0.7796 H   0  0  0  0  0  0  0  0  0  0  0  0
   -0.6878    2.5033   -0.8768 H   0  0  0  0  0  0  0  0  0  0  0  0
    1.6249    0.7323   -0.0626 H   0  0  0  0  0  0  0  0  0  0  0  0
    1.0079    0.8879   -1.7368 H   0  0  0  0  0  0  0  0  0  0  0  0
    1.4004    3.2673   -1.7066 H   0  0  0  0  0  0  0  0  0  0  0  0
    1.9431    3.2740   -0.0287 H   0  0  0  0  0  0  0  0  0  0  0  0
    3.1689    1.9179   -2.5048 H   0  0  0  0  0  0  0  0  0  0  0  0
    3.7947    3.3879   -1.7580 H   0  0  0  0  0  0  0  0  0  0  0  0
    4.8294    3.1735    0.4199 H   0  0  0  0  0  0  0  0  0  0  0  0
    7.1981   -0.3396    2.3199 H   0  0  0  0  0  0  0  0  0  0  0  0
    7.3277   -2.7696    1.8793 H   0  0  0  0  0  0  0  0  0  0  0  0
    5.9756   -3.7506    0.0650 H   0  0  0  0  0  0  0  0  0  0  0  0
    4.4957   -2.3550   -1.3215 H   0  0  0  0  0  0  0  0  0  0  0  0
   -1.6785    1.8156    1.6310 H   0  0  0  0  0  0  0  0  0  0  0  0
   -1.7259    0.0760    1.9089 H   0  0  0  0  0  0  0  0  0  0  0  0
   -3.9532    0.5773    1.8972 H   0  0  0  0  0  0  0  0  0  0  0  0
   -3.7945    1.8985    0.7342 H   0  0  0  0  0  0  0  0  0  0  0  0
  1  2  1  0
  2  3  2  0
  3  4  1  0
  4  5  2  0
  5  6  1  0
  6  7  1  0
  7  8  1  0
  8  9  1  0
  9 10  1  0
 10 11  1  0
 11 12  1  0
 12 13  1  0
 13 14  1  0
 14 15  1  0
 15 16  1  0
 16 17  1  0
 17 18  2  0
 18 19  1  0
 19 20  2  0
 20 21  1  0
 21 22  2  0
 22 23  1  0
 23 24  2  0
 24 25  1  0
 25 26  2  0
 11 27  1  0
 27 28  1  0
  6 29  2  0
 29 30  1  0
 29  2  1  0
 28  7  1  0
 25 16  1  0
 24 19  1  0
  3 31  1  0
  4 32  1  0
  5 33  1  0
  8 34  1  0
  8 35  1  0
  9 36  1  0
  9 37  1  0
 10 38  1  0
 10 39  1  0
 12 40  1  0
 12 41  1  0
 13 42  1  0
 13 43  1  0
 14 44  1  0
 14 45  1  0
 15 46  1  0
 15 47  1  0
 17 48  1  0
 20 49  1  0
 21 50  1  0
 22 51  1  0
 23 52  1  0
 27 53  1  0
 27 54  1  0
 28 55  1  0
 28 56  1  0
M  END
$$$$
